data_functionalizedCrystal
_audit_creation_method	'MofGen! by Chris Wilmer'
_symmetry_space_group_name_H-M	'P1'
_symmetry_Int_Tables_number	1
_symmetry_cell_setting	triclinic
loop_
_symmetry_equiv_pos_as_xyz
  x,y,z
_cell_length_a	16.956995
_cell_length_b	15.944551
_cell_length_c	15.455313
_cell_angle_alpha	92.664316
_cell_angle_beta	87.515363
_cell_angle_gamma	79.776605
loop_
_atom_site_label
_atom_site_type_symbol
_atom_site_fract_x
_atom_site_fract_y
_atom_site_fract_z
O1	O	1.061537	0.030892	-0.072191
O2	O	1.561537	0.530892	0.427809
O3	O	0.829381	0.060381	-0.072180
O4	O	1.329381	0.560381	0.427820
O5	O	0.951798	-0.077078	-0.072178
O6	O	1.451798	0.422922	0.427822
O7	O	0.939119	0.168352	-0.072193
O8	O	1.439119	0.668352	0.427807
O9	O	0.944797	-0.069248	0.072084
O10	O	1.444797	0.430752	0.572084
O11	O	0.822380	0.068211	0.072082
O12	O	1.322380	0.568211	0.572082
O13	O	1.054536	0.038723	0.072071
O14	O	1.554536	0.538723	0.572071
Cu15	Cu	0.937819	0.054182	0.085249
Cu16	Cu	1.437819	0.554182	0.585249
Cu17	Cu	0.946098	0.044922	-0.085358
Cu18	Cu	1.446098	0.544922	0.414642
O19	O	0.932119	0.176182	0.072069
O20	O	1.432119	0.676182	0.572069
C21	C	0.796172	0.065806	-0.000048
C22	C	1.296172	0.565806	0.499952
C23	C	0.707652	0.070295	-0.000043
C24	C	1.207652	0.570295	0.499957
C25	C	0.208355	0.103873	-0.000078
C26	C	0.708355	0.603873	0.499922
C27	C	0.291530	0.099649	-0.000077
C28	C	0.791530	0.599649	0.499923
C29	C	0.342613	0.020359	-0.000065
C30	C	0.842613	0.520359	0.499935
C31	C	0.310519	-0.054712	-0.000064
C32	C	0.810519	0.445288	0.499936
C33	C	0.227345	-0.050487	-0.000071
C34	C	0.727345	0.449513	0.499929
C35	C	0.592384	-0.000552	-0.000049
C36	C	1.092384	0.499448	0.499951
C37	C	0.675562	-0.004770	-0.000039
C38	C	1.175562	0.495230	0.499961
C39	C	0.656568	0.149591	-0.000054
C40	C	1.156568	0.649591	0.499946
C41	C	0.573393	0.153809	-0.000056
C42	C	1.073393	0.653809	0.499944
C43	C	0.541306	0.078738	-0.000059
C44	C	1.041306	0.578738	0.499941
N45	N	0.427632	0.016040	-0.000062
N46	N	0.927632	0.516040	0.499938
N47	N	0.456290	0.083058	-0.000069
N48	N	0.956290	0.583058	0.499931
C49	C	0.947771	-0.104421	-0.000047
C50	C	1.447771	0.395579	0.499953
C51	C	0.946193	-0.197557	-0.000046
C52	C	1.446193	0.302443	0.499954
C53	C	0.866542	-0.406879	-0.000055
C54	C	1.366542	0.093121	0.499945
C55	C	0.900078	-0.466606	0.071073
C56	C	1.400078	0.033394	0.571073
C57	C	0.943339	-0.368085	-0.000053
C58	C	1.443339	0.131915	0.499947
C59	C	0.906998	-0.474311	-0.071158
C60	C	1.406998	0.025689	0.428842
C61	C	0.940576	-0.532806	-0.000063
C62	C	1.440576	-0.032806	0.499937
C63	C	0.976893	-0.426582	0.071134
C64	C	1.476893	0.073418	0.571134
C65	C	0.983805	-0.434283	-0.071161
C66	C	1.483805	0.065717	0.428839
C67	C	1.017397	-0.493995	-0.000016
C68	C	1.517397	0.006005	0.499984
C69	C	0.944928	-0.273193	-0.000046
C70	C	1.444928	0.226807	0.499954
C71	C	0.938992	-0.627697	-0.000063
C72	C	1.438992	-0.127697	0.499937
C73	C	1.087745	0.033297	-0.000064
C74	C	1.587745	0.533297	0.499936
C75	C	1.176265	0.028808	-0.000074
C76	C	1.676265	0.528808	0.499926
C77	C	0.936146	0.203524	-0.000064
C78	C	1.436146	0.703524	0.499936
C79	C	0.937724	0.296660	-0.000071
C80	C	1.437724	0.796660	0.499929
N81	N	0.932002	0.060694	0.205244
N82	N	1.432002	0.560694	0.705244
N83	N	0.951921	0.038402	-0.205353
N84	N	1.451921	0.538402	0.294647
C85	C	0.984027	0.002315	0.250639
C86	C	1.484027	0.502315	0.750639
C87	C	0.979635	0.007247	0.341447
C88	C	1.479635	0.507247	0.841447
C89	C	0.923222	0.070562	0.386858
C90	C	1.423222	0.570562	0.886858
C91	C	0.871191	0.128944	0.341457
C92	C	1.371191	0.628944	0.841457
C93	C	0.875579	0.124007	0.250650
C94	C	1.375579	0.624007	0.750650
C95	C	0.904279	0.091847	0.658439
C96	C	1.404279	0.591847	1.158439
C97	C	0.899896	0.096781	0.749252
C98	C	1.399896	0.596781	1.249252
C99	C	1.008340	-0.024917	0.749236
C100	C	1.508340	0.475083	1.249236
C101	C	1.012727	-0.029845	0.658428
C102	C	1.512727	0.470155	1.158428
C103	C	0.960693	0.028534	0.613034
C104	C	1.460693	0.528534	1.113034
N105	N	0.918733	0.075607	0.479678
N106	N	1.418733	0.575607	0.979678
N107	N	0.965179	0.023485	0.520216
N108	N	1.465179	0.523485	1.020216
H109	H	0.717154	-0.069342	-0.000034
H110	H	1.217154	0.430658	0.499966
O111	O	0.365610	-0.140235	-0.000043
O112	O	0.865610	0.359765	0.499957
H113	H	0.428837	-0.130562	-0.000027
H114	H	0.928837	0.369438	0.499973
O115	O	1.064460	-0.087880	0.798194
O116	O	1.564460	0.412120	1.298194
H117	H	1.055148	-0.153609	0.780775
H118	H	1.555148	0.346391	1.280775
O119	O	0.153266	0.189399	-0.000088
O120	O	0.653266	0.689399	0.499912
H121	H	0.112064	0.198215	0.058713
H122	H	0.612064	0.698215	0.558713
H123	H	0.833214	0.171544	0.213691
H124	H	1.333214	0.671544	0.713691
O125	O	0.782104	-0.356876	0.000048
O126	O	1.282104	0.143124	0.500048
H127	H	0.784058	-0.287691	-0.000559
H128	H	1.284058	0.212309	0.499441
O129	O	0.691183	0.230553	-0.000058
O130	O	1.191183	0.730553	0.499942
H131	H	0.667811	0.271564	0.058739
H132	H	1.167811	0.771564	0.558739
O133	O	0.848164	0.154820	0.609490
O134	O	1.348164	0.654820	1.109490
H135	H	0.860683	0.140751	0.538717
H136	H	1.360683	0.640751	1.038717
H137	H	0.317653	0.160775	-0.000088
H138	H	0.817653	0.660775	0.499912
O139	O	1.101904	-0.543800	-0.000020
O140	O	1.601904	-0.043800	0.499980
H141	H	1.108354	-0.581769	0.058483
H142	H	1.608354	-0.081769	0.558483
O143	O	0.810345	0.197240	0.390429
O144	O	1.310345	0.697240	0.890429
H145	H	0.816040	0.190873	0.461199
H146	H	1.316040	0.690873	0.961199
H147	H	1.058663	-0.081401	0.621456
H148	H	1.558663	0.418599	1.121456
O149	O	0.557786	-0.081521	-0.000032
O150	O	1.057786	0.418479	0.499968
H151	H	0.581173	-0.122543	-0.058817
H152	H	1.081173	0.377457	0.441183
O153	O	0.518295	0.239328	-0.000067
O154	O	1.018295	0.739328	0.499933
H155	H	0.554584	0.290818	-0.000074
H156	H	1.054584	0.790818	0.499926
H157	H	0.201220	-0.111613	-0.000069
H158	H	0.701220	0.388387	0.499931
O159	O	1.016021	-0.398774	0.150874
O160	O	1.516021	0.101226	0.650874
H161	H	0.981471	-0.411979	0.209787
H162	H	1.481471	0.088021	0.709787
O163	O	0.853196	-0.485931	0.150736
O164	O	1.353196	0.014069	0.650736
H165	H	0.790603	-0.450600	0.150596
H166	H	1.290603	0.049400	0.650596
H167	H	0.877424	-0.495394	-0.131295
H168	H	1.377424	0.004606	0.368705
O169	O	1.030661	-0.414914	-0.150817
O170	O	1.530661	0.085086	0.349183
H171	H	1.001519	-0.433836	-0.209776
H172	H	1.501519	0.066164	0.290224
O173	O	1.044871	-0.065978	0.201660
O174	O	1.544871	0.434022	0.701660
H175	H	1.080303	-0.105749	0.248486
H176	H	1.580303	0.394251	0.748486
O177	O	1.035762	-0.055703	0.390412
O178	O	1.535762	0.444297	0.890412
H179	H	1.075739	-0.100547	0.343579
H180	H	1.575739	0.399453	0.843579
H181	H	0.853954	0.148344	0.786221
H182	H	1.353954	0.648344	1.286221
