data_functionalizedCrystal
_audit_creation_method	'MofGen! by Chris Wilmer'
_symmetry_space_group_name_H-M	'P1'
_symmetry_Int_Tables_number	1
_symmetry_cell_setting	triclinic
loop_
_symmetry_equiv_pos_as_xyz
  x,y,z
_cell_length_a	15.995292
_cell_length_b	15.072220
_cell_length_c	15.995350
_cell_angle_alpha	90.001101
_cell_angle_beta	96.519505
_cell_angle_gamma	90.013670
loop_
_atom_site_label
_atom_site_type_symbol
_atom_site_fract_x
_atom_site_fract_y
_atom_site_fract_z
O1	O	1.111026	0.073802	-0.107689
O2	O	0.867244	0.073798	-0.121068
O3	O	0.995799	0.073799	0.007511
O4	O	0.982471	0.073801	-0.236267
O5	O	0.995767	-0.073766	0.007503
O6	O	0.867213	-0.073767	-0.121075
O7	O	1.110994	-0.073763	-0.107696
Zn8	Zn	0.989098	-0.097194	-0.114387
Zn9	Zn	0.989140	0.097229	-0.114377
O10	O	0.982440	-0.073764	-0.236275
C11	C	0.836033	0.000015	-0.120527
C12	C	0.743080	0.000014	-0.118894
C13	C	0.405341	0.000024	-0.112893
C14	C	0.428654	0.000354	-0.205697
C15	C	0.525329	0.000017	-0.207461
C16	C	0.572897	0.000019	-0.115871
C17	C	0.543777	-0.084245	-0.069477
C18	C	0.446987	-0.084312	-0.068360
C19	C	0.447168	0.083497	-0.066457
C20	C	0.543660	0.084607	-0.069896
C21	C	0.667593	0.000014	-0.117549
C22	C	0.310646	0.000023	-0.111212
N23	N	0.989076	-0.229883	-0.114393
C24	C	0.989139	-0.589085	-0.114374
C25	C	0.920120	-0.551478	-0.182943
C26	C	0.920279	-0.448653	-0.183193
C27	C	0.989107	-0.410880	-0.114383
C28	C	1.076474	-0.448170	-0.133447
C29	C	1.076087	-0.551028	-0.133934
C30	C	0.971569	-0.551186	-0.026538
C31	C	0.969564	-0.448322	-0.027124
C32	C	0.989094	-0.310167	-0.114387
C33	C	0.989157	-0.689798	-0.114372
C34	C	1.142206	0.000022	-0.108237
C35	C	1.235159	0.000029	-0.109870
C36	C	0.995232	0.000018	0.038702
C37	C	0.993580	0.000023	0.131652
N38	N	0.989169	0.229918	-0.114365
C39	C	0.983006	0.000018	-0.267466
C40	C	0.984658	0.000019	-0.360416
C41	C	0.987648	0.000020	0.469398
C42	C	0.896094	0.000350	0.421945
C43	C	0.897746	0.000017	0.325255
C44	C	0.990591	0.000022	0.301838
C45	C	1.035730	-0.084242	0.342921
C46	C	1.033430	-0.084313	0.439556
C47	C	1.035358	0.083496	0.439923
C48	C	1.035336	0.084610	0.342978
C49	C	0.992259	0.000021	0.207141
C50	C	0.985983	0.000016	0.564095
H51	H	0.563823	-0.146956	-0.101701
H52	H	1.129060	-0.423701	-0.084832
Br53	Br	0.380264	-0.099795	-0.264999
H54	H	1.103044	0.089702	0.327630
H55	H	0.859650	-0.059742	0.441528
Br56	Br	0.835118	0.101069	0.452819
H57	H	1.129050	-0.575902	-0.085960
H58	H	0.433174	0.084068	0.001853
H59	H	0.905296	-0.423951	-0.012657
H60	H	1.092327	-0.422400	-0.196774
Br61	Br	0.838604	0.100695	0.277871
Br62	Br	0.399986	0.189949	-0.114806
H63	H	0.562243	0.146945	-0.103675
Br64	Br	0.838157	-0.100831	0.278786
H65	H	1.100648	-0.088132	0.471818
H66	H	0.909244	-0.577177	-0.008203
Br67	Br	1.149420	-0.089464	0.319406
Br68	Br	0.983435	-0.188767	0.295605
Br69	Br	1.047915	-0.405487	0.061908
H70	H	0.854969	-0.576241	-0.171775
Br71	Br	0.978521	-0.189302	0.470048
Br72	Br	1.147866	0.084449	0.492882
H73	H	1.091570	-0.575009	-0.197991
Br74	Br	0.812022	-0.406629	-0.164325
H75	H	0.576631	0.089698	-0.003044
H76	H	1.005438	0.147364	0.460459
Br77	Br	1.055457	-0.591714	0.058510
H78	H	0.544369	0.060423	-0.243790
Br79	Br	0.555990	-0.100835	-0.268391
Br80	Br	0.382016	0.101076	-0.265320
Br81	Br	0.402262	-0.189298	-0.121924
H82	H	0.931185	-0.577316	-0.247758
Br83	Br	0.938939	-0.407618	-0.291846
Br84	Br	0.422728	-0.090745	0.045045
Br85	Br	0.980791	0.188527	0.297016
Br86	Br	0.596878	-0.089464	0.042863
