data_functionalizedCrystal
_audit_creation_method	'MofGen! by Chris Wilmer'
_symmetry_space_group_name_H-M	'P1'
_symmetry_Int_Tables_number	1
_symmetry_cell_setting	triclinic
loop_
_symmetry_equiv_pos_as_xyz
  x,y,z
_cell_length_a	19.077105
_cell_length_b	17.640280
_cell_length_c	19.077569
_cell_angle_alpha	76.074772
_cell_angle_beta	85.299277
_cell_angle_gamma	76.093206
loop_
_atom_site_label
_atom_site_type_symbol
_atom_site_fract_x
_atom_site_fract_y
_atom_site_fract_z
Zn1	Zn	1.154299	-0.349637	-0.381418
Zn2	Zn	1.654299	0.150363	0.118582
Zn3	Zn	1.173645	-0.489090	-0.239424
Zn4	Zn	1.673645	0.010910	0.260576
Zn5	Zn	1.031683	-0.349648	-0.258811
Zn6	Zn	1.531683	0.150352	0.241189
Zn7	Zn	1.058736	-0.478671	-0.354345
Zn8	Zn	1.558736	0.021329	0.145655
O9	O	1.104591	-0.416762	-0.308499
O10	O	1.604591	0.083238	0.191501
O11	O	1.256270	-0.372491	-0.365798
O12	O	1.756270	0.127509	0.134202
O13	O	1.151588	-0.474958	-0.142590
O14	O	1.651588	0.025042	0.357410
O15	O	1.028530	-0.237289	-0.294519
O16	O	1.528530	0.262711	0.205481
O17	O	1.270484	-0.474947	-0.261476
O18	O	1.770484	0.025053	0.238524
O19	O	1.118616	-0.237280	-0.384597
O20	O	1.618616	0.262720	0.115403
O21	O	1.047289	-0.372511	-0.156833
O22	O	1.547289	0.127489	0.343167
O23	O	0.935867	-0.362408	-0.268267
O24	O	1.435867	0.137592	0.231733
O25	O	1.074638	-0.457190	-0.457342
O26	O	1.574638	0.042810	0.042658
O27	O	0.955743	-0.457201	-0.338455
O28	O	1.455743	0.042799	0.161545
O29	O	1.144848	-0.362388	-0.477232
O30	O	1.644848	0.137612	0.022768
O31	O	1.177820	-0.600067	-0.235225
O32	O	1.677820	-0.100067	0.264775
O33	O	1.093397	-0.592412	-0.319656
O34	O	1.593397	-0.092412	0.180344
C35	C	0.920030	-0.408676	-0.302528
C36	C	1.420030	0.091324	0.197472
C37	C	0.841078	-0.405235	-0.299986
C38	C	1.341078	0.094765	0.200014
C39	C	0.814364	-0.453053	-0.335251
C40	C	1.314364	0.046947	0.164749
C41	C	0.740179	-0.449809	-0.332868
C42	C	1.240179	0.050191	0.167132
C43	C	0.692709	-0.398751	-0.295217
C44	C	1.192709	0.101249	0.204783
C45	C	0.719428	-0.350929	-0.259951
C46	C	1.219428	0.149071	0.240049
C47	C	0.793611	-0.354168	-0.262338
C48	C	1.293611	0.145832	0.237662
C49	C	0.469730	-0.383757	-0.284172
C50	C	0.969730	0.116243	0.215828
C51	C	0.395542	-0.380522	-0.281785
C52	C	0.895542	0.119478	0.218215
C53	C	0.416298	-0.479402	-0.354704
C54	C	0.916298	0.020598	0.145296
C55	C	0.490483	-0.482641	-0.357084
C56	C	0.990483	0.017359	0.142916
C57	C	0.517194	-0.434815	-0.321822
C58	C	1.017194	0.065185	0.178178
N59	N	0.616880	-0.395437	-0.292778
N60	N	1.116880	0.104563	0.207222
N61	N	0.593022	-0.438126	-0.324265
N62	N	1.093022	0.061874	0.175735
C63	C	1.140663	-0.625373	-0.272415
C64	C	1.640663	-0.125373	0.227585
C65	C	1.156161	-0.714619	-0.257004
C66	C	1.656161	-0.214619	0.242996
C67	C	0.987156	-0.988353	-0.425844
C68	C	1.487156	-0.488353	0.074156
C69	C	1.001719	-1.072215	-0.411340
C70	C	1.501719	-0.572215	0.088660
C71	C	1.089688	-1.080119	-0.323515
C72	C	1.589688	-0.580119	0.176485
C73	C	1.075135	-0.996256	-0.338014
C74	C	1.575135	-0.496256	0.161986
C75	C	1.023868	-0.950380	-0.389178
C76	C	1.523868	-0.450380	0.110822
C77	C	1.111847	-0.958282	-0.301348
C78	C	1.611847	-0.458282	0.198652
C79	C	1.097292	-0.874427	-0.315844
C80	C	1.597292	-0.374427	0.184156
C81	C	1.046025	-0.828545	-0.367004
C82	C	1.546025	-0.328545	0.132996
C83	C	1.009313	-0.866524	-0.403673
C84	C	1.509313	-0.366524	0.096327
C85	C	1.163110	-1.004160	-0.250181
C86	C	1.663110	-0.504160	0.249819
C87	C	1.199822	-0.966187	-0.213515
C88	C	1.699822	-0.466187	0.286485
C89	C	1.185271	-0.882330	-0.228014
C90	C	1.685271	-0.382330	0.271986
C91	C	1.134004	-0.836448	-0.279174
C92	C	1.634004	-0.336448	0.220826
C93	C	1.221983	-0.844351	-0.191344
C94	C	1.721983	-0.344351	0.308656
C95	C	1.207428	-0.760496	-0.205840
C96	C	1.707428	-0.260496	0.294160
C97	C	1.119449	-0.752593	-0.293669
C98	C	1.619449	-0.252593	0.206331
C99	C	1.289872	-0.424880	-0.314495
C100	C	1.789872	0.075120	0.185505
C101	C	1.368828	-0.428340	-0.317050
C102	C	1.868828	0.071660	0.182950
C103	C	1.110603	-0.408625	-0.493783
C104	C	1.610603	0.091375	0.006217
C105	C	1.113165	-0.405158	-0.572739
C106	C	1.613165	0.094842	-0.072739
C107	C	1.068397	-0.207336	-0.344741
C108	C	1.568397	0.292664	0.155259
C109	C	1.052974	-0.118092	-0.360184
C110	C	1.552974	0.381908	0.139816
C111	C	1.077814	-0.452883	-0.599479
C112	C	1.577814	0.047117	-0.099479
C113	C	1.080227	-0.449626	-0.673667
C114	C	1.580227	0.050374	-0.173667
C115	C	1.117987	-0.398638	-0.721115
C116	C	1.617987	0.101362	-0.221115
C117	C	1.153342	-0.350911	-0.694371
C118	C	1.653342	0.149089	-0.194371
C119	C	1.150933	-0.354174	-0.620183
C120	C	1.650933	0.145826	-0.120183
C121	C	1.129116	-0.383593	-0.944103
C122	C	1.629116	0.116407	-0.444103
C123	C	1.131520	-0.380332	-1.018296
C124	C	1.631520	0.119668	-0.518296
C125	C	1.058406	-0.479048	-0.997587
C126	C	1.558406	0.020952	-0.497587
C127	C	1.055997	-0.482302	-0.923400
C128	C	1.555997	0.017698	-0.423400
C129	C	1.091355	-0.434579	-0.896661
C130	C	1.591355	0.065421	-0.396661
N131	N	1.120452	-0.395305	-0.796948
N132	N	1.620452	0.104695	-0.296948
N133	N	1.088894	-0.437916	-0.820829
N134	N	1.588894	0.062084	-0.320829
C135	C	1.098633	-0.424810	-0.123948
C136	C	1.598633	0.075190	0.376052
C137	C	1.096170	-0.428057	-0.045036
C138	C	1.596170	0.071943	0.454964
H139	H	0.356892	-0.338935	-0.251131
H140	H	0.856892	0.161065	0.248869
H141	H	1.077708	-0.715238	-0.335338
H142	H	1.577708	-0.215238	0.164662
H143	H	1.241562	-1.003551	-0.171855
H144	H	1.741562	-0.503551	0.328145
H145	H	0.491470	-0.344820	-0.255452
H146	H	0.991470	0.155180	0.244548
N147	N	1.015236	-0.537262	-0.872230
N148	N	1.515236	-0.037262	-0.372230
H149	H	0.993196	-0.566992	-0.900429
H150	H	1.493196	-0.066992	-0.400429
H151	H	1.049546	-0.577050	-0.835935
H152	H	1.549546	-0.077050	-0.335935
N153	N	1.037084	-0.507881	-0.548314
N154	N	1.537084	-0.007881	-0.048314
H155	H	1.071381	-0.547710	-0.512028
H156	H	1.571381	-0.047710	-0.012028
H157	H	0.997524	-0.475107	-0.522166
H158	H	1.497524	0.024893	-0.022166
H159	H	1.179719	-0.315311	-0.598413
H160	H	1.679719	0.184689	-0.098413
N161	N	0.387490	-0.530976	-0.392744
N162	N	0.887490	-0.030976	0.107256
H163	H	0.409956	-0.589376	-0.372124
H164	H	0.909956	-0.089376	0.127876
H165	H	0.333293	-0.521112	-0.385512
H166	H	0.833293	-0.021112	0.114488
N167	N	1.194065	-0.295917	-0.745549
N168	N	1.694065	0.204083	-0.245549
H169	H	1.172699	-0.238634	-0.742204
H170	H	1.672699	0.261366	-0.242204
H171	H	1.246548	-0.311247	-0.732096
H172	H	1.746548	0.188753	-0.232096
N173	N	1.020262	-0.530510	-1.026428
N174	N	1.520262	-0.030510	-0.526428
H175	H	1.027513	-0.520705	-1.080625
H176	H	1.527513	-0.020705	-0.580625
H177	H	1.040800	-0.588911	-1.003900
H178	H	1.540800	-0.088911	-0.503900
H179	H	0.971829	-1.103129	-0.441210
H180	H	1.471829	-0.603129	0.058790
N181	N	0.865562	-0.508128	-0.375855
N182	N	1.365562	-0.008128	0.124145
H183	H	0.837379	-0.537927	-0.397834
H184	H	1.337379	-0.037927	0.102166
H185	H	0.891775	-0.475403	-0.415411
H186	H	1.391775	0.024597	0.084589
N187	N	0.668234	-0.295874	-0.219325
N188	N	1.168234	0.204126	0.280675
H189	H	0.617186	-0.301085	-0.223154
H190	H	1.117186	0.198915	0.276846
H191	H	0.681705	-0.311096	-0.166848
H192	H	1.181705	0.188904	0.333152
H193	H	0.718433	-0.488748	-0.361584
H194	H	1.218433	0.011252	0.138416
H195	H	1.157907	-0.344733	-0.922342
H196	H	1.657907	0.155267	-0.422342
H197	H	0.815359	-0.315226	-0.233627
H198	H	1.315359	0.184774	0.266373
N199	N	0.541682	-0.537714	-0.397689
N200	N	1.041682	-0.037714	0.102311
H201	H	0.513501	-0.567516	-0.419668
H202	H	1.013501	-0.067516	0.080332
H203	H	0.567897	-0.504991	-0.437244
H204	H	1.067897	-0.004991	0.062756
H205	H	1.034171	-0.760265	-0.378800
H206	H	1.534171	-0.260265	0.121200
N207	N	0.931856	-0.938866	-0.481024
N208	N	1.431856	-0.438866	0.018976
H209	H	0.928207	-0.879982	-0.484639
H210	H	1.428207	-0.379982	0.015361
H211	H	0.947055	-0.951751	-0.529596
H212	H	1.447055	-0.451751	-0.029596
N213	N	1.172252	-0.325338	-1.069472
N214	N	1.672252	0.174662	-0.569472
H215	H	1.224744	-0.340606	-1.056048
H216	H	1.724744	0.159394	-0.556048
H217	H	1.168352	-0.330537	-1.120507
H218	H	1.668352	0.169463	-0.620507
N219	N	0.954023	-0.817027	-0.458861
N220	N	1.454023	-0.317027	0.041139
H221	H	0.969192	-0.829848	-0.507464
H222	H	1.469192	-0.329848	-0.007464
H223	H	0.905478	-0.829950	-0.443557
H224	H	1.405478	-0.329950	0.056443
H225	H	1.263720	-0.881716	-0.149681
H226	H	1.763720	-0.381716	0.350319
H227	H	1.131428	-1.117482	-0.281855
H228	H	1.631428	-0.617482	0.218145
N229	N	1.178806	-1.094605	-0.234544
N230	N	1.678806	-0.594605	0.265456
H231	H	1.196911	-1.113212	-0.280217
H232	H	1.696911	-0.613212	0.219783
H233	H	1.216831	-1.117842	-0.196544
H234	H	1.716831	-0.617842	0.303456
H235	H	1.237322	-0.729578	-0.175982
H236	H	1.737322	-0.229578	0.324018
H237	H	1.051442	-0.488490	-0.695435
H238	H	1.551442	0.011510	-0.195435
