data_functionalizedCrystal
_audit_creation_method	'MofGen! by Chris Wilmer'
_symmetry_space_group_name_H-M	'P1'
_symmetry_Int_Tables_number	1
_symmetry_cell_setting	triclinic
loop_
_symmetry_equiv_pos_as_xyz
  x,y,z
_cell_length_a	8.559649
_cell_length_b	8.597249
_cell_length_c	7.088929
_cell_angle_alpha	91.318776
_cell_angle_beta	84.675669
_cell_angle_gamma	102.374876
loop_
_atom_site_label
_atom_site_type_symbol
_atom_site_fract_x
_atom_site_fract_y
_atom_site_fract_z
O1	O	-2.102603	-0.034421	-0.164659
O2	O	-1.602603	0.465579	0.335341
O3	O	-1.639988	0.044992	-0.151578
O4	O	-1.139988	0.544992	0.348422
O5	O	-1.876664	-0.220062	-0.195236
O6	O	-1.376664	0.279938	0.304764
O7	O	-1.865927	0.230632	-0.121002
O8	O	-1.365927	0.730632	0.378998
O9	O	-1.908291	-0.255555	0.116894
O10	O	-1.408291	0.244445	0.616894
O11	O	-1.671615	0.009499	0.160551
O12	O	-1.171615	0.509499	0.660551
O13	O	-2.134230	-0.069914	0.147470
O14	O	-1.634230	0.430086	0.647470
Cu15	Cu	-1.905810	-0.033449	0.182510
Cu16	Cu	-1.405810	0.466551	0.682510
Cu17	Cu	-1.868408	0.008526	-0.186618
Cu18	Cu	-1.368408	0.508526	0.313382
O19	O	-1.897554	0.195139	0.191127
O20	O	-1.397554	0.695139	0.691127
C21	C	-1.596468	0.033263	0.005477
C22	C	-1.096468	0.533263	0.505477
C23	C	-1.419672	0.051177	0.008428
C24	C	-0.919672	0.551177	0.508428
C25	C	-1.889562	-0.294972	-0.048591
C26	C	-1.389562	0.205028	0.451409
C27	C	-1.880854	-0.465301	-0.076658
C28	C	-1.380854	0.034699	0.423342
C29	C	-1.177750	-0.058186	-0.009586
C30	C	-0.677750	0.441814	0.490414
C31	C	-1.354546	-0.076099	-0.012538
C32	C	-0.854546	0.423901	0.487462
C33	C	-1.884656	0.270050	0.044478
C34	C	-1.384656	0.770050	0.544478
C35	C	-1.893362	0.440380	0.072533
C36	C	-1.393362	0.940380	0.572533
N37	N	-1.932129	-0.062974	0.442135
N38	N	-1.432129	0.437026	0.942135
N39	N	-1.842101	0.038037	-0.446246
N40	N	-1.342101	0.538037	0.053754
H41	H	-1.434041	-0.198770	-0.032753
H42	H	-0.934041	0.301230	0.467247
O43	O	-1.916359	-0.493994	0.270165
O44	O	-1.416359	0.006006	0.770165
H45	H	-1.919798	-0.366017	0.261927
H46	H	-1.419798	0.133983	0.761927
H47	H	-1.863500	-0.514868	-0.225857
H48	H	-1.363500	-0.014868	0.274143
H49	H	-2.025450	-0.167649	0.506550
H50	H	-1.525450	0.332351	1.006550
O51	O	-1.718480	0.176672	0.468437
O52	O	-1.218480	0.676672	0.968437
H53	H	-1.778998	0.253491	0.389851
H54	H	-1.278998	0.753491	0.889851
O55	O	-1.314381	0.213688	0.035210
O56	O	-0.814381	0.713688	0.535210
H57	H	-1.187383	0.202734	0.033422
H58	H	-0.687383	0.702734	0.533422
