data_functionalizedCrystal
_audit_creation_method	'MofGen! by Chris Wilmer'
_symmetry_space_group_name_H-M	'P1'
_symmetry_Int_Tables_number	1
_symmetry_cell_setting	triclinic
loop_
_symmetry_equiv_pos_as_xyz
  x,y,z
_cell_length_a	12.759401
_cell_length_b	13.897447
_cell_length_c	13.897449
_cell_angle_alpha	90.007994
_cell_angle_beta	90.001962
_cell_angle_gamma	90.019956
loop_
_atom_site_label
_atom_site_type_symbol
_atom_site_fract_x
_atom_site_fract_y
_atom_site_fract_z
Zn1	Zn	1.606047	-0.384176	0.545340
Zn2	Zn	1.939381	-0.050843	0.878673
Zn3	Zn	2.272714	0.282490	1.212007
Zn4	Zn	1.605978	-0.545438	0.384045
Zn5	Zn	1.939311	-0.212105	0.717378
Zn6	Zn	2.272645	0.121229	1.050712
Zn7	Zn	1.430400	-0.384160	0.384064
Zn8	Zn	1.763734	-0.050826	0.717397
Zn9	Zn	2.097067	0.282507	1.050731
Zn10	Zn	1.430323	-0.545432	0.545303
Zn11	Zn	1.763657	-0.212099	0.878636
Zn12	Zn	2.096990	0.121234	1.211970
O13	O	1.518187	-0.464802	0.464688
O14	O	1.851521	-0.131468	0.798021
O15	O	2.184854	0.201865	1.131355
O16	O	1.753059	-0.405577	0.523952
O17	O	2.086393	-0.072244	0.857285
O18	O	2.419726	0.261089	1.190618
O19	O	1.582691	-0.524039	0.249066
O20	O	1.916024	-0.190706	0.582399
O21	O	2.249357	0.142627	0.915733
O22	O	1.453762	-0.249180	0.405481
O23	O	1.787095	0.084153	0.738814
O24	O	2.120428	0.417486	1.072148
O25	O	1.753008	-0.524056	0.405449
O26	O	2.086342	-0.190722	0.738782
O27	O	2.419675	0.142611	1.072116
O28	O	1.582809	-0.249192	0.523970
O29	O	1.916142	0.084141	0.857303
O30	O	2.249475	0.417474	1.190636
O31	O	1.453694	-0.405549	0.249080
O32	O	1.787028	-0.072216	0.582413
O33	O	2.120361	0.261118	0.915747
O34	O	1.283369	-0.405544	0.405445
O35	O	1.616703	-0.072210	0.738778
O36	O	1.950036	0.261123	1.072112
O37	O	1.453630	-0.524046	0.680290
O38	O	1.786963	-0.190712	1.013623
O39	O	2.120297	0.142621	1.346956
O40	O	1.283312	-0.524030	0.523907
O41	O	1.616646	-0.190696	0.857240
O42	O	1.949979	0.142637	1.190573
O43	O	1.582734	-0.405572	0.680317
O44	O	1.916067	-0.072238	1.013650
O45	O	2.249401	0.261095	1.346983
O46	O	1.582616	-0.680419	0.405413
O47	O	1.915949	-0.347085	0.738746
O48	O	2.249282	-0.013752	1.072080
O49	O	1.453563	-0.680415	0.523888
O50	O	1.786896	-0.347081	0.857222
O51	O	2.120229	-0.013748	1.190555
C52	C	1.245220	-0.464785	0.464674
C53	C	1.578553	-0.131452	0.798008
C54	C	1.911887	0.201882	1.131341
C55	C	1.128443	-0.464801	0.464691
C56	C	1.461777	-0.131468	0.798025
C57	C	1.795110	0.201866	1.131358
C58	C	1.073608	-0.403221	0.526491
C59	C	1.406942	-0.069888	0.859824
C60	C	1.740275	0.263446	1.193158
C61	C	0.963884	-0.403231	0.526497
C62	C	1.297218	-0.069897	0.859831
C63	C	1.630551	0.263436	1.193164
C64	C	0.963840	-0.526409	0.402902
C65	C	1.297173	-0.193076	0.736235
C66	C	1.630506	0.140258	1.069569
C67	C	1.073562	-0.526394	0.402892
C68	C	1.406895	-0.193060	0.736225
C69	C	1.740228	0.140273	1.069558
C70	C	1.518102	-0.715416	0.464666
C71	C	1.851435	-0.382083	0.797999
C72	C	2.184768	-0.048749	1.131332
C73	C	1.518161	-0.822630	0.464688
C74	C	1.851495	-0.489296	0.798022
C75	C	2.184828	-0.155963	1.131355
C76	C	1.518212	-0.909700	0.464710
C77	C	1.851545	-0.576366	0.798044
C78	C	2.184879	-0.243033	1.131377
C79	C	1.518286	-1.018932	0.464735
C80	C	1.851619	-0.685599	0.798068
C81	C	2.184953	-0.352265	1.131402
C82	C	1.792220	-0.464819	0.464702
C83	C	2.125554	-0.131486	0.798036
C84	C	2.458887	0.201848	1.131369
C85	C	1.908997	-0.464826	0.464708
C86	C	2.242330	-0.131493	0.798042
C87	C	2.575664	0.201840	1.131375
C88	C	1.518181	-0.464810	0.716281
C89	C	1.851514	-0.131477	1.049614
C90	C	2.184848	0.201857	1.382948
C91	C	1.518179	-0.464814	0.823495
C92	C	1.851512	-0.131480	1.156828
C93	C	2.184845	0.201853	1.490162
C94	C	1.518302	-0.213209	0.464732
C95	C	1.851635	0.120125	0.798065
C96	C	2.184968	0.453458	1.131398
C97	C	1.518350	-0.105995	0.464750
C98	C	1.851684	0.227339	0.798083
C99	C	2.185017	0.560672	1.131417
C100	C	1.518176	-0.464817	0.910565
C101	C	1.851509	-0.131484	1.243898
C102	C	2.184842	0.201849	1.577231
C103	C	1.518175	-0.464813	1.019797
C104	C	1.851509	-0.131479	1.353131
C105	C	2.184842	0.201854	1.686464
C106	C	1.518183	-0.464813	1.214074
C107	C	1.851517	-0.131479	1.547407
C108	C	2.184850	0.201854	1.880740
C109	C	1.518180	-0.464804	1.106860
C110	C	1.851513	-0.131470	1.440193
C111	C	2.184847	0.201863	1.773526
H112	H	1.118209	-0.576540	0.352562
H113	H	1.451543	-0.243207	0.685895
H114	H	1.784876	0.090126	1.019228
H115	H	1.118290	-0.353065	0.576809
H116	H	1.451623	-0.019732	0.910143
H117	H	1.784956	0.313601	1.243476
H118	H	0.919243	-0.353085	0.576819
H119	H	1.252576	-0.019751	0.910153
H120	H	1.585909	0.313582	1.243486
H121	H	0.919142	-0.576557	0.352588
H122	H	1.252475	-0.243223	0.685921
H123	H	1.585808	0.090110	1.019254
