data_functionalizedCrystal
_audit_creation_method	'MofGen! by Chris Wilmer'
_symmetry_space_group_name_H-M	'P1'
_symmetry_Int_Tables_number	1
_symmetry_cell_setting	triclinic
loop_
_symmetry_equiv_pos_as_xyz
  x,y,z
_cell_length_a	14.971475
_cell_length_b	14.519709
_cell_length_c	14.048226
_cell_angle_alpha	89.992623
_cell_angle_beta	90.005580
_cell_angle_gamma	96.355088
loop_
_atom_site_label
_atom_site_type_symbol
_atom_site_fract_x
_atom_site_fract_y
_atom_site_fract_z
O1	O	-1.187021	0.120136	-0.079143
O2	O	-0.687021	0.620136	0.420857
O3	O	-0.926627	0.134539	-0.079150
O4	O	-0.426627	0.634539	0.420850
O5	O	-1.063728	-0.006906	-0.079138
O6	O	-0.563728	0.493094	0.420862
O7	O	-1.049920	0.261580	-0.079155
O8	O	-0.549920	0.761580	0.420845
O9	O	-1.063711	-0.006914	0.079184
O10	O	-0.563711	0.493086	0.579184
O11	O	-0.926611	0.134530	0.079172
O12	O	-0.426611	0.634530	0.579172
O13	O	-1.187004	0.120128	0.079178
O14	O	-0.687004	0.620128	0.579178
Zn15	Zn	-1.056805	0.127328	0.104312
Zn16	Zn	-0.556805	0.627328	0.604312
Zn17	Zn	-1.056827	0.127339	-0.104283
Zn18	Zn	-0.556827	0.627339	0.395717
O19	O	-1.049903	0.261572	0.079166
O20	O	-0.549903	0.761572	0.579166
C21	C	-0.893294	0.133892	0.000010
C22	C	-0.393294	0.633892	0.500010
C23	C	-0.793995	0.131967	0.000008
C24	C	-0.293995	0.631967	0.500008
C25	C	-0.747341	0.131056	0.086310
C26	C	-0.247341	0.631056	0.586310
C27	C	-0.654041	0.129233	0.086310
C28	C	-0.154041	0.629233	0.586310
C29	C	-0.607396	0.128327	0.000008
C30	C	-0.107396	0.628327	0.500008
C31	C	-0.654057	0.129236	-0.086300
C32	C	-0.154057	0.629236	0.413700
C33	C	-0.747356	0.131052	-0.086300
C34	C	-0.247356	0.631052	0.413700
C35	C	-0.459593	0.125452	-0.086295
C36	C	0.040407	0.625452	0.413705
C37	C	-0.366287	0.123636	-0.086296
C38	C	0.133713	0.623636	0.413704
C39	C	-0.366277	0.123632	0.086315
C40	C	0.133723	0.623632	0.586315
C41	C	-0.459576	0.125449	0.086316
C42	C	0.040424	0.625449	0.586316
C43	C	-0.506231	0.126359	0.000007
C44	C	-0.006231	0.626359	0.500007
C45	C	-1.063076	-0.041269	0.000023
C46	C	-0.563076	0.458731	0.500023
C47	C	-1.061148	-0.143649	0.000024
C48	C	-0.561148	0.356351	0.500024
C49	C	-1.054049	-0.518540	-0.000001
C50	C	-0.554049	-0.018540	0.499999
C51	C	-1.056020	-0.414234	0.000006
C52	C	-0.556020	0.085766	0.500006
C53	C	-1.057598	-0.331098	0.000012
C54	C	-0.557598	0.168902	0.500012
C55	C	-1.059570	-0.226785	0.000017
C56	C	-0.559570	0.273215	0.500017
C57	C	-0.220337	0.120781	0.000015
C58	C	0.279663	0.620781	0.500015
C59	C	-0.319633	0.122725	0.000006
C60	C	0.180367	0.622725	0.500006
C61	C	-1.050555	0.295935	0.000003
C62	C	-0.550555	0.795935	0.500003
C63	C	-1.052484	0.398315	-0.000003
C64	C	-0.552484	0.898315	0.499997
N65	N	-1.056796	0.127320	0.246672
N66	N	-0.556796	0.627320	0.746672
N67	N	-1.056842	0.127339	-0.246644
N68	N	-0.556842	0.627339	0.253356
C69	C	-1.117524	0.064714	0.296496
C70	C	-0.617524	0.564714	0.796496
C71	C	-1.117530	0.064713	0.396153
C72	C	-0.617530	0.564713	0.896153
C73	C	-1.056812	0.127324	0.445986
C74	C	-0.556812	0.627324	0.945986
C75	C	-0.996078	0.189932	0.396156
C76	C	-0.496078	0.689932	0.896156
C77	C	-0.996069	0.189928	0.296500
C78	C	-0.496069	0.689928	0.796500
C79	C	-0.996104	0.189939	0.603870
C80	C	-0.496104	0.689939	1.103870
C81	C	-0.996115	0.189945	0.703533
C82	C	-0.496115	0.689945	1.203533
C83	C	-1.117565	0.064725	0.703524
C84	C	-0.617565	0.564725	1.203524
C85	C	-1.117556	0.064720	0.603868
C86	C	-0.617556	0.564720	1.103868
C87	C	-1.056823	0.127330	0.554044
C88	C	-0.556823	0.627330	1.054044
H89	H	-0.497551	0.126192	0.156591
H90	H	0.002449	0.626192	0.656591
H91	H	-0.616073	0.128492	-0.156569
H92	H	-0.116073	0.628492	0.343431
H93	H	-1.167001	0.013743	0.563294
H94	H	-0.667001	0.513743	1.063294
C95	C	-0.798680	0.132057	-0.181229
C96	C	-0.298680	0.632057	0.318771
H97	H	-0.860927	0.133259	-0.168869
H98	H	-0.360927	0.633259	0.331131
H99	H	-0.776656	0.185497	-0.216697
H100	H	-0.276656	0.685497	0.283303
H101	H	-0.790131	0.078014	-0.216682
H102	H	-0.290131	0.578014	0.283318
H103	H	-0.946646	0.240920	0.563307
H104	H	-0.446646	0.740920	1.063307
C105	C	-1.184313	-0.004160	0.241689
C106	C	-0.684313	0.495840	0.741689
H107	H	-1.220474	-0.041451	0.285639
H108	H	-0.720474	0.458549	0.785639
H109	H	-1.221594	0.029072	0.202797
H110	H	-0.721594	0.529072	0.702797
H111	H	-1.152068	-0.042609	0.202830
H112	H	-0.652068	0.457391	0.702830
H113	H	-0.497576	0.126193	-0.156577
H114	H	0.002424	0.626193	0.343423
C115	C	-0.929262	0.258776	0.450964
C116	C	-0.429262	0.758776	0.950964
H117	H	-0.893080	0.296048	0.407015
H118	H	-0.393080	0.796048	0.907015
H119	H	-0.961471	0.297235	0.489841
H120	H	-0.461471	0.797235	0.989841
H121	H	-0.891991	0.225507	0.489839
H122	H	-0.391991	0.725507	0.989839
C123	C	-0.929272	0.258797	0.241694
C124	C	-0.429272	0.758797	0.741694
H125	H	-0.893118	0.296093	0.285644
H126	H	-0.393118	0.796093	0.785644
H127	H	-0.891986	0.225559	0.202832
H128	H	-0.391986	0.725559	0.702832
H129	H	-0.961508	0.297243	0.202805
H130	H	-0.461508	0.797243	0.702805
H131	H	-0.328287	0.122891	0.156591
H132	H	0.171713	0.622891	0.656591
H133	H	-0.328312	0.122900	-0.156571
H134	H	0.171688	0.622900	0.343429
H135	H	-1.166978	0.013735	0.436719
H136	H	-0.666978	0.513735	0.936719
H137	H	-0.946671	0.240928	0.744101
H138	H	-0.446671	0.740928	1.244101
C139	C	-0.798644	0.132036	0.181244
C140	C	-0.298644	0.632036	0.681244
H141	H	-0.757494	0.131218	0.232641
H142	H	-0.257494	0.631218	0.732641
H143	H	-0.828308	0.186477	0.184842
H144	H	-0.328308	0.686477	0.684842
H145	H	-0.841772	0.078993	0.184823
H146	H	-0.341772	0.578993	0.684823
C147	C	-0.602724	0.128238	0.181242
C148	C	-0.102724	0.628238	0.681242
H149	H	-0.643865	0.129050	0.232640
H150	H	-0.143865	0.629050	0.732640
H151	H	-0.573067	0.073791	0.184842
H152	H	-0.073067	0.573791	0.684842
H153	H	-0.559589	0.181275	0.184820
H154	H	-0.059589	0.681275	0.684820
H155	H	-1.167016	0.013746	0.744096
H156	H	-0.667016	0.513746	1.244096
