data_functionalizedCrystal
_audit_creation_method	'MofGen! by Chris Wilmer'
_symmetry_space_group_name_H-M	'P1'
_symmetry_Int_Tables_number	1
_symmetry_cell_setting	triclinic
loop_
_symmetry_equiv_pos_as_xyz
  x,y,z
_cell_length_a	29.839131
_cell_length_b	12.759401
_cell_length_c	12.759393
_cell_angle_alpha	90.019426
_cell_angle_beta	89.967235
_cell_angle_gamma	89.960148
loop_
_atom_site_label
_atom_site_type_symbol
_atom_site_fract_x
_atom_site_fract_y
_atom_site_fract_z
Zn1	Zn	-0.178853	-1.606057	-0.593995
Zn2	Zn	-0.253991	-1.605869	-0.418309
Zn3	Zn	-0.178873	-1.430359	-0.418331
Zn4	Zn	-0.253955	-1.430265	-0.593947
O5	O	-0.216418	-1.518137	-0.506146
O6	O	-0.188827	-1.753053	-0.570701
O7	O	-0.244049	-1.582548	-0.271291
O8	O	-0.116003	-1.453784	-0.441663
O9	O	-0.244030	-1.752915	-0.441625
O10	O	-0.115989	-1.582868	-0.570723
O11	O	-0.188861	-1.453602	-0.271307
O12	O	-0.188826	-1.283326	-0.441616
O13	O	-0.243969	-1.453623	-0.740975
O14	O	-0.243988	-1.283256	-0.570640
O15	O	-0.188792	-1.582777	-0.741010
O16	O	-0.316853	-1.582456	-0.441578
O17	O	-0.316826	-1.453441	-0.570619
C18	C	-0.216405	-1.245170	-0.506126
C19	C	-0.216411	-1.128393	-0.506143
C20	C	-0.245179	-1.073523	-0.573214
C21	C	-0.245183	-0.963799	-0.573223
C22	C	-0.187650	-0.963826	-0.439082
C23	C	-0.187644	-1.073548	-0.439079
C24	C	-0.278397	-1.073506	-0.650656
C25	C	-0.278401	-0.963782	-0.650665
C26	C	-0.333140	-1.517946	-0.506113
C27	C	-0.383075	-1.517961	-0.506135
C28	C	-0.739664	-1.451002	-0.573333
C29	C	-0.551991	-1.450863	-0.573300
O30	O	-0.527728	-1.393704	-0.630414
N31	N	-0.528520	-1.518072	-0.506166
C32	C	-0.551970	-1.585325	-0.439041
O33	O	-0.527701	-1.642494	-0.381946
C34	C	-0.739642	-1.585468	-0.439080
C35	C	-0.763111	-1.518248	-0.506210
C36	C	-0.763132	-1.383788	-0.640458
C37	C	-0.810048	-1.383820	-0.640462
C38	C	-0.833495	-1.451065	-0.573340
C39	C	-0.810026	-1.518279	-0.506214
C40	C	-0.763092	-1.652725	-0.371961
C41	C	-0.810013	-1.652757	-0.371978
C42	C	-0.833481	-1.585537	-0.439109
C43	C	-0.880389	-1.585556	-0.439095
N44	N	-0.903860	-1.518347	-0.506228
C45	C	-0.880413	-1.451102	-0.573351
C46	C	-0.453440	-1.585243	-0.439024
C47	C	-0.406522	-1.585206	-0.439012
C48	C	-0.406546	-1.450746	-0.573273
C49	C	-0.453464	-1.450778	-0.573278
C50	C	-0.476910	-1.518035	-0.506157
C51	C	-0.978938	-1.451172	-0.573352
C52	C	-1.025858	-1.451206	-0.573347
C53	C	-1.025830	-1.585670	-0.439091
C54	C	-0.978915	-1.585632	-0.439092
C55	C	-0.955470	-1.518380	-0.506231
O56	O	-0.904681	-1.642693	-0.382019
O57	O	-0.904690	-1.393958	-0.630453
C58	C	-0.692748	-1.450971	-0.573329
C59	C	-0.669280	-1.518185	-0.506203
C60	C	-0.692727	-1.585430	-0.439081
C61	C	-0.622362	-1.518148	-0.506192
C62	C	-0.598915	-1.450903	-0.573314
C63	C	-0.622386	-1.383694	-0.640448
C64	C	-0.669301	-1.383726	-0.640451
C65	C	-0.669256	-1.652639	-0.371947
C66	C	-0.622341	-1.652601	-0.371948
C67	C	-0.598894	-1.585356	-0.439071
C68	C	-0.099239	-1.518358	-0.506201
C69	C	-0.049305	-1.518452	-0.506225
C70	C	-0.216374	-1.518210	-0.780179
C71	C	-0.216356	-1.518241	-0.896956
C72	C	-0.216427	-0.792171	-0.506161
C73	C	-0.216421	-0.908947	-0.506156
C74	C	-0.187601	-1.585524	-1.061563
C75	C	-0.187620	-1.585499	-0.951839
C76	C	-0.245078	-1.451012	-0.951803
C77	C	-0.245062	-1.451043	-1.061525
C78	C	-0.154427	-1.663166	-1.061583
C79	C	-0.154445	-1.663141	-0.951859
C80	C	-0.216429	-1.518125	-0.233178
C81	C	-0.216321	-1.518298	-0.116402
H82	H	-0.265982	-0.929798	-0.728017
H83	H	-0.269119	-1.103324	-0.732064
Cl84	Cl	-0.103409	-1.618160	-1.114159
H85	H	-0.164228	-0.919157	-0.384482
Cl86	Cl	-0.329414	-1.125974	-0.605540
H87	H	-0.313186	-0.933948	-0.628729
Cl88	Cl	-1.055358	-1.366695	-0.657746
Cl89	Cl	-0.949472	-1.366623	-0.657755
Cl90	Cl	-1.055315	-1.670208	-0.354718
H91	H	-0.829152	-1.329080	-0.695125
Cl92	Cl	-0.733665	-1.299240	-0.724853
H93	H	-0.472569	-1.396047	-0.627947
H94	H	-0.387447	-1.395990	-0.627925
H95	H	-0.387417	-1.639931	-0.384337
Cl96	Cl	-0.482908	-1.669800	-0.354631
Cl97	Cl	-0.100734	-1.629578	-0.905898
Cl98	Cl	-0.173698	-1.782429	-0.899308
H99	H	-0.743990	-1.707462	-0.317298
Cl100	Cl	-0.839485	-1.737315	-0.287593
Cl101	Cl	-0.949411	-1.670117	-0.354677
H102	H	-0.688405	-1.328989	-0.695117
H103	H	-0.603236	-1.707337	-0.317274
Cl104	Cl	-0.592901	-1.299156	-0.724827
Cl105	Cl	-0.151468	-1.142525	-0.354777
Cl106	Cl	-0.698725	-1.737184	-0.287556
H107	H	-0.268452	-1.396311	-1.106171
Cl108	Cl	-0.281208	-1.366468	-0.882807
H109	H	-0.163743	-1.744528	-1.091359
