data_functionalizedCrystal
_audit_creation_method	'MofGen! by Chris Wilmer'
_symmetry_space_group_name_H-M	'P1'
_symmetry_Int_Tables_number	1
_symmetry_cell_setting	triclinic
loop_
_symmetry_equiv_pos_as_xyz
  x,y,z
_cell_length_a	19.288864
_cell_length_b	15.995350
_cell_length_c	17.766277
_cell_angle_alpha	89.995869
_cell_angle_beta	89.976791
_cell_angle_gamma	83.314311
loop_
_atom_site_label
_atom_site_type_symbol
_atom_site_fract_x
_atom_site_fract_y
_atom_site_fract_z
O1	O	0.921624	0.104452	-0.062832
O2	O	1.421624	0.604452	0.437168
O3	O	0.719400	0.118542	-0.062780
O4	O	1.219400	0.618542	0.437220
O5	O	0.826040	-0.010412	-0.062807
O6	O	1.326040	0.489588	0.437193
O7	O	0.814984	0.233405	-0.062805
O8	O	1.314984	0.733405	0.437195
O9	O	0.826021	-0.010418	0.062382
O10	O	1.326021	0.489582	0.562382
O11	O	0.719381	0.118535	0.062408
O12	O	1.219381	0.618535	0.562408
O13	O	0.921605	0.104445	0.062357
O14	O	1.421605	0.604445	0.562357
Cu15	Cu	0.820492	0.111490	0.073813
Cu16	Cu	1.320492	0.611490	0.573813
Cu17	Cu	0.820514	0.111497	-0.074237
Cu18	Cu	1.320514	0.611497	0.425763
O19	O	0.814965	0.233399	0.062383
O20	O	1.314965	0.733399	0.562383
C21	C	0.693513	0.118085	-0.000179
C22	C	1.193513	0.618085	0.499821
C23	C	0.616406	0.116724	-0.000159
C24	C	1.116406	0.616724	0.499841
C25	C	0.571906	0.192388	-0.000171
C26	C	1.071906	0.692388	0.499829
C27	C	0.499456	0.191110	-0.000179
C28	C	0.999456	0.691110	0.499821
C29	C	0.471508	0.114163	-0.000191
C30	C	0.971508	0.614163	0.499809
C31	C	0.516018	0.038489	-0.000176
C32	C	1.016018	0.538489	0.499824
C33	C	0.588467	0.039769	-0.000160
C34	C	1.088467	0.539769	0.499840
C35	C	0.363096	0.053676	-0.044076
C36	C	0.863096	0.553676	0.455924
C37	C	0.290648	0.052398	-0.044097
C38	C	0.790648	0.552398	0.455903
C39	C	0.248053	0.110209	-0.000237
C40	C	0.748053	0.610209	0.499763
C41	C	0.277912	0.169312	0.043634
C42	C	0.777912	0.669312	0.543634
C43	C	0.350361	0.170593	0.043650
C44	C	0.850361	0.670593	0.543650
C45	C	0.392951	0.112765	-0.000208
C46	C	0.892951	0.612765	0.499792
C47	C	0.124993	0.184492	-0.000256
C48	C	0.624993	0.684492	0.499744
C49	C	0.052542	0.183210	-0.000260
C50	C	0.552542	0.683210	0.499740
C51	C	0.069106	0.030587	-0.000264
C52	C	0.569106	0.530587	0.499736
C53	C	0.141556	0.031871	-0.000253
C54	C	0.641556	0.531871	0.499747
C55	C	0.169495	0.108826	-0.000252
C56	C	0.669495	0.608826	0.499748
C57	C	0.825574	-0.041608	-0.000214
C58	C	1.325574	0.458392	0.499786
C59	C	0.824203	-0.134553	-0.000218
C60	C	1.324203	0.365447	0.499782
C61	C	0.819282	-0.472282	-0.000214
C62	C	1.319282	0.027718	0.499786
C63	C	0.743335	-0.424562	-0.000475
C64	C	1.243335	0.075438	0.499525
C65	C	0.744706	-0.327877	-0.000193
C66	C	1.244706	0.172123	0.499807
C67	C	0.821723	-0.304731	-0.000216
C68	C	1.321723	0.195269	0.499784
C69	C	0.859172	-0.345953	0.071262
C70	C	1.359172	0.154047	0.571262
C71	C	0.857264	-0.442582	0.071322
C72	C	1.357264	0.057418	0.571322
C73	C	0.858855	-0.442939	-0.071041
C74	C	1.358855	0.057061	0.428959
C75	C	0.858837	-0.345993	-0.071986
C76	C	1.358837	0.154007	0.428014
C77	C	0.823107	-0.210039	-0.000215
C78	C	1.323107	0.289961	0.499785
C79	C	0.817901	-0.566975	-0.000210
C80	C	1.317901	-0.066975	0.499790
C81	C	0.947492	0.104902	-0.000246
C82	C	1.447492	0.604902	0.499754
C83	C	1.024600	0.106263	-0.000271
C84	C	1.524600	0.606263	0.499729
C85	C	0.815432	0.264595	-0.000211
C86	C	1.315432	0.764595	0.499789
C87	C	0.816802	0.357540	-0.000212
C88	C	1.316802	0.857540	0.499788
N89	N	0.820481	0.111484	0.177944
N90	N	1.320481	0.611484	0.677944
N91	N	0.820530	0.111497	-0.178367
N92	N	1.320530	0.611497	0.321633
C93	C	0.867717	0.054411	0.217319
C94	C	1.367717	0.554411	0.717319
C95	C	0.867721	0.054407	0.296120
C96	C	1.367721	0.554407	0.796120
C97	C	0.820496	0.111490	0.335544
C98	C	1.320496	0.611490	0.835544
C99	C	0.773251	0.168567	0.296160
C100	C	1.273251	0.668567	0.796160
C101	C	0.773244	0.168564	0.217359
C102	C	1.273244	0.668564	0.717359
C103	C	0.811395	0.187781	0.460384
C104	C	1.311395	0.687781	0.960384
C105	C	0.811407	0.187785	0.539183
C106	C	1.311407	0.687785	1.039183
C107	C	0.820514	0.111500	0.578590
C108	C	1.320514	0.611500	1.078590
C109	C	0.829624	0.035208	0.539190
C110	C	1.329624	0.535208	1.039190
C111	C	0.829617	0.035204	0.460389
C112	C	1.329617	0.535204	0.960389
C113	C	0.820498	0.111500	0.420990
C114	C	1.320498	0.611500	0.920990
C115	C	0.867757	0.054419	0.703411
C116	C	1.367757	0.554419	1.203411
C117	C	0.867756	0.054414	0.782215
C118	C	1.367756	0.554414	1.282215
C119	C	0.773290	0.168581	0.782252
C120	C	1.273290	0.668581	1.282252
C121	C	0.773288	0.168579	0.703451
C122	C	1.273288	0.668579	1.203451
C123	C	0.820525	0.111499	0.664035
C124	C	1.320525	0.611499	1.164035
H125	H	0.594649	0.255051	-0.000172
H126	H	1.094649	0.755051	0.499828
F127	F	0.703666	-0.448628	-0.067473
F128	F	1.203666	0.051372	0.432527
F129	F	0.722968	0.229311	0.175452
F130	F	1.222968	0.729311	0.675452
H131	H	0.715054	-0.299903	0.051147
H132	H	1.215054	0.200097	0.551147
H133	H	0.837032	-0.026916	0.428312
H134	H	1.337032	0.473084	0.928312
H135	H	0.829941	-0.460783	0.124769
H136	H	1.329941	0.039217	0.624769
F137	F	0.722989	0.229317	0.338117
F138	F	1.222989	0.729317	0.838117
H139	H	0.734836	0.215056	0.814350
H140	H	1.234836	0.715056	1.314350
H141	H	0.914850	-0.474911	-0.071538
H142	H	1.414850	0.025089	0.428462
H143	H	0.734827	0.215056	0.671389
H144	H	1.234827	0.715056	1.171389
F145	F	0.933130	-0.327771	0.074717
F146	F	1.433130	0.172229	0.574717
H147	H	0.715268	-0.299341	-0.051431
H148	H	1.215268	0.200659	0.448569
F149	F	0.452087	0.271645	-0.000189
F150	F	0.952087	0.771645	0.499811
H151	H	0.837040	-0.026911	0.571273
H152	H	1.337040	0.473089	1.071273
H153	H	0.834032	-0.463382	-0.125218
H154	H	1.334032	0.036618	0.374782
H155	H	0.833147	-0.317477	0.124469
H156	H	1.333147	0.182523	0.624469
F157	F	0.232584	0.230844	0.090316
F158	F	0.732584	0.730844	0.590316
F159	F	0.917987	-0.006341	0.175371
F160	F	1.417987	0.493659	0.675371
F161	F	0.930143	-0.485010	0.075548
F162	F	1.430143	0.014990	0.575548
H163	H	0.831457	-0.318638	-0.124863
H164	H	1.331457	0.181362	0.375137
H165	H	0.803967	0.249906	0.428305
H166	H	1.303967	0.749906	0.928305
H167	H	0.906187	0.007930	0.328186
H168	H	1.406187	0.507930	0.828186
F169	F	0.703723	-0.450308	0.065986
F170	F	1.203723	0.049692	0.565986
H171	H	0.906218	0.007938	0.671318
H172	H	1.406218	0.507938	1.171318
H173	H	0.374670	0.218713	0.079373
H174	H	0.874670	0.718713	0.579373
F175	F	0.918029	-0.006338	0.824122
F176	F	1.418029	0.493662	1.324122
H177	H	0.147742	0.247153	-0.000245
H178	H	0.647742	0.747153	0.499755
H179	H	0.266342	0.004277	-0.079822
H180	H	0.766342	0.504277	0.420178
H181	H	0.016310	0.244828	-0.000265
H182	H	0.516310	0.744828	0.499735
H183	H	0.915002	-0.330843	-0.076319
H184	H	1.415002	0.169157	0.423681
F185	F	0.486274	-0.043404	-0.000185
F186	F	0.986274	0.456596	0.499815
F187	F	0.408423	-0.007859	-0.090760
F188	F	0.908423	0.492141	0.409240
H189	H	0.624700	-0.021848	-0.000151
H190	H	1.124700	0.478152	0.499849
H191	H	0.046352	-0.032065	-0.000320
H192	H	0.546352	0.467935	0.499680
H193	H	0.803994	0.249907	0.571257
H194	H	1.303994	0.749907	1.071257
H195	H	0.177789	-0.029743	-0.000247
H196	H	0.677789	0.470257	0.499753
