data_functionalizedCrystal
_audit_creation_method	'MofGen! by Chris Wilmer'
_symmetry_space_group_name_H-M	'P1'
_symmetry_Int_Tables_number	1
_symmetry_cell_setting	triclinic
loop_
_symmetry_equiv_pos_as_xyz
  x,y,z
_cell_length_a	12.645330
_cell_length_b	12.759401
_cell_length_c	12.759393
_cell_angle_alpha	90.018496
_cell_angle_beta	90.030048
_cell_angle_gamma	90.017853
loop_
_atom_site_label
_atom_site_type_symbol
_atom_site_fract_x
_atom_site_fract_y
_atom_site_fract_z
Zn1	Zn	-0.421972	1.606234	0.593992
Zn2	Zn	-0.599276	1.606119	0.418317
Zn3	Zn	-0.422028	1.430536	0.418332
Zn4	Zn	-0.599195	1.430515	0.593959
O5	O	-0.510618	1.518351	0.506150
O6	O	-0.445503	1.753239	0.570697
O7	O	-0.575821	1.582788	0.271298
O8	O	-0.273673	1.453899	0.441654
O9	O	-0.575767	1.753155	0.441629
O10	O	-0.273632	1.582983	0.570711
O11	O	-0.445598	1.453788	0.271309
O12	O	-0.445518	1.283512	0.441621
O13	O	-0.575628	1.453864	0.740984
O14	O	-0.575682	1.283497	0.570653
O15	O	-0.445424	1.582964	0.741009
O16	O	-0.747613	1.582768	0.441596
O17	O	-0.747553	1.453753	0.570639
C18	C	-0.510598	1.245383	0.506136
C19	C	-0.510615	1.128607	0.506155
C20	C	-0.786048	1.518274	0.506135
C21	C	-0.903878	1.518337	0.506164
C22	C	-0.578500	1.073764	0.573231
C23	C	-0.578514	0.964040	0.573242
C24	C	-0.442755	0.964011	0.439092
C25	C	-0.442737	1.073733	0.439087
C26	C	-0.656883	1.073781	0.650678
C27	C	-0.656896	0.964056	0.650689
C28	C	-1.071448	1.437509	0.587595
C29	C	-0.948888	1.437095	0.587334
C30	C	-0.948482	1.488364	0.395443
C31	C	-1.071080	1.487871	0.395937
C32	C	-1.070964	1.629634	0.534556
C33	C	-0.948357	1.628952	0.536977
C34	C	-0.234112	1.518456	0.506188
C35	C	-0.116282	1.518501	0.506204
C36	C	-0.510511	1.518424	0.780183
C37	C	-0.510465	1.518456	0.896960
C38	C	-0.510638	1.792384	0.506165
C39	C	-0.510647	1.909161	0.506171
C40	C	-0.510648	1.518338	0.233183
C41	C	-0.510395	1.518510	0.116407
C42	C	-0.442661	1.585687	0.951837
C43	C	-0.442623	1.585712	1.061561
C44	C	-0.578202	1.451271	1.061522
C45	C	-0.578234	1.451242	0.951800
C46	C	-0.364389	1.663309	0.951860
C47	C	-0.364351	1.663334	1.061584
H48	H	-0.387451	1.118381	0.384474
F49	F	-0.764175	0.925101	0.621998
F50	F	-0.910247	1.658500	0.643485
H51	H	-0.633443	1.396492	0.907124
H52	H	-0.633374	1.396546	1.106186
H53	H	-0.282291	1.641544	0.922102
H54	H	-0.634988	1.103590	0.732084
F55	F	-1.108876	1.708509	0.457085
F56	F	-0.370516	0.905601	0.367720
F57	F	-0.758796	1.118240	0.612483
F58	F	-0.262439	1.625168	1.106090
H59	H	-0.918727	1.455848	0.669433
H60	H	-1.100852	1.456089	0.669964
H61	H	-0.393821	1.740579	0.917825
H62	H	-0.627590	0.930060	0.728040
F63	F	-0.393079	1.769689	1.100513
H64	H	-0.919329	1.545485	0.333143
H65	H	-1.102351	1.355635	0.569052
H66	H	-0.919656	1.354706	0.568550
F67	F	-0.908480	1.383284	0.363479
F68	F	-1.108588	1.381686	0.364543
H69	H	-1.100743	1.544302	0.333226
F70	F	-1.111268	1.665373	0.638293
F71	F	-0.908295	1.711984	0.465141
