data_functionalizedCrystal
_audit_creation_method	'MofGen! by Chris Wilmer'
_symmetry_space_group_name_H-M	'P1'
_symmetry_Int_Tables_number	1
_symmetry_cell_setting	triclinic
loop_
_symmetry_equiv_pos_as_xyz
  x,y,z
_cell_length_a	18.215405
_cell_length_b	17.077404
_cell_length_c	17.077396
_cell_angle_alpha	89.978543
_cell_angle_beta	90.031591
_cell_angle_gamma	89.976011
loop_
_atom_site_label
_atom_site_type_symbol
_atom_site_fract_x
_atom_site_fract_y
_atom_site_fract_z
Zn1	Zn	-0.293002	-1.200044	0.443867
Zn2	Zn	-0.416075	-1.199946	0.312594
Zn3	Zn	-0.293025	-1.068776	0.312610
Zn4	Zn	-0.416029	-1.068739	0.443813
O5	O	-0.354533	-1.134376	0.378221
O6	O	-0.309337	-1.309878	0.426469
O7	O	-0.399782	-1.182521	0.202749
O8	O	-0.190038	-1.086245	0.330051
O9	O	-0.399759	-1.309806	0.330023
O10	O	-0.190021	-1.182687	0.426485
O11	O	-0.309377	-1.086150	0.202761
O12	O	-0.309333	-0.958924	0.329999
O13	O	-0.399680	-1.086182	0.553667
O14	O	-0.399703	-0.958897	0.426393
O15	O	-0.309293	-1.182651	0.553707
O16	O	-0.519054	-1.182485	0.329970
O17	O	-0.519020	-1.086088	0.426377
C18	C	-0.354516	-0.930428	0.378192
C19	C	-0.354526	-0.843178	0.378199
C20	C	-0.401652	-0.802195	0.428309
C21	C	-0.401653	-0.720214	0.428319
C22	C	-0.354530	-0.679219	0.378213
C23	C	-0.307398	-0.720208	0.328101
C24	C	-0.307395	-0.802187	0.328096
C25	C	-0.307410	-0.549338	0.328114
C26	C	-0.307414	-0.467354	0.328118
C27	C	-0.401667	-0.467365	0.428337
C28	C	-0.401664	-0.549344	0.428332
C29	C	-0.354533	-0.590328	0.378218
C30	C	-0.545739	-1.134293	0.378183
C31	C	-0.627538	-1.134330	0.378193
C32	C	-0.815725	-1.184642	0.328087
C33	C	-0.892584	-1.184677	0.328106
C34	C	-0.892589	-1.084211	0.428411
C35	C	-0.815731	-1.084181	0.428396
C36	C	-0.777302	-1.134395	0.378229
C37	C	-0.931018	-1.134460	0.378264
C38	C	-1.014351	-1.134498	0.378285
C39	C	-0.693963	-1.134358	0.378209
C40	C	-0.162580	-1.134481	0.378276
C41	C	-0.080781	-1.134525	0.378299
C42	C	-0.354479	-1.134424	0.582965
C43	C	-0.354456	-1.134444	0.670215
C44	C	-0.354546	-0.339120	0.378241
C45	C	-0.354540	-0.426370	0.378228
C46	C	-0.354534	-1.134374	0.174273
C47	C	-0.354350	-1.134506	0.087024
C48	C	-0.307387	-1.184677	0.711227
C49	C	-0.307362	-1.184687	0.793208
C50	C	-0.354411	-1.134466	0.834175
C51	C	-0.401482	-1.084227	0.793157
C52	C	-0.401502	-1.084214	0.711178
C53	C	-0.401438	-1.084259	0.964027
C54	C	-0.401418	-1.084273	1.046011
C55	C	-0.307298	-1.184731	1.046057
C56	C	-0.307318	-1.184718	0.964078
C57	C	-0.354390	-1.134480	0.923066
H58	H	-0.440028	-0.835567	0.469108
H59	H	-0.923865	-1.225594	0.287276
H60	H	-0.784438	-1.225530	0.287239
H61	H	-0.269033	-0.433978	0.287327
H62	H	-0.923887	-1.043327	0.469254
C63	C	-0.255564	-0.594419	0.272993
H64	H	-0.227504	-0.558264	0.243148
H65	H	-0.223534	-0.626424	0.303082
H66	H	-0.283677	-0.626373	0.238730
C67	C	-0.773462	-1.028905	0.483553
H68	H	-0.807356	-0.998996	0.513425
H69	H	-0.743434	-1.058900	0.517778
H70	H	-0.743527	-0.994708	0.453479
H71	H	-0.269077	-1.225575	0.677878
H72	H	-0.440028	-0.686849	0.469123
C73	C	-0.255590	-1.239947	0.838318
H74	H	-0.227580	-1.269862	0.802178
H75	H	-0.223511	-1.209946	0.870301
H76	H	-0.283744	-1.274139	0.870296
H77	H	-0.269011	-1.225616	0.930725
H78	H	-0.268969	-1.225635	1.079453
H79	H	-0.439728	-1.043377	1.079365
H80	H	-0.439757	-1.043338	0.930637
H81	H	-0.439823	-1.043301	0.677787
C82	C	-0.453497	-0.594438	0.483446
H83	H	-0.481562	-0.558290	0.513299
H84	H	-0.485523	-0.626394	0.453355
H85	H	-0.425377	-0.626442	0.517702
C86	C	-0.453506	-0.422287	0.483466
H87	H	-0.446754	-0.367592	0.476301
H88	H	-0.502938	-0.435695	0.471880
H89	H	-0.442794	-0.435753	0.536230
H90	H	-0.439787	-1.043334	0.826518
H91	H	-0.269016	-0.835555	0.287295
H92	H	-0.269027	-0.686823	0.287308
