data_functionalizedCrystal
_audit_creation_method	'MofGen! by Chris Wilmer'
_symmetry_space_group_name_H-M	'P1'
_symmetry_Int_Tables_number	1
_symmetry_cell_setting	triclinic
loop_
_symmetry_equiv_pos_as_xyz
  x,y,z
_cell_length_a	18.215399
_cell_length_b	18.215407
_cell_length_c	18.215405
_cell_angle_alpha	89.975194
_cell_angle_beta	89.969449
_cell_angle_gamma	90.020595
loop_
_atom_site_label
_atom_site_type_symbol
_atom_site_fract_x
_atom_site_fract_y
_atom_site_fract_z
Zn1	Zn	-0.416118	-1.125072	-0.292993
Zn2	Zn	-0.293046	-1.124980	-0.416065
Zn3	Zn	-0.293063	-1.002005	-0.293016
Zn4	Zn	-0.416069	-1.001970	-0.416023
O5	O	-0.354574	-1.063507	-0.354524
O6	O	-0.399805	-1.228044	-0.309327
O7	O	-0.190064	-1.108643	-0.399769
O8	O	-0.309414	-1.018382	-0.190029
O9	O	-0.309384	-1.227977	-0.399747
O10	O	-0.399822	-1.108799	-0.190012
O11	O	-0.190077	-1.018293	-0.309366
O12	O	-0.309367	-0.899016	-0.309325
O13	O	-0.519060	-1.018324	-0.399675
O14	O	-0.399739	-0.898991	-0.399697
O15	O	-0.519095	-1.108766	-0.309286
O16	O	-0.309337	-1.108610	-0.519043
O17	O	-0.399722	-1.018235	-0.519012
C18	C	-0.354550	-0.872301	-0.354510
C19	C	-0.354558	-0.790502	-0.354521
C20	C	-0.546527	-1.063552	-0.354473
C21	C	-0.628326	-1.063571	-0.354452
C22	C	-0.401553	-0.602314	-0.401650
C23	C	-0.401561	-0.525455	-0.401652
C24	C	-0.307598	-0.525452	-0.307402
C25	C	-0.307594	-0.602309	-0.307397
C26	C	-0.354570	-0.640738	-0.354526
C27	C	-0.354582	-0.487022	-0.354532
C28	C	-0.354591	-0.403688	-0.354533
C29	C	-0.354563	-0.724077	-0.354524
C30	C	-0.816540	-1.110681	-0.307342
C31	C	-0.893398	-1.110690	-0.307321
C32	C	-0.893350	-1.016513	-0.401448
C33	C	-0.816493	-1.016501	-0.401465
C34	C	-0.778089	-1.063589	-0.354413
C35	C	-0.931806	-1.063610	-0.354375
C36	C	-1.015139	-1.063619	-0.354352
C37	C	-0.694750	-1.063579	-0.354435
C38	C	-0.163368	-1.063504	-0.354522
C39	C	-0.081569	-1.063628	-0.354336
C40	C	-0.354538	-1.063429	-0.545731
C41	C	-0.354548	-1.063463	-0.627529
C42	C	-0.354595	-0.255460	-0.354537
C43	C	-0.354595	-0.337259	-0.354536
C44	C	-0.307571	-1.110632	-0.815715
C45	C	-0.307589	-1.110665	-0.892574
C46	C	-0.401629	-1.016476	-0.892581
C47	C	-0.401615	-1.016447	-0.815724
C48	C	-0.354581	-1.063524	-0.777293
C49	C	-0.354614	-1.063586	-0.931009
C50	C	-0.354634	-1.063621	-1.014343
C51	C	-0.354563	-1.063490	-0.693954
C52	C	-0.354625	-1.063605	-0.162571
C53	C	-0.354648	-1.063647	-0.080772
H54	H	-0.439819	-0.494174	-0.440025
N55	N	-0.934784	-0.965736	-0.452193
H56	H	-0.921398	-0.977135	-0.504780
H57	H	-0.921391	-0.913176	-0.440701
H58	H	-0.269351	-0.494153	-0.269033
N59	N	-0.452318	-0.965636	-0.774273
H60	H	-0.504915	-0.977036	-0.787600
H61	H	-0.440777	-0.913085	-0.787712
N62	N	-0.775014	-0.965691	-0.452222
H63	H	-0.811004	-0.935863	-0.482026
H64	H	-0.743113	-0.995615	-0.486290
N65	N	-0.452217	-0.643764	-0.452478
H66	H	-0.481982	-0.607757	-0.482331
H67	H	-0.486326	-0.675679	-0.422563
H68	H	-0.269275	-1.148966	-0.784426
N69	N	-0.256876	-1.161467	-0.934013
H70	H	-0.264021	-1.154345	-0.988534
H71	H	-0.268374	-1.214015	-0.920526
N72	N	-0.256918	-0.643765	-0.256572
H73	H	-0.286890	-0.675676	-0.222507
H74	H	-0.227163	-0.607718	-0.226768
H75	H	-0.439921	-0.978146	-0.923881
H76	H	-0.785274	-1.149021	-0.269028
H77	H	-0.924701	-1.149035	-0.268990
