data_functionalizedCrystal
_audit_creation_method	'MofGen! by Chris Wilmer'
_symmetry_space_group_name_H-M	'P1'
_symmetry_Int_Tables_number	1
_symmetry_cell_setting	triclinic
loop_
_symmetry_equiv_pos_as_xyz
  x,y,z
_cell_length_a	18.426585
_cell_length_b	20.016444
_cell_length_c	20.016444
_cell_angle_alpha	90.003000
_cell_angle_beta	60.004430
_cell_angle_gamma	59.998369
loop_
_atom_site_label
_atom_site_type_symbol
_atom_site_fract_x
_atom_site_fract_y
_atom_site_fract_z
Zr1	Zr	0.794312	0.643607	-0.087612
O2	O	0.945711	0.536929	-0.194284
O3	O	0.642913	0.676310	-0.054915
O4	O	0.794305	0.676309	-0.194283
O5	O	0.794325	0.536930	0.055023
O6	O	0.794299	0.786254	-0.194277
O7	O	0.794319	0.536930	-0.054917
O8	O	0.523486	0.786256	0.055026
O9	O	1.065138	0.536928	-0.194280
O10	O	0.705181	0.772308	-0.040962
O11	O	0.705190	0.690257	0.041081
O12	O	0.883434	0.690256	-0.123006
O13	O	0.883443	0.608205	-0.040964
Zr14	Zr	0.794312	0.818957	0.087738
Zr15	Zr	0.794303	0.818957	-0.087604
Zr16	Zr	0.794321	0.643608	0.087729
Zr17	Zr	0.984783	0.643606	-0.087606
Zr18	Zr	0.603841	0.818958	0.087731
O19	O	0.945711	0.786254	0.055041
O20	O	0.945698	0.786253	-0.194272
O21	O	0.945724	0.536929	0.055029
O22	O	0.642913	0.925636	0.194410
O23	O	0.642900	0.925635	-0.054903
O24	O	0.642926	0.676311	0.194398
O25	O	0.794299	0.925634	-0.054898
O26	O	0.794319	0.786255	0.194408
O27	O	0.794325	0.676310	0.194403
O28	O	0.794305	0.925635	0.055042
O29	O	1.065131	0.676308	-0.194274
O30	O	0.523493	0.786257	0.194399
O31	O	0.523486	0.925636	0.194406
O32	O	0.523479	0.925636	0.055033
O33	O	1.065145	0.536928	-0.054907
O34	O	1.065138	0.676308	-0.054900
O35	O	0.705190	0.772308	0.123132
O36	O	0.705181	0.854359	0.041089
O37	O	0.883434	0.772307	-0.040956
O38	O	0.883443	0.690257	0.041087
C39	C	0.556061	0.731283	0.000055
C40	C	0.475201	0.731284	0.000052
C41	C	0.794323	0.731283	0.219388
C42	C	0.794327	0.731283	0.293825
C43	C	0.794301	0.950618	0.000073
C44	C	0.794297	1.025059	0.000077
C45	C	0.179091	0.731279	0.000076
C46	C	0.261478	0.731278	0.000071
C47	C	0.327144	0.731281	0.000063
C48	C	0.409535	0.731281	0.000059
C49	C	1.032563	0.731281	0.000071
C50	C	1.113423	0.731281	0.000074
C51	C	0.794323	0.511946	0.000052
C52	C	0.794327	0.437506	0.000049
C53	C	0.701262	1.239145	0.042890
C54	C	0.701267	1.309086	0.042884
C55	C	0.887369	1.223411	-0.042770
C56	C	0.887364	1.153472	-0.042768
C57	C	0.794307	1.161342	0.000067
C58	C	0.794317	1.301222	0.000059
C59	C	0.794322	1.377055	0.000052
C60	C	0.794301	1.085504	0.000073
C61	C	0.794301	0.731281	-0.219263
C62	C	0.794297	0.731281	-0.293700
C63	C	0.887362	0.688450	0.422266
C64	C	0.887357	0.688447	0.492211
C65	C	0.701255	0.774116	0.577858
C66	C	0.701260	0.774113	0.507914
C67	C	0.794317	0.731282	0.430118
C68	C	0.794307	0.731282	0.570008
C69	C	0.794302	0.731280	0.645846
C70	C	0.794323	0.731283	0.354275
C71	C	0.556050	0.950619	0.000065
C72	C	0.475186	1.025060	0.000066
C73	C	0.556073	0.731284	0.219380
C74	C	0.475216	0.731285	0.293814
C75	C	0.556061	0.950620	0.219391
C76	C	0.475201	1.025061	0.293829
C77	C	1.032563	0.511944	-0.219265
C78	C	1.113423	0.437503	-0.293703
C79	C	1.032574	0.511945	0.000060
C80	C	1.113438	0.437504	0.000060
C81	C	1.032551	0.731280	-0.219254
C82	C	1.113408	0.731280	-0.293689
C83	C	0.437211	1.017189	-0.042771
C84	C	0.361241	1.087127	-0.042786
C85	C	0.323242	1.164936	0.000040
C86	C	0.361225	1.172806	0.042878
C87	C	0.437198	1.102869	0.042889
C88	C	0.437245	0.774115	0.371606
C89	C	0.361283	0.774112	0.441552
C90	C	0.323288	0.731284	0.433704
C91	C	0.361266	0.688449	0.355903
C92	C	0.437232	0.688447	0.285959
C93	C	0.437224	1.102856	0.285960
C94	C	0.361258	1.172809	0.355895
C95	C	0.323265	1.164964	0.433699
C96	C	0.361250	1.087160	0.441566
C97	C	0.437220	1.017210	0.371631
C98	C	1.151409	0.359708	-0.285834
C99	C	1.227399	0.289756	-0.355770
C100	C	1.265396	0.297601	-0.433573
C101	C	1.227406	0.375404	-0.441440
C102	C	1.151423	0.445355	-0.371506
C103	C	1.151421	0.445376	0.042889
C104	C	1.227411	0.375437	0.042885
C105	C	1.265413	0.297628	0.000056
C106	C	1.227427	0.289758	-0.042778
C107	C	1.151443	0.359696	-0.042779
C108	C	1.151379	0.774116	-0.285814
C109	C	1.227342	0.774132	-0.355746
C110	C	1.265337	0.731305	-0.433552
C111	C	1.227359	0.688467	-0.441425
C112	C	1.151392	0.688457	-0.371494
H113	H	0.625490	1.245558	0.077768
H114	H	0.963132	1.217013	-0.077643
F115	F	1.346282	0.223201	0.000065
F116	F	0.320875	0.819708	0.524345
H117	H	1.258380	0.226397	-0.077648
F118	F	0.477649	1.111224	0.203162
H119	H	1.120455	0.808991	-0.222467
F120	F	1.267752	0.819723	-0.347350
F121	F	1.346191	0.731321	-0.507973
F122	F	1.346264	0.223145	-0.507998
F123	F	0.477666	0.819705	0.379978
H124	H	1.258353	0.381782	-0.504796
H125	H	0.261379	1.221877	0.000026
F126	F	0.320829	1.078734	-0.088379
H127	H	1.258327	0.381861	0.077769
F128	F	0.320842	1.255605	0.347505
H129	H	0.261431	0.731292	0.490663
F130	F	0.320818	0.642871	0.347563
H131	H	0.261405	1.221928	0.490638
H132	H	1.120495	0.508697	-0.377922
H133	H	1.120485	0.508726	0.077771
F134	F	0.320770	1.255623	0.088456
H135	H	0.625487	0.808992	0.514314
H136	H	0.468138	0.653572	0.222620
F137	F	0.477642	0.934384	-0.088358
H138	H	0.468107	1.109289	0.077776
F139	F	0.320805	1.078824	0.524377
H140	H	1.120520	0.353275	-0.077653
H141	H	1.258306	0.653599	-0.504784
H142	H	1.120484	0.653571	-0.377917
H143	H	0.625500	1.372435	0.077756
H144	H	0.963137	1.090116	-0.077645
F145	F	0.477625	0.934416	0.380018
H146	H	1.120477	0.353305	-0.222489
H147	H	0.963124	0.653568	0.485810
F148	F	0.986401	0.642863	0.339472
H149	H	1.258317	0.226412	-0.349348
F150	F	0.602223	0.819699	0.660657
