data_functionalizedCrystal
_audit_creation_method	'MofGen! by Chris Wilmer'
_symmetry_space_group_name_H-M	'P1'
_symmetry_Int_Tables_number	1
_symmetry_cell_setting	triclinic
loop_
_symmetry_equiv_pos_as_xyz
  x,y,z
_cell_length_a	12.759394
_cell_length_b	11.169417
_cell_length_c	11.169409
_cell_angle_alpha	89.978351
_cell_angle_beta	90.034524
_cell_angle_gamma	89.986941
loop_
_atom_site_label
_atom_site_type_symbol
_atom_site_fract_x
_atom_site_fract_y
_atom_site_fract_z
Zn1	Zn	-0.418231	-1.834925	0.678583
Zn2	Zn	-0.593957	-1.834798	0.477892
Zn3	Zn	-0.418287	-1.634211	0.477911
Zn4	Zn	-0.593863	-1.634202	0.678531
O5	O	-0.506085	-1.734534	0.578229
O6	O	-0.441557	-2.002858	0.651975
O7	O	-0.570717	-1.808141	0.309945
O8	O	-0.271259	-1.660892	0.504560
O9	O	-0.570662	-2.002765	0.504528
O10	O	-0.271218	-1.808356	0.651993
O11	O	-0.441653	-1.660770	0.309959
O12	O	-0.441562	-1.466260	0.504509
O13	O	-0.570503	-1.660878	0.846487
O14	O	-0.570557	-1.466254	0.651904
O15	O	-0.441467	-1.808348	0.846526
O16	O	-0.740966	-1.808133	0.504478
O17	O	-0.740897	-1.660756	0.651886
C18	C	-0.506056	-1.422709	0.578204
C19	C	-0.506069	-1.289309	0.578221
C20	C	-0.779052	-1.734462	0.578200
C21	C	-0.895829	-1.734541	0.578228
C22	C	-0.895847	-1.888120	0.424847
C23	C	-0.950717	-1.964941	0.348170
C24	C	-1.060439	-1.965011	0.348203
C25	C	-1.115293	-1.888255	0.424923
C26	C	-1.060423	-1.811434	0.501599
C27	C	-0.950699	-1.811370	0.501556
C28	C	-1.060405	-1.657863	0.654985
C29	C	-0.950683	-1.657785	0.654948
C30	C	-1.115259	-1.581107	0.731704
C31	C	-1.060389	-1.504279	0.808377
C32	C	-0.950661	-1.504210	0.808340
C33	C	-0.895813	-1.580964	0.731624
C34	C	-0.232051	-1.734639	0.578285
C35	C	-0.115275	-1.734684	0.578308
C36	C	-0.505968	-1.734626	0.891272
C37	C	-0.505918	-1.734666	1.024672
C38	C	-0.506104	-1.047576	0.578247
C39	C	-0.506086	-1.180976	0.578235
C40	C	-0.506125	-1.734511	0.266404
C41	C	-0.505879	-1.734705	0.133005
H42	H	-0.906045	-2.027437	0.285708
H43	H	-1.105060	-1.441796	0.870841
O44	O	-1.113582	-2.039671	0.273609
C45	C	-1.102034	-2.192045	0.121515
C46	C	-1.041719	-2.107536	0.205910
H47	H	-1.043959	-2.246954	0.066777
H48	H	-1.153459	-2.137056	0.058654
H49	H	-1.153348	-2.254752	0.176708
H50	H	-0.990348	-2.044812	0.150815
H51	H	-0.990360	-2.162600	0.268775
H52	H	-1.204634	-1.888329	0.424953
H53	H	-0.905991	-1.441658	0.870784
O54	O	-1.221841	-1.581286	0.731934
C55	C	-1.379185	-1.612104	0.847093
C56	C	-1.258481	-1.611976	0.846991
H57	H	-1.408845	-1.636889	0.940113
H58	H	-1.409038	-1.680231	0.779182
H59	H	-1.409033	-1.519190	0.822068
H60	H	-1.228544	-1.704839	0.872046
H61	H	-1.228699	-1.543785	0.914877
H62	H	-0.806472	-1.580908	0.731579
H63	H	-0.806506	-1.888055	0.424797
