data_functionalizedCrystal
_audit_creation_method	'MofGen! by Chris Wilmer'
_symmetry_space_group_name_H-M	'P1'
_symmetry_Int_Tables_number	1
_symmetry_cell_setting	triclinic
loop_
_symmetry_equiv_pos_as_xyz
  x,y,z
_cell_length_a	14.971486
_cell_length_b	19.288865
_cell_length_c	14.048226
_cell_angle_alpha	89.988335
_cell_angle_beta	89.998499
_cell_angle_gamma	83.375189
loop_
_atom_site_label
_atom_site_type_symbol
_atom_site_fract_x
_atom_site_fract_y
_atom_site_fract_z
O1	O	1.186458	0.090517	-0.079062
O2	O	0.925999	0.101357	-0.079090
O3	O	1.063754	-0.005169	-0.079056
O4	O	1.048702	0.197043	-0.079096
O5	O	1.063738	-0.005175	0.079265
O6	O	0.925982	0.101351	0.079232
O7	O	1.186441	0.090511	0.079259
Zn8	Zn	1.056209	0.095930	0.104382
Zn9	Zn	1.056231	0.095938	-0.104213
O10	O	1.048686	0.197037	0.079226
C11	C	0.892669	0.100869	0.000068
C12	C	0.793379	0.099416	0.000058
C13	C	0.735816	0.161997	0.000047
C14	C	0.642524	0.160628	0.000062
C15	C	0.606797	0.096677	0.000080
C16	C	0.664368	0.034092	0.000094
C17	C	0.757658	0.035461	0.000086
C18	C	0.469921	0.031241	0.000108
C19	C	0.376624	0.029871	0.000113
C20	C	0.354786	0.156407	0.000083
C21	C	0.448077	0.157777	0.000075
C22	C	0.505641	0.095191	0.000087
C23	C	1.063262	-0.031050	0.000107
C24	C	1.061808	-0.108158	0.000115
C25	C	1.142636	-0.152591	0.000128
C26	C	1.141271	-0.225043	0.000113
C27	C	1.059071	-0.253058	0.000104
C28	C	0.978232	-0.208615	0.000085
C29	C	0.979600	-0.136166	0.000091
C30	C	0.994448	-0.361558	0.055554
C31	C	0.993083	-0.434007	0.055554
C32	C	1.054848	-0.476517	0.000082
C33	C	1.117994	-0.446571	-0.055378
C34	C	1.119362	-0.374121	-0.055372
C35	C	1.057579	-0.331617	0.000097
C36	C	1.134201	-0.599511	0.000077
C37	C	1.132832	-0.671963	0.000056
C38	C	0.969791	-0.655535	0.000038
C39	C	0.971163	-0.583084	0.000050
C40	C	1.053370	-0.555077	0.000074
C41	C	1.219771	0.090999	0.000099
C42	C	1.319061	0.092452	0.000103
C43	C	1.049178	0.222918	0.000060
C44	C	1.050632	0.300026	0.000046
N45	N	1.056201	0.095924	0.246743
N46	N	1.056246	0.095939	-0.246574
C47	C	1.117218	0.048774	0.296576
C48	C	1.117224	0.048773	0.396233
C49	C	1.056217	0.095927	0.446056
C50	C	0.995193	0.143079	0.396217
C51	C	0.995183	0.143076	0.296561
C52	C	0.995219	0.143084	0.603931
C53	C	0.995229	0.143089	0.703593
C54	C	1.117259	0.048782	0.703603
C55	C	1.117250	0.048778	0.603947
C56	C	1.056227	0.095932	0.554115
H57	H	0.307912	0.207367	0.000078
H58	H	1.166931	0.010386	0.563382
H59	H	1.168289	-0.481182	-0.100548
N60	N	1.220014	-0.719894	0.000071
H61	H	1.255905	-0.710864	-0.058607
H62	H	1.255805	-0.710866	0.058811
H63	H	0.911305	-0.231430	0.000076
H64	H	0.945550	0.181485	0.744154
N65	N	0.338087	-0.039103	0.000131
H66	H	0.388708	-0.078543	0.000144
H67	H	0.299854	-0.042423	0.058824
H68	H	1.166908	0.010380	0.436807
H69	H	0.595658	0.211588	0.000052
N70	N	1.183080	-0.002076	0.757344
H71	H	1.173829	0.005077	0.828036
H72	H	1.172955	-0.051366	0.739941
H73	H	0.477162	0.209852	0.000051
N74	N	0.532011	-0.036261	0.000127
H75	H	0.495225	-0.076982	0.000136
H76	H	0.571191	-0.038446	-0.058568
H77	H	0.635272	-0.017978	0.000123
H78	H	0.945524	0.181479	0.563360
H79	H	0.945515	0.181470	0.436788
N80	N	0.929368	0.193926	0.242807
H81	H	0.890721	0.223799	0.289490
H82	H	0.963475	0.224677	0.201440
N83	N	1.228453	-0.272979	0.000125
H84	H	1.280737	-0.244242	0.000140
H85	H	1.231421	-0.303405	0.058817
H86	H	0.804527	-0.015498	0.000094
N87	N	0.774346	0.230973	0.000016
H88	H	0.723720	0.270410	0.000012
H89	H	0.812582	0.234298	0.058702
N90	N	1.231306	-0.122393	0.000134
H91	H	1.235513	-0.092692	-0.058556
H92	H	1.235457	-0.092743	0.058863
H93	H	0.941662	-0.458383	0.100707
N94	N	1.187460	-0.341820	-0.115185
H95	H	1.226384	-0.379739	-0.150329
H96	H	1.155116	-0.308436	-0.162562
N97	N	1.222862	-0.569296	0.000099
H98	H	1.273861	-0.608441	0.000098
H99	H	1.226986	-0.539580	-0.058587
H100	H	0.902863	-0.678344	0.000026
H101	H	0.905343	-0.546906	0.000044
H102	H	0.944148	-0.326952	0.100731
H103	H	0.913778	-0.099988	0.000081
H104	H	1.166901	0.010379	0.256016
