data_functionalizedCrystal
_audit_creation_method	'MofGen! by Chris Wilmer'
_symmetry_space_group_name_H-M	'P1'
_symmetry_Int_Tables_number	1
_symmetry_cell_setting	triclinic
loop_
_symmetry_equiv_pos_as_xyz
  x,y,z
_cell_length_a	21.295411
_cell_length_b	21.295418
_cell_length_c	21.295417
_cell_angle_alpha	90.046319
_cell_angle_beta	90.021644
_cell_angle_gamma	90.043738
loop_
_atom_site_label
_atom_site_type_symbol
_atom_site_fract_x
_atom_site_fract_y
_atom_site_fract_z
Zn1	Zn	-0.356234	-0.962356	0.250415
Zn2	Zn	-0.022900	-0.629022	0.583749
Zn3	Zn	0.310433	-0.295689	0.917082
Zn4	Zn	-0.250959	-0.962258	0.355667
Zn5	Zn	0.082374	-0.628925	0.689000
Zn6	Zn	0.415708	-0.295592	1.022334
Zn7	Zn	-0.250943	-0.857079	0.250445
Zn8	Zn	0.082390	-0.523746	0.583778
Zn9	Zn	0.415723	-0.190412	0.917111
Zn10	Zn	-0.356155	-0.857048	0.355680
Zn11	Zn	-0.022822	-0.523715	0.689013
Zn12	Zn	0.310511	-0.190382	1.022346
O13	O	-0.303573	-0.909685	0.303052
O14	O	0.029760	-0.576352	0.636385
O15	O	0.363094	-0.243019	0.969718
O16	O	-0.342308	-1.050432	0.264360
O17	O	-0.008975	-0.717099	0.597693
O18	O	0.324359	-0.383766	0.931026
O19	O	-0.162867	-0.948278	0.341716
O20	O	0.170466	-0.614945	0.675050
O21	O	0.503799	-0.281611	1.008383
O22	O	-0.264937	-0.871098	0.162351
O23	O	0.068397	-0.537764	0.495685
O24	O	0.401730	-0.204431	0.829018
O25	O	-0.264963	-1.050361	0.341688
O26	O	0.068370	-0.717027	0.675021
O27	O	0.401704	-0.383694	1.008354
O28	O	-0.342293	-0.948444	0.162330
O29	O	-0.008960	-0.615111	0.495663
O30	O	0.324374	-0.281778	0.828996
O31	O	-0.162856	-0.871003	0.264410
O32	O	0.170477	-0.537670	0.597743
O33	O	0.503811	-0.204337	0.931077
O34	O	-0.264861	-0.768985	0.264422
O35	O	0.068473	-0.435652	0.597755
O36	O	0.401806	-0.102319	0.931089
O37	O	-0.444255	-0.871046	0.341709
O38	O	-0.110922	-0.537712	0.675042
O39	O	0.222411	-0.204379	1.008376
O40	O	-0.342160	-0.768963	0.341738
O41	O	-0.008826	-0.435630	0.675071
O42	O	0.324507	-0.102296	1.008404
O43	O	-0.444313	-0.948415	0.264372
O44	O	-0.110979	-0.615081	0.597705
O45	O	0.222354	-0.281748	0.931038
O46	O	-0.264887	-0.948248	0.443758
O47	O	0.068446	-0.614915	0.777091
O48	O	0.401779	-0.281582	1.110425
O49	O	-0.342175	-0.870951	0.443767
O50	O	-0.008841	-0.537618	0.777101
O51	O	0.324492	-0.204284	1.110434
C52	C	-0.303500	-0.746134	0.303085
C53	C	0.029833	-0.412800	0.636418
C54	C	0.363166	-0.079467	0.969751
C55	C	-0.303484	-0.676166	0.303114
C56	C	0.029849	-0.342832	0.636447
C57	C	0.363182	-0.009499	0.969781
C58	C	-0.303538	-0.909603	0.466603
C59	C	0.029795	-0.576269	0.799937
C60	C	0.363129	-0.242936	1.133270
C61	C	-0.303544	-0.909625	0.536571
C62	C	0.029789	-0.576292	0.869905
C63	C	0.363123	-0.242958	1.203238
C64	C	-0.467763	-0.909738	0.303038
C65	C	-0.134430	-0.576404	0.636372
C66	C	0.198903	-0.243071	0.969705
C67	C	-0.537731	-0.909760	0.303033
C68	C	-0.204398	-0.576427	0.636366
C69	C	0.128935	-0.243093	0.969699
C70	C	-0.570629	-0.950044	0.262761
C71	C	-0.237296	-0.616711	0.596095
C72	C	0.096038	-0.283377	0.929428
C73	C	-0.636371	-0.950043	0.262734
C74	C	-0.303038	-0.616710	0.596067
C75	C	0.030295	-0.283377	0.929401
C76	C	-0.669214	-0.909765	0.302989
C77	C	-0.335881	-0.576431	0.636323
C78	C	-0.002547	-0.243098	0.969656
C79	C	-0.636308	-0.869473	0.343263
C80	C	-0.302975	-0.536139	0.676597
C81	C	0.030358	-0.202806	1.009930
C82	C	-0.570567	-0.869470	0.343285
C83	C	-0.237234	-0.536137	0.676618
C84	C	0.096100	-0.202804	1.009952
N85	N	-0.772428	-0.904908	0.358058
N86	N	-0.439094	-0.571575	0.691392
N87	N	-0.105761	-0.238241	1.024725
N88	N	-0.834879	-0.904914	0.358036
N89	N	-0.501546	-0.571581	0.691369
N90	N	-0.168213	-0.238247	1.024703
C91	C	-0.867289	-0.909769	0.302926
C92	C	-0.533955	-0.576435	0.636259
C93	C	-0.200622	-0.243102	0.969592
N94	N	-0.834888	-0.914629	0.247837
N95	N	-0.501554	-0.581296	0.581170
N96	N	-0.168221	-0.247963	0.914504
N97	N	-0.772430	-0.914627	0.247860
N98	N	-0.439097	-0.581293	0.581193
N99	N	-0.105764	-0.247960	0.914527
C100	C	-0.740499	-0.909763	0.302970
C101	C	-0.407166	-0.576429	0.636303
C102	C	-0.073833	-0.243096	0.969637
C103	C	-0.971472	-0.950054	0.262621
C104	C	-0.638139	-0.616721	0.595955
C105	C	-0.304805	-0.283388	0.929288
C106	C	-1.037216	-0.950049	0.262593
C107	C	-0.703882	-0.616716	0.595926
C108	C	-0.370549	-0.283382	0.929260
C109	C	-1.037151	-0.869482	0.343128
C110	C	-0.703818	-0.536148	0.676461
C111	C	-0.370485	-0.202815	1.009795
C112	C	-0.971409	-0.869484	0.343151
C113	C	-0.638076	-0.536150	0.676484
C114	C	-0.304742	-0.202817	1.009817
C115	C	-0.938573	-0.909773	0.302898
C116	C	-0.605240	-0.576440	0.636231
C117	C	-0.271906	-0.243107	0.969565
C118	C	-0.140021	-0.909670	0.303019
C119	C	0.193312	-0.576336	0.636353
C120	C	0.526645	-0.243003	0.969686
C121	C	-0.070054	-0.909769	0.302848
C122	C	0.263280	-0.576436	0.636181
C123	C	0.596613	-0.243103	0.969514
C124	C	-0.303646	-1.073876	0.303019
C125	C	0.029687	-0.740542	0.636352
C126	C	0.363021	-0.407209	0.969686
C127	C	-0.303677	-1.143844	0.303005
C128	C	0.029656	-0.810510	0.636338
C129	C	0.362990	-0.477177	0.969672
C130	C	-0.343674	-0.643304	0.343426
C131	C	-0.010340	-0.309970	0.676759
C132	C	0.322993	0.023363	1.010092
C133	C	-0.343702	-0.577561	0.343410
C134	C	-0.010369	-0.244228	0.676743
C135	C	0.322965	0.089106	1.010077
C136	C	-0.303530	-0.544683	0.303090
C137	C	0.029804	-0.211350	0.636423
C138	C	0.363137	0.121984	0.969756
C139	C	-0.263337	-0.577553	0.262770
C140	C	0.069996	-0.244220	0.596104
C141	C	0.403329	0.089114	0.929437
C142	C	-0.263315	-0.643294	0.262783
C143	C	0.070018	-0.309961	0.596116
C144	C	0.403352	0.023373	0.929449
N145	N	-0.248472	-0.441407	0.298163
N146	N	0.084861	-0.108074	0.631496
N147	N	0.418195	0.225260	0.964829
N148	N	-0.248495	-0.378956	0.298155
N149	N	0.084838	-0.045622	0.631488
N150	N	0.418171	0.287711	0.964821
C151	C	-0.303596	-0.346608	0.303050
C152	C	0.029737	-0.013275	0.636383
C153	C	0.363070	0.320058	0.969716
N154	N	-0.358675	-0.379072	0.307965
N155	N	-0.025341	-0.045739	0.641298
N156	N	0.307992	0.287595	0.974632
N157	N	-0.358650	-0.441529	0.307976
N158	N	-0.025317	-0.108196	0.641309
N159	N	0.308016	0.225138	0.974643
C160	C	-0.303550	-0.473398	0.303072
C161	C	0.029783	-0.140064	0.636405
C162	C	0.363117	0.193269	0.969738
C163	C	-0.343820	-0.242461	0.343346
C164	C	-0.010486	0.090872	0.676680
C165	C	0.322847	0.424206	1.010013
C166	C	-0.343849	-0.176717	0.343326
C167	C	-0.010516	0.156616	0.676660
C168	C	0.322818	0.489949	1.009993
C169	C	-0.263479	-0.176710	0.262690
C170	C	0.069854	0.156623	0.596023
C171	C	0.403188	0.489956	0.929357
C172	C	-0.263455	-0.242453	0.262707
C173	C	0.069878	0.090881	0.596040
C174	C	0.403211	0.424214	0.929373
C175	C	-0.303625	-0.275324	0.303038
C176	C	0.029709	0.058009	0.636372
C177	C	0.363042	0.391343	0.969705
C178	C	-0.303622	-0.909785	0.138861
C179	C	0.029712	-0.576452	0.472195
C180	C	0.363045	-0.243119	0.805528
C181	C	-0.303642	-0.909828	0.068893
C182	C	0.029691	-0.576495	0.402227
C183	C	0.363024	-0.243161	0.735560
C184	C	-0.263342	-0.949910	0.569412
C185	C	0.069991	-0.616576	0.902746
C186	C	0.403325	-0.283243	1.236079
C187	C	-0.263356	-0.949939	0.635155
C188	C	0.069977	-0.616606	0.968488
C189	C	0.403311	-0.283272	1.301822
C190	C	-0.303566	-0.909673	0.668054
C191	C	0.029767	-0.576340	1.001387
C192	C	0.363101	-0.243006	1.334721
C193	C	-0.343776	-0.869386	0.635205
C194	C	-0.010443	-0.536052	0.968538
C195	C	0.322891	-0.202719	1.301872
C196	C	-0.343765	-0.869362	0.569464
C197	C	-0.010432	-0.536028	0.902797
C198	C	0.322902	-0.202695	1.236130
N199	N	-0.308340	-0.854606	0.771336
N200	N	0.024993	-0.521272	1.104669
N201	N	0.358326	-0.187939	1.438002
N202	N	-0.308347	-0.854630	0.833787
N203	N	0.024986	-0.521297	1.167120
N204	N	0.358320	-0.187964	1.500454
C205	C	-0.303602	-0.909743	0.866129
C206	C	0.029731	-0.576410	1.199462
C207	C	0.363065	-0.243077	1.532795
N208	N	-0.298838	-0.964832	0.833659
N209	N	0.034496	-0.631499	1.166993
N210	N	0.367829	-0.298166	1.500326
N211	N	-0.298828	-0.964807	0.771202
N212	N	0.034506	-0.631474	1.104535
N213	N	0.367839	-0.298140	1.437869
C214	C	-0.303582	-0.909695	0.739339
C215	C	0.029751	-0.576361	1.072673
C216	C	0.363084	-0.243028	1.406006
C217	C	-0.263413	-0.950063	0.970255
C218	C	0.069920	-0.616730	1.303588
C219	C	0.403254	-0.283397	1.636922
C220	C	-0.263431	-0.950094	1.035999
C221	C	0.069902	-0.616760	1.369332
C222	C	0.403235	-0.283427	1.702665
C223	C	-0.343848	-0.869535	1.036048
C224	C	-0.010515	-0.536201	1.369381
C225	C	0.322819	-0.202868	1.702714
C226	C	-0.343833	-0.869510	0.970305
C227	C	-0.010500	-0.536176	1.303638
C228	C	0.322834	-0.202843	1.636972
C229	C	-0.303612	-0.909773	0.937413
C230	C	0.029721	-0.576440	1.270746
C231	C	0.363055	-0.243106	1.604079
H232	H	-0.663162	-0.982846	0.229937
H233	H	-0.329829	-0.649513	0.563270
H234	H	0.003505	-0.316180	0.896604
O235	O	-0.387119	-0.825897	0.534042
O236	O	-0.053786	-0.492564	0.867376
O237	O	0.279548	-0.159230	1.200709
H238	H	-0.436542	-0.836665	0.546621
H239	H	-0.103208	-0.503331	0.879954
H240	H	0.230125	-0.169998	1.213287
H241	H	-0.230664	-0.982850	0.943473
H242	H	0.102669	-0.649517	1.276806
H243	H	0.436002	-0.316184	1.610140
H244	H	-0.376431	-0.550800	0.376236
H245	H	-0.043098	-0.217466	0.709570
H246	H	0.290235	0.115867	1.042903
O247	O	-0.535087	-0.826004	0.386714
O248	O	-0.201754	-0.492670	0.720047
O249	O	0.131579	-0.159337	1.053381
H250	H	-0.547705	-0.836759	0.436117
H251	H	-0.214372	-0.503425	0.769450
H252	H	0.118962	-0.170092	1.102783
O253	O	-0.220067	-0.993544	1.071425
O254	O	0.113266	-0.660211	1.404759
O255	O	0.446599	-0.326878	1.738092
H256	H	-0.192095	-1.021531	1.037506
H257	H	0.141238	-0.688198	1.370839
H258	H	0.474572	-0.354864	1.704172
H259	H	-0.376516	-0.836602	0.661996
H260	H	-0.043183	-0.503268	0.995329
H261	H	0.290150	-0.169935	1.328662
H262	H	-0.663053	-0.836676	0.376038
H263	H	-0.329720	-0.503342	0.709371
H264	H	0.003614	-0.170009	1.042704
O265	O	-0.387215	-0.826100	1.071524
O266	O	-0.053881	-0.492767	1.404857
O267	O	0.279452	-0.159434	1.738191
H268	H	-0.419279	-0.854268	1.101429
H269	H	-0.085946	-0.520935	1.434763
H270	H	0.247387	-0.187602	1.768096
O271	O	-0.535211	-0.993495	0.219346
O272	O	-0.201878	-0.660161	0.552680
O273	O	0.131455	-0.326828	0.886013
H274	H	-0.569137	-1.021504	0.191335
H275	H	-0.235803	-0.688171	0.524669
H276	H	0.097530	-0.354838	0.858002
O277	O	-0.936048	-0.993499	0.219202
O278	O	-0.602715	-0.660166	0.552535
O279	O	-0.269382	-0.326832	0.885869
H280	H	-0.969972	-1.021504	0.191185
H281	H	-0.636639	-0.688171	0.524518
H282	H	-0.303305	-0.354838	0.857852
O283	O	-0.387192	-0.826054	0.934882
O284	O	-0.053859	-0.492720	1.268216
O285	O	0.279475	-0.159387	1.601549
H286	H	-0.380433	-0.832805	0.883642
H287	H	-0.047100	-0.499472	1.216975
H288	H	0.286234	-0.166138	1.550308
O289	O	-0.219964	-0.993340	0.533939
O290	O	0.113369	-0.660006	0.867273
O291	O	0.446703	-0.326673	1.200606
H292	H	-0.226705	-0.986554	0.482707
H293	H	0.106628	-0.653220	0.816040
H294	H	0.439961	-0.319887	1.149373
H295	H	-0.376384	-0.670063	0.376266
H296	H	-0.043050	-0.336730	0.709599
H297	H	0.290283	-0.003397	1.042932
O298	O	-1.072569	-0.826034	0.386542
O299	O	-0.739235	-0.492700	0.719875
O300	O	-0.405902	-0.159367	1.053208
H301	H	-1.038644	-0.798018	0.414547
H302	H	-0.705311	-0.464684	0.747881
H303	H	-0.371978	-0.131351	1.081214
O304	O	-0.219995	-0.993402	0.670575
O305	O	0.113339	-0.660069	1.003908
O306	O	0.446672	-0.326735	1.337242
H307	H	-0.248219	-1.025431	0.700465
H308	H	0.085115	-0.692098	1.033798
H309	H	0.418448	-0.358764	1.367131
H310	H	-0.230773	-0.149942	0.229857
H311	H	0.102560	0.183392	0.563191
H312	H	0.435894	0.516725	0.896524
H313	H	-0.944623	-0.836683	0.375948
H314	H	-0.611290	-0.503350	0.709281
H315	H	-0.277957	-0.170017	1.042614
O316	O	-1.072703	-0.993501	0.219157
O317	O	-0.739370	-0.660168	0.552490
O318	O	-0.406037	-0.326835	0.885823
H319	H	-1.038823	-1.021519	0.191177
H320	H	-0.705490	-0.688186	0.524510
H321	H	-0.372156	-0.354853	0.857844
H322	H	-0.230630	-0.550779	0.229940
H323	H	0.102703	-0.217446	0.563273
H324	H	0.436037	0.115887	0.896607
H325	H	-0.230726	-0.269209	0.229884
H326	H	0.102608	0.064124	0.563217
H327	H	0.435941	0.397457	0.896550
O328	O	-0.219954	-0.678745	0.219314
O329	O	0.113379	-0.345411	0.552647
O330	O	0.446712	-0.012078	0.885981
H331	H	-0.192019	-0.644841	0.191277
H332	H	0.141315	-0.311507	0.524611
H333	H	0.474648	0.021826	0.857944
O334	O	-0.387153	-0.277929	0.386827
O335	O	-0.053820	0.055404	0.720161
O336	O	0.279513	0.388737	1.053494
H337	H	-0.376285	-0.265253	0.436218
H338	H	-0.042951	0.068080	0.769551
H339	H	0.290382	0.401413	1.102885
O340	O	-0.387115	-0.141268	0.386890
O341	O	-0.053781	0.192065	0.720224
O342	O	0.279552	0.525399	1.053557
H343	H	-0.415006	-0.175173	0.414970
H344	H	-0.081673	0.158160	0.748303
H345	H	0.251661	0.491494	1.081636
