data_functionalizedCrystal
_audit_creation_method	'MofGen! by Chris Wilmer'
_symmetry_space_group_name_H-M	'P1'
_symmetry_Int_Tables_number	1
_symmetry_cell_setting	triclinic
loop_
_symmetry_equiv_pos_as_xyz
  x,y,z
_cell_length_a	12.759401
_cell_length_b	13.897448
_cell_length_c	12.759393
_cell_angle_alpha	90.033346
_cell_angle_beta	90.018496
_cell_angle_gamma	90.017853
loop_
_atom_site_label
_atom_site_type_symbol
_atom_site_fract_x
_atom_site_fract_y
_atom_site_fract_z
Zn1	Zn	1.606234	-0.383954	0.593968
Zn2	Zn	2.106234	0.116046	1.093968
Zn3	Zn	1.606119	-0.545283	0.418283
Zn4	Zn	2.106119	-0.045283	0.918283
Zn5	Zn	1.430536	-0.384004	0.418308
Zn6	Zn	1.930536	0.115996	0.918308
Zn7	Zn	1.430515	-0.545209	0.593924
Zn8	Zn	1.930515	-0.045209	1.093924
O9	O	1.518351	-0.464613	0.506121
O10	O	2.018351	0.035387	1.006121
O11	O	1.753239	-0.405365	0.570671
O12	O	2.253239	0.094635	1.070671
O13	O	1.582788	-0.523942	0.271265
O14	O	2.082788	-0.023942	0.771265
O15	O	1.453899	-0.249016	0.441638
O16	O	1.953899	0.250984	0.941638
O17	O	1.753155	-0.523893	0.441596
O18	O	2.253155	-0.023893	0.941596
O19	O	1.582983	-0.248979	0.570695
O20	O	2.082983	0.251021	1.070695
O21	O	1.453788	-0.405451	0.271283
O22	O	1.953788	0.094549	0.771283
O23	O	1.283512	-0.405379	0.441596
O24	O	1.783512	0.094621	0.941596
O25	O	1.453864	-0.523766	0.740951
O26	O	1.953864	-0.023766	1.240951
O27	O	1.283497	-0.523815	0.570621
O28	O	1.783497	-0.023815	1.070621
O29	O	1.582964	-0.405293	0.740984
O30	O	2.082964	0.094707	1.240984
O31	O	1.582768	-0.680255	0.441554
O32	O	2.082768	-0.180255	0.941554
O33	O	1.453753	-0.680201	0.570597
O34	O	1.953753	-0.180201	1.070597
C35	C	1.245383	-0.464595	0.506107
C36	C	1.745383	0.035405	1.006107
C37	C	1.128607	-0.464611	0.506125
C38	C	1.628607	0.035389	1.006125
C39	C	1.073764	-0.526379	0.573198
C40	C	1.573764	-0.026379	1.073198
C41	C	0.964040	-0.526391	0.573209
C42	C	1.464040	-0.026391	1.073209
C43	C	0.964011	-0.402864	0.439067
C44	C	1.464011	0.097136	0.939067
C45	C	1.073733	-0.402847	0.439062
C46	C	1.573733	0.097153	0.939062
C47	C	1.128638	-0.588142	0.640261
C48	C	1.628638	-0.088142	1.140261
C49	C	1.073796	-0.649917	0.707338
C50	C	1.573796	-0.149917	1.207338
C51	C	0.964072	-0.649929	0.707349
C52	C	1.464072	-0.149929	1.207349
C53	C	0.909190	-0.588167	0.640284
C54	C	1.409190	-0.088167	1.140284
C55	C	1.518274	-0.715227	0.506090
C56	C	2.018274	-0.215227	1.006090
C57	C	1.518337	-0.822441	0.506113
C58	C	2.018337	-0.322441	1.006113
C59	C	1.518448	-1.018736	0.506178
C60	C	2.018448	-0.518736	1.006178
C61	C	1.518383	-0.909503	0.506145
C62	C	2.018383	-0.409503	1.006145
C63	C	1.792384	-0.464631	0.506136
C64	C	2.292384	0.035369	1.006136
C65	C	1.909161	-0.464639	0.506142
C66	C	2.409161	0.035361	1.006142
C67	C	1.518424	-0.464515	0.780154
C68	C	2.018424	0.035485	1.280154
C69	C	1.518456	-0.464474	0.896931
C70	C	2.018456	0.035526	1.396931
C71	C	1.518456	-0.213020	0.506174
C72	C	2.018456	0.286980	1.006174
C73	C	1.518501	-0.105806	0.506197
C74	C	2.018501	0.394194	1.006197
C75	C	1.518338	-0.464640	0.233154
C76	C	2.018338	0.035360	0.733154
C77	C	1.518510	-0.464410	0.116377
C78	C	2.018510	0.035590	0.616377
C79	C	1.585687	-0.402779	0.951812
C80	C	2.085687	0.097221	1.451812
C81	C	1.585712	-0.402744	1.061536
C82	C	2.085712	0.097256	1.561536
C83	C	1.451271	-0.526107	1.061489
C84	C	1.951271	-0.026107	1.561489
C85	C	1.451242	-0.526137	0.951767
C86	C	1.951242	-0.026137	1.451767
C87	C	1.652901	-0.341116	0.896976
C88	C	2.152901	0.158884	1.396976
C89	C	1.720139	-0.279417	0.951856
C90	C	2.220139	0.220583	1.451856
C91	C	1.720164	-0.279382	1.061580
C92	C	2.220164	0.220618	1.561580
C93	C	1.652951	-0.341046	1.116424
C94	C	2.152951	0.158954	1.616424
H95	H	1.118488	-0.700195	0.761947
H96	H	1.618488	-0.200195	1.261947
H97	H	0.919422	-0.700221	0.761974
H98	H	1.419422	-0.200221	1.261974
H99	H	1.396549	-0.576311	1.106152
H100	H	1.896549	-0.076311	1.606152
H101	H	0.819845	-0.588173	0.640308
H102	H	1.319845	-0.088173	1.140308
N103	N	0.907938	-0.339784	0.370575
N104	N	1.407938	0.160216	0.870575
N105	N	0.809973	-0.339808	0.370590
N106	N	1.309973	0.160192	0.870590
H107	H	0.770370	-0.295258	0.322215
H108	H	1.270370	0.204742	0.822215
H109	H	1.774904	-0.229136	1.106261
H110	H	2.274904	0.270864	1.606261
N111	N	1.652896	-0.341144	0.784897
N112	N	2.152896	0.158856	1.284897
N113	N	1.712913	-0.286090	0.735945
N114	N	2.212913	0.213910	1.235945
H115	H	1.712911	-0.286112	0.656789
H116	H	2.212911	0.213888	1.156789
N117	N	1.129744	-0.339736	0.370556
N118	N	1.629744	0.160264	0.870556
N119	N	1.080740	-0.284596	0.310684
N120	N	1.580740	0.215404	0.810684
H121	H	1.120297	-0.240016	0.262306
H122	H	1.620297	0.259984	0.762306
N123	N	1.788773	-0.216427	0.895824
N124	N	2.288773	0.283573	1.395824
N125	N	1.788741	-0.216462	0.797859
N126	N	2.288741	0.283538	1.297859
H127	H	1.837213	-0.171972	0.758287
H128	H	2.337213	0.328028	1.258287
H129	H	1.652964	-0.341002	1.205769
H130	H	2.152964	0.158998	1.705769
N131	N	1.382554	-0.589155	0.895717
N132	N	1.882554	-0.089155	1.395717
N133	N	1.322552	-0.644209	0.944687
N134	N	1.822552	-0.144209	1.444687
H135	H	1.274035	-0.688714	0.905102
H136	H	1.774035	-0.188714	1.405102
H137	H	1.217981	-0.588141	0.640258
H138	H	1.717981	-0.088141	1.140258
