data_functionalizedCrystal
_audit_creation_method	'MofGen! by Chris Wilmer'
_symmetry_space_group_name_H-M	'P1'
_symmetry_Int_Tables_number	1
_symmetry_cell_setting	triclinic
loop_
_symmetry_equiv_pos_as_xyz
  x,y,z
_cell_length_a	11.804365
_cell_length_b	10.723024
_cell_length_c	10.723024
_cell_angle_alpha	84.467869
_cell_angle_beta	101.946168
_cell_angle_gamma	78.037866
loop_
_atom_site_label
_atom_site_type_symbol
_atom_site_fract_x
_atom_site_fract_y
_atom_site_fract_z
O1	O	0.099016	-1.682181	-0.150049
O2	O	0.099020	-1.319030	-0.166801
O3	O	0.099013	-1.508981	0.023150
O4	O	0.099022	-1.492230	-0.340000
O5	O	-0.099041	-1.458974	-0.026806
O6	O	-0.099034	-1.269022	-0.216757
O7	O	-0.099038	-1.632174	-0.200005
Cu8	Cu	-0.117120	-1.446032	-0.212943
Cu9	Cu	0.117102	-1.505171	-0.153864
O10	O	-0.099032	-1.442223	-0.389956
C11	C	-0.000007	-1.247527	-0.190560
C12	C	-0.000005	-1.108973	-0.186912
N13	N	-0.281859	-1.404446	-0.254495
C14	C	-0.000012	-1.482758	0.044672
C15	C	-0.000008	-1.479112	0.183227
C16	C	-0.655816	-1.646632	-0.012496
C17	C	-0.531156	-1.678090	0.018944
C18	C	-0.468825	-1.609681	-0.049413
C19	C	-0.531168	-1.509809	-0.149215
C20	C	-0.655841	-1.478354	-0.180664
C21	C	-0.468850	-1.441404	-0.217582
C22	C	-0.531193	-1.341532	-0.317384
C23	C	-0.655853	-1.310081	-0.348827
C24	C	-0.718184	-1.378490	-0.280470
C25	C	-0.344177	-1.472859	-0.186132
C26	C	-0.344202	-1.304582	-0.354301
C27	C	-0.468863	-1.273123	-0.385740
N28	N	0.281841	-1.546768	-0.112302
C29	C	-0.000009	-1.703678	-0.176246
C30	C	-0.000003	-1.842233	-0.179892
C31	C	-0.000002	-1.033991	-0.293199
C32	C	-0.000000	-0.890788	-0.289431
C33	C	-0.000003	-1.468446	-0.411478
C34	C	0.000000	-1.472094	-0.550031
C35	C	-0.000007	-1.585400	0.258210
C36	C	-0.000003	-1.581633	0.401414
H37	H	-0.293429	-1.554175	-0.104874
C38	C	-0.000001	-1.349158	0.362943
C39	C	0.102841	-1.346363	0.295530
C40	C	0.102841	-1.223427	0.208493
C41	C	-0.000002	-1.103285	0.188869
C42	C	-0.102851	-1.106075	0.256284
C43	C	-0.102851	-1.229012	0.343321
H44	H	0.178978	-1.435303	0.310055
H45	H	0.178977	-1.221362	0.158588
H46	H	-0.000002	-1.012281	0.124439
H47	H	-0.178988	-1.017135	0.241758
H48	H	-0.178987	-1.231076	0.393225
H49	H	0.000002	-0.906660	-0.088895
H50	H	0.000001	-1.385328	0.225052
H51	H	-0.480401	-1.759406	0.100200
C52	C	-0.331698	-1.644274	-0.014825
C53	C	-0.263148	-1.635138	0.121476
C54	C	-0.126015	-1.669730	0.156074
C55	C	-0.057430	-1.713458	0.054370
C56	C	-0.125980	-1.722597	-0.081939
C57	C	-0.263113	-1.688005	-0.116537
H58	H	-0.313918	-1.602765	0.196771
H59	H	-0.075270	-1.662964	0.256980
H60	H	0.044084	-1.739065	0.079982
H61	H	-0.075210	-1.754969	-0.157234
H62	H	-0.313858	-1.694770	-0.217443
H63	H	-0.706574	-1.702328	0.043145
H64	H	-0.519638	-1.191805	-0.467002
H65	H	-0.819693	-1.352874	-0.306064
H66	H	-0.000006	-1.075812	-0.386986
H67	H	0.000023	-1.067158	-0.093119
C68	C	-0.275652	-1.229321	-0.429500
C69	C	-0.138524	-1.263915	-0.394906
C70	C	-0.069964	-1.188666	-0.470100
C71	C	-0.138532	-1.078823	-0.579889
C72	C	-0.275667	-1.044224	-0.614488
C73	C	-0.344227	-1.119473	-0.539294
H74	H	-0.087759	-1.345233	-0.313629
H75	H	0.031553	-1.214279	-0.444486
H76	H	-0.087780	-1.023119	-0.635552
H77	H	-0.326432	-0.962906	-0.695765
H78	H	-0.445744	-1.093860	-0.564908
C79	C	-0.724437	-1.200230	-0.458614
C80	C	-0.810165	-1.082762	-0.430597
C81	C	-0.878748	-0.972912	-0.540384
C82	C	-0.861602	-0.980530	-0.678188
C83	C	-0.775870	-1.098003	-0.706211
C84	C	-0.707287	-1.207853	-0.596425
H85	H	-0.822860	-1.077119	-0.328581
H86	H	-0.942212	-0.885951	-0.519638
H87	H	-0.912371	-0.899212	-0.759458
H88	H	-0.763174	-1.103646	-0.808228
H89	H	-0.643823	-1.294814	-0.617170
H90	H	0.000007	-0.826357	-0.380419
H91	H	-0.000016	-1.679183	0.216386
H92	H	-0.000008	-1.672622	0.465846
