data_functionalizedCrystal
_audit_creation_method	'MofGen! by Chris Wilmer'
_symmetry_space_group_name_H-M	'P1'
_symmetry_Int_Tables_number	1
_symmetry_cell_setting	triclinic
loop_
_symmetry_equiv_pos_as_xyz
  x,y,z
_cell_length_a	23.532407
_cell_length_b	10.489741
_cell_length_c	9.565339
_cell_angle_alpha	90.000900
_cell_angle_beta	89.995586
_cell_angle_gamma	96.306074
loop_
_atom_site_label
_atom_site_type_symbol
_atom_site_fract_x
_atom_site_fract_y
_atom_site_fract_z
O1	O	0.080340	-1.691382	-0.116190
O2	O	0.087882	-1.319936	-0.116213
O3	O	0.001253	-1.516860	-0.116175
O4	O	0.166968	-1.494458	-0.116228
O5	O	0.001259	-1.516844	0.116345
O6	O	0.087887	-1.319920	0.116307
O7	O	0.080345	-1.691366	0.116330
Zn8	Zn	0.084117	-1.505641	0.153236
Zn9	Zn	0.084110	-1.505661	-0.153119
O10	O	0.166974	-1.494442	0.116293
C11	C	0.087315	-1.272415	0.000045
C12	C	0.085611	-1.130842	0.000037
C13	C	-0.019964	-1.516282	0.000089
C14	C	-0.083192	-1.514566	0.000099
N15	N	0.084122	-1.505636	0.362316
C16	C	-0.481594	-1.620344	0.000029
C17	C	-0.541005	-1.618751	0.000019
O18	O	-0.577100	-1.716808	-0.000027
N19	N	-0.564407	-1.501680	0.000012
C20	C	-0.528395	-1.386194	0.000002
O21	O	-0.553755	-1.286470	-0.000005
C22	C	-0.468985	-1.387789	0.000003
C23	C	-0.445587	-1.504868	0.000024
C24	C	-0.458195	-1.737414	0.000048
C25	C	-0.398788	-1.739007	0.000062
C26	C	-0.362781	-1.623530	0.000056
C27	C	-0.386180	-1.506460	0.000037
C28	C	-0.432974	-1.272305	-0.000017
C29	C	-0.373561	-1.273909	-0.000017
C30	C	-0.350162	-1.390988	0.000003
C31	C	-0.290766	-1.392576	0.000045
N32	N	-0.267364	-1.509648	0.000051
C33	C	-0.303371	-1.625125	0.000057
C34	C	-0.653160	-1.382854	-0.000002
C35	C	-0.712568	-1.381258	0.000008
C36	C	-0.725174	-1.613816	0.000021
C37	C	-0.665765	-1.615410	0.000022
C38	C	-0.629758	-1.499926	0.000005
C39	C	-0.178612	-1.628461	0.000086
C40	C	-0.119200	-1.630043	0.000105
C41	C	-0.106599	-1.397486	0.000084
C42	C	-0.166006	-1.395903	0.000072
C43	C	-0.202012	-1.511401	0.000068
O44	O	-0.254636	-1.294571	0.000084
O45	O	-0.278003	-1.724833	0.000046
C46	C	0.188191	-1.495021	0.000026
C47	C	0.251419	-1.496736	0.000006
C48	C	0.080912	-1.738887	0.000070
C49	C	0.082616	-1.880460	0.000069
C50	C	0.030491	-1.064535	0.000067
C51	C	0.056527	-0.971550	-0.114582
C52	C	0.056545	-0.971568	0.114664
C53	C	0.111668	-1.039722	-0.114708
C54	C	0.111679	-1.039750	0.114642
C55	C	0.137754	-0.946792	-0.000036
N56	N	0.084101	-1.505676	-0.362198
C57	C	0.124171	-1.414538	0.453501
C58	C	0.135693	-1.529652	0.546683
C59	C	0.072603	-1.390572	0.546689
C60	C	0.095670	-1.620808	0.453446
C61	C	0.032557	-1.481652	0.453444
C62	C	0.044059	-1.596850	0.546584
H63	H	-0.100152	-1.725387	0.000125
H64	H	0.134984	-1.070015	0.211562
N65	N	0.025647	-0.931545	0.243058
H66	H	-0.014868	-0.974834	0.242961
H67	H	0.046104	-0.957572	0.329570
H68	H	-0.646718	-1.710746	0.000038
H69	H	0.134970	-1.069782	-0.211745
H70	H	-0.731613	-1.285921	0.000015
H71	H	-0.754503	-1.707843	0.000020
N72	N	0.169069	-1.312572	0.399367
H73	H	0.207998	-1.330876	0.433291
H74	H	0.168468	-1.312771	0.293792
H75	H	-0.623845	-1.288807	-0.000004
N76	N	-0.458201	-1.146025	-0.000021
H77	H	-0.426368	-1.073126	-0.000027
H78	H	-0.482573	-1.140292	-0.086219
N79	N	-0.025175	-1.454698	0.399152
H80	H	-0.020608	-1.374744	0.339559
H81	H	-0.042275	-1.529721	0.341103
H82	H	0.105455	-1.718153	0.412660
H83	H	0.183113	-0.895860	-0.000113
H84	H	-0.207922	-1.722510	0.000077
N85	N	-0.373563	-1.865294	0.000054
H86	H	-0.349195	-1.871146	-0.086144
H87	H	-0.349227	-1.871085	0.086304
N88	N	-0.334725	-1.149348	-0.000042
H89	H	-0.358567	-1.074946	-0.000056
H90	H	-0.309805	-1.144928	0.086159
H91	H	-0.185058	-1.300568	0.000094
N92	N	-0.000819	-1.699018	0.600395
H93	H	0.007949	-1.785861	0.566292
H94	H	-0.000785	-1.697869	0.705973
H95	H	-0.077271	-1.303468	0.000084
N96	N	-0.029539	-1.132289	-0.000042
H97	H	-0.050286	-1.107683	-0.086715
H98	H	-0.027923	-1.228100	0.000896
N99	N	0.025636	-0.931496	-0.242961
H100	H	-0.014880	-0.974776	-0.242867
H101	H	0.025082	-0.835362	-0.242389
H102	H	0.179291	-1.549965	0.587638
H103	H	0.062870	-1.293248	0.587651
H104	H	-0.487507	-1.831454	0.000048
