data_functionalizedCrystal
_audit_creation_method	'MofGen! by Chris Wilmer'
_symmetry_space_group_name_H-M	'P1'
_symmetry_Int_Tables_number	1
_symmetry_cell_setting	triclinic
loop_
_symmetry_equiv_pos_as_xyz
  x,y,z
_cell_length_a	14.044191
_cell_length_b	17.038272
_cell_length_c	13.101039
_cell_angle_alpha	86.395263
_cell_angle_beta	93.662449
_cell_angle_gamma	92.151666
loop_
_atom_site_label
_atom_site_type_symbol
_atom_site_fract_x
_atom_site_fract_y
_atom_site_fract_z
O1	O	1.277888	0.185616	0.085166
O2	O	1.001367	0.178769	0.085179
O3	O	1.137984	0.068263	0.085165
O4	O	1.141271	0.296123	0.085181
O5	O	1.128183	0.076206	-0.085264
O6	O	0.991566	0.186712	-0.085250
O7	O	1.268087	0.193559	-0.085263
Zn8	Zn	1.128270	0.191397	-0.112315
Zn9	Zn	1.141184	0.180931	0.112232
O10	O	1.131470	0.304066	-0.085248
C11	C	0.960911	0.179746	-0.000034
C12	C	0.854965	0.170812	-0.000029
C13	C	0.608470	0.217839	-0.000036
C14	C	0.660990	0.154492	-0.000039
C15	C	0.768928	0.163575	-0.000033
C16	C	0.500523	0.208758	-0.000041
C17	C	1.130094	0.042897	-0.000050
C18	C	1.121174	-0.044520	-0.000049
C19	C	1.203063	-0.088904	-0.000054
C20	C	1.194677	-0.171042	-0.000044
C21	C	1.104402	-0.208794	-0.000036
C22	C	1.022508	-0.164405	-0.000028
C23	C	1.030895	-0.082269	-0.000031
C24	C	1.074773	-0.456626	-0.000021
C25	C	1.066392	-0.538768	-0.000021
C26	C	1.238562	-0.545400	-0.000035
C27	C	1.246941	-0.463261	-0.000043
C28	C	1.165047	-0.418879	-0.000030
C29	C	1.095828	-0.292752	-0.000029
C30	C	1.173622	-0.334923	-0.000030
C31	C	1.308543	0.192582	-0.000048
C32	C	1.414490	0.201516	-0.000046
C33	C	1.139361	0.329431	-0.000032
C34	C	1.148280	0.416848	-0.000026
N35	N	1.119464	0.198539	-0.265563
C36	C	1.107484	0.208264	-0.474604
C37	C	1.161974	0.164061	-0.525486
C38	C	1.155308	0.169472	-0.641804
C39	C	1.114149	0.202854	-0.358276
N40	N	1.149997	0.173783	0.265479
H41	H	0.644567	0.278888	-0.000029
O42	O	1.290833	-0.052362	-0.000013
C43	C	1.361308	-0.109152	-0.000037
H44	H	1.331945	-0.168231	0.032228
H45	H	1.426782	-0.090047	0.049443
H46	H	1.382187	-0.115102	-0.081800
H47	H	0.624896	0.093435	0.000029
O48	O	1.008197	-0.329523	0.000106
C49	C	1.003266	-0.380929	0.088388
H50	H	1.078444	-0.397474	0.117818
H51	H	0.959805	-0.436364	0.068539
H52	H	0.967560	-0.350518	0.150192
H53	H	1.213631	0.122155	-0.481689
O54	O	1.274209	-0.214195	0.000134
C55	C	1.279581	-0.266022	0.088393
H56	H	1.236804	-0.242258	0.150087
H57	H	1.357327	-0.271260	0.118016
H58	H	1.248957	-0.326454	0.068447
O59	O	1.334710	-0.426718	-0.000009
C60	C	1.405189	-0.483505	-0.000041
H61	H	1.375836	-0.542583	0.032236
H62	H	1.470669	-0.464393	0.049425
H63	H	1.426054	-0.489458	-0.081808
H64	H	1.305235	-0.581544	-0.000043
O65	O	1.045918	0.258364	-0.526728
C66	C	1.069341	0.336068	-0.500618
H67	H	1.110471	0.334932	-0.422683
H68	H	1.001086	0.369699	-0.497089
H69	H	1.115405	0.366406	-0.560969
H70	H	0.992874	-0.569503	-0.000031
O71	O	1.261357	-0.298338	-0.000172
C72	C	1.306589	-0.316296	-0.088457
H73	H	1.274336	-0.373621	-0.117883
H74	H	1.386197	-0.323060	-0.068614
H75	H	1.295813	-0.266731	-0.150263
H76	H	0.949004	-0.195150	-0.000015
O77	O	0.995123	-0.413636	-0.000067
C78	C	0.913651	-0.464575	-0.000042
H79	H	0.931061	-0.522594	-0.032304
H80	H	0.853023	-0.436223	-0.049525
H81	H	0.890987	-0.476096	0.081721
O82	O	0.951249	-0.039268	-0.000072
C83	C	0.869771	-0.090201	-0.000038
H84	H	0.887171	-0.148220	-0.032309
H85	H	0.809140	-0.061844	-0.049509
H86	H	0.847118	-0.101725	0.081729
