data_functionalizedCrystal
_audit_creation_method	'MofGen! by Chris Wilmer'
_symmetry_space_group_name_H-M	'P1'
_symmetry_Int_Tables_number	1
_symmetry_cell_setting	triclinic
loop_
_symmetry_equiv_pos_as_xyz
  x,y,z
_cell_length_a	16.109301
_cell_length_b	16.109301
_cell_length_c	9.130313
_cell_angle_alpha	89.994060
_cell_angle_beta	89.998839
_cell_angle_gamma	83.461532
loop_
_atom_site_label
_atom_site_type_symbol
_atom_site_fract_x
_atom_site_fract_y
_atom_site_fract_z
O1	O	1.103131	0.106868	-0.121724
O2	O	1.436464	0.440201	0.211610
O3	O	1.769797	0.773535	0.544943
O4	O	0.861069	0.120167	-0.121745
O5	O	1.194402	0.453500	0.211589
O6	O	1.527735	0.786834	0.544922
O7	O	0.988749	-0.007513	-0.121719
O8	O	1.322083	0.325820	0.211615
O9	O	1.655416	0.659153	0.544948
O10	O	0.975450	0.234549	-0.121750
O11	O	1.308783	0.567882	0.211584
O12	O	1.642117	0.901215	0.544917
O13	O	0.988741	-0.007517	0.121880
O14	O	1.322074	0.325816	0.455214
O15	O	1.655407	0.659150	0.788547
O16	O	0.861060	0.120163	0.121854
O17	O	1.194393	0.453497	0.455187
O18	O	1.527727	0.786830	0.788521
O19	O	1.103122	0.106864	0.121875
O20	O	1.436455	0.440198	0.455209
O21	O	1.769789	0.773531	0.788542
Cu22	Cu	0.982090	0.113514	0.144107
Cu23	Cu	1.315423	0.446847	0.477441
Cu24	Cu	1.648757	0.780180	0.810774
Cu25	Cu	0.982100	0.113518	-0.143977
Cu26	Cu	1.315434	0.446851	0.189357
Cu27	Cu	1.648767	0.780185	0.522690
O28	O	0.975441	0.234545	0.121849
O29	O	1.308775	0.567878	0.455183
O30	O	1.642108	0.901212	0.788516
C31	C	0.830089	0.119627	0.000052
C32	C	1.163423	0.452960	0.333385
C33	C	1.496756	0.786293	0.666719
C34	C	0.737794	0.118011	0.000045
C35	C	1.071127	0.451345	0.333378
C36	C	1.404461	0.784678	0.666711
C37	C	0.428796	0.188494	0.000061
C38	C	0.762129	0.521828	0.333394
C39	C	1.095463	0.855161	0.666728
C40	C	0.515516	0.190020	0.000052
C41	C	0.848849	0.523353	0.333386
C42	C	1.182183	0.856686	0.666719
C43	C	0.535389	0.038531	0.000052
C44	C	0.868723	0.371864	0.333386
C45	C	1.202056	0.705198	0.666719
C46	C	0.448671	0.037007	0.000050
C47	C	0.782004	0.370340	0.333384
C48	C	1.115337	0.703673	0.666717
C49	C	0.395376	0.111991	0.000062
C50	C	0.728709	0.445324	0.333396
C51	C	1.062042	0.778657	0.666729
C52	C	0.568815	0.115041	0.000055
C53	C	0.902148	0.448374	0.333389
C54	C	1.235481	0.781707	0.666722
C55	C	0.662841	0.116694	0.000046
C56	C	0.996174	0.450027	0.333379
C57	C	1.329507	0.783361	0.666713
C58	C	0.301344	0.110338	0.000069
C59	C	0.634677	0.443671	0.333402
C60	C	0.968010	0.777004	0.666736
C61	C	0.988206	-0.038490	0.000081
C62	C	1.321540	0.294843	0.333415
C63	C	1.654873	0.628177	0.666748
C64	C	0.986591	-0.130785	0.000083
C65	C	1.319924	0.202548	0.333417
C66	C	1.653258	0.535881	0.666750
C67	C	1.058599	-0.353058	0.000067
C68	C	1.391932	-0.019724	0.333400
C69	C	1.725265	0.313609	0.666733
C70	C	1.057075	-0.439778	0.000054
C71	C	1.390408	-0.106445	0.333388
C72	C	1.723741	0.226888	0.666721
C73	C	0.905586	-0.419904	0.000047
C74	C	1.238919	-0.086571	0.333380
C75	C	1.572253	0.246763	0.666713
C76	C	0.907111	-0.333185	0.000049
C77	C	1.240444	0.000148	0.333382
C78	C	1.573778	0.333481	0.666715
C79	C	0.983620	-0.299765	0.000066
C80	C	1.316953	0.033569	0.333399
C81	C	1.650286	0.366902	0.666732
C82	C	0.980571	-0.473204	0.000052
C83	C	1.313904	-0.139871	0.333385
C84	C	1.647237	0.193463	0.666719
C85	C	0.978918	-0.567230	0.000039
C86	C	1.312251	-0.233897	0.333372
C87	C	1.645584	0.099437	0.666705
C88	C	0.985273	-0.205733	0.000076
C89	C	1.318607	0.127601	0.333410
C90	C	1.651940	0.460934	0.666743
C91	C	1.134101	0.107405	0.000075
C92	C	1.467434	0.440738	0.333409
C93	C	1.800768	0.774072	0.666742
C94	C	1.226396	0.109020	0.000073
C95	C	1.559730	0.442353	0.333407
C96	C	1.893063	0.775687	0.666740
C97	C	0.975984	0.265522	0.000046
C98	C	1.309318	0.598855	0.333379
C99	C	1.642651	0.932188	0.666713
C100	C	0.977599	0.357817	0.000034
C101	C	1.310933	0.691150	0.333368
C102	C	1.644266	1.024484	0.666701
N103	N	0.982089	0.113510	0.346730
N104	N	1.315422	0.446843	0.680063
N105	N	1.648756	0.780177	1.013397
N106	N	0.982108	0.113515	-0.346599
N107	N	1.315442	0.446848	-0.013266
N108	N	1.648775	0.780181	0.320067
C109	C	1.038645	0.056997	0.423393
C110	C	1.371978	0.390330	0.756727
C111	C	1.705311	0.723663	1.090060
C112	C	1.038653	0.056997	0.576730
C113	C	1.371986	0.390330	0.910063
C114	C	1.705319	0.723663	1.243397
C115	C	0.925546	0.170031	0.576727
C116	C	1.258880	0.503364	0.910060
C117	C	1.592213	0.836698	1.243393
C118	C	0.925535	0.170026	0.423393
C119	C	1.258868	0.503359	0.756726
C120	C	1.592202	0.836693	1.090059
H121	H	0.421461	-0.025296	0.000047
H122	H	0.754794	0.308038	0.333380
H123	H	1.088127	0.641371	0.666713
H124	H	1.084705	0.010978	0.639145
H125	H	1.418038	0.344311	0.972479
H126	H	1.751371	0.677644	1.305812
Br127	Br	1.115395	-0.019705	0.319356
Br128	Br	1.448728	0.313628	0.652690
Br129	Br	1.782061	0.646961	0.986023
H130	H	0.879502	0.216046	0.639161
H131	H	1.212836	0.549380	0.972494
H132	H	1.546169	0.882713	1.305827
Br133	Br	0.848769	0.246722	0.319337
Br134	Br	1.182102	0.580055	0.652670
Br135	Br	1.515436	0.913388	0.986004
H136	H	0.843295	-0.447126	0.000036
H137	H	1.176628	-0.113793	0.333369
H138	H	1.509962	0.219541	0.666702
H139	H	0.542722	0.252317	0.000050
H140	H	0.876055	0.585650	0.333384
H141	H	1.209389	0.918983	0.666717
Br142	Br	0.607722	-0.063228	0.000048
Br143	Br	0.941056	0.270105	0.333381
Br144	Br	1.274389	0.603439	0.666715
H145	H	0.385405	0.249551	0.000070
H146	H	0.718738	0.582885	0.333403
H147	H	1.052072	0.916218	0.666736
H148	H	1.118130	-0.483167	0.000052
H149	H	1.451464	-0.149833	0.333385
H150	H	1.784797	0.183500	0.666718
Br151	Br	1.162431	-0.307704	0.000091
Br152	Br	1.495765	0.025630	0.333424
Br153	Br	1.829098	0.358963	0.666758
Br154	Br	0.805346	-0.260852	0.000028
Br155	Br	1.138679	0.072481	0.333361
Br156	Br	1.472013	0.405814	0.666694
