data_functionalizedCrystal
_audit_creation_method	'MofGen! by Chris Wilmer'
_symmetry_space_group_name_H-M	'P1'
_symmetry_Int_Tables_number	1
_symmetry_cell_setting	triclinic
loop_
_symmetry_equiv_pos_as_xyz
  x,y,z
_cell_length_a	23.532355
_cell_length_b	23.532357
_cell_length_c	15.455313
_cell_angle_alpha	92.642146
_cell_angle_beta	87.341931
_cell_angle_gamma	82.827896
loop_
_atom_site_label
_atom_site_type_symbol
_atom_site_fract_x
_atom_site_fract_y
_atom_site_fract_z
O1	O	0.757773	0.066494	-0.072022
O2	O	0.591905	0.076527	-0.072052
O3	O	0.679855	-0.011424	-0.072018
O4	O	0.669823	0.154444	-0.072056
O5	O	0.674826	-0.006415	0.072242
O6	O	0.586876	0.081536	0.072209
O7	O	0.752744	0.071503	0.072238
Cu8	Cu	0.669351	0.076977	0.085395
Cu9	Cu	0.675298	0.071053	-0.085209
O10	O	0.664794	0.159453	0.072205
C11	C	0.568174	0.078781	0.000075
C12	C	0.504956	0.078026	0.000065
C13	C	0.110200	0.076020	0.078738
C14	C	0.050801	0.075302	0.078742
O15	O	0.017751	0.077234	0.145618
N16	N	0.023834	0.072216	0.000106
C17	C	0.056270	0.069841	-0.078538
O18	O	0.027879	0.067150	-0.145424
C19	C	0.115669	0.070555	-0.078541
C20	C	0.142632	0.073647	0.000100
C21	C	0.137163	0.079111	0.157373
C22	C	0.196559	0.079829	0.157369
C23	C	0.228990	0.077456	0.078731
C24	C	0.202027	0.074365	0.000096
C25	C	0.148105	0.068176	-0.157185
C26	C	0.207508	0.068889	-0.157180
C27	C	0.234471	0.071981	-0.078539
C28	C	0.293854	0.072711	-0.078546
N29	N	0.320821	0.075797	0.000090
C30	C	0.288389	0.078170	0.078728
C31	C	-0.068471	0.068343	-0.078527
C32	C	-0.127870	0.067634	-0.078525
C33	C	-0.133335	0.073093	0.078756
C34	C	-0.073936	0.073807	0.078753
C35	C	-0.041504	0.071429	0.000109
C36	C	0.413124	0.079678	0.078714
C37	C	0.472524	0.080399	0.078703
C38	C	0.477984	0.074936	-0.078577
C39	C	0.418589	0.074219	-0.078567
C40	C	0.386160	0.076588	0.000086
O41	O	0.326941	0.070778	-0.145388
O42	O	0.316790	0.080853	0.145603
C43	C	0.677090	-0.030136	0.000115
C44	C	0.676335	-0.093354	0.000123
C45	C	0.674341	-0.488096	-0.078561
C46	C	0.673624	-0.547496	-0.078566
O47	O	0.675565	-0.580534	-0.145444
N48	N	0.670527	-0.574476	0.000069
C49	C	0.668141	-0.542054	0.078714
O50	O	0.665440	-0.570457	0.145599
C51	C	0.668854	-0.482655	0.078718
C52	C	0.671957	-0.455678	0.000078
C53	C	0.677443	-0.461119	-0.157195
C54	C	0.678161	-0.401724	-0.157190
C55	C	0.675777	-0.369306	-0.078551
C56	C	0.672675	-0.396283	0.000083
C57	C	0.666464	-0.450233	0.157363
C58	C	0.667177	-0.390830	0.157360
C59	C	0.670280	-0.363853	0.078720
C60	C	0.671009	-0.304469	0.078728
N61	N	0.674106	-0.277489	0.000093
C62	C	0.676490	-0.309907	-0.078546
C63	C	0.666643	-0.666796	0.078699
C64	C	0.665934	-0.726194	0.078696
C65	C	0.671416	-0.731632	-0.078585
C66	C	0.672129	-0.672233	-0.078581
C67	C	0.669740	-0.639815	0.000064
C68	C	0.677999	-0.185172	-0.078529
C69	C	0.678719	-0.125772	-0.078517
C70	C	0.673234	-0.120339	0.078763
C71	C	0.672516	-0.179735	0.078752
C72	C	0.674897	-0.212150	0.000098
O73	O	0.669067	-0.271394	0.145571
O74	O	0.679183	-0.281494	-0.145420
C75	C	0.776475	0.069249	0.000109
C76	C	0.839694	0.070003	0.000114
C77	C	0.667560	0.178165	0.000070
C78	C	0.668315	0.241383	0.000056
N79	N	0.665172	0.081143	0.205389
N80	N	0.679482	0.066883	-0.205203
C81	C	0.702549	0.043792	0.250798
C82	C	0.699394	0.046947	0.341604
C83	C	0.658863	0.087457	0.387001
C84	C	0.621482	0.124810	0.341586
C85	C	0.624635	0.121651	0.250781
C86	C	0.645254	0.101076	0.658577
C87	C	0.642105	0.104234	0.749389
C88	C	0.720016	0.026370	0.749400
C89	C	0.723168	0.023217	0.658593
C90	C	0.685784	0.060568	0.613187
N91	N	0.655638	0.090685	0.479820
N92	N	0.689007	0.057337	0.520369
H93	H	-0.159752	0.075024	0.142787
H94	H	0.233911	0.066953	-0.221223
H95	H	-0.051987	0.076325	0.142789
H96	H	-0.149819	0.065125	-0.142563
O97	O	0.681049	-0.375560	-0.233629
C98	C	0.633203	-0.385044	-0.281425
H99	H	0.596942	-0.395047	-0.235366
H100	H	0.645642	-0.422771	-0.330412
C101	C	0.657655	-0.318640	-0.386251
C102	C	0.613116	-0.330921	-0.329679
H103	H	0.645266	-0.285256	-0.416020
H104	H	0.689891	-0.312252	-0.354052
H105	H	0.668017	-0.350083	-0.427065
H106	H	0.602761	-0.299481	-0.288859
H107	H	0.580878	-0.337302	-0.361873
O108	O	0.588302	0.157995	0.206803
C109	C	0.551844	0.194419	0.266341
H110	H	0.572942	0.197192	0.331065
H111	H	0.509311	0.176483	0.276015
C112	C	0.515060	0.251281	0.151382
C113	C	0.540975	0.254691	0.230875
H114	H	0.508353	0.288459	0.129504
H115	H	0.539621	0.226740	0.111269
H116	H	0.479619	0.236332	0.159454
H117	H	0.576419	0.269632	0.222800
H118	H	0.516420	0.279236	0.270986
O119	O	0.762471	-0.016318	0.614731
C120	C	0.752626	-0.071779	0.637238
H121	H	0.706121	-0.070800	0.662086
H122	H	0.782350	-0.086762	0.690123
C123	C	0.821656	-0.114646	0.526302
C124	C	0.764536	-0.113445	0.556813
H125	H	0.829005	-0.140349	0.476694
H126	H	0.828291	-0.077281	0.511140
H127	H	0.846420	-0.127130	0.570380
H128	H	0.739773	-0.100954	0.512739
H129	H	0.757897	-0.150809	0.571965
O130	O	0.663531	-0.476474	0.233726
C131	C	0.712265	-0.517433	0.238468
H132	H	0.748537	-0.505800	0.193880
H133	H	0.701302	-0.561653	0.217323
C134	C	0.686763	-0.532444	0.387205
C135	C	0.731314	-0.518153	0.332447
H136	H	0.698512	-0.532891	0.445176
H137	H	0.653929	-0.504851	0.384010
H138	H	0.677631	-0.569293	0.369574
H139	H	0.740440	-0.481303	0.350072
H140	H	0.764150	-0.545741	0.335648
O141	O	0.673830	-0.763118	-0.155000
C142	C	0.724997	-0.756996	-0.202847
H143	H	0.758071	-0.743785	-0.156833
H144	H	0.715967	-0.722694	-0.251887
C145	C	0.707783	-0.830717	-0.307537
C146	C	0.748408	-0.814495	-0.251021
H147	H	0.722224	-0.866184	-0.337257
H148	H	0.673310	-0.834840	-0.275304
H149	H	0.700262	-0.802127	-0.348396
H150	H	0.755923	-0.843081	-0.210157
H151	H	0.782883	-0.810378	-0.283249
O152	O	0.509458	0.072733	-0.154984
C153	C	0.489860	0.120219	-0.202853
H154	H	0.467213	0.156101	-0.156856
H155	H	0.458618	0.106945	-0.251891
C156	C	0.569066	0.097478	-0.307529
C157	C	0.541254	0.141551	-0.251034
H158	H	0.600766	0.110636	-0.337253
H159	H	0.582268	0.065484	-0.275281
H160	H	0.543025	0.086421	-0.348387
H161	H	0.567292	0.152603	-0.210171
H162	H	0.528057	0.173547	-0.283276
O163	O	0.381699	0.081909	0.155171
C164	C	0.401289	0.034409	0.203015
H165	H	0.447440	0.017704	0.180646
H166	H	0.372958	-0.000917	0.192137
C167	C	0.341935	0.073324	0.327662
C168	C	0.398619	0.052809	0.300193
H169	H	0.340286	0.084673	0.387606
H170	H	0.328734	0.105325	0.295428
H171	H	0.318332	0.043882	0.318590
H172	H	0.422220	0.082253	0.309255
H173	H	0.411824	0.020814	0.332430
H174	H	-0.042069	0.066412	-0.142572
O175	O	0.756402	-0.009862	0.793467
C176	C	0.813496	-0.001688	0.771248
H177	H	0.814378	0.043043	0.746275
H178	H	0.832234	-0.035175	0.718544
C179	C	0.848275	-0.062885	0.882580
C180	C	0.849359	-0.007944	0.851914
H181	H	0.870398	-0.066746	0.932336
H182	H	0.809810	-0.068394	0.897547
H183	H	0.863889	-0.090785	0.838652
H184	H	0.833738	0.019954	0.895838
H185	H	0.887823	-0.002430	0.836956
O186	O	0.105737	0.081344	0.233826
C187	C	0.125326	0.033842	0.281668
H188	H	0.171474	0.017133	0.259294
H189	H	0.096990	-0.001480	0.270795
C190	C	0.065980	0.072763	0.406321
C191	C	0.122662	0.052243	0.378846
H192	H	0.064335	0.084112	0.466265
H193	H	0.052781	0.104764	0.374088
H194	H	0.042374	0.043324	0.397253
H195	H	0.146266	0.081684	0.387904
H196	H	0.135866	0.020246	0.411082
O197	O	0.608896	0.137284	0.614433
C198	C	0.575771	0.105147	0.561906
H199	H	0.574115	0.061189	0.589288
H200	H	0.596003	0.099672	0.493086
C201	C	0.516526	0.190808	0.526876
C202	C	0.514488	0.136819	0.560510
H203	H	0.478724	0.210345	0.526010
H204	H	0.538844	0.212459	0.562261
H205	H	0.533389	0.186238	0.469529
H206	H	0.497631	0.141390	0.617859
H207	H	0.492165	0.115169	0.525134
O208	O	0.498790	0.083322	0.155044
C209	C	0.539719	0.034562	0.159771
H210	H	0.553243	0.015854	0.091498
H211	H	0.520199	0.001088	0.198583
C212	C	0.575916	0.074766	0.288587
C213	C	0.592530	0.051791	0.204731
H214	H	0.608492	0.085393	0.316324
H215	H	0.548340	0.107616	0.285405
H216	H	0.559648	0.046867	0.320919
H217	H	0.608790	0.079693	0.172398
H218	H	0.620110	0.018946	0.207909
O219	O	0.663020	-0.752439	0.155062
C220	C	0.711761	-0.793394	0.159779
H221	H	0.748020	-0.781756	0.115170
H222	H	0.700798	-0.837615	0.138644
C223	C	0.686298	-0.808408	0.308529
C224	C	0.730834	-0.794111	0.253745
H225	H	0.698062	-0.808853	0.366492
H226	H	0.653459	-0.780817	0.305351
H227	H	0.677167	-0.845258	0.290906
H228	H	0.739960	-0.757259	0.271362
H229	H	0.763675	-0.821695	0.256929
H230	H	0.588479	0.157792	0.378554
O231	O	0.122018	0.065139	-0.233655
C232	C	0.163390	0.063207	-0.303053
H233	H	0.207392	0.046492	-0.279977
H234	H	0.164302	0.108137	-0.327256
C235	C	0.093870	0.043511	-0.405676
C236	C	0.147912	0.022976	-0.377336
H237	H	0.084321	0.018697	-0.451500
H238	H	0.065995	0.044814	-0.358923
H239	H	0.094636	0.080952	-0.425840
H240	H	0.147143	-0.014461	-0.357163
H241	H	0.175786	0.021665	-0.424088
H242	H	0.735555	0.010807	0.213841
H243	H	0.664699	-0.640404	0.142745
O244	O	0.679659	-0.492616	-0.233570
C245	C	0.630089	-0.520411	-0.238298
H246	H	0.594263	-0.496263	-0.193678
H247	H	0.639967	-0.566224	-0.217186
C248	C	0.654994	-0.551164	-0.387062
C249	C	0.610990	-0.521503	-0.332264
H250	H	0.643214	-0.551841	-0.445024
H251	H	0.688391	-0.532440	-0.383876
H252	H	0.663221	-0.589339	-0.369458
H253	H	0.602769	-0.483327	-0.349861
H254	H	0.577591	-0.540220	-0.335455
H255	H	0.218507	0.082343	0.221407
H256	H	0.665223	-0.364437	0.221404
H257	H	0.396633	0.071710	-0.142602
O258	O	0.669480	-0.205850	0.155218
C259	C	0.667548	-0.164499	0.224627
H260	H	0.650835	-0.120489	0.201571
H261	H	0.712479	-0.163597	0.248817
C262	C	0.647848	-0.234051	0.327233
C263	C	0.627316	-0.179998	0.298917
H264	H	0.623033	-0.243613	0.373061
H265	H	0.649152	-0.261911	0.280472
H266	H	0.685290	-0.233293	0.347386
H267	H	0.589878	-0.180759	0.278755
H268	H	0.626005	-0.152139	0.345677
H269	H	0.681247	-0.103811	-0.142558
O270	O	0.670813	-0.088799	0.155124
C271	C	0.621737	-0.047528	0.159784
H272	H	0.588604	-0.062271	0.115149
H273	H	0.634169	-0.004770	0.138646
C274	C	0.636787	-0.022183	0.308546
C275	C	0.596090	-0.040293	0.253730
H276	H	0.620968	-0.017717	0.366497
H277	H	0.669852	-0.049986	0.305406
H278	H	0.647144	0.013447	0.290921
H279	H	0.585740	-0.075925	0.271349
H280	H	0.563023	-0.012495	0.256875
O281	O	0.735768	0.010645	0.385579
C282	C	0.772212	-0.025792	0.326039
H283	H	0.774958	-0.004696	0.261299
H284	H	0.754315	-0.068345	0.316406
C285	C	0.829118	-0.062516	0.440981
C286	C	0.832494	-0.036604	0.361469
H287	H	0.866303	-0.069188	0.462836
H288	H	0.804564	-0.037970	0.481095
H289	H	0.814202	-0.097974	0.432943
H290	H	0.847404	-0.001143	0.369510
H291	H	0.857053	-0.061144	0.321356
O292	O	0.680331	-0.216572	-0.155009
C293	C	0.683202	-0.180011	-0.224403
H294	H	0.700952	-0.139344	-0.201337
H295	H	0.638421	-0.168272	-0.248574
C296	C	0.701053	-0.260813	-0.327044
C297	C	0.722858	-0.210867	-0.298715
H298	H	0.725512	-0.279847	-0.372885
H299	H	0.699116	-0.285445	-0.280293
H300	H	0.663736	-0.251024	-0.347180
H301	H	0.760171	-0.220658	-0.278569
H302	H	0.724802	-0.186237	-0.345465
H303	H	0.674655	-0.650272	-0.142617
H304	H	0.609099	0.137224	0.786347
