data_functionalizedCrystal
_audit_creation_method	'MofGen! by Chris Wilmer'
_symmetry_space_group_name_H-M	'P1'
_symmetry_Int_Tables_number	1
_symmetry_cell_setting	triclinic
loop_
_symmetry_equiv_pos_as_xyz
  x,y,z
_cell_length_a	19.077105
_cell_length_b	12.759400
_cell_length_c	19.076919
_cell_angle_alpha	92.274856
_cell_angle_beta	90.076224
_cell_angle_gamma	87.711168
loop_
_atom_site_label
_atom_site_type_symbol
_atom_site_fract_x
_atom_site_fract_y
_atom_site_fract_z
Zn1	Zn	1.058328	-0.508276	-0.440436
Zn2	Zn	1.558328	-0.008276	0.059564
Zn3	Zn	1.062987	-0.677203	-0.322935
Zn4	Zn	1.562987	-0.177203	0.177065
Zn5	Zn	0.945544	-0.494202	-0.318229
Zn6	Zn	1.445544	0.005798	0.181771
Zn7	Zn	0.940808	-0.676569	-0.435688
Zn8	Zn	1.440808	-0.176569	0.064312
O9	O	1.001917	-0.589062	-0.379322
O10	O	1.501917	-0.089062	0.120678
O11	O	1.157278	-0.536840	-0.428806
O12	O	1.657278	-0.036840	0.071194
O13	O	1.051339	-0.647302	-0.223980
O14	O	1.551339	-0.147302	0.276020
O15	O	0.960537	-0.349051	-0.334457
O16	O	1.460537	0.150949	0.165543
O17	O	1.160701	-0.660950	-0.342479
O18	O	1.660701	-0.160950	0.157521
O19	O	1.043399	-0.359391	-0.424243
O20	O	1.543399	0.140609	0.075757
O21	O	0.965055	-0.512852	-0.220522
O22	O	1.465055	-0.012852	0.279478
O23	O	0.846583	-0.512238	-0.329853
O24	O	1.346583	-0.012238	0.170147
O25	O	0.952466	-0.659870	-0.534649
O26	O	1.452466	-0.159870	-0.034649
O27	O	0.843104	-0.646223	-0.416150
O28	O	1.343104	-0.146223	0.083850
O29	O	1.038807	-0.536225	-0.538138
O30	O	1.538807	-0.036225	-0.038138
O31	O	1.046747	-0.824137	-0.337875
O32	O	1.546747	-0.324137	0.162125
O33	O	0.956983	-0.823671	-0.420714
O34	O	1.456983	-0.323671	0.079286
C35	C	0.819347	-0.577635	-0.371976
C36	C	1.319347	-0.077635	0.128024
C37	C	0.741242	-0.572772	-0.368850
C38	C	1.241242	-0.072772	0.131150
C39	C	0.702758	-0.640344	-0.412241
C40	C	1.202758	-0.140344	0.087759
C41	C	0.629371	-0.635761	-0.409307
C42	C	1.129371	-0.135761	0.090693
C43	C	0.594468	-0.563612	-0.362979
C44	C	1.094468	-0.063612	0.137021
C45	C	0.632957	-0.496033	-0.319586
C46	C	1.132957	0.003967	0.180414
C47	C	0.706344	-0.500611	-0.322524
C48	C	1.206344	-0.000611	0.177476
C49	C	0.375179	-0.542424	-0.349385
C50	C	0.875179	-0.042424	0.150615
C51	C	0.301787	-0.537853	-0.346449
C52	C	0.801787	-0.037853	0.153551
C53	C	0.298205	-0.677581	-0.436172
C54	C	0.798205	-0.177581	0.063828
C55	C	0.371593	-0.682157	-0.439102
C56	C	0.871593	-0.182157	0.060898
C57	C	0.410076	-0.614574	-0.395712
C58	C	0.910076	-0.114574	0.104288
N59	N	0.519454	-0.558928	-0.359977
N60	N	1.019454	-0.058928	0.140023
N61	N	0.485088	-0.619253	-0.398718
N62	N	0.985088	-0.119253	0.101282
C63	C	1.001876	-0.862026	-0.379306
C64	C	1.501876	-0.362026	0.120694
C65	C	1.001921	-0.978807	-0.379325
C66	C	1.501921	-0.478807	0.120675
C67	C	1.048709	-1.033882	-0.336242
C68	C	1.548709	-0.533882	0.163758
C69	C	1.048751	-1.143610	-0.336266
C70	C	1.548751	-0.643610	0.163734
C71	C	0.955212	-1.143177	-0.422456
C72	C	1.455212	-0.643177	0.077544
C73	C	0.955173	-1.033452	-0.422436
C74	C	1.455173	-0.533452	0.077564
C75	C	1.095457	-0.979237	-0.293132
C76	C	1.595457	-0.479237	0.206868
C77	C	1.142248	-1.034313	-0.250045
C78	C	1.642248	-0.534313	0.249955
C79	C	1.142290	-1.144041	-0.250068
C80	C	1.642290	-0.644041	0.249932
C81	C	1.095542	-1.198693	-0.293178
C82	C	1.595542	-0.698693	0.206822
C83	C	1.185199	-0.600535	-0.386697
C84	C	1.685199	-0.100535	0.113303
C85	C	1.263303	-0.605424	-0.389840
C86	C	1.763303	-0.105424	0.110160
C87	C	0.994588	-0.599547	-0.562603
C88	C	1.494588	-0.099547	-0.062603
C89	C	0.991465	-0.604015	-0.640706
C90	C	1.491465	-0.104015	-0.140706
C91	C	1.001976	-0.315035	-0.379355
C92	C	1.501976	0.184965	0.120645
C93	C	1.002002	-0.198260	-0.379368
C94	C	1.502002	0.301740	0.120632
C95	C	1.034949	-0.541742	-0.679216
C96	C	1.534949	-0.041742	-0.179216
C97	C	1.032006	-0.545935	-0.752602
C98	C	1.532006	-0.045935	-0.252602
C99	C	0.985583	-0.612408	-0.787477
C100	C	1.485583	-0.112408	-0.287477
C101	C	0.942094	-0.674683	-0.748961
C102	C	1.442094	-0.174683	-0.248961
C103	C	0.945034	-0.670484	-0.675576
C104	C	1.445034	-0.170484	-0.175576
C105	C	0.971967	-0.631866	-1.006758
C106	C	1.471967	-0.131866	-0.506758
C107	C	0.969032	-0.636063	-1.080148
C108	C	1.469032	-0.136063	-0.580148
C109	C	1.058943	-0.507313	-1.083785
C110	C	1.558943	-0.007313	-0.583785
C111	C	1.061882	-0.503124	-1.010398
C112	C	1.561882	-0.003124	-0.510398
C113	C	1.018391	-0.565395	-0.971889
C114	C	1.518391	-0.065395	-0.471889
N115	N	0.982575	-0.616698	-0.862489
N116	N	1.482575	-0.116698	-0.362489
N117	N	1.021396	-0.561099	-0.896878
N118	N	1.521396	-0.061099	-0.396878
C119	C	1.009257	-0.578545	-0.196756
C120	C	1.509257	-0.078545	0.303244
C121	C	1.012516	-0.573790	-0.118659
C122	C	1.512516	-0.073790	0.381341
H123	H	0.406503	-0.487401	-0.314049
H124	H	0.906503	0.012599	0.185951
H125	H	1.067417	-0.495228	-0.783954
H126	H	1.567417	0.004772	-0.283954
H127	H	0.904293	-0.728803	-0.777361
H128	H	1.404293	-0.228803	-0.277361
H129	H	0.909618	-0.721182	-0.644221
H130	H	1.409618	-0.221182	-0.144221
C131	C	1.193672	-0.974206	-0.202630
C132	C	1.693672	-0.474206	0.297370
H133	H	1.221548	-1.022726	-0.176981
H134	H	1.721548	-0.522726	0.323019
H135	H	1.168027	-0.928024	-0.170902
H136	H	1.668027	-0.428024	0.329098
H137	H	1.223178	-0.934799	-0.230761
H138	H	1.723178	-0.434799	0.269239
H139	H	1.094350	-0.456614	-1.115147
H140	H	1.594350	0.043386	-0.615147
H141	H	0.266865	-0.732601	-0.471498
H142	H	0.766865	-0.232601	0.028502
H143	H	1.072754	-0.487616	-0.650827
H144	H	1.572754	0.012384	-0.150827
H145	H	1.180395	-1.188881	-0.214990
H146	H	1.680395	-0.688881	0.285010
H147	H	1.095585	-1.288042	-0.293200
H148	H	1.595585	-0.788042	0.206800
H149	H	0.731171	-0.699099	-0.449965
H150	H	1.231171	-0.199099	0.050035
C151	C	0.903788	-1.203292	-0.469866
C152	C	1.403788	-0.703292	0.030134
H153	H	0.910508	-1.276528	-0.463702
H154	H	1.410508	-0.776528	0.036298
H155	H	0.912137	-1.188613	-0.517497
H156	H	1.412137	-0.688613	-0.017497
H157	H	0.856987	-1.181830	-0.457635
H158	H	1.356987	-0.681830	0.042365
H159	H	0.917075	-0.988609	-0.457518
H160	H	1.417075	-0.488609	0.042482
H161	H	1.099687	-0.448998	-0.982009
H162	H	1.599687	0.051002	-0.482009
H163	H	0.598040	-0.690786	-0.444640
H164	H	1.098040	-0.190786	0.055360
H165	H	0.931226	-0.690196	-1.108541
H166	H	1.431226	-0.190196	-0.608541
C167	C	0.924135	-0.700367	-0.964404
C168	C	1.424135	-0.200367	-0.464404
H169	H	0.932526	-0.688343	-0.915703
H170	H	1.432526	-0.188343	-0.415703
H171	H	0.933923	-0.772288	-0.976837
H172	H	1.433923	-0.272288	-0.476837
H173	H	0.876442	-0.682718	-0.974533
H174	H	1.376442	-0.182718	-0.474533
H175	H	0.400006	-0.740911	-0.476826
H176	H	0.900006	-0.240911	0.023174
H177	H	0.273372	-0.479088	-0.308727
H178	H	0.773372	0.020912	0.191273
H179	H	0.604534	-0.437283	-0.281867
H180	H	1.104534	0.062717	0.218133
H181	H	0.737676	-0.445582	-0.287194
H182	H	1.237676	0.054418	0.212806
H183	H	1.095426	-0.889891	-0.293106
H184	H	1.595426	-0.389891	0.206894
