data_functionalizedCrystal
_audit_creation_method	'MofGen! by Chris Wilmer'
_symmetry_space_group_name_H-M	'P1'
_symmetry_Int_Tables_number	1
_symmetry_cell_setting	triclinic
loop_
_symmetry_equiv_pos_as_xyz
  x,y,z
_cell_length_a	12.759401
_cell_length_b	15.299816
_cell_length_c	15.297908
_cell_angle_alpha	72.660067
_cell_angle_beta	99.694888
_cell_angle_gamma	80.352053
loop_
_atom_site_label
_atom_site_type_symbol
_atom_site_fract_x
_atom_site_fract_y
_atom_site_fract_z
Zn1	Zn	1.817935	-0.461079	0.589921
Zn2	Zn	1.817821	-0.589665	0.461344
Zn3	Zn	1.605505	-0.434215	0.434432
Zn4	Zn	1.678940	-0.616510	0.616806
O5	O	1.730050	-0.525367	0.525626
O6	O	1.964945	-0.478145	0.572876
O7	O	1.758877	-0.546567	0.327641
O8	O	1.603000	-0.307674	0.432544
O9	O	1.964861	-0.572616	0.478412
O10	O	1.759071	-0.327411	0.546781
O11	O	1.602889	-0.432358	0.307868
O12	O	1.468222	-0.458389	0.458613
O13	O	1.728158	-0.618369	0.743374
O14	O	1.522173	-0.592320	0.592602
O15	O	1.830277	-0.504175	0.723621
O16	O	1.830083	-0.723331	0.504481
O17	O	1.728047	-0.743054	0.618698
C18	C	1.457076	-0.525353	0.525606
C19	C	1.340307	-0.525373	0.525623
C20	C	1.787054	-0.766931	0.567448
C21	C	1.811544	-0.870278	0.585370
C22	C	1.313564	-0.595185	0.595313
C23	C	1.203845	-0.595192	0.595332
C24	C	1.147619	-0.455570	0.455962
C25	C	1.257336	-0.455560	0.455948
C26	C	1.555780	-1.120767	0.397847
C27	C	1.532766	-1.023667	0.381010
C28	C	1.602459	-0.985315	0.432098
C29	C	1.695169	-1.044072	0.500027
C30	C	1.718181	-1.141182	0.516871
C31	C	1.764860	-1.005730	0.551122
C32	C	1.857571	-1.064487	0.619051
C33	C	1.880579	-1.161587	0.635891
C34	C	1.810886	-1.199939	0.584803
C35	C	1.741848	-0.908620	0.534278
C36	C	1.904249	-0.929035	0.653302
C37	C	1.927263	-1.026135	0.670139
C38	C	2.004091	-0.525383	0.525647
C39	C	2.120871	-0.525389	0.525656
C40	C	1.787422	-0.567264	0.768183
C41	C	1.811870	-0.585117	0.871547
C42	C	1.672857	-0.282864	0.483661
C43	C	1.648485	-0.179524	0.465779
C44	C	1.672947	-0.483567	0.284001
C45	C	1.648640	-0.465452	0.180593
C46	C	1.555939	-0.397597	1.121742
C47	C	1.532969	-0.380814	1.024625
C48	C	1.602692	-0.431888	0.986351
C49	C	1.695390	-0.499749	1.045203
C50	C	1.718368	-0.516529	1.142328
C51	C	1.765120	-0.550820	1.006937
C52	C	1.857819	-0.618681	1.065788
C53	C	1.880792	-0.635458	1.162904
C54	C	1.811069	-0.584383	1.201179
C55	C	1.742142	-0.534040	0.909811
C56	C	1.904571	-0.652972	0.930397
C57	C	1.927542	-0.669755	1.027514
H58	H	1.381118	-0.652029	0.652049
F59	F	1.175391	-0.669495	0.669508
F60	F	1.643181	-0.846098	0.461985
F61	F	1.978425	-0.888224	0.707679
H62	H	1.080052	-0.398732	0.399234
H63	H	1.583715	-0.906252	0.418384
H64	H	1.279106	-0.398705	0.399197
H65	H	1.956279	-0.690707	1.210818
F66	F	1.434093	-0.961143	0.308727
H67	H	1.499043	-1.152004	0.356262
F68	F	1.835513	-1.303258	0.602565
F69	F	1.979237	-1.224121	0.708202
H70	H	1.961347	-0.694559	0.899235
H71	H	2.002749	-1.073988	0.725448
F72	F	1.643489	-0.461820	0.847188
H73	H	1.583983	-0.418219	0.907273
F74	F	1.434317	-0.308594	0.961998
H75	H	1.499185	-0.356015	1.152914
F76	F	1.835502	-0.602254	1.304544
F77	F	2.026195	-0.741976	1.090159
