data_functionalizedCrystal
_audit_creation_method	'MofGen! by Chris Wilmer'
_symmetry_space_group_name_H-M	'P1'
_symmetry_Int_Tables_number	1
_symmetry_cell_setting	triclinic
loop_
_symmetry_equiv_pos_as_xyz
  x,y,z
_cell_length_a	16.974829
_cell_length_b	10.654550
_cell_length_c	9.130313
_cell_angle_alpha	90.004369
_cell_angle_beta	86.341162
_cell_angle_gamma	96.059559
loop_
_atom_site_label
_atom_site_type_symbol
_atom_site_fract_x
_atom_site_fract_y
_atom_site_fract_z
O1	O	1.050021	-0.160104	-0.246257
O2	O	0.819927	-0.180481	-0.218987
O3	O	0.940265	0.012528	-0.233240
O4	O	0.929684	-0.353114	-0.232005
O5	O	0.940256	0.012534	0.010360
O6	O	0.819919	-0.180476	0.024613
O7	O	1.050013	-0.160099	-0.002657
Cu8	Cu	0.934965	-0.170287	0.033220
Cu9	Cu	0.934975	-0.170293	-0.254865
O10	O	0.929676	-0.353109	0.011595
C11	C	0.790460	-0.179702	-0.093696
C12	C	0.702671	-0.177372	-0.083291
C13	C	0.208506	-0.164300	-0.010469
C14	C	0.290994	-0.166489	-0.020248
C15	C	0.332243	-0.167577	-0.157927
C16	C	0.290999	-0.166489	-0.285834
C17	C	0.208513	-0.164309	-0.276053
C18	C	0.578941	-0.174104	-0.201417
C19	C	0.661434	-0.176280	-0.211188
C20	C	0.661422	-0.176283	0.054398
C21	C	0.578935	-0.174095	0.064167
C22	C	0.537698	-0.173014	-0.063740
N23	N	0.416559	-0.169810	-0.167926
N24	N	0.453383	-0.170790	-0.053740
C25	C	0.939484	0.059317	-0.111349
C26	C	0.937159	0.198724	-0.111076
C27	C	1.079480	-0.160879	-0.127952
C28	C	1.167269	-0.163208	-0.138367
N29	N	0.934964	-0.170281	0.235843
C30	C	0.930457	-0.399897	-0.110299
C31	C	0.932781	-0.539305	-0.110582
C32	C	1.008012	0.279309	-0.119473
C33	C	1.005823	0.410296	-0.119232
C34	C	0.861923	0.380100	-0.102188
C35	C	0.864112	0.249116	-0.102440
N36	N	0.934982	-0.170289	-0.457488
C37	C	0.988268	-0.084852	0.306181
C38	C	0.988275	-0.084853	0.459517
C39	C	0.881673	-0.255722	0.472163
C40	C	0.881662	-0.255715	0.318830
H41	H	0.324590	-0.167382	-0.397935
H42	H	0.174938	-0.163423	-0.380201
H43	H	0.802450	0.421145	-0.095154
H44	H	0.324566	-0.167375	0.083900
H45	H	1.063519	0.475904	-0.126073
H46	H	1.067491	0.238286	-0.126508
O47	O	0.795228	0.170954	-0.094469
C48	C	0.750939	0.193742	-0.215406
H49	H	0.769806	0.293136	-0.259704
H50	H	0.685041	0.184408	-0.179227
H51	H	0.762153	0.122110	-0.305075
O52	O	0.829870	-0.338541	0.552948
C53	C	0.780722	-0.271324	0.647474
H54	H	0.811680	-0.173032	0.666777
H55	H	0.768510	-0.323755	0.756743
H56	H	0.722236	-0.262832	0.595340
O57	O	1.040090	-0.002041	0.528001
C58	C	1.089250	-0.069265	0.610818
H59	H	1.058293	-0.167557	0.637458
H60	H	1.101480	-0.016839	0.717194
H61	H	1.147726	-0.077759	0.544772
H62	H	0.545357	-0.173182	0.176279
H63	H	0.838252	-0.325282	0.261558
O64	O	1.040067	-0.001737	0.225791
C65	C	1.087127	0.073644	0.320761
H66	H	1.054710	0.075031	0.433916
H67	H	1.098640	0.173948	0.275108
H68	H	1.146085	0.032911	0.330053
H69	H	0.174927	-0.163420	0.101644
H70	H	0.695016	-0.177176	-0.323308
O71	O	0.701462	-0.177118	0.178678
C72	C	0.689640	-0.067897	0.260895
H73	H	0.672807	0.008688	0.185205
H74	H	0.746688	-0.032844	0.314373
H75	H	0.639868	-0.091213	0.349589
O76	O	0.539019	-0.172980	-0.325807
C77	C	0.593116	-0.174428	-0.449416
H78	H	0.654967	-0.136252	-0.417802
H79	H	0.573974	-0.112845	-0.540006
H80	H	0.594151	-0.275353	-0.490395
