data_functionalizedCrystal
_audit_creation_method	'MofGen! by Chris Wilmer'
_symmetry_space_group_name_H-M	'P1'
_symmetry_Int_Tables_number	1
_symmetry_cell_setting	triclinic
loop_
_symmetry_equiv_pos_as_xyz
  x,y,z
_cell_length_a	16.959455
_cell_length_b	21.295417
_cell_length_c	16.959447
_cell_angle_alpha	89.965854
_cell_angle_beta	89.985678
_cell_angle_gamma	90.026649
loop_
_atom_site_label
_atom_site_type_symbol
_atom_site_fract_x
_atom_site_fract_y
_atom_site_fract_z
Zn1	Zn	1.208331	-0.250648	-0.446888
Zn2	Zn	1.708331	0.249352	0.053112
Zn3	Zn	1.208231	-0.355925	-0.314700
Zn4	Zn	1.708231	0.144075	0.185300
Zn5	Zn	1.076159	-0.250668	-0.314725
Zn6	Zn	1.576159	0.249332	0.185275
Zn7	Zn	1.076102	-0.355878	-0.446839
Zn8	Zn	1.576102	0.144122	0.053161
O9	O	1.142206	-0.303280	-0.380788
O10	O	1.642206	0.196720	0.119212
O11	O	1.318929	-0.264625	-0.429363
O12	O	1.818929	0.235375	0.070637
O13	O	1.190694	-0.341990	-0.204093
O14	O	1.690694	0.158010	0.295907
O15	O	1.093758	-0.162576	-0.332288
O16	O	1.593758	0.337424	0.167712
O17	O	1.318855	-0.341971	-0.332245
O18	O	1.818855	0.158029	0.167755
O19	O	1.190864	-0.162561	-0.429387
O20	O	1.690864	0.337439	0.070613
O21	O	1.093661	-0.264658	-0.204111
O22	O	1.593661	0.235342	0.295889
O23	O	0.965541	-0.264613	-0.332240
O24	O	1.465541	0.235387	0.167760
O25	O	1.093660	-0.341891	-0.557456
O26	O	1.593660	0.158109	-0.057456
O27	O	0.965499	-0.341910	-0.429304
O28	O	1.465499	0.158090	0.070696
O29	O	1.190808	-0.264579	-0.557492
O30	O	1.690808	0.235421	-0.057492
O31	O	1.190638	-0.444008	-0.332198
O32	O	1.690638	0.055992	0.167802
O33	O	1.093563	-0.443973	-0.429280
O34	O	1.593563	0.056027	0.070720
C35	C	0.936840	-0.303259	-0.380770
C36	C	1.436840	0.196741	0.119230
C37	C	0.848983	-0.303265	-0.380781
C38	C	1.348983	0.196735	0.119219
C39	C	1.142105	-0.466831	-0.380748
C40	C	1.642105	0.033169	0.119252
C41	C	1.142134	-0.536799	-0.380757
C42	C	1.642134	-0.036799	0.119243
C43	C	0.477505	-0.262998	-0.330353
C44	C	0.977505	0.237002	0.169647
C45	C	0.477510	-0.343613	-0.431269
C46	C	0.977510	0.156387	0.068731
C47	C	0.560056	-0.343604	-0.431264
C48	C	1.060056	0.156396	0.068736
C49	C	0.601330	-0.303292	-0.380802
C50	C	1.101330	0.196708	0.119198
C51	C	0.560058	-0.262989	-0.330345
C52	C	1.060058	0.237011	0.169655
C53	C	0.601333	-0.383911	-0.481714
C54	C	1.101333	0.116089	0.018286
C55	C	0.683884	-0.383904	-0.481711
C56	C	1.183884	0.116096	0.018289
C57	C	0.725160	-0.343588	-0.431252
C58	C	1.225160	0.156412	0.068748
C59	C	0.683884	-0.303283	-0.380794
C60	C	1.183884	0.196717	0.119206
C61	C	0.725158	-0.262971	-0.330332
C62	C	1.225158	0.237029	0.169668
C63	C	0.683883	-0.222662	-0.279877
C64	C	1.183883	0.277338	0.220123
C65	C	0.601334	-0.222673	-0.279886
C66	C	1.101334	0.277327	0.220114
C67	C	0.807709	-0.343577	-0.431243
C68	C	1.307709	0.156423	0.068757
C69	C	0.807711	-0.262962	-0.330324
C70	C	1.307711	0.237038	0.169676
C71	C	1.192668	-0.569601	-0.431353
C72	C	1.692668	-0.069601	0.068647
C73	C	1.192696	-0.635344	-0.431372
C74	C	1.692696	-0.135344	0.068628
C75	C	1.142198	-0.668282	-0.380782
C76	C	1.642198	-0.168282	0.119218
C77	C	1.091654	-0.635472	-0.330183
C78	C	1.591654	-0.135472	0.169817
C79	C	1.091622	-0.569731	-0.330170
C80	C	1.591622	-0.069731	0.169830
N81	N	1.136233	-0.771547	-0.311606
N82	N	1.636233	-0.271547	0.188394
N83	N	1.136268	-0.833998	-0.311620
N84	N	1.636268	-0.333998	0.188380
C85	C	1.142291	-0.866356	-0.380818
C86	C	1.642291	-0.366356	0.119182
N87	N	1.148292	-0.833904	-0.450002
N88	N	1.648292	-0.333904	0.049998
N89	N	1.148261	-0.771447	-0.449987
N90	N	1.648261	-0.271447	0.050013
C91	C	1.142227	-0.739567	-0.380790
C92	C	1.642227	-0.239567	0.119210
C93	C	1.192858	-0.970444	-0.431439
C94	C	1.692858	-0.470444	0.068561
C95	C	1.192880	-1.036188	-0.431460
C96	C	1.692880	-0.536188	0.068540
C97	C	1.091842	-1.036315	-0.330263
C98	C	1.591842	-0.536315	0.169737
C99	C	1.091816	-0.970572	-0.330249
C100	C	1.591816	-0.470572	0.169751
C101	C	1.142328	-0.937641	-0.380836
C102	C	1.642328	-0.437641	0.119164
C103	C	1.348374	-0.303301	-0.380807
C104	C	1.848374	0.196699	0.119193
C105	C	1.436231	-0.303310	-0.380815
C106	C	1.936231	0.196690	0.119185
C107	C	1.142239	-0.303228	-0.586956
C108	C	1.642239	0.196772	-0.086956
C109	C	1.142253	-0.303205	-0.674813
C110	C	1.642253	0.196795	-0.174813
C111	C	1.142328	-0.139089	-0.380845
C112	C	1.642328	0.360911	0.119155
C113	C	1.142381	-0.069121	-0.380870
C114	C	1.642381	0.430879	0.119130
C115	C	1.091767	-0.343392	-1.046273
C116	C	1.591767	0.156608	-0.546273
C117	C	1.192928	-0.262886	-1.046305
C118	C	1.692928	0.237114	-0.546305
C119	C	1.192907	-0.262900	-0.963759
C120	C	1.692907	0.237100	-0.463759
C121	C	1.142316	-0.303160	-0.922466
C122	C	1.642316	0.196840	-0.422466
C123	C	1.091746	-0.343407	-0.963719
C124	C	1.591746	0.156593	-0.463719
C125	C	1.243482	-0.222658	-0.922500
C126	C	1.743482	0.277342	-0.422500
C127	C	1.243463	-0.222670	-0.839949
C128	C	1.743463	0.277330	-0.339949
C129	C	1.192867	-0.262928	-0.798654
C130	C	1.692867	0.237072	-0.298654
C131	C	1.142295	-0.303176	-0.839912
C132	C	1.642295	0.196824	-0.339912
C133	C	1.091704	-0.343437	-0.798619
C134	C	1.591704	0.156563	-0.298619
C135	C	1.041126	-0.383682	-0.839876
C136	C	1.541126	0.116318	-0.339876
C137	C	1.041150	-0.383665	-0.922425
C138	C	1.541150	0.116335	-0.422425
C139	C	1.192844	-0.262945	-0.716106
C140	C	1.692844	0.237055	-0.216106
C141	C	1.091683	-0.343453	-0.716066
C142	C	1.591683	0.156547	-0.216066
C143	C	1.142219	-0.303286	-0.175422
C144	C	1.642219	0.196714	0.324578
C145	C	1.142358	-0.303131	-0.087566
C146	C	1.642358	0.196869	0.412434
H147	H	0.841311	-0.230131	-0.289236
H148	H	1.341311	0.269869	0.210764
C149	C	1.036219	-0.934489	-0.274594
C150	C	1.536219	-0.434489	0.225406
N151	N	0.994336	-0.907311	-0.232677
N152	N	1.494336	-0.407311	0.267323
H153	H	1.234121	-0.230111	-1.079931
H154	H	1.734121	0.269889	-0.579931
H155	H	1.234025	-0.230179	-0.682519
H156	H	1.734025	0.269821	-0.182519
H157	H	1.050537	-0.662294	-0.288994
H158	H	1.550537	-0.162294	0.211006
C159	C	1.248238	-0.533381	-0.486996
C160	C	1.748238	-0.033381	0.013004
N161	N	1.290095	-0.506098	-0.528904
N162	N	1.790095	-0.006098	-0.028904
C163	C	0.729279	-0.428242	-0.537215
C164	C	1.229279	0.071758	-0.037215
N165	N	0.763471	-0.461636	-0.579023
N166	N	1.263471	0.038364	-0.079023
H167	H	1.284646	-0.189899	-0.806365
H168	H	1.784646	0.310101	-0.306365
C169	C	0.432105	-0.387955	-0.486772
C170	C	0.932105	0.112045	0.013228
N171	N	0.397903	-0.421354	-0.528580
N172	N	0.897903	0.078646	-0.028580
C173	C	1.248478	-1.072270	-0.487118
C174	C	1.748478	-0.572270	0.012882
N175	N	1.290359	-1.099447	-0.529039
N176	N	1.790359	-0.599447	-0.029039
H177	H	0.717499	-0.189843	-0.238787
H178	H	1.217499	0.310157	0.261213
C179	C	1.248410	-0.934217	-0.487096
C180	C	1.748410	-0.434217	0.012904
N181	N	1.290251	-0.906933	-0.529019
N182	N	1.790251	-0.406933	-0.029019
C183	C	1.036283	-1.072543	-0.274624
C184	C	1.536283	-0.572543	0.225376
N185	N	0.994429	-1.099833	-0.232719
N186	N	1.494429	-0.599833	0.267281
C187	C	1.299119	-0.178367	-0.967927
C188	C	1.799119	0.321633	-0.467927
N189	N	1.341023	-0.145002	-1.002146
N190	N	1.841023	0.354998	-0.502146
C191	C	0.432102	-0.218660	-0.274855
C192	C	0.932102	0.281340	0.225145
N193	N	0.397904	-0.185264	-0.233054
N194	N	0.897904	0.314736	0.266946
H195	H	0.567721	-0.189857	-0.238807
H196	H	1.067721	0.310143	0.261193
H197	H	0.567722	-0.416735	-0.522792
H198	H	1.067722	0.083265	-0.022792
H199	H	1.050471	-0.543023	-0.288969
H200	H	1.550471	-0.043023	0.211031
H201	H	1.050586	-0.376157	-1.079867
H202	H	1.550586	0.123843	-0.579867
C203	C	0.853107	-0.387914	-0.486740
C204	C	1.353107	0.112086	0.013260
N205	N	0.887301	-0.421309	-0.528545
N206	N	1.387301	0.078691	-0.028545
H207	H	1.233841	-0.662056	-0.472583
H208	H	1.733841	-0.162056	0.027417
C209	C	1.036026	-0.387742	-0.670650
C210	C	1.536026	0.112258	-0.170650
N211	N	0.994105	-0.421102	-0.636444
N212	N	1.494105	0.078898	-0.136444
C213	C	0.985478	-0.427968	-0.794443
C214	C	1.485478	0.072032	-0.294443
N215	N	0.943564	-0.461322	-0.760220
N216	N	1.443564	0.038678	-0.260220
H217	H	0.999975	-0.416433	-0.956023
H218	H	1.499975	0.083567	-0.456023
