data_functionalizedCrystal
_audit_creation_method	'MofGen! by Chris Wilmer'
_symmetry_space_group_name_H-M	'P1'
_symmetry_Int_Tables_number	1
_symmetry_cell_setting	triclinic
loop_
_symmetry_equiv_pos_as_xyz
  x,y,z
_cell_length_a	18.215407
_cell_length_b	18.101395
_cell_length_c	18.215399
_cell_angle_alpha	89.973573
_cell_angle_beta	89.980167
_cell_angle_gamma	90.031552
loop_
_atom_site_label
_atom_site_type_symbol
_atom_site_fract_x
_atom_site_fract_y
_atom_site_fract_z
Zn1	Zn	1.125040	-0.294828	-0.416124
Zn2	Zn	1.124935	-0.418675	-0.293061
Zn3	Zn	1.001973	-0.294853	-0.293071
Zn4	Zn	1.001925	-0.418634	-0.416086
O5	O	1.063468	-0.356747	-0.354585
O6	O	1.228010	-0.311264	-0.399811
O7	O	1.108600	-0.402277	-0.190078
O8	O	1.018362	-0.191216	-0.309415
O9	O	1.227933	-0.402253	-0.309397
O10	O	1.108779	-0.191199	-0.399821
O11	O	1.018260	-0.311305	-0.190085
O12	O	0.898982	-0.311265	-0.309378
O13	O	1.018281	-0.402183	-0.519075
O14	O	0.898947	-0.402207	-0.399756
O15	O	1.108733	-0.311224	-0.519103
O16	O	1.108554	-0.522302	-0.309360
O17	O	1.018179	-0.522272	-0.399746
C18	C	0.872262	-0.356735	-0.354564
C19	C	0.790463	-0.356747	-0.354572
C20	C	0.602270	-0.404175	-0.401573
C21	C	0.525412	-0.404177	-0.401583
C22	C	0.525418	-0.309333	-0.307613
C23	C	0.602276	-0.309328	-0.307608
C24	C	0.640700	-0.356753	-0.354587
C25	C	0.486984	-0.356761	-0.354601
C26	C	0.403650	-0.356763	-0.354611
C27	C	0.724039	-0.356750	-0.354579
C28	C	1.063370	-0.549158	-0.354564
C29	C	1.063395	-0.631472	-0.354579
C30	C	1.063557	-0.930563	-0.354619
C31	C	1.006827	-0.899249	-0.411628
C32	C	1.006557	-0.813632	-0.411450
C33	C	1.063476	-0.782180	-0.354600
C34	C	1.042479	-0.813331	-0.277038
C35	C	1.042113	-0.898976	-0.277380
C36	C	1.141408	-0.898906	-0.374487
C37	C	1.140950	-0.813255	-0.376188
C38	C	1.063432	-0.698321	-0.354584
C39	C	1.063599	-1.014422	-0.354629
C40	C	1.255421	-0.356761	-0.354607
C41	C	1.337220	-0.356766	-0.354616
C42	C	1.063513	-0.356696	-0.546538
C43	C	1.063532	-0.356675	-0.628337
C44	C	1.063587	-0.163585	-0.354623
C45	C	1.063638	-0.081271	-0.354639
C46	C	1.110648	-0.309268	-0.816547
C47	C	1.110656	-0.309246	-0.893406
C48	C	1.016469	-0.403967	-0.893365
C49	C	1.016457	-0.403984	-0.816508
C50	C	1.063551	-0.356636	-0.778101
C51	C	1.063571	-0.356597	-0.931817
C52	C	1.063580	-0.356574	-1.015151
C53	C	1.063541	-0.356657	-0.694762
C54	C	1.063466	-0.356745	-0.163379
C55	C	1.063590	-0.356558	-0.081580
H56	H	0.494126	-0.442792	-0.439845
C57	C	0.720098	-0.267206	-0.265880
C58	C	0.644524	-0.257198	-0.255957
H59	H	0.746179	-0.235019	-0.233998
H60	H	0.732660	-0.316943	-0.255022
H61	H	0.732708	-0.256429	-0.315347
H62	H	0.631913	-0.267980	-0.206491
H63	H	0.631957	-0.207448	-0.266810
C64	C	0.974616	-0.446064	-0.698671
C65	C	0.964684	-0.456054	-0.774241
H66	H	0.942649	-0.478204	-0.672578
H67	H	1.024048	-0.456910	-0.686087
H68	H	0.963873	-0.396305	-0.686095
H69	H	0.975432	-0.505812	-0.786817
H70	H	0.915240	-0.445214	-0.786830
H71	H	0.978129	-0.442518	-0.924646
H72	H	1.149006	-0.270673	-0.924705
C73	C	1.035232	-0.845302	-0.536184
C74	C	1.024275	-0.785191	-0.489090
H75	H	1.046160	-0.827745	-0.584120
H76	H	1.074985	-0.874322	-0.518698
H77	H	0.991975	-0.874598	-0.537683
H78	H	1.067534	-0.755897	-0.487587
H79	H	0.984519	-0.756159	-0.506580
H80	H	1.019834	-0.919798	-0.469325
H81	H	0.633553	-0.442789	-0.439829
C82	C	0.902614	-0.743099	-0.452061
C83	C	0.928658	-0.786057	-0.393679
H84	H	0.854519	-0.726082	-0.441088
H85	H	0.934236	-0.701977	-0.459200
H86	H	0.901415	-0.772112	-0.495488
H87	H	0.929862	-0.757044	-0.350253
H88	H	0.897028	-0.827186	-0.386531
C89	C	1.253331	-0.744853	-0.364696
C90	C	1.201033	-0.784356	-0.324221
H91	H	1.290420	-0.727011	-0.332607
H92	H	1.274775	-0.776397	-0.400407
H93	H	1.230266	-0.704352	-0.388515
H94	H	1.224098	-0.824861	-0.300407
H95	H	1.179588	-0.752810	-0.288497
C96	C	0.407604	-0.267229	-0.265896
C97	C	0.483180	-0.257209	-0.255972
H98	H	0.381530	-0.235051	-0.234010
H99	H	0.395038	-0.256454	-0.315356
H100	H	0.394987	-0.316976	-0.255038
H101	H	0.495797	-0.207463	-0.266836
H102	H	0.495751	-0.267978	-0.206501
H103	H	0.949472	-0.920836	-0.398633
H104	H	1.148992	-0.270712	-0.785278
H105	H	1.081640	-0.919692	-0.233455
C106	C	0.920023	-0.865104	-0.240879
C107	C	0.965287	-0.926039	-0.254666
H108	H	0.872591	-0.881811	-0.226862
H109	H	0.940510	-0.836324	-0.202403
H110	H	0.916260	-0.835857	-0.284027
H111	H	0.969054	-0.955283	-0.211516
H112	H	0.944795	-0.954831	-0.293145
H113	H	1.082498	-0.792959	-0.233404
H114	H	0.986172	-0.791946	-0.259906
H115	H	1.156785	-0.792893	-0.433269
C116	C	1.113535	-0.974761	-0.478926
C117	C	1.167252	-0.927987	-0.449540
H118	H	1.129484	-0.992710	-0.525264
H119	H	1.105678	-1.015169	-0.446576
H120	H	1.069016	-0.948119	-0.484879
H121	H	1.211771	-0.954631	-0.443582
H122	H	1.175119	-0.887573	-0.481898
C123	C	1.201028	-1.003546	-0.319686
C124	C	1.198474	-0.926245	-0.318446
H125	H	1.236257	-1.020425	-0.285091
H126	H	1.154106	-1.022845	-0.307393
H127	H	1.214464	-1.019790	-0.367415
H128	H	1.185031	-0.910001	-0.270718
H129	H	1.245406	-0.906939	-0.330734
