data_functionalizedCrystal
_audit_creation_method	'MofGen! by Chris Wilmer'
_symmetry_space_group_name_H-M	'P1'
_symmetry_Int_Tables_number	1
_symmetry_cell_setting	triclinic
loop_
_symmetry_equiv_pos_as_xyz
  x,y,z
_cell_length_a	10.967819
_cell_length_b	11.026607
_cell_length_c	7.088929
_cell_angle_alpha	82.408099
_cell_angle_beta	84.222558
_cell_angle_gamma	96.381100
loop_
_atom_site_label
_atom_site_type_symbol
_atom_site_fract_x
_atom_site_fract_y
_atom_site_fract_z
O1	O	1.649730	0.225306	-0.702524
O2	O	1.297412	0.232575	-0.586448
O3	O	1.444372	0.051288	-0.634859
O4	O	1.502771	0.406592	-0.654113
O5	O	1.463999	0.027004	-0.323349
O6	O	1.317040	0.208291	-0.274938
O7	O	1.669358	0.201022	-0.391014
Cu8	Cu	1.494991	0.202439	-0.304533
Cu9	Cu	1.471779	0.231158	-0.672929
O10	O	1.522398	0.382309	-0.342603
C11	C	1.261421	0.218068	-0.415602
C12	C	1.124932	0.211007	-0.370634
C13	C	0.912851	0.213156	-0.465517
C14	C	1.053920	0.220444	-0.511982
C15	C	1.443412	-0.006433	-0.475557
C16	C	1.411295	-0.142244	-0.464982
C17	C	1.499974	-0.213017	-0.494201
C18	C	1.466782	-0.353386	-0.483273
C19	C	1.705349	0.215529	-0.561864
C20	C	1.841837	0.222592	-0.606845
C21	C	1.523358	0.440030	-0.501910
C22	C	1.555474	0.575843	-0.512497
N23	N	1.511325	0.182240	-0.045426
N24	N	1.455452	0.251348	-0.932039
H25	H	0.869213	0.199688	-0.310122
O26	O	1.067145	0.193164	-0.164778
H27	H	1.140626	0.187371	-0.068324
H28	H	1.397545	0.322963	0.005391
O29	O	1.333652	-0.410755	-0.439399
H30	H	1.328474	-0.512004	-0.437680
O31	O	1.688607	-0.366797	-0.556364
H32	H	1.715478	-0.319070	-0.435607
O33	O	1.278172	-0.199619	-0.421111
H34	H	1.272993	-0.300868	-0.419391
O35	O	1.588043	0.087370	0.037440
H36	H	1.586693	0.089042	0.193842
H37	H	0.885477	0.236073	-0.762240
O38	O	1.111698	0.238277	-0.717842
H39	H	1.213429	0.241188	-0.722034
H40	H	1.600470	-0.169691	-0.527299
