data_functionalizedCrystal
_audit_creation_method	'MofGen! by Chris Wilmer'
_symmetry_space_group_name_H-M	'P1'
_symmetry_Int_Tables_number	1
_symmetry_cell_setting	triclinic
loop_
_symmetry_equiv_pos_as_xyz
  x,y,z
_cell_length_a	6.817900
_cell_length_b	11.102183
_cell_length_c	10.943624
_cell_angle_alpha	91.861827
_cell_angle_beta	108.838799
_cell_angle_gamma	108.603876
loop_
_atom_site_label
_atom_site_type_symbol
_atom_site_fract_x
_atom_site_fract_y
_atom_site_fract_z
V1	V	-4.114272	-0.175805	-0.402549
O2	O	-4.073263	0.008482	-0.394888
O3	O	-4.091019	-0.348625	-0.399794
O4	O	-4.092253	-0.173086	-0.578115
O5	O	-4.072021	-0.168272	-0.215332
V6	V	-4.591222	-0.153764	-0.380157
O7	O	-4.389946	-0.224154	-0.451668
O8	O	-4.765745	-0.105415	-0.331037
O9	O	-4.391268	0.019056	-0.382912
O10	O	-4.749628	-0.338052	-0.387817
O11	O	-4.750870	-0.161297	-0.567373
O12	O	-4.390034	-0.156483	-0.204590
C13	C	-3.941284	-0.390755	-0.393443
C14	C	-4.003735	-0.532038	-0.392360
C15	C	-3.881762	-0.495780	-0.155883
C16	C	-3.850113	-0.544025	-0.037141
C17	C	-3.908799	-0.676773	-0.036131
C18	C	-3.999149	-0.761281	-0.153876
C19	C	-4.030799	-0.713036	-0.272618
C20	C	-3.972098	-0.580283	-0.273615
C21	C	-4.152784	-0.749294	-0.509093
C22	C	-4.094085	-0.616546	-0.510105
C23	C	-4.243134	-0.833803	-0.626838
C24	C	-4.274771	-0.785557	-0.745582
C25	C	-4.216076	-0.652800	-0.746588
C26	C	-4.125735	-0.568301	-0.628847
C27	C	-3.942856	-0.166836	-0.620908
C28	C	-4.006304	-0.165756	-0.764435
C29	C	-3.851184	-0.158485	-0.841582
C30	C	-4.039791	-0.266416	-0.947571
C31	C	-3.930775	-0.055914	-0.914187
C32	C	-4.194121	-0.273788	-0.868547
C33	C	-4.085025	-0.063191	-0.835139
C34	C	-4.273769	-0.171152	-0.941098
C35	C	-4.204346	0.061179	-0.389259
C36	C	-4.121135	0.202461	-0.390350
C37	C	-4.202773	-0.162737	-0.161790
C38	C	-4.118563	-0.163811	-0.018263
H39	H	-4.046954	-0.869371	-0.153044
C40	C	-3.873986	-0.729846	0.094481
H41	H	-3.811763	-0.660509	0.164462
H42	H	-4.012087	-0.785019	0.095672
H43	H	-3.776584	-0.776737	0.103897
C44	C	-4.307683	-0.979822	-0.625728
H45	H	-4.275874	-0.996453	-0.538147
H46	H	-4.461228	-1.020691	-0.673283
H47	H	-4.225721	-1.012402	-0.665056
C48	C	-4.374149	-0.878508	-0.875087
H49	H	-4.384599	-0.830766	-0.945952
H50	H	-4.281850	-0.926920	-0.875493
H51	H	-4.517342	-0.935174	-0.883722
C52	C	-4.014861	-0.382470	-1.013712
H53	H	-3.865212	-0.377860	-0.979456
H54	H	-4.106995	-0.459768	-0.997285
H55	H	-4.056949	-0.381358	-1.105204
H56	H	-3.672020	-0.153273	-0.798134
H57	H	-3.820067	0.036144	-0.934950
C58	C	-3.817185	-0.349761	-0.156995
H59	H	-3.848958	-0.333131	-0.244576
H60	H	-3.899107	-0.317159	-0.117663
H61	H	-3.663621	-0.308908	-0.109445
H62	H	-3.776550	-0.475205	0.058724
H63	H	-4.241881	-0.613530	-0.843283
H64	H	-4.077906	-0.460207	-0.629653
H65	H	-4.304862	-0.365969	-0.848001
H66	H	-4.453046	-0.176534	-0.984343
H67	H	-4.103401	0.022729	-0.786157
