data_functionalizedCrystal
_audit_creation_method	'MofGen! by Chris Wilmer'
_symmetry_space_group_name_H-M	'P1'
_symmetry_Int_Tables_number	1
_symmetry_cell_setting	triclinic
loop_
_symmetry_equiv_pos_as_xyz
  x,y,z
_cell_length_a	6.817900
_cell_length_b	11.452831
_cell_length_c	10.773894
_cell_angle_alpha	83.899974
_cell_angle_beta	96.645922
_cell_angle_gamma	108.696887
loop_
_atom_site_label
_atom_site_type_symbol
_atom_site_fract_x
_atom_site_fract_y
_atom_site_fract_z
V1	V	-3.967650	-0.164839	-0.353163
O2	O	-3.936515	0.012549	-0.384264
O3	O	-3.938588	-0.331299	-0.314370
O4	O	-3.884792	-0.160273	-0.523786
O5	O	-3.990683	-0.159661	-0.173398
V6	V	-4.453237	-0.143861	-0.336081
O7	O	-4.224380	-0.210855	-0.390634
O8	O	-4.646703	-0.097845	-0.298610
O9	O	-4.259092	0.022599	-0.374874
O10	O	-4.601768	-0.321249	-0.304980
O11	O	-4.547600	-0.149039	-0.515846
O12	O	-4.312888	-0.148428	-0.165458
C13	C	-3.789408	-0.371942	-0.299412
C14	C	-3.846704	-0.508012	-0.268831
C15	C	-3.949740	-0.724671	-0.328823
C16	C	-3.890521	-0.584036	-0.360437
C17	C	-3.720785	-0.153779	-0.566542
C18	C	-3.734452	-0.151147	-0.705788
C19	C	-3.913056	-0.155709	-0.772660
C20	C	-3.927185	-0.152989	-0.916579
C21	C	-4.071615	0.063235	-0.389827
C22	C	-3.993556	0.199304	-0.420416
C23	C	-4.140238	-0.154925	-0.122695
C24	C	-4.105810	-0.157551	0.016552
H25	H	-3.956059	-0.763698	-0.227003
H26	H	-4.055502	-0.161620	-0.723366
O27	O	-3.882975	-0.537293	-0.481854
C28	C	-3.825497	-0.407282	-0.486389
H29	H	-3.864721	-0.378187	-0.396794
H30	H	-3.651322	-0.366334	-0.495451
C31	C	-3.896833	-0.395617	-0.710172
C32	C	-3.945025	-0.359883	-0.600135
H33	H	-3.970554	-0.366377	-0.780339
H34	H	-3.935549	-0.483207	-0.707118
H35	H	-3.751685	-0.361490	-0.717706
H36	H	-4.090164	-0.394022	-0.592595
H37	H	-3.906335	-0.272297	-0.603190
H38	H	-3.784718	-0.147061	-0.965869
O39	O	-3.854649	-0.554614	-0.147376
C40	C	-4.057165	-0.633490	-0.128881
H41	H	-4.172363	-0.608141	-0.203614
H42	H	-4.064138	-0.733387	-0.135911
C43	C	-3.971860	-0.650078	0.093558
C44	C	-4.113350	-0.618938	0.001775
H45	H	-4.006517	-0.641107	0.174154
H46	H	-3.835419	-0.596941	0.081098
H47	H	-3.977685	-0.733324	0.087683
H48	H	-4.107505	-0.535689	0.007641
H49	H	-4.249792	-0.672060	0.014239
H50	H	-4.248277	-0.163475	-0.934160
H51	H	-3.591998	-0.145220	-0.755084
H52	H	-3.987217	-0.761668	-0.522235
