data_functionalizedCrystal
_audit_creation_method	'MofGen! by Chris Wilmer'
_symmetry_space_group_name_H-M	'P1'
_symmetry_Int_Tables_number	1
_symmetry_cell_setting	triclinic
loop_
_symmetry_equiv_pos_as_xyz
  x,y,z
_cell_length_a	19.188925
_cell_length_b	19.188930
_cell_length_c	9.016244
_cell_angle_alpha	89.992636
_cell_angle_beta	89.991721
_cell_angle_gamma	83.143665
loop_
_atom_site_label
_atom_site_type_symbol
_atom_site_fract_x
_atom_site_fract_y
_atom_site_fract_z
O1	O	0.926150	0.087147	-0.123389
O2	O	1.259484	0.420480	0.209945
O3	O	1.592817	0.753813	0.543278
O4	O	0.722839	0.098885	-0.123387
O5	O	1.056172	0.432218	0.209946
O6	O	1.389505	0.765551	0.543280
O7	O	0.830362	-0.008640	-0.123359
O8	O	1.163695	0.324693	0.209974
O9	O	1.497028	0.658027	0.543308
O10	O	0.818627	0.194671	-0.123417
O11	O	1.151961	0.528005	0.209917
O12	O	1.485294	0.861338	0.543250
O13	O	0.830346	-0.008638	0.123322
O14	O	1.163679	0.324696	0.456655
O15	O	1.497013	0.658029	0.789988
O16	O	0.722823	0.098887	0.123294
O17	O	1.056156	0.432221	0.456627
O18	O	1.389490	0.765554	0.789960
O19	O	0.926135	0.087149	0.123292
O20	O	1.259468	0.420482	0.456625
O21	O	1.592801	0.753816	0.789959
Cu22	Cu	0.824477	0.093018	0.145817
Cu23	Cu	1.157811	0.426352	0.479150
Cu24	Cu	1.491144	0.759685	0.812483
Cu25	Cu	0.824496	0.093015	-0.145912
Cu26	Cu	1.157829	0.426349	0.187422
Cu27	Cu	1.491163	0.759682	0.520755
O28	O	0.818612	0.194674	0.123264
O29	O	1.151945	0.528007	0.456597
O30	O	1.485278	0.861341	0.789931
C31	C	0.696820	0.098507	-0.000046
C32	C	1.030153	0.431840	0.333287
C33	C	1.363486	0.765173	0.666621
C34	C	0.619315	0.097367	-0.000044
C35	C	0.952648	0.430701	0.333289
C36	C	1.285982	0.764034	0.666623
C37	C	0.057545	0.152831	-0.000063
C38	C	0.390878	0.486165	0.333270
C39	C	0.724211	0.819498	0.666603
C40	C	0.130368	0.153908	-0.000072
C41	C	0.463701	0.487241	0.333262
C42	C	0.797035	0.820575	0.666595
C43	C	0.175302	0.090816	-0.000051
C44	C	0.508636	0.424149	0.333282
C45	C	0.841969	0.757482	0.666616
C46	C	0.147408	0.026642	-0.000060
C47	C	0.480742	0.359976	0.333273
C48	C	0.814075	0.693309	0.666607
C49	C	0.074586	0.025568	-0.000067
C50	C	0.407920	0.358901	0.333267
C51	C	0.741253	0.692234	0.666600
N52	N	0.295974	0.045140	0.083934
N53	N	0.629308	0.378474	0.417267
N54	N	0.962641	0.711807	0.750601
N55	N	0.365152	0.046166	0.083943
N56	N	0.698485	0.379499	0.417277
N57	N	1.031818	0.712832	0.750610
C58	C	0.394712	0.094050	-0.000034
C59	C	0.728045	0.427383	0.333299
C60	C	1.061378	0.760716	0.666632
N61	N	0.352480	0.140881	-0.084003
N62	N	0.685813	0.474214	0.249330
N63	N	1.019146	0.807547	0.582663
N64	N	0.283296	0.139857	-0.084006
N65	N	0.616629	0.473191	0.249327
N66	N	0.949962	0.806524	0.582661
C67	C	0.254267	0.091974	-0.000045
C68	C	0.587600	0.425307	0.333289
C69	C	0.920933	0.758641	0.666622
C70	C	0.501561	0.159386	-0.000045
C71	C	0.834894	0.492720	0.333289
C72	C	1.168227	0.826053	0.666622
C73	C	0.574385	0.160460	-0.000062
C74	C	0.907719	0.493794	0.333271
C75	C	1.241052	0.827127	0.666605
C76	C	0.591425	0.033193	-0.000036
C77	C	0.924758	0.366526	0.333298
C78	C	1.258091	0.699859	0.666631
C79	C	0.518601	0.032121	-0.000033
C80	C	0.851934	0.365454	0.333300
C81	C	1.185268	0.698787	0.666633
C82	C	0.473673	0.095220	-0.000031
C83	C	0.807006	0.428553	0.333303
C84	C	1.140340	0.761886	0.666636
C85	C	0.829974	-0.034650	-0.000014
C86	C	1.163307	0.298683	0.333319
C87	C	1.496640	0.632017	0.666652
C88	C	0.828833	-0.112154	-0.000002
C89	C	1.162166	0.221179	0.333332
C90	C	1.495500	0.554512	0.666665
C91	C	0.891924	-0.157079	0.000005
C92	C	1.225257	0.176254	0.333338
C93	C	1.558591	0.509587	0.666672
C94	C	0.890852	-0.229903	-0.000019
C95	C	1.224186	0.103430	0.333315
C96	C	1.557519	0.436763	0.666648
C97	C	0.826686	-0.257799	-0.000019
C98	C	1.160020	0.075535	0.333314
C99	C	1.493353	0.408868	0.666647
C100	C	0.763587	-0.212864	-0.000034
C101	C	1.096920	0.120470	0.333299
C102	C	1.430254	0.453803	0.666632
C103	C	0.764660	-0.140041	-0.000025
C104	C	1.097994	0.193292	0.333308
C105	C	1.431327	0.526625	0.666641
N106	N	0.777633	-0.365802	0.083931
N107	N	1.110967	-0.032468	0.417265
N108	N	1.444300	0.300865	0.750598
N109	N	0.776618	-0.434980	0.083926
N110	N	1.109951	-0.101647	0.417259
N111	N	1.443285	0.231686	0.750593
C112	C	0.823448	-0.477207	-0.000049
C113	C	1.156781	-0.143874	0.333284
C114	C	1.490115	0.189459	0.666617
N115	N	0.871343	-0.447643	-0.084001
N116	N	1.204676	-0.114310	0.249333
N117	N	1.538009	0.219023	0.582666
N118	N	0.872360	-0.378459	-0.083989
N119	N	1.205693	-0.045125	0.249345
N120	N	1.539027	0.288208	0.582678
C121	C	0.825515	-0.336761	-0.000030
C122	C	1.158848	-0.003428	0.333303
C123	C	1.492182	0.329906	0.666637
C124	C	0.885381	-0.601097	-0.000071
C125	C	1.218715	-0.267763	0.333263
C126	C	1.552048	0.065570	0.666596
C127	C	0.884307	-0.673922	-0.000104
C128	C	1.217640	-0.340588	0.333230
C129	C	1.550974	-0.007255	0.666563
C130	C	0.757040	-0.656880	-0.000104
C131	C	1.090373	-0.323547	0.333229
C132	C	1.423706	0.009786	0.666563
C133	C	0.758116	-0.584057	-0.000086
C134	C	1.091449	-0.250724	0.333247
C135	C	1.424782	0.082610	0.666581
C136	C	0.822289	-0.556170	-0.000062
C137	C	1.155622	-0.222837	0.333271
C138	C	1.488955	0.110497	0.666604
C139	C	0.952154	0.087527	-0.000052
C140	C	1.285487	0.420861	0.333281
C141	C	1.618820	0.754194	0.666614
C142	C	1.029658	0.088666	-0.000064
C143	C	1.362992	0.422000	0.333269
C144	C	1.696325	0.755333	0.666603
C145	C	0.819000	0.220684	-0.000084
C146	C	1.152333	0.554017	0.333249
C147	C	1.485666	0.887350	0.666583
C148	C	0.820140	0.298188	-0.000106
C149	C	1.153474	0.631522	0.333227
C150	C	1.486807	0.964855	0.666560
N151	N	0.824469	0.093020	0.351003
N152	N	1.157803	0.426353	0.684336
N153	N	1.491136	0.759687	1.017670
N154	N	0.824509	0.093008	-0.351098
N155	N	1.157843	0.426342	-0.017765
N156	N	1.491176	0.759675	0.315569
C157	C	0.766780	0.150350	0.586021
C158	C	1.100113	0.483684	0.919354
C159	C	1.433446	0.817017	1.252687
C160	C	0.766903	0.150561	0.414129
C161	C	1.100237	0.483894	0.747463
C162	C	1.433570	0.817228	1.080796
C163	C	0.897274	0.108709	0.413335
C164	C	1.230608	0.442042	0.746668
C165	C	1.563941	0.775376	1.080002
C166	C	0.896958	0.109114	0.585280
C167	C	1.230292	0.442447	0.918613
C168	C	1.563625	0.775781	1.251946
C169	C	0.810082	0.019807	0.585568
C170	C	1.143415	0.353140	0.918901
C171	C	1.476748	0.686473	1.252234
C172	C	0.808401	0.020302	0.413613
C173	C	1.141734	0.353636	0.746947
C174	C	1.475068	0.686969	1.080280
H175	H	0.464978	0.210765	-0.000045
H176	H	0.798311	0.544098	0.333288
H177	H	1.131645	0.877432	0.666621
F178	F	0.960223	-0.127404	-0.000002
F179	F	1.293556	0.205929	0.333332
F180	F	1.626889	0.539262	0.666665
H181	H	0.754846	0.008391	0.372876
H182	H	1.088180	0.341724	0.706210
H183	H	1.421513	0.675057	1.039543
H184	H	0.712484	0.141191	0.627418
H185	H	1.045817	0.474524	0.960751
H186	H	1.379150	0.807857	1.294085
F187	F	0.742207	0.000025	0.642321
F188	F	1.075540	0.333358	0.975655
F189	F	1.408873	0.666691	1.308988
H190	H	0.020968	0.204211	-0.000068
H191	H	0.354302	0.537545	0.333265
H192	H	0.687635	0.870878	0.666598
H193	H	0.909706	0.162493	0.625353
H194	H	1.243039	0.495826	0.958687
H195	H	1.576372	0.829159	1.292020
H196	H	0.183999	-0.024728	-0.000048
H197	H	0.517332	0.308606	0.333286
H198	H	0.850665	0.641939	0.666619
F199	F	0.954729	0.056531	0.639650
F200	F	1.288062	0.389865	0.972983
F201	F	1.621395	0.723198	1.306317
F202	F	0.859812	-0.038062	0.357472
F203	F	1.193146	0.295271	0.690806
F204	F	1.526479	0.628605	1.024139
H205	H	0.597088	0.212713	-0.000074
H206	H	0.930421	0.546046	0.333260
H207	H	1.263755	0.879380	0.666593
F208	F	0.690965	-0.536242	-0.000087
F209	F	1.024298	-0.202909	0.333246
F210	F	1.357631	0.130424	0.666580
H211	H	0.942230	-0.266488	-0.000019
H212	H	1.275564	0.066845	0.333314
H213	H	1.608897	0.400178	0.666647
H214	H	0.711342	-0.235581	-0.000038
H215	H	1.044676	0.097753	0.333295
H216	H	1.378009	0.431086	0.666629
F217	F	0.865111	-0.035966	0.638717
F218	F	1.198444	0.297367	0.972051
F219	F	1.531778	0.630701	1.305384
H220	H	0.713282	-0.103462	-0.000030
H221	H	1.046616	0.229871	0.333303
H222	H	1.379949	0.563204	0.666637
F223	F	0.953679	-0.571415	-0.000038
F224	F	1.287012	-0.238081	0.333295
F225	F	1.620345	0.095252	0.666628
F226	F	0.160054	0.222204	-0.000068
F227	F	0.493387	0.555537	0.333265
F228	F	0.826720	0.888870	0.666598
H229	H	0.712779	0.141246	0.371989
H230	H	1.046112	0.474579	0.705323
H231	H	1.379446	0.807913	1.038656
F232	F	0.044907	-0.042728	-0.000072
F233	F	0.378241	0.290605	0.333262
F234	F	0.711574	0.623938	0.666595
H235	H	0.935686	-0.710500	-0.000106
H236	H	1.269019	-0.377166	0.333227
H237	H	1.602352	-0.043833	0.666560
H238	H	0.628010	-0.018178	-0.000030
H239	H	0.961343	0.315155	0.333303
H240	H	1.294676	0.648489	0.666636
F241	F	0.778630	0.220962	0.642431
F242	F	1.111963	0.554296	0.975764
F243	F	1.445296	0.887629	1.309098
H244	H	0.941246	0.068047	0.372441
H245	H	1.274579	0.401380	0.705775
H246	H	1.607912	0.734714	1.039108
H247	H	0.910328	0.161479	0.370242
H248	H	1.243661	0.494813	0.703575
H249	H	1.576995	0.828146	1.036908
F250	F	0.688749	-0.686564	-0.000112
F251	F	1.022082	-0.353230	0.333221
F252	F	1.355415	-0.019897	0.666555
F253	F	0.488921	-0.036173	-0.000038
F254	F	0.822255	0.297160	0.333296
F255	F	1.155588	0.630493	0.666629
H256	H	0.776089	0.204888	0.372967
H257	H	1.109423	0.538222	0.706300
H258	H	1.442756	0.871555	1.039634
