data_functionalizedCrystal
_audit_creation_method	'MofGen! by Chris Wilmer'
_symmetry_space_group_name_H-M	'P1'
_symmetry_Int_Tables_number	1
_symmetry_cell_setting	triclinic
loop_
_symmetry_equiv_pos_as_xyz
  x,y,z
_cell_length_a	16.625546
_cell_length_b	12.827893
_cell_length_c	12.827885
_cell_angle_alpha	90.021189
_cell_angle_beta	89.964876
_cell_angle_gamma	89.979513
loop_
_atom_site_label
_atom_site_type_symbol
_atom_site_fract_x
_atom_site_fract_y
_atom_site_fract_z
Zn1	Zn	-0.321005	-1.597618	-0.590863
Zn2	Zn	0.178995	-1.097618	-0.090863
Zn3	Zn	-0.455859	-1.597491	-0.416107
Zn4	Zn	0.044141	-1.097491	0.083893
Zn5	Zn	-0.321040	-1.422860	-0.416131
Zn6	Zn	0.178960	-0.922860	0.083869
Zn7	Zn	-0.455795	-1.422823	-0.590801
Zn8	Zn	0.044205	-0.922823	-0.090801
O9	O	-0.388425	-1.510198	-0.503476
O10	O	0.111575	-1.010198	-0.003476
O11	O	-0.338906	-1.743837	-0.567697
O12	O	0.161094	-1.243837	-0.067697
O13	O	-0.438017	-1.574287	-0.269874
O14	O	0.061983	-1.074287	0.230126
O15	O	-0.208203	-1.446110	-0.439346
O16	O	0.291797	-0.946110	0.060654
O17	O	-0.437983	-1.743744	-0.439305
O18	O	0.062017	-1.243744	0.060695
O19	O	-0.208177	-1.574505	-0.567721
O20	O	0.291823	-1.074505	-0.067721
O21	O	-0.338965	-1.445987	-0.269892
O22	O	0.161035	-0.945987	0.230108
O23	O	-0.338903	-1.276619	-0.439286
O24	O	0.161097	-0.776619	0.060714
O25	O	-0.437873	-1.446048	-0.737046
O26	O	0.062127	-0.946048	-0.237046
O27	O	-0.437907	-1.276592	-0.567615
O28	O	0.062093	-0.776592	-0.067615
O29	O	-0.338844	-1.574469	-0.737091
O30	O	0.161156	-1.074469	-0.237091
O31	O	-0.568683	-1.574252	-0.439245
O32	O	-0.068683	-1.074252	0.060755
O33	O	-0.568636	-1.445925	-0.567592
O34	O	-0.068636	-0.945925	-0.067592
C35	C	-0.388402	-1.238688	-0.503447
C36	C	0.111598	-0.738688	-0.003447
C37	C	-0.388412	-1.122535	-0.503459
C38	C	0.111588	-0.622535	-0.003459
C39	C	-0.339366	-0.950692	-0.440083
C40	C	0.160634	-0.450692	0.059917
C41	C	-0.339355	-1.070742	-0.440069
C42	C	0.160645	-0.570742	0.059931
C43	C	-0.597916	-1.510099	-0.503432
C44	C	-0.097916	-1.010099	-0.003432
C45	C	-0.687537	-1.510152	-0.503448
C46	C	-0.187537	-1.010152	-0.003448
C47	C	-1.015712	-1.510335	-0.503557
C48	C	-0.515712	-1.010335	-0.003557
C49	C	-0.924404	-1.510281	-0.503530
C50	C	-0.424404	-1.010281	-0.003530
C51	C	-0.851627	-1.510243	-0.503502
C52	C	-0.351627	-1.010243	-0.003502
C53	C	-0.760313	-1.510190	-0.503476
C54	C	-0.260313	-1.010190	-0.003476
C55	C	-0.178116	-1.510326	-0.503543
C56	C	0.321884	-1.010326	-0.003543
C57	C	-0.088495	-1.510380	-0.503571
C58	C	0.411505	-1.010380	-0.003571
C59	C	-0.388347	-1.510269	-0.776046
C60	C	0.111653	-1.010269	-0.276046
C61	C	-0.388314	-1.510299	-0.892199
C62	C	0.111686	-1.010299	-0.392199
C63	C	-0.388442	-0.782768	-0.503497
C64	C	0.111558	-0.282768	-0.003497
C65	C	-0.388432	-0.898921	-0.503485
C66	C	0.111568	-0.398921	-0.003485
C67	C	-0.339302	-1.573853	-0.944007
C68	C	0.160698	-1.073853	-0.444007
C69	C	-0.339267	-1.573886	-1.064057
C70	C	0.160733	-1.073886	-0.564057
C71	C	-0.388444	-1.510187	-0.231966
C72	C	0.111556	-1.010187	0.268034
C73	C	-0.388250	-1.510359	-0.115813
C74	C	0.111750	-1.010359	0.384187
H75	H	-0.430426	-0.943475	-0.557760
H76	H	0.069574	-0.443475	-0.057760
H77	H	-0.297308	-1.628300	-1.108610
H78	H	0.202692	-1.128300	-0.608610
O79	O	-0.438644	-1.069485	-0.568114
O80	O	0.061356	-0.569485	-0.068114
C81	C	-0.519002	-1.096065	-0.545133
C82	C	-0.019002	-0.596065	-0.045133
H83	H	-0.523019	-1.126093	-0.461663
H84	H	-0.023019	-0.626093	0.038337
H85	H	-0.540164	-1.159361	-0.601161
H86	H	-0.040164	-0.659361	-0.101161
C87	C	-0.567833	-0.962151	-0.659619
C88	C	-0.067833	-0.462151	-0.159619
C89	C	-0.572767	-0.999024	-0.557097
C90	C	-0.072767	-0.499024	-0.057097
H91	H	-0.600999	-0.902294	-0.667003
H92	H	-0.100999	-0.402294	-0.167003
H93	H	-0.513695	-0.944246	-0.675106
H94	H	-0.013695	-0.444246	-0.175106
H95	H	-0.585467	-1.014907	-0.706297
H96	H	-0.085467	-0.514907	-0.206297
H97	H	-0.555124	-0.946273	-0.510422
H98	H	-0.055124	-0.446273	-0.010422
H99	H	-0.626904	-1.016918	-0.541603
H100	H	-0.126904	-0.516918	-0.041603
O101	O	-0.289372	-0.897499	-0.375229
O102	O	0.210628	-0.397499	0.124771
C103	C	-0.335262	-0.834290	-0.307711
C104	C	0.164738	-0.334290	0.192289
H105	H	-0.398734	-0.867223	-0.301065
H106	H	0.101266	-0.367223	0.198935
H107	H	-0.338135	-0.751628	-0.340107
H108	H	0.161865	-0.251628	0.159893
C109	C	-0.217808	-0.791968	-0.207335
C110	C	0.282192	-0.291968	0.292665
C111	C	-0.295764	-0.832423	-0.199166
C112	C	0.204236	-0.332423	0.300834
H113	H	-0.193443	-0.790812	-0.140380
H114	H	0.306557	-0.290812	0.359620
H115	H	-0.186890	-0.834550	-0.252825
H116	H	0.313110	-0.334550	0.247175
H117	H	-0.220213	-0.723087	-0.234335
H118	H	0.279787	-0.223087	0.265665
H119	H	-0.293357	-0.901307	-0.172178
H120	H	0.206643	-0.401307	0.327822
H121	H	-0.326680	-0.789853	-0.153668
H122	H	0.173320	-0.289853	0.346332
H123	H	-0.430244	-1.455906	-0.936722
H124	H	0.069756	-0.955906	-0.436722
H125	H	-0.297351	-1.115263	-0.385784
H126	H	0.202649	-0.615263	0.114216
H127	H	-0.297364	-1.628236	-0.899484
H128	H	0.202636	-1.128236	-0.399484
O129	O	-0.438354	-1.445589	-1.062560
O130	O	0.061646	-0.945589	-0.562560
C131	C	-0.490423	-1.505100	-0.999436
C132	C	0.009577	-1.005100	-0.499436
H133	H	-0.461985	-1.584322	-0.983214
H134	H	0.038015	-1.084322	-0.483214
H135	H	-0.550195	-1.516517	-1.041420
H136	H	-0.050195	-1.016517	-0.541420
C137	C	-0.539904	-1.350364	-0.915610
C138	C	-0.039904	-0.850364	-0.415610
C139	C	-0.504972	-1.447664	-0.895678
C140	C	-0.004972	-0.947664	-0.395678
H141	H	-0.548882	-1.314934	-0.851608
H142	H	-0.048882	-0.814934	-0.351608
H143	H	-0.504827	-1.310270	-0.958140
H144	H	-0.004827	-0.810270	-0.458140
H145	H	-0.589710	-1.359892	-0.950599
H146	H	-0.089710	-0.859892	-0.450599
H147	H	-0.455163	-1.438134	-0.860702
H148	H	0.044837	-0.938134	-0.360702
H149	H	-0.540042	-1.487755	-0.853139
H150	H	-0.040042	-0.987755	-0.353139
