data_functionalizedCrystal
_audit_creation_method	'MofGen! by Chris Wilmer'
_symmetry_space_group_name_H-M	'P1'
_symmetry_Int_Tables_number	1
_symmetry_cell_setting	triclinic
loop_
_symmetry_equiv_pos_as_xyz
  x,y,z
_cell_length_a	17.077404
_cell_length_b	29.839131
_cell_length_c	17.077396
_cell_angle_alpha	89.967252
_cell_angle_beta	89.982756
_cell_angle_gamma	90.041645
loop_
_atom_site_label
_atom_site_type_symbol
_atom_site_fract_x
_atom_site_fract_y
_atom_site_fract_z
Zn1	Zn	1.199936	-0.178847	-0.443824
Zn2	Zn	1.199806	-0.253979	-0.312550
Zn3	Zn	1.068673	-0.178864	-0.312572
Zn4	Zn	1.068593	-0.253951	-0.443774
O5	O	1.134252	-0.216410	-0.378180
O6	O	1.309766	-0.188818	-0.426422
O7	O	1.182390	-0.244033	-0.202706
O8	O	1.086173	-0.115994	-0.330013
O9	O	1.309670	-0.244017	-0.329976
O10	O	1.182612	-0.115982	-0.426443
O11	O	1.086047	-0.188847	-0.202722
O12	O	0.958816	-0.188820	-0.329964
O13	O	1.086037	-0.243970	-0.553627
O14	O	0.958757	-0.243986	-0.426358
O15	O	1.182534	-0.188791	-0.553664
O16	O	1.182312	-0.316842	-0.329927
O17	O	1.085911	-0.316822	-0.426336
C18	C	0.930304	-0.216402	-0.378158
C19	C	0.843054	-0.216409	-0.378168
C20	C	1.134110	-0.333133	-0.378141
C21	C	1.134122	-0.383067	-0.378151
C22	C	0.802054	-0.245178	-0.428279
C23	C	0.720074	-0.245179	-0.428292
C24	C	0.679095	-0.216413	-0.378188
C25	C	0.720101	-0.187642	-0.328074
C26	C	0.802080	-0.187639	-0.328066
C27	C	0.549231	-0.187650	-0.328093
C28	C	0.467246	-0.187654	-0.328100
C29	C	0.467225	-0.245190	-0.428319
C30	C	0.549204	-0.245188	-0.428311
C31	C	0.590204	-0.216416	-0.378196
C32	C	1.184539	-0.692708	-0.328053
C33	C	1.184636	-0.880381	-0.328083
O34	O	1.227391	-0.904645	-0.285459
N35	N	1.134415	-0.903852	-0.378239
C36	C	1.084169	-0.880402	-0.428394
O37	O	1.041461	-0.904671	-0.471061
C38	C	1.084077	-0.692729	-0.428367
C39	C	1.134296	-0.669261	-0.378203
C40	C	1.234755	-0.669240	-0.277893
C41	C	1.234727	-0.622325	-0.277883
C42	C	1.184484	-0.598878	-0.328033
C43	C	1.134268	-0.622346	-0.378193
C44	C	1.033836	-0.669280	-0.478526
C45	C	1.033818	-0.622359	-0.478516
C46	C	1.084038	-0.598891	-0.428352
C47	C	1.083997	-0.551983	-0.428332
N48	N	1.134219	-0.528513	-0.378177
C49	C	1.184462	-0.551960	-0.328027
C50	C	1.084220	-0.978932	-0.428404
C51	C	1.084242	-1.025850	-0.428410
C52	C	1.184710	-1.025827	-0.328100
C53	C	1.184684	-0.978908	-0.328090
C54	C	1.134442	-0.955462	-0.378248
C55	C	1.184399	-0.453434	-0.328009
C56	C	1.184365	-0.406514	-0.328001
C57	C	1.083900	-0.406542	-0.428314
C58	C	1.083931	-0.453457	-0.428319
C59	C	1.134187	-0.476902	-0.378164
O60	O	1.041271	-0.527691	-0.470941
O61	O	1.227176	-0.527682	-0.285378
C62	C	1.184567	-0.739624	-0.328063
C63	C	1.134351	-0.763092	-0.378223
C64	C	1.084108	-0.739645	-0.428373
C65	C	1.134373	-0.810010	-0.378229
C66	C	1.184617	-0.833457	-0.328079
C67	C	1.234838	-0.809987	-0.277923
C68	C	1.234811	-0.763071	-0.277913
C69	C	1.033887	-0.763116	-0.478529
C70	C	1.033918	-0.810031	-0.478534
C71	C	1.084161	-0.833478	-0.428384
C72	C	1.338996	-0.216419	-0.378202
C73	C	1.426246	-0.216422	-0.378212
C74	C	1.134292	-0.216375	-0.582924
C75	C	1.134308	-0.216360	-0.670174
C76	C	1.134416	-0.099232	-0.378236
C77	C	1.134486	-0.049297	-0.378260
C78	C	1.084158	-0.187621	-0.711172
C79	C	1.084171	-0.187611	-0.793153
C80	C	1.134339	-0.216338	-0.834134
C81	C	1.184491	-0.245080	-0.793130
C82	C	1.184474	-0.245093	-0.711151
C83	C	1.184525	-0.245052	-0.964000
C84	C	1.184544	-0.245040	-1.045985
C85	C	1.084222	-0.187571	-1.046002
C86	C	1.084205	-0.187583	-0.964023
C87	C	1.134359	-0.216325	-0.923025
C88	C	1.134258	-0.216412	-0.174232
C89	C	1.134393	-0.216301	-0.086983
H90	H	0.835413	-0.268603	-0.469077
H91	H	0.686695	-0.268605	-0.469097
N92	N	1.032948	-1.049826	-0.479646
N93	N	1.032969	-1.091717	-0.479653
H94	H	0.996744	-1.108649	-0.515842
H95	H	1.043305	-0.959845	-0.469250
N96	N	0.591052	-0.274577	-0.479487
N97	N	0.554438	-0.300263	-0.524227
H98	H	0.583993	-0.321020	-0.560373
H99	H	0.433839	-0.268616	-0.469126
H100	H	0.993016	-0.829135	-0.519383
H101	H	0.992938	-0.688380	-0.519372
N102	N	0.425398	-0.158267	-0.276919
N103	N	0.462012	-0.132577	-0.232185
H104	H	0.432457	-0.111821	-0.196039
N105	N	1.235780	-0.274393	-1.087836
N106	N	1.208134	-0.303014	-1.133563
H107	H	1.244323	-0.323745	-1.163117
N108	N	0.982559	-0.739176	-0.529766
N109	N	0.937727	-0.760142	-0.574542
H110	H	0.901471	-0.743237	-0.610730
H111	H	1.225373	-0.268453	-0.930622
N112	N	0.591101	-0.158254	-0.276907
N113	N	0.554506	-0.132571	-0.232177
H114	H	0.584076	-0.111810	-0.196026
H115	H	1.275746	-0.829085	-0.237087
N116	N	0.678244	-0.158251	-0.276906
N117	N	0.632544	-0.129645	-0.304623
H118	H	0.602983	-0.108888	-0.268484
N119	N	1.286025	-0.598350	-0.226648
N120	N	1.336017	-0.572126	-0.254295
H121	H	1.372244	-0.555194	-0.218107
N122	N	0.843951	-0.158245	-0.276881
N123	N	0.807356	-0.132562	-0.232152
H124	H	0.836926	-0.111799	-0.196005
N125	N	1.235666	-0.382550	-0.276747
N126	N	1.280522	-0.403494	-0.231976
H127	H	1.316753	-0.386571	-0.195778
H128	H	1.225325	-0.472517	-0.287169
N129	N	0.982495	-0.598417	-0.529763
N130	N	0.937667	-0.619380	-0.574546
H131	H	0.901419	-0.602472	-0.610739
H132	H	1.225334	-0.268473	-0.826503
H133	H	1.275674	-0.688326	-0.237055
N134	N	1.032617	-0.477425	-0.479551
N135	N	0.987754	-0.456482	-0.524318
H136	H	0.951515	-0.473407	-0.560505
H137	H	1.043310	-0.164226	-0.677811
H138	H	1.042990	-0.387444	-0.469143
H139	H	1.225577	-0.959803	-0.287243
N140	N	1.032934	-0.158255	-0.835018
N141	N	0.988146	-0.132607	-0.798419
H142	H	0.951956	-0.111873	-0.827986
H143	H	1.275704	-0.743967	-0.237065
N144	N	1.236026	-1.049789	-0.276874
N145	N	1.236032	-1.091679	-0.276893
H146	H	1.272274	-1.108605	-0.240720
H147	H	1.043357	-0.164189	-0.930658
H148	H	1.043386	-0.164168	-1.079386
N149	N	1.235702	-0.274454	-0.669282
N150	N	1.280490	-0.300102	-0.705879
H151	H	1.316669	-0.320842	-0.676311
