data_functionalizedCrystal
_audit_creation_method	'MofGen! by Chris Wilmer'
_symmetry_space_group_name_H-M	'P1'
_symmetry_Int_Tables_number	1
_symmetry_cell_setting	triclinic
loop_
_symmetry_equiv_pos_as_xyz
  x,y,z
_cell_length_a	6.817900
_cell_length_b	17.296766
_cell_length_c	17.110486
_cell_angle_alpha	100.227224
_cell_angle_beta	99.060439
_cell_angle_gamma	102.621013
loop_
_atom_site_label
_atom_site_type_symbol
_atom_site_fract_x
_atom_site_fract_y
_atom_site_fract_z
V1	V	-3.976392	-0.110853	-0.254662
O2	O	-3.965399	0.005573	-0.241624
O3	O	-3.927739	-0.220040	-0.260798
O4	O	-3.906258	-0.109040	-0.362136
O5	O	-3.987029	-0.106195	-0.139585
V6	V	-4.462869	-0.096940	-0.239941
O7	O	-4.231170	-0.141373	-0.286954
O8	O	-4.658287	-0.066421	-0.207649
O9	O	-4.288315	0.012247	-0.233806
O10	O	-4.591258	-0.213367	-0.252979
O11	O	-4.569629	-0.101598	-0.355019
O12	O	-4.309796	-0.098753	-0.132468
C13	C	-3.773381	-0.246661	-0.258813
C14	C	-3.814744	-0.335922	-0.264546
C15	C	-3.808623	-0.366461	-0.193958
C16	C	-3.847507	-0.450332	-0.199347
C17	C	-3.892496	-0.503662	-0.275325
C18	C	-3.898622	-0.473119	-0.345918
C19	C	-3.859753	-0.389250	-0.340528
C20	C	-4.011147	-0.757464	-0.295265
C21	C	-4.050010	-0.841338	-0.300649
C22	C	-3.998896	-0.818545	-0.154078
C23	C	-3.960017	-0.734675	-0.148695
C24	C	-3.966156	-0.704139	-0.219288
C25	C	-3.932236	-0.589392	-0.280835
C26	C	-3.926431	-0.618411	-0.213777
C27	C	-3.745979	-0.105069	-0.388078
C28	C	-3.769919	-0.104309	-0.475990
C29	C	-3.962444	-0.107959	-0.521609
C30	C	-3.984925	-0.107244	-0.604211
C31	C	-3.814883	-0.102885	-0.641194
C32	C	-3.622342	-0.099232	-0.595568
C33	C	-3.599860	-0.099941	-0.512966
C34	C	-3.873693	-0.100539	-0.890381
C35	C	-3.896192	-0.099833	-0.972989
C36	C	-4.258774	-0.107844	-0.981627
C37	C	-4.236277	-0.108557	-0.899024
C38	C	-4.043737	-0.104900	-0.853404
C39	C	-3.837860	-0.102157	-0.725627
C40	C	-4.020759	-0.105622	-0.768971
C41	C	-4.106015	0.038863	-0.235789
C42	C	-4.043890	0.128123	-0.230061
C43	C	-4.133417	-0.102728	-0.106521
C44	C	-4.088717	-0.103484	-0.018608
H45	H	-3.968870	-0.632823	-0.342696
N46	N	-4.095961	-0.895832	-0.378253
N47	N	-3.983147	-0.942015	-0.394325
H48	H	-4.015593	-0.980503	-0.449129
H49	H	-3.443078	-0.096949	-0.475819
H50	H	-4.141694	-0.110212	-0.641350
N51	N	-4.194440	-0.110058	-0.731194
N52	N	-4.193280	-0.054491	-0.673257
H53	H	-4.315940	-0.057624	-0.646570
N54	N	-3.944538	-0.527581	-0.423533
N55	N	-3.949981	-0.500300	-0.486551
H56	H	-3.982398	-0.538761	-0.541370
N57	N	-4.455453	-0.111579	-1.028214
N58	N	-4.603384	-0.171190	-1.034687
H59	H	-4.742298	-0.173827	-1.067587
H60	H	-3.923398	-0.691257	-0.086826
H61	H	-3.699417	-0.098611	-0.755748
H62	H	-4.016122	-0.732612	-0.352746
H63	H	-3.771975	-0.323043	-0.132088
N64	N	-3.865966	-0.358039	-0.412623
N65	N	-3.831257	-0.283155	-0.407801
H66	H	-3.835650	-0.261111	-0.458720
N67	N	-3.677054	-0.096814	-0.843773
N68	N	-3.594991	-0.039468	-0.783903
H69	H	-3.456110	-0.036841	-0.750981
H70	H	-3.842525	-0.475191	-0.141867
H71	H	-3.889810	-0.574986	-0.151917
N72	N	-4.136132	-0.112394	-0.483832
N73	N	-4.134974	-0.056825	-0.425896
H74	H	-4.257645	-0.059953	-0.399216
H75	H	-4.374747	-0.112106	-0.868919
H76	H	-3.757711	-0.096281	-1.003097
N77	N	-3.992678	-0.849754	-0.081984
N78	N	-4.148869	-0.897170	-0.071925
H79	H	-4.144487	-0.919214	-0.021006
N80	N	-3.448661	-0.094770	-0.633352
N81	N	-3.468756	-0.094138	-0.707103
H82	H	-3.346091	-0.090988	-0.733789
