data_functionalizedCrystal
_audit_creation_method	'MofGen! by Chris Wilmer'
_symmetry_space_group_name_H-M	'P1'
_symmetry_Int_Tables_number	1
_symmetry_cell_setting	triclinic
loop_
_symmetry_equiv_pos_as_xyz
  x,y,z
_cell_length_a	14.971486
_cell_length_b	17.699083
_cell_length_c	14.048226
_cell_angle_alpha	89.992674
_cell_angle_beta	89.998499
_cell_angle_gamma	83.448572
loop_
_atom_site_label
_atom_site_type_symbol
_atom_site_fract_x
_atom_site_fract_y
_atom_site_fract_z
O1	O	1.186608	0.098633	-0.079053
O2	O	1.686608	0.598633	0.420947
O3	O	0.926167	0.110445	-0.079079
O4	O	1.426167	0.610445	0.420921
O5	O	1.063746	-0.005632	-0.079057
O6	O	1.563746	0.494368	0.420943
O7	O	1.049030	0.214710	-0.079075
O8	O	1.549030	0.714710	0.420925
O9	O	1.063729	-0.005639	0.079264
O10	O	1.563729	0.494361	0.579264
O11	O	0.926151	0.110438	0.079242
O12	O	1.426151	0.610438	0.579242
O13	O	1.186591	0.098626	0.079268
O14	O	1.686591	0.598626	0.579268
Zn15	Zn	1.056368	0.104531	0.104392
Zn16	Zn	1.556368	0.604531	0.604392
Zn17	Zn	1.056390	0.104540	-0.104203
Zn18	Zn	1.556390	0.604540	0.395797
O19	O	1.049013	0.214703	0.079246
O20	O	1.549013	0.714703	0.579246
C21	C	0.892836	0.109913	0.000078
C22	C	1.392836	0.609913	0.500078
C23	C	0.793544	0.108330	0.000068
C24	C	1.293544	0.608330	0.500068
C25	C	0.736085	0.176522	0.000064
C26	C	1.236085	0.676522	0.500064
C27	C	0.642790	0.175030	0.000078
C28	C	1.142790	0.675030	0.500078
C29	C	0.606958	0.105346	0.000090
C30	C	1.106958	0.605346	0.500090
C31	C	0.664425	0.037148	0.000097
C32	C	1.164425	0.537148	0.500097
C33	C	0.757717	0.038641	0.000090
C34	C	1.257717	0.538641	0.500090
C35	C	0.469973	0.034042	0.000111
C36	C	0.969973	0.534042	0.500111
C37	C	0.376674	0.032549	0.000117
C38	C	0.876674	0.532549	0.500117
C39	C	0.355046	0.170431	0.000099
C40	C	0.855046	0.670431	0.500099
C41	C	0.448339	0.171924	0.000092
C42	C	0.948339	0.671924	0.500092
C43	C	0.505799	0.103726	0.000097
C44	C	1.005799	0.603726	0.500097
C45	C	1.063210	-0.033834	0.000104
C46	C	1.563210	0.466166	0.500104
C47	C	1.061628	-0.117856	0.000104
C48	C	1.561628	0.382144	0.500104
C49	C	1.142384	-0.166278	0.000113
C50	C	1.642384	0.333722	0.500113
C51	C	1.140892	-0.245225	0.000105
C52	C	1.640892	0.254775	0.500105
C53	C	1.058644	-0.275748	0.000094
C54	C	1.558644	0.224252	0.500094
C55	C	0.977882	-0.227320	0.000081
C56	C	1.477882	0.272680	0.500081
C57	C	0.979375	-0.148374	0.000083
C58	C	1.479375	0.351626	0.500083
C59	C	0.971860	-0.545698	0.000073
C60	C	1.471860	-0.045698	0.500073
C61	C	0.970374	-0.624649	0.000074
C62	C	1.470374	-0.124649	0.500074
C63	C	1.133378	-0.642548	0.000095
C64	C	1.633378	-0.142548	0.500095
C65	C	1.134871	-0.563603	0.000096
C66	C	1.634871	-0.063603	0.500096
C67	C	1.054109	-0.515181	0.000079
C68	C	1.554109	-0.015181	0.500079
C69	C	1.055728	-0.429578	0.000087
C70	C	1.555728	0.070422	0.500087
C71	C	1.057024	-0.361350	0.000093
C72	C	1.557024	0.138650	0.500093
C73	C	1.219923	0.099158	0.000109
C74	C	1.719923	0.599158	0.500109
C75	C	1.319214	0.100741	0.000112
C76	C	1.819214	0.600741	0.500112
C77	C	1.049549	0.242905	0.000083
C78	C	1.549549	0.742905	0.500083
C79	C	1.051131	0.326927	0.000077
C80	C	1.551131	0.826927	0.500077
N81	N	1.056360	0.104524	0.246753
N82	N	1.556360	0.604524	0.746753
N83	N	1.056406	0.104541	-0.246564
N84	N	1.556406	0.604541	0.253436
C85	C	1.117299	0.053147	0.296581
C86	C	1.617299	0.553147	0.796581
C87	C	1.117305	0.053146	0.396238
C88	C	1.617305	0.553146	0.896238
C89	C	1.056376	0.104528	0.446066
C90	C	1.556376	0.604528	0.946066
C91	C	0.995431	0.155908	0.396231
C92	C	1.495431	0.655908	0.896231
C93	C	0.995421	0.155904	0.296576
C94	C	1.495421	0.655904	0.796576
C95	C	0.995456	0.155913	0.603946
C96	C	1.495456	0.655913	1.103946
C97	C	0.995467	0.155918	0.703608
C98	C	1.495467	0.655918	1.203608
C99	C	1.117340	0.053156	0.703608
C100	C	1.617340	0.553156	1.203608
C101	C	1.117331	0.053152	0.603953
C102	C	1.617331	0.553152	1.103953
C103	C	1.056386	0.104533	0.554125
C104	C	1.556386	0.604533	1.054125
H105	H	0.804501	-0.016888	0.000093
H106	H	1.304501	0.483112	0.500093
H107	H	0.945816	0.197741	0.436807
H108	H	1.445816	0.697741	0.936807
H109	H	0.913615	-0.108949	0.000075
H110	H	1.413615	0.391051	0.500075
C111	C	0.337254	-0.044100	0.000143
C112	C	0.837254	0.455900	0.500143
H113	H	0.273463	-0.035219	0.000137
H114	H	0.773463	0.464781	0.500137
H115	H	0.356987	-0.072178	0.055360
H116	H	0.856987	0.427822	0.555360
H117	H	0.356983	-0.072187	-0.055067
H118	H	0.856983	0.427813	0.444933
C119	C	1.229721	-0.298490	0.000106
C120	C	1.729721	0.201510	0.500106
H121	H	1.217055	-0.349878	0.000088
H122	H	1.717055	0.150122	0.500088
H123	H	1.263454	-0.289242	0.055318
H124	H	1.763454	0.210758	0.555318
H125	H	1.263452	-0.289217	-0.055110
H126	H	1.763452	0.210783	0.444890
H127	H	0.945797	0.197740	0.256007
H128	H	1.445797	0.697740	0.756007
C129	C	0.883029	-0.492441	0.000053
C130	C	1.383029	0.007559	0.500053
H131	H	0.895692	-0.441051	0.000043
H132	H	1.395692	0.058949	0.500043
H133	H	0.849285	-0.501704	0.055257
H134	H	1.349285	-0.001704	0.555257
H135	H	0.849311	-0.501702	-0.055170
H136	H	1.349311	-0.001702	0.444830
C137	C	0.928444	0.212431	0.758422
C138	C	1.428444	0.712431	1.258422
H139	H	0.937188	0.205078	0.824909
H140	H	1.437188	0.705078	1.324909
H141	H	0.868769	0.204123	0.742106
H142	H	1.368769	0.704123	1.242106
H143	H	0.938041	0.262962	0.742078
H144	H	1.438041	0.762962	1.242078
C145	C	1.232858	-0.132709	0.000126
C146	C	1.732858	0.367291	0.500126
H147	H	1.280739	-0.172858	0.000121
H148	H	1.780739	0.327142	0.500121
H149	H	1.236826	-0.102290	0.055336
H150	H	1.736826	0.397710	0.555336
H151	H	1.236834	-0.102281	-0.055091
H152	H	1.736834	0.397719	0.444909
H153	H	1.166948	0.011317	0.563383
H154	H	1.666948	0.511317	1.063383
C155	C	0.775493	0.253176	0.000051
C156	C	1.275493	0.753176	0.500051
H157	H	0.727906	0.293575	0.000059
H158	H	1.227906	0.793575	0.500059
H159	H	0.811434	0.256629	-0.055162
H160	H	1.311434	0.756629	0.444838
H161	H	0.811438	0.256622	0.055265
H162	H	1.311438	0.756622	0.555265
C163	C	0.579588	0.250041	0.000071
C164	C	1.079588	0.750041	0.500071
H165	H	0.614291	0.291756	0.000051
H166	H	1.114291	0.791756	0.500051
H167	H	0.542749	0.252327	0.055284
H168	H	1.042749	0.752327	0.555284
H169	H	0.542742	0.252325	-0.055143
H170	H	1.042742	0.752325	0.444857
H171	H	1.166963	0.011319	0.744184
H172	H	1.666963	0.511319	1.244184
H173	H	1.199138	-0.681983	0.000104
H174	H	1.699138	-0.181983	0.500104
H175	H	0.308257	0.225960	0.000099
H176	H	0.808257	0.725960	0.500099
H177	H	0.477510	0.228667	0.000073
H178	H	0.977510	0.728667	0.500073
C179	C	0.928423	0.212435	0.549137
C180	C	1.428423	0.712435	1.049137
H181	H	0.892144	0.243043	0.593084
H182	H	1.392144	0.743043	1.093084
H183	H	0.891247	0.185159	0.510269
H184	H	1.391247	0.685159	1.010269
H185	H	0.960533	0.243986	0.510253
H186	H	1.460533	0.743986	1.010253
C187	C	0.879897	-0.658223	0.000049
C188	C	1.379897	-0.158223	0.500049
H189	H	0.832011	-0.618079	0.000028
H190	H	1.332011	-0.118079	0.500028
H191	H	0.875914	-0.688654	0.055257
H192	H	1.375914	-0.188654	0.555257
H193	H	0.875945	-0.688642	-0.055170
H194	H	1.375945	-0.188642	0.444830
H195	H	0.516756	-0.021492	0.000117
H196	H	1.016756	0.478508	0.500117
C197	C	1.225343	-0.530031	0.000105
C198	C	1.725343	-0.030031	0.500105
H199	H	1.273226	-0.570178	0.000100
H200	H	1.773226	-0.070178	0.500100
H201	H	1.229311	-0.499610	0.055313
H202	H	1.729311	0.000390	0.555313
H203	H	1.229314	-0.499603	-0.055114
H204	H	1.729314	0.000397	0.444886
H205	H	0.910914	-0.252178	0.000066
H206	H	1.410914	0.247822	0.500066
C207	C	0.625015	-0.039505	0.000109
C208	C	1.125015	0.460495	0.500109
H209	H	0.672601	-0.079904	0.000119
H210	H	1.172601	0.420096	0.500119
H211	H	0.589070	-0.042952	-0.055098
H212	H	1.089070	0.457048	0.444902
H213	H	0.589074	-0.042955	0.055329
H214	H	1.089074	0.457045	0.555329
H215	H	1.166918	0.011309	0.256017
H216	H	1.666918	0.511309	0.756017
C217	C	1.184346	-0.003362	0.451045
C218	C	1.684346	0.496638	0.951045
H219	H	1.220641	-0.033955	0.407096
H220	H	1.720641	0.466045	0.907096
H221	H	1.152256	-0.034918	0.489935
H222	H	1.652256	0.465082	0.989935
H223	H	1.221518	0.023930	0.489906
H224	H	1.721518	0.523930	0.989906
