data_functionalizedCrystal
_audit_creation_method	'MofGen! by Chris Wilmer'
_symmetry_space_group_name_H-M	'P1'
_symmetry_Int_Tables_number	1
_symmetry_cell_setting	triclinic
loop_
_symmetry_equiv_pos_as_xyz
  x,y,z
_cell_length_a	19.121102
_cell_length_b	21.295417
_cell_length_c	19.121595
_cell_angle_alpha	87.530324
_cell_angle_beta	85.004847
_cell_angle_gamma	87.584620
loop_
_atom_site_label
_atom_site_type_symbol
_atom_site_fract_x
_atom_site_fract_y
_atom_site_fract_z
Zn1	Zn	1.092604	-0.275507	-0.443657
Zn2	Zn	1.087490	-0.385079	-0.325979
Zn3	Zn	0.969926	-0.275515	-0.320992
Zn4	Zn	0.974894	-0.376428	-0.438594
O5	O	1.031228	-0.328132	-0.382306
O6	O	1.190389	-0.293659	-0.432253
O7	O	1.067675	-0.374169	-0.226852
O8	O	0.986260	-0.187426	-0.337296
O9	O	1.186631	-0.374160	-0.345795
O10	O	1.076392	-0.187420	-0.427417
O11	O	0.981301	-0.293673	-0.223189
O12	O	0.872121	-0.285285	-0.332387
O13	O	0.994728	-0.359416	-0.537731
O14	O	0.875771	-0.359425	-0.418788
O15	O	1.081209	-0.285270	-0.541451
O16	O	1.072492	-0.472019	-0.340886
O17	O	0.989768	-0.465664	-0.423624
C18	C	0.848416	-0.321417	-0.374497
C19	C	0.770209	-0.318559	-0.371174
C20	C	0.735382	-0.355881	-0.414526
C21	C	0.661899	-0.353187	-0.411406
C22	C	0.623242	-0.313174	-0.364930
C23	C	0.658073	-0.275849	-0.321576
C24	C	0.731556	-0.278540	-0.324700
C25	C	0.401276	-0.303112	-0.353255
C26	C	0.327789	-0.300425	-0.350133
C27	C	0.331619	-0.377762	-0.439965
C28	C	0.405103	-0.380452	-0.443081
C29	C	0.439928	-0.343125	-0.399730
C30	C	0.548130	-0.310421	-0.361739
C31	C	0.515039	-0.345875	-0.402925
C32	C	1.031134	-0.491682	-0.382263
C33	C	1.031160	-0.561651	-0.382271
C34	C	1.074276	-0.597806	-0.339237
C35	C	1.074309	-0.663549	-0.339254
C36	C	1.031214	-0.693134	-0.382297
C37	C	0.988095	-0.656971	-0.425340
C38	C	0.988068	-0.591229	-0.425326
N39	N	0.969890	-0.793947	-0.385032
N40	N	0.969918	-0.856399	-0.385041
C41	C	1.031294	-0.891210	-0.382341
N42	N	1.092643	-0.861211	-0.379618
N43	N	1.092615	-0.798753	-0.379606
C44	C	1.031239	-0.764420	-0.382317
C45	C	1.074451	-0.998652	-0.339324
C46	C	1.074486	-1.064396	-0.339346
C47	C	0.988265	-1.057817	-0.425427
C48	C	0.988236	-0.992074	-0.425409
C49	C	1.031328	-0.962495	-0.382353
C50	C	1.214754	-0.334874	-0.390145
C51	C	1.292962	-0.337746	-0.393485
C52	C	1.039093	-0.321377	-0.565836
C53	C	1.042444	-0.318499	-0.644045
C54	C	1.031342	-0.163944	-0.382365
C55	C	1.031391	-0.093977	-0.382390
C56	C	0.998994	-0.355747	-0.678853
C57	C	1.002148	-0.353043	-0.752339
C58	C	1.048751	-0.313086	-0.791017
C59	C	1.092207	-0.275836	-0.756204
C60	C	1.089055	-0.278544	-0.682719
C61	C	1.060523	-0.302981	-1.012991
C62	C	1.063670	-0.300274	-1.086480
C63	C	0.973613	-0.377482	-1.082611
C64	C	0.970462	-0.380184	-1.009124
C65	C	1.013920	-0.342937	-0.974318
C66	C	1.051975	-0.310319	-0.866131
C67	C	1.010699	-0.345707	-0.899205
C68	C	1.023435	-0.334817	-0.199491
C69	C	1.020220	-0.337523	-0.121288
H70	H	0.296316	-0.267835	-0.312291
C71	C	1.121733	-0.703331	-0.291909
C72	C	1.112609	-0.697068	-0.211669
C73	C	1.160030	-0.736849	-0.164323
C74	C	1.216573	-0.782894	-0.197215
C75	C	1.225699	-0.789160	-0.277459
C76	C	1.178279	-0.749379	-0.324806
H77	H	1.070750	-0.662980	-0.187317
H78	H	1.153274	-0.732210	-0.104921
H79	H	1.251677	-0.812343	-0.162166
H80	H	1.267559	-0.823247	-0.301812
H81	H	1.185035	-0.754017	-0.384208
H82	H	0.429622	-0.272722	-0.317950
C83	C	0.954349	-0.394003	-0.790642
C84	C	0.901309	-0.362815	-0.838815
C85	C	0.853508	-0.403772	-0.877124
C86	C	0.858746	-0.475918	-0.867259
C87	C	0.911788	-0.507110	-0.819083
C88	C	0.959590	-0.466153	-0.780775
H89	H	0.897430	-0.309405	-0.846120
H90	H	0.814243	-0.380681	-0.912787
H91	H	0.823361	-0.506237	-0.895618
H92	H	0.915668	-0.560520	-0.811779
H93	H	0.998855	-0.489244	-0.745112
H94	H	0.953179	-1.081904	-0.460477
H95	H	0.938232	-0.407807	-1.110958
H96	H	1.101617	-0.267731	-1.117970
C97	C	0.777902	-0.399895	-0.465651
C98	C	0.767505	-0.471294	-0.459333
C99	C	0.810022	-0.515308	-0.510461
C100	C	0.862936	-0.487923	-0.567908
C101	C	0.873335	-0.416521	-0.574228
C102	C	0.830818	-0.372507	-0.523100
H103	H	0.728332	-0.491569	-0.416805
H104	H	0.802323	-0.568165	-0.505782
H105	H	0.894410	-0.520505	-0.605756
H106	H	0.912508	-0.396246	-0.616756
H107	H	0.838517	-0.319650	-0.527779
H108	H	0.953008	-0.681063	-0.460387
H109	H	1.109601	-1.093833	-0.304304
C110	C	1.121856	-0.966110	-0.291971
C111	C	1.169294	-1.005883	-0.244641
C112	C	1.216700	-0.973344	-0.197288
C113	C	1.216667	-0.901031	-0.197266
C114	C	1.169227	-0.861253	-0.244599
C115	C	1.121822	-0.893792	-0.291951
H116	H	1.169320	-1.059418	-0.244656
H117	H	1.251818	-1.002790	-0.162250
H118	H	1.251759	-0.876943	-0.162213
H119	H	1.169202	-0.807719	-0.244584
H120	H	1.086704	-0.864346	-0.326989
C121	C	0.940803	-0.952299	-0.472743
C122	C	0.893400	-0.984837	-0.520094
C123	C	0.845967	-0.945062	-0.567434
C124	C	0.845937	-0.872749	-0.567423
C125	C	0.893342	-0.840206	-0.520071
C126	C	0.940775	-0.879981	-0.472731
H127	H	0.893420	-1.038371	-0.520103
H128	H	0.810875	-0.969153	-0.602487
H129	H	0.810825	-0.843305	-0.602467
H130	H	0.893322	-0.786672	-0.520062
H131	H	0.975867	-0.855891	-0.437678
H132	H	1.095910	-0.272652	-0.984661
C133	C	0.505600	-0.266413	-0.310614
C134	C	0.456424	-0.214064	-0.339068
C135	C	0.413890	-0.170055	-0.287947
C136	C	0.420532	-0.178394	-0.208372
C137	C	0.469711	-0.230744	-0.179914
C138	C	0.512245	-0.274754	-0.231035
H139	H	0.451505	-0.207889	-0.397978
H140	H	0.377485	-0.131302	-0.309013
H141	H	0.389046	-0.145815	-0.170529
H142	H	0.474629	-0.236919	-0.121005
H143	H	0.548650	-0.313507	-0.209969
H144	H	0.546516	-0.378450	-0.440769
C145	C	0.447627	-0.424465	-0.494205
C146	C	0.500545	-0.397082	-0.551648
C147	C	0.543071	-0.441098	-0.602768
C148	C	0.532679	-0.512497	-0.596444
C149	C	0.479758	-0.539884	-0.538999
C150	C	0.437232	-0.495868	-0.487879
H151	H	0.508240	-0.344225	-0.556331
H152	H	0.582247	-0.420824	-0.645293
H153	H	0.564159	-0.545080	-0.634286
H154	H	0.472063	-0.592741	-0.534316
H155	H	0.398056	-0.516142	-0.445354
H156	H	1.130155	-0.243306	-0.787701
H157	H	0.961036	-0.388277	-0.647366
H158	H	0.952957	-0.561791	-0.460370
C159	C	0.293311	-0.418815	-0.487655
C160	C	0.212483	-0.415857	-0.484227
C161	C	0.174176	-0.456909	-0.531923
C162	C	0.216696	-0.500920	-0.583047
C163	C	0.297528	-0.503880	-0.586477
C164	C	0.335836	-0.462827	-0.538782
H165	H	0.181003	-0.383276	-0.446380
H166	H	0.114338	-0.454718	-0.529383
H167	H	0.188338	-0.531309	-0.618354
H168	H	0.329008	-0.536460	-0.624324
H169	H	0.395673	-0.465018	-0.541321
H170	H	0.932525	-0.412731	-0.977638
C171	C	1.136849	-0.237569	-0.644427
C172	C	1.131592	-0.165425	-0.654303
C173	C	1.179391	-0.124451	-0.616012
C174	C	1.232447	-0.155622	-0.567844
C175	C	1.237707	-0.227770	-0.557966
C176	C	1.189908	-0.268744	-0.596258
H177	H	1.092314	-0.142348	-0.689961
H178	H	1.175497	-0.071043	-0.623325
H179	H	1.267831	-0.125291	-0.539499
H180	H	1.276984	-0.250847	-0.522308
H181	H	1.193802	-0.322152	-0.588945
H182	H	0.626594	-0.243267	-0.283737
C183	C	1.103232	-0.266363	-0.908681
C184	C	1.160617	-0.293809	-0.961552
C185	C	1.211874	-0.249855	-1.004105
C186	C	1.205745	-0.178454	-0.993786
C187	C	1.148357	-0.151005	-0.940913
C188	C	1.097100	-0.194959	-0.898360
H189	H	1.165156	-0.346667	-0.969193
H190	H	1.254356	-0.270175	-1.043246
H191	H	1.243688	-0.145916	-1.025287
H192	H	1.143818	-0.098147	-0.933272
H193	H	1.054618	-0.174639	-0.859219
H194	H	0.972758	-0.378242	-0.867711
C195	C	0.769869	-0.237487	-0.277011
C196	C	0.821728	-0.188834	-0.309757
C197	C	0.860041	-0.147777	-0.262070
C198	C	0.846496	-0.155375	-0.181638
C199	C	0.794635	-0.204030	-0.148888
C200	C	0.756322	-0.245087	-0.196575
H201	H	0.831757	-0.183208	-0.369301
H202	H	0.898432	-0.111759	-0.286314
H203	H	0.874858	-0.124982	-0.146337
H204	H	0.784606	-0.209656	-0.089344
H205	H	0.717931	-0.281105	-0.172331
C206	C	1.121683	-0.565273	-0.291882
C207	C	1.112582	-0.577090	-0.211646
C208	C	1.159991	-0.544557	-0.164292
C209	C	1.216502	-0.500208	-0.197173
C210	C	1.225605	-0.488389	-0.277412
C211	C	1.178196	-0.520921	-0.324767
H212	H	1.070747	-0.609922	-0.187302
H213	H	1.153251	-0.553306	-0.104893
H214	H	1.251597	-0.476125	-0.162118
H215	H	1.267440	-0.455557	-0.301757
H216	H	1.184936	-0.512172	-0.384166
H217	H	0.633546	-0.383578	-0.446708
