data_functionalizedCrystal
_audit_creation_method	'MofGen! by Chris Wilmer'
_symmetry_space_group_name_H-M	'P1'
_symmetry_Int_Tables_number	1
_symmetry_cell_setting	triclinic
loop_
_symmetry_equiv_pos_as_xyz
  x,y,z
_cell_length_a	12.759401
_cell_length_b	10.685194
_cell_length_c	12.759393
_cell_angle_alpha	85.598742
_cell_angle_beta	89.980131
_cell_angle_gamma	94.376424
loop_
_atom_site_label
_atom_site_type_symbol
_atom_site_fract_x
_atom_site_fract_y
_atom_site_fract_z
Zn1	Zn	1.574241	-0.502388	-0.561939
Zn2	Zn	1.560686	-0.713450	-0.372780
Zn3	Zn	1.398540	-0.502443	-0.386270
Zn4	Zn	1.385088	-0.713357	-0.548423
O5	O	1.479639	-0.607910	-0.467353
O6	O	1.719463	-0.530402	-0.536857
O7	O	1.539134	-0.685521	-0.227545
O8	O	1.433149	-0.325838	-0.420875
O9	O	1.709504	-0.685468	-0.397883
O10	O	1.562236	-0.325797	-0.549938
O11	O	1.420006	-0.530495	-0.237456
O12	O	1.249735	-0.530406	-0.407770
O13	O	1.410223	-0.685310	-0.697241
O14	O	1.239853	-0.685363	-0.526903
O15	O	1.549193	-0.530312	-0.707171
O16	O	1.526091	-0.890036	-0.384778
O17	O	1.397079	-0.889968	-0.513822
C18	C	1.206673	-0.607881	-0.467334
C19	C	1.089896	-0.607900	-0.467349
C20	C	0.930422	-0.527137	-0.405460
C21	C	1.040148	-0.527107	-0.405446
C22	C	1.029911	-0.688718	-0.529278
C23	C	0.920188	-0.688740	-0.529297
C24	C	1.199578	-0.378190	-0.377604
C25	C	1.259557	-0.297386	-0.315665
C26	C	1.225136	-0.277868	-0.214431
C27	C	1.130737	-0.339172	-0.175115
C28	C	1.070763	-0.419985	-0.237048
C29	C	1.105183	-0.439479	-0.338298
C30	C	0.760757	-0.837659	-0.557128
C31	C	0.700780	-0.918479	-0.619055
C32	C	0.735197	-0.938010	-0.720290
C33	C	0.829599	-0.876728	-0.759601
C34	C	0.889576	-0.795908	-0.697673
C35	C	0.855151	-0.776375	-0.596440
C36	C	1.458683	-0.935792	-0.446392
C37	C	1.449814	-1.076061	-0.437461
C38	C	1.753670	-0.607939	-0.467373
C39	C	1.870446	-0.607951	-0.467382
C40	C	1.479719	-0.607795	-0.741394
C41	C	1.479754	-0.607746	-0.858174
C42	C	1.500705	-0.278747	-0.488419
C43	C	1.509683	-0.138478	-0.497396
C44	C	1.541790	-0.688432	-0.907881
C45	C	1.541824	-0.688369	-1.017609
C46	C	1.417779	-0.526932	-1.027913
C47	C	1.417750	-0.526989	-0.918187
C48	C	1.662881	-0.733397	-1.164696
C49	C	1.724906	-0.814103	-1.214406
C50	C	1.733145	-0.937261	-1.170924
C51	C	1.679341	-0.979739	-1.077732
C52	C	1.617307	-0.899040	-1.028028
C53	C	1.609090	-0.775864	-1.071509
C54	C	1.296691	-0.481974	-0.771098
C55	C	1.234651	-0.401280	-0.721391
C56	C	1.226402	-0.278120	-0.764871
C57	C	1.280188	-0.235646	-0.858066
C58	C	1.342228	-0.316340	-0.907773
C59	C	1.350478	-0.439499	-0.864285
C60	C	1.479625	-0.607933	-0.194384
C61	C	1.479817	-0.607626	-0.077628
H62	H	1.273980	-0.212075	-0.164000
C63	C	1.559016	-0.945358	-0.926834
C64	C	1.579518	-1.070487	-0.899379
C65	C	1.525854	-1.113192	-0.806155
H66	H	1.485644	-0.940360	-0.936853
H67	H	1.582096	-0.894451	-0.872191
H68	H	1.556432	-1.121379	-0.954009
H69	H	1.652879	-1.075518	-0.889339
H70	H	1.548934	-1.062286	-0.751511
H71	H	1.452485	-1.108187	-0.816182
H72	H	1.539764	-1.198092	-0.787509
H73	H	1.592287	-0.754178	-0.859022
C74	C	0.866771	-0.898041	-0.869561
C75	C	0.794028	-0.981907	-0.915392
C76	C	0.828227	-1.001565	-1.016691
H77	H	0.933288	-0.932391	-0.865637
H78	H	0.872779	-0.820129	-0.911120
H79	H	0.788032	-1.059805	-0.873843
H80	H	0.727506	-0.947581	-0.919343
H81	H	0.834235	-0.923653	-1.058250
H82	H	0.894744	-1.035911	-1.012757
H83	H	0.778872	-1.058460	-1.047803
H84	H	1.567725	-1.084606	-0.555547
H85	H	0.966443	-0.746009	-0.729689
H86	H	1.391759	-1.129940	-0.379314
C87	C	0.968379	-0.486775	-0.194345
C88	C	0.974822	-0.617170	-0.192173
C89	C	0.880528	-0.678732	-0.152825
H90	H	0.911972	-0.463205	-0.238304
H91	H	0.956462	-0.463667	-0.125153
H92	H	0.986726	-0.640269	-0.261354
H93	H	1.031209	-0.640777	-0.148210
H94	H	0.868611	-0.655623	-0.083633
H95	H	0.824128	-0.655151	-0.196789
H96	H	0.884890	-0.767210	-0.151337
H97	H	0.889927	-0.461347	-0.355050
C98	C	1.688452	-1.113489	-1.030666
C99	C	1.754314	-1.175060	-1.094127
C100	C	1.762744	-1.298268	-1.050791
H101	H	1.620790	-1.157375	-1.026807
H102	H	1.717177	-1.111411	-0.962081
H103	H	1.725585	-1.177145	-1.162694
H104	H	1.821986	-1.131213	-1.097991
H105	H	1.791470	-1.296190	-0.982206
H106	H	1.695078	-1.342141	-1.046934
H107	H	1.807439	-1.340055	-1.093837
C108	C	1.093524	-0.317778	-0.065189
C109	C	1.166237	-0.233860	-0.019376
C110	C	1.131981	-0.214106	0.081882
H111	H	1.087492	-0.395623	-0.023563
H112	H	1.026994	-0.283431	-0.069208
H113	H	1.232749	-0.268211	-0.015350
H114	H	1.172277	-0.156000	-0.060971
H115	H	1.065451	-0.179759	0.077863
H116	H	1.125950	-0.291957	0.123499
H117	H	1.181306	-0.157158	0.112976
H118	H	0.623915	-0.968382	-0.587038
H119	H	1.336417	-0.247472	-0.347686
C120	C	1.800581	-1.024675	-1.225022
C121	C	1.845950	-0.961111	-1.315925
C122	C	1.908092	-1.041583	-1.365783
H123	H	1.758101	-1.096472	-1.243499
H124	H	1.854456	-1.050569	-1.178701
H125	H	1.792081	-0.935236	-1.362237
H126	H	1.888447	-0.889320	-1.297478
H127	H	1.961967	-1.067476	-1.319462
H128	H	1.865604	-1.113376	-1.384252
H129	H	1.938890	-0.998463	-1.427460
H130	H	0.686357	-1.003831	-0.770707
H131	H	1.768716	-0.779505	-1.290283
H132	H	1.273471	-0.135359	-0.893469
C133	C	1.083770	-0.776641	-0.596417
C134	C	1.049081	-0.901473	-0.565412
C135	C	1.098659	-0.982505	-0.627245
H136	H	1.157713	-0.765231	-0.587593
H137	H	1.066970	-0.758352	-0.668223
H138	H	1.065889	-0.919755	-0.493624
H139	H	0.975146	-0.912923	-0.574239
H140	H	1.081858	-0.964216	-0.699051
H141	H	1.172599	-0.971084	-0.618417
H142	H	1.075123	-1.067211	-0.606224
H143	H	1.227606	-0.394062	-0.460040
H144	H	1.656191	-0.633108	-1.200102
C145	C	1.350488	-0.439401	-1.093253
C146	C	1.363766	-0.456643	-1.199985
C147	C	1.301781	-0.376044	-1.260204
H148	H	1.371224	-0.354569	-1.080825
H149	H	1.278687	-0.457882	-1.074141
H150	H	1.435551	-0.438153	-1.219091
H151	H	1.343023	-0.541458	-1.212446
H152	H	1.229980	-0.394525	-1.241091
H153	H	1.322522	-0.291217	-1.247766
H154	H	1.310774	-0.387740	-1.332627
C155	C	1.158870	-0.190704	-0.710885
C156	C	1.054828	-0.242980	-0.704940
C157	C	0.992594	-0.162495	-0.655209
H158	H	1.161534	-0.111243	-0.750056
H159	H	1.184561	-0.180125	-0.641997
H160	H	1.029144	-0.253544	-0.773817
H161	H	1.052131	-0.322432	-0.665763
H162	H	1.018285	-0.151917	-0.586321
H163	H	0.995267	-0.083039	-0.694385
H164	H	0.921997	-0.197959	-0.651161
C165	C	1.305441	-0.615767	-0.723958
C166	C	1.205505	-0.679955	-0.718422
C167	C	1.213522	-0.803212	-0.675018
H168	H	1.334054	-0.613813	-0.655333
H169	H	1.350046	-0.657803	-0.766911
H170	H	1.160916	-0.637930	-0.675469
H171	H	1.176874	-0.681945	-0.787033
H172	H	1.258127	-0.845247	-0.717972
H173	H	1.242138	-0.801244	-0.606396
H174	H	1.145720	-0.846782	-0.671266
H175	H	0.732712	-0.821740	-0.474702
H176	H	1.386037	-0.281741	-0.983649
H177	H	1.190847	-0.435877	-0.645512
