data_functionalizedCrystal
_audit_creation_method	'MofGen! by Chris Wilmer'
_symmetry_space_group_name_H-M	'P1'
_symmetry_Int_Tables_number	1
_symmetry_cell_setting	triclinic
loop_
_symmetry_equiv_pos_as_xyz
  x,y,z
_cell_length_a	16.992694
_cell_length_b	15.944551
_cell_length_c	16.053802
_cell_angle_alpha	92.564789
_cell_angle_beta	87.249047
_cell_angle_gamma	87.083481
loop_
_atom_site_label
_atom_site_type_symbol
_atom_site_fract_x
_atom_site_fract_y
_atom_site_fract_z
O1	O	1.043704	0.174798	-0.069327
O2	O	0.815419	0.172843	-0.069352
O3	O	0.935795	0.051964	-0.069332
O4	O	0.923328	0.295677	-0.069348
O5	O	0.929169	0.058588	0.069526
O6	O	0.808793	0.179467	0.069506
O7	O	1.037078	0.181422	0.069530
Zn8	Zn	0.921884	0.181497	0.091565
Zn9	Zn	0.930613	0.172769	-0.091386
O10	O	0.916702	0.302301	0.069510
C11	C	0.782894	0.173641	0.000074
C12	C	0.695850	0.166141	0.000065
C13	C	0.645613	0.238506	0.000061
C14	C	0.563826	0.231454	0.000073
C15	C	0.532276	0.152037	0.000083
C16	C	0.582519	0.079667	0.000089
C17	C	0.664305	0.086719	0.000083
C18	C	0.288676	0.122807	0.000107
C19	C	0.206884	0.115759	0.000111
C20	C	0.188196	0.267548	0.000095
C21	C	0.269984	0.274593	0.000084
C22	C	0.320220	0.202223	0.000095
N23	N	0.448677	0.144827	0.000092
N24	N	0.403818	0.209434	0.000092
C25	C	0.931964	0.023948	0.000097
C26	C	0.930413	-0.069402	0.000098
C27	C	0.852090	-0.289513	0.000078
C28	C	0.885194	-0.344825	0.068547
C29	C	0.927606	-0.240317	0.000091
C30	C	0.891744	-0.351338	-0.068356
C31	C	0.924889	-0.405412	0.000081
C32	C	0.960728	-0.294396	0.068617
C33	C	0.967271	-0.300907	-0.068348
C34	C	1.000429	-0.356196	0.000138
C35	C	0.929169	-0.145209	0.000098
C36	C	0.923332	-0.500518	0.000080
C37	C	1.069603	0.180624	0.000103
C38	C	1.156648	0.188124	0.000106
C39	C	0.920533	0.330318	0.000079
C40	C	0.922085	0.423667	0.000073
N41	N	0.915931	0.187453	0.216424
N42	N	0.936572	0.166806	-0.216246
C43	C	0.967170	0.136040	0.260127
C44	C	0.963014	0.140215	0.347533
C45	C	0.907622	0.195808	0.391235
C46	C	0.856378	0.247223	0.347526
C47	C	0.860531	0.243043	0.260121
C48	C	0.889481	0.214042	0.652641
C49	C	0.885333	0.218220	0.740052
C50	C	0.991968	0.111209	0.740053
C51	C	0.996120	0.107038	0.652646
C52	C	0.944873	0.158450	0.608945
N53	N	0.903374	0.200078	0.480578
N54	N	0.949118	0.154175	0.519604
H55	H	0.556825	0.015004	0.000110
H56	H	0.989876	-0.269501	0.126566
H57	H	1.063164	-0.385145	0.000184
O58	O	0.857033	-0.381262	-0.137437
C59	C	0.911273	-0.435932	-0.185202
H60	H	0.958264	-0.461620	-0.143353
H61	H	0.878923	-0.490266	-0.213731
H62	H	0.940492	-0.400118	-0.237146
H63	H	1.012279	0.090773	0.224550
O64	O	0.514985	0.301729	0.000208
C65	C	0.463682	0.305621	0.072115
H66	H	0.491242	0.267088	0.122388
H67	H	0.453336	0.373819	0.096239
H68	H	0.404984	0.279106	0.055865
O69	O	0.810872	0.293026	0.217574
C70	C	0.855262	0.345288	0.167014
H71	H	0.917238	0.315366	0.153918
H72	H	0.825455	0.353418	0.105553
H73	H	0.858987	0.409341	0.200685
O74	O	0.712997	0.016337	0.000046
C75	C	0.667615	-0.055271	0.000075
H76	H	0.607826	-0.039304	-0.026211
H77	H	0.699701	-0.108235	-0.040237
H78	H	0.658622	-0.076178	0.066694
H79	H	1.033690	0.069351	0.775642
H80	H	0.811273	0.292485	0.383113
H81	H	0.789404	-0.260406	0.000139
O82	O	1.012878	0.090249	0.389856
C83	C	1.062652	0.040279	0.332541
H84	H	1.066488	0.071797	0.270228
H85	H	1.124071	0.032931	0.357785
H86	H	1.037649	-0.024297	0.323264
O87	O	1.049949	0.052958	0.610327
C88	C	1.094297	0.008488	0.667643
H89	H	1.059191	0.008339	0.729954
H90	H	1.107458	-0.058989	0.642399
H91	H	1.152100	0.040154	0.676926
O92	O	0.843675	-0.368036	0.137534
C93	C	0.765512	-0.333870	0.137295
H94	H	0.750494	-0.320022	0.070668
H95	H	0.723370	-0.380829	0.163153
H96	H	0.759468	-0.273133	0.177870
H97	H	0.147286	0.326467	0.000088
O98	O	1.008528	-0.277659	-0.137482
C99	C	0.971957	-0.306634	-0.209532
H100	H	0.907248	-0.316904	-0.193136
H101	H	0.976243	-0.257949	-0.259214
H102	H	1.002806	-0.368476	-0.234509
O103	O	0.831444	0.272237	0.782376
C104	C	0.787112	0.316730	0.725063
H105	H	0.789191	0.279257	0.662762
H106	H	0.723296	0.326493	0.750326
H107	H	0.812998	0.380417	0.715756
H108	H	0.295666	0.339262	0.000066
O109	O	0.676125	0.315719	0.000087
C110	C	0.614243	0.378075	0.000066
H111	H	0.557434	0.352052	0.026361
H112	H	0.629418	0.435116	0.040374
H113	H	0.605838	0.397482	-0.066552
O114	O	0.176365	0.038546	0.000157
C115	C	0.238242	-0.023819	0.000143
H116	H	0.292551	0.004706	0.026432
H117	H	0.219223	-0.077010	0.040461
H118	H	0.252986	-0.049584	-0.066472
H119	H	0.847755	0.255905	0.617067
H120	H	0.329568	0.063878	0.000117
