data_functionalizedCrystal
_audit_creation_method	'MofGen! by Chris Wilmer'
_symmetry_space_group_name_H-M	'P1'
_symmetry_Int_Tables_number	1
_symmetry_cell_setting	triclinic
loop_
_symmetry_equiv_pos_as_xyz
  x,y,z
_cell_length_a	10.654550
_cell_length_b	9.065215
_cell_length_c	9.730223
_cell_angle_alpha	89.996553
_cell_angle_beta	89.999957
_cell_angle_gamma	84.749814
loop_
_atom_site_label
_atom_site_type_symbol
_atom_site_fract_x
_atom_site_fract_y
_atom_site_fract_z
O1	O	1.668658	0.207235	-0.114184
O2	O	1.303258	0.226979	-0.114209
O3	O	1.493512	0.002423	-0.114190
O4	O	1.478403	0.431791	-0.114203
O5	O	1.493500	0.002417	0.114390
O6	O	1.303245	0.226973	0.114371
O7	O	1.668646	0.207229	0.114396
Zn8	Zn	1.485943	0.217100	0.150675
Zn9	Zn	1.485960	0.217108	-0.150489
O10	O	1.478391	0.431785	0.114377
C11	C	1.256448	0.225526	0.000078
C12	C	1.116987	0.221189	0.000068
C13	C	1.038024	0.353404	0.000068
C14	C	0.906987	0.349320	0.000092
C15	C	0.933889	0.080794	0.000111
C16	C	1.064924	0.084879	0.000096
C17	C	1.492055	-0.052559	0.000098
C18	C	1.487716	-0.216378	0.000094
C19	C	1.715455	0.208682	0.000106
C20	C	1.854916	0.213019	0.000106
C21	C	1.479848	0.486767	0.000085
C22	C	1.484187	0.650586	0.000081
N23	N	1.485941	0.217093	0.356212
N24	N	1.485972	0.217103	-0.356025
C25	C	1.570216	0.117702	0.428146
C26	C	1.570228	0.117703	0.572029
C27	C	1.401688	0.316498	0.572031
C28	C	1.401671	0.316490	0.428150
H29	H	0.891483	-0.030185	0.000142
C30	C	1.308964	0.425828	0.349010
C31	C	1.216324	0.535225	0.428130
C32	C	1.123619	0.644553	0.348988
C33	C	1.123555	0.644482	0.190726
C34	C	1.216199	0.535080	0.111596
C35	C	1.308904	0.425753	0.190738
H36	H	1.216368	0.535281	0.545294
H37	H	1.055038	0.725539	0.407566
H38	H	1.054929	0.725412	0.132140
H39	H	1.216155	0.535024	-0.005567
H40	H	1.377485	0.344767	0.132160
C41	C	1.662934	0.008376	0.651158
C42	C	1.755645	-0.100929	0.572025
C43	C	1.848354	-0.210263	0.651155
C44	C	1.848352	-0.210291	0.809418
C45	C	1.755638	-0.100982	0.888560
C46	C	1.662929	0.008351	0.809430
H47	H	1.755649	-0.100912	0.454862
H48	H	1.916987	-0.291180	0.592568
H49	H	1.916981	-0.291227	0.867994
H50	H	1.755634	-0.101000	1.005723
H51	H	1.594297	0.089269	0.868017
H52	H	1.129219	-0.022793	0.000100
H53	H	1.080410	0.464395	0.000056
H54	H	1.333079	0.397427	0.630617
H55	H	1.638832	0.036766	0.369577
H56	H	0.842700	0.456983	0.000095
