data_functionalizedCrystal
_audit_creation_method	'MofGen! by Chris Wilmer'
_symmetry_space_group_name_H-M	'P1'
_symmetry_Int_Tables_number	1
_symmetry_cell_setting	triclinic
loop_
_symmetry_equiv_pos_as_xyz
  x,y,z
_cell_length_a	14.853558
_cell_length_b	14.853567
_cell_length_c	9.730223
_cell_angle_alpha	90.002458
_cell_angle_beta	90.000319
_cell_angle_gamma	83.633032
loop_
_atom_site_label
_atom_site_type_symbol
_atom_site_fract_x
_atom_site_fract_y
_atom_site_fract_z
O1	O	1.196365	0.117660	-0.114261
O2	O	1.696365	0.617660	0.385739
O3	O	0.933904	0.131691	-0.114266
O4	O	1.433904	0.631691	0.385734
O5	O	1.072145	-0.006555	-0.114268
O6	O	1.572145	0.493445	0.385732
O7	O	1.058124	0.255905	-0.114260
O8	O	1.558124	0.755905	0.385740
O9	O	1.072144	-0.006551	0.114312
O10	O	1.572144	0.493449	0.614312
O11	O	0.933903	0.131694	0.114314
O12	O	1.433903	0.631694	0.614314
O13	O	1.196363	0.117664	0.114319
O14	O	1.696363	0.617664	0.614319
Zn15	Zn	1.065133	0.124680	0.150608
Zn16	Zn	1.565133	0.624680	0.650608
Zn17	Zn	1.065135	0.124675	-0.150556
Zn18	Zn	1.565135	0.624675	0.349444
O19	O	1.058122	0.255909	0.114320
O20	O	1.558122	0.755909	0.614320
C21	C	0.900314	0.131058	0.000023
C22	C	1.400314	0.631058	0.500023
C23	C	0.800230	0.129158	0.000020
C24	C	1.300230	0.629158	0.500020
C25	C	1.071509	-0.040141	0.000018
C26	C	1.571509	0.459859	0.500018
C27	C	1.069605	-0.140225	0.000006
C28	C	1.569605	0.359775	0.500006
C29	C	0.753211	0.128264	-0.124584
C30	C	1.253211	0.628264	0.375416
C31	C	0.753208	0.128257	0.124623
C32	C	1.253208	0.628257	0.624623
C33	C	0.659174	0.126467	0.124625
C34	C	1.159174	0.626467	0.624625
C35	C	0.612155	0.125574	0.000021
C36	C	1.112155	0.625574	0.500021
C37	C	0.659169	0.126471	-0.124585
C38	C	1.159169	0.626471	0.375415
C39	C	0.612154	0.125561	0.249229
C40	C	1.112154	0.625561	0.749229
C41	C	0.518114	0.123769	0.249236
C42	C	1.018114	0.623769	0.749236
C43	C	0.471093	0.122882	0.124631
C44	C	0.971093	0.622882	0.624631
C45	C	0.518113	0.123781	0.000019
C46	C	1.018113	0.623781	0.500019
C47	C	0.471093	0.122887	-0.124585
C48	C	0.971093	0.622887	0.375415
C49	C	0.518111	0.123792	-0.249198
C50	C	1.018111	0.623792	0.250802
C51	C	0.612147	0.125584	-0.249191
C52	C	1.112147	0.625584	0.250809
C53	C	0.377056	0.121090	0.124624
C54	C	0.877056	0.621090	0.624624
C55	C	0.377051	0.121094	-0.124586
C56	C	0.877051	0.621094	0.375414
C57	C	0.979439	-0.552756	0.000031
C58	C	1.479439	-0.052756	0.500031
C59	C	1.143673	-0.574042	0.000034
C60	C	1.643673	-0.074042	0.500034
C61	C	1.145463	-0.480009	0.000026
C62	C	1.645463	0.019991	0.500026
C63	C	1.064240	-0.422344	0.000022
C64	C	1.564240	0.077656	0.500022
C65	C	0.981227	-0.458713	0.000027
C66	C	1.481227	0.041287	0.500027
C67	C	1.228474	-0.443632	0.000035
C68	C	1.728474	0.056368	0.500035
C69	C	1.230268	-0.349593	0.000029
C70	C	1.730268	0.150407	0.500029
C71	C	1.149044	-0.291927	0.000015
C72	C	1.649044	0.208073	0.500015
C73	C	1.066027	-0.328301	0.000018
C74	C	1.566027	0.171699	0.500018
C75	C	0.984805	-0.270637	0.000015
C76	C	1.484805	0.229363	0.500015
C77	C	0.901787	-0.307009	0.000008
C78	C	1.401787	0.192991	0.500008
C79	C	0.900003	-0.401047	0.000013
C80	C	1.400003	0.098953	0.500013
C81	C	1.150828	-0.197890	0.000010
C82	C	1.650828	0.302110	0.500010
C83	C	0.986592	-0.176594	0.000011
C84	C	1.486592	0.323406	0.500011
C85	C	1.229953	0.118296	0.000027
C86	C	1.729953	0.618296	0.500027
C87	C	1.330037	0.120197	0.000020
C88	C	1.830037	0.620197	0.500020
C89	C	1.058758	0.289496	0.000031
C90	C	1.558758	0.789496	0.500031
C91	C	1.060662	0.389580	0.000034
C92	C	1.560662	0.889580	0.500034
N93	N	1.065138	0.124682	0.356145
N94	N	1.565138	0.624682	0.856145
N95	N	1.065137	0.124665	-0.356092
N96	N	1.565137	0.624665	0.143908
C97	C	1.126366	0.063488	0.428070
C98	C	1.626366	0.563488	0.928070
C99	C	1.126364	0.063477	0.571953
C100	C	1.626364	0.563477	1.071953
C101	C	1.003901	0.185862	0.571972
C102	C	1.503901	0.685862	1.071972
C103	C	1.003900	0.185868	0.428092
C104	C	1.503900	0.685868	0.928092
C105	C	1.197072	-0.007168	0.428060
C106	C	1.697072	0.492832	0.928060
C107	C	1.197070	-0.007179	0.571943
C108	C	1.697070	0.492821	1.071943
H109	H	0.338774	0.120372	-0.226056
H110	H	0.838774	0.620372	0.273944
H111	H	0.835656	-0.260047	0.000015
H112	H	1.335656	0.239953	0.500015
F113	F	0.938731	0.250977	0.648555
F114	F	1.438731	0.750977	1.148555
F115	F	0.811658	-0.439764	0.000002
F116	F	1.311658	0.060236	0.500002
F117	F	1.239175	-0.159183	0.000039
F118	F	1.739175	0.340817	0.500039
H119	H	1.266238	0.007750	0.610996
H120	H	1.766238	0.507750	1.110996
H121	H	0.911848	-0.582375	0.000020
H122	H	1.411848	-0.082375	0.500020
H123	H	0.650445	0.126280	0.350675
H124	H	1.150445	0.626280	0.850675
H125	H	0.791496	0.129005	-0.226040
H126	H	1.291496	0.629005	0.273960
H127	H	0.479841	0.123031	0.350704
H128	H	0.979841	0.623031	0.850704
H129	H	1.209801	-0.620998	0.000048
H130	H	1.709801	-0.120998	0.500048
F131	F	0.662193	0.126538	-0.381801
F132	F	1.162193	0.626538	0.118199
F133	F	1.282412	0.020902	0.369726
F134	F	1.782412	0.520902	0.869726
H135	H	1.175653	-0.072502	0.616556
H136	H	1.675653	0.427498	1.116556
F137	F	1.314911	-0.505006	0.000064
F138	F	1.814911	-0.005006	0.500064
F139	F	1.318621	-0.310891	0.000019
F140	F	1.818621	0.189109	0.500019
F141	F	1.177627	-0.097593	0.377003
F142	F	1.677627	0.402407	0.877003
F143	F	0.468061	0.122824	-0.381806
F144	F	0.968061	0.622824	0.118194
F145	F	0.803251	0.129205	0.257227
F146	F	1.303251	0.629205	0.757227
H147	H	0.338778	0.120362	0.226082
H148	H	0.838778	0.620362	0.726082
H149	H	0.920449	-0.129649	0.000002
H150	H	1.420449	0.370351	0.500002
F151	F	0.938723	0.250988	0.351544
F152	F	1.438723	0.750988	0.851544
