data_functionalizedCrystal
_audit_creation_method	'MofGen! by Chris Wilmer'
_symmetry_space_group_name_H-M	'P1'
_symmetry_Int_Tables_number	1
_symmetry_cell_setting	triclinic
loop_
_symmetry_equiv_pos_as_xyz
  x,y,z
_cell_length_a	10.723022
_cell_length_b	10.489741
_cell_length_c	9.798715
_cell_angle_alpha	89.997135
_cell_angle_beta	89.996609
_cell_angle_gamma	84.503200
loop_
_atom_site_label
_atom_site_type_symbol
_atom_site_fract_x
_atom_site_fract_y
_atom_site_fract_z
O1	O	1.657298	0.178897	-0.113481
O2	O	1.294156	0.196024	-0.113486
O3	O	1.483990	0.001857	-0.113475
O4	O	1.467464	0.373063	-0.113492
O5	O	1.483976	0.001856	0.113507
O6	O	1.294141	0.196023	0.113496
O7	O	1.657284	0.178896	0.113501
Zn8	Zn	1.475710	0.187459	0.149537
Zn9	Zn	1.475729	0.187460	-0.149522
O10	O	1.467449	0.373063	0.113490
C11	C	1.247648	0.194777	0.000005
C12	C	1.109092	0.191050	0.000003
C13	C	1.482735	-0.045674	0.000015
C14	C	1.479000	-0.187301	0.000012
C15	C	1.060462	0.079080	0.000007
C16	C	0.917257	0.075225	0.000006
C17	C	1.358214	-0.255364	0.000001
C18	C	1.415265	-0.347523	0.111915
C19	C	1.415308	-0.347497	-0.111871
C20	C	1.536101	-0.277596	0.112019
C21	C	1.536127	-0.277560	-0.111868
C22	C	1.593266	-0.369692	0.000074
C23	C	1.703791	0.180142	0.000007
C24	C	1.842348	0.183870	-0.000000
C25	C	1.468705	0.420594	-0.000003
C26	C	1.472439	0.562221	-0.000009
N27	N	1.475707	0.187458	0.353637
N28	N	1.475743	0.187451	-0.353622
C29	C	1.555413	0.105574	0.421418
C30	C	1.555433	0.105569	0.578581
H31	H	1.124848	-0.013926	0.000005
H32	H	1.587197	-0.246548	-0.206487
H33	H	0.884210	0.279742	0.000004
Br34	Br	1.330101	-0.399090	-0.269559
Br35	Br	1.669187	-0.011273	0.675725
H36	H	1.407504	0.257564	0.588098
Br37	Br	1.001790	0.346077	-0.000021
Br38	Br	1.758935	-0.452180	0.000170
Br39	Br	1.192693	-0.172503	0.000173
Br40	Br	1.330080	-0.399156	0.269616
Br41	Br	1.621207	-0.226273	0.269893
Br42	Br	0.847480	-0.084570	0.000028
Br43	Br	1.668813	-0.011596	0.324226
H44	H	1.407477	0.257555	0.411957
