data_functionalizedCrystal
_audit_creation_method	'MofGen! by Chris Wilmer'
_symmetry_space_group_name_H-M	'P1'
_symmetry_Int_Tables_number	1
_symmetry_cell_setting	triclinic
loop_
_symmetry_equiv_pos_as_xyz
  x,y,z
_cell_length_a	17.699083
_cell_length_b	11.792241
_cell_length_c	16.776229
_cell_angle_alpha	89.993219
_cell_angle_beta	89.998886
_cell_angle_gamma	83.738215
loop_
_atom_site_label
_atom_site_type_symbol
_atom_site_fract_x
_atom_site_fract_y
_atom_site_fract_z
O1	O	1.004843	0.143527	-0.066177
O2	O	1.504843	0.643527	0.433823
O3	O	0.784565	0.162200	-0.066203
O4	O	1.284565	0.662200	0.433797
O5	O	0.900050	-0.012371	-0.066184
O6	O	1.400050	0.487629	0.433816
O7	O	0.889358	0.318098	-0.066196
O8	O	1.389358	0.818098	0.433804
O9	O	0.900034	-0.012382	0.066393
O10	O	1.400034	0.487618	0.566393
O11	O	0.784549	0.162189	0.066374
O12	O	1.284549	0.662189	0.566374
O13	O	1.004828	0.143516	0.066400
O14	O	1.504828	0.643516	0.566400
Zn15	Zn	0.894686	0.152851	0.087436
Zn16	Zn	1.394686	0.652851	0.587436
Zn17	Zn	0.894706	0.152865	-0.087239
Zn18	Zn	1.394706	0.652865	0.412761
O19	O	0.889343	0.318087	0.066381
O20	O	1.389343	0.818087	0.566381
C21	C	0.756356	0.161525	0.000082
C22	C	1.256356	0.661525	0.500082
C23	C	0.672328	0.159518	0.000072
C24	C	1.172328	0.659518	0.500072
C25	C	0.624253	0.261988	0.000069
C26	C	1.124253	0.761988	0.500069
C27	C	0.545299	0.260095	0.000079
C28	C	1.045299	0.760095	0.500079
C29	C	0.514422	0.155731	0.000087
C30	C	1.014422	0.655731	0.500087
C31	C	0.562503	0.053254	0.000093
C32	C	1.062503	0.553254	0.500093
C33	C	0.641455	0.055148	0.000089
C34	C	1.141455	0.555148	0.500089
C35	C	0.244099	0.045613	0.000113
C36	C	0.744099	0.545613	0.500113
C37	C	0.165141	0.043727	0.000116
C38	C	0.665141	0.543727	0.500116
C39	C	0.147944	0.250560	0.000104
C40	C	0.647944	0.750560	0.500104
C41	C	0.226896	0.252454	0.000099
C42	C	0.726896	0.752454	0.500099
C43	C	0.274970	0.149977	0.000109
C44	C	0.774970	0.649977	0.500109
C45	C	0.360580	0.152031	0.000099
C46	C	0.860580	0.652031	0.500099
C47	C	0.428814	0.153676	0.000091
C48	C	0.928814	0.653676	0.500091
C49	C	0.899370	-0.054660	0.000104
C50	C	1.399370	0.445340	0.500104
C51	C	0.897360	-0.180649	0.000103
C52	C	1.397360	0.319351	0.500103
C53	C	0.893664	-0.411317	0.000090
C54	C	1.393664	0.088683	0.500090
C55	C	0.895718	-0.282956	0.000097
C56	C	1.395718	0.217044	0.500097
C57	C	1.033036	0.144190	0.000113
C58	C	1.533036	0.644190	0.500113
C59	C	1.117065	0.146198	0.000118
C60	C	1.617065	0.646198	0.500118
C61	C	0.890022	0.360375	0.000091
C62	C	1.390022	0.860375	0.500091
C63	C	0.892032	0.486365	0.000087
C64	C	1.392032	0.986365	0.500087
N65	N	0.894678	0.152841	0.206647
N66	N	1.394678	0.652841	0.706647
N67	N	0.894721	0.152866	-0.206450
N68	N	1.394721	0.652866	0.293550
C69	C	0.945830	0.075572	0.248373
C70	C	1.445830	0.575572	0.748373
C71	C	0.945834	0.075571	0.331825
C72	C	1.445834	0.575571	0.831825
C73	C	0.894689	0.152845	0.373550
C74	C	1.394689	0.652845	0.873550
C75	C	0.843531	0.230117	0.331819
C76	C	1.343531	0.730117	0.831819
C77	C	0.843524	0.230112	0.248368
C78	C	1.343524	0.730112	0.748368
C79	C	0.843559	0.230139	0.668366
C80	C	1.343559	0.730139	1.168366
C81	C	0.843571	0.230141	0.751822
C82	C	1.343571	0.730141	1.251822
C83	C	0.945869	0.075599	0.751823
C84	C	1.445869	0.575599	1.251823
C85	C	0.945862	0.075593	0.668372
C86	C	1.445862	0.575593	1.168372
C87	C	0.894702	0.152861	0.626648
C88	C	1.394702	0.652861	1.126648
C89	C	0.894697	0.152860	0.536160
C90	C	1.394697	0.652860	1.036160
C91	C	0.894697	0.152853	0.464037
C92	C	1.394697	0.652853	0.964037
H93	H	0.649386	0.346973	0.000061
H94	H	1.149386	0.846973	0.500061
O95	O	0.793742	0.305065	0.372314
O96	O	1.293742	0.805065	0.872314
C97	C	0.718748	0.286766	0.351921
C98	C	1.218748	0.786766	0.851921
H99	H	0.718009	0.195896	0.328990
H100	H	1.218009	0.695896	0.828990
H101	H	0.680825	0.299891	0.406806
H102	H	1.180825	0.799891	0.906806
H103	H	0.696766	0.349714	0.303478
H104	H	1.196766	0.849714	0.803478
O105	O	0.793800	0.305050	0.627802
O106	O	1.293800	0.805050	1.127802
C107	C	0.746865	0.244366	0.579525
C108	C	1.246865	0.744366	1.079525
H109	H	0.745215	0.154862	0.604683
H110	H	1.245215	0.654862	1.104683
H111	H	0.686903	0.290799	0.578577
H112	H	1.186903	0.790799	1.078577
H113	H	0.770525	0.238365	0.516278
H114	H	1.270525	0.738365	1.016278
H115	H	0.283232	-0.037830	0.000122
H116	H	0.783232	0.462170	0.500122
O117	O	0.995665	0.000637	0.792318
O118	O	1.495665	0.500637	1.292318
C119	C	1.070657	0.018927	0.771900
C120	C	1.570657	0.518927	1.271900
H121	H	1.071395	0.109799	0.748957
H122	H	1.571395	0.609799	1.248957
H123	H	1.108591	0.005793	0.826776
H124	H	1.608591	0.505793	1.326776
H125	H	1.092623	-0.044019	0.723460
H126	H	1.592623	0.455981	1.223460
H127	H	0.987486	0.012653	0.365798
H128	H	1.487486	0.512653	0.865798
O129	O	0.995467	0.000291	0.627943
O130	O	1.495467	0.500291	1.127943
C131	C	0.982647	-0.111973	0.648460
C132	C	1.482647	0.388027	1.148460
H133	H	0.922032	-0.112298	0.671368
H134	H	1.422032	0.387702	1.171368
H135	H	0.991128	-0.169067	0.593643
H136	H	1.491128	0.330933	1.093643
H137	H	1.024415	-0.145335	0.696956
H138	H	1.524415	0.354665	1.196956
O139	O	0.793940	0.305220	0.207745
O140	O	1.293940	0.805220	0.707745
C141	C	0.834750	0.375181	0.159474
C142	C	1.334750	0.875181	0.659474
H143	H	0.893787	0.329867	0.146970
H144	H	1.393787	0.829867	0.646970
H145	H	0.803228	0.393188	0.100793
H146	H	1.303228	0.893188	0.600793
H147	H	0.840234	0.459058	0.191623
H148	H	1.340234	0.959058	0.691623
O149	O	0.532386	-0.048027	0.000067
O150	O	1.032386	0.451973	0.500067
C151	C	0.452392	-0.027729	0.000089
C152	C	0.952392	0.472271	0.500089
H153	H	0.434216	0.060893	-0.025016
H154	H	0.934216	0.560893	0.474984
H155	H	0.427880	-0.094495	-0.038397
H156	H	0.927880	0.405505	0.461603
H157	H	0.430396	-0.033172	0.063693
H158	H	0.930396	0.466828	0.563693
H159	H	0.680598	-0.028294	0.000091
H160	H	1.180598	0.471706	0.500091
H161	H	0.506159	0.343536	0.000075
H162	H	1.006159	0.843536	0.500075
H163	H	0.252031	0.337438	0.000089
H164	H	0.752031	0.837438	0.500089
H165	H	0.140005	-0.041263	0.000123
H166	H	0.640005	0.458737	0.500123
H167	H	0.987482	0.012652	0.214406
H168	H	1.487482	0.512652	0.714406
H169	H	0.108792	0.334002	0.000100
H170	H	0.608792	0.834002	0.500100
H171	H	0.801920	0.293069	0.785794
H172	H	1.301920	0.793069	1.285794
