data_functionalizedCrystal
_audit_creation_method	'MofGen! by Chris Wilmer'
_symmetry_space_group_name_H-M	'P1'
_symmetry_Int_Tables_number	1
_symmetry_cell_setting	triclinic
loop_
_symmetry_equiv_pos_as_xyz
  x,y,z
_cell_length_a	16.120530
_cell_length_b	14.908520
_cell_length_c	14.908308
_cell_angle_alpha	83.639235
_cell_angle_beta	90.548374
_cell_angle_gamma	89.416769
loop_
_atom_site_label
_atom_site_type_symbol
_atom_site_fract_x
_atom_site_fract_y
_atom_site_fract_z
Zn1	Zn	1.217782	0.460872	-0.603406
Zn2	Zn	1.217688	0.603512	-0.460771
Zn3	Zn	1.087711	0.444591	-0.444498
Zn4	Zn	1.070713	0.603616	-0.603530
O5	O	1.148474	0.528147	-0.528051
O6	O	1.333714	0.486563	-0.591244
O7	O	1.207521	0.575573	-0.332363
O8	O	1.112119	0.320503	-0.458715
O9	O	1.333644	0.591360	-0.486450
O10	O	1.207681	0.332464	-0.575464
O11	O	1.112028	0.458815	-0.320407
O12	O	0.969512	0.458916	-0.458835
O13	O	1.083148	0.591538	-0.729763
O14	O	0.957024	0.575751	-0.575676
O15	O	1.191198	0.486664	-0.729672
O16	O	1.191038	0.729773	-0.486571
O17	O	1.083056	0.729850	-0.591456
C18	C	1.135214	0.762548	-0.540813
C19	C	1.129615	0.862832	-0.546308
C20	C	0.933205	0.515579	-0.515504
C21	C	0.841110	0.510225	-0.510159
C22	C	1.135287	0.540929	-0.763368
C23	C	1.129668	0.546375	-0.863645
C24	C	0.672491	0.500429	-0.500406
C25	C	0.625289	0.555936	-0.555766
C26	C	0.531464	0.550486	-0.550340
C27	C	0.766325	0.505878	-0.505831
C28	C	1.364583	0.540766	-0.540648
C29	C	1.456675	0.546143	-0.546016
C30	C	1.161806	0.292834	-0.515260
C31	C	1.167488	0.192557	-0.509810
C32	C	1.231640	1.051146	-0.447515
C33	C	1.226383	1.145372	-0.452675
C34	C	1.113848	1.145511	-0.561791
C35	C	1.119105	1.051285	-0.556631
C36	C	1.178003	1.004106	-0.499490
C37	C	1.183255	0.909878	-0.494327
C38	C	1.070725	0.910020	-0.603447
C39	C	1.065468	1.004245	-0.608607
C40	C	1.231621	0.447384	-1.051983
C41	C	1.226344	0.452499	-1.146203
C42	C	1.113834	0.561714	-1.146306
C43	C	1.119111	0.556599	-1.052086
C44	C	1.178007	0.499433	-1.004928
C45	C	1.183288	0.494324	-0.910707
C46	C	1.070774	0.603534	-0.910811
C47	C	1.065497	0.608648	-1.005031
C48	C	1.161660	0.515354	-0.293650
C49	C	1.167454	0.509662	-0.193368
H50	H	0.655345	0.607550	-0.607238
H51	H	1.065902	1.183941	-0.608318
H52	H	1.279581	0.400842	-1.013587
H53	H	1.017517	1.042671	-0.655131
N54	N	0.632681	0.432079	-0.432218
H55	H	0.650534	0.369253	-0.443660
H56	H	0.570336	0.437922	-0.437997
H57	H	1.231210	0.871466	-0.447797
H58	H	1.279591	1.012732	-0.400982
N59	N	1.284236	1.196110	-0.396619
H60	H	1.322343	1.151922	-0.359640
H61	H	1.250701	1.231018	-0.355014
H62	H	1.027120	0.645919	-0.872489
H63	H	1.027047	0.871708	-0.645766
H64	H	1.231245	0.447778	-0.872313
H65	H	1.270000	0.410112	-1.184512
N66	N	1.050283	0.623327	-1.197173
H67	H	1.055068	0.618653	-1.263999
H68	H	1.060423	0.687631	-1.184983
H69	H	1.017544	0.655189	-1.043440
