data_functionalizedCrystal
_audit_creation_method	'MofGen! by Chris Wilmer'
_symmetry_space_group_name_H-M	'P1'
_symmetry_Int_Tables_number	1
_symmetry_cell_setting	triclinic
loop_
_symmetry_equiv_pos_as_xyz
  x,y,z
_cell_length_a	14.908571
_cell_length_b	18.050589
_cell_length_c	14.908308
_cell_angle_alpha	93.269302
_cell_angle_beta	90.175053
_cell_angle_gamma	86.724558
loop_
_atom_site_label
_atom_site_type_symbol
_atom_site_fract_x
_atom_site_fract_y
_atom_site_fract_z
Zn1	Zn	1.345230	-0.387558	-0.587600
Zn2	Zn	1.845230	0.112442	-0.087600
Zn3	Zn	1.353791	-0.505024	-0.437245
Zn4	Zn	1.853791	-0.005024	0.062755
Zn5	Zn	1.203548	-0.373294	-0.428597
Zn6	Zn	1.703548	0.126706	0.071403
Zn7	Zn	1.194819	-0.504142	-0.578897
Zn8	Zn	1.694819	-0.004142	-0.078897
O9	O	1.274347	-0.442504	-0.508085
O10	O	1.774347	0.057496	-0.008085
O11	O	1.472191	-0.409479	-0.574916
O12	O	1.972191	0.090521	-0.074916
O13	O	1.341097	-0.481949	-0.310273
O14	O	1.841097	0.018051	0.189727
O15	O	1.222413	-0.271266	-0.449712
O16	O	1.722413	0.228734	0.050288
O17	O	1.478480	-0.495781	-0.464452
O18	O	1.978480	0.004219	0.035548
O19	O	1.326506	-0.281746	-0.566530
O20	O	1.826506	0.218254	-0.066530
O21	O	1.230714	-0.385168	-0.303919
O22	O	1.730714	0.114832	0.196081
O23	O	1.076565	-0.384312	-0.441273
O24	O	1.576565	0.115688	0.058727
O25	O	1.207536	-0.494277	-0.705876
O26	O	1.707536	0.005723	-0.205876
O27	O	1.070152	-0.480446	-0.551698
O28	O	1.570152	0.019554	-0.051698
O29	O	1.318042	-0.408624	-0.712270
O30	O	1.818042	0.091376	-0.212270
O31	O	1.332633	-0.608827	-0.456013
O32	O	1.832633	-0.108827	0.043987
O33	O	1.215836	-0.608179	-0.560084
O34	O	1.715836	-0.108179	-0.060084
C35	C	1.040734	-0.430736	-0.494603
C36	C	1.540734	0.069264	0.005397
C37	C	0.940791	-0.425720	-0.488857
C38	C	1.440791	0.074280	0.011143
C39	C	1.274239	-0.635451	-0.508063
C40	C	1.774239	-0.135451	-0.008063
C41	C	1.274274	-0.717999	-0.508089
C42	C	1.774274	-0.217999	-0.008089
C43	C	0.746369	-0.516539	-0.592890
C44	C	1.246369	-0.016539	-0.092890
C45	C	0.652464	-0.511829	-0.587494
C46	C	1.152464	-0.011829	-0.087494
C47	C	0.659075	-0.411586	-0.472674
C48	C	1.159075	0.088414	0.027326
C49	C	0.752980	-0.416296	-0.478070
C50	C	1.252980	0.083704	0.021930
C51	C	0.796623	-0.468775	-0.538179
C52	C	1.296623	0.031225	-0.038179
C53	C	0.890530	-0.473489	-0.543570
C54	C	1.390530	0.026511	-0.043570
C55	C	0.897139	-0.373243	-0.428755
C56	C	1.397139	0.126757	0.071245
C57	C	0.803235	-0.368533	-0.423359
C58	C	1.303235	0.131467	0.076641
C59	C	1.210820	-0.917126	-0.564665
C60	C	1.710820	-0.417126	-0.064665
C61	C	1.193639	-0.961795	-0.481356
C62	C	1.693639	-0.461795	0.018644
C63	C	1.274362	-0.869134	-0.508106
C64	C	1.774362	-0.369134	-0.008106
C65	C	1.291586	-0.971550	-0.591427
C66	C	1.791586	-0.471550	-0.091427
C67	C	1.274444	-1.015125	-0.508129
C68	C	1.774444	-0.515125	-0.008129
C69	C	1.257140	-0.912712	-0.424750
C70	C	1.757140	-0.412712	0.075250
C71	C	1.355122	-0.922467	-0.534880
C72	C	1.855122	-0.422467	-0.034880
C73	C	1.337975	-0.967112	-0.451515
C74	C	1.837975	-0.467112	0.048485
C75	C	1.274312	-0.785033	-0.508094
C76	C	1.774312	-0.285033	-0.008094
C77	C	1.274495	-1.099224	-0.508132
C78	C	1.774495	-0.599224	-0.008132
C79	C	1.508873	-0.454320	-0.521619
C80	C	2.008873	0.045680	-0.021619
C81	C	1.608814	-0.459355	-0.527387
C82	C	2.108814	0.040645	-0.027387
C83	C	1.260860	-0.452943	-0.742610
C84	C	1.760860	0.047057	-0.242610
C85	C	1.255113	-0.457391	-0.842551
C86	C	1.755113	0.042609	-0.342551
C87	C	1.274479	-0.248807	-0.508127
C88	C	1.774479	0.251193	-0.008127
C89	C	1.274535	-0.166265	-0.508145
C90	C	1.774535	0.333735	-0.008145
C91	C	1.359381	-0.376542	-1.037010
C92	C	1.859381	0.123458	-0.537010
C93	C	1.353984	-0.380719	-1.130914
C94	C	1.853984	0.119281	-0.630914
C95	C	1.238917	-0.469919	-1.124263
C96	C	1.738917	0.030081	-0.624263
C97	C	1.244314	-0.465741	-1.030360
C98	C	1.744314	0.034259	-0.530360
C99	C	1.304549	-0.419052	-0.986737
C100	C	1.804549	0.080948	-0.486737
C101	C	1.309951	-0.414880	-0.892832
C102	C	1.809951	0.085120	-0.392832
C103	C	1.194880	-0.504075	-0.886183
C104	C	1.694880	-0.004075	-0.386183
C105	C	1.189483	-0.508252	-0.980086
C106	C	1.689483	-0.008252	-0.480086
C107	C	1.287833	-0.432055	-0.274474
C108	C	1.787833	0.067945	0.225526
C109	C	1.293755	-0.427407	-0.174544
C110	C	1.793755	0.072593	0.325456
H111	H	0.926063	-0.516221	-0.592512
H112	H	1.426063	-0.016221	-0.092512
C113	C	0.597182	-0.564368	-0.647672
C114	C	1.097182	-0.064368	-0.147672
H115	H	0.535005	-0.554044	-0.635857
H116	H	1.035005	-0.054044	-0.135857
H117	H	0.613312	-0.614431	-0.635301
H118	H	1.113312	-0.114431	-0.135301
H119	H	0.609116	-0.557030	-0.708996
H120	H	1.109116	-0.057030	-0.208996
H121	H	1.125381	-0.979255	-0.458730
H122	H	1.625381	-0.479255	0.041270
C123	C	0.611057	-0.353873	-0.406553
C124	C	1.111057	0.146127	0.093447
H125	H	0.547934	-0.357916	-0.411172
H126	H	1.047934	0.142084	0.088828
H127	H	0.625702	-0.305350	-0.420682
H128	H	1.125702	0.194650	0.079318
H129	H	0.629903	-0.362762	-0.347000
H130	H	1.129903	0.137238	0.153000
C131	C	1.237393	-0.878136	-0.329539
C132	C	1.737393	-0.378136	0.170461
H133	H	1.229211	-0.916516	-0.289807
H134	H	1.729211	-0.416516	0.210193
H135	H	1.184369	-0.846408	-0.330591
H136	H	1.684369	-0.346408	0.169409
H137	H	1.286428	-0.850162	-0.309474
H138	H	1.786428	-0.350162	0.190526
C139	C	1.410615	-0.996570	-0.386840
C140	C	1.910615	-0.496570	0.113160
H141	H	1.398258	-0.976209	-0.327704
H142	H	1.898258	-0.476209	0.172296
H143	H	1.467808	-0.982454	-0.405343
H144	H	1.967808	-0.482454	0.094657
H145	H	1.410575	-1.049229	-0.387560
H146	H	1.910575	-0.549229	0.112440
C147	C	0.794379	-0.574264	-0.659001
C148	C	1.294379	-0.074264	-0.159001
H149	H	0.750999	-0.602035	-0.690815
H150	H	1.250999	-0.102035	-0.190815
H151	H	0.832974	-0.606879	-0.626644
H152	H	1.332974	-0.106879	-0.126644
H153	H	0.828774	-0.549485	-0.700347
H154	H	1.328774	-0.049485	-0.200347
H155	H	1.157015	-0.895182	-0.612419
H156	H	1.657015	-0.395182	-0.112419
H157	H	1.423362	-0.905010	-0.557544
H158	H	1.923362	-0.405010	-0.057544
C159	C	1.311229	-1.006249	-0.686603
C160	C	1.811229	-0.506249	-0.186603
H161	H	1.265999	-0.989108	-0.726699
H162	H	1.765999	-0.489108	-0.226699
H163	H	1.311665	-1.058854	-0.685831
H164	H	1.811665	-0.558854	-0.185831
H165	H	1.368137	-0.992174	-0.706001
H166	H	1.868137	-0.492174	-0.206001
C167	C	1.376202	-0.363525	-0.844843
C168	C	1.876202	0.136475	-0.344843
H169	H	1.371572	-0.367129	-0.781717
H170	H	1.871572	0.132871	-0.281717
H171	H	1.362188	-0.313651	-0.859482
H172	H	1.862188	0.186349	-0.359482
H173	H	1.435728	-0.378122	-0.863717
H174	H	1.935728	0.121878	-0.363717
C175	C	1.425633	-0.325187	-0.989022
C176	C	1.925633	0.174813	-0.489022
H177	H	1.457514	-0.300464	-1.032413
H178	H	1.957514	0.199536	-0.532413
H179	H	1.466896	-0.353935	-0.954641
H180	H	1.966896	0.146065	-0.454641
H181	H	1.393354	-0.289466	-0.950416
H182	H	1.893354	0.210534	-0.450416
C183	C	0.755222	-0.310815	-0.357240
C184	C	1.255222	0.189185	0.142760
H185	H	0.692098	-0.314853	-0.361857
H186	H	1.192098	0.185147	0.138143
H187	H	0.769872	-0.262294	-0.371375
H188	H	1.269872	0.237706	0.128625
H189	H	0.774069	-0.319701	-0.297687
H190	H	1.274069	0.180299	0.202313
H191	H	1.398631	-0.346101	-1.171843
H192	H	1.898631	0.153899	-0.671843
C193	C	1.172658	-0.521263	-1.172259
C194	C	1.672658	-0.021263	-0.672259
H195	H	1.177299	-0.517660	-1.235384
H196	H	1.677299	-0.017660	-0.735384
H197	H	1.113138	-0.506667	-1.153383
H198	H	1.613138	-0.006667	-0.653383
H199	H	1.186670	-0.571143	-1.157630
H200	H	1.686670	-0.071143	-0.657630
C201	C	0.952421	-0.320699	-0.368573
C202	C	1.452421	0.179301	0.131427
H203	H	1.014598	-0.331016	-0.380397
H204	H	1.514598	0.168984	0.119603
H205	H	0.940486	-0.328028	-0.307253
H206	H	1.440486	0.171972	0.192747
H207	H	0.936293	-0.270634	-0.380956
H208	H	1.436293	0.229366	0.119044
C209	C	1.123233	-0.559608	-1.028077
C210	C	1.623233	-0.059608	-0.528077
H211	H	1.127875	-0.556012	-1.091203
H212	H	1.627875	-0.056012	-0.591203
H213	H	1.063710	-0.545020	-1.009204
H214	H	1.563710	-0.045020	-0.509204
H215	H	1.137258	-0.609484	-1.013439
H216	H	1.637258	-0.109484	-0.513439
H217	H	1.150234	-0.538692	-0.845240
H218	H	1.650234	-0.038692	-0.345240
