data_functionalizedCrystal
_audit_creation_method	'MofGen! by Chris Wilmer'
_symmetry_space_group_name_H-M	'P1'
_symmetry_Int_Tables_number	1
_symmetry_cell_setting	triclinic
loop_
_symmetry_equiv_pos_as_xyz
  x,y,z
_cell_length_a	13.262390
_cell_length_b	11.792254
_cell_length_c	11.804365
_cell_angle_alpha	101.913421
_cell_angle_beta	62.657606
_cell_angle_gamma	84.320360
loop_
_atom_site_label
_atom_site_type_symbol
_atom_site_fract_x
_atom_site_fract_y
_atom_site_fract_z
O1	O	1.519378	0.016679	-0.591129
O2	O	1.191268	0.057786	-0.484862
O3	O	1.363276	-0.128543	-0.540563
O4	O	1.347370	0.203008	-0.535428
O5	O	1.317992	-0.079536	-0.327843
O6	O	1.145984	0.106793	-0.272142
O7	O	1.474094	0.065686	-0.378409
Cu8	Cu	1.305905	0.090714	-0.305853
Cu9	Cu	1.359457	0.032758	-0.557419
O10	O	1.302086	0.252015	-0.322708
C11	C	1.126621	0.084492	-0.364897
C12	C	1.001458	0.091043	-0.324360
C13	C	0.747392	0.002632	-0.673926
C14	C	0.864990	-0.003528	-0.712015
C15	C	0.899113	0.020114	-0.615104
C16	C	0.815626	0.049918	-0.480098
C17	C	0.698018	0.056070	-0.442005
C18	C	0.849738	0.073552	-0.383184
C19	C	0.766251	0.103355	-0.248178
C20	C	0.648655	0.109507	-0.210092
C21	C	0.614532	0.085864	-0.307002
C22	C	0.967347	0.067400	-0.421277
C23	C	0.917972	0.120837	-0.189357
C24	C	0.800374	0.126998	-0.151267
C25	C	1.339632	-0.146254	-0.433879
C26	C	1.336632	-0.272038	-0.432908
C27	C	1.334196	-0.374189	-0.432123
C28	C	1.331151	-0.502345	-0.431148
C29	C	1.538742	0.038979	-0.498376
C30	C	1.663907	0.032427	-0.538922
C31	C	1.325731	0.269725	-0.429395
C32	C	1.328732	0.395507	-0.430374
N33	N	1.268247	0.131476	-0.128917
N34	N	1.397124	-0.008014	-0.734357
C35	C	1.487555	-0.105921	0.174014
C36	C	1.516042	-0.136762	0.040127
C37	C	1.454095	-0.069705	-0.002141
C38	C	1.363657	0.028198	0.089491
C39	C	1.335174	0.059048	0.223389
C40	C	1.301714	0.095264	0.047235
C41	C	1.211276	0.193168	0.138867
C42	C	1.182796	0.224012	0.272751
C43	C	1.244743	0.156955	0.315019
C44	C	1.330198	0.064414	-0.086663
C45	C	1.177816	0.229383	-0.037287
C46	C	1.149329	0.260225	0.096599
H47	H	0.945753	0.140087	-0.110444
H48	H	0.580683	0.133754	-0.100162
H49	H	1.403832	-0.015299	-0.161259
H50	H	0.732383	0.151263	-0.041343
O51	O	1.554366	-0.178239	0.219597
H52	H	1.519361	-0.140340	0.328094
O53	O	1.025946	0.013500	-0.656175
H54	H	1.078265	-0.011178	-0.766332
H55	H	1.589676	-0.216473	-0.034475
O56	O	1.057381	0.035249	-0.566884
H57	H	1.144893	0.034927	-0.577099
H58	H	1.109166	0.303739	0.347357
O59	O	1.484798	-0.102977	-0.146540
H60	H	1.558081	-0.182329	-0.203154
H61	H	0.719598	-0.016625	-0.752816
H62	H	1.127376	0.283989	-0.071700
H63	H	0.518776	0.090882	-0.275996
O64	O	1.051797	0.365829	0.195429
H65	H	1.042410	0.376015	0.295627
H66	H	1.221546	0.182063	0.424041
O67	O	0.955035	-0.035663	-0.857616
H68	H	0.911552	-0.051059	-0.918605
