data_functionalizedCrystal
_audit_creation_method	'MofGen! by Chris Wilmer'
_symmetry_space_group_name_H-M	'P1'
_symmetry_Int_Tables_number	1
_symmetry_cell_setting	triclinic
loop_
_symmetry_equiv_pos_as_xyz
  x,y,z
_cell_length_a	14.971491
_cell_length_b	8.597304
_cell_length_c	14.048226
_cell_angle_alpha	82.293729
_cell_angle_beta	89.991693
_cell_angle_gamma	84.479114
loop_
_atom_site_label
_atom_site_type_symbol
_atom_site_fract_x
_atom_site_fract_y
_atom_site_fract_z
O1	O	1.188610	0.204571	-0.095976
O2	O	0.928409	0.229056	-0.097976
O3	O	1.063629	-0.011645	-0.078237
O4	O	1.053390	0.445272	-0.115715
O5	O	1.063612	-0.011659	0.080086
O6	O	0.928393	0.229042	0.060346
O7	O	1.188593	0.204557	0.062347
Zn8	Zn	1.058490	0.216797	0.086484
Zn9	Zn	1.058512	0.216816	-0.122113
O10	O	1.053373	0.445258	0.042608
C11	C	0.895067	0.227952	-0.018724
C12	C	0.795744	0.224667	-0.018452
C13	C	0.367932	0.210496	-0.103613
C14	C	0.461257	0.213579	-0.103862
C15	C	0.507907	0.215123	-0.017684
C16	C	0.461227	0.213568	0.068750
C17	C	0.367904	0.210474	0.068999
C18	C	0.655741	0.220020	0.068224
C19	C	0.749070	0.223117	0.067975
C20	C	0.749094	0.223125	-0.104637
C21	C	0.655772	0.220031	-0.104388
C22	C	0.609098	0.218479	-0.017954
C23	C	1.062520	-0.070126	0.005719
C24	C	1.059231	-0.244360	0.020004
C25	C	1.221935	0.205661	-0.016907
C26	C	1.321258	0.208946	-0.017186
C27	C	1.054482	0.503739	-0.041350
C28	C	1.057771	0.677973	-0.055642
N29	N	1.058482	0.216783	0.228845
N30	N	1.058527	0.216817	-0.264474
C31	C	1.118376	0.110245	0.287400
C32	C	1.118382	0.110244	0.387058
C33	C	1.058497	0.216790	0.428158
C34	C	0.998596	0.323334	0.369596
C35	C	0.998587	0.323326	0.269941
C36	C	0.998622	0.323345	0.577309
C37	C	0.998633	0.323355	0.676971
C38	C	1.118418	0.110264	0.694427
C39	C	1.118408	0.110256	0.594771
C40	C	1.058508	0.216801	0.536216
H41	H	0.787049	0.224382	0.138148
C42	C	0.330353	0.344362	-0.261724
C43	C	0.316659	0.208803	-0.198344
H44	H	0.298705	0.343306	-0.320210
H45	H	0.309027	0.435290	-0.233726
H46	H	0.392616	0.346406	-0.274231
H47	H	0.254397	0.206765	-0.185831
H48	H	0.337981	0.117851	-0.226348
H49	H	1.059034	-0.255227	-0.131340
H50	H	1.057955	-0.311165	0.095707
C51	C	1.236772	-0.100396	0.314676
C52	C	1.184203	-0.006879	0.242229
H53	H	1.277406	-0.172713	0.286789
H54	H	1.269518	-0.034968	0.348161
H55	H	1.199041	-0.156951	0.358201
H56	H	1.221934	0.049685	0.198707
H57	H	1.151455	-0.072316	0.208727
C58	C	0.557346	0.351878	-0.215338
C59	C	0.512559	0.215291	-0.198867
H60	H	0.589020	0.352926	-0.273991
H61	H	0.514919	0.442108	-0.219153
H62	H	0.598485	0.353215	-0.164046
H63	H	0.471415	0.213961	-0.250156
H64	H	0.554990	0.125038	-0.195060
C65	C	1.135961	-0.103312	0.516641
C66	C	1.184227	-0.006865	0.451415
H67	H	1.176615	-0.175620	0.556365
H68	H	1.100307	-0.039869	0.555383
H69	H	1.098238	-0.159876	0.482406
H70	H	1.221946	0.049708	0.485649
H71	H	1.219897	-0.070316	0.412669
H72	H	0.949842	0.410101	0.529636
H73	H	1.167175	0.023506	0.561308
H74	H	0.499217	0.214815	0.138918
C75	C	1.135990	-0.103308	0.824007
C76	C	1.184261	-0.006866	0.758783
H77	H	1.176641	-0.175617	0.863733
H78	H	1.100335	-0.039861	0.862746
H79	H	1.098267	-0.159870	0.789771
H80	H	1.221979	0.049705	0.793019
H81	H	1.219931	-0.070321	0.720039
C82	C	0.880198	0.533937	0.649717
C83	C	0.932790	0.440442	0.722153
H84	H	0.839543	0.606208	0.677614
H85	H	0.917905	0.590529	0.606198
H86	H	0.847467	0.468476	0.616223
H87	H	0.965526	0.505901	0.755643
H88	H	0.895078	0.383845	0.765689
H89	H	0.949832	0.410080	0.403066
C90	C	0.981027	0.536855	0.140336
C91	C	0.932752	0.440437	0.205570
H92	H	0.940378	0.609145	0.100594
H93	H	1.018744	0.593425	0.174558
H94	H	1.016687	0.473379	0.101605
H95	H	0.897096	0.503913	0.244306
H96	H	0.895019	0.383862	0.171345
C97	C	0.541896	0.351353	0.157578
C98	C	0.604434	0.218319	0.163232
H99	H	0.510218	0.350301	0.216228
H100	H	0.572283	0.443994	0.146392
H101	H	0.500764	0.349969	0.106286
H102	H	0.645570	0.219710	0.214519
H103	H	0.574044	0.125655	0.174429
H104	H	0.617791	0.218785	-0.174562
C105	C	0.348028	0.074710	0.227260
C106	C	0.316598	0.208774	0.164003
H107	H	0.316358	0.073663	0.285915
H108	H	0.338758	-0.017231	0.199342
H109	H	0.410284	0.076794	0.239435
H110	H	0.254343	0.206684	0.151822
H111	H	0.325861	0.300739	0.191926
C112	C	0.892160	0.227849	-0.181671
C113	C	0.800395	0.224821	-0.199647
H114	H	0.923831	0.228894	-0.240325
H115	H	0.901423	0.319798	-0.153757
H116	H	0.913460	0.136891	-0.138750
H117	H	0.779093	0.315786	-0.242563
H118	H	0.791126	0.132863	-0.227575
