data_functionalizedCrystal
_audit_creation_method	'MofGen! by Chris Wilmer'
_symmetry_space_group_name_H-M	'P1'
_symmetry_Int_Tables_number	1
_symmetry_cell_setting	triclinic
loop_
_symmetry_equiv_pos_as_xyz
  x,y,z
_cell_length_a	19.805407
_cell_length_b	13.897448
_cell_length_c	19.805399
_cell_angle_alpha	89.973574
_cell_angle_beta	89.984884
_cell_angle_gamma	90.015009
loop_
_atom_site_label
_atom_site_type_symbol
_atom_site_fract_x
_atom_site_fract_y
_atom_site_fract_z
Zn1	Zn	1.034759	-0.384093	-0.382700
Zn2	Zn	1.534759	0.115907	0.117300
Zn3	Zn	1.034696	-0.545403	-0.269517
Zn4	Zn	1.534696	-0.045403	0.230483
Zn5	Zn	0.921579	-0.384116	-0.269528
Zn6	Zn	1.421579	0.115884	0.230472
Zn7	Zn	0.921554	-0.545340	-0.382667
Zn8	Zn	1.421554	-0.045340	0.117333
O9	O	0.978147	-0.464738	-0.326103
O10	O	1.478147	0.035262	0.173897
O11	O	1.129467	-0.405508	-0.367695
O12	O	1.629467	0.094492	0.132305
O13	O	1.019675	-0.524044	-0.174801
O14	O	1.519675	-0.024044	0.325199
O15	O	0.936629	-0.249131	-0.284559
O16	O	1.436629	0.250869	0.215441
O17	O	1.129421	-0.524021	-0.284540
O18	O	1.629421	-0.024021	0.215460
O19	O	1.019782	-0.249114	-0.367706
O20	O	1.519782	0.250886	0.132294
O21	O	0.936568	-0.405547	-0.174810
O22	O	1.436568	0.094453	0.325190
O23	O	0.826859	-0.405486	-0.284527
O24	O	1.326859	0.094514	0.215473
O25	O	0.936587	-0.523914	-0.477388
O26	O	1.436587	-0.023914	0.022612
O27	O	0.826841	-0.523937	-0.367650
O28	O	1.326841	-0.023937	0.132350
O29	O	1.019758	-0.405447	-0.477412
O30	O	1.519758	0.094553	0.022588
O31	O	1.019651	-0.680376	-0.284508
O32	O	1.519651	-0.180376	0.215492
O33	O	0.936526	-0.680330	-0.367639
O34	O	1.436526	-0.180330	0.132361
C35	C	0.802291	-0.464708	-0.326086
C36	C	1.302291	0.035292	0.173914
C37	C	0.727059	-0.464718	-0.326095
C38	C	1.227059	0.035282	0.173905
C39	C	0.691739	-0.403117	-0.369460
C40	C	1.191739	0.096883	0.130540
C41	C	0.621051	-0.403122	-0.369463
C42	C	1.121051	0.096878	0.130537
C43	C	0.585683	-0.464734	-0.326103
C44	C	1.085683	0.035266	0.173897
C45	C	0.621008	-0.526337	-0.282734
C46	C	1.121008	-0.026337	0.217266
C47	C	0.691695	-0.526327	-0.282728
C48	C	1.191695	-0.026327	0.217272
C49	C	0.335935	-0.526381	-0.282755
C50	C	0.835935	-0.026381	0.217245
C51	C	0.265242	-0.526389	-0.282765
C52	C	0.765242	-0.026389	0.217235
C53	C	0.265290	-0.403176	-0.369489
C54	C	0.765290	0.096824	0.130511
C55	C	0.335978	-0.403166	-0.369483
C56	C	0.835978	0.096834	0.130517
C57	C	0.371296	-0.464765	-0.326112
C58	C	0.871296	0.035235	0.173888
C59	C	0.447944	-0.464758	-0.326108
C60	C	0.947944	0.035242	0.173892
C61	C	0.509036	-0.464747	-0.326110
C62	C	1.009036	0.035253	0.173890
C63	C	0.978097	-0.715352	-0.326083
C64	C	1.478097	-0.215352	0.173917
C65	C	0.978138	-0.822566	-0.326097
C66	C	1.478138	-0.322566	0.173903
C67	C	0.978209	-1.018861	-0.326140
C68	C	1.478209	-0.518861	0.173860
C69	C	0.978168	-0.909629	-0.326118
C70	C	1.478168	-0.409629	0.173882
C71	C	1.154690	-0.464769	-0.326120
C72	C	1.654690	0.035231	0.173880
C73	C	1.229922	-0.464782	-0.326127
C74	C	1.729922	0.035218	0.173873
C75	C	0.978177	-0.464671	-0.502646
C76	C	1.478177	0.035329	-0.002646
C77	C	0.978189	-0.464643	-0.577878
C78	C	1.478189	0.035357	-0.077878
C79	C	0.978215	-0.213145	-0.326137
C80	C	1.478215	0.286855	0.173863
C81	C	0.978244	-0.105931	-0.326152
C82	C	1.478244	0.394069	0.173848
C83	C	0.934928	-0.402935	-0.613225
C84	C	1.434928	0.097065	-0.113225
C85	C	0.934937	-0.402917	-0.683914
C86	C	1.434937	0.097083	-0.183914
C87	C	0.978212	-0.464601	-0.719253
C88	C	1.478212	0.035399	-0.219253
C89	C	1.021475	-0.526315	-0.683900
C90	C	1.521475	-0.026315	-0.183900
C91	C	1.021462	-0.526338	-0.613213
C92	C	1.521462	-0.026338	-0.113213
C93	C	1.021529	-0.526225	-0.968974
C94	C	1.521529	-0.026225	-0.468974
C95	C	1.021540	-0.526195	-1.039666
C96	C	1.521540	-0.026195	-0.539666
C97	C	0.935004	-0.402804	-1.039675
C98	C	1.435004	0.097196	-0.539675
C99	C	0.934991	-0.402826	-0.968987
C100	C	1.434991	0.097174	-0.468987
C101	C	0.978251	-0.464543	-0.933641
C102	C	1.478251	0.035457	-0.433641
C103	C	0.978240	-0.464564	-0.856992
C104	C	1.478240	0.035436	-0.356992
C105	C	0.978227	-0.464576	-0.795900
C106	C	1.478227	0.035424	-0.295900
C107	C	0.978156	-0.464735	-0.150247
C108	C	1.478156	0.035265	0.349753
C109	C	0.978275	-0.464492	-0.075015
C110	C	1.478275	0.035508	0.424985
H111	H	0.236526	-0.353015	-0.404802
H112	H	0.736526	0.146985	0.095198
Cl113	Cl	1.075847	-0.603920	-0.568775
Cl114	Cl	1.575847	-0.103920	-0.068775
Cl115	Cl	0.576546	-0.603787	-0.228221
Cl116	Cl	1.076546	-0.103787	0.271779
H117	H	0.364770	-0.352998	-0.404793
H118	H	0.864770	0.147002	0.095207
H119	H	1.056707	-0.576544	-0.712679
H120	H	1.556707	-0.076544	-0.212679
H121	H	0.720531	-0.352948	-0.404770
H122	H	1.220531	0.147052	0.095230
H123	H	0.592297	-0.352962	-0.404776
H124	H	1.092297	0.147038	0.095224
H125	H	1.056747	-0.576489	-0.940203
H126	H	1.556747	-0.076489	-0.440203
Cl127	Cl	0.880517	-0.325383	-0.728348
Cl128	Cl	1.380517	0.174617	-0.228348
H129	H	0.899692	-0.352699	-0.584457
H130	H	1.399692	0.147301	-0.084457
H131	H	0.720451	-0.576488	-0.247416
H132	H	1.220451	-0.076488	0.252584
Cl133	Cl	0.220781	-0.603847	-0.228250
Cl134	Cl	0.720781	-0.103847	0.271750
Cl135	Cl	0.880588	-0.325274	-0.924565
Cl136	Cl	1.380588	0.174726	-0.424565
Cl137	Cl	0.880616	-0.325219	-1.084115
Cl138	Cl	1.380616	0.174781	-0.584115
H139	H	0.364682	-0.576540	-0.247439
H140	H	0.864682	-0.076540	0.252561
H141	H	1.056781	-0.576429	-1.068437
H142	H	1.556781	-0.076429	-0.568437
