data_functionalizedCrystal
_audit_creation_method	'MofGen! by Chris Wilmer'
_symmetry_space_group_name_H-M	'P1'
_symmetry_Int_Tables_number	1
_symmetry_cell_setting	triclinic
loop_
_symmetry_equiv_pos_as_xyz
  x,y,z
_cell_length_a	12.759401
_cell_length_b	12.759400
_cell_length_c	12.759393
_cell_angle_alpha	90.029373
_cell_angle_beta	90.019554
_cell_angle_gamma	90.013326
loop_
_atom_site_label
_atom_site_type_symbol
_atom_site_fract_x
_atom_site_fract_y
_atom_site_fract_z
Zn1	Zn	1.606278	-0.418211	0.593990
Zn2	Zn	2.106278	0.081789	1.093990
Zn3	Zn	1.606173	-0.593927	0.418313
Zn4	Zn	2.106173	-0.093927	0.918313
Zn5	Zn	1.430576	-0.418263	0.418329
Zn6	Zn	1.930576	0.081737	0.918329
Zn7	Zn	1.430573	-0.593849	0.593955
Zn8	Zn	1.930573	-0.093849	1.093955
O9	O	1.518400	-0.506062	0.506147
O10	O	2.018400	-0.006062	1.006147
O11	O	1.753285	-0.441531	0.570694
O12	O	2.253285	0.058469	1.070694
O13	O	1.582838	-0.570678	0.271294
O14	O	2.082838	-0.070678	0.771294
O15	O	1.453928	-0.271235	0.441652
O16	O	1.953928	0.228765	0.941652
O17	O	1.753208	-0.570628	0.441625
O18	O	2.253208	-0.070628	0.941625
O19	O	1.583015	-0.271197	0.570709
O20	O	2.083015	0.228803	1.070709
O21	O	1.453827	-0.441619	0.271306
O22	O	1.953827	0.058381	0.771306
O23	O	1.283555	-0.441544	0.441618
O24	O	1.783555	0.058456	0.941618
O25	O	1.453923	-0.570496	0.740980
O26	O	1.953923	-0.070496	1.240980
O27	O	1.283552	-0.570546	0.570649
O28	O	1.783552	-0.070546	1.070649
O29	O	1.583012	-0.441456	0.741006
O30	O	2.083012	0.058544	1.241006
O31	O	1.582835	-0.740937	0.441591
O32	O	2.082835	-0.240937	0.941591
O33	O	1.453822	-0.740880	0.570634
O34	O	1.953822	-0.240880	1.070634
C35	C	1.245433	-0.506043	0.506132
C36	C	1.745433	-0.006043	1.006132
C37	C	1.128656	-0.506060	0.506151
C38	C	1.628656	-0.006060	1.006151
C39	C	1.073820	-0.573339	0.573227
C40	C	1.573820	-0.073339	1.073227
C41	C	0.964096	-0.573352	0.573238
C42	C	1.464096	-0.073352	1.073238
C43	C	0.964053	-0.438804	0.439089
C44	C	1.464053	0.061196	0.939089
C45	C	1.073775	-0.438787	0.439084
C46	C	1.573775	0.061213	0.939084
C47	C	1.128701	-0.640612	0.640294
C48	C	1.628701	-0.140612	1.140294
C49	C	1.073865	-0.707898	0.707374
C50	C	1.573865	-0.207898	1.207374
C51	C	0.964141	-0.707911	0.707385
C52	C	1.464141	-0.207911	1.207385
C53	C	0.909253	-0.640639	0.640316
C54	C	1.409253	-0.140639	1.140316
C55	C	1.518345	-0.779030	0.506130
C56	C	2.018345	-0.279030	1.006130
C57	C	1.518417	-0.895806	0.506158
C58	C	2.018417	-0.395806	1.006158
C59	C	1.585599	-0.950569	0.573413
C60	C	2.085599	-0.450569	1.073413
C61	C	1.585648	-1.060293	0.573439
C62	C	2.085648	-0.560293	1.073439
C63	C	1.451330	-1.060482	0.438945
C64	C	1.951330	-0.560482	0.938945
C65	C	1.451277	-0.950760	0.438926
C66	C	1.951277	-0.450760	0.938926
C67	C	1.652740	-0.895615	0.640645
C68	C	2.152740	-0.395615	1.140645
C69	C	1.719928	-0.950378	0.707905
C70	C	2.219928	-0.450378	1.207905
C71	C	1.719977	-1.060102	0.707931
C72	C	2.219977	-0.560102	1.207931
C73	C	1.652838	-1.115063	0.640697
C74	C	2.152838	-0.615063	1.140697
C75	C	1.792433	-0.506082	0.506161
C76	C	2.292433	-0.006082	1.006161
C77	C	1.909210	-0.506091	0.506168
C78	C	2.409210	-0.006091	1.006168
C79	C	1.518479	-0.505961	0.780180
C80	C	2.018479	-0.005961	1.280180
C81	C	1.518512	-0.505918	0.896957
C82	C	2.018512	-0.005918	1.396957
C83	C	1.518484	-0.232029	0.506186
C84	C	2.018484	0.267971	1.006186
C85	C	1.518520	-0.115252	0.506203
C86	C	2.018520	0.384748	1.006203
C87	C	1.518382	-0.506087	0.233179
C88	C	2.018382	-0.006087	0.733179
C89	C	1.518552	-0.505834	0.116403
C90	C	2.018552	-0.005834	0.616403
C91	C	1.585734	-0.438716	0.951834
C92	C	2.085734	0.061284	1.451834
C93	C	1.585752	-0.438671	1.061558
C94	C	2.085752	0.061329	1.561558
C95	C	1.451323	-0.573039	1.061518
C96	C	1.951323	-0.073039	1.561518
C97	C	1.451301	-0.573078	0.951796
C98	C	1.951301	-0.073078	1.451796
H99	H	0.919496	-0.762690	0.762012
H100	H	1.419496	-0.262690	1.262012
C101	C	0.903672	-0.364817	0.365313
C102	C	1.403672	0.135183	0.865313
N103	N	0.858193	-0.309091	0.309740
N104	N	1.358193	0.190909	0.809740
H105	H	0.819908	-0.640646	0.640340
H106	H	1.319908	-0.140646	1.140340
C107	C	1.377344	-0.647006	0.891428
C108	C	1.877344	-0.147006	1.391428
N109	N	1.321640	-0.702684	0.845958
N110	N	1.821640	-0.202684	1.345958
H111	H	1.118424	-0.383994	0.384473
H112	H	1.618424	0.116006	0.884473
H113	H	1.118562	-0.762661	0.761985
H114	H	1.618562	-0.262661	1.261985
C115	C	1.249399	-0.640629	0.640261
C116	C	1.749399	-0.140629	1.140261
N117	N	1.340309	-0.640652	0.640226
N118	N	1.840309	-0.140652	1.140226
C119	C	1.377383	-0.890518	0.364932
C120	C	1.877383	-0.390518	0.864932
N121	N	1.321725	-0.845143	0.309197
N122	N	1.821725	-0.345143	0.809197
H123	H	1.652710	-0.806272	0.640630
H124	H	2.152710	-0.306272	1.140630
C125	C	1.793775	-0.889918	0.781861
C126	C	2.293775	-0.389918	1.281861
N127	N	1.849399	-0.844381	0.837565
N128	N	2.349399	-0.344381	1.337565
C129	C	1.793885	-1.120337	0.781916
C130	C	2.293885	-0.620337	1.281916
N131	N	1.849562	-1.165705	0.837638
N132	N	2.349562	-0.665705	1.337638
H133	H	1.652871	-1.204408	0.640735
H134	H	2.152871	-0.704408	1.140735
H135	H	1.396669	-1.105240	0.384206
H136	H	1.896669	-0.605240	0.884206
C137	C	1.659659	-0.364829	0.891514
C138	C	2.159659	0.135171	1.391514
N139	N	1.715338	-0.309172	0.846085
N140	N	2.215338	0.190828	1.346085
H141	H	1.640489	-0.383947	1.106234
H142	H	2.140489	0.116053	1.606234
H143	H	1.396604	-0.627720	1.106182
H144	H	1.896604	-0.127720	1.606182
