data_functionalizedCrystal
_audit_creation_method	'MofGen! by Chris Wilmer'
_symmetry_space_group_name_H-M	'P1'
_symmetry_Int_Tables_number	1
_symmetry_cell_setting	triclinic
loop_
_symmetry_equiv_pos_as_xyz
  x,y,z
_cell_length_a	23.196402
_cell_length_b	12.970454
_cell_length_c	23.196401
_cell_angle_alpha	90.012226
_cell_angle_beta	60.007332
_cell_angle_gamma	60.003617
loop_
_atom_site_label
_atom_site_type_symbol
_atom_site_fract_x
_atom_site_fract_y
_atom_site_fract_z
Zr1	Zr	0.630975	0.993303	-0.075639
O2	O	0.751238	0.828660	-0.167685
O3	O	0.510713	1.043759	-0.047426
O4	O	0.630976	1.043730	-0.167692
O5	O	0.630973	0.828731	0.047452
O6	O	0.630975	1.213397	-0.167693
O7	O	0.630975	0.828690	-0.047419
O8	O	0.415847	1.213450	0.047441
O9	O	0.846102	0.828678	-0.167682
O10	O	0.560177	1.191918	-0.035390
O11	O	0.560177	1.065327	0.035412
O12	O	0.701771	1.065292	-0.106185
O13	O	0.701770	0.938701	-0.035383
Zr14	Zr	0.630971	1.263967	0.075667
Zr15	Zr	0.630974	1.263903	-0.075642
Zr16	Zr	0.630972	0.993367	0.075669
Zr17	Zr	0.782272	0.993330	-0.075634
Zr18	Zr	0.479674	1.263940	0.075661
O19	O	0.751233	1.213511	0.047453
O20	O	0.751237	1.213419	-0.167688
O21	O	0.751234	0.828752	0.047457
O22	O	0.510708	1.428610	0.167713
O23	O	0.510712	1.428518	-0.047429
O24	O	0.510709	1.043851	0.167716
O25	O	0.630973	1.428539	-0.047424
O26	O	0.630970	1.213541	0.167719
O27	O	0.630971	1.043873	0.167721
O28	O	0.630971	1.428580	0.047447
O29	O	0.846101	1.043768	-0.167683
O30	O	0.415845	1.213502	0.167711
O31	O	0.415844	1.428593	0.167709
O32	O	0.415846	1.428541	0.047439
O33	O	0.846100	0.828729	-0.047411
O34	O	0.846099	1.043820	-0.047413
O35	O	0.560175	1.191978	0.106213
O36	O	0.560176	1.318569	0.035410
O37	O	0.701769	1.191943	-0.035385
O38	O	0.701769	1.065353	0.035418
C39	C	0.441723	1.128601	0.000007
C40	C	0.377494	1.128589	0.000004
C41	C	0.295064	1.222084	0.052264
C42	C	0.234703	1.222093	0.052271
C43	C	0.256778	1.128616	0.000006
C44	C	0.339221	1.035105	-0.052258
C45	C	0.399579	1.035092	-0.052259
C46	C	0.201191	1.099485	-0.063785
C47	C	0.140832	1.099507	-0.063785
C48	C	0.070616	1.128650	0.000009
C49	C	0.060756	1.157798	0.063807
C50	C	0.121114	1.157785	0.063806
C51	C	0.191336	1.128620	0.000002
C52	C	-0.077267	1.222159	0.052280
C53	C	-0.137626	1.222160	0.052287
C54	C	-0.033106	1.035177	-0.052247
C55	C	0.027251	1.035172	-0.052248
C56	C	0.005165	1.128669	0.000015
C57	C	0.630974	0.790156	0.000017
C58	C	0.630974	0.675279	0.000018
C59	C	0.820223	1.128669	0.000021
C60	C	0.884452	1.128681	0.000023
C61	C	0.630976	1.128554	-0.189251
C62	C	0.630977	1.128527	-0.253485
C63	C	0.630972	1.467114	0.000011
C64	C	0.630972	1.581991	0.000010
C65	C	0.704885	1.062436	-0.320612
C66	C	0.704886	1.062468	-0.380968
C67	C	0.630975	1.128574	-0.374191
C68	C	0.557057	1.194679	-0.307052
C69	C	0.557058	1.194656	-0.246699
C70	C	0.574349	1.119175	-0.441511
C71	C	0.574351	1.119189	-0.501864
C72	C	0.630969	1.128653	-0.560339
C73	C	0.687598	1.138078	-0.558460
C74	C	0.687599	1.138055	-0.498107
C75	C	0.630966	1.128607	-0.439630
C76	C	0.704883	1.062594	-0.692913
C77	C	0.704881	1.062635	-0.753268
C78	C	0.557050	1.194838	-0.679350
C79	C	0.557054	1.194806	-0.618997
C80	C	0.630973	1.128677	-0.625784
C81	C	0.630970	1.128716	0.189278
C82	C	0.630969	1.128744	0.253513
C83	C	0.441722	1.467080	0.000004
C84	C	0.377492	1.581945	0.000000
C85	C	0.441720	1.128682	0.189271
C86	C	0.377490	1.128698	0.253503
C87	C	0.441719	1.467161	0.189268
C88	C	0.377488	1.582054	0.253499
C89	C	0.820227	0.790109	-0.189241
C90	C	0.884458	0.675216	-0.253472
C91	C	0.820224	0.790190	0.000024
C92	C	0.884454	0.675325	0.000027
C93	C	0.820226	1.128588	-0.189243
C94	C	0.884456	1.128572	-0.253476
C95	C	0.347330	1.569777	-0.036965
C96	C	0.286987	1.677694	-0.036982
C97	C	0.256804	1.797780	-0.000030
C98	C	0.286972	1.809946	0.036936
C99	C	0.347318	1.702029	0.036949
C100	C	0.347325	1.194816	0.320631
C101	C	0.286982	1.194826	0.380990
C102	C	0.256800	1.128725	0.374219
C103	C	0.286971	1.062598	0.307085
C104	C	0.347317	1.062582	0.246728
C105	C	0.347325	1.702099	0.246705
C106	C	0.286982	1.810063	0.307051
C107	C	0.256798	1.797979	0.374191
C108	C	0.286967	1.677922	0.380984
C109	C	0.347314	1.569960	0.320639
C110	C	0.914628	0.555171	-0.246677
C111	C	0.974990	0.447207	-0.307023
C112	C	1.005177	0.459291	-0.374164
C113	C	0.975004	0.579348	-0.380957
C114	C	0.914647	0.687310	-0.320611
C115	C	0.914622	0.687493	0.036986
C116	C	0.974982	0.579576	0.036987
C117	C	1.005167	0.459491	0.000032
C118	C	0.974996	0.447324	-0.036931
C119	C	0.914642	0.555241	-0.036935
C120	C	0.914619	1.194687	-0.246683
C121	C	0.974963	1.194696	-0.307030
C122	C	1.005146	1.128584	-0.374169
C123	C	0.974978	1.062468	-0.380961
C124	C	0.914631	1.062466	-0.320614
H125	H	0.113084	1.181514	0.115752
H126	H	1.054311	0.371628	0.000042
H127	H	0.890053	1.248523	-0.192020
H128	H	0.999520	1.248534	-0.301486
H129	H	0.890079	1.008622	-0.326155
H130	H	0.371891	1.711962	0.192041
H131	H	0.371865	1.472218	0.326181
H132	H	0.357191	0.958995	-0.094811
H133	H	0.262432	1.667764	-0.067084
H134	H	1.054285	1.128595	-0.423302
H135	H	0.890083	0.785053	-0.326152
H136	H	0.262425	1.248678	0.435648
H137	H	0.999563	1.008640	-0.435634
H138	H	0.765072	1.008749	-0.698439
H139	H	0.262424	1.907810	0.301507
H140	H	0.371904	1.472007	-0.067064
H141	H	0.207663	1.128748	0.423372
H142	H	0.207660	1.885899	0.423323
H143	H	0.262387	1.008780	0.301583
H144	H	0.999590	0.589172	-0.435629
H145	H	0.277074	1.298216	0.094822
H146	H	0.371868	1.008745	0.192072
H147	H	0.999582	0.349537	-0.067018
H148	H	0.207666	1.885642	-0.000045
H149	H	1.054323	0.371371	-0.423295
H150	H	0.262383	1.668102	0.435658
H151	H	0.890054	0.545308	-0.192014
H152	H	0.890050	0.785263	0.067083
H153	H	0.003586	1.181520	0.115754
H154	H	0.999537	0.589506	0.067089
H155	H	0.167577	1.298228	0.094829
H156	H	-0.095251	1.298285	0.094840
H157	H	0.765073	1.008645	-0.435633
H158	H	-0.204748	1.298293	0.094848
H159	H	0.890080	0.545315	-0.067030
H160	H	0.733707	1.145731	-0.496579
H161	H	0.094371	0.959045	-0.094807
H162	H	-0.015131	0.959065	-0.094801
H163	H	0.148866	1.075778	-0.115732
H164	H	0.258367	1.075740	-0.115738
H165	H	0.466701	0.958951	-0.094815
H166	H	0.765076	1.008594	-0.326144
H167	H	0.733704	1.145779	-0.606073
H168	H	0.765068	1.008821	-0.807928
H169	H	0.262388	1.907734	0.067021
H170	H	0.496870	1.248665	-0.673831
H171	H	0.496870	1.248618	-0.564338
H172	H	0.999547	0.349461	-0.301479
H173	H	0.528244	1.111458	-0.393902
H174	H	0.496878	1.248505	-0.301538
H175	H	0.528243	1.111508	-0.503389
H176	H	0.371868	1.711955	0.067055
H177	H	0.371893	1.248644	0.326157
H178	H	0.496871	1.248476	-0.192039
