data_functionalizedCrystal
_audit_creation_method	'MofGen! by Chris Wilmer'
_symmetry_space_group_name_H-M	'P1'
_symmetry_Int_Tables_number	1
_symmetry_cell_setting	triclinic
loop_
_symmetry_equiv_pos_as_xyz
  x,y,z
_cell_length_a	13.897448
_cell_length_b	13.897449
_cell_length_c	18.215399
_cell_angle_alpha	89.979342
_cell_angle_beta	90.026328
_cell_angle_gamma	89.982475
loop_
_atom_site_label
_atom_site_type_symbol
_atom_site_fract_x
_atom_site_fract_y
_atom_site_fract_z
Zn1	Zn	-0.384029	-1.474682	0.416140
Zn2	Zn	-0.050696	-1.141348	0.749474
Zn3	Zn	0.282638	-0.808015	1.082807
Zn4	Zn	-0.545339	-1.474582	0.293078
Zn5	Zn	-0.212005	-1.141249	0.626411
Zn6	Zn	0.121328	-0.807915	0.959744
Zn7	Zn	-0.384059	-1.313377	0.293086
Zn8	Zn	-0.050726	-0.980044	0.626419
Zn9	Zn	0.282608	-0.646710	0.959753
Zn10	Zn	-0.545283	-1.313353	0.416101
Zn11	Zn	-0.211950	-0.980019	0.749434
Zn12	Zn	0.121383	-0.646686	1.082767
O13	O	-0.464678	-1.393998	0.354601
O14	O	-0.131344	-1.060665	0.687934
O15	O	0.201989	-0.727332	1.021268
O16	O	-0.405438	-1.609650	0.399829
O17	O	-0.072105	-1.276317	0.733162
O18	O	0.261229	-0.942983	1.066496
O19	O	-0.523980	-1.453166	0.190094
O20	O	-0.190647	-1.119833	0.523428
O21	O	0.142686	-0.786499	0.856761
O22	O	-0.249073	-1.334826	0.309430
O23	O	0.084260	-1.001493	0.642763
O24	O	0.417593	-0.668160	0.976096
O25	O	-0.523951	-1.609577	0.309415
O26	O	-0.190618	-1.276243	0.642749
O27	O	0.142715	-0.942910	0.976082
O28	O	-0.249051	-1.453336	0.399837
O29	O	0.084282	-1.120003	0.733170
O30	O	0.417615	-0.786670	1.066504
O31	O	-0.405489	-1.334730	0.190101
O32	O	-0.072155	-1.001396	0.523434
O33	O	0.261178	-0.668063	0.856767
O34	O	-0.405435	-1.178392	0.309391
O35	O	-0.072102	-0.845059	0.642724
O36	O	0.261232	-0.511725	0.976058
O37	O	-0.523857	-1.334785	0.519090
O38	O	-0.190524	-1.001451	0.852424
O39	O	0.142810	-0.668118	1.185757
O40	O	-0.523886	-1.178374	0.399769
O41	O	-0.190553	-0.845041	0.733103
O42	O	0.142781	-0.511707	1.066436
O43	O	-0.405384	-1.453313	0.519119
O44	O	-0.072051	-1.119979	0.852453
O45	O	0.261283	-0.786646	1.185786
O46	O	-0.680313	-1.453142	0.309377
O47	O	-0.346980	-1.119809	0.642710
O48	O	-0.013646	-0.786476	0.976043
O49	O	-0.680272	-1.334688	0.399761
O50	O	-0.346939	-1.001355	0.733095
O51	O	-0.013606	-0.668021	1.066428
C52	C	-0.464658	-1.143384	0.354577
C53	C	-0.131325	-0.810051	0.687911
C54	C	0.202008	-0.476717	1.021244
C55	C	-0.464673	-1.036170	0.354585
C56	C	-0.131340	-0.702837	0.687918
C57	C	0.201993	-0.369503	1.021251
C58	C	-0.715292	-1.393928	0.354580
C59	C	-0.381959	-1.060595	0.687913
C60	C	-0.048625	-0.727261	1.021247
C61	C	-0.822506	-1.393986	0.354595
C62	C	-0.489172	-1.060653	0.687929
C63	C	-0.155839	-0.727319	1.021262
C64	C	-0.464672	-0.839875	0.354598
C65	C	-0.131338	-0.506542	0.687932
C66	C	0.201995	-0.173208	1.021265
C67	C	-0.464670	-0.949107	0.354589
C68	C	-0.131336	-0.615774	0.687922
C69	C	0.201997	-0.282441	1.021255
C70	C	-1.018801	-1.394087	0.354642
C71	C	-0.685467	-1.060754	0.687975
C72	C	-0.352134	-0.727421	1.021308
C73	C	-0.909568	-1.394028	0.354618
C74	C	-0.576235	-1.060695	0.687951
C75	C	-0.242902	-0.727362	1.021285
C76	C	-0.213085	-1.394095	0.354639
C77	C	0.120249	-1.060762	0.687972
C78	C	0.453582	-0.727429	1.021305
C79	C	-0.105871	-1.394137	0.354655
C80	C	0.227463	-1.060803	0.687988
C81	C	0.560796	-0.727470	1.021321
C82	C	-0.464611	-1.394057	0.546554
C83	C	-0.131278	-1.060724	0.879887
C84	C	0.202056	-0.727390	1.213221
C85	C	-0.464583	-1.394082	0.628353
C86	C	-0.131249	-1.060749	0.961686
C87	C	0.202084	-0.727415	1.295020
C88	C	-0.464691	-0.645591	0.354618
C89	C	-0.131358	-0.312258	0.687952
C90	C	0.201976	0.021075	1.021285
C91	C	-0.464681	-0.752805	0.354608
C92	C	-0.131347	-0.419472	0.687941
C93	C	0.201986	-0.086138	1.021274
C94	C	-0.464674	-1.393995	0.163395
C95	C	-0.131341	-1.060662	0.496728
C96	C	0.201993	-0.727329	0.830062
C97	C	-0.464431	-1.394157	0.081596
C98	C	-0.131097	-1.060824	0.414930
C99	C	0.202236	-0.727490	0.748263
C100	C	-0.402836	-1.455822	0.816563
C101	C	-0.069503	-1.122488	1.149897
C102	C	0.263830	-0.789155	1.483230
C103	C	-0.402808	-1.455833	0.893422
C104	C	-0.069475	-1.122500	1.226756
C105	C	0.263859	-0.789167	1.560089
C106	C	-0.526180	-1.332411	0.893381
C107	C	-0.192847	-0.999077	1.226714
C108	C	0.140487	-0.665744	1.560047
C109	C	-0.526202	-1.332395	0.816523
C110	C	-0.192869	-0.999062	1.149857
C111	C	0.140464	-0.665728	1.483190
C112	C	-0.464532	-1.394106	0.778117
C113	C	-0.131199	-1.060773	1.111450
C114	C	0.202135	-0.727439	1.444783
C115	C	-0.464481	-1.394133	0.931833
C116	C	-0.131148	-1.060800	1.265166
C117	C	0.202185	-0.727466	1.598500
C118	C	-0.464451	-1.394145	1.015167
C119	C	-0.131118	-1.060812	1.348500
C120	C	0.202215	-0.727478	1.681833
C121	C	-0.464561	-1.394093	0.694778
C122	C	-0.131227	-1.060760	1.028111
C123	C	0.202106	-0.727426	1.361444
H124	H	-0.352617	-1.506068	0.785295
H125	H	-0.019284	-1.172735	1.118628
H126	H	0.314049	-0.839401	1.451962
Br127	Br	-0.609875	-1.248668	0.945508
Br128	Br	-0.276542	-0.915334	1.278842
Br129	Br	0.056792	-0.582001	1.612175
Br130	Br	-0.319081	-1.539601	0.945598
Br131	Br	0.014252	-1.206268	1.278931
Br132	Br	0.347585	-0.872934	1.612264
Br133	Br	-0.609930	-1.248623	0.764340
Br134	Br	-0.276597	-0.915290	1.097674
Br135	Br	0.056736	-0.581956	1.431007
