data_functionalizedCrystal
_audit_creation_method	'MofGen! by Chris Wilmer'
_symmetry_space_group_name_H-M	'P1'
_symmetry_Int_Tables_number	1
_symmetry_cell_setting	triclinic
loop_
_symmetry_equiv_pos_as_xyz
  x,y,z
_cell_length_a	10.540514
_cell_length_b	10.540510
_cell_length_c	7.681481
_cell_angle_alpha	84.203102
_cell_angle_beta	95.780402
_cell_angle_gamma	84.514235
loop_
_atom_site_label
_atom_site_type_symbol
_atom_site_fract_x
_atom_site_fract_y
_atom_site_fract_z
O1	O	1.673990	0.190662	-0.146440
O2	O	1.304572	0.207552	-0.146438
O3	O	1.497729	0.014397	-0.146439
O4	O	1.480833	0.383817	-0.146440
O5	O	1.521503	-0.009431	0.146419
O6	O	1.328346	0.183723	0.146420
O7	O	1.697764	0.166834	0.146417
Zn8	Zn	1.516830	0.171495	0.192916
Zn9	Zn	1.485506	0.202890	-0.192937
O10	O	1.504607	0.359988	0.146418
C11	C	1.269155	0.194377	-0.000009
C12	C	1.128206	0.190608	-0.000008
C13	C	1.057485	0.328750	-0.000012
C14	C	0.910818	0.324931	-0.000686
C15	C	0.922326	0.129062	-0.166929
C16	C	1.068854	0.133926	-0.167060
C17	C	1.096294	0.104784	0.165985
C18	C	0.949492	0.103273	0.168170
C19	C	1.508357	-0.044820	-0.000013
C20	C	1.504589	-0.185769	-0.000024
C21	C	1.638829	-0.403291	0.000646
C22	C	1.642793	-0.256641	-0.000023
C23	C	1.420266	-0.216914	-0.167256
C24	C	1.417216	-0.363664	-0.167387
C25	C	1.441373	-0.390570	0.165647
C26	C	1.448107	-0.244409	0.167848
C27	C	1.733180	0.180008	-0.000016
C28	C	1.874129	0.183778	-0.000028
C29	C	1.493979	0.419206	-0.000011
C30	C	1.497746	0.560155	-0.000012
N31	N	1.538216	0.150068	0.456250
N32	N	1.464130	0.224307	-0.456271
H33	H	0.899557	0.025895	-0.172664
H34	H	1.495584	-0.443070	0.292410
C35	C	1.387242	0.448044	0.486650
C36	C	1.362029	0.326602	0.442226
H37	H	1.324211	0.511197	0.423968
H38	H	1.384919	0.450367	0.609585
H39	H	1.469690	0.464937	0.456494
H40	H	1.279584	0.309705	0.472393
H41	H	1.364339	0.324276	0.319263
H42	H	1.138056	0.140472	0.292531
H43	H	1.613858	0.074297	0.531456
H44	H	0.877859	0.368916	0.118928
H45	H	1.095734	0.375053	0.119656
H46	H	1.078005	0.393693	-0.119524
C47	C	1.277819	-0.084777	0.038620
C48	C	1.313003	-0.179271	0.181497
H49	H	1.194405	-0.044568	0.047038
H50	H	1.337323	-0.022568	0.040032
H51	H	1.277848	-0.123118	-0.068108
H52	H	1.312983	-0.140929	0.288225
H53	H	1.253483	-0.241490	0.180101
C54	C	0.931721	0.465146	-0.260282
C55	C	0.841274	0.410338	-0.163164
H56	H	0.888785	0.517863	-0.360602
H57	H	0.980489	0.515615	-0.188919
H58	H	0.987216	0.399124	-0.297213
H59	H	0.785785	0.476360	-0.126221
H60	H	0.792484	0.359865	-0.234540
H61	H	1.459294	-0.175936	-0.291710
H62	H	1.086906	0.193998	-0.292299
H63	H	0.918515	0.143138	0.291646
H64	H	1.688720	-0.218470	-0.120109
C65	C	1.082813	-0.048035	-0.331330
C66	C	1.132913	-0.002267	-0.176694
H67	H	1.122364	-0.132107	-0.337292
H68	H	0.992932	-0.050082	-0.331162
H69	H	1.099186	0.007038	-0.430412
H70	H	1.116531	-0.057335	-0.077611
H71	H	1.222814	-0.000228	-0.176847
C72	C	1.391704	-0.339475	-0.483528
C73	C	1.468795	-0.404239	-0.336134
H74	H	1.423556	-0.364515	-0.587704
H75	H	1.306183	-0.360364	-0.480924
H76	H	1.393110	-0.249620	-0.481928
H77	H	1.467381	-0.494094	-0.337727
H78	H	1.554338	-0.383359	-0.338740
C79	C	0.939933	0.261541	-0.434818
C80	C	0.851203	0.205996	-0.335259
H81	H	0.896025	0.309035	-0.538738
H82	H	0.984907	0.317221	-0.367441
H83	H	0.999031	0.196030	-0.465817
H84	H	0.792110	0.271508	-0.304248
H85	H	0.806208	0.150313	-0.402648
H86	H	0.926177	-0.000435	0.178745
C87	C	1.195863	-0.279812	-0.183707
C88	C	1.276845	-0.393868	-0.177682
H89	H	1.109206	-0.298456	-0.190088
H90	H	1.216038	-0.239712	-0.080591
H91	H	1.207412	-0.223925	-0.284550
H92	H	1.265303	-0.449752	-0.076831
H93	H	1.256662	-0.433988	-0.280808
H94	H	1.509629	-0.225868	0.291565
C95	C	1.780108	-0.346606	0.260310
C96	C	1.730599	-0.230188	0.161855
H97	H	1.834308	-0.330276	0.360258
H98	H	1.711543	-0.390844	0.297855
H99	H	1.828068	-0.397641	0.189589
H100	H	1.682630	-0.179156	0.232572
H101	H	1.799173	-0.185930	0.124311
H102	H	1.143691	0.002758	0.167597
H103	H	1.702407	-0.455009	0.120577
H104	H	1.682680	-0.437099	-0.118607
H105	H	1.337701	-0.412802	0.166774
H106	H	1.318018	-0.169010	-0.173474
