data_functionalizedCrystal
_audit_creation_method	'MofGen! by Chris Wilmer'
_symmetry_space_group_name_H-M	'P1'
_symmetry_Int_Tables_number	1
_symmetry_cell_setting	triclinic
loop_
_symmetry_equiv_pos_as_xyz
  x,y,z
_cell_length_a	17.639617
_cell_length_b	12.594516
_cell_length_c	17.640968
_cell_angle_alpha	78.769692
_cell_angle_beta	70.333968
_cell_angle_gamma	101.197819
loop_
_atom_site_label
_atom_site_type_symbol
_atom_site_fract_x
_atom_site_fract_y
_atom_site_fract_z
Zn1	Zn	1.354366	0.140778	-0.721237
Zn2	Zn	1.326429	-0.082343	-0.583405
Zn3	Zn	1.188668	0.050580	-0.555513
Zn4	Zn	1.216518	-0.082239	-0.693288
O5	O	1.271495	0.006694	-0.638361
O6	O	1.466003	0.148886	-0.726324
O7	O	1.284808	-0.102502	-0.464362
O8	O	1.210684	0.211507	-0.577520
O9	O	1.445478	-0.015040	-0.625059
O10	O	1.332422	0.277775	-0.699278
O11	O	1.183595	-0.004844	-0.443870
O12	O	1.077019	-0.004744	-0.550419
O13	O	1.258151	-0.014864	-0.812338
O14	O	1.097481	-0.102325	-0.651641
O15	O	1.359427	0.148986	-0.832872
O16	O	1.311813	-0.231291	-0.597957
O17	O	1.231062	-0.231215	-0.678687
C18	C	1.057343	-0.063312	-0.594971
C19	C	0.965732	-0.093280	-0.576428
C20	C	0.717912	0.234447	-0.779432
C21	C	0.631826	0.206255	-0.761992
C22	C	0.610444	0.035735	-0.656393
C23	C	0.696531	0.063910	-0.673827
C24	C	0.750258	0.163268	-0.735347
C25	C	0.728877	-0.007269	-0.629742
C26	C	0.814956	0.020906	-0.647173
C27	C	0.868688	0.120261	-0.708688
C28	C	0.836337	0.191443	-0.752777
C29	C	0.675148	-0.106623	-0.568218
C30	C	0.707494	-0.177802	-0.524133
C31	C	0.793575	-0.149631	-0.541568
C32	C	0.847307	-0.050276	-0.603083
C33	C	0.825926	-0.220813	-0.497478
C34	C	0.912004	-0.192638	-0.514908
C35	C	0.933386	-0.022100	-0.620513
C36	C	1.271454	-0.269864	-0.638339
C37	C	1.271518	-0.388143	-0.638372
C38	C	1.315514	-0.457359	-0.594534
C39	C	1.350865	-0.496859	-0.673841
C40	C	1.236280	-0.559393	-0.559134
C41	C	1.306915	-0.426060	-0.717726
C42	C	1.192285	-0.488615	-0.602961
C43	C	1.227617	-0.528075	-0.682314
C44	C	1.486484	0.076972	-0.681920
C45	C	1.578099	0.106921	-0.700483
C46	C	1.315012	0.077134	-0.853348
C47	C	1.333556	0.107152	-0.944963
C48	C	1.271563	0.284345	-0.638405
C49	C	1.271591	0.402664	-0.638424
C50	C	1.130933	-0.220663	-1.192824
C51	C	1.148375	-0.192438	-1.278913
C52	C	1.253825	-0.021835	-1.300284
C53	C	1.236388	-0.050043	-1.214194
C54	C	1.174942	-0.149459	-1.160470
C55	C	1.280398	0.021160	-1.181840
C56	C	1.262965	-0.007049	-1.095758
C57	C	1.201524	-0.106462	-1.042029
C58	C	1.157510	-0.177669	-1.074388
C59	C	1.341848	0.120571	-1.235566
C60	C	1.385857	0.191775	-1.203212
C61	C	1.368421	0.163570	-1.117128
C62	C	1.306979	0.064157	-1.063399
C63	C	1.412435	0.234777	-1.084769
C64	C	1.395003	0.206568	-0.998687
C65	C	1.289547	0.035948	-0.977317
C66	C	1.228195	-0.063380	-0.424219
C67	C	1.209811	-0.093045	-0.332637
H68	H	0.977135	0.058804	-0.670612
C69	C	1.177408	-0.569748	-0.732497
N70	N	1.139594	-0.601135	-0.770297
H71	H	0.938778	0.143203	-0.722875
H72	H	0.761661	0.315351	-0.829531
C73	C	1.453439	0.301136	-1.262316
N74	N	1.504338	0.383513	-1.306831
C75	C	0.895443	0.300738	-0.820458
N76	N	0.939962	0.383056	-0.871431
H77	H	1.352736	-0.426268	-0.557506
C78	C	1.321407	0.087526	-1.359387
N79	N	1.372306	0.169903	-1.403903
H80	H	1.125260	-0.483942	-0.572965
C81	C	1.221952	-0.073414	-0.918216
N82	N	1.171044	-0.155784	-0.873701
C83	C	0.596250	0.284564	-0.810497
N84	N	0.569454	0.343545	-0.847030
H85	H	1.206447	-0.616918	-0.492101
H86	H	0.605054	-0.129542	-0.554011
C87	C	0.648385	-0.287094	-0.456464
N88	N	0.603865	-0.369416	-0.405497
H89	H	1.187335	-0.129431	-0.971937
H90	H	0.566688	-0.045159	-0.606301
C91	C	0.766814	-0.330099	-0.429803
N92	N	0.722291	-0.412414	-0.378830
H93	H	1.430838	0.264550	-0.972344
C94	C	1.089915	-0.287031	-1.015286
N95	N	1.039007	-0.369401	-0.970772
H96	H	1.080877	-0.301598	-1.149074
C97	C	1.347329	-0.348484	-0.808330
N98	N	1.377772	-0.290051	-0.876571
C99	C	1.099954	-0.270774	-1.314497
N100	N	1.063485	-0.329776	-1.341299
H101	H	0.938341	-0.250599	-0.479010
C102	C	1.441429	-0.503152	-0.714336
N103	N	1.509642	-0.507891	-0.744830
C104	C	1.480023	0.344132	-1.143876
N105	N	1.530928	0.426501	-1.188394
H106	H	1.356041	0.143534	-1.305659
