data_functionalizedCrystal
_audit_creation_method	'MofGen! by Chris Wilmer'
_symmetry_space_group_name_H-M	'P1'
_symmetry_Int_Tables_number	1
_symmetry_cell_setting	triclinic
loop_
_symmetry_equiv_pos_as_xyz
  x,y,z
_cell_length_a	12.594517
_cell_length_b	16.994747
_cell_length_c	12.594509
_cell_angle_alpha	90.008624
_cell_angle_beta	90.021327
_cell_angle_gamma	90.010859
loop_
_atom_site_label
_atom_site_type_symbol
_atom_site_fract_x
_atom_site_fract_y
_atom_site_fract_z
Zn1	Zn	1.627304	-0.314008	0.602005
Zn2	Zn	1.627210	-0.445929	0.424087
Zn3	Zn	1.449308	-0.314042	0.424034
Zn4	Zn	1.449306	-0.445874	0.602017
O5	O	1.538282	-0.379963	0.513036
O6	O	1.776237	-0.331517	0.578421
O7	O	1.603573	-0.428471	0.275134
O8	O	1.472960	-0.203657	0.447615
O9	O	1.776169	-0.428438	0.447706
O10	O	1.603733	-0.203632	0.578369
O11	O	1.472869	-0.331574	0.275095
O12	O	1.300362	-0.331521	0.447627
O13	O	1.472956	-0.428345	0.750962
O14	O	1.300360	-0.428377	0.578390
O15	O	1.603730	-0.331464	0.750953
O16	O	1.603571	-0.556303	0.447718
O17	O	1.472865	-0.556262	0.578442
C18	C	1.261741	-0.379947	0.513005
C19	C	1.143435	-0.379960	0.513016
C20	C	1.538220	-0.584903	0.513084
C21	C	1.538228	-0.674225	0.513081
Zn22	Zn	1.449338	-0.945129	0.424004
Zn23	Zn	1.627351	-0.945073	0.601958
Zn24	Zn	1.449342	-0.813266	0.602000
Zn25	Zn	1.627230	-0.813184	0.424053
O26	O	1.538315	-0.879163	0.513004
O27	O	1.473002	-1.055503	0.447572
O28	O	1.603790	-0.927600	0.750910
O29	O	1.300396	-0.830816	0.578385
O30	O	1.603787	-1.055462	0.578315
O31	O	1.300393	-0.927694	0.447612
O32	O	1.473008	-0.830762	0.750940
O33	O	1.472890	-0.702874	0.578432
O34	O	1.603580	-0.830675	0.275100
O35	O	1.603583	-0.702814	0.447695
O36	O	1.472884	-0.927615	0.275065
O37	O	1.776281	-0.927520	0.578362
O38	O	1.776192	-0.830622	0.447655
C39	C	1.074152	-0.327208	0.442030
C40	C	1.003350	-0.399158	0.415883
C41	C	1.003439	-0.308044	0.539181
C42	C	1.074191	-0.451948	0.486819
C43	C	1.074287	-0.360785	0.610163
C44	C	1.003516	-0.432786	0.584053
C45	C	1.815903	-0.379980	0.513068
C46	C	1.934208	-0.379987	0.513082
C47	C	1.538353	-0.379894	0.790657
C48	C	1.538384	-0.379865	0.908962
C49	C	1.538349	-0.174223	0.512982
C50	C	1.538382	-0.084901	0.512959
C51	C	1.538272	-0.379975	0.236495
C52	C	1.538448	-0.379782	0.118190
C53	C	1.467278	-0.432528	0.978221
C54	C	1.564400	-0.451801	1.049020
C55	C	1.441336	-0.360544	1.048962
C56	C	1.635557	-0.399176	0.978204
C57	C	1.512428	-0.307885	0.978140
C58	C	1.609618	-0.327130	1.048907
C59	C	1.814856	-0.879058	0.513012
C60	C	1.933162	-0.879036	0.513047
C61	C	1.538218	-0.879142	0.235383
C62	C	1.538176	-0.879133	0.117077
C63	C	1.260695	-0.879270	0.512998
C64	C	1.142389	-0.879316	0.512995
C65	C	1.538337	-0.879229	0.789545
C66	C	1.538081	-0.879389	0.907850
C67	C	2.002405	-0.826292	0.442036
C68	C	2.073198	-0.807062	0.539194
C69	C	2.073167	-0.898228	0.415965
C70	C	2.002397	-0.859769	0.610256
C71	C	2.002360	-0.950969	0.486961
C72	C	2.073121	-0.931766	0.584186
C73	C	1.609217	-0.826403	0.047843
C74	C	1.635243	-0.898353	-0.022970
C75	C	1.512072	-0.807176	-0.022909
C76	C	1.564254	-0.951121	0.047822
C77	C	1.441037	-0.859895	0.047889
C78	C	1.467027	-0.931895	-0.022892
H79	H	0.972193	-0.415393	0.333756
C80	C	1.079187	-0.393330	0.795611
C81	C	1.116396	-0.338843	0.720995
H82	H	1.105183	-0.379772	0.864034
H83	H	1.103369	-0.444463	0.777136
H84	H	1.003769	-0.392695	0.796279
H85	H	1.191814	-0.339481	0.720321
H86	H	1.092219	-0.287696	0.739475
H87	H	1.359238	-0.344237	1.080045
C88	C	1.689681	-0.266933	1.201719
C89	C	1.690907	-0.266951	1.090548
H90	H	1.739860	-0.229777	1.227424
H91	H	1.707572	-0.317871	1.227062
H92	H	1.620779	-0.253125	1.226066
H93	H	1.759807	-0.280765	1.066201
H94	H	1.673023	-0.216001	1.065196
H95	H	0.972305	-0.247223	0.561248
C96	C	1.309503	-0.453951	0.875109
C97	C	1.386164	-0.492737	0.936310
H98	H	1.259429	-0.491123	0.849241
H99	H	1.342971	-0.428460	0.816949
H100	H	1.274107	-0.415974	0.917640
H101	H	1.421565	-0.530711	0.893777
H102	H	1.352693	-0.518241	0.994479
C103	C	1.519489	-0.589027	1.055389
C104	C	1.594085	-0.533925	1.091061
H105	H	1.537809	-0.639726	1.081347
H106	H	1.519052	-0.589770	0.979981
H107	H	1.451018	-0.574961	1.080663
H108	H	1.662555	-0.547988	1.065779
H109	H	1.594533	-0.533184	1.166484
H110	H	1.490046	-0.746329	-0.053982
C111	C	1.995969	-1.053049	0.355310
C112	C	1.960309	-1.033065	0.457092
H113	H	1.969999	-1.103730	0.336860
H114	H	2.071376	-1.053530	0.354481
H115	H	1.970697	-1.015445	0.305557
H116	H	1.985587	-1.070666	0.506845
H117	H	1.884885	-1.032590	0.457928
C118	C	1.744561	-0.920787	-0.176160
C119	C	1.746062	-0.920330	-0.064992
H120	H	1.812975	-0.934357	-0.202096
H121	H	1.725589	-0.870040	-0.201415
H122	H	1.694110	-0.958285	-0.200359
H123	H	1.796508	-0.882827	-0.040792
H124	H	1.765047	-0.971084	-0.039727
H125	H	1.717679	-0.415552	0.947252
H126	H	1.490411	-0.247066	0.946983
C127	C	1.594001	-1.032533	0.200754
C128	C	1.594150	-1.033281	0.089580
H129	H	1.612473	-1.083251	0.226532
H130	H	1.525260	-1.018806	0.225603
H131	H	1.644184	-0.995041	0.225522
H132	H	1.543961	-1.070770	0.064812
H133	H	1.662901	-1.047018	0.064720
H134	H	1.971357	-0.781655	0.382031
H135	H	2.104295	-0.746226	0.561305
H136	H	2.103975	-0.976369	0.644335
H137	H	1.971440	-0.843464	0.692407
C138	C	2.079424	-0.864835	0.230844
C139	C	2.115129	-0.920151	0.305098
H140	H	2.105322	-0.878370	0.162398
H141	H	2.104727	-0.814104	0.249884
H142	H	2.004006	-0.864528	0.229882
H143	H	2.190547	-0.920455	0.306066
H144	H	2.089831	-0.970896	0.286053
C145	C	1.177978	-0.563695	0.540036
C146	C	1.115962	-0.534090	0.456846
H147	H	1.203771	-0.614401	0.521525
H148	H	1.136032	-0.567396	0.602494
H149	H	1.236203	-0.529368	0.552494
H150	H	1.057732	-0.568413	0.444393
H151	H	1.157910	-0.530393	0.394369
C152	C	1.080217	-0.287332	0.259249
C153	C	1.116033	-0.267044	0.360897
H154	H	1.106079	-0.250194	0.209162
H155	H	1.004808	-0.287260	0.258274
H156	H	1.105491	-0.338300	0.241370
H157	H	1.090752	-0.216078	0.378779
H158	H	1.191458	-0.267108	0.361875
H159	H	1.669393	-0.781874	0.078901
C160	C	1.413381	-1.067407	-0.028672
C161	C	1.385857	-0.992148	-0.064571
H162	H	1.363276	-1.104605	-0.054412
H163	H	1.413393	-1.068036	0.046739
H164	H	1.482135	-1.080623	-0.054013
H165	H	1.317105	-0.978929	-0.039223
H166	H	1.385833	-0.991517	-0.139997
C167	C	1.337772	-0.770116	0.152724
C168	C	1.330248	-0.837900	0.089953
H169	H	1.269376	-0.756534	0.178698
H170	H	1.364960	-0.728025	0.111234
H171	H	1.384070	-0.779825	0.210822
H172	H	1.283956	-0.828190	0.031850
H173	H	1.303045	-0.880001	0.131445
C174	C	0.850726	-0.492163	0.665127
C175	C	0.961897	-0.493085	0.665135
H176	H	0.825034	-0.529387	0.715187
H177	H	0.825370	-0.505365	0.596359
H178	H	0.826382	-0.441113	0.683849
H179	H	0.986242	-0.544134	0.646406
H180	H	0.987264	-0.479889	0.733918
