data_functionalizedCrystal
_audit_creation_method	'MofGen! by Chris Wilmer'
_symmetry_space_group_name_H-M	'P1'
_symmetry_Int_Tables_number	1
_symmetry_cell_setting	triclinic
loop_
_symmetry_equiv_pos_as_xyz
  x,y,z
_cell_length_a	18.101398
_cell_length_b	18.101395
_cell_length_c	18.101389
_cell_angle_alpha	90.016841
_cell_angle_beta	90.024802
_cell_angle_gamma	90.028835
loop_
_atom_site_label
_atom_site_type_symbol
_atom_site_fract_x
_atom_site_fract_y
_atom_site_fract_z
Zn1	Zn	1.132121	-0.294952	0.418856
Zn2	Zn	1.632121	0.205048	0.918856
Zn3	Zn	1.132017	-0.418778	0.295018
Zn4	Zn	1.632017	0.081222	0.795018
Zn5	Zn	1.008280	-0.294950	0.295016
Zn6	Zn	1.508280	0.205050	0.795016
Zn7	Zn	1.008231	-0.418751	0.418806
Zn8	Zn	1.508231	0.081249	0.918806
O9	O	1.070162	-0.356858	0.356924
O10	O	1.570162	0.143142	0.856924
O11	O	1.235740	-0.311390	0.402451
O12	O	1.735740	0.188610	0.902451
O13	O	1.115580	-0.402362	0.191385
O14	O	1.615580	0.097638	0.691385
O15	O	1.024772	-0.191317	0.311464
O16	O	1.524772	0.308683	0.811464
O17	O	1.235664	-0.402364	0.311467
O18	O	1.735664	0.097636	0.811467
O19	O	1.115757	-0.191319	0.402449
O20	O	1.615757	0.308681	0.902449
O21	O	1.024671	-0.311386	0.191384
O22	O	1.524671	0.188614	0.691384
O23	O	0.904641	-0.311360	0.311415
O24	O	1.404641	0.188640	0.811415
O25	O	1.024688	-0.402319	0.522445
O26	O	1.524688	0.097681	1.022445
O27	O	0.904604	-0.402317	0.402363
O28	O	1.404604	0.097683	0.902363
O29	O	1.115710	-0.311364	0.522482
O30	O	1.615710	0.188636	1.022482
O31	O	1.115532	-0.522407	0.311418
O32	O	1.615532	-0.022407	0.811418
O33	O	1.024587	-0.522388	0.402365
O34	O	1.524587	-0.022388	0.902365
C35	C	0.877752	-0.356836	0.356884
C36	C	1.377752	0.143164	0.856884
C37	C	0.795437	-0.356844	0.356884
C38	C	1.295437	0.143156	0.856884
C39	C	0.644729	-0.356860	0.356918
C40	C	1.144729	0.143140	0.856918
C41	C	0.613373	-0.299550	0.299791
C42	C	1.113373	0.200450	0.799791
C43	C	0.527755	-0.299335	0.299979
C44	C	1.027755	0.200665	0.799979
C45	C	0.496347	-0.356875	0.356949
C46	C	0.996347	0.143125	0.856949
C47	C	0.527486	-0.336055	0.435084
C48	C	1.027486	0.163945	0.935084
C49	C	0.613131	-0.335631	0.434735
C50	C	1.113131	0.164369	0.934735
C51	C	0.613125	-0.435137	0.336598
C52	C	1.113125	0.064863	0.836598
C53	C	0.527474	-0.434724	0.334895
C54	C	1.027474	0.065276	0.834895
C55	C	0.412487	-0.356884	0.356972
C56	C	0.912487	0.143116	0.856972
C57	C	0.728589	-0.356848	0.356900
C58	C	1.228589	0.143152	0.856900
C59	C	1.070063	-0.549268	0.356902
C60	C	1.570063	-0.049268	0.856902
C61	C	1.070088	-0.631582	0.356918
C62	C	1.570088	-0.131582	0.856918
C63	C	1.070251	-0.930673	0.356958
C64	C	1.570251	-0.430673	0.856958
C65	C	1.013163	-0.899367	0.414321
C66	C	1.513163	-0.399367	0.914321
C67	C	1.012892	-0.813749	0.414141
C68	C	1.512892	-0.313749	0.914141
C69	C	1.070170	-0.782291	0.356938
C70	C	1.570170	-0.282291	0.856938
C71	C	1.049041	-0.813427	0.278887
C72	C	1.549041	-0.313427	0.778887
C73	C	1.048673	-0.899072	0.279230
C74	C	1.548673	-0.399072	0.779230
C75	C	1.148593	-0.899024	0.376959
C76	C	1.648593	-0.399024	0.876959
C77	C	1.148132	-0.813373	0.378671
C78	C	1.648132	-0.313373	0.878671
C79	C	1.070126	-0.698431	0.356923
C80	C	1.570126	-0.198431	0.856923
C81	C	1.070293	-1.014533	0.356968
C82	C	1.570293	-0.514533	0.856968
C83	C	1.263324	-0.356880	0.356965
C84	C	1.763324	0.143120	0.856965
C85	C	1.345638	-0.356890	0.356982
C86	C	1.845638	0.143110	0.856982
C87	C	1.070205	-0.356839	0.550086
C88	C	1.570205	0.143161	1.050086
C89	C	1.070223	-0.356831	0.632400
C90	C	1.570223	0.143169	1.132400
C91	C	1.070282	-0.163696	0.356962
C92	C	1.570282	0.336304	0.856962
C93	C	1.070333	-0.081382	0.356978
C94	C	1.570333	0.418618	0.856978
C95	C	1.070162	-0.356823	0.164514
C96	C	1.570162	0.143177	0.664514
C97	C	1.070287	-0.356622	0.082200
C98	C	1.570287	0.143378	0.582200
C99	C	1.070266	-0.356692	0.931491
C100	C	1.570266	0.143308	1.431491
C101	C	1.012801	-0.413737	0.900143
C102	C	1.512801	0.086263	1.400143
C103	C	1.012956	-0.414001	0.814524
C104	C	1.512956	0.085999	1.314524
C105	C	1.070244	-0.356761	0.783109
C106	C	1.570244	0.143239	1.283109
C107	C	1.148270	-0.377948	0.814216
C108	C	1.648270	0.122052	1.314216
C109	C	1.147949	-0.378323	0.899861
C110	C	1.647949	0.121677	1.399861
C111	C	1.050385	-0.278334	0.899913
C112	C	1.550385	0.221666	1.399913
C113	C	1.048649	-0.278787	0.814262
C114	C	1.548649	0.221213	1.314262
C115	C	1.070237	-0.356799	0.699249
C116	C	1.570237	0.143201	1.199249
C117	C	1.070279	-0.356656	1.015351
C118	C	1.570279	0.143344	1.515351
H119	H	0.507118	-0.450428	0.277392
H120	H	1.007118	0.049572	0.777392
H121	H	1.192915	-0.791955	0.339937
H122	H	1.692915	-0.291955	0.839937
H123	H	0.992380	-0.792037	0.261641
H124	H	1.492380	-0.292037	0.761641
H125	H	0.507146	-0.376526	0.478826
H126	H	1.007146	0.123474	0.978826
H127	H	0.991229	-0.262809	0.793930
H128	H	1.491229	0.237191	1.293930
H129	H	1.025796	-0.471464	0.921670
H130	H	1.525796	0.028536	1.421670
N131	N	0.502081	-0.226582	0.316923
N132	N	1.002081	0.273418	0.816923
N133	N	0.462683	-0.215982	0.372617
N134	N	0.962683	0.284018	0.872617
H135	H	0.444552	-0.164597	0.384589
H136	H	0.944552	0.335403	0.884589
H137	H	0.506086	-0.479685	0.373442
H138	H	1.006086	0.020315	0.873442
H139	H	1.026252	-0.919926	0.472382
H140	H	1.526252	-0.419926	0.972382
H141	H	1.092240	-0.235833	0.920188
H142	H	1.592240	0.264167	1.420188
H143	H	1.087450	-0.234029	0.792877
H144	H	1.587450	0.265971	1.292877
H145	H	0.954768	-0.400614	0.920728
H146	H	1.454768	0.099386	1.420728
N147	N	0.639184	-0.315649	0.226894
N148	N	1.139184	0.184351	0.726894
N149	N	0.706925	-0.315717	0.213523
N150	N	1.206925	0.184283	0.713523
H151	H	0.725165	-0.327091	0.162040
H152	H	1.225165	0.172909	0.662040
H153	H	0.955448	-0.920949	0.401238
H154	H	1.455448	-0.420949	0.901238
N155	N	1.172755	-0.926077	0.447141
N156	N	1.672755	-0.426077	0.947141
N157	N	1.132522	-0.969018	0.483272
N158	N	1.632522	-0.469018	0.983272
H159	H	1.149579	-0.988127	0.532839
H160	H	1.649579	-0.488127	1.032839
N161	N	0.501345	-0.315634	0.227310
N162	N	1.001345	0.184366	0.727310
N163	N	0.546167	-0.327246	0.176100
N164	N	1.046167	0.172754	0.676100
H165	H	0.527519	-0.338756	0.124773
H166	H	1.027519	0.161244	0.624773
H167	H	0.634921	-0.241876	0.313108
H168	H	1.134921	0.258124	0.813108
N169	N	1.169073	-0.450185	0.924936
N170	N	1.669073	0.049815	1.424936
N171	N	1.125816	-0.487241	0.963968
N172	N	1.625816	0.012759	1.463968
H173	H	1.140733	-0.537996	0.981673
H174	H	1.640733	-0.037996	1.481673
H175	H	1.191125	-0.919268	0.335180
H176	H	1.691125	-0.419268	0.835180
H177	H	0.506066	-0.279480	0.452562
H178	H	1.006066	0.220520	0.952562
N179	N	0.638221	-0.263864	0.456287
N180	N	1.138221	0.236136	0.956287
N181	N	0.592478	-0.214439	0.471480
N182	N	1.092478	0.285561	0.971480
H183	H	0.610194	-0.163751	0.486702
H184	H	1.110194	0.336249	0.986702
N185	N	0.940371	-0.397365	0.788144
N186	N	1.440371	0.102635	1.288144
N187	N	0.889243	-0.385478	0.832987
N188	N	1.389243	0.114522	1.332987
H189	H	0.837976	-0.373732	0.814360
H190	H	1.337976	0.126268	1.314360
H191	H	0.633877	-0.375576	0.478772
H192	H	1.133877	0.124424	0.978772
N193	N	1.029531	-0.486849	0.788858
N194	N	1.529531	0.013151	1.288858
N195	N	1.085180	-0.497708	0.749469
N196	N	1.585180	0.002292	1.249469
H197	H	1.096913	-0.549159	0.731354
H198	H	1.596913	-0.049159	1.231354
N199	N	1.203482	-0.328462	0.925872
N200	N	1.703482	0.171538	1.425872
N201	N	1.242355	-0.293502	0.880771
N202	N	1.742355	0.206498	1.380771
H203	H	1.281576	-0.258288	0.899138
H204	H	1.781576	0.241712	1.399138
H205	H	1.026111	-0.792696	0.472015
H206	H	1.526111	-0.292696	0.972015
N207	N	0.640173	-0.458981	0.266314
N208	N	1.140173	0.041019	0.766314
N209	N	0.683077	-0.418567	0.230342
N210	N	1.183077	0.081433	0.730342
H211	H	0.702180	-0.435398	0.180700
H212	H	1.202180	0.064602	0.680700
N213	N	0.638569	-0.488691	0.388794
N214	N	1.138569	0.011309	0.888794
N215	N	0.679796	-0.469395	0.440752
N216	N	1.179796	0.030605	0.940752
H217	H	0.697769	-0.507212	0.477618
H218	H	1.197769	-0.007212	0.977618
H219	H	0.954823	-0.793321	0.400891
H220	H	1.454823	-0.293321	0.900891
H221	H	0.991406	-0.919110	0.262288
H222	H	1.491406	-0.419110	0.762288
N223	N	1.098556	-0.925048	0.223769
N224	N	1.598556	-0.425048	0.723769
N225	N	1.133526	-0.879921	0.184929
N226	N	1.633526	-0.379921	0.684929
H227	H	1.168747	-0.898263	0.145752
H228	H	1.668747	-0.398263	0.645752
N229	N	1.099567	-0.787865	0.223813
N230	N	1.599567	-0.287865	0.723813
N231	N	1.151835	-0.746314	0.241516
N232	N	1.651835	-0.246314	0.741516
H233	H	1.187521	-0.728260	0.202621
H234	H	1.687521	-0.228260	0.702621
H235	H	1.164066	-0.793021	0.436113
H236	H	1.664066	-0.293021	0.936113
H237	H	1.192236	-0.337705	0.793869
H238	H	1.692236	0.162295	1.293869
H239	H	1.165415	-0.434620	0.792775
H240	H	1.665415	0.065380	1.292775
N241	N	0.980240	-0.254126	0.926970
N242	N	1.480240	0.245874	1.426970
N243	N	0.929016	-0.240436	0.882721
N244	N	1.429016	0.259564	1.382721
H245	H	0.879472	-0.223347	0.901829
H246	H	1.379472	0.276653	1.401829
