data_functionalizedCrystal
_audit_creation_method	'MofGen! by Chris Wilmer'
_symmetry_space_group_name_H-M	'P1'
_symmetry_Int_Tables_number	1
_symmetry_cell_setting	triclinic
loop_
_symmetry_equiv_pos_as_xyz
  x,y,z
_cell_length_a	10.868271
_cell_length_b	19.188931
_cell_length_c	11.792241
_cell_angle_alpha	96.330721
_cell_angle_beta	89.994719
_cell_angle_gamma	90.002859
loop_
_atom_site_label
_atom_site_type_symbol
_atom_site_fract_x
_atom_site_fract_y
_atom_site_fract_z
O1	O	-0.102280	-0.926947	0.141699
O2	O	0.397720	-0.426947	0.641699
O3	O	-0.102292	-0.723744	0.160772
O4	O	0.397708	-0.223744	0.660772
O5	O	-0.102277	-0.830276	-0.014009
O6	O	0.397723	-0.330276	0.485991
O7	O	-0.102295	-0.820414	0.316480
O8	O	0.397705	-0.320414	0.816480
O9	O	0.102367	-0.830267	-0.014015
O10	O	0.602367	-0.330267	0.485985
O11	O	0.102352	-0.723735	0.160766
O12	O	0.602352	-0.223735	0.660766
O13	O	0.102364	-0.926938	0.141692
O14	O	0.602364	-0.426938	0.641692
Zn15	Zn	0.134850	-0.825335	0.151228
Zn16	Zn	0.634850	-0.325335	0.651228
Zn17	Zn	-0.134778	-0.825347	0.151237
Zn18	Zn	0.365222	-0.325347	0.651237
O19	O	0.102349	-0.820405	0.316473
O20	O	0.602349	-0.320405	0.816473
C21	C	0.000029	-0.697725	0.160151
C22	C	0.500029	-0.197725	0.660151
C23	C	0.000024	-0.620210	0.158297
C24	C	0.500024	-0.120210	0.658297
N25	N	0.318864	-0.825332	0.151221
N26	N	0.818864	-0.325332	0.651221
N27	N	-0.318792	-0.825355	0.151235
N28	N	0.181208	-0.325355	0.651235
C29	C	-0.111514	-0.066884	0.145063
C30	C	0.388486	0.433116	0.645063
C31	C	-0.111519	-0.139718	0.146799
C32	C	0.388481	0.360282	0.646799
C33	C	0.000032	-0.176135	0.147669
C34	C	0.500032	0.323865	0.647669
C35	C	0.111597	-0.139714	0.146773
C36	C	0.611597	0.360286	0.646773
C37	C	0.111598	-0.066882	0.145026
C38	C	0.611598	0.433118	0.645026
N39	N	0.083062	-0.285533	0.214992
N40	N	0.583062	0.214467	0.714992
N41	N	0.083053	-0.354720	0.216655
N42	N	0.583053	0.145280	0.716655
C43	C	0.000034	-0.395574	0.152931
C44	C	0.500034	0.104426	0.652931
N45	N	-0.082993	-0.364626	0.087496
N46	N	0.417007	0.135374	0.587496
N47	N	-0.082988	-0.295432	0.085839
N48	N	0.417012	0.204568	0.585839
C49	C	0.000043	-0.255109	0.149563
C50	C	0.500043	0.244891	0.649563
C51	C	-0.111528	-0.510961	0.155700
C52	C	0.388472	-0.010961	0.655700
C53	C	-0.111528	-0.583797	0.157429
C54	C	0.388472	-0.083797	0.657429
C55	C	0.111591	-0.583791	0.157414
C56	C	0.611591	-0.083791	0.657414
C57	C	0.111588	-0.510958	0.155674
C58	C	0.611588	-0.010958	0.655674
C59	C	0.000025	-0.474547	0.154823
C60	C	0.500025	0.025453	0.654823
C61	C	0.569870	-0.825343	0.151234
C62	C	1.069870	-0.325343	0.651234
C63	C	0.430193	-0.825335	0.151230
C64	C	0.930193	-0.325335	0.651230
C65	C	0.000040	0.047043	0.142315
C66	C	0.500040	0.547043	0.642315
C67	C	0.000035	-0.030471	0.144174
C68	C	0.500035	0.469529	0.644174
C69	C	0.000044	-0.829652	-0.056294
C70	C	0.500044	-0.329652	0.443706
C71	C	0.000043	-0.827798	-0.182280
C72	C	0.500043	-0.327798	0.317720
C73	C	0.000022	-0.824389	-0.412941
C74	C	0.500022	-0.324389	0.087059
C75	C	0.000034	-0.826283	-0.284584
C76	C	0.500034	-0.326283	0.215416
C77	C	0.000025	-0.821029	0.358758
C78	C	0.500025	-0.321029	0.858758
C79	C	0.000018	-0.822883	0.484744
C80	C	0.500018	-0.322883	0.984744
H81	H	-0.202359	-0.169370	0.147529
H82	H	0.297641	0.330630	0.647529
H83	H	0.202424	-0.481310	0.154954
H84	H	0.702424	0.018690	0.654954
H85	H	0.202423	-0.169370	0.147479
H86	H	0.702423	0.330630	0.647479
H87	H	-0.202358	-0.037243	0.144365
H88	H	0.297642	0.462757	0.644365
O89	O	0.231917	-0.027601	0.144082
O90	O	0.731917	0.472399	0.644082
H91	H	0.309489	-0.065156	0.144984
H92	H	0.809489	0.434844	0.644984
O93	O	-0.231848	-0.471683	0.154753
O94	O	0.268152	0.028317	0.654753
H95	H	-0.309419	-0.509244	0.155639
H96	H	0.190581	-0.009244	0.655639
H97	H	-0.202369	-0.613444	0.158144
H98	H	0.297631	-0.113444	0.658144
H99	H	0.202418	-0.613442	0.158118
H100	H	0.702418	-0.113442	0.658118
