data_functionalizedCrystal
_audit_creation_method	'MofGen! by Chris Wilmer'
_symmetry_space_group_name_H-M	'P1'
_symmetry_Int_Tables_number	1
_symmetry_cell_setting	triclinic
loop_
_symmetry_equiv_pos_as_xyz
  x,y,z
_cell_length_a	6.817900
_cell_length_b	11.102188
_cell_length_c	17.110486
_cell_angle_alpha	95.184548
_cell_angle_beta	99.060439
_cell_angle_gamma	108.603875
loop_
_atom_site_label
_atom_site_type_symbol
_atom_site_fract_x
_atom_site_fract_y
_atom_site_fract_z
V1	V	-4.002954	-0.175460	-0.246720
O2	O	-3.964064	0.008821	-0.242024
O3	O	-3.980464	-0.348283	-0.245033
O4	O	-3.932386	-0.172591	-0.354323
O5	O	-4.012475	-0.168088	-0.131977
V6	V	-4.486097	-0.153438	-0.232996
O7	O	-4.265046	-0.223767	-0.276826
O8	O	-4.674203	-0.105131	-0.202891
O9	O	-4.285381	0.019384	-0.234683
O10	O	-4.642385	-0.337720	-0.237693
O11	O	-4.593974	-0.160811	-0.347740
O12	O	-4.333459	-0.156308	-0.125393
C13	C	-3.832486	-0.390419	-0.241141
C14	C	-3.895237	-0.531702	-0.240478
C15	C	-3.896436	-0.580040	-0.167703
C16	C	-3.955419	-0.712792	-0.167084
C17	C	-4.011994	-0.748859	-0.312022
C18	C	-3.953026	-0.616110	-0.312640
C19	C	-4.119180	-0.876700	-0.081714
C20	C	-4.120345	-0.925040	-0.008934
C21	C	-3.959060	-0.861880	0.057385
C22	C	-3.796562	-0.750380	0.050927
C23	C	-3.795383	-0.702047	-0.021853
C24	C	-3.956712	-0.765206	-0.088170
C25	C	-3.789245	-0.452197	-0.398005
C26	C	-3.788051	-0.403861	-0.470786
C27	C	-3.949325	-0.467020	-0.537111
C28	C	-4.111798	-0.578525	-0.530661
C29	C	-4.112992	-0.626861	-0.457880
C30	C	-3.951718	-0.563693	-0.391555
C31	C	-3.771156	-0.166304	-0.380551
C32	C	-3.794913	-0.165101	-0.468517
C33	C	-3.988312	-0.170879	-0.513875
C34	C	-4.010623	-0.169748	-0.596528
C35	C	-3.839536	-0.162848	-0.633823
C36	C	-3.646120	-0.157066	-0.588458
C37	C	-3.623807	-0.158188	-0.505806
C38	C	-3.897784	-0.159135	-0.883178
C39	C	-3.920114	-0.158018	-0.965837
C40	C	-4.284615	-0.170697	-0.973900
C41	C	-4.262289	-0.171826	-0.891246
C42	C	-4.068873	-0.166037	-0.845889
C43	C	-3.862339	-0.161696	-0.718308
C44	C	-4.046068	-0.167180	-0.761404
C45	C	-4.096703	0.061513	-0.238573
C46	C	-4.013189	0.202796	-0.239241
C47	C	-4.158033	-0.162599	-0.099161
C48	C	-4.113513	-0.163795	-0.011194
H49	H	-4.245294	-0.717658	-0.452633
H50	H	-4.185363	-0.172794	-0.731035
C51	C	-3.411075	-0.151837	-0.455909
H52	H	-3.422282	-0.153481	-0.401342
H53	H	-3.375150	-0.223493	-0.475022
H54	H	-3.304546	-0.074593	-0.460570
H55	H	-4.442088	-0.175408	-1.010839
H56	H	-3.780782	-0.152395	-0.996199
C57	C	-4.450478	-0.179397	-0.850226
H58	H	-4.568852	-0.182662	-0.889077
H59	H	-4.484665	-0.254539	-0.825375
H60	H	-4.414021	-0.105638	-0.810926
H61	H	-3.657914	-0.400759	-0.344000
C62	C	-4.289210	-0.648002	-0.603616
H63	H	-4.265242	-0.603239	-0.647882
H64	H	-4.290596	-0.733288	-0.616765
H65	H	-4.421249	-0.650319	-0.591212
C66	C	-3.616692	-0.579393	-0.028956
H67	H	-3.520806	-0.548689	0.020968
H68	H	-3.544175	-0.598363	-0.068884
H69	H	-3.674871	-0.515433	-0.043316
H70	H	-3.740317	-0.154467	-0.846261
H71	H	-3.948325	-0.427659	-0.596375
H72	H	-4.168102	-0.174446	-0.633454
C73	C	-4.299084	-1.047677	-0.001826
H74	H	-4.276663	-1.067425	0.051015
H75	H	-4.430722	-1.034149	-0.013268
H76	H	-4.300095	-1.117127	-0.038833
H77	H	-3.723046	-0.156083	-0.748683
C78	C	-3.457929	-0.149480	-0.629481
H79	H	-3.498920	-0.149653	-0.685203
H80	H	-3.344079	-0.072616	-0.607053
H81	H	-3.414710	-0.221516	-0.621504
C82	C	-3.960336	-0.915045	0.137442
H83	H	-3.840994	-0.861467	0.176015
H84	H	-4.085708	-0.916751	0.155630
H85	H	-3.955061	-0.999719	0.130070
H86	H	-3.665223	-0.698970	0.104931
C87	C	-3.832918	-0.487198	-0.088330
H88	H	-3.842108	-0.535005	-0.044900
H89	H	-3.692134	-0.430520	-0.083024
H90	H	-3.925376	-0.438807	-0.088093
H91	H	-4.059049	-0.817599	-0.370773
H92	H	-4.250538	-0.928127	-0.135708
H93	H	-4.127638	-0.176506	-0.483517
H94	H	-3.655731	-0.313075	-0.476037
