data_functionalizedCrystal
_audit_creation_method	'MofGen! by Chris Wilmer'
_symmetry_space_group_name_H-M	'P1'
_symmetry_Int_Tables_number	1
_symmetry_cell_setting	triclinic
loop_
_symmetry_equiv_pos_as_xyz
  x,y,z
_cell_length_a	19.805407
_cell_length_b	19.805405
_cell_length_c	19.805399
_cell_angle_alpha	90.029301
_cell_angle_beta	90.017803
_cell_angle_gamma	90.023727
loop_
_atom_site_label
_atom_site_type_symbol
_atom_site_fract_x
_atom_site_fract_y
_atom_site_fract_z
Zn1	Zn	1.034736	-0.269527	0.382680
Zn2	Zn	1.368069	0.063806	0.716013
Zn3	Zn	1.701402	0.397139	1.049346
Zn4	Zn	1.034650	-0.382716	0.269488
Zn5	Zn	1.367984	-0.049382	0.602821
Zn6	Zn	1.701317	0.283951	0.936155
Zn7	Zn	0.921550	-0.269541	0.269508
Zn8	Zn	1.254884	0.063793	0.602841
Zn9	Zn	1.588217	0.397126	0.936174
Zn10	Zn	0.921514	-0.382674	0.382638
Zn11	Zn	1.254847	-0.049341	0.715971
Zn12	Zn	1.588180	0.283992	1.049305
O13	O	0.978113	-0.326115	0.326078
O14	O	1.311446	0.007219	0.659412
O15	O	1.644779	0.340552	0.992745
O16	O	1.129441	-0.284554	0.367674
O17	O	1.462774	0.048780	0.701007
O18	O	1.796108	0.382113	1.034340
O19	O	1.019627	-0.367726	0.174774
O20	O	1.352960	-0.034392	0.508107
O21	O	1.686294	0.298941	0.841441
O22	O	0.936615	-0.174822	0.284546
O23	O	1.269949	0.158511	0.617879
O24	O	1.603282	0.491844	0.951212
O25	O	1.129378	-0.367713	0.284512
O26	O	1.462712	-0.034379	0.617845
O27	O	1.796045	0.298954	0.951179
O28	O	1.019772	-0.174813	0.367693
O29	O	1.353106	0.158521	0.701026
O30	O	1.686439	0.491854	1.034359
O31	O	0.936533	-0.284576	0.174788
O32	O	1.269866	0.048757	0.508122
O33	O	1.603200	0.382090	0.841455
O34	O	0.826829	-0.284536	0.284506
O35	O	1.160162	0.048797	0.617839
O36	O	1.493496	0.382130	0.951172
O37	O	0.936553	-0.367642	0.477360
O38	O	1.269887	-0.034309	0.810694
O39	O	1.603220	0.299024	1.144027
O40	O	0.826802	-0.367655	0.367622
O41	O	1.160135	-0.034322	0.700955
O42	O	1.493469	0.299011	1.034289
O43	O	1.019737	-0.284514	0.477391
O44	O	1.353070	0.048820	0.810724
O45	O	1.686404	0.382153	1.144057
O46	O	1.019592	-0.477427	0.284472
O47	O	1.352925	-0.144093	0.617805
O48	O	1.686258	0.189240	0.951139
O49	O	0.936471	-0.477397	0.367603
O50	O	1.269804	-0.144063	0.700936
O51	O	1.603137	0.189270	1.034270
C52	C	0.802257	-0.326093	0.326062
C53	C	1.135590	0.007240	0.659395
C54	C	1.468923	0.340573	0.992729
C55	C	0.727025	-0.326101	0.326071
C56	C	1.060358	0.007233	0.659404
C57	C	1.393691	0.340566	0.992738
C58	C	0.691714	-0.282876	0.369439
C59	C	1.025047	0.050457	0.702772
C60	C	1.358380	0.383790	1.036106
C61	C	0.621025	-0.282880	0.369442
C62	C	0.954359	0.050454	0.702775
C63	C	1.287692	0.383787	1.036108
C64	C	0.585649	-0.326112	0.326079
C65	C	0.918982	0.007222	0.659412
C66	C	1.252316	0.340555	0.992746
C67	C	0.620965	-0.369338	0.282706
C68	C	0.954298	-0.036005	0.616040
C69	C	1.287632	0.297329	0.949373
C70	C	0.691652	-0.369330	0.282701
C71	C	1.024985	-0.035997	0.616034
C72	C	1.358319	0.297336	0.949367
C73	C	0.335892	-0.369368	0.282727
C74	C	0.669225	-0.036035	0.616060
C75	C	1.002558	0.297298	0.949394
C76	C	0.265199	-0.369374	0.282737
C77	C	0.598533	-0.036040	0.616071
C78	C	0.931866	0.297293	0.949404
C79	C	0.265265	-0.282918	0.369468
C80	C	0.598598	0.050416	0.702801
C81	C	0.931931	0.383749	1.036134
C82	C	0.335952	-0.282910	0.369462
C83	C	0.669285	0.050423	0.702796
C84	C	1.002619	0.383756	1.036129
C85	C	0.371262	-0.326134	0.326087
C86	C	0.704595	0.007200	0.659421
C87	C	1.037928	0.340533	0.992754
C88	C	0.447910	-0.326128	0.326084
C89	C	0.781243	0.007205	0.659417
C90	C	1.114577	0.340538	0.992751
C91	C	0.509002	-0.326121	0.326085
C92	C	0.842335	0.007213	0.659419
C93	C	1.175669	0.340546	0.992752
C94	C	0.978036	-0.501971	0.326046
C95	C	1.311370	-0.168637	0.659379
C96	C	1.644703	0.164696	0.992712
C97	C	0.978066	-0.577203	0.326054
C98	C	1.311399	-0.243869	0.659388
C99	C	1.644732	0.089464	0.992721
C100	C	1.021389	-0.612540	0.282813
C101	C	1.354722	-0.279207	0.616147
C102	C	1.688056	0.054127	0.949480
C103	C	1.021418	-0.683228	0.282828
C104	C	1.354751	-0.349895	0.616162
C105	C	1.688084	-0.016562	0.949495
C106	C	0.978119	-0.718578	0.326081
C107	C	1.311453	-0.385245	0.659415
C108	C	1.644786	-0.051911	0.992748
C109	C	0.934794	-0.683236	0.369327
C110	C	1.268128	-0.349902	0.702660
C111	C	1.601461	-0.016569	1.035994
C112	C	0.934769	-0.612549	0.369315
C113	C	1.268103	-0.279215	0.702648
C114	C	1.601436	0.054118	1.035982
C115	C	0.934894	-0.968309	0.369377
C116	C	1.268227	-0.634976	0.702710
C117	C	1.601561	-0.301642	1.036044
C118	C	0.934921	-1.039001	0.369384
C119	C	1.268254	-0.705668	0.702718
C120	C	1.601587	-0.372334	1.036051
C121	C	1.021542	-1.038989	0.282890
C122	C	1.354876	-0.705656	0.616224
C123	C	1.688209	-0.372322	0.949557
C124	C	1.021517	-0.968302	0.282878
C125	C	1.354851	-0.634968	0.616212
C126	C	1.688184	-0.301635	0.949545
C127	C	0.978195	-0.932965	0.326126
C128	C	1.311529	-0.599632	0.659460
C129	C	1.644862	-0.266299	0.992793
C130	C	0.978165	-0.856317	0.326110
C131	C	1.311499	-0.522984	0.659444
C132	C	1.644832	-0.189650	0.992777
C133	C	0.978145	-0.795225	0.326094
C134	C	1.311478	-0.461892	0.659427
C135	C	1.644812	-0.128559	0.992761
C136	C	1.154655	-0.326136	0.326095
C137	C	1.487989	0.007197	0.659429
C138	C	1.821322	0.340530	0.992762
C139	C	1.229887	-0.326146	0.326102
C140	C	1.563221	0.007188	0.659436
C141	C	1.896554	0.340521	0.992769
C142	C	0.978151	-0.326072	0.502621
C143	C	1.311484	0.007261	0.835954
C144	C	1.644817	0.340595	1.169288
C145	C	0.978167	-0.326054	0.577853
C146	C	1.311500	0.007280	0.911186
C147	C	1.644833	0.340613	1.244520
C148	C	0.978207	-0.149572	0.326126
C149	C	1.311541	0.183762	0.659459
C150	C	1.644874	0.517095	0.992793
C151	C	0.978248	-0.074340	0.326146
C152	C	1.311581	0.258994	0.659480
C153	C	1.644915	0.592327	0.992813
C154	C	0.978114	-0.326108	0.150222
C155	C	1.311447	0.007225	0.483556
C156	C	1.644780	0.340558	0.816889
C157	C	0.978229	-0.325936	0.074991
C158	C	1.311562	0.007398	0.408324
C159	C	1.644895	0.340731	0.741657
C160	C	1.021481	-0.282767	0.613214
C161	C	1.354815	0.050567	0.946548
C162	C	1.688148	0.383900	1.279881
C163	C	1.021488	-0.282747	0.683903
C164	C	1.354822	0.050586	1.017236
C165	C	1.688155	0.383920	1.350569
C166	C	0.978184	-0.326018	0.719229
C167	C	1.311517	0.007315	1.052562
C168	C	1.644850	0.340648	1.385895
C169	C	0.934864	-0.369308	0.683863
C170	C	1.268197	-0.035974	1.017196
C171	C	1.601531	0.297359	1.350529
C172	C	0.934854	-0.369323	0.613176
C173	C	1.268188	-0.035990	0.946509
C174	C	1.601521	0.297343	1.279842
C175	C	0.934902	-0.369244	0.968936
C176	C	1.268236	-0.035911	1.302270
C177	C	1.601569	0.297422	1.635603
C178	C	0.934917	-0.369227	1.039628
C179	C	1.268250	-0.035894	1.372962
C180	C	1.601584	0.297440	1.706295
C181	C	1.021536	-0.282668	1.039663
C182	C	1.354870	0.050665	1.372997
C183	C	1.688203	0.383999	1.706330
C184	C	1.021527	-0.282684	0.968976
C185	C	1.354860	0.050650	1.302309
C186	C	1.688193	0.383983	1.635643
C187	C	0.978205	-0.325970	0.933616
C188	C	1.311538	0.007363	1.266950
C189	C	1.644872	0.340697	1.600283
C190	C	0.978197	-0.325990	0.856968
C191	C	1.311530	0.007343	1.190301
C192	C	1.644864	0.340677	1.523634
C193	C	0.978194	-0.326002	0.795876
C194	C	1.311528	0.007331	1.129209
C195	C	1.644861	0.340664	1.462543
H196	H	0.592156	-0.404535	0.247397
H197	H	0.925489	-0.071201	0.580730
H198	H	1.258823	0.262132	0.914063
O199	O	0.227181	-0.236291	0.416249
O200	O	0.560514	0.097042	0.749582
O201	O	0.893847	0.430375	1.082915
H202	H	0.240769	-0.183154	0.404741
H203	H	0.574102	0.150179	0.738074
H204	H	0.907435	0.483513	1.071407
H205	H	0.899602	-0.404538	0.712631
H206	H	1.232935	-0.071204	1.045964
H207	H	1.566269	0.262129	1.379298
H208	H	1.056773	-0.939522	0.247655
H209	H	1.390106	-0.606189	0.580989
H210	H	1.723439	-0.272856	0.914322
H211	H	0.592278	-0.247684	0.404757
H212	H	0.925611	0.085650	0.738091
H213	H	1.258945	0.418983	1.071424
O214	O	0.888135	-0.416010	0.575031
O215	O	1.221469	-0.082677	0.908364
O216	O	1.554802	0.250657	1.241697
H217	H	0.853711	-0.385710	0.542837
H218	H	1.187045	-0.052376	0.876170
H219	H	1.520378	0.280957	1.209503
O220	O	0.888198	-0.415894	1.077729
O221	O	1.221531	-0.082561	1.411063
O222	O	1.554864	0.250773	1.744396
H223	H	0.918473	-0.450335	1.109925
H224	H	1.251807	-0.117001	1.443259
H225	H	1.585140	0.216332	1.776592
O226	O	0.888096	-0.721363	0.415980
O227	O	1.221429	-0.388030	0.749313
O228	O	1.554762	-0.054697	1.082647
H229	H	0.857971	-0.684913	0.446051
H230	H	1.191304	-0.351580	0.779385
H231	H	1.524638	-0.018246	1.112718
O232	O	0.729869	-0.236243	0.416205
O233	O	1.063202	0.097090	0.749538
O234	O	1.396536	0.430423	1.082871
H235	H	0.693436	-0.206182	0.446355
H236	H	1.026770	0.127152	0.779688
H237	H	1.360103	0.460485	1.113022
O238	O	1.068192	-0.236098	0.575112
O239	O	1.401525	0.097235	0.908446
O240	O	1.734858	0.430569	1.241779
H241	H	1.056611	-0.182971	0.588687
H242	H	1.389944	0.150362	0.922020
H243	H	1.723277	0.483696	1.255354
O244	O	1.068144	-0.721341	0.236187
O245	O	1.401478	-0.388008	0.569520
O246	O	1.734811	-0.054675	0.902854
H247	H	1.037880	-0.753598	0.201735
H248	H	1.371214	-0.420265	0.535069
H249	H	1.704547	-0.086932	0.868402
H250	H	1.056792	-0.247450	0.940217
H251	H	1.390125	0.085883	1.273550
H252	H	1.723459	0.419217	1.606884
O253	O	1.068208	-0.236060	0.722044
O254	O	1.401541	0.097273	1.055377
O255	O	1.734875	0.430606	1.388711
H256	H	1.121321	-0.247688	0.708487
H257	H	1.454654	0.085645	1.041821
H258	H	1.787988	0.418978	1.375154
O259	O	0.374110	-0.236276	0.416225
O260	O	0.707443	0.097057	0.749558
O261	O	1.040776	0.430390	1.082891
H262	H	0.337679	-0.206213	0.446376
H263	H	0.671013	0.127121	0.779710
H264	H	1.004346	0.460454	1.113043
O265	O	0.373965	-0.415988	0.235944
O266	O	0.707299	-0.082655	0.569277
O267	O	1.040632	0.250679	0.902610
H268	H	0.406178	-0.450461	0.266166
H269	H	0.739511	-0.117127	0.599499
H270	H	1.072845	0.216206	0.932832
O271	O	0.729743	-0.415951	0.235927
O272	O	1.063076	-0.082618	0.569260
O273	O	1.396410	0.250716	0.902593
H274	H	0.693270	-0.446019	0.205778
H275	H	1.026603	-0.112685	0.539112
H276	H	1.359936	0.220648	0.872445
H277	H	0.236398	-0.404580	0.247424
H278	H	0.569731	-0.071247	0.580757
H279	H	0.903065	0.262087	0.914091
O280	O	1.068246	-0.235958	1.077800
O281	O	1.401579	0.097375	1.411133
O282	O	1.734912	0.430709	1.744467
H283	H	1.060970	-0.243203	1.132888
H284	H	1.394303	0.090130	1.466222
H285	H	1.727636	0.423463	1.799555
O286	O	1.068092	-0.574413	0.236164
O287	O	1.401426	-0.241080	0.569498
O288	O	1.734759	0.092253	0.902831
H289	H	1.098228	-0.610865	0.206105
H290	H	1.431561	-0.277531	0.539438
H291	H	1.764894	0.055802	0.872771
H292	H	0.899637	-0.404501	0.940155
H293	H	1.232970	-0.071167	1.273488
H294	H	1.566304	0.262166	1.606821
O295	O	1.068291	-1.077100	0.236260
O296	O	1.401624	-0.743767	0.569594
O297	O	1.734957	-0.410433	0.902927
H298	H	1.061047	-1.132192	0.243543
H299	H	1.394380	-0.798859	0.576876
H300	H	1.727714	-0.465526	0.910209
H301	H	0.899663	-1.067781	0.404611
H302	H	1.232996	-0.734447	0.737945
H303	H	1.566330	-0.401114	1.071278
O304	O	0.888150	-0.930199	0.416000
O305	O	1.221483	-0.596866	0.749333
O306	O	1.554816	-0.263533	1.082666
H307	H	0.858036	-0.966658	0.446065
H308	H	1.191369	-0.633325	0.779398
H309	H	1.524703	-0.299991	1.112731
O310	O	0.888035	-0.574429	0.415945
O311	O	1.221368	-0.241096	0.749278
O312	O	1.554702	0.092238	1.082612
H313	H	0.857924	-0.610884	0.446018
H314	H	1.191258	-0.277551	0.779351
H315	H	1.524591	0.055783	1.112684
