data_functionalizedCrystal
_audit_creation_method	'MofGen! by Chris Wilmer'
_symmetry_space_group_name_H-M	'P1'
_symmetry_Int_Tables_number	1
_symmetry_cell_setting	triclinic
loop_
_symmetry_equiv_pos_as_xyz
  x,y,z
_cell_length_a	10.489716
_cell_length_b	10.489716
_cell_length_c	12.996460
_cell_angle_alpha	89.997908
_cell_angle_beta	89.994805
_cell_angle_gamma	84.529136
loop_
_atom_site_label
_atom_site_type_symbol
_atom_site_fract_x
_atom_site_fract_y
_atom_site_fract_z
O1	O	1.694058	0.179823	-0.085548
O2	O	1.322857	0.196749	-0.085551
O3	O	1.516920	0.002685	-0.085554
O4	O	1.499994	0.373887	-0.085546
O5	O	1.516900	0.002674	0.085580
O6	O	1.322836	0.196738	0.085582
O7	O	1.694037	0.179812	0.085585
Cu8	Cu	1.508435	0.188274	0.101210
Cu9	Cu	1.508459	0.188287	-0.101176
O10	O	1.499974	0.373876	0.085587
C11	C	1.275314	0.195472	0.000015
C12	C	1.133684	0.191667	0.000013
C13	C	1.035999	0.310673	0.000013
C14	C	0.958649	0.247782	0.084395
C15	C	0.958676	0.247765	-0.084330
C16	C	1.058199	0.128826	0.084464
C17	C	1.058231	0.128826	-0.084336
C18	C	0.980929	0.065848	0.000066
C19	C	1.515638	-0.044852	0.000010
C20	C	1.511833	-0.186483	0.000001
C21	C	1.630839	-0.284167	0.000011
C22	C	1.567964	-0.361517	-0.084365
C23	C	1.567916	-0.361492	0.084360
C24	C	1.449008	-0.261967	-0.084445
C25	C	1.448978	-0.261937	0.084356
C26	C	1.386015	-0.339237	-0.000041
C27	C	1.741580	0.181089	0.000017
C28	C	1.883210	0.184894	0.000011
C29	C	1.501256	0.421413	0.000021
C30	C	1.505061	0.563044	0.000024
N31	N	1.508427	0.188264	0.243557
N32	N	1.508477	0.188287	-0.243523
C33	C	1.508457	0.188288	0.663371
C34	C	1.508445	0.188286	0.546566
C35	C	1.508443	0.188277	0.453468
C36	C	1.508429	0.188273	0.336655
H37	H	0.956508	-0.037744	0.000113
C38	C	1.381203	-0.203460	-0.180928
N39	N	1.330140	-0.159389	-0.253600
H40	H	1.618209	-0.405012	-0.155699
C41	C	0.899875	0.315647	0.180764
N42	N	0.855605	0.366771	0.253345
H43	H	0.915196	0.298031	-0.155657
H44	H	1.398776	-0.218419	0.155693
H45	H	1.060659	0.414190	0.000094
H46	H	1.101511	0.078613	0.155873
H47	H	1.101739	0.078632	-0.155678
C48	C	1.770680	-0.250836	-0.000102
N49	N	1.876006	-0.225730	-0.000192
C50	C	1.246068	-0.372236	-0.000102
N51	N	1.140661	-0.397093	-0.000153
C52	C	1.635801	-0.420219	0.180733
N53	N	1.686940	-0.464447	0.253317
