data_functionalizedCrystal
_audit_creation_method	'MofGen! by Chris Wilmer'
_symmetry_space_group_name_H-M	'P1'
_symmetry_Int_Tables_number	1
_symmetry_cell_setting	triclinic
loop_
_symmetry_equiv_pos_as_xyz
  x,y,z
_cell_length_a	10.967971
_cell_length_b	8.559649
_cell_length_c	7.681481
_cell_angle_alpha	94.913240
_cell_angle_beta	83.741881
_cell_angle_gamma	102.584912
loop_
_atom_site_label
_atom_site_type_symbol
_atom_site_fract_x
_atom_site_fract_y
_atom_site_fract_z
O1	O	-0.028266	-2.103829	0.154978
O2	O	0.034389	-1.641271	0.135974
O3	O	-0.174729	-1.877757	0.199418
O4	O	0.180853	-1.867343	0.091534
O5	O	-0.200520	-1.906862	-0.085615
O6	O	0.008598	-1.670376	-0.149059
O7	O	-0.054057	-2.132934	-0.130055
Zn8	Zn	-0.026824	-1.906276	-0.184812
Zn9	Zn	0.007156	-1.867929	0.190731
O10	O	0.155062	-1.896448	-0.193499
C11	C	0.026242	-1.596494	-0.007982
C12	C	0.040375	-1.419711	-0.012268
C13	C	-0.232725	-1.889353	0.070589
C14	C	-0.367109	-1.880523	0.111373
N15	N	-0.050017	-1.932459	-0.441110
C16	C	-0.440388	-1.891664	-0.018098
C17	C	-0.579280	-1.882538	0.024051
C18	C	0.213058	-1.884852	-0.064667
C19	C	0.347443	-1.893681	-0.105439
C20	C	-0.045909	-2.177711	0.013905
C21	C	-0.060042	-2.354493	0.018202
N22	N	0.030338	-1.841758	0.447032
H23	H	-0.400300	-1.907966	-0.160146
H24	H	-0.612477	-1.909983	-0.247498
C25	C	0.141140	-1.716666	-0.485009
C26	C	0.233977	-1.611202	-0.614352
C27	C	0.344781	-1.486107	-0.546381
C28	C	0.362748	-1.466476	-0.349066
C29	C	0.269908	-1.571942	-0.219710
C30	C	0.159104	-1.697037	-0.287681
H31	H	0.220680	-1.625731	-0.760428
H32	H	0.413508	-1.408034	-0.642140
H33	H	0.444772	-1.373873	-0.298750
H34	H	0.283206	-1.557413	-0.073635
H35	H	0.090378	-1.775111	-0.191922
H36	H	-0.132034	-2.025065	-0.491433
H37	H	-0.407200	-1.864237	0.253422
C38	C	-0.190797	-1.461758	0.057870
C39	C	-0.295041	-1.465984	-0.062575
C40	C	-0.425799	-1.573261	-0.022905
C41	C	-0.452312	-1.676312	0.137208
C42	C	-0.348066	-1.672090	0.257663
C43	C	-0.217308	-1.564813	0.217994
H44	H	-0.275416	-1.389697	-0.181110
H45	H	-0.502969	-1.576386	-0.112075
H46	H	-0.549107	-1.755725	0.166574
H47	H	-0.367690	-1.748378	0.376199
H48	H	-0.140138	-1.561688	0.307164
C49	C	0.171138	-1.312438	-0.051938
C50	C	0.275381	-1.308216	0.068507
C51	C	0.406140	-1.200943	0.028837
C52	C	0.432657	-1.097893	-0.131278
C53	C	0.328411	-1.102112	-0.251733
C54	C	0.197651	-1.209384	-0.212063
H55	H	0.255754	-1.384503	0.187042
H56	H	0.483310	-1.197821	0.118007
H57	H	0.529453	-1.018484	-0.160644
H58	H	0.348037	-1.025825	-0.370269
H59	H	0.120482	-1.212506	-0.301233
H60	H	-0.619366	-1.866251	0.166109
