data_functionalizedCrystal
_audit_creation_method	'MofGen! by Chris Wilmer'
_symmetry_space_group_name_H-M	'P1'
_symmetry_Int_Tables_number	1
_symmetry_cell_setting	triclinic
loop_
_symmetry_equiv_pos_as_xyz
  x,y,z
_cell_length_a	23.532407
_cell_length_b	14.044220
_cell_length_c	13.101039
_cell_angle_alpha	86.332523
_cell_angle_beta	93.331090
_cell_angle_gamma	88.018778
loop_
_atom_site_label
_atom_site_type_symbol
_atom_site_fract_x
_atom_site_fract_y
_atom_site_fract_z
O1	O	-0.764355	-0.109759	-0.085088
O2	O	-0.599394	-0.126398	-0.085118
O3	O	-0.679398	0.019883	-0.085094
O4	O	-0.684351	-0.256039	-0.085113
O5	O	-0.673659	0.009370	0.085335
O6	O	-0.593655	-0.136910	0.085310
O7	O	-0.758615	-0.120271	0.085340
Zn8	Zn	-0.675224	-0.130260	0.112384
Zn9	Zn	-0.682786	-0.116409	-0.112162
O10	O	-0.678612	-0.266552	0.085315
C11	C	-0.575286	-0.131230	0.000092
C12	C	-0.512000	-0.129955	0.000081
C13	C	-0.674361	0.049920	0.000121
C14	C	-0.667895	0.155085	0.000121
C15	C	-0.782724	-0.115439	0.000128
C16	C	-0.846010	-0.116713	0.000132
C17	C	-0.117154	-0.208533	0.000121
C18	C	-0.057690	-0.207350	0.000128
O19	O	-0.024892	-0.280192	0.000160
N20	N	-0.030350	-0.120386	0.000132
C21	C	-0.062478	-0.034600	0.000141
O22	O	-0.033763	0.039479	0.000146
C23	C	-0.121941	-0.035784	0.000142
C24	C	-0.149278	-0.122754	0.000127
C25	C	-0.144492	-0.295495	0.000108
C26	C	-0.203952	-0.296678	0.000100
C27	C	-0.236076	-0.210898	0.000105
C28	C	-0.208738	-0.123936	0.000119
C29	C	-0.154067	0.050000	0.000157
C30	C	-0.213534	0.048808	0.000159
C31	C	-0.240871	-0.038161	0.000144
C32	C	-0.300322	-0.039339	0.000116
N33	N	-0.327662	-0.126303	0.000111
C34	C	-0.295539	-0.212083	0.000106
C35	C	0.062399	-0.032119	0.000140
C36	C	0.121861	-0.030933	0.000132
C37	C	0.126645	-0.203683	0.000121
C38	C	0.067182	-0.204868	0.000122
C39	C	0.035060	-0.119083	0.000136
C40	C	-0.420411	-0.214560	0.000088
C41	C	-0.479877	-0.215735	0.000075
C42	C	-0.484655	-0.042985	0.000092
C43	C	-0.425194	-0.041809	0.000099
C44	C	-0.393073	-0.127605	0.000100
O45	O	-0.333156	0.033464	0.000088
O46	O	-0.324261	-0.286150	0.000114
C47	C	-0.683649	-0.296589	0.000099
C48	C	-0.690115	-0.401754	0.000092
N49	N	-0.670067	-0.139712	0.265631
C50	C	-0.656074	0.347636	0.000104
C51	C	-0.701933	0.405701	0.000109
C52	C	-0.695356	0.512843	0.000100
C53	C	-0.662651	0.240484	0.000113
N54	N	-0.687946	-0.106949	-0.265409
C55	C	-0.663052	-0.152581	0.474671
C56	C	-0.694960	-0.094083	0.525557
C57	C	-0.691057	-0.101244	0.641874
C58	C	-0.666955	-0.145422	0.358344
H59	H	-0.502131	-0.286558	0.000063
H60	H	-0.725209	-0.038625	0.481764
N61	N	-0.760482	0.364967	0.000145
H62	H	-0.790171	0.418648	0.000153
H63	H	-0.767333	0.328354	-0.063026
H64	H	0.144113	0.039887	0.000128
H65	H	-0.632806	-0.208037	0.518459
H66	H	-0.510821	0.026855	0.000092
N67	N	-0.597530	0.388374	0.000103
H68	H	-0.574023	0.362193	0.063282
H69	H	-0.578316	0.369970	-0.063115
N70	N	-0.385770	-0.307095	0.000114
H71	H	-0.412118	-0.362358	0.000110
H72	H	-0.363111	-0.306489	-0.063057
H73	H	-0.226205	-0.367497	0.000087
N74	N	-0.109848	-0.388026	0.000160
H75	H	-0.136197	-0.443288	0.000171
H76	H	-0.087184	-0.387442	-0.063004
H77	H	0.152811	-0.273530	0.000122
N78	N	0.037699	-0.298668	0.000103
H79	H	0.067077	-0.352824	0.000095
H80	H	0.015257	-0.306828	0.063283
N81	N	-0.124595	0.143806	0.000185
H82	H	-0.097910	0.144249	0.063367
H83	H	-0.102186	0.152010	-0.063031
H84	H	-0.239685	0.118666	0.000171
N85	N	0.027760	0.060419	0.000137
H86	H	0.000858	0.067679	-0.063041
H87	H	0.005142	0.059836	0.063356
N88	N	-0.395705	0.051991	0.000095
H89	H	-0.425081	0.106152	0.000092
H90	H	-0.369019	0.052350	0.063281
