data_functionalizedCrystal
_audit_creation_method	'MofGen! by Chris Wilmer'
_symmetry_space_group_name_H-M	'P1'
_symmetry_Int_Tables_number	1
_symmetry_cell_setting	triclinic
loop_
_symmetry_equiv_pos_as_xyz
  x,y,z
_cell_length_a	16.109301
_cell_length_b	15.538191
_cell_length_c	15.186229
_cell_angle_alpha	89.999546
_cell_angle_beta	89.999362
_cell_angle_gamma	65.366787
loop_
_atom_site_label
_atom_site_type_symbol
_atom_site_fract_x
_atom_site_fract_y
_atom_site_fract_z
O1	O	1.066616	0.121093	-0.073166
O2	O	1.566616	0.621093	0.426834
O3	O	0.820010	0.136163	-0.073179
O4	O	1.320010	0.636163	0.426821
O5	O	0.991317	-0.008516	-0.073174
O6	O	1.491317	0.491484	0.426826
O7	O	0.895309	0.265773	-0.073171
O8	O	1.395309	0.765773	0.426829
O9	O	0.991309	-0.008518	0.073283
O10	O	1.491309	0.491482	0.573283
O11	O	0.820002	0.136161	0.073278
O12	O	1.320002	0.636161	0.573278
O13	O	1.066608	0.121091	0.073291
O14	O	1.566608	0.621091	0.573291
Zn15	Zn	0.943304	0.128626	0.096538
Zn16	Zn	1.443304	0.628626	0.596538
Zn17	Zn	0.943314	0.128629	-0.096426
Zn18	Zn	1.443314	0.628629	0.403574
O19	O	0.895301	0.265771	0.073286
O20	O	1.395301	0.765771	0.573286
C21	C	0.789215	0.135552	0.000048
C22	C	1.289215	0.635552	0.500048
C23	C	0.697472	0.133722	0.000042
C24	C	1.197472	0.633722	0.500042
C25	C	1.001358	-0.043615	0.000052
C26	C	1.501358	0.456385	0.500052
C27	C	1.031279	-0.148198	0.000045
C28	C	1.531279	0.351802	0.500045
C29	C	0.450596	0.215316	0.000053
C30	C	0.950596	0.715316	0.500053
C31	C	0.364396	0.213589	0.000059
C32	C	0.864396	0.713589	0.500059
C33	C	0.436032	0.041932	0.000053
C34	C	0.936032	0.541932	0.500053
C35	C	0.522229	0.043660	0.000054
C36	C	1.022229	0.543660	0.500054
C37	C	0.529508	0.130355	0.000050
C38	C	1.029508	0.630355	0.500050
C39	C	0.357111	0.126900	0.000055
C40	C	0.857111	0.626900	0.500055
C41	C	0.263649	0.125027	0.000061
C42	C	0.763649	0.625027	0.500061
C43	C	0.622975	0.132228	0.000045
C44	C	1.122975	0.632228	0.500045
C45	C	0.734025	-0.435898	0.000048
C46	C	1.234025	0.064102	0.500048
C47	C	0.762161	-0.534172	0.000051
C48	C	1.262161	-0.034172	0.500051
C49	C	0.920419	-0.556664	0.000059
C50	C	1.420419	-0.056664	0.500059
C51	C	0.892297	-0.458389	0.000052
C52	C	1.392297	0.041611	0.500052
C53	C	0.799099	-0.398013	0.000047
C54	C	1.299099	0.101987	0.500047
C55	C	0.957370	-0.420505	0.000051
C56	C	1.457370	0.079495	0.500051
C57	C	0.929249	-0.322239	0.000047
C58	C	1.429249	0.177761	0.500047
C59	C	0.836055	-0.261857	0.000045
C60	C	1.336055	0.238143	0.500045
C61	C	0.770978	-0.299747	0.000044
C62	C	1.270978	0.200253	0.500044
C63	C	1.050568	-0.480882	0.000062
C64	C	1.550568	0.019118	0.500062
C65	C	1.115641	-0.442998	0.000061
C66	C	1.615641	0.057002	0.500061
C67	C	1.087520	-0.344730	0.000051
C68	C	1.587520	0.155270	0.500051
C69	C	0.994326	-0.284349	0.000049
C70	C	1.494326	0.215651	0.500049
C71	C	1.152598	-0.306840	0.000053
C72	C	1.652598	0.193160	0.500053
C73	C	1.124477	-0.208574	0.000050
C74	C	1.624477	0.291426	0.500050
C75	C	0.966206	-0.186083	0.000046
C76	C	1.466206	0.313917	0.500046
C77	C	1.097403	0.121703	0.000062
C78	C	1.597403	0.621703	0.500062
C79	C	1.189147	0.123533	0.000062
C80	C	1.689147	0.623533	0.500062
C81	C	0.885260	0.300870	0.000058
C82	C	1.385260	0.800870	0.500058
C83	C	0.855340	0.405453	0.000059
C84	C	1.355340	0.905453	0.500059
N85	N	0.943303	0.128624	0.228231
N86	N	1.443303	0.628624	0.728231
N87	N	0.943324	0.128624	-0.228119
N88	N	1.443324	0.628624	0.271881
C89	C	1.019171	0.064581	0.453956
C90	C	1.519171	0.564581	0.953956
C91	C	1.019174	0.064579	0.546145
C92	C	1.519174	0.564579	1.046145
C93	C	0.867450	0.192669	0.546150
C94	C	1.367450	0.692669	1.046150
C95	C	0.867445	0.192666	0.453962
C96	C	1.367445	0.692666	0.953962
C97	C	0.943310	0.128623	0.407867
C98	C	1.443310	0.628623	0.907867
C99	C	0.943318	0.128624	0.592245
C100	C	1.443318	0.628624	1.092245
C101	C	0.943321	0.128622	0.692201
C102	C	1.443321	0.628622	1.192201
C103	C	0.943306	0.128624	0.307905
C104	C	1.443306	0.628624	0.807905
H105	H	0.300146	0.282773	0.000064
H106	H	0.800146	0.782773	0.500064
N107	N	0.785615	0.261749	0.404254
N108	N	1.285615	0.761749	0.904254
H109	H	0.804789	0.303470	0.365998
H110	H	1.304789	0.803470	0.865998
H111	H	0.759706	0.225665	0.366063
H112	H	1.259706	0.725665	0.866063
N113	N	0.785632	0.261754	0.595863
N114	N	1.285632	0.761754	1.095863
H115	H	0.729905	0.250885	0.579826
H116	H	1.229905	0.750885	1.079826
H117	H	0.797226	0.252010	0.661242
H118	H	1.297226	0.752010	1.161242
N119	N	0.458450	0.308817	0.000048
N120	N	0.958450	0.808817	0.500048
H121	H	0.395377	0.362377	0.000052
H122	H	0.895377	0.862377	0.500052
H123	H	0.492655	0.313272	0.054340
H124	H	0.992655	0.813272	0.554340
H125	H	1.080946	0.012429	0.583668
H126	H	1.580946	0.512429	1.083668
H127	H	0.709164	-0.565012	0.000065
H128	H	1.209164	-0.065012	0.500065
N129	N	1.194661	-0.167708	0.000054
N130	N	1.694661	0.332292	0.500054
H131	H	1.186515	-0.127444	0.054350
H132	H	1.686515	0.372556	0.554350
H133	H	1.257933	-0.220922	0.000025
H134	H	1.757933	0.279078	0.500025
H135	H	0.890314	-0.136921	0.000035
H136	H	1.390314	0.363079	0.500035
N137	N	1.100981	-0.004493	0.404226
N138	N	1.600981	0.495507	0.904226
H139	H	1.156712	0.006369	0.420260
H140	H	1.656712	0.506369	0.920260
H141	H	1.111502	-0.071329	0.420289
H142	H	1.611502	0.428671	0.920289
H143	H	0.430094	-0.028652	0.000062
H144	H	0.930094	0.471348	0.500062
N145	N	0.805711	-0.155868	0.000042
N146	N	1.305711	0.344132	0.500042
H147	H	0.830001	-0.136606	0.054333
H148	H	1.330001	0.363394	0.554333
H149	H	0.830010	-0.136685	-0.054286
H150	H	1.330010	0.363315	0.445714
H151	H	0.586487	-0.025530	0.000054
H152	H	1.086487	0.474470	0.500054
H153	H	0.695087	-0.250585	0.000033
H154	H	1.195087	0.249415	0.500033
N155	N	0.633504	-0.370767	0.000029
N156	N	1.133504	0.129233	0.500029
H157	H	0.596543	-0.409675	0.000024
H158	H	1.096543	0.090325	0.500024
H159	H	0.618384	-0.329503	0.054320
H160	H	1.118384	0.170497	0.554320
N161	N	1.080896	-0.586869	0.000065
N162	N	1.580896	-0.086869	0.500065
H163	H	1.118748	-0.614957	-0.054222
H164	H	1.618748	-0.114957	0.445778
H165	H	1.118692	-0.614873	0.054398
H166	H	1.618692	-0.114873	0.554398
H167	H	1.191523	-0.492169	0.000068
H168	H	1.691523	0.007831	0.500068
N169	N	1.020936	-0.621784	0.000073
N170	N	1.520936	-0.121784	0.500073
H171	H	1.028878	-0.689785	0.000078
H172	H	1.528878	-0.189785	0.500078
H173	H	1.050581	-0.609524	-0.054221
H174	H	1.550581	-0.109524	0.445779
H175	H	1.228479	-0.356012	0.000065
H176	H	1.728479	0.143988	0.500065
