data_functionalizedCrystal
_audit_creation_method	'MofGen! by Chris Wilmer'
_symmetry_space_group_name_H-M	'P1'
_symmetry_Int_Tables_number	1
_symmetry_cell_setting	triclinic
loop_
_symmetry_equiv_pos_as_xyz
  x,y,z
_cell_length_a	13.596369
_cell_length_b	14.853567
_cell_length_c	14.519731
_cell_angle_alpha	83.661892
_cell_angle_beta	89.993029
_cell_angle_gamma	89.997647
loop_
_atom_site_label
_atom_site_type_symbol
_atom_site_fract_x
_atom_site_fract_y
_atom_site_fract_z
O1	O	0.081726	-1.196421	-0.120406
O2	O	0.081743	-0.933969	-0.134749
O3	O	0.081725	-1.072144	0.006663
O4	O	0.081744	-1.058246	-0.261817
O5	O	-0.081858	-1.072130	0.006670
O6	O	-0.081840	-0.933955	-0.134741
O7	O	-0.081857	-1.196408	-0.120398
Zn8	Zn	-0.107821	-1.065179	-0.127568
Zn9	Zn	0.107707	-1.065197	-0.127578
O10	O	-0.081839	-1.058233	-0.261810
C11	C	-0.000046	-0.900373	-0.134095
C12	C	-0.000040	-0.800288	-0.132148
N13	N	-0.254913	-1.065173	-0.127561
C14	C	-0.000067	-1.071485	0.041026
C15	C	-0.000067	-1.069534	0.143405
C16	C	-0.656204	-1.065196	-0.127579
C17	C	-0.544552	-1.065187	-0.127577
C18	C	-0.455562	-1.065185	-0.127571
C19	C	-0.343903	-1.065175	-0.127568
N20	N	0.254799	-1.065210	-0.127578
C21	C	-0.000066	-1.230004	-0.121052
C22	C	-0.000065	-1.330088	-0.122999
C23	C	-0.000069	-0.387712	-0.039914
C24	C	-0.000056	-0.366508	-0.207914
C25	C	-0.000053	-0.460543	-0.209745
C26	C	-0.000056	-0.518166	-0.126659
C27	C	-0.000062	-0.481755	-0.041742
C28	C	-0.000036	-0.496961	-0.294660
C29	C	-0.000032	-0.591001	-0.296495
C30	C	-0.000042	-0.648626	-0.213408
C31	C	-0.000050	-0.612210	-0.128488
C32	C	-0.000053	-0.669833	-0.045402
C33	C	-0.000068	-0.633419	0.039519
C34	C	-0.000073	-0.539380	0.041344
C35	C	-0.000037	-0.742665	-0.215233
C36	C	-0.000047	-0.763877	-0.047231
C37	C	-0.000045	-1.058891	-0.296173
C38	C	-0.000038	-1.060842	-0.398552
C39	C	-0.000065	-1.067949	0.226549
C40	C	-0.000057	-1.065968	0.330857
C41	C	-0.000051	-1.064395	0.413995
C42	C	-0.000045	-1.062414	0.518310
H43	H	-0.000064	-0.680348	0.107167
O44	O	-0.000092	-0.819978	0.033396
C45	C	-0.000052	-0.910788	0.013577
H46	H	-0.031014	-0.914523	-0.058862
H47	H	0.078430	-0.937971	0.017038
C48	C	-0.026176	-0.963634	0.174079
C49	C	-0.064211	-0.968222	0.085110
H50	H	-0.065747	-0.999063	0.218205
H51	H	-0.026198	-0.902453	0.187432
H52	H	0.039226	-0.986284	0.176949
H53	H	-0.129606	-0.945561	0.082237
H54	H	-0.064200	-1.029400	0.071758
O55	O	0.000055	-0.504111	0.123886
C56	C	0.084788	-0.533523	0.174524
H57	H	0.113031	-0.598790	0.149315
H58	H	0.144114	-0.479130	0.163896
C59	C	0.024363	-0.470797	0.309209
C60	C	0.059048	-0.550964	0.278252
H61	H	0.008488	-0.481552	0.373194
H62	H	-0.032721	-0.450979	0.275093
H63	H	0.073808	-0.425478	0.300345
H64	H	0.009599	-0.596278	0.287106
H65	H	0.116124	-0.570791	0.312373
H66	H	-0.000084	-0.358058	0.029227
O67	O	0.000019	-0.778188	-0.297634
C68	C	-0.000007	-0.873545	-0.281434
H69	H	0.030953	-0.895503	-0.209493
H70	H	-0.078486	-0.899726	-0.285935
C71	C	0.026126	-0.885712	-0.443199
C72	C	0.064160	-0.912681	-0.354842
H73	H	0.065704	-0.909854	-0.488482
H74	H	0.026141	-0.821469	-0.454114
H75	H	-0.039272	-0.907531	-0.446936
H76	H	0.129552	-0.890853	-0.351103
H77	H	0.064158	-0.976922	-0.343928
H78	H	-0.000045	-0.319586	-0.275558
H79	H	-0.000023	-0.450038	-0.362304
O80	O	-0.000069	-0.626221	-0.379063
C81	C	-0.000041	-0.555195	-0.452002
H82	H	-0.031010	-0.491268	-0.426069
H83	H	0.078439	-0.541937	-0.477642
C84	C	-0.026154	-0.660389	-0.563924
C85	C	-0.064198	-0.581875	-0.532075
H86	H	-0.065725	-0.676847	-0.613319
H87	H	-0.026169	-0.708241	-0.514784
H88	H	0.039246	-0.649330	-0.585284
H89	H	-0.129591	-0.592938	-0.510705
H90	H	-0.064195	-0.534025	-0.581213
