data_functionalizedCrystal
_audit_creation_method	'MofGen! by Chris Wilmer'
_symmetry_space_group_name_H-M	'P1'
_symmetry_Int_Tables_number	1
_symmetry_cell_setting	triclinic
loop_
_symmetry_equiv_pos_as_xyz
  x,y,z
_cell_length_a	18.215405
_cell_length_b	25.639243
_cell_length_c	18.215407
_cell_angle_alpha	89.987300
_cell_angle_beta	90.013686
_cell_angle_gamma	89.973500
loop_
_atom_site_label
_atom_site_type_symbol
_atom_site_fract_x
_atom_site_fract_y
_atom_site_fract_z
Zn1	Zn	-0.293053	-0.799262	0.416156
Zn2	Zn	0.040280	-0.465929	0.749490
Zn3	Zn	0.373613	-0.132595	1.082823
Zn4	Zn	-0.416091	-0.799213	0.293087
Zn5	Zn	-0.082758	-0.465880	0.626420
Zn6	Zn	0.250576	-0.132547	0.959754
Zn7	Zn	-0.293049	-0.711843	0.293099
Zn8	Zn	0.040285	-0.378510	0.626432
Zn9	Zn	0.373618	-0.045177	0.959765
Zn10	Zn	-0.416089	-0.711806	0.416107
Zn11	Zn	-0.082755	-0.378473	0.749440
Zn12	Zn	0.250578	-0.045139	1.082773
O13	O	-0.354570	-0.755531	0.354612
O14	O	-0.021237	-0.422198	0.687946
O15	O	0.312096	-0.088865	1.021279
O16	O	-0.309378	-0.872421	0.399847
O17	O	0.023956	-0.539087	0.733180
O18	O	0.357289	-0.205754	1.066514
O19	O	-0.399768	-0.787619	0.190104
O20	O	-0.066435	-0.454285	0.523438
O21	O	0.266899	-0.120952	0.856771
O22	O	-0.190065	-0.723476	0.309448
O23	O	0.143268	-0.390142	0.642782
O24	O	0.476602	-0.056809	0.976115
O25	O	-0.399773	-0.872385	0.309429
O26	O	-0.066439	-0.539052	0.642762
O27	O	0.266894	-0.205718	0.976095
O28	O	-0.190069	-0.787702	0.399858
O29	O	0.143265	-0.454368	0.733192
O30	O	0.476598	-0.121035	1.066525
O31	O	-0.309369	-0.723428	0.190113
O32	O	0.023964	-0.390095	0.523446
O33	O	0.357297	-0.056762	0.856780
O34	O	-0.309367	-0.638673	0.309400
O35	O	0.023966	-0.305340	0.642733
O36	O	0.357300	0.027993	0.976067
O37	O	-0.399769	-0.723412	0.519098
O38	O	-0.066435	-0.390079	0.852431
O39	O	0.266898	-0.056745	1.185764
O40	O	-0.399764	-0.638646	0.399773
O41	O	-0.066431	-0.305313	0.733107
O42	O	0.266903	0.028021	1.066440
O43	O	-0.309375	-0.787666	0.519134
O44	O	0.023958	-0.454332	0.852467
O45	O	0.357291	-0.120999	1.185801
O46	O	-0.519075	-0.787582	0.309380
O47	O	-0.185742	-0.454249	0.642714
O48	O	0.147592	-0.120916	0.976047
O49	O	-0.519073	-0.723365	0.399762
O50	O	-0.185740	-0.390031	0.733096
O51	O	0.147594	-0.056698	1.066429
C52	C	-0.354565	-0.619689	0.354583
C53	C	-0.021232	-0.286355	0.687916
C54	C	0.312101	0.046978	1.021250
C55	C	-0.354581	-0.561575	0.354588
C56	C	-0.021247	-0.228241	0.687921
C57	C	0.312086	0.105092	1.021254
C58	C	-0.307575	-0.201225	0.401771
C59	C	0.025758	0.132109	0.735104
C60	C	0.359092	0.465442	1.068438
C61	C	-0.307574	-0.146620	0.401776
C62	C	0.025759	0.186713	0.735109
C63	C	0.359092	0.520046	1.068442
O64	O	-0.267595	-0.118395	0.441856
O65	O	0.065738	0.214939	0.775190
O66	O	0.399072	0.548272	1.108523
N67	N	-0.354568	-0.119292	0.354632
N68	N	-0.021234	0.214041	0.687965
N69	N	0.312099	0.547375	1.021298
C70	C	-0.401559	-0.146571	0.307475
C71	C	-0.068226	0.186762	0.640808
C72	C	0.265107	0.520096	0.974142
O73	O	-0.441530	-0.118312	0.267376
O74	O	-0.108197	0.215021	0.600709
O75	O	0.225137	0.548354	0.934042
C76	C	-0.401556	-0.201174	0.307467
C77	C	-0.068222	0.132159	0.640801
C78	C	0.265111	0.465492	0.974134
C79	C	-0.354565	-0.228500	0.354620
C80	C	-0.021231	0.104834	0.687953
C81	C	0.312102	0.438167	1.021286
C82	C	-0.260587	-0.228550	0.448919
C83	C	0.072746	0.104783	0.782252
C84	C	0.406079	0.438117	1.115585
C85	C	-0.260589	-0.283151	0.448915
C86	C	0.072744	0.050183	0.782248
C87	C	0.406078	0.383516	1.115582
C88	C	-0.307579	-0.310426	0.401764
C89	C	0.025755	0.022908	0.735097
C90	C	0.359088	0.356241	1.068430
C91	C	-0.354566	-0.283100	0.354616
C92	C	-0.021233	0.050233	0.687949
C93	C	0.312100	0.383566	1.021283
C94	C	-0.448543	-0.228452	0.260308
C95	C	-0.115210	0.104881	0.593641
C96	C	0.218124	0.438214	0.926974
C97	C	-0.448535	-0.283059	0.260304
C98	C	-0.115202	0.050274	0.593637
C99	C	0.218132	0.383607	0.926970
C100	C	-0.401544	-0.310385	0.307456
C101	C	-0.068211	0.022949	0.640789
C102	C	0.265123	0.356282	0.974122
C103	C	-0.401558	-0.364976	0.307461
C104	C	-0.068225	-0.031643	0.640794
C105	C	0.265109	0.301691	0.974127
N106	N	-0.354565	-0.392304	0.354604
N107	N	-0.021231	-0.058971	0.687938
N108	N	0.312102	0.274363	1.021271
C109	C	-0.307575	-0.365029	0.401756
C110	C	0.025758	-0.031696	0.735089
C111	C	0.359092	0.301638	1.068423
C112	C	-0.401562	-0.031900	0.307494
C113	C	-0.068229	0.301433	0.640827
C114	C	0.265104	0.634766	0.974161
C115	C	-0.401570	0.022702	0.307505
C116	C	-0.068237	0.356035	0.640838
C117	C	0.265097	0.689369	0.974171
C118	C	-0.307584	0.022649	0.401804
C119	C	0.025749	0.355982	0.735138
C120	C	0.359083	0.689316	1.068471
C121	C	-0.307580	-0.031954	0.401797
C122	C	0.025753	0.301379	0.735130
C123	C	0.359086	0.634712	1.068463
C124	C	-0.354569	-0.059229	0.354638
C125	C	-0.021236	0.274105	0.687971
C126	C	0.312098	0.607438	1.021304
C127	C	-0.307583	-0.479694	0.401745
C128	C	0.025750	-0.146361	0.735078
C129	C	0.359084	0.186973	1.068412
C130	C	-0.307591	-0.534299	0.401739
C131	C	0.025742	-0.200966	0.735073
C132	C	0.359075	0.132367	1.068406
C133	C	-0.401574	-0.534242	0.307437
C134	C	-0.068241	-0.200908	0.640771
C135	C	0.265093	0.132425	0.974104
C136	C	-0.401569	-0.479641	0.307445
C137	C	-0.068236	-0.146308	0.640779
C138	C	0.265098	0.187026	0.974112
C139	C	-0.354567	-0.452369	0.354602
C140	C	-0.021234	-0.119035	0.687935
C141	C	0.312099	0.214298	1.021268
O142	O	-0.441515	-0.393236	0.267398
O143	O	-0.108181	-0.059903	0.600732
O144	O	0.225152	0.273430	0.934065
O145	O	-0.267604	-0.393294	0.441842
O146	O	0.065729	-0.059961	0.775175
O147	O	0.399062	0.273372	1.108509
C148	C	-0.545777	-0.755478	0.354581
C149	C	-0.212443	-0.422145	0.687914
C150	C	0.120890	-0.088812	1.021247
C151	C	-0.627576	-0.755504	0.354592
C152	C	-0.294242	-0.422170	0.687925
C153	C	0.039091	-0.088837	1.021258
C154	C	-0.892610	-0.789040	0.307629
C155	C	-0.559276	-0.455706	0.640963
C156	C	-0.225943	-0.122373	0.974296
C157	C	-0.815751	-0.789018	0.307612
C158	C	-0.482417	-0.455685	0.640946
C159	C	-0.149084	-0.122352	0.974279
C160	C	-0.815790	-0.722087	0.401645
C161	C	-0.482457	-0.388754	0.734978
C162	C	-0.149123	-0.055421	1.068312
C163	C	-0.892647	-0.722106	0.401658
C164	C	-0.559314	-0.388773	0.734991
C165	C	-0.225981	-0.055440	1.068324
C166	C	-0.931055	-0.755586	0.354651
C167	C	-0.597722	-0.422252	0.687984
C168	C	-0.264388	-0.088919	1.021317
C169	C	-0.777339	-0.755545	0.354621
C170	C	-0.444006	-0.422212	0.687955
C171	C	-0.110672	-0.088878	1.021288
C172	C	-0.694005	-0.755521	0.354603
C173	C	-0.360672	-0.422188	0.687937
C174	C	-0.027339	-0.088855	1.021270
C175	C	-1.014394	-0.755609	0.354668
C176	C	-0.681061	-0.422275	0.688001
C177	C	-0.347727	-0.088942	1.021334
C178	C	-0.162617	-0.755598	0.354660
C179	C	0.170716	-0.422265	0.687993
C180	C	0.504049	-0.088932	1.021327
C181	C	-0.080819	-0.755627	0.354680
C182	C	0.252515	-0.422294	0.688014
C183	C	0.585848	-0.088960	1.021347
C184	C	-0.354572	-0.755540	0.546565
C185	C	-0.021239	-0.422207	0.879898
C186	C	0.312094	-0.088874	1.213232
C187	C	-0.354573	-0.755544	0.628364
C188	C	-0.021240	-0.422211	0.961697
C189	C	0.312093	-0.088877	1.295031
C190	C	-0.354576	0.108096	0.354642
C191	C	-0.021242	0.441429	0.687975
C192	C	0.312091	0.774763	1.021308
C193	C	-0.354577	0.049982	0.354654
C194	C	-0.021244	0.383315	0.687987
C195	C	0.312089	0.716648	1.021320
C196	C	-0.307513	-0.788990	0.816578
C197	C	0.025820	-0.455657	1.149912
C198	C	0.359154	-0.122324	1.483245
C199	C	-0.307513	-0.788987	0.893437
C200	C	0.025821	-0.455654	1.226770
C201	C	0.359154	-0.122321	1.560104
C202	C	-0.401644	-0.722081	0.893388
C203	C	-0.068311	-0.388747	1.226721
C204	C	0.265023	-0.055414	1.560054
C205	C	-0.401640	-0.722081	0.816530
C206	C	-0.068307	-0.388748	1.149864
C207	C	0.265027	-0.055415	1.483197
C208	C	-0.354576	-0.755539	0.778127
C209	C	-0.021242	-0.422206	1.111461
C210	C	0.312091	-0.088872	1.444794
C211	C	-0.354579	-0.755536	0.931844
C212	C	-0.021246	-0.422202	1.265177
C213	C	0.312087	-0.088869	1.598510
C214	C	-0.354579	-0.755532	1.015177
C215	C	-0.021246	-0.422199	1.348511
C216	C	0.312087	-0.088865	1.681844
C217	C	-0.354575	-0.755542	0.694789
C218	C	-0.021241	-0.422209	1.028122
C219	C	0.312092	-0.088875	1.361455
C220	C	-0.354584	-0.755522	1.163406
C221	C	-0.021251	-0.422189	1.496739
C222	C	0.312082	-0.088856	1.830073
C223	C	-0.354582	-0.755531	1.081607
C224	C	-0.021248	-0.422197	1.414940
C225	C	0.312085	-0.088864	1.748274
H226	H	-0.269325	-0.556545	0.440139
H227	H	0.064009	-0.223212	0.773472
H228	H	0.397342	0.110121	1.106805
F229	F	-0.498549	-0.312083	0.210110
F230	F	-0.165216	0.021250	0.543443
F231	F	0.168118	0.354583	0.876776
H232	H	-0.439841	-0.457392	0.269059
H233	H	-0.106508	-0.124058	0.602392
H234	H	0.226825	0.209275	0.935725
H235	H	-0.269315	-0.054199	0.440191
H236	H	0.064019	0.279134	0.773524
H237	H	0.397352	0.612468	1.106857
F238	F	-0.451733	-0.686476	0.934265
F239	F	-0.118400	-0.353143	1.267598
F240	F	0.214934	-0.019810	1.600931
H241	H	-0.269321	0.044866	0.440196
H242	H	0.064013	0.378200	0.773529
H243	H	0.397346	0.711533	1.106863
H244	H	-0.269188	-0.816226	0.924740
H245	H	0.064145	-0.482893	1.258073
H246	H	0.397478	-0.149559	1.591407
H247	H	-0.439964	-0.694838	0.785223
H248	H	-0.106630	-0.361504	1.118556
H249	H	0.226703	-0.028171	1.451889
H250	H	-0.439843	0.044946	0.269117
H251	H	-0.106510	0.378279	0.602450
H252	H	0.226823	0.711612	0.935784
F253	F	-0.498547	-0.199382	0.210110
F254	F	-0.165214	0.133951	0.543443
F255	F	0.168120	0.467284	0.876776
H256	H	-0.269308	-0.457495	0.440142
H257	H	0.064026	-0.124162	0.773475
H258	H	0.397359	0.209171	1.106809
H259	H	-0.222319	-0.206348	0.487315
H260	H	0.111015	0.126985	0.820649
H261	H	0.444348	0.460318	1.153982
F262	F	-0.210572	-0.312225	0.499099
F263	F	0.122761	0.021108	0.832433
F264	F	0.456094	0.354441	1.165766
H265	H	-0.439833	-0.054104	0.269093
H266	H	-0.106499	0.279230	0.602427
H267	H	0.226834	0.612563	0.935760
H268	H	-0.923879	-0.816301	0.269353
H269	H	-0.590546	-0.482967	0.602686
H270	H	-0.257212	-0.149634	0.936019
F271	F	-0.451582	-0.563279	0.257259
F272	F	-0.118249	-0.229946	0.590592
F273	F	0.215084	0.103387	0.923926
H274	H	-0.784451	-0.816259	0.269322
H275	H	-0.451117	-0.482926	0.602656
H276	H	-0.117784	-0.149592	0.935989
H277	H	-0.784511	-0.694830	0.439918
H278	H	-0.451177	-0.361497	0.773251
H279	H	-0.117844	-0.028163	1.106585
F280	F	-0.257421	-0.824598	0.775710
F281	F	0.075912	-0.491264	1.109043
F282	F	0.409245	-0.157931	1.442376
F283	F	-0.933566	-0.686497	0.451706
F284	F	-0.600233	-0.353164	0.785039
F285	F	-0.266900	-0.019830	1.118372
