data_functionalizedCrystal
_audit_creation_method	'MofGen! by Chris Wilmer'
_symmetry_space_group_name_H-M	'P1'
_symmetry_Int_Tables_number	1
_symmetry_cell_setting	triclinic
loop_
_symmetry_equiv_pos_as_xyz
  x,y,z
_cell_length_a	25.639242
_cell_length_b	18.050589
_cell_length_c	18.050582
_cell_angle_alpha	90.018205
_cell_angle_beta	89.976321
_cell_angle_gamma	89.976251
loop_
_atom_site_label
_atom_site_type_symbol
_atom_site_fract_x
_atom_site_fract_y
_atom_site_fract_z
Zn1	Zn	0.799271	0.295795	-0.420109
Zn2	Zn	0.799208	0.419978	-0.295928
Zn3	Zn	0.711845	0.295797	-0.295914
Zn4	Zn	0.711808	0.419938	-0.420058
O5	O	0.755533	0.357877	-0.358002
O6	O	0.872428	0.312284	-0.403663
O7	O	0.787608	0.403523	-0.192001
O8	O	0.723484	0.191872	-0.312404
O9	O	0.872382	0.403521	-0.312428
O10	O	0.787715	0.191871	-0.403649
O11	O	0.723423	0.312288	-0.191991
O12	O	0.638675	0.312249	-0.312354
O13	O	0.723421	0.403453	-0.523989
O14	O	0.638648	0.403455	-0.403562
O15	O	0.787680	0.312245	-0.524026
O16	O	0.787573	0.523898	-0.312379
O17	O	0.723360	0.523868	-0.403576
C18	C	0.619690	0.357848	-0.357952
C19	C	0.561576	0.357853	-0.357948
C20	C	0.755470	0.550829	-0.357990
C21	C	0.755491	0.633375	-0.358009
C22	C	0.755554	0.357844	-0.551708
C23	C	0.755562	0.357830	-0.634253
C24	C	0.201208	0.405448	-0.405449
C25	C	0.146604	0.405452	-0.405461
O26	O	0.118363	0.445882	-0.445805
N27	N	0.119294	0.357898	-0.358050
C28	C	0.146591	0.310330	-0.310631
O29	O	0.118348	0.269882	-0.270306
C30	C	0.201194	0.310323	-0.310623
C31	C	0.228502	0.357885	-0.358031
C32	C	0.228515	0.453006	-0.452854
C33	C	0.283116	0.453002	-0.452841
C34	C	0.310409	0.405440	-0.405423
C35	C	0.283102	0.357882	-0.358018
C36	C	0.228491	0.262752	-0.263208
C37	C	0.283098	0.262748	-0.263205
C38	C	0.310405	0.310311	-0.310613
C39	C	0.364996	0.310316	-0.310588
N40	N	0.392306	0.357870	-0.357998
C41	C	0.365013	0.405432	-0.405416
C42	C	0.031920	0.310349	-0.310651
C43	C	-0.022682	0.310360	-0.310654
C44	C	-0.022665	0.405481	-0.405485
C45	C	0.031938	0.405473	-0.405478
C46	C	0.059230	0.357904	-0.358061
C47	C	0.479678	0.405421	-0.405385
C48	C	0.534283	0.405415	-0.405365
C49	C	0.534262	0.310292	-0.310537
C50	C	0.479661	0.310300	-0.310553
C51	C	0.452370	0.357867	-0.357983
O52	O	0.393272	0.269904	-0.270266
O53	O	0.393263	0.445867	-0.445740
C54	C	0.891906	0.357907	-0.358053
C55	C	0.950020	0.357920	-0.358075
C56	C	0.755611	0.164172	-0.358031
C57	C	0.755644	0.081626	-0.358043
C58	C	0.720606	0.832837	-0.407585
C59	C	0.707865	0.882269	-0.339815
C60	C	0.755542	0.784506	-0.358019
C61	C	0.768309	0.882155	-0.425797
C62	C	0.755591	0.930491	-0.358034
C63	C	0.742776	0.832851	-0.290213
C64	C	0.803242	0.832732	-0.376240
C65	C	0.790519	0.882142	-0.308424
C66	C	0.755513	0.700407	-0.358011
C67	C	0.755620	1.014587	-0.358034
C68	C	0.720645	0.407361	-0.833684
C69	C	0.768346	0.425520	-0.883087
C70	C	0.755588	0.357774	-0.785384
C71	C	0.707913	0.339594	-0.883063
C72	C	0.755609	0.357720	-0.931369
C73	C	0.803314	0.375968	-0.833700
C74	C	0.742849	0.290011	-0.833671
C75	C	0.790583	0.308144	-0.883052
C76	C	0.755575	0.357806	-0.701286
C77	C	0.755627	0.357688	-1.015466
C78	C	0.755543	0.357856	-0.165050
C79	C	0.755635	0.357661	-0.082504
H80	H	0.556514	0.444150	-0.443971
H81	H	0.732047	0.232744	-0.811949
H82	H	0.779134	0.482803	-0.904793
O83	O	-0.049223	0.264276	-0.264504
C84	C	-0.080841	0.306500	-0.216482
H85	H	-0.064406	0.364987	-0.211813
H86	H	-0.122220	0.309081	-0.239432
C87	C	-0.101868	0.198295	-0.145066
C88	C	-0.081680	0.270129	-0.139326
H89	H	-0.102387	0.175859	-0.097473
H90	H	-0.080568	0.169847	-0.177420
H91	H	-0.136349	0.200456	-0.164193
H92	H	-0.047197	0.267967	-0.120208
H93	H	-0.102974	0.298576	-0.106967
H94	H	0.691123	0.449350	-0.812008
H95	H	0.731950	0.811283	-0.232884
H96	H	0.667586	0.324240	-0.904747
O97	O	0.851401	0.394390	-0.807822
C98	C	0.850807	0.394209	-0.729717
H99	H	0.809136	0.402465	-0.709260
H100	H	0.866356	0.338946	-0.708572
C101	C	0.936625	0.447368	-0.725719
C102	C	0.885444	0.457515	-0.700594
H103	H	0.957993	0.486416	-0.707753
H104	H	0.937026	0.447488	-0.778340
H105	H	0.949575	0.401314	-0.708097
H106	H	0.872493	0.503564	-0.718224
H107	H	0.885041	0.457405	-0.647974
H108	H	0.820176	0.266186	-0.904591
H109	H	0.054168	0.444202	-0.444083
H110	H	0.779088	0.903812	-0.483110
O111	O	0.202054	0.216475	-0.217135
C112	C	0.237863	0.174510	-0.175280
H113	H	0.276797	0.171991	-0.205702
H114	H	0.243643	0.201619	-0.118826
C115	C	0.168761	0.098542	-0.127358
C116	C	0.216578	0.095444	-0.164727
H117	H	0.155631	0.049772	-0.120845
H118	H	0.144635	0.126816	-0.155554
H119	H	0.173584	0.121137	-0.080317
H120	H	0.211753	0.072858	-0.211770
H121	H	0.240703	0.067164	-0.136538
H122	H	0.457427	0.271572	-0.271949
H123	H	0.457464	0.444153	-0.444008
H124	H	0.820083	0.903655	-0.266465
H125	H	0.054139	0.271613	-0.272033
H126	H	0.305345	0.491731	-0.491447
H127	H	-0.044897	0.444207	-0.444098
O128	O	0.202089	0.499284	-0.498941
C129	C	0.237910	0.541237	-0.540787
H130	H	0.276820	0.543747	-0.510351
H131	H	0.243745	0.514122	-0.597237
C132	C	0.168809	0.617219	-0.588737
C133	C	0.216597	0.620307	-0.551352
H134	H	0.155661	0.665993	-0.595258
H135	H	0.144675	0.588953	-0.560547
H136	H	0.173677	0.594620	-0.635774
H137	H	0.211727	0.642897	-0.504313
H138	H	0.240730	0.648579	-0.579535
H139	H	0.305316	0.224006	-0.224596
H140	H	0.556494	0.271571	-0.271929
O141	O	0.685241	0.807036	-0.457437
C142	C	0.635029	0.832297	-0.437960
H143	H	0.634076	0.846178	-0.376359
H144	H	0.625227	0.883979	-0.471475
C145	C	0.595879	0.754277	-0.530284
C146	C	0.594708	0.771320	-0.454623
H147	H	0.571007	0.716666	-0.540565
H148	H	0.629708	0.737260	-0.543408
H149	H	0.587712	0.797350	-0.558204
H150	H	0.602882	0.728250	-0.426705
H151	H	0.560880	0.788329	-0.441495
O152	O	0.659765	0.908144	-0.321325
C153	C	0.646063	0.881961	-0.250357
H154	H	0.669193	0.829562	-0.237544
H155	H	0.655350	0.926180	-0.207231
C156	C	0.558899	0.928766	-0.264138
C157	C	0.587304	0.864405	-0.248404
H158	H	0.522653	0.917940	-0.262931
H159	H	0.568130	0.946409	-0.311949
H160	H	0.566643	0.965610	-0.228197
H161	H	0.579564	0.827567	-0.284349
H162	H	0.578070	0.846755	-0.200598
O163	O	0.851310	0.806784	-0.394776
C164	C	0.864601	0.831874	-0.466294
H165	H	0.827540	0.845780	-0.498279
H166	H	0.889985	0.883505	-0.461651
C167	C	0.940408	0.753673	-0.468198
C168	C	0.894890	0.770746	-0.507485
H169	H	0.959094	0.715968	-0.493606
H170	H	0.931456	0.736770	-0.420014
H171	H	0.961556	0.796704	-0.464332
H172	H	0.873740	0.727718	-0.511343
H173	H	0.903839	0.787640	-0.555671
