data_functionalizedCrystal
_audit_creation_method	'MofGen! by Chris Wilmer'
_symmetry_space_group_name_H-M	'P1'
_symmetry_Int_Tables_number	1
_symmetry_cell_setting	triclinic
loop_
_symmetry_equiv_pos_as_xyz
  x,y,z
_cell_length_a	16.992694
_cell_length_b	10.489741
_cell_length_c	15.455313
_cell_angle_alpha	92.692689
_cell_angle_beta	87.142206
_cell_angle_gamma	87.603699
loop_
_atom_site_label
_atom_site_type_symbol
_atom_site_fract_x
_atom_site_fract_y
_atom_site_fract_z
O1	O	1.045321	0.265388	-0.072021
O2	O	0.817021	0.262418	-0.072047
O3	O	0.936366	0.078758	-0.072028
O4	O	0.925976	0.449049	-0.072040
O5	O	0.929541	0.089214	0.072233
O6	O	0.810196	0.272874	0.072214
O7	O	1.038496	0.275845	0.072240
Cu8	Cu	0.923723	0.275314	0.085399
Cu9	Cu	0.931794	0.262948	-0.085206
O10	O	0.919151	0.459505	0.072221
C11	C	0.784374	0.263826	0.000081
C12	C	0.697266	0.252430	0.000071
C13	C	0.647647	0.362380	0.000068
C14	C	0.565799	0.351666	0.000081
C15	C	0.533573	0.231001	0.000089
C16	C	0.583198	0.121044	0.000095
C17	C	0.665044	0.131759	0.000089
C18	C	0.289723	0.186590	0.000114
C19	C	0.207871	0.175882	0.000117
C20	C	0.190477	0.406505	0.000105
C21	C	0.272325	0.417210	0.000094
C22	C	0.321944	0.307253	0.000104
N23	N	0.449911	0.220047	0.000099
N24	N	0.405603	0.318209	0.000100
C25	C	0.932168	0.036386	0.000102
C26	C	0.929821	-0.105448	0.000100
C27	C	0.853885	-0.180195	0.000085
C28	C	0.886392	-0.264041	0.071217
C29	C	0.893138	-0.274324	-0.071013
C30	C	0.962356	-0.187422	0.071291
C31	C	0.969095	-0.197700	-0.071003
C32	C	1.001656	-0.281512	0.000146
C33	C	1.071143	0.274436	0.000111
C34	C	1.158251	0.285832	0.000115
C35	C	0.923349	0.501877	0.000090
C36	C	0.925697	0.643710	0.000086
N37	N	0.918052	0.284011	0.205394
N38	N	0.937472	0.254242	-0.205201
C39	C	0.968772	0.206019	0.250796
C40	C	0.964490	0.212608	0.341603
C41	C	0.909492	0.297199	0.387007
C42	C	0.858766	0.375195	0.341598
C43	C	0.863045	0.368597	0.250793
C44	C	0.891025	0.325640	0.658585
C45	C	0.886752	0.332234	0.749397
C46	C	0.992475	0.169646	0.749396
C47	C	0.996751	0.163062	0.658589
C48	C	0.946023	0.241053	0.613188
N49	N	0.905116	0.303939	0.479826
N50	N	0.950396	0.234305	0.520370
H51	H	0.330113	0.097055	0.000123
C52	C	1.001455	-0.136620	0.151465
C53	C	1.068371	-0.071346	0.126186
C54	C	1.104399	-0.024514	0.200017
H55	H	1.016549	-0.205826	0.185446
H56	H	0.965409	-0.079899	0.184710
H57	H	1.104409	-0.128063	0.092955
H58	H	1.053299	-0.002124	0.092215
H59	H	1.068353	0.032207	0.233263
H60	H	1.119488	-0.093727	0.233993
H61	H	1.149801	0.019790	0.182876
H62	H	1.064144	-0.325496	0.000193
H63	H	0.525401	0.441198	0.000077
H64	H	0.791448	-0.135971	0.000150
C65	C	1.056059	0.070702	0.609140
C66	C	1.048793	0.081352	0.519900
C67	C	1.103254	-0.003983	0.474322
H68	H	1.046018	-0.014092	0.624160
H69	H	1.107978	0.090404	0.623729
H70	H	0.996886	0.061642	0.505316
H71	H	1.058841	0.166127	0.504854
H72	H	1.155173	0.015719	0.488911
H73	H	1.093208	-0.088771	0.489349
H74	H	1.098336	0.003240	0.413767
H75	H	0.298558	0.515467	0.000076
H76	H	0.813982	0.444065	0.378571
H77	H	0.705444	0.042227	0.000090
H78	H	1.004043	-0.168221	-0.131136
H79	H	0.821742	0.432106	0.213827
C80	C	0.853954	-0.324979	-0.151171
C81	C	0.776615	-0.273316	-0.150843
C82	C	0.740493	-0.319931	-0.224673
H83	H	0.853089	-0.415449	-0.150951
H84	H	0.882774	-0.301152	-0.201700
H85	H	0.747802	-0.297152	-0.100328
H86	H	0.777457	-0.182851	-0.151076
H87	H	0.769313	-0.296103	-0.275201
H88	H	0.739633	-0.410399	-0.224446
H89	H	0.688017	-0.284875	-0.224464
C90	C	1.047503	0.084744	0.798581
C91	C	1.035123	-0.043576	0.776488
C92	C	1.085805	-0.121833	0.821772
H93	H	1.037131	0.100612	0.859177
H94	H	1.100659	0.102823	0.783675
H95	H	0.981979	-0.061648	0.791400
H96	H	1.045500	-0.059484	0.715900
H97	H	1.138961	-0.103754	0.806866
H98	H	1.075429	-0.105954	0.882365
H99	H	1.077417	-0.208906	0.806782
H100	H	0.851416	-0.293490	0.131347
H101	H	0.150069	0.496026	0.000099
H102	H	0.673878	0.460638	0.000060
H103	H	0.849721	0.389146	0.621627
H104	H	0.181636	0.077618	0.000124
H105	H	1.013560	0.137142	0.213834
C106	C	0.548063	-0.009855	0.000061
C107	C	0.465767	0.004288	0.000041
C108	C	0.433377	-0.116271	-0.000004
H109	H	0.562590	-0.051937	0.050356
H110	H	0.567382	-0.059143	-0.050265
H111	H	0.446455	0.053556	0.050362
H112	H	0.451218	0.046350	-0.050250
H113	H	0.452695	-0.165558	-0.050330
H114	H	0.447910	-0.158344	0.050291
H115	H	0.377536	-0.106691	-0.000026
H116	H	1.005790	0.149100	0.378569
H117	H	0.841963	0.401123	0.786361
