data_functionalizedCrystal
_audit_creation_method	'MofGen! by Chris Wilmer'
_symmetry_space_group_name_H-M	'P1'
_symmetry_Int_Tables_number	1
_symmetry_cell_setting	triclinic
loop_
_symmetry_equiv_pos_as_xyz
  x,y,z
_cell_length_a	6.817900
_cell_length_b	19.453114
_cell_length_c	19.452420
_cell_angle_alpha	96.328802
_cell_angle_beta	101.696715
_cell_angle_gamma	101.709288
loop_
_atom_site_label
_atom_site_type_symbol
_atom_site_fract_x
_atom_site_fract_y
_atom_site_fract_z
V1	V	-3.997947	-0.219345	-0.097915
O2	O	-3.995100	-0.214816	0.003953
O3	O	-3.940917	-0.218185	-0.193426
O4	O	-3.940968	-0.314854	-0.096739
O5	O	-3.995048	-0.117478	-0.093403
V6	V	-4.483804	-0.207120	-0.085692
O7	O	-4.254084	-0.246163	-0.124729
O8	O	-4.677865	-0.180302	-0.058878
O9	O	-4.317628	-0.208280	0.009819
O10	O	-4.604048	-0.211649	-0.187560
O11	O	-4.604099	-0.308987	-0.090204
O12	O	-4.317576	-0.111611	-0.086868
C13	C	-3.784096	-0.214813	-0.216699
C14	C	-3.818697	-0.214501	-0.294782
C15	C	-3.801490	-0.149986	-0.321196
C16	C	-3.834075	-0.149672	-0.394562
C17	C	-3.883827	-0.213874	-0.441511
C18	C	-3.901045	-0.278397	-0.415090
C19	C	-3.868480	-0.278711	-0.341726
N20	N	-3.846563	-0.259091	-0.562110
N21	N	-3.877492	-0.258789	-0.631802
C22	C	-3.981949	-0.212935	-0.662553
N23	N	-4.054279	-0.167383	-0.620977
N24	N	-4.023337	-0.167682	-0.551278
C25	C	-3.919143	-0.213542	-0.521063
C26	C	-4.000075	-0.148075	-0.768518
C27	C	-4.032674	-0.147764	-0.841885
C28	C	-4.099624	-0.276491	-0.862412
C29	C	-4.067045	-0.276801	-0.789046
C30	C	-4.017262	-0.212591	-0.742102
C31	C	-3.784160	-0.338123	-0.093365
C32	C	-3.818800	-0.416204	-0.093035
C33	C	-4.016538	-0.456473	-0.096406
C34	C	-4.049086	-0.529838	-0.096097
C35	C	-3.883893	-0.562934	-0.092431
C36	C	-3.686126	-0.522655	-0.089055
C37	C	-3.653579	-0.449290	-0.089358
N38	N	-3.820798	-0.681855	-0.129525
N39	N	-3.851729	-0.751549	-0.129240
C40	C	-3.981942	-0.783979	-0.091517
N41	N	-4.080090	-0.744084	-0.054101
N42	N	-4.049164	-0.674384	-0.054390
C43	C	-3.919164	-0.642486	-0.092102
C44	C	-4.214984	-0.903800	-0.094552
C45	C	-4.247523	-0.977166	-0.094238
C46	C	-3.884560	-0.969983	-0.087203
C47	C	-3.852023	-0.896617	-0.087510
C48	C	-4.017244	-0.863531	-0.091188
C49	C	-4.137790	-0.211650	0.033088
C50	C	-4.082427	-0.211967	0.111171
C51	C	-4.137726	-0.088339	-0.090245
C52	C	-4.082325	-0.010257	-0.090570
H53	H	-4.081043	-0.329335	-0.767540
N54	N	-4.014081	-0.078175	-0.870374
H55	H	-4.042268	-0.087718	-0.923973
H56	H	-4.117155	-0.052506	-0.855494
H57	H	-3.941557	-0.330672	-0.453320
N58	N	-4.460820	-1.020594	-0.097874
H59	H	-4.505147	-1.058169	-0.141671
H60	H	-4.459542	-1.044170	-0.054105
N61	N	-3.440298	-0.405856	-0.085732
H62	H	-3.444750	-0.354358	-0.086483
H63	H	-3.343997	-0.410135	-0.040373
N64	N	-3.887035	-0.348296	-0.313232
H65	H	-3.923503	-0.388923	-0.354104
H66	H	-3.751571	-0.348837	-0.280815
H67	H	-4.140134	-0.328766	-0.900637
N68	N	-4.194728	-0.420786	-0.100367
H69	H	-4.324935	-0.457433	-0.102453
H70	H	-4.166390	-0.383531	-0.056875
N71	N	-4.393164	-0.868107	-0.098498
H72	H	-4.342545	-0.815519	-0.098181
H73	H	-4.500856	-0.889471	-0.143746
H74	H	-3.750053	-0.996928	-0.084212
N75	N	-3.638746	-0.853178	-0.083876
H76	H	-3.539030	-0.885275	-0.081505
H77	H	-3.640071	-0.829554	-0.127616
H78	H	-4.210115	-0.562632	-0.098846
H79	H	-3.820059	-0.097135	-0.416072
N80	N	-3.747731	-0.080722	-0.270582
H81	H	-3.862129	-0.054905	-0.281286
H82	H	-3.729632	-0.090744	-0.220110
N83	N	-3.946397	-0.078825	-0.717880
H84	H	-3.940461	-0.037907	-0.745749
H85	H	-4.054831	-0.078547	-0.689419
N86	N	-3.507945	-0.558345	-0.085096
H87	H	-3.558568	-0.610934	-0.085418
H88	H	-3.445741	-0.550925	-0.127380
