data_functionalizedCrystal
_audit_creation_method	'MofGen! by Chris Wilmer'
_symmetry_space_group_name_H-M	'P1'
_symmetry_Int_Tables_number	1
_symmetry_cell_setting	triclinic
loop_
_symmetry_equiv_pos_as_xyz
  x,y,z
_cell_length_a	19.805407
_cell_length_b	25.639239
_cell_length_c	25.639243
_cell_angle_alpha	90.014050
_cell_angle_beta	90.011919
_cell_angle_gamma	90.038686
loop_
_atom_site_label
_atom_site_type_symbol
_atom_site_fract_x
_atom_site_fract_y
_atom_site_fract_z
Zn1	Zn	1.034627	-0.208239	0.295633
Zn2	Zn	1.034532	-0.295650	0.208197
Zn3	Zn	0.921457	-0.208231	0.208209
Zn4	Zn	0.921381	-0.295645	0.295599
O5	O	0.977999	-0.251941	0.251910
O6	O	1.129331	-0.219840	0.284044
O7	O	1.019525	-0.284053	0.135034
O8	O	0.936540	-0.135067	0.219825
O9	O	1.129262	-0.284061	0.219805
O10	O	1.019686	-0.135072	0.284055
O11	O	0.936449	-0.219826	0.135042
O12	O	0.826730	-0.219821	0.219792
O13	O	0.936411	-0.284051	0.368769
O14	O	0.826674	-0.284044	0.283997
O15	O	1.019612	-0.219834	0.368794
O16	O	1.019451	-0.368815	0.219772
O17	O	0.936319	-0.368811	0.283986
C18	C	0.802143	-0.251931	0.251893
C19	C	0.726911	-0.251939	0.251898
C20	C	0.691556	-0.285431	0.285275
C21	C	0.620867	-0.285431	0.285283
C22	C	0.585536	-0.251944	0.251910
C23	C	0.620896	-0.218449	0.218531
C24	C	0.691583	-0.218446	0.218526
C25	C	0.335823	-0.218460	0.218548
C26	C	0.265131	-0.218467	0.218554
C27	C	0.265107	-0.285446	0.285304
C28	C	0.335794	-0.285443	0.285300
C29	C	0.371148	-0.251947	0.251923
C30	C	0.447797	-0.251945	0.251916
C31	C	0.508888	-0.251947	0.251914
C32	C	0.977885	-0.387784	0.251886
C33	C	0.977898	-0.445898	0.251893
C34	C	1.021399	-0.806250	0.218531
C35	C	1.021425	-0.860855	0.218538
O36	O	1.058293	-0.889082	0.190145
N37	N	0.978118	-0.888180	0.251944
C38	C	0.934787	-0.860899	0.285350
O39	O	0.897954	-0.889155	0.313766
C40	C	0.934764	-0.806295	0.285345
C41	C	0.978070	-0.778973	0.251933
C42	C	1.064701	-0.778927	0.185121
C43	C	1.064674	-0.724327	0.185113
C44	C	1.021344	-0.697049	0.218515
C45	C	0.978042	-0.724372	0.251925
C46	C	0.891437	-0.779015	0.318753
C47	C	0.891419	-0.724408	0.318746
C48	C	0.934724	-0.697085	0.285333
C49	C	0.934686	-0.642494	0.285320
N50	N	0.977993	-0.615168	0.251913
C51	C	1.021322	-0.642446	0.218511
C52	C	0.934838	-0.975569	0.285358
C53	C	0.934856	-1.030172	0.285361
C54	C	1.021496	-1.030124	0.218549
C55	C	1.021473	-0.975520	0.218544
C56	C	0.978145	-0.948244	0.251951
C57	C	1.021261	-0.527781	0.218497
C58	C	1.021228	-0.473175	0.218491
C59	C	0.934591	-0.473228	0.285305
C60	C	0.934622	-0.527829	0.285309
C61	C	0.977962	-0.555104	0.251904
O62	O	0.897839	-0.614231	0.313699
O63	O	1.058155	-0.614183	0.190104
C64	C	1.154542	-0.251952	0.251927
C65	C	1.229774	-0.251956	0.251934
C66	C	0.978013	-0.251943	0.388283
C67	C	0.978020	-0.251944	0.446397
C68	C	0.978132	-0.115568	0.251945
C69	C	0.978188	-0.057454	0.251960
C70	C	1.021254	-0.285390	0.697578
C71	C	1.021256	-0.285391	0.642974
O72	O	1.058023	-0.313841	0.614727
N73	N	0.978006	-0.251950	0.615671
C74	C	0.934748	-0.218509	0.642975
O75	O	0.897960	-0.190065	0.614737
C76	C	0.934743	-0.218511	0.697578
C77	C	0.978000	-0.251951	0.724878
C78	C	1.064507	-0.318828	0.724879
C79	C	1.064506	-0.318826	0.779479
C80	C	1.021252	-0.285387	0.806779
C81	C	0.977999	-0.251949	0.779479
C82	C	0.891481	-0.185074	0.724881
C83	C	0.891480	-0.185079	0.779488
C84	C	0.934737	-0.218519	0.806788
C85	C	0.934744	-0.218509	0.861379
N86	N	0.977993	-0.251950	0.888683
C87	C	1.021247	-0.285389	0.861383
C88	C	0.934760	-0.218508	0.528304
C89	C	0.934768	-0.218503	0.473702
C90	C	1.021275	-0.285385	0.473705
C91	C	1.021270	-0.285388	0.528308
C92	C	0.978009	-0.251949	0.555607
C93	C	1.021242	-0.285382	0.976048
C94	C	1.021239	-0.285376	1.030653
C95	C	0.934729	-0.218496	1.030645
C96	C	0.934734	-0.218500	0.976045
C97	C	0.977993	-0.251947	0.948747
O98	O	0.897993	-0.190074	0.889661
O99	O	1.058022	-0.313833	0.889627
C100	C	0.977983	-0.251948	1.116067
C101	C	0.977985	-0.251937	1.057953
H102	H	1.056492	-0.450931	0.191281
O103	O	0.849468	-0.805603	0.351241
C104	C	0.887990	-0.837131	0.385053
H105	H	0.939299	-0.845287	0.366645
H106	H	0.860427	-0.875543	0.392058
H107	H	0.895395	-0.816059	0.423796
O108	O	1.106562	-0.351239	0.698307
C109	C	1.150326	-0.321474	0.666752
H110	H	1.126492	-0.281852	0.658570
H111	H	1.159391	-0.342774	0.628355
H112	H	1.200484	-0.315728	0.687815
H113	H	0.364557	-0.312714	0.312474
H114	H	1.056554	-0.549982	0.191296
O115	O	0.892763	-1.056629	0.317863
C116	C	0.854504	-1.020837	0.347330
H117	H	0.882211	-0.981892	0.349152
H118	H	0.847250	-1.036600	0.388522
H119	H	0.803114	-1.015077	0.328144
O120	O	0.849549	-0.152570	0.806063
C121	C	0.888113	-0.118790	0.837653
H122	H	0.939389	-0.137231	0.845841
H123	H	0.860545	-0.111781	0.876045
H124	H	0.895586	-0.080045	0.816618
H125	H	0.899551	-0.191267	0.451478
O126	O	0.849266	-0.697993	0.351217
C127	C	0.811068	-0.733822	0.380716
H128	H	0.808761	-0.772754	0.359301
H129	H	0.757727	-0.718088	0.386260
H130	H	0.835826	-0.739597	0.420441
H131	H	0.720369	-0.191171	0.191350
H132	H	0.592123	-0.191180	0.191360
O133	O	0.892705	-0.949017	0.317735
C134	C	0.848989	-0.917488	0.287934
H135	H	0.872897	-0.909296	0.248329
H136	H	0.839874	-0.879093	0.309224
H137	H	0.798848	-0.938576	0.282150
O138	O	1.063308	-0.317922	0.554744
C139	C	1.101497	-0.347422	0.518933
H140	H	1.073773	-0.349225	0.480004
H141	H	1.108677	-0.388619	0.534694
H142	H	1.152921	-0.328278	0.513142
H143	H	0.236313	-0.312719	0.312483
O144	O	0.586628	-0.318020	0.317716
C145	C	0.632970	-0.347573	0.347175
H146	H	0.683350	-0.349340	0.325754
H147	H	0.612518	-0.388779	0.352669
H148	H	0.640515	-0.328497	0.386923
H149	H	0.899361	-0.550076	0.312518
H150	H	0.236365	-0.191194	0.191377
H151	H	1.056736	-0.953277	0.191337
H152	H	1.099938	-0.702084	0.157908
H153	H	0.720318	-0.312702	0.312450
O154	O	0.370055	-0.185906	0.186078
C155	C	0.323710	-0.156342	0.156634
H156	H	0.273307	-0.177762	0.154785
H157	H	0.344123	-0.150693	0.115449
H158	H	0.316224	-0.116666	0.175857
H159	H	1.056494	-0.312614	0.451467
O160	O	1.106815	-0.805339	0.152621
C161	C	1.145036	-0.769504	0.123147
H162	H	1.117292	-0.730605	0.121323
H163	H	1.152299	-0.785280	0.081955
H164	H	1.196422	-0.763650	0.142327
H165	H	1.056779	-1.052343	0.191353
H166	H	0.899311	-0.451010	0.312499
H167	H	0.899534	-0.191273	0.550528
O168	O	1.063281	-0.317912	1.057091
C169	C	1.101467	-0.347417	1.021282
H170	H	1.073740	-0.349224	0.982354
H171	H	1.108647	-0.388612	1.037048
H172	H	1.152891	-0.328274	1.015487
O173	O	1.063298	-0.317799	0.949479
C174	C	1.107060	-0.288037	0.917920
H175	H	1.083226	-0.248415	0.909737
H176	H	1.116121	-0.309339	0.879524
H177	H	1.157220	-0.282290	0.938980
O178	O	1.106542	-0.351363	0.805914
C179	C	1.144724	-0.380866	0.770100
H180	H	1.116996	-0.382665	0.731173
H181	H	1.151899	-0.422064	0.785860
H182	H	1.196151	-0.361725	0.764307
O183	O	0.849422	-0.152666	0.698314
C184	C	0.805664	-0.182432	0.666727
H185	H	0.829504	-0.222052	0.658531
H186	H	0.796600	-0.161131	0.628338
H187	H	0.755506	-0.188183	0.687767
O188	O	0.892653	-0.186000	0.949603
C189	C	0.854489	-0.156476	0.985410
H190	H	0.852133	-0.177887	1.024330
H191	H	0.801163	-0.150901	0.969631
H192	H	0.879309	-0.116766	0.991225
H193	H	0.899515	-0.191269	1.052883
