data_functionalizedCrystal
_audit_creation_method	'MofGen! by Chris Wilmer'
_symmetry_space_group_name_H-M	'P1'
_symmetry_Int_Tables_number	1
_symmetry_cell_setting	triclinic
loop_
_symmetry_equiv_pos_as_xyz
  x,y,z
_cell_length_a	16.109302
_cell_length_b	27.731996
_cell_length_c	15.186229
_cell_angle_alpha	89.990305
_cell_angle_beta	89.994701
_cell_angle_gamma	83.041584
loop_
_atom_site_label
_atom_site_type_symbol
_atom_site_fract_x
_atom_site_fract_y
_atom_site_fract_z
O1	O	1.102341	0.062133	-0.073280
O2	O	0.860181	0.069865	-0.073274
O3	O	0.988804	-0.004368	-0.073258
O4	O	0.973717	0.136366	-0.073296
O5	O	0.988796	-0.004369	0.073199
O6	O	0.860172	0.069864	0.073183
O7	O	1.102332	0.062132	0.073177
Zn8	Zn	0.981251	0.065998	0.096433
Zn9	Zn	0.981262	0.065999	-0.096530
O10	O	0.973709	0.136365	0.073161
C11	C	0.829206	0.069551	-0.000045
C12	C	0.736922	0.068612	-0.000042
C13	C	0.524604	0.066440	0.079784
C14	C	0.437896	0.065552	0.079781
C15	C	0.437915	0.065556	-0.079895
C16	C	0.524623	0.066440	-0.079891
C17	C	0.567965	0.066885	-0.000049
C18	C	0.394548	0.065113	-0.000056
C19	C	0.300535	0.064150	-0.000059
C20	C	0.661985	0.067846	-0.000045
C21	C	0.988490	-0.022377	-0.000027
C22	C	0.987557	-0.076037	-0.000018
C23	C	0.981688	-0.408778	-0.079894
C24	C	0.978143	-0.610451	-0.079910
O25	O	0.977653	-0.636523	-0.147806
N26	N	0.977698	-0.635670	-0.000077
C27	C	0.978134	-0.610468	0.079766
O28	O	0.977666	-0.636546	0.147669
C29	C	0.981673	-0.408795	0.079781
C30	C	0.982127	-0.383579	-0.000058
C31	C	0.982141	-0.383561	-0.159726
C32	C	0.983031	-0.333146	-0.159722
C33	C	0.983470	-0.307948	-0.079885
C34	C	0.983017	-0.333164	-0.000053
C35	C	0.982103	-0.383594	0.159622
C36	C	0.982986	-0.333172	0.159619
C37	C	0.983439	-0.307956	0.079780
C38	C	0.984346	-0.257551	0.079788
N39	N	0.984791	-0.232331	-0.000045
C40	C	0.984353	-0.257530	-0.079882
C41	C	0.976278	-0.716349	0.079753
C42	C	0.975395	-0.766767	0.079749
C43	C	0.975402	-0.766746	-0.079927
C44	C	0.976292	-0.716328	-0.079922
C45	C	0.976723	-0.691130	-0.000080
C46	C	0.986224	-0.151655	-0.079866
C47	C	0.987118	-0.101236	-0.079854
C48	C	0.987106	-0.101261	0.079821
C49	C	0.986217	-0.151676	0.079810
C50	C	0.985773	-0.176871	-0.000040
O51	O	0.984828	-0.231447	0.147649
O52	O	0.984803	-0.231442	-0.147774
C53	C	0.980798	-0.459192	-0.079899
C54	C	0.980345	-0.484409	-0.000067
C55	C	0.980783	-0.459210	0.079769
C56	C	0.979462	-0.534827	-0.000071
C57	C	0.979024	-0.560025	-0.079907
C58	C	0.979468	-0.534806	-0.159740
C59	C	0.980359	-0.484391	-0.159735
C60	C	0.980339	-0.484430	0.159602
C61	C	0.979449	-0.534845	0.159591
C62	C	0.979010	-0.560043	0.079755
C63	C	1.133308	0.062446	-0.000054
C64	C	1.225591	0.063385	-0.000063
C65	C	0.974023	0.154374	-0.000072
C66	C	0.974957	0.208034	-0.000087
N67	N	0.981249	0.065997	0.228126
N68	N	0.981270	0.065997	-0.228223
C69	C	1.038223	0.033137	0.453856
C70	C	1.038226	0.033136	0.546046
C71	C	0.924291	0.098858	0.546041
C72	C	0.924285	0.098856	0.453853
C73	C	0.981256	0.065996	0.407763
C74	C	0.981264	0.065997	0.592140
C75	C	0.981267	0.065996	0.692096
C76	C	0.981252	0.065997	0.307800
H77	H	0.402616	0.065195	-0.144899
H78	H	0.981735	-0.404116	0.224635
H79	H	1.084611	0.006381	0.416332
H80	H	0.559929	0.066801	-0.144904
H81	H	0.985855	-0.172208	0.144821
C82	C	0.985750	-0.179364	-0.167706
N83	N	0.985403	-0.200234	-0.233867
C84	C	0.572279	0.066923	0.167612
N85	N	0.608185	0.067285	0.233767
H86	H	0.402595	0.065190	0.144789
H87	H	0.987489	-0.080707	-0.144871
H88	H	0.983325	-0.312657	0.224637
H89	H	0.983397	-0.312619	-0.224734
C90	C	0.861650	0.135027	0.403147
N91	N	0.814489	0.162278	0.364955
H92	H	0.981781	-0.404072	-0.224742
C93	C	1.100888	-0.003015	0.596744
N94	N	1.148085	-0.030248	0.634930
C95	C	0.976783	-0.688594	-0.167750
N96	N	0.977150	-0.667707	-0.233905
C97	C	0.974913	-0.794473	-0.167748
N98	N	0.974538	-0.815359	-0.233891
H99	H	0.975038	-0.787295	0.144762
C100	C	0.976758	-0.688638	0.167591
N101	N	0.977124	-0.667768	0.233752
C102	C	0.987580	-0.073532	0.167637
N103	N	0.987929	-0.052645	0.233781
H104	H	0.980728	-0.463864	-0.224748
C105	C	0.978984	-0.562534	-0.247561
N106	N	0.978613	-0.583420	-0.313703
C107	C	0.861625	0.135000	0.596748
N108	N	0.814423	0.162223	0.634940
C109	C	0.978948	-0.562577	0.247426
N110	N	0.978562	-0.583462	0.313582
H111	H	0.980697	-0.463918	0.224616
