data_functionalizedCrystal
_audit_creation_method	'MofGen! by Chris Wilmer'
_symmetry_space_group_name_H-M	'P1'
_symmetry_Int_Tables_number	1
_symmetry_cell_setting	triclinic
loop_
_symmetry_equiv_pos_as_xyz
  x,y,z
_cell_length_a	12.837943
_cell_length_b	11.892095
_cell_length_c	9.065218
_cell_angle_alpha	93.948829
_cell_angle_beta	90.077587
_cell_angle_gamma	94.310562
loop_
_atom_site_label
_atom_site_type_symbol
_atom_site_fract_x
_atom_site_fract_y
_atom_site_fract_z
O1	O	1.385606	0.093974	-0.375523
O2	O	1.083622	0.093981	-0.356551
O3	O	1.240856	0.093975	-0.152154
O4	O	1.228372	0.093980	-0.579920
O5	O	1.227746	-0.094031	-0.169167
O6	O	1.070512	-0.094026	-0.373565
O7	O	1.372496	-0.094033	-0.392536
Zn8	Zn	1.219422	-0.123879	-0.385751
Zn9	Zn	1.236695	0.123828	-0.363336
O10	O	1.215262	-0.094027	-0.596933
C11	C	1.038387	-0.000021	-0.358649
C12	C	0.923130	-0.000018	-0.339536
C13	C	0.684328	-0.000032	-0.569314
C14	C	0.576034	-0.000030	-0.551362
C15	C	0.598245	-0.000021	-0.285682
C16	C	0.706539	-0.000023	-0.303634
C17	C	0.749577	-0.000026	-0.445454
C18	C	0.857874	-0.000020	-0.463404
C19	C	0.880082	-0.000019	-0.197726
C20	C	0.771788	-0.000017	-0.179775
N21	N	1.207642	-0.292933	-0.401050
C22	C	1.330460	-0.529585	-0.241490
C23	C	1.322233	-0.647927	-0.252196
C24	C	1.182956	-0.647960	-0.433156
C25	C	1.191183	-0.529618	-0.422451
C26	C	1.264939	-0.470435	-0.326617
C27	C	1.273170	-0.352091	-0.315920
C28	C	1.133888	-0.352126	-0.496872
C29	C	1.125661	-0.470468	-0.507578
C30	C	1.417731	-0.000028	-0.390438
C31	C	1.532988	-0.000023	-0.409550
C32	C	1.233101	-0.000026	-0.105528
C33	C	1.229514	-0.000021	0.058752
N34	N	1.248484	0.292882	-0.348027
C35	C	1.223017	-0.000022	-0.643559
C36	C	1.226605	-0.000021	-0.807838
H37	H	0.522912	-0.000037	-0.652222
H38	H	0.933220	-0.000007	-0.096870
Br39	Br	1.044972	-0.271841	-0.612421
H40	H	0.563178	-0.000111	-0.170227
H41	H	0.892913	-0.000025	-0.578881
H42	H	1.375586	-0.696084	-0.182875
H43	H	0.719370	-0.000033	-0.684789
H44	H	0.736730	-0.000027	-0.064309
Br45	Br	1.373270	-0.271773	-0.185869
Br46	Br	1.430569	-0.449263	-0.111455
H47	H	1.122899	-0.696162	-0.511172
H48	H	1.065608	-0.518668	-0.585600
