data_functionalizedCrystal
_audit_creation_method	'MofGen! by Chris Wilmer'
_symmetry_space_group_name_H-M	'P1'
_symmetry_Int_Tables_number	1
_symmetry_cell_setting	triclinic
loop_
_symmetry_equiv_pos_as_xyz
  x,y,z
_cell_length_a	18.101398
_cell_length_b	13.897448
_cell_length_c	13.897441
_cell_angle_alpha	89.969401
_cell_angle_beta	90.027689
_cell_angle_gamma	89.984577
loop_
_atom_site_label
_atom_site_type_symbol
_atom_site_fract_x
_atom_site_fract_y
_atom_site_fract_z
Zn1	Zn	1.132211	0.384042	0.545560
Zn2	Zn	1.382211	0.634042	0.795560
Zn3	Zn	1.632211	0.884042	1.045560
Zn4	Zn	1.882211	1.134042	1.295560
Zn5	Zn	1.132130	0.545364	0.384262
Zn6	Zn	1.382130	0.795364	0.634262
Zn7	Zn	1.632130	1.045364	0.884262
Zn8	Zn	1.882130	1.295364	1.134262
Zn9	Zn	1.008364	0.384078	0.384259
Zn10	Zn	1.258364	0.634078	0.634259
Zn11	Zn	1.508364	0.884078	0.884259
Zn12	Zn	1.758364	1.134078	1.134259
Zn13	Zn	1.008350	0.545291	0.545495
Zn14	Zn	1.258350	0.795291	0.795495
Zn15	Zn	1.508350	1.045291	1.045495
Zn16	Zn	1.758350	1.295291	1.295495
O17	O	1.070264	0.464694	0.464894
O18	O	1.320264	0.714694	0.714894
O19	O	1.570264	0.964694	0.964894
O20	O	1.820264	1.214694	1.214894
O21	O	1.235833	0.405458	0.524192
O22	O	1.485833	0.655458	0.774192
O23	O	1.735833	0.905458	1.024192
O24	O	1.985833	1.155458	1.274192
O25	O	1.115684	0.524015	0.249279
O26	O	1.365684	0.774015	0.499279
O27	O	1.615684	1.024015	0.749279
O28	O	1.865684	1.274015	0.999279
O29	O	1.024832	0.249092	0.405682
O30	O	1.274832	0.499092	0.655682
O31	O	1.524832	0.749092	0.905682
O32	O	1.774832	0.999092	1.155682
O33	O	1.235773	0.523980	0.405687
O34	O	1.485773	0.773980	0.655687
O35	O	1.735773	1.023980	0.905687
O36	O	1.985773	1.273980	1.155687
O37	O	1.115823	0.249066	0.524190
O38	O	1.365823	0.499066	0.774190
O39	O	1.615823	0.749066	1.024190
O40	O	1.865823	0.999066	1.274190
O41	O	1.024754	0.405519	0.249278
O42	O	1.274754	0.655519	0.499278
O43	O	1.524754	0.905519	0.749278
O44	O	1.774754	1.155519	0.999278
O45	O	0.904729	0.405448	0.405619
O46	O	1.154729	0.655448	0.655619
O47	O	1.404729	0.905448	0.905619
O48	O	1.654729	1.155448	1.155619
O49	O	1.024809	0.523855	0.680485
O50	O	1.274809	0.773855	0.930485
O51	O	1.524809	1.023855	1.180485
O52	O	1.774809	1.273855	1.430485
O53	O	0.904719	0.523890	0.524078
O54	O	1.154719	0.773890	0.774078
O55	O	1.404719	1.023890	1.024078
O56	O	1.654719	1.273890	1.274078
O57	O	1.115809	0.405387	0.680533
O58	O	1.365809	0.655387	0.930533
O59	O	1.615809	0.905387	1.180533
O60	O	1.865809	1.155387	1.430533
O61	O	1.115670	0.680336	0.405623
O62	O	1.365670	0.930336	0.655623
O63	O	1.615670	1.180336	0.905623
O64	O	1.865670	1.430336	1.155623
O65	O	1.024730	0.680282	0.524080
O66	O	1.274730	0.930282	0.774080
O67	O	1.524730	1.180282	1.024080
O68	O	1.774730	1.430282	1.274080
C69	C	0.877853	0.464666	0.464841
C70	C	1.127853	0.714666	0.714841
C71	C	1.377853	0.964666	0.964841
C72	C	1.627853	1.214666	1.214841
C73	C	0.795539	0.464677	0.464842
C74	C	1.045539	0.714677	0.714842
C75	C	1.295539	0.964677	0.964842
C76	C	1.545539	1.214677	1.214842
C77	C	1.070210	0.715308	0.464866
C78	C	1.320210	0.965308	0.714866
C79	C	1.570210	1.215308	0.964866
C80	C	1.820210	1.465308	1.214866
C81	C	1.070254	0.822522	0.464886
C82	C	1.320254	1.072522	0.714886
C83	C	1.570254	1.322522	0.964886
C84	C	1.820254	1.572522	1.214886
C85	C	1.070316	0.464609	0.716487
C86	C	1.320316	0.714609	0.966487
C87	C	1.570316	0.964609	1.216487
C88	C	1.820316	1.214609	1.466487
C89	C	1.070339	0.464572	0.823701
C90	C	1.320339	0.714572	1.073701
C91	C	1.570339	0.964572	1.323701
C92	C	1.820339	1.214572	1.573701
C93	C	0.644831	0.464696	0.464885
C94	C	0.894831	0.714696	0.714885
C95	C	1.144831	0.964696	0.964885
C96	C	1.394831	1.214696	1.214885
C97	C	0.613459	0.390069	0.390478
C98	C	0.863459	0.640069	0.640478
C99	C	1.113459	0.890069	0.890478
C100	C	1.363459	1.140069	1.140478
C101	C	0.527840	0.389788	0.390722
C102	C	0.777840	0.639788	0.640722
C103	C	1.027840	0.889788	0.890722
C104	C	1.277840	1.139788	1.140722
C105	C	0.496448	0.464716	0.464926
C106	C	0.746448	0.714716	0.714926
C107	C	0.996448	0.964716	0.964926
C108	C	1.246448	1.214716	1.214926
C109	C	0.527587	0.437574	0.566697
C110	C	0.777587	0.687574	0.816697
C111	C	1.027587	0.937574	1.066697
C112	C	1.277587	1.187574	1.316697
C113	C	0.613232	0.437022	0.566242
C114	C	0.863232	0.687022	0.816242
C115	C	1.113232	0.937022	1.066242
C116	C	1.363232	1.187022	1.316242
C117	C	0.613244	0.566658	0.438420
C118	C	0.863244	0.816658	0.688420
C119	C	1.113244	1.066658	0.938420
C120	C	1.363244	1.316658	1.188420
C121	C	0.527593	0.566121	0.436202
C122	C	0.777593	0.816121	0.686202
C123	C	1.027593	1.066121	0.936202
C124	C	1.277593	1.316121	1.186202
C125	C	0.412589	0.464728	0.464956
C126	C	0.662589	0.714728	0.714956
C127	C	0.912589	0.964728	0.964956
C128	C	1.162589	1.214728	1.214956
C129	C	0.728690	0.464681	0.464863
C130	C	0.978690	0.714681	0.714863
C131	C	1.228690	0.964681	0.964863
C132	C	1.478690	1.214681	1.214863
C133	C	1.263426	0.464723	0.464947
C134	C	1.513426	0.714723	0.714947
C135	C	1.763426	0.964723	0.964947
C136	C	2.013426	1.214723	1.214947
C137	C	1.345740	0.464736	0.464970
C138	C	1.595740	0.714736	0.714970
C139	C	1.845740	0.964736	0.964970
C140	C	2.095740	1.214736	1.214970
C141	C	1.070338	0.213101	0.464943
C142	C	1.320338	0.463101	0.714943
C143	C	1.570338	0.713101	0.964943
C144	C	1.820338	0.963101	1.214943
C145	C	1.070370	0.105887	0.464964
C146	C	1.320370	0.355887	0.714964
C147	C	1.570370	0.605887	0.964964
C148	C	1.820370	0.855887	1.214964
C149	C	1.070332	1.018817	0.464947
C150	C	1.320332	1.268817	0.714947
C151	C	1.570332	1.518817	0.964947
C152	C	1.820332	1.768817	1.214947
C153	C	1.070287	0.909585	0.464916
C154	C	1.320287	1.159585	0.714916
C155	C	1.570287	1.409585	0.964916
C156	C	1.820287	1.659585	1.214916
C157	C	1.070254	0.464709	0.214279
C158	C	1.320254	0.714709	0.464279
C159	C	1.570254	0.964709	0.714279
C160	C	1.820254	1.214709	0.964279
C161	C	1.070375	0.464474	0.107066
C162	C	1.320375	0.714474	0.357066
C163	C	1.570375	0.964474	0.607066
C164	C	1.820375	1.214474	0.857066
C165	C	1.070359	0.464507	1.019996
C166	C	1.320359	0.714507	1.269996
C167	C	1.570359	0.964507	1.519996
C168	C	1.820359	1.214507	1.769996
C169	C	1.070345	0.464546	0.910764
C170	C	1.320345	0.714546	1.160764
C171	C	1.570345	0.964546	1.410764
C172	C	1.820345	1.214546	1.660764
H173	H	0.506783	0.406723	0.315274
H174	H	0.756783	0.656723	0.565274
H175	H	1.006783	0.906723	0.815274
H176	H	1.256783	1.156723	1.065274
H177	H	0.634000	0.406810	0.314778
H178	H	0.884000	0.656810	0.564778
H179	H	1.134000	0.906810	0.814778
H180	H	1.384000	1.156810	1.064778
Cl181	Cl	0.494499	0.323796	0.601848
Cl182	Cl	0.744499	0.573796	0.851848
Cl183	Cl	0.994499	0.823796	1.101848
Cl184	Cl	1.244499	1.073796	1.351848
H185	H	0.506217	0.624672	0.486409
H186	H	0.756217	0.874672	0.736409
H187	H	1.006217	1.124672	0.986409
H188	H	1.256217	1.374672	1.236409
H189	H	0.507258	0.490273	0.623671
H190	H	0.757258	0.740273	0.873671
H191	H	1.007258	0.990273	1.123671
H192	H	1.257258	1.240273	1.373671
Cl193	Cl	0.496164	0.597737	0.320566
Cl194	Cl	0.746164	0.847737	0.570566
Cl195	Cl	0.996164	1.097737	0.820566
Cl196	Cl	1.246164	1.347737	1.070566
Cl197	Cl	0.646703	0.274080	0.417255
Cl198	Cl	0.896703	0.524080	0.667255
Cl199	Cl	1.146703	0.774080	0.917255
Cl200	Cl	1.396703	1.024080	1.167255
Cl201	Cl	0.644589	0.652502	0.522066
Cl202	Cl	0.894589	0.902502	0.772066
Cl203	Cl	1.144589	1.152502	1.022066
Cl204	Cl	1.394589	1.402502	1.272066
H205	H	0.634807	0.591442	0.365448
H206	H	0.884807	0.841442	0.615448
H207	H	1.134807	1.091442	0.865448
H208	H	1.384807	1.341442	1.115448
H209	H	0.507365	0.314241	0.408293
H210	H	0.757365	0.564241	0.658293
H211	H	1.007365	0.814241	0.908293
H212	H	1.257365	1.064241	1.158293
H213	H	0.633990	0.489036	0.623601
H214	H	0.883990	0.739036	0.873601
H215	H	1.133990	0.989036	1.123601
H216	H	1.383990	1.239036	1.373601
Cl217	Cl	0.644102	0.321971	0.600780
Cl218	Cl	0.894102	0.571971	0.850780
Cl219	Cl	1.144102	0.821971	1.100780
Cl220	Cl	1.394102	1.071971	1.350780
