data_functionalizedCrystal
_audit_creation_method	'MofGen! by Chris Wilmer'
_symmetry_space_group_name_H-M	'P1'
_symmetry_Int_Tables_number	1
_symmetry_cell_setting	triclinic
loop_
_symmetry_equiv_pos_as_xyz
  x,y,z
_cell_length_a	17.766277
_cell_length_b	10.654550
_cell_length_c	10.654550
_cell_angle_alpha	84.484931
_cell_angle_beta	89.993836
_cell_angle_gamma	89.993898
loop_
_atom_site_label
_atom_site_type_symbol
_atom_site_fract_x
_atom_site_fract_y
_atom_site_fract_z
O1	O	0.062538	-1.667850	-0.176401
O2	O	0.062552	-1.302371	-0.193207
O3	O	0.062540	-1.493514	-0.002065
O4	O	0.062550	-1.476708	-0.367543
O5	O	-0.062649	-1.493480	-0.002055
O6	O	-0.062637	-1.302337	-0.193197
O7	O	-0.062651	-1.667816	-0.176391
Cu8	Cu	-0.074074	-1.485074	-0.184793
Cu9	Cu	0.073975	-1.485114	-0.184805
O10	O	-0.062639	-1.476674	-0.367533
C11	C	-0.000041	-1.255556	-0.191968
C12	C	-0.000036	-1.116113	-0.188276
N13	N	-0.178205	-1.485054	-0.184784
C14	C	-0.000057	-1.714631	-0.177630
C15	C	-0.000057	-1.854074	-0.181322
C16	C	-0.217597	-1.569720	-0.100188
C17	C	-0.296399	-1.569727	-0.100182
C18	C	-0.335805	-1.485081	-0.184794
C19	C	-0.296404	-1.400399	-0.269396
C20	C	-0.217603	-1.400386	-0.269391
C21	C	-0.460640	-1.469622	-0.299032
C22	C	-0.539439	-1.469644	-0.299039
C23	C	-0.578852	-1.485115	-0.184810
C24	C	-0.539456	-1.500590	-0.070569
C25	C	-0.460656	-1.500577	-0.070563
C26	C	-0.421251	-1.485085	-0.184809
C27	C	-0.703690	-1.569793	-0.100201
C28	C	-0.782493	-1.569791	-0.100193
C29	C	-0.782496	-1.400469	-0.269418
C30	C	-0.703695	-1.400465	-0.269414
C31	C	-0.664296	-1.485133	-0.184807
N32	N	0.178106	-1.485143	-0.184804
C33	C	-0.000054	-1.492263	0.044738
C34	C	-0.000053	-1.488571	0.184181
C35	C	-0.000035	-1.036628	-0.300818
C36	C	-0.000048	-0.905607	-0.297341
C37	C	-0.000060	-0.933570	-0.068772
C38	C	-0.000052	-1.064588	-0.072250
C39	C	-0.000043	-1.477925	-0.414336
C40	C	-0.000040	-1.481616	-0.553779
C41	C	-0.000057	-1.601112	0.263667
C42	C	-0.000048	-1.597636	0.394688
C43	C	-0.000033	-1.369066	0.366725
C44	C	-0.000037	-1.372544	0.235706
H45	H	-0.185521	-1.638659	-0.031293
H46	H	-0.000049	-0.840894	-0.388984
H47	H	-0.000068	-1.695588	0.221720
F48	F	-0.338330	-1.659845	-0.010140
F49	F	-0.000028	-1.252755	0.151106
F50	F	-0.661767	-1.310357	-0.359458
H51	H	-0.428583	-1.513174	0.022455
F52	F	-0.000050	-1.717418	0.479278
F53	F	-0.418701	-1.453246	-0.420623
F54	F	-0.581359	-1.453182	-0.420623
F55	F	-0.000020	-1.091460	-0.424303
F56	F	-0.000017	-1.245589	0.421573
F57	F	-0.661758	-1.659899	-0.010149
H58	H	-0.814567	-1.638733	-0.031299
F59	F	-0.824432	-1.310374	-0.359460
F60	F	-0.338343	-1.310308	-0.359442
F61	F	-0.581396	-1.517065	0.051012
H62	H	-0.185530	-1.331439	-0.338280
F63	F	-0.000074	-0.878722	0.054705
H64	H	-0.000055	-1.129309	0.019401
