data_functionalizedCrystal
_audit_creation_method	'MofGen! by Chris Wilmer'
_symmetry_space_group_name_H-M	'P1'
_symmetry_Int_Tables_number	1
_symmetry_cell_setting	triclinic
loop_
_symmetry_equiv_pos_as_xyz
  x,y,z
_cell_length_a	18.215407
_cell_length_b	16.120444
_cell_length_c	18.215399
_cell_angle_alpha	92.870532
_cell_angle_beta	89.982632
_cell_angle_gamma	92.923925
loop_
_atom_site_label
_atom_site_type_symbol
_atom_site_fract_x
_atom_site_fract_y
_atom_site_fract_z
Zn1	Zn	1.110204	-0.331974	-0.430919
Zn2	Zn	1.103869	-0.471396	-0.314090
Zn3	Zn	0.987136	-0.331994	-0.307872
Zn4	Zn	0.980861	-0.471342	-0.437118
O5	O	1.045517	-0.401676	-0.372500
O6	O	1.212347	-0.350483	-0.415429
O7	O	1.088358	-0.452934	-0.210282
O8	O	1.008739	-0.215325	-0.318999
O9	O	1.207693	-0.452915	-0.329595
O10	O	1.099157	-0.215310	-0.409400
O11	O	1.002595	-0.350517	-0.205714
O12	O	0.883320	-0.350464	-0.325009
O13	O	0.998044	-0.452824	-0.539278
O14	O	0.878710	-0.452843	-0.419965
O15	O	1.093072	-0.350430	-0.534724
O16	O	1.082274	-0.588055	-0.335606
O17	O	0.991901	-0.588015	-0.425994
C18	C	0.854312	-0.401651	-0.372486
C19	C	0.772513	-0.401660	-0.372498
C20	C	0.586737	-0.348433	-0.417271
C21	C	0.509878	-0.348440	-0.417274
C22	C	0.505049	-0.454943	-0.327742
C23	C	0.581907	-0.454931	-0.327736
C24	C	0.622749	-0.401677	-0.372505
C25	C	0.469032	-0.401696	-0.372514
C26	C	0.385698	-0.401704	-0.372516
C27	C	0.706088	-0.401668	-0.372501
C28	C	1.035739	-0.618285	-0.382163
C29	C	1.031623	-0.710951	-0.386322
C30	C	1.067050	-0.921893	-0.351084
C31	C	1.024121	-0.880608	-0.393923
C32	C	1.028296	-0.786202	-0.389692
C33	C	1.062876	-1.016308	-0.355314
C34	C	1.237469	-0.401703	-0.372514
C35	C	1.319267	-0.401714	-0.372520
C36	C	1.045565	-0.401619	-0.564450
C37	C	1.045585	-0.401594	-0.646248
C38	C	1.055354	-0.184222	-0.362814
C39	C	1.059546	-0.091555	-0.358687
C40	C	1.095085	-0.348228	-0.832070
C41	C	1.095095	-0.348204	-0.908927
C42	C	0.996143	-0.454831	-0.913659
C43	C	0.996130	-0.454851	-0.836802
C44	C	1.045605	-0.401551	-0.796010
C45	C	1.045628	-0.401507	-0.949724
C46	C	1.045638	-0.401481	-1.033056
C47	C	1.045594	-0.401575	-0.712672
C48	C	1.045515	-0.401673	-0.181293
C49	C	1.045648	-0.401463	-0.099485
H50	H	0.619988	-0.305068	-0.453722
O51	O	0.947988	-0.506522	-0.953248
C52	C	0.820981	-0.547013	-0.978513
C53	C	0.875434	-0.488405	-0.933646
H54	H	0.762310	-0.532398	-0.962670
H55	H	0.829426	-0.537841	-1.039649
H56	H	0.830904	-0.614237	-0.966401
H57	H	0.865545	-0.421159	-0.945696
H58	H	0.866977	-0.497649	-0.872524
O59	O	0.474811	-0.296837	-0.460804
C60	C	0.388607	-0.285781	-0.559724
C61	C	0.428256	-0.344317	-0.510463
H62	H	0.350971	-0.324145	-0.599895
H63	H	0.354527	-0.242154	-0.524097
H64	H	0.431018	-0.247701	-0.591682
H65	H	0.385896	-0.382450	-0.478495
H66	H	0.462350	-0.387889	-0.546129
H67	H	0.471786	-0.498301	-0.291294
O68	O	0.948136	-0.506772	-0.801806
C69	C	0.905970	-0.648585	-0.784621
C70	C	0.960373	-0.589887	-0.824291
H71	H	0.915833	-0.715794	-0.802796
H72	H	0.914458	-0.639512	-0.722677
H73	H	0.847299	-0.633892	-0.799060
H74	H	1.019065	-0.604542	-0.809912
H75	H	0.951820	-0.598971	-0.886224
H76	H	0.984234	-0.916164	-0.433775
O77	O	0.616776	-0.506735	-0.284228
C78	C	0.603884	-0.612337	-0.195392
C79	C	0.564300	-0.553732	-0.244641
H80	H	0.561476	-0.650337	-0.163362
H81	H	0.637894	-0.656027	-0.231030
H82	H	0.641597	-0.573984	-0.155285
H83	H	0.526550	-0.592019	-0.284756
H84	H	0.530337	-0.510041	-0.208958
O85	O	1.114565	-0.879355	-0.303557
C86	C	1.162142	-0.745100	-0.256008
C87	C	1.108291	-0.793184	-0.309854
H88	H	1.157099	-0.675422	-0.261092
H89	H	1.148507	-0.762157	-0.197389
H90	H	1.220733	-0.762134	-0.269717
H91	H	1.049682	-0.776176	-0.296213
H92	H	1.121989	-0.776123	-0.368458
O93	O	1.143166	-0.296371	-0.792553
C94	C	1.241339	-0.190639	-0.795977
C95	C	1.186917	-0.249315	-0.840815
H96	H	1.276736	-0.152592	-0.834979
H97	H	1.209553	-0.146997	-0.758068
H98	H	1.278053	-0.228939	-0.761685
H99	H	1.150189	-0.211082	-0.875151
H100	H	1.218748	-0.292960	-0.878679
H101	H	1.135386	-0.304782	-0.938284
