data_functionalizedCrystal
_audit_creation_method	'MofGen! by Chris Wilmer'
_symmetry_space_group_name_H-M	'P1'
_symmetry_Int_Tables_number	1
_symmetry_cell_setting	triclinic
loop_
_symmetry_equiv_pos_as_xyz
  x,y,z
_cell_length_a	17.077404
_cell_length_b	16.625545
_cell_length_c	17.077396
_cell_angle_alpha	90.028053
_cell_angle_beta	89.980223
_cell_angle_gamma	89.980577
loop_
_atom_site_label
_atom_site_type_symbol
_atom_site_fract_x
_atom_site_fract_y
_atom_site_fract_z
Zn1	Zn	1.200048	0.321101	-0.443851
Zn2	Zn	1.700048	0.821101	0.056149
Zn3	Zn	1.199953	0.455944	-0.312586
Zn4	Zn	1.699953	0.955944	0.187414
Zn5	Zn	1.068780	0.321118	-0.312598
Zn6	Zn	1.568780	0.821118	0.187402
Zn7	Zn	1.068745	0.455884	-0.443809
Zn8	Zn	1.568745	0.955884	0.056191
O9	O	1.134382	0.388512	-0.378211
O10	O	1.634382	0.888512	0.121789
O11	O	1.309883	0.339006	-0.426451
O12	O	1.809883	0.839006	0.073549
O13	O	1.182527	0.438091	-0.202740
O14	O	1.682527	0.938091	0.297260
O15	O	1.086248	0.208283	-0.330032
O16	O	1.586248	0.708283	0.169968
O17	O	1.309812	0.438074	-0.330011
O18	O	1.809812	0.938074	0.169989
O19	O	1.182690	0.208271	-0.426463
O20	O	1.682690	0.708271	0.073537
O21	O	1.086155	0.339035	-0.202749
O22	O	1.586155	0.839035	0.297251
O23	O	0.958929	0.338977	-0.329991
O24	O	1.458929	0.838977	0.170009
O25	O	1.086189	0.437973	-0.553661
O26	O	1.586189	0.937973	-0.053661
O27	O	0.958903	0.437990	-0.426391
O28	O	1.458903	0.937990	0.073609
O29	O	1.182656	0.338948	-0.553692
O30	O	1.682656	0.838948	-0.053692
O31	O	1.182493	0.568768	-0.329970
O32	O	1.682493	1.068768	0.170030
O33	O	1.086096	0.568725	-0.426379
O34	O	1.586096	1.068725	0.073621
C35	C	0.930434	0.388479	-0.378188
C36	C	1.430434	0.888479	0.121812
C37	C	0.843184	0.388485	-0.378197
C38	C	1.343184	0.888485	0.121803
C39	C	0.467377	0.440183	-0.428350
C40	C	0.967377	0.940183	0.071650
C41	C	0.549357	0.440172	-0.428338
C42	C	1.049357	0.940172	0.071662
C43	C	0.590335	0.388533	-0.378223
C44	C	1.090335	0.888533	0.121777
C45	C	0.549328	0.336907	-0.328112
C46	C	1.049328	0.836907	0.171888
C47	C	0.467349	0.336922	-0.328120
C48	C	0.967349	0.836922	0.171880
C49	C	0.720198	0.336877	-0.328099
C50	C	1.220198	0.836877	0.171901
C51	C	0.802183	0.336861	-0.328091
C52	C	1.302183	0.836861	0.171909
C53	C	0.802206	0.440128	-0.428316
C54	C	1.302206	0.940128	0.071684
C55	C	0.720227	0.440143	-0.428325
C56	C	1.220227	0.940143	0.071675
C57	C	0.679226	0.388515	-0.378214
C58	C	1.179226	0.888515	0.121786
C59	C	1.134302	0.598003	-0.378186
C60	C	1.634302	1.098003	0.121814
C61	C	1.134339	0.687624	-0.378201
C62	C	1.634339	1.187624	0.121799
C63	C	1.134468	1.015799	-0.378295
C64	C	1.634468	1.515799	0.121705
C65	C	1.134429	0.924491	-0.378271
C66	C	1.634429	1.424491	0.121729
C67	C	1.134403	0.851714	-0.378248
C68	C	1.634403	1.351714	0.121752
C69	C	1.134366	0.760400	-0.378225
C70	C	1.634366	1.260400	0.121775
C71	C	1.339126	0.388545	-0.378234
C72	C	1.839126	0.888545	0.121766
C73	C	1.426376	0.388559	-0.378244
C74	C	1.926376	0.888559	0.121756
C75	C	1.134429	0.388452	-0.582955
C76	C	1.634429	0.888452	-0.082955
C77	C	1.134449	0.388427	-0.670205
C78	C	1.634449	0.888427	-0.170205
C79	C	1.134477	1.178203	-0.378263
C80	C	1.634477	1.678203	0.121737
C81	C	1.134500	1.088582	-0.378308
C82	C	1.634500	1.588582	0.121692
C83	C	1.184682	0.336860	-0.711213
C84	C	1.684682	0.836860	-0.211213
C85	C	1.184691	0.336834	-0.793193
C86	C	1.684691	0.836834	-0.293193
C87	C	1.134472	0.388378	-0.834165
C88	C	1.634472	0.888378	-0.334165
C89	C	1.084234	0.439947	-0.793151
C90	C	1.584234	0.939947	-0.293151
C91	C	1.084221	0.439969	-0.711172
C92	C	1.584221	0.939969	-0.211172
C93	C	1.084265	0.439898	-0.964021
C94	C	1.584265	0.939898	-0.464021
C95	C	1.084279	0.439877	-1.046006
C96	C	1.584279	0.939877	-0.546006
C97	C	1.184736	0.336763	-1.046042
C98	C	1.684736	0.836763	-0.546042
C99	C	1.184723	0.336785	-0.964063
C100	C	1.684723	0.836785	-0.464063
C101	C	1.134486	0.388355	-0.923056
C102	C	1.634486	0.888355	-0.423056
C103	C	1.134380	0.388513	-0.174263
C104	C	1.634380	0.888513	0.325737
C105	C	1.134511	0.388311	-0.087014
C106	C	1.634511	0.888311	0.412986
H107	H	0.582699	0.294865	-0.287304
H108	H	1.082699	0.794865	0.212696
O109	O	0.846386	0.281172	-0.274036
O110	O	1.346386	0.781172	0.225964
H111	H	0.804104	0.245283	-0.239183
H112	H	1.304104	0.745283	0.260817
H113	H	1.225640	0.294771	-1.079435
H114	H	1.725640	0.794771	-0.579435
H115	H	0.686866	0.482188	-0.469136
H116	H	1.186866	0.982188	0.030864
O117	O	1.238852	0.281264	-0.667030
O118	O	1.738852	0.781264	-0.167030
H119	H	1.278772	0.317370	-0.629687
H120	H	1.778772	0.817370	-0.129687
O121	O	0.423120	0.281238	-0.274082
O122	O	0.923120	0.781238	0.225918
H123	H	0.465385	0.245321	-0.239238
H124	H	0.965385	0.745321	0.260762
H125	H	1.043308	0.481952	-0.677785
H126	H	1.543308	0.981952	-0.177785
H127	H	1.043384	0.481848	-1.079363
H128	H	1.543384	0.981848	-0.579363
O129	O	0.423154	0.495879	-0.482382
O130	O	0.923154	0.995879	0.017618
H131	H	0.385783	0.536835	-0.447152
H132	H	0.885783	1.036835	0.052848
H133	H	0.835594	0.482163	-0.469120
H134	H	1.335594	0.982163	0.030880
O135	O	1.238890	0.281197	-0.919867
O136	O	1.738890	0.781197	-0.419867
H137	H	1.273822	0.245329	-0.962153
H138	H	1.773822	0.745329	-0.462153
O139	O	1.030077	0.495513	-0.919787
O140	O	1.530077	0.995513	-0.419787
H141	H	0.995162	0.531356	-0.962048
H142	H	1.495162	1.031356	-0.462048
H143	H	1.043341	0.481912	-0.826517
H144	H	1.543341	0.981912	-0.326517
H145	H	1.225598	0.294845	-0.826578
H146	H	1.725598	0.794845	-0.326578
O147	O	0.593583	0.495845	-0.482387
O148	O	1.093583	0.995845	0.017613
H149	H	0.551316	0.531746	-0.517245
H150	H	1.051316	1.031746	-0.017245
H151	H	0.686817	0.294835	-0.287295
H152	H	1.186817	0.794835	0.212705
