data_functionalizedCrystal
_audit_creation_method	'MofGen! by Chris Wilmer'
_symmetry_space_group_name_H-M	'P1'
_symmetry_Int_Tables_number	1
_symmetry_cell_setting	triclinic
loop_
_symmetry_equiv_pos_as_xyz
  x,y,z
_cell_length_a	13.185407
_cell_length_b	16.992695
_cell_length_c	12.376903
_cell_angle_alpha	78.075196
_cell_angle_beta	105.310279
_cell_angle_gamma	108.679147
loop_
_atom_site_label
_atom_site_type_symbol
_atom_site_fract_x
_atom_site_fract_y
_atom_site_fract_z
O1	O	1.410036	0.209895	-0.093961
O2	O	1.099338	0.131852	-0.093972
O3	O	1.253443	0.284753	-0.093958
O4	O	1.255931	0.056995	-0.093976
O5	O	1.292347	0.266119	0.094040
O6	O	1.138241	0.113219	0.094025
O7	O	1.448939	0.191262	0.094036
Zn8	Zn	1.299767	0.149282	0.123880
Zn9	Zn	1.248510	0.173832	-0.123815
O10	O	1.294834	0.038362	0.094022
C11	C	1.078850	0.114624	0.000025
C12	C	0.959843	0.091058	0.000021
C13	C	0.650992	0.315962	0.000044
C14	C	0.762807	0.338105	0.000055
C15	C	0.812072	0.276346	0.000046
C16	C	0.749510	0.192439	0.000027
C17	C	0.637686	0.170293	0.000025
C18	C	0.798765	0.130676	0.000027
C19	C	0.736204	0.046770	0.000008
C20	C	0.624390	0.024628	0.000005
C21	C	0.575126	0.086387	0.000014
C22	C	0.910589	0.152822	0.000029
C23	C	0.897283	0.007153	0.000011
C24	C	0.785468	-0.014990	-0.000000
C25	C	1.269690	0.303972	0.000041
C26	C	1.260129	0.388999	0.000040
C27	C	1.469427	0.208490	0.000036
C28	C	1.588432	0.232057	0.000033
C29	C	1.278586	0.019142	0.000021
C30	C	1.288146	-0.065884	0.000014
N31	N	1.334756	0.132530	0.292925
C32	C	1.352384	0.458706	0.000045
C33	C	1.343391	0.538597	0.000034
C34	C	1.242145	0.548777	0.000026
C35	C	1.149882	0.479063	0.000018
C36	C	1.158874	0.399175	0.000021
C37	C	1.204876	0.784513	0.000009
C38	C	1.195892	0.864409	0.000010
C39	C	1.389401	0.923938	0.000023
C40	C	1.398385	0.844045	0.000033
C41	C	1.306122	0.774338	0.000019
N42	N	1.232951	0.630437	0.000018
N43	N	1.315315	0.692681	0.000018
C44	C	1.132259	0.229467	0.647985
C45	C	1.107753	0.241190	0.529654
C46	C	1.164501	0.214026	0.470466
C47	C	1.245761	0.175136	0.529620
C48	C	1.270275	0.163418	0.647963
C49	C	1.302518	0.147977	0.470444
C50	C	1.383777	0.109088	0.529598
C51	C	1.408287	0.097370	0.647929
C52	C	1.351538	0.124535	0.707117
C53	C	1.278003	0.159695	0.352101
C54	C	1.416019	0.093647	0.352079
C55	C	1.440525	0.081923	0.470410
N56	N	1.213522	0.190584	0.707139
H57	H	0.610877	0.366235	0.000082
H58	H	1.464516	0.980701	0.000032
Br59	Br	0.997450	0.293938	0.449382
H60	H	1.418515	0.595352	0.000040
Br61	Br	1.167729	0.212474	0.271835
Br62	Br	1.489800	0.444898	0.000071
H63	H	1.113444	0.872689	0.000022
Br64	Br	1.055261	0.266335	0.728315
Br65	Br	0.539491	-0.089247	-0.000002
H66	H	1.067444	0.487358	0.000005
Br67	Br	0.995481	0.266691	0.000057
Br68	Br	0.847707	0.451972	0.000090
Br69	Br	0.700550	-0.128859	-0.000030
Br70	Br	1.518581	0.044606	0.728208
Br71	Br	0.423366	0.056341	-0.000023
H72	H	1.462230	0.071528	0.303888
Br73	Br	0.964135	-0.076671	0.000013
Br74	Br	1.384782	0.108613	0.867716
H75	H	1.129748	0.727765	-0.000002
Br76	Br	1.550799	0.029143	0.550703
H77	H	0.903117	0.294379	0.000055
H78	H	1.480831	0.835765	0.000039
H79	H	1.083750	0.342417	0.000017
H80	H	1.144543	0.223573	0.374116
