data_functionalizedCrystal
_audit_creation_method	'MofGen! by Chris Wilmer'
_symmetry_space_group_name_H-M	'P1'
_symmetry_Int_Tables_number	1
_symmetry_cell_setting	triclinic
loop_
_symmetry_equiv_pos_as_xyz
  x,y,z
_cell_length_a	14.853567
_cell_length_b	14.853567
_cell_length_c	13.330367
_cell_angle_alpha	89.999156
_cell_angle_beta	89.995418
_cell_angle_gamma	83.634930
loop_
_atom_site_label
_atom_site_type_symbol
_atom_site_fract_x
_atom_site_fract_y
_atom_site_fract_z
O1	O	1.196369	0.117704	-0.083346
O2	O	0.933909	0.131725	-0.083362
O3	O	1.072150	-0.006515	-0.083356
O4	O	1.058128	0.255944	-0.083351
O5	O	1.072130	-0.006519	0.083491
O6	O	0.933889	0.131722	0.083485
O7	O	1.196349	0.117700	0.083501
Cu8	Cu	1.065117	0.124711	0.098728
Cu9	Cu	1.065141	0.124715	-0.098588
O10	O	1.058108	0.255941	0.083496
C11	C	0.900311	0.131088	0.000060
C12	C	0.800227	0.129184	0.000053
C13	C	0.387693	0.039019	0.000074
C14	C	0.366412	0.203251	0.000076
C15	C	0.460446	0.205042	0.000073
C16	C	0.518108	0.123819	0.000069
C17	C	0.481736	0.040806	0.000067
C18	C	0.496825	0.288053	0.000064
C19	C	0.590864	0.289846	0.000059
C20	C	0.648528	0.208623	0.000062
C21	C	0.612150	0.125607	0.000062
C22	C	0.669812	0.044384	0.000058
C23	C	0.633437	-0.038633	0.000065
C24	C	0.539399	-0.040417	0.000070
C25	C	0.742565	0.210407	0.000057
C26	C	0.763855	0.046172	0.000052
C27	C	1.071504	-0.040106	0.000064
C28	C	1.069601	-0.140189	0.000055
C29	C	0.979435	-0.552723	0.000069
C30	C	1.143668	-0.574004	0.000079
C31	C	1.145458	-0.479971	0.000073
C32	C	1.064235	-0.422309	0.000067
C33	C	0.981223	-0.458680	0.000066
C34	C	1.228469	-0.443591	0.000084
C35	C	1.230262	-0.349552	0.000079
C36	C	1.149039	-0.291889	0.000066
C37	C	1.066023	-0.328266	0.000064
C38	C	0.984800	-0.270604	0.000058
C39	C	0.901783	-0.306979	0.000049
C40	C	0.899999	-0.401017	0.000053
C41	C	1.150823	-0.197851	0.000062
C42	C	0.986588	-0.176561	0.000055
C43	C	1.229947	0.118337	0.000078
C44	C	1.330031	0.120241	0.000078
C45	C	1.058754	0.289531	0.000073
C46	C	1.060657	0.389615	0.000075
N47	N	1.065107	0.124708	0.237509
N48	N	1.065158	0.124711	-0.237370
C49	C	1.003925	0.185903	0.710130
C50	C	1.126381	0.063519	0.710103
C51	C	1.126371	0.063516	0.605084
C52	C	1.065138	0.124709	0.552584
C53	C	1.003915	0.185904	0.605102
C54	C	1.187598	0.002328	0.552559
C55	C	1.187591	0.002323	0.447534
C56	C	1.126353	0.063512	0.395031
C57	C	1.065127	0.124710	0.447556
C58	C	1.003895	0.185902	0.395055
C59	C	0.942664	0.247096	0.447578
C60	C	0.942677	0.247093	0.552599
C61	C	1.126340	0.063515	0.290010
C62	C	1.003884	0.185903	0.290027
H63	H	0.680397	-0.104764	0.000055
H64	H	1.294596	-0.490546	0.000099
C65	C	1.327550	-0.256147	0.085843
C66	C	1.321511	-0.309572	0.000079
H67	H	1.383886	-0.231469	0.085841
H68	H	1.279440	-0.208352	0.085830
H69	H	1.323434	-0.292394	0.144024
H70	H	1.325621	-0.273323	-0.058102
H71	H	1.369635	-0.357373	0.000083
H72	H	0.319459	0.269379	0.000071
H73	H	1.218414	-0.168238	0.000076
H74	H	0.954070	0.235724	0.752896
C75	C	0.817275	-0.522227	0.000046
C76	C	0.888184	-0.592701	0.000054
H77	H	0.760941	-0.546910	0.000029
H78	H	0.821379	-0.485997	0.058228
H79	H	0.821407	-0.485988	-0.058139
H80	H	0.884056	-0.628936	0.058243
H81	H	0.884078	-0.628946	-0.058134
C82	C	0.343224	0.358225	0.000094
C83	C	0.433444	0.377328	0.000075
H84	H	0.304093	0.413344	0.000110
H85	H	0.332187	0.324201	-0.058085
H86	H	0.332202	0.324187	0.058282
H87	H	0.444467	0.411360	-0.058117
H88	H	0.444485	0.411367	0.058260
C89	C	0.882841	0.306879	0.300604
C90	C	0.936576	0.253172	0.232323
H91	H	0.841293	0.348411	0.264977
H92	H	0.850373	0.269289	0.341567
H93	H	0.920417	0.339374	0.341564
H94	H	0.899000	0.220673	0.191367
H95	H	0.969046	0.290767	0.191342
H96	H	0.509774	-0.108005	0.000100
H97	H	0.810798	-0.019971	0.000052
C98	C	0.252998	-0.036655	0.000085
C99	C	0.347714	-0.052231	0.000077
H100	H	0.228318	-0.092991	0.000081
H101	H	0.233220	-0.003217	0.058267
H102	H	0.233220	-0.003207	-0.058100
H103	H	0.367492	-0.085674	0.058266
H104	H	0.367500	-0.085684	-0.058111
C105	C	0.560372	0.452007	0.000072
C106	C	0.630844	0.381095	0.000065
H107	H	0.585057	0.508340	0.000085
H108	H	0.524145	0.447899	-0.058109
H109	H	0.524130	0.447882	0.058258
H110	H	0.667082	0.385217	-0.058125
H111	H	0.667086	0.385206	0.058252
C112	C	1.179114	-0.092456	0.742434
C113	C	1.193677	-0.003747	0.767813
H114	H	1.220663	-0.133986	0.778063
H115	H	1.118942	-0.102340	0.759657
H116	H	1.187877	-0.101207	0.672369
H117	H	1.184907	0.005006	0.837876
H118	H	1.253864	0.006141	0.750596
H119	H	1.237447	-0.047504	0.404776
C120	C	0.888335	0.301443	0.713601
C121	C	0.875386	0.314361	0.610334
H122	H	0.846797	0.342977	0.749244
H123	H	0.878468	0.241264	0.730813
H124	H	0.948519	0.311342	0.730781
H125	H	0.815203	0.304456	0.593152
H126	H	0.885245	0.374555	0.593115
C127	C	1.240328	-0.153648	0.584888
C128	C	1.254888	-0.064940	0.610275
H129	H	1.281871	-0.195179	0.620522
H130	H	1.180153	-0.163532	0.602099
H131	H	1.249102	-0.162397	0.514824
H132	H	1.246108	-0.056189	0.680337
H133	H	1.315078	-0.055052	0.593070
H134	H	0.772178	0.277998	0.000053
H135	H	0.832411	-0.430643	0.000046
C136	C	1.247387	-0.057450	0.300537
C137	C	1.193637	-0.003743	0.232278
H138	H	1.288931	-0.098979	0.264894
H139	H	1.279861	-0.019860	0.341486
H140	H	1.209821	-0.089949	0.341513
H141	H	1.231203	0.028760	0.191306
H142	H	1.161161	-0.041339	0.191311
H143	H	1.209795	-0.620958	0.000092
H144	H	0.892811	0.296924	0.404820
H145	H	0.920445	-0.129618	0.000045
C146	C	0.831613	-0.153373	0.000043
C147	C	0.812505	-0.243591	0.000040
H148	H	0.776497	-0.114239	0.000032
H149	H	0.865632	-0.142345	0.058228
H150	H	0.865659	-0.142346	-0.058139
H151	H	0.778465	-0.254619	0.058227
H152	H	0.778472	-0.254623	-0.058150
