data_functionalizedCrystal
_audit_creation_method	'MofGen! by Chris Wilmer'
_symmetry_space_group_name_H-M	'P1'
_symmetry_Int_Tables_number	1
_symmetry_cell_setting	triclinic
loop_
_symmetry_equiv_pos_as_xyz
  x,y,z
_cell_length_a	12.759395
_cell_length_b	21.295417
_cell_length_c	21.295411
_cell_angle_alpha	89.971282
_cell_angle_beta	89.985961
_cell_angle_gamma	90.032044
loop_
_atom_site_label
_atom_site_type_symbol
_atom_site_fract_x
_atom_site_fract_y
_atom_site_fract_z
Zn1	Zn	1.606086	-0.250611	-0.355871
Zn2	Zn	2.106086	0.249389	0.144129
Zn3	Zn	1.605948	-0.355876	-0.250596
Zn4	Zn	2.105948	0.144124	0.249404
Zn5	Zn	1.430404	-0.250627	-0.250620
Zn6	Zn	1.930404	0.249373	0.249380
Zn7	Zn	1.430328	-0.355849	-0.355833
Zn8	Zn	1.930328	0.144151	0.144167
O9	O	1.518192	-0.303241	-0.303230
O10	O	2.018192	0.196759	0.196770
O11	O	1.753089	-0.264579	-0.341912
O12	O	2.253089	0.235421	0.158088
O13	O	1.582636	-0.341933	-0.162510
O14	O	2.082636	0.158067	0.337490
O15	O	1.453798	-0.162536	-0.264608
O16	O	1.953798	0.337464	0.235392
O17	O	1.752988	-0.341917	-0.264567
O18	O	2.252988	0.158083	0.235433
O19	O	1.582871	-0.162524	-0.341935
O20	O	2.082871	0.337476	0.158065
O21	O	1.453665	-0.264607	-0.162528
O22	O	1.953665	0.235393	0.337472
O23	O	1.283373	-0.264581	-0.264571
O24	O	1.783373	0.235419	0.235429
O25	O	1.453669	-0.341871	-0.443927
O26	O	1.953669	0.158129	0.056073
O27	O	1.283317	-0.341887	-0.341870
O28	O	1.783317	0.158113	0.158130
O29	O	1.582797	-0.264553	-0.443955
O30	O	2.082797	0.235447	0.056045
O31	O	1.582562	-0.443962	-0.264530
O32	O	2.082562	0.056038	0.235470
O33	O	1.453535	-0.443942	-0.341847
O34	O	1.953535	0.056058	0.158153
C35	C	1.245224	-0.303233	-0.303219
C36	C	1.745224	0.196767	0.196781
C37	C	1.128448	-0.303245	-0.303230
C38	C	1.628448	0.196755	0.196770
C39	C	1.518054	-0.466793	-0.303195
C40	C	2.018054	0.033207	0.196805
C41	C	1.518091	-0.536761	-0.303201
C42	C	2.018091	-0.036761	0.196799
C43	C	1.128428	-0.383874	-0.383591
C44	C	1.628428	0.116126	0.116409
C45	C	1.073557	-0.424194	-0.423773
C46	C	1.573557	0.075806	0.076227
C47	C	0.963836	-0.424201	-0.423781
C48	C	1.463836	0.075799	0.076219
C49	C	0.908982	-0.383884	-0.383603
C50	C	1.408982	0.116116	0.116397
C51	C	0.963853	-0.343564	-0.343421
C52	C	1.463853	0.156436	0.156579
C53	C	1.073577	-0.343562	-0.343416
C54	C	1.573577	0.156438	0.156584
C55	C	0.963872	-0.262933	-0.263064
C56	C	1.463872	0.237067	0.236936
C57	C	1.073594	-0.262928	-0.263052
C58	C	1.573594	0.237072	0.236948
C59	C	0.909019	-0.222616	-0.222886
C60	C	1.409019	0.277384	0.277114
C61	C	0.963889	-0.182299	-0.182700
C62	C	1.463889	0.317701	0.317300
C63	C	1.073618	-0.182293	-0.182693
C64	C	1.573618	0.317707	0.317307
C65	C	1.128465	-0.222608	-0.222870
C66	C	1.628465	0.277392	0.277130
C67	C	1.585335	-0.569617	-0.262984
C68	C	2.085335	-0.069617	0.237016
C69	C	1.585385	-0.635359	-0.262998
C70	C	2.085385	-0.135359	0.237002
C71	C	1.518171	-0.668243	-0.303223
C72	C	2.018171	-0.168243	0.196777
C73	C	1.450922	-0.635379	-0.343448
C74	C	1.950922	-0.135379	0.156552
C75	C	1.450882	-0.569638	-0.343438
C76	C	1.950882	-0.069638	0.156562
N77	N	1.426263	-0.771511	-0.308018
N78	N	1.926263	-0.271511	0.191982
N79	N	1.426304	-0.833962	-0.308025
N80	N	1.926304	-0.333962	0.191975
C81	C	1.518289	-0.866318	-0.303259
C82	C	2.018289	-0.366318	0.196741
N83	N	1.610233	-0.833863	-0.298474
N84	N	2.110233	-0.333863	0.201526
N85	N	1.610191	-0.771406	-0.298464
N86	N	2.110191	-0.271406	0.201536
C87	C	1.518207	-0.739529	-0.303240
C88	C	2.018207	-0.239529	0.196760
C89	C	1.585592	-0.970459	-0.263055
C90	C	2.085592	-0.470459	0.236945
C91	C	1.585643	-1.036203	-0.263073
C92	C	2.085643	-0.536203	0.236927
C93	C	1.451171	-1.036222	-0.343520
C94	C	1.951171	-0.536222	0.156480
C95	C	1.451129	-0.970480	-0.343505
C96	C	1.951129	-0.470480	0.156495
C97	C	1.518338	-0.937602	-0.303269
C98	C	2.018338	-0.437602	0.196731
C99	C	1.792225	-0.303249	-0.303241
C100	C	2.292225	0.196751	0.196759
C101	C	1.909002	-0.303253	-0.303246
C102	C	2.409002	0.196747	0.196754
C103	C	1.518240	-0.303207	-0.467420
C104	C	2.018240	0.196793	0.032580
C105	C	1.518261	-0.303193	-0.537389
C106	C	2.018261	0.196807	-0.037389
C107	C	1.518359	-0.139051	-0.303279
C108	C	2.018359	0.360949	0.196721
C109	C	1.518430	-0.069083	-0.303300
C110	C	2.018430	0.430917	0.196700
C111	C	1.585533	-0.343326	-1.036838
C112	C	2.085533	0.156674	-0.536838
C113	C	1.585514	-0.343346	-0.971096
C114	C	2.085514	0.156654	-0.471096
C115	C	1.518360	-0.303095	-0.938228
C116	C	2.018360	0.196905	-0.438228
C117	C	1.451201	-0.262832	-0.971109
C118	C	1.951201	0.237168	-0.471109
C119	C	1.451214	-0.262818	-1.036850
C120	C	1.951214	0.237182	-0.536850
N121	N	1.510335	-0.248016	-0.835023
N122	N	2.010335	0.251984	-0.335023
N123	N	1.510328	-0.248031	-0.772572
N124	N	2.010328	0.251969	-0.272572
C125	C	1.518314	-0.303137	-0.740153
C126	C	2.018314	0.196863	-0.240153
N127	N	1.526327	-0.358229	-0.772546
N128	N	2.026327	0.141771	-0.272546
N129	N	1.526339	-0.358212	-0.835003
N130	N	2.026339	0.141788	-0.335003
C131	C	1.518338	-0.303107	-0.866943
C132	C	2.018338	0.196893	-0.366943
C133	C	1.585443	-0.343423	-0.635995
C134	C	2.085443	0.156577	-0.135995
C135	C	1.585417	-0.343444	-0.570251
C136	C	2.085417	0.156556	-0.070251
C137	C	1.451109	-0.262924	-0.570266
C138	C	1.951109	0.237076	-0.070266
C139	C	1.451129	-0.262909	-0.636008
C140	C	1.951129	0.237091	-0.136008
C141	C	1.518302	-0.303157	-0.668869
C142	C	2.018302	0.196843	-0.168869
C143	C	1.518204	-0.303229	-0.139679
C144	C	2.018204	0.196771	0.360321
C145	C	1.518387	-0.303066	-0.069711
C146	C	2.018387	0.196934	0.430289
H147	H	1.217769	-0.383877	-0.383584
H148	H	1.717769	0.116123	0.116416
H149	H	1.118231	-0.457018	-0.456486
H150	H	1.618231	0.042982	0.043514
H151	H	0.919160	-0.457030	-0.456504
H152	H	1.419160	0.042970	0.043496
H153	H	1.640137	-0.376197	-0.662752
H154	H	2.140137	0.123803	-0.162752
C155	C	0.788292	-0.383890	-0.383615
C156	C	1.288292	0.116110	0.116385
H157	H	0.763469	-0.413678	-0.413299
H158	H	1.263469	0.086322	0.086701
H159	H	0.763509	-0.343284	-0.394579
H160	H	1.263509	0.156716	0.105421
H161	H	0.763438	-0.394724	-0.342971
H162	H	1.263438	0.105276	0.157029
H163	H	1.396428	-0.230152	-0.543506
H164	H	1.896428	0.269848	-0.043506
C165	C	1.659379	-0.387633	-0.934928
C166	C	2.159379	0.112367	-0.434928
H167	H	1.699389	-0.411599	-0.963914
H168	H	2.199389	0.088401	-0.463914
H169	H	1.619162	-0.415066	-0.909270
H170	H	2.119162	0.084934	-0.409270
H171	H	1.705173	-0.363551	-0.909294
H172	H	2.205173	0.136449	-0.409294
H173	H	1.396123	-0.542886	-0.376188
H174	H	1.896123	-0.042886	0.123812
H175	H	1.640408	-1.062953	-0.230325
H176	H	2.140408	-0.562953	0.269675
H177	H	1.396198	-0.662158	-0.376201
H178	H	1.896198	-0.162158	0.123799
H179	H	0.819678	-0.222622	-0.222898
H180	H	1.319678	0.277378	0.277102
H181	H	1.640147	-0.662116	-0.230248
H182	H	2.140147	-0.162116	0.269752
H183	H	0.919219	-0.149472	-0.149993
H184	H	1.419219	0.350528	0.350007
C185	C	1.377343	-0.218536	-1.073014
C186	C	1.877343	0.281464	-0.573014
H187	H	1.386963	-0.224296	-1.116874
H188	H	1.886963	0.275704	-0.616874
H189	H	1.392739	-0.176241	-1.062256
H190	H	1.892739	0.323759	-0.562256
H191	H	1.306742	-0.227764	-1.062231
H192	H	1.806742	0.272236	-0.562231
C193	C	1.377238	-1.072383	-0.387770
C194	C	1.877238	-0.572383	0.112230
H195	H	1.337185	-1.043397	-0.411723
H196	H	1.837185	-0.543397	0.088277
H197	H	1.331503	-1.098073	-0.363673
H198	H	1.831503	-0.598073	0.136327
H199	H	1.417424	-1.097985	-0.415227
H200	H	1.917424	-0.597985	0.084773
C201	C	1.133967	-0.137939	-0.138493
C202	C	1.633967	0.362061	0.361507
H203	H	1.085581	-0.113934	-0.114567
H204	H	1.585581	0.386066	0.385433
H205	H	1.176807	-0.110546	-0.162624
H206	H	1.676807	0.389454	0.337376
H207	H	1.176732	-0.161979	-0.111010
H208	H	1.676732	0.338021	0.388990
H209	H	1.640090	-0.376235	-0.543487
H210	H	2.140090	0.123765	-0.043487
H211	H	1.640321	-0.943690	-0.230294
H212	H	2.140321	-0.443690	0.269706
C213	C	1.249155	-0.222602	-0.222862
C214	C	1.749155	0.277398	0.277138
H215	H	1.273981	-0.192818	-0.193175
H216	H	1.773981	0.307182	0.306825
H217	H	1.274007	-0.211777	-0.263504
H218	H	1.774007	0.288223	0.236496
H219	H	1.273935	-0.263210	-0.211890
H220	H	1.773935	0.236790	0.288110
C221	C	1.377147	-0.934336	-0.387737
C222	C	1.877147	-0.434336	0.112263
H223	H	1.337116	-0.963335	-0.411692
H224	H	1.837116	-0.463335	0.088308
H225	H	1.417286	-0.908648	-0.415182
H226	H	1.917286	-0.408648	0.084818
H227	H	1.331377	-0.908735	-0.363622
H228	H	1.831377	-0.408735	0.136378
C229	C	1.659404	-0.387607	-1.072981
C230	C	2.159404	0.112393	-0.572981
H231	H	1.699383	-0.411593	-1.043984
H232	H	2.199383	0.088407	-0.543984
H233	H	1.705211	-0.363528	-1.098641
H234	H	2.205211	0.136472	-0.598641
H235	H	1.619180	-0.415032	-1.098611
H236	H	2.119180	0.084968	-0.598611
H237	H	1.396522	-0.230060	-0.944344
H238	H	1.896522	0.269940	-0.444344
H239	H	1.640063	-0.542850	-0.230223
H240	H	2.140063	-0.042850	0.269777
C241	C	1.377280	-0.218615	-0.672170
C242	C	1.877280	0.281385	-0.172170
H243	H	1.337287	-0.194641	-0.643182
H244	H	1.837287	0.305359	-0.143182
H245	H	1.331485	-0.242686	-0.697808
H246	H	1.831485	0.257314	-0.197808
H247	H	1.417511	-0.191180	-0.697824
H248	H	1.917511	0.308820	-0.197824
