data_functionalizedCrystal
_audit_creation_method	'MofGen! by Chris Wilmer'
_symmetry_space_group_name_H-M	'P1'
_symmetry_Int_Tables_number	1
_symmetry_cell_setting	triclinic
loop_
_symmetry_equiv_pos_as_xyz
  x,y,z
_cell_length_a	10.967926
_cell_length_b	13.330367
_cell_length_c	14.853559
_cell_angle_alpha	89.997552
_cell_angle_beta	95.817112
_cell_angle_gamma	77.878309
loop_
_atom_site_label
_atom_site_type_symbol
_atom_site_fract_x
_atom_site_fract_y
_atom_site_fract_z
O1	O	1.655855	-0.202846	-0.126438
O2	O	1.292592	-0.140043	-0.138543
O3	O	1.483933	-0.173124	-0.001312
O4	O	1.464515	-0.169765	-0.263670
O5	O	1.483905	-0.339966	-0.001308
O6	O	1.292564	-0.306886	-0.138540
O7	O	1.655828	-0.369688	-0.126435
Cu8	Cu	1.474193	-0.353521	-0.132487
Cu9	Cu	1.474226	-0.156210	-0.132491
O10	O	1.464487	-0.336607	-0.263667
C11	C	1.246089	-0.215427	-0.137661
C12	C	1.107566	-0.191479	-0.135027
N13	N	1.474179	-0.492300	-0.132484
C14	C	1.045794	-0.267231	-0.133851
C15	C	0.902623	-0.242481	-0.131128
C16	C	1.389497	-0.950282	-0.193233
C17	C	1.558989	-0.979553	-0.071742
C18	C	1.558975	-0.874533	-0.071739
C19	C	1.474222	-0.807382	-0.132485
C20	C	1.389483	-0.845252	-0.193234
C21	C	1.643721	-0.836656	-0.010998
C22	C	1.643711	-0.731630	-0.010993
C23	C	1.558951	-0.664476	-0.071735
C24	C	1.474208	-0.702351	-0.132486
C25	C	1.389454	-0.635200	-0.193232
C26	C	1.304704	-0.673073	-0.253979
C27	C	1.304723	-0.778097	-0.253976
C28	C	1.558933	-0.559451	-0.071738
C29	C	1.389440	-0.530170	-0.193233
C30	C	1.702331	-0.294302	-0.127317
C31	C	1.840854	-0.318244	-0.129952
C32	C	1.483041	-0.256391	0.032283
C33	C	1.480410	-0.255931	0.132381
N34	N	1.474250	-0.017433	-0.132487
C35	C	1.465379	-0.253337	-0.297262
C36	C	1.468010	-0.253791	-0.397360
C37	C	1.469264	-0.163056	0.555614
C38	C	1.469234	-0.344954	0.555612
C39	C	1.471716	-0.345384	0.461565
C40	C	1.472971	-0.254648	0.414539
C41	C	1.471743	-0.163482	0.461558
C42	C	1.472931	-0.436545	0.414538
C43	C	1.475412	-0.436979	0.320485
C44	C	1.476676	-0.346244	0.273458
C45	C	1.475449	-0.255074	0.320483
C46	C	1.476704	-0.164339	0.273456
C47	C	1.475486	-0.073170	0.320481
C48	C	1.473006	-0.072747	0.414530
C49	C	1.479155	-0.346667	0.179408
C50	C	1.479182	-0.164765	0.179401
H51	H	0.849520	-0.159298	-0.130117
N52	N	1.650397	-1.051985	-0.006235
H53	H	1.602655	-1.087319	0.033994
H54	H	1.704058	-1.011995	0.032191
N55	N	1.735113	-0.690784	0.054523
H56	H	1.788805	-0.749261	0.093004
H57	H	1.687271	-0.638954	0.094697
H58	H	1.235723	-0.808940	-0.303435
N59	N	1.298016	-0.457743	-0.258746
H60	H	1.244334	-0.497674	-0.297223
H61	H	1.345837	-0.422426	-0.298923
H62	H	1.472014	0.001478	0.452826
H63	H	1.480118	-0.420890	0.141123
N64	N	1.476815	0.024673	0.269716
H65	H	1.553675	0.051173	0.292881
H66	H	1.399043	0.077800	0.279253
N67	N	1.037224	-0.081300	-0.133690
H68	H	1.049795	-0.043685	-0.189910
H69	H	1.069872	-0.047238	-0.078295
N70	N	1.213292	-0.600647	-0.319500
H71	H	1.261035	-0.565320	-0.359733
H72	H	1.158014	-0.547583	-0.284616
N73	N	1.298084	-0.991120	-0.258746
H74	H	1.310944	-1.067841	-0.249529
H75	H	1.312596	-0.975268	-0.322800
H76	H	1.098902	-0.350408	-0.134854
N77	N	1.476734	-0.535305	0.269770
H78	H	1.475564	-0.592720	0.313834
H79	H	1.555059	-0.552804	0.237587
N80	N	1.735121	-0.909095	0.054509
H81	H	1.687369	-0.944419	0.094738
H82	H	1.788795	-0.869115	0.092934
H83	H	1.627941	-0.528621	-0.022283
H84	H	1.480210	-0.090877	0.141119
H85	H	1.468278	-0.088829	0.593905
H86	H	0.893955	-0.401427	-0.130957
H87	H	1.468204	-0.418825	0.593906
H88	H	1.471903	-0.510416	0.452833
