data_functionalizedCrystal
_audit_creation_method	'MofGen! by Chris Wilmer'
_symmetry_space_group_name_H-M	'P1'
_symmetry_Int_Tables_number	1
_symmetry_cell_setting	triclinic
loop_
_symmetry_equiv_pos_as_xyz
  x,y,z
_cell_length_a	12.759395
_cell_length_b	12.594516
_cell_length_c	12.759387
_cell_angle_alpha	89.971510
_cell_angle_beta	89.980569
_cell_angle_gamma	90.015898
loop_
_atom_site_label
_atom_site_type_symbol
_atom_site_fract_x
_atom_site_fract_y
_atom_site_fract_z
Zn1	Zn	1.606259	-0.423690	-0.593992
Zn2	Zn	1.606145	-0.601708	-0.418319
Zn3	Zn	1.430557	-0.423743	-0.418332
Zn4	Zn	1.430545	-0.601627	-0.593962
O5	O	1.518377	-0.512692	-0.506151
O6	O	1.753265	-0.447317	-0.570696
O7	O	1.582811	-0.578156	-0.271300
O8	O	1.453917	-0.274790	-0.441651
O9	O	1.753181	-0.578105	-0.441630
O10	O	1.583004	-0.274752	-0.570708
O11	O	1.453807	-0.447407	-0.271309
O12	O	1.283534	-0.447328	-0.441622
O13	O	1.453897	-0.577967	-0.740987
O14	O	1.283526	-0.578018	-0.570657
O15	O	1.582993	-0.447238	-0.741009
O16	O	1.582799	-0.750643	-0.441601
O17	O	1.453786	-0.750583	-0.570644
C18	C	1.245409	-0.512671	-0.506138
C19	C	1.128632	-0.512687	-0.506158
C20	C	1.128700	-0.376717	-0.640771
C21	C	1.073873	-0.308745	-0.708086
C22	C	0.964151	-0.308764	-0.708099
C23	C	0.909254	-0.376760	-0.640788
C24	C	0.964081	-0.444732	-0.573473
C25	C	1.073805	-0.444708	-0.573469
C26	C	0.964014	-0.580695	-0.438855
C27	C	1.073735	-0.580684	-0.438846
C28	C	0.909117	-0.648692	-0.371544
C29	C	0.963944	-0.716671	-0.304232
C30	C	1.073672	-0.716650	-0.304223
C31	C	1.128562	-0.648656	-0.371531
C32	C	1.518308	-0.789233	-0.506141
C33	C	1.518374	-0.907538	-0.506172
C34	C	1.448198	-0.976798	-0.576309
C35	C	1.422596	-1.047667	-0.480443
C36	C	1.544072	-1.047468	-0.602054
C37	C	1.492722	-0.976849	-0.410254
C38	C	1.614242	-0.976644	-0.531931
C39	C	1.588677	-1.047482	-0.435998
C40	C	1.792410	-0.512714	-0.506165
C41	C	1.909187	-0.512723	-0.506171
C42	C	1.518456	-0.512588	-0.780185
C43	C	1.518490	-0.512543	-0.896962
C44	C	1.518474	-0.235071	-0.506184
C45	C	1.518516	-0.116766	-0.506199
C46	C	1.652927	-0.376424	-0.897004
C47	C	1.720160	-0.308348	-0.951886
C48	C	1.720185	-0.308310	-1.061608
C49	C	1.652968	-0.376351	-1.116450
C50	C	1.585735	-0.444427	-1.061568
C51	C	1.585719	-0.444461	-0.951844
C52	C	1.451295	-0.580539	-1.061525
C53	C	1.451273	-0.580585	-0.951803
C54	C	1.384078	-0.648581	-1.116367
C55	C	1.316848	-0.716664	-1.061485
C56	C	1.316826	-0.716701	-0.951757
C57	C	1.384040	-0.648661	-0.896921
C58	C	1.518358	-0.512719	-0.233184
C59	C	1.518528	-0.512464	-0.116407
H60	H	1.118582	-0.253382	-0.762888
H61	H	1.648084	-1.078322	-0.376628
H62	H	1.388745	-0.945761	-0.635536
F63	F	1.652990	-0.376298	-1.233226
F64	F	0.905799	-0.236415	-0.779737
F65	F	1.720102	-0.935838	-0.560439
H66	H	1.384099	-0.648541	-1.205708
F67	F	1.791673	-0.235917	-0.893513
F68	F	0.792478	-0.376765	-0.640793
F69	F	1.245261	-0.789152	-0.893355
H70	H	1.262120	-0.772052	-1.106146
H71	H	1.774926	-0.252870	-1.106293
H72	H	1.218041	-0.376690	-0.640762
F73	F	1.464268	-0.936475	-0.304251
H74	H	0.819775	-0.648699	-0.371556
H75	H	0.919238	-0.772023	-0.249429
F76	F	1.245338	-0.648632	-0.371531
H77	H	1.341588	-1.078887	-0.458677
H78	H	1.118306	-0.771998	-0.249403
H79	H	1.565749	-1.078489	-0.683131
F80	F	1.652918	-0.376473	-0.780228
F81	F	1.384027	-0.648699	-0.780145
