data_functionalizedCrystal
_audit_creation_method	'MofGen! by Chris Wilmer'
_symmetry_space_group_name_H-M	'P1'
_symmetry_Int_Tables_number	1
_symmetry_cell_setting	triclinic
loop_
_symmetry_equiv_pos_as_xyz
  x,y,z
_cell_length_a	21.295418
_cell_length_b	21.295417
_cell_length_c	21.295411
_cell_angle_alpha	89.979403
_cell_angle_beta	89.956262
_cell_angle_gamma	90.045515
loop_
_atom_site_label
_atom_site_type_symbol
_atom_site_fract_x
_atom_site_fract_y
_atom_site_fract_z
Zn1	Zn	0.962359	-0.250415	-0.356238
Zn2	Zn	1.212359	-0.000415	-0.106238
Zn3	Zn	1.462359	0.249585	0.143762
Zn4	Zn	1.712359	0.499585	0.393762
Zn5	Zn	0.962263	-0.355667	-0.250965
Zn6	Zn	1.212263	-0.105667	-0.000965
Zn7	Zn	1.462263	0.144333	0.249035
Zn8	Zn	1.712263	0.394333	0.499035
Zn9	Zn	0.857082	-0.250445	-0.250948
Zn10	Zn	1.107082	-0.000445	-0.000948
Zn11	Zn	1.357082	0.249555	0.249052
Zn12	Zn	1.607082	0.499555	0.499052
Zn13	Zn	0.857053	-0.355680	-0.356162
Zn14	Zn	1.107053	-0.105680	-0.106162
Zn15	Zn	1.357053	0.144320	0.143838
Zn16	Zn	1.607053	0.394320	0.393838
O17	O	0.909690	-0.303052	-0.303578
O18	O	1.159690	-0.053052	-0.053578
O19	O	1.409690	0.196948	0.196422
O20	O	1.659690	0.446948	0.446422
O21	O	1.050436	-0.264360	-0.342313
O22	O	1.300436	-0.014360	-0.092313
O23	O	1.550436	0.235640	0.157687
O24	O	1.800436	0.485640	0.407687
O25	O	0.948283	-0.341716	-0.162874
O26	O	1.198283	-0.091716	0.087126
O27	O	1.448283	0.158284	0.337126
O28	O	1.698283	0.408284	0.587126
O29	O	0.871100	-0.162351	-0.264940
O30	O	1.121100	0.087649	-0.014940
O31	O	1.371100	0.337649	0.235060
O32	O	1.621100	0.587649	0.485060
O33	O	1.050365	-0.341688	-0.264969
O34	O	1.300365	-0.091688	-0.014969
O35	O	1.550365	0.158312	0.235031
O36	O	1.800365	0.408312	0.485031
O37	O	0.948447	-0.162330	-0.342296
O38	O	1.198447	0.087670	-0.092296
O39	O	1.448447	0.337670	0.157704
O40	O	1.698447	0.587670	0.407704
O41	O	0.871007	-0.264410	-0.162861
O42	O	1.121007	-0.014410	0.087139
O43	O	1.371007	0.235590	0.337139
O44	O	1.621007	0.485590	0.587139
O45	O	0.768989	-0.264422	-0.264866
O46	O	1.018989	-0.014422	-0.014866
O47	O	1.268989	0.235578	0.235134
O48	O	1.518989	0.485578	0.485134
O49	O	0.871050	-0.341709	-0.444262
O50	O	1.121050	-0.091709	-0.194262
O51	O	1.371050	0.158291	0.055738
O52	O	1.621050	0.408291	0.305738
O53	O	0.768968	-0.341738	-0.342166
O54	O	1.018968	-0.091738	-0.092166
O55	O	1.268968	0.158262	0.157834
O56	O	1.518968	0.408262	0.407834
O57	O	0.948418	-0.264372	-0.444318
O58	O	1.198418	-0.014372	-0.194318
O59	O	1.448418	0.235628	0.055682
O60	O	1.698418	0.485628	0.305682
O61	O	0.948254	-0.443758	-0.264895
O62	O	1.198254	-0.193758	-0.014895
O63	O	1.448254	0.056242	0.235105
O64	O	1.698254	0.306242	0.485105
O65	O	0.870957	-0.443767	-0.342183
O66	O	1.120957	-0.193767	-0.092183
O67	O	1.370957	0.056233	0.157817
O68	O	1.620957	0.306233	0.407817
C69	C	0.746138	-0.303085	-0.303506
C70	C	0.996138	-0.053085	-0.053506
C71	C	1.246138	0.196915	0.196494
C72	C	1.496138	0.446915	0.446494
C73	C	0.676170	-0.303114	-0.303490
C74	C	0.926170	-0.053114	-0.053490
C75	C	1.176170	0.196886	0.196510
C76	C	1.426170	0.446886	0.446510
C77	C	0.643308	-0.343426	-0.343680
C78	C	0.893308	-0.093426	-0.093680
C79	C	1.143308	0.156574	0.156320
C80	C	1.393308	0.406574	0.406320
C81	C	0.577566	-0.343410	-0.343708
C82	C	0.827566	-0.093410	-0.093708
C83	C	1.077566	0.156590	0.156292
C84	C	1.327566	0.406590	0.406292
C85	C	0.544687	-0.303090	-0.303535
C86	C	0.794687	-0.053090	-0.053535
C87	C	1.044687	0.196910	0.196465
C88	C	1.294687	0.446910	0.446465
C89	C	0.577557	-0.262770	-0.263342
C90	C	0.827557	-0.012770	-0.013342
C91	C	1.077557	0.237230	0.236658
C92	C	1.327557	0.487230	0.486658
C93	C	0.643298	-0.262783	-0.263320
C94	C	0.893298	-0.012783	-0.013320
C95	C	1.143298	0.237217	0.236680
C96	C	1.393298	0.487217	0.486680
N97	N	0.441411	-0.298163	-0.248477
N98	N	0.691411	-0.048163	0.001523
N99	N	0.941411	0.201837	0.251523
N100	N	1.191411	0.451837	0.501523
N101	N	0.378960	-0.298155	-0.248501
N102	N	0.628960	-0.048155	0.001499
N103	N	0.878960	0.201845	0.251499
N104	N	1.128960	0.451845	0.501499
C105	C	0.346613	-0.303050	-0.303602
C106	C	0.596613	-0.053050	-0.053602
C107	C	0.846613	0.196950	0.196398
C108	C	1.096613	0.446950	0.446398
N109	N	0.379076	-0.307965	-0.358680
N110	N	0.629076	-0.057965	-0.108680
N111	N	0.879076	0.192035	0.141320
N112	N	1.129076	0.442035	0.391320
N113	N	0.441533	-0.307976	-0.358656
N114	N	0.691533	-0.057976	-0.108656
N115	N	0.941533	0.192024	0.141344
N116	N	1.191533	0.442024	0.391344
C117	C	0.473402	-0.303072	-0.303556
C118	C	0.723402	-0.053072	-0.053556
C119	C	0.973402	0.196928	0.196444
C120	C	1.223402	0.446928	0.446444
C121	C	0.242466	-0.343346	-0.343826
C122	C	0.492466	-0.093346	-0.093826
C123	C	0.742466	0.156654	0.156174
C124	C	0.992466	0.406654	0.406174
C125	C	0.176722	-0.343326	-0.343855
C126	C	0.426722	-0.093326	-0.093855
C127	C	0.676722	0.156674	0.156145
C128	C	0.926722	0.406674	0.406145
C129	C	0.176714	-0.262690	-0.263484
C130	C	0.426714	-0.012690	-0.013484
C131	C	0.676714	0.237310	0.236516
C132	C	0.926714	0.487310	0.486516
C133	C	0.242456	-0.262707	-0.263460
C134	C	0.492456	-0.012707	-0.013460
C135	C	0.742456	0.237293	0.236540
C136	C	0.992456	0.487293	0.486540
C137	C	0.275328	-0.303038	-0.303630
C138	C	0.525328	-0.053038	-0.053630
C139	C	0.775328	0.196962	0.196370
C140	C	1.025328	0.446962	0.446370
C141	C	0.909609	-0.466603	-0.303547
C142	C	1.159609	-0.216603	-0.053547
C143	C	1.409609	0.033397	0.196453
C144	C	1.659609	0.283397	0.446453
C145	C	0.909633	-0.536571	-0.303554
C146	C	1.159633	-0.286571	-0.053554
C147	C	1.409633	-0.036571	0.196446
C148	C	1.659633	0.213429	0.446446
C149	C	0.949884	-0.569370	-0.343862
C150	C	1.199884	-0.319370	-0.093862
C151	C	1.449884	-0.069370	0.156138
C152	C	1.699884	0.180630	0.406138
C153	C	0.949906	-0.635112	-0.343878
C154	C	1.199906	-0.385112	-0.093878
C155	C	1.449906	-0.135112	0.156122
C156	C	1.699906	0.114888	0.406122
C157	C	0.909684	-0.668054	-0.303574
C158	C	1.159684	-0.418054	-0.053574
C159	C	1.409684	-0.168054	0.196426
C160	C	1.659684	0.081946	0.446426
C161	C	0.869425	-0.635248	-0.263263
C162	C	1.119425	-0.385248	-0.013263
C163	C	1.369425	-0.135248	0.236737
C164	C	1.619425	0.114752	0.486737
C165	C	0.869399	-0.569507	-0.263253
C166	C	1.119399	-0.319507	-0.013253
C167	C	1.369399	-0.069507	0.236747
C168	C	1.619399	0.180493	0.486747
N169	N	0.904924	-0.771307	-0.248481
N170	N	1.154924	-0.521307	0.001519
N171	N	1.404924	-0.271307	0.251519
N172	N	1.654924	-0.021307	0.501519
N173	N	0.904952	-0.833759	-0.248492
N174	N	1.154952	-0.583759	0.001508
N175	N	1.404952	-0.333759	0.251508
N176	N	1.654952	-0.083759	0.501508
C177	C	0.909757	-0.866129	-0.303602
C178	C	1.159757	-0.616129	-0.053602
C179	C	1.409757	-0.366129	0.196398
C180	C	1.659757	-0.116129	0.446398
N181	N	0.914546	-0.833687	-0.358702
N182	N	1.164546	-0.583687	-0.108702
N183	N	1.414546	-0.333687	0.141298
N184	N	1.664546	-0.083687	0.391298
N185	N	0.914521	-0.771230	-0.358690
N186	N	1.164521	-0.521230	-0.108690
N187	N	1.414521	-0.271230	0.141310
N188	N	1.664521	-0.021230	0.391310
C189	C	0.909707	-0.739339	-0.303580
C190	C	1.159707	-0.489339	-0.053580
C191	C	1.409707	-0.239339	0.196420
C192	C	1.659707	0.010661	0.446420
C193	C	0.950035	-0.970212	-0.343931
C194	C	1.200035	-0.720212	-0.093931
C195	C	1.450035	-0.470212	0.156069
C196	C	1.700035	-0.220212	0.406069
C197	C	0.950052	-1.035956	-0.343947
C198	C	1.200052	-0.785956	-0.093947
C199	C	1.450052	-0.535956	0.156053
C200	C	1.700052	-0.285956	0.406053
C201	C	0.869574	-1.036090	-0.263327
C202	C	1.119574	-0.786090	-0.013327
C203	C	1.369574	-0.536090	0.236673
C204	C	1.619574	-0.286090	0.486673
C205	C	0.869553	-0.970348	-0.263316
C206	C	1.119553	-0.720348	-0.013316
C207	C	1.369553	-0.470348	0.236684
C208	C	1.619553	-0.220348	0.486684
C209	C	0.909787	-0.937413	-0.303617
C210	C	1.159787	-0.687413	-0.053617
C211	C	1.409787	-0.437413	0.196383
C212	C	1.659787	-0.187413	0.446383
C213	C	1.073880	-0.303019	-0.303652
C214	C	1.323880	-0.053019	-0.053652
C215	C	1.573880	0.196981	0.196348
C216	C	1.823880	0.446981	0.446348
C217	C	1.143848	-0.303005	-0.303683
C218	C	1.393848	-0.053005	-0.053683
C219	C	1.643848	0.196995	0.196317
C220	C	1.893848	0.446995	0.446317
C221	C	0.909742	-0.303038	-0.467769
C222	C	1.159742	-0.053038	-0.217769
C223	C	1.409742	0.196962	0.032231
C224	C	1.659742	0.446962	0.282231
C225	C	0.909764	-0.303033	-0.537737
C226	C	1.159764	-0.053033	-0.287737
C227	C	1.409764	0.196967	-0.037737
C228	C	1.659764	0.446967	0.212263
C229	C	0.909787	-0.138861	-0.303624
C230	C	1.159787	0.111139	-0.053624
C231	C	1.409787	0.361139	0.196376
C232	C	1.659787	0.611139	0.446376
C233	C	0.909829	-0.068893	-0.303644
C234	C	1.159829	0.181107	-0.053644
C235	C	1.409829	0.431107	0.196356
C236	C	1.659829	0.681107	0.446356
C237	C	0.950048	-0.262761	-0.570634
C238	C	1.200048	-0.012761	-0.320634
C239	C	1.450048	0.237239	-0.070634
C240	C	1.700048	0.487239	0.179366
C241	C	0.950047	-0.262734	-0.636376
C242	C	1.200047	-0.012734	-0.386376
C243	C	1.450047	0.237266	-0.136376
C244	C	1.700047	0.487266	0.113624
C245	C	0.909769	-0.302989	-0.669219
C246	C	1.159769	-0.052989	-0.419219
C247	C	1.409769	0.197011	-0.169219
C248	C	1.659769	0.447011	0.080781
C249	C	0.869477	-0.343263	-0.636315
C250	C	1.119477	-0.093263	-0.386315
C251	C	1.369477	0.156737	-0.136315
C252	C	1.619477	0.406737	0.113685
C253	C	0.869475	-0.343285	-0.570573
C254	C	1.119475	-0.093285	-0.320573
C255	C	1.369475	0.156715	-0.070573
C256	C	1.619475	0.406715	0.179427
N257	N	0.904913	-0.358058	-0.772434
N258	N	1.154913	-0.108058	-0.522434
N259	N	1.404913	0.141942	-0.272434
N260	N	1.654913	0.391942	-0.022434
N261	N	0.904919	-0.358036	-0.834886
N262	N	1.154919	-0.108036	-0.584886
N263	N	1.404919	0.141964	-0.334886
N264	N	1.654919	0.391964	-0.084886
C265	C	0.909773	-0.302926	-0.867294
C266	C	1.159773	-0.052926	-0.617294
C267	C	1.409773	0.197074	-0.367294
C268	C	1.659773	0.447074	-0.117294
N269	N	0.914633	-0.247837	-0.834892
N270	N	1.164633	0.002163	-0.584892
N271	N	1.414633	0.252163	-0.334892
N272	N	1.664633	0.502163	-0.084892
N273	N	0.914630	-0.247860	-0.772435
N274	N	1.164630	0.002140	-0.522435
N275	N	1.414630	0.252140	-0.272435
N276	N	1.664630	0.502140	-0.022435
C277	C	0.909767	-0.302970	-0.740505
C278	C	1.159767	-0.052970	-0.490505
C279	C	1.409767	0.197030	-0.240505
C280	C	1.659767	0.447030	0.009495
C281	C	0.950058	-0.262621	-0.971477
C282	C	1.200058	-0.012621	-0.721477
C283	C	1.450058	0.237379	-0.471477
C284	C	1.700058	0.487379	-0.221477
C285	C	0.950053	-0.262593	-1.037220
C286	C	1.200053	-0.012593	-0.787220
C287	C	1.450053	0.237407	-0.537220
C288	C	1.700053	0.487407	-0.287220
C289	C	0.869486	-0.343128	-1.037158
C290	C	1.119486	-0.093128	-0.787158
C291	C	1.369486	0.156872	-0.537158
C292	C	1.619486	0.406872	-0.287158
C293	C	0.869488	-0.343151	-0.971415
C294	C	1.119488	-0.093151	-0.721415
C295	C	1.369488	0.156849	-0.471415
C296	C	1.619488	0.406849	-0.221415
C297	C	0.909777	-0.302898	-0.938579
C298	C	1.159777	-0.052898	-0.688579
C299	C	1.409777	0.197102	-0.438579
C300	C	1.659777	0.447102	-0.188579
C301	C	0.909674	-0.303019	-0.140027
C302	C	1.159674	-0.053019	0.109973
C303	C	1.409674	0.196981	0.359973
C304	C	1.659674	0.446981	0.609973
C305	C	0.909774	-0.302848	-0.070059
C306	C	1.159774	-0.052848	0.179941
C307	C	1.409774	0.197152	0.429941
C308	C	1.659774	0.447152	0.679941
H309	H	0.269212	-0.229884	-0.230730
H310	H	0.519212	0.020116	0.019270
H311	H	0.769212	0.270116	0.269270
H312	H	1.019212	0.520116	0.519270
H313	H	0.836621	-0.542802	-0.230429
H314	H	1.086621	-0.292802	0.019571
H315	H	1.336621	-0.042802	0.269571
H316	H	1.586621	0.207198	0.519571
F317	F	0.826614	-0.670308	-0.220372
F318	F	1.076614	-0.420308	0.029628
F319	F	1.326614	-0.170308	0.279628
F320	F	1.576614	0.079692	0.529628
F321	F	0.992914	-0.219860	-0.671395
F322	F	1.242914	0.030140	-0.421395
F323	F	1.492914	0.280140	-0.171395
F324	F	1.742914	0.530140	0.078605
H325	H	0.670053	-0.229954	-0.230592
H326	H	0.920053	0.020046	0.019408
H327	H	1.170053	0.270046	0.269408
H328	H	1.420053	0.520046	0.519408
F329	F	0.992852	-0.935158	-0.386824
F330	F	1.242852	-0.685158	-0.136824
F331	F	1.492852	-0.435158	0.113176
F332	F	1.742852	-0.185158	0.363176
F333	F	0.141749	-0.386231	-0.386637
F334	F	0.391749	-0.136231	-0.136637
F335	F	0.641749	0.113769	0.113363
F336	F	0.891749	0.363769	0.363363
F337	F	0.992889	-1.070862	-0.386858
F338	F	1.242889	-0.820862	-0.136858
F339	F	1.492889	-0.570862	0.113142
F340	F	1.742889	-0.320862	0.363142
H341	H	0.982643	-0.542556	-0.376679
H342	H	1.232643	-0.292556	-0.126679
H343	H	1.482643	-0.042556	0.123321
H344	H	1.732643	0.207444	0.373321
H345	H	0.149945	-0.229857	-0.230777
H346	H	0.399945	0.020143	0.019223
H347	H	0.649945	0.270143	0.269223
H348	H	0.899945	0.520143	0.519223
F349	F	0.826614	-0.385966	-1.072107
F350	F	1.076614	-0.135966	-0.822107
F351	F	1.326614	0.114034	-0.572107
F352	F	1.576614	0.364034	-0.322107
F353	F	0.826609	-0.386104	-0.671270
F354	F	1.076609	-0.136104	-0.421270
F355	F	1.326609	0.113896	-0.171270
F356	F	1.576609	0.363896	0.078730
H357	H	0.982678	-0.661822	-0.376709
H358	H	1.232678	-0.411822	-0.126709
H359	H	1.482678	-0.161822	0.123291
H360	H	1.732678	0.088178	0.373291
H361	H	0.836820	-1.062911	-0.230515
H362	H	1.086820	-0.812911	0.019485
H363	H	1.336820	-0.562911	0.269485
H364	H	1.586820	-0.312911	0.519485
F365	F	0.277453	-0.386267	-0.386581
F366	F	0.527453	-0.136267	-0.136581
F367	F	0.777453	0.113733	0.113419
F368	F	1.027453	0.363733	0.363419
H369	H	0.836779	-0.943642	-0.230490
H370	H	1.086779	-0.693642	0.019510
H371	H	1.336779	-0.443642	0.269510
H372	H	1.586779	-0.193642	0.519510
H373	H	0.836689	-0.375948	-0.944630
H374	H	1.086689	-0.125948	-0.694630
H375	H	1.336689	0.124052	-0.444630
H376	H	1.586689	0.374052	-0.194630
F377	F	0.826598	-0.386149	-0.535561
F378	F	1.076598	-0.136149	-0.285561
F379	F	1.326598	0.113851	-0.035561
F380	F	1.576598	0.363851	0.214439
H381	H	0.982854	-0.229984	-0.543902
H382	H	1.232854	0.020016	-0.293902
H383	H	1.482854	0.270016	-0.043902
H384	H	1.732854	0.520016	0.206098
H385	H	0.982860	-0.229842	-0.944740
H386	H	1.232860	0.020158	-0.694740
H387	H	1.482860	0.270158	-0.444740
H388	H	1.732860	0.520158	-0.194740
H389	H	0.982855	-0.229795	-1.064004
H390	H	1.232855	0.020205	-0.814004
H391	H	1.482855	0.270205	-0.564004
H392	H	1.732855	0.520205	-0.314004
H393	H	0.550805	-0.376236	-0.376438
H394	H	0.800805	-0.126236	-0.126438
H395	H	1.050805	0.123764	0.123562
H396	H	1.300805	0.373764	0.373562
F397	F	0.542564	-0.219856	-0.220590
F398	F	0.792564	0.030144	0.029410
F399	F	1.042564	0.280144	0.279410
F400	F	1.292564	0.530144	0.529410
F401	F	0.678289	-0.386348	-0.386435
F402	F	0.928289	-0.136348	-0.136435
F403	F	1.178289	0.113652	0.113565
F404	F	1.428289	0.363652	0.363565
