data_functionalizedCrystal
_audit_creation_method	'MofGen! by Chris Wilmer'
_symmetry_space_group_name_H-M	'P1'
_symmetry_Int_Tables_number	1
_symmetry_cell_setting	triclinic
loop_
_symmetry_equiv_pos_as_xyz
  x,y,z
_cell_length_a	27.440280
_cell_length_b	12.970454
_cell_length_c	12.970454
_cell_angle_alpha	59.999776
_cell_angle_beta	90.003573
_cell_angle_gamma	59.998424
loop_
_atom_site_label
_atom_site_type_symbol
_atom_site_fract_x
_atom_site_fract_y
_atom_site_fract_z
Zr1	Zr	0.469502	1.128404	-0.135181
O2	O	0.391684	1.343513	-0.299826
O3	O	0.493357	0.913307	-0.084707
O4	O	0.493358	1.128397	-0.299798
O5	O	0.391682	1.128424	0.084931
O6	O	0.573561	1.128377	-0.299777
O7	O	0.391683	1.128423	-0.084735
O8	O	0.573560	0.743621	0.084981
O9	O	0.391684	1.513180	-0.299827
O10	O	0.563386	1.001760	-0.063166
O11	O	0.503531	1.001776	0.063438
O12	O	0.503532	1.255016	-0.189803
O13	O	0.443677	1.255031	-0.063199
Zr14	Zr	0.597415	1.128374	0.135452
Zr15	Zr	0.597416	1.128372	-0.135147
Zr16	Zr	0.469501	1.128405	0.135418
Zr17	Zr	0.469502	1.399004	-0.135182
Zr18	Zr	0.597415	0.857774	0.135453
O19	O	0.573560	1.343470	0.084978
O20	O	0.573561	1.343468	-0.299778
O21	O	0.391682	1.343515	0.084930
O22	O	0.675234	0.913264	0.300097
O23	O	0.675235	0.913262	-0.084659
O24	O	0.493356	0.913309	0.300049
O25	O	0.675235	1.128353	-0.084660
O26	O	0.573559	1.128380	0.300069
O27	O	0.493356	1.128400	0.300048
O28	O	0.675234	1.128354	0.085006
O29	O	0.493358	1.513155	-0.299800
O30	O	0.573559	0.743622	0.300071
O31	O	0.675234	0.743597	0.300098
O32	O	0.675234	0.743596	0.085008
O33	O	0.391683	1.513182	-0.084737
O34	O	0.493358	1.513156	-0.084710
O35	O	0.563385	1.001761	0.190075
O36	O	0.623240	1.001746	0.063470
O37	O	0.563386	1.255002	-0.063167
O38	O	0.503531	1.255017	0.063437
C39	C	0.533459	0.789909	0.000137
C40	C	0.533459	0.675033	0.000138
C41	C	0.373457	1.128428	0.000093
C42	C	0.319155	1.128442	0.000079
C43	C	0.013700	0.996168	0.066274
C44	C	-0.037318	0.996160	0.066285
O45	O	-0.037135	0.883731	0.122542
N46	N	-0.094078	1.128355	0.000180
C47	C	-0.099819	1.260567	-0.065929
O48	O	-0.152782	1.373009	-0.122154
C49	C	-0.048801	1.260574	-0.065932
C50	C	0.007958	1.128370	0.000166
C51	C	0.070457	0.863974	0.132368
C52	C	0.121472	0.863983	0.132355
C53	C	0.115730	0.996185	0.066247
C54	C	0.058973	1.128378	0.000153
C55	C	-0.054543	1.392784	-0.132034
C56	C	-0.003518	1.392780	-0.132030
C57	C	0.053241	1.260575	-0.065932
C58	C	0.104246	1.260589	-0.065968
N59	N	0.161006	1.128393	0.000136
C60	C	0.166748	0.996191	0.066244
C61	C	-0.206958	1.260543	-0.065916
C62	C	-0.257975	1.260539	-0.065921
C63	C	-0.195471	0.996130	0.066295
C64	C	-0.144453	0.996137	0.066292
C65	C	-0.150198	1.128348	0.000189
C66	C	0.273880	0.996219	0.066210
C67	C	0.324897	0.996240	0.066187
C68	C	0.262388	1.260647	-0.066024
C69	C	0.211376	1.260628	-0.066007
C70	C	0.217126	1.128402	0.000120
O71	O	0.104109	1.372960	-0.122192
O72	O	0.219713	0.883768	0.122473
C73	C	0.693460	1.128349	0.000178
C74	C	0.747763	1.128336	0.000192
C75	C	0.533460	1.128387	-0.338342
C76	C	0.533460	1.128386	-0.453218
C77	C	0.533459	1.466868	0.000134
C78	C	0.533459	1.581745	0.000133
C79	C	0.533457	1.128390	0.338613
C80	C	0.533457	1.128391	0.453489
C81	C	0.693460	0.789870	0.000180
C82	C	0.747763	0.674980	0.000195
C83	C	0.533457	0.789911	0.338615
C84	C	0.533457	0.675035	0.453492
C85	C	0.693459	0.789872	0.338657
C86	C	0.747761	0.674982	0.453548
C87	C	0.373459	1.466906	-0.338386
C88	C	0.319156	1.581795	-0.453277
C89	C	0.373458	1.466908	0.000091
C90	C	0.319155	1.581798	0.000077
C91	C	0.533460	1.466866	-0.338344
C92	C	0.533460	1.581742	-0.453220
C93	C	0.742021	0.621033	-0.065912
C94	C	0.793039	0.513097	-0.065924
C95	C	0.849799	0.459101	0.000180
C96	C	0.855540	0.513058	0.066289
C97	C	0.804522	0.621000	0.066293
C98	C	0.804511	0.621021	0.441416
C99	C	0.855539	0.513085	0.549358
C100	C	0.849816	0.459105	0.669431
C101	C	0.793060	0.513077	0.681561
C102	C	0.742033	0.621018	0.573620
C103	C	0.262406	1.635770	-0.441145
C104	C	0.211378	1.743739	-0.549087
C105	C	0.217102	1.797725	-0.669160
C106	C	0.273858	1.743746	-0.681290
C107	C	0.324884	1.635786	-0.573349
C108	C	0.324897	1.635755	0.066172
C109	C	0.273878	1.743722	0.066154
C110	C	0.217118	1.797721	0.000046
C111	C	0.211377	1.743759	-0.066058
C112	C	0.262395	1.635802	-0.066046
H113	H	0.371112	0.888579	0.120016
H114	H	0.695809	0.664996	-0.119758
H115	H	0.165170	1.787671	-0.539186
H116	H	0.278571	0.888549	0.120058
O117	O	0.686952	0.673213	0.585640
C118	C	0.692850	0.602434	0.714769
H119	H	0.738387	0.493035	0.772324
H120	H	0.688666	0.673224	0.746571
C121	C	0.587503	0.711641	0.664424
C122	C	0.643431	0.577269	0.735114
H123	H	0.557018	0.696123	0.676975
H124	H	0.583529	0.759331	0.577427
H125	H	0.584025	0.770619	0.690934
H126	H	0.646912	0.518301	0.708593
H127	H	0.647405	0.529568	0.822107
O128	O	0.379966	1.583462	-0.585369
C129	C	0.374067	1.654294	-0.714498
H130	H	0.328529	1.698797	-0.772054
H131	H	0.378253	1.748031	-0.746298
C132	C	0.479413	1.490269	-0.664153
C133	C	0.423485	1.544917	-0.734844
H134	H	0.509898	1.422804	-0.676705
H135	H	0.483388	1.442551	-0.577156
H136	H	0.482893	1.568396	-0.690661
H137	H	0.420003	1.466794	-0.708324
H138	H	0.419511	1.592620	-0.821837
H139	H	0.257734	1.591821	-0.343385
O140	O	0.910723	0.460387	0.130487
C141	C	0.954514	0.353569	0.116277
H142	H	0.934616	0.306404	0.091914
H143	H	0.970476	0.405198	0.037150
C144	C	1.032105	0.288787	0.270476
C145	C	1.007668	0.230849	0.240563
H146	H	1.064894	0.213090	0.347139
H147	H	1.002603	0.360756	0.280047
H148	H	1.045402	0.331810	0.204528
H149	H	0.994364	0.187844	0.306503
H150	H	1.037169	0.158870	0.231007
O151	O	0.176559	0.735428	0.196684
C152	C	0.170675	0.618758	0.255003
H153	H	0.125144	0.657532	0.268077
H154	H	0.174854	0.578104	0.193067
C155	C	0.276027	0.446232	0.368653
C156	C	0.220108	0.493852	0.384721
H157	H	0.306521	0.369180	0.448667
H158	H	0.279993	0.524834	0.329359
H159	H	0.279501	0.412364	0.317035
H160	H	0.216632	0.527736	0.436324
H161	H	0.216143	0.415253	0.424027
O162	O	0.076012	0.735579	0.196753
C163	C	0.048367	0.727647	0.289512
H164	H	0.046002	0.802674	0.314074
H165	H	0.001309	0.763133	0.251687
C166	C	0.087838	0.477549	0.378584
C167	C	0.084938	0.569689	0.408760
H168	H	0.110394	0.380113	0.452140
H169	H	0.106461	0.482893	0.316088
H170	H	0.048621	0.507138	0.347062
H171	H	0.124154	0.540111	0.440266
H172	H	0.066322	0.564337	0.471264
O173	O	0.156195	1.796329	-0.130154
C174	C	0.112403	1.903202	-0.116000
H175	H	0.132301	1.885462	-0.026730
H176	H	0.096442	2.016104	-0.201404
C177	C	0.034812	1.913187	-0.215401
C178	C	0.059249	1.891390	-0.105753
H179	H	0.002022	1.905906	-0.209086
H180	H	0.064314	1.841188	-0.224942
H181	H	0.021515	2.007271	-0.286560
H182	H	0.072551	1.797301	-0.034598
H183	H	0.029747	1.963372	-0.096199
H184	H	0.278511	1.787715	-0.779066
O185	O	-0.190003	0.867835	0.130507
C186	C	-0.247207	0.896193	0.116309
H187	H	-0.281026	1.009816	0.091949
H188	H	-0.260208	0.889917	0.037184
C189	C	-0.204909	0.642607	0.270508
C190	C	-0.246445	0.782157	0.240600
H191	H	-0.204439	0.572262	0.347174
H192	H	-0.166369	0.623500	0.280071
H193	H	-0.215748	0.637398	0.204561
H194	H	-0.235601	0.787369	0.306539
H195	H	-0.284983	0.801263	0.231051
H196	H	0.278564	1.787639	0.119988
H197	H	-0.304187	1.368192	-0.119762
H198	H	0.175548	1.885633	-0.757042
O199	O	0.256707	1.583495	-0.130262
C200	C	0.195667	1.654339	-0.188628
H201	H	0.168466	1.698834	-0.136791
H202	H	0.180634	1.748082	-0.291225
C203	C	0.219453	1.490337	-0.247485
C204	C	0.186044	1.544976	-0.183810
H205	H	0.213516	1.422880	-0.244519
H206	H	0.260576	1.442611	-0.208167
H207	H	0.206921	1.568469	-0.332976
H208	H	0.198581	1.466847	-0.098317
H209	H	0.144922	1.592686	-0.223114
H210	H	-0.211644	1.368212	-0.119752
H211	H	-0.098240	0.888484	0.120127
H212	H	0.809205	0.664909	0.120132
H213	H	0.175581	1.885627	0.000047
O214	O	0.910701	0.460417	0.537731
C215	C	0.942092	0.309167	0.596201
H216	H	0.922616	0.263376	0.669766
H217	H	0.937850	0.288564	0.521992
C218	C	1.032339	0.289877	0.570585
C219	C	1.008422	0.233634	0.660947
H220	H	1.073255	0.243284	0.610520
H221	H	1.011190	0.391778	0.531189
H222	H	1.028799	0.272704	0.508752
H223	H	1.011955	0.250823	0.722770
H224	H	1.029572	0.131733	0.700356
H225	H	0.891336	0.371206	0.000169
O226	O	-0.109626	1.521340	-0.196247
C227	C	-0.103739	1.638007	-0.254599
H228	H	-0.058202	1.599220	-0.202760
H229	H	-0.107934	1.678683	-0.357200
C230	C	-0.209086	1.810532	-0.313441
C231	C	-0.153158	1.762897	-0.249764
H232	H	-0.239571	1.887573	-0.310465
H233	H	-0.213053	1.731933	-0.274133
H234	H	-0.212573	1.844419	-0.398936
H235	H	-0.149669	1.728994	-0.164268
H236	H	-0.149192	1.841493	-0.289058
H237	H	-0.008203	1.500445	-0.185845
H238	H	0.165159	1.368279	-0.119846
H239	H	0.257723	1.368283	-0.119852
H240	H	0.788353	0.469178	-0.119757
H241	H	0.809183	0.664955	0.343657
H242	H	0.788408	0.469110	0.779339
H243	H	0.891370	0.371212	0.757314
H244	H	0.371109	1.591797	0.120014
