data_functionalizedCrystal
_audit_creation_method	'MofGen! by Chris Wilmer'
_symmetry_space_group_name_H-M	'P1'
_symmetry_Int_Tables_number	1
_symmetry_cell_setting	triclinic
loop_
_symmetry_equiv_pos_as_xyz
  x,y,z
_cell_length_a	14.519709
_cell_length_b	10.654545
_cell_length_c	12.996460
_cell_angle_alpha	89.994208
_cell_angle_beta	89.998766
_cell_angle_gamma	84.081612
loop_
_atom_site_label
_atom_site_type_symbol
_atom_site_fract_x
_atom_site_fract_y
_atom_site_fract_z
O1	O	0.129506	1.666603	-0.085559
O2	O	0.462840	1.999937	0.247774
O3	O	0.796173	2.333270	0.581108
O4	O	0.141852	1.301005	-0.085564
O5	O	0.475185	1.634339	0.247770
O6	O	0.808518	1.967672	0.581103
O7	O	0.001491	1.493498	-0.085552
O8	O	0.334824	1.826831	0.247781
O9	O	0.668157	2.160164	0.581115
O10	O	0.269867	1.474111	-0.085571
O11	O	0.603201	1.807444	0.247763
O12	O	0.936534	2.140778	0.581096
O13	O	0.001499	1.493473	0.085582
O14	O	0.334832	1.826806	0.418915
O15	O	0.668165	2.160139	0.752249
O16	O	0.141860	1.300981	0.085570
O17	O	0.475193	1.634314	0.418904
O18	O	0.808526	1.967647	0.752237
O19	O	0.129514	1.666578	0.085575
O20	O	0.462848	1.999912	0.418908
O21	O	0.796181	2.333245	0.752241
Cu22	Cu	0.135688	1.483777	0.101198
Cu23	Cu	0.469021	1.817111	0.434532
Cu24	Cu	0.802354	2.150444	0.767865
Cu25	Cu	0.135678	1.483807	-0.101187
Cu26	Cu	0.469012	1.817140	0.232146
Cu27	Cu	0.802345	2.150473	0.565479
O28	O	0.269875	1.474086	0.085563
O29	O	0.603209	1.807420	0.418896
O30	O	0.936542	2.140753	0.752230
C31	C	0.140950	1.254204	0.000003
C32	C	0.474283	1.587537	0.333336
C33	C	0.807617	1.920870	0.666669
C34	C	0.138241	1.114786	0.000001
C35	C	0.471574	1.448119	0.333335
C36	C	0.804907	1.781453	0.666668
C37	C	0.136970	1.049280	0.093287
C38	C	0.470303	1.382614	0.426620
C39	C	0.803636	1.715947	0.759954
C40	C	0.134409	0.918286	0.093287
C41	C	0.467742	1.251619	0.426621
C42	C	0.801075	1.584952	0.759954
C43	C	0.134394	0.918313	-0.093292
C44	C	0.467727	1.251647	0.240041
C45	C	0.801060	1.584980	0.573375
C46	C	0.136948	1.049307	-0.093291
C47	C	0.470281	1.382640	0.240042
C48	C	0.803615	1.715973	0.573375
C49	C	-0.032870	1.492582	0.000015
C50	C	0.300464	1.825915	0.333348
C51	C	0.633797	2.159248	0.666682
C52	C	-0.135265	1.489874	0.000016
C53	C	0.198068	1.823208	0.333349
C54	C	0.531402	2.156541	0.666682
C55	C	-0.510212	1.479907	-0.000011
C56	C	-0.176879	1.813240	0.333322
C57	C	0.156454	2.146574	0.666655
C58	C	-0.405890	1.482675	-0.000003
C59	C	-0.072557	1.816008	0.333330
C60	C	0.260777	2.149342	0.666663
C61	C	-0.322742	1.484890	0.000003
C62	C	0.010591	1.818224	0.333337
C63	C	0.343925	2.151557	0.666670
C64	C	-0.218413	1.487659	0.000009
C65	C	0.114920	1.820992	0.333342
C66	C	0.448254	2.154326	0.666676
C67	C	0.304236	1.475002	-0.000006
C68	C	0.637569	1.808336	0.333327
C69	C	0.970902	2.141669	0.666660
C70	C	0.406631	1.477710	-0.000014
C71	C	0.739964	1.811043	0.333320
C72	C	1.073298	2.144376	0.666653
C73	C	0.130416	1.713380	0.000006
C74	C	0.463749	2.046714	0.333339
C75	C	0.797083	2.380047	0.666673
C76	C	0.133125	1.852798	0.000001
C77	C	0.466459	2.186131	0.333334
C78	C	0.799792	2.519464	0.666667
N79	N	0.135694	1.483766	0.243545
N80	N	0.469027	1.817099	0.576879
N81	N	0.802361	2.150432	0.910212
N82	N	0.135665	1.483828	-0.243534
N83	N	0.468998	1.817161	0.089799
N84	N	0.802331	2.150495	0.423132
C85	C	0.135696	1.483772	0.336651
C86	C	0.469030	1.817105	0.669985
C87	C	0.802363	2.150438	1.003318
C88	C	0.135690	1.483783	0.453457
C89	C	0.469024	1.817116	0.786790
C90	C	0.802357	2.150450	1.120123
C91	C	0.135680	1.483799	0.546555
C92	C	0.469013	1.817132	0.879888
C93	C	0.802347	2.150465	1.213222
C94	C	0.135675	1.483812	0.663367
C95	C	0.469008	1.817146	0.996701
C96	C	0.802342	2.150479	1.330034
H97	H	0.133374	0.864956	0.169250
H98	H	0.466707	1.198290	0.502583
H99	H	0.800041	1.531623	0.835917
C100	C	0.132982	0.846278	-0.195909
C101	C	0.466316	1.179611	0.137424
C102	C	0.799649	1.512945	0.470758
C103	C	0.051287	0.770309	-0.221558
C104	C	0.384621	1.103642	0.111775
C105	C	0.717954	1.436975	0.445108
C106	C	0.049879	0.698275	-0.324177
C107	C	0.383213	1.031608	0.009156
C108	C	0.716546	1.364942	0.342490
C109	C	0.130166	0.702211	-0.401146
C110	C	0.463500	1.035544	-0.067813
C111	C	0.796833	1.368878	0.265520
C112	C	0.211867	0.778183	-0.375499
C113	C	0.545200	1.111517	-0.042165
C114	C	0.878534	1.444850	0.291168
C115	C	0.213275	0.850217	-0.272880
C116	C	0.546608	1.183550	0.060453
C117	C	0.879942	1.516884	0.393787
H118	H	-0.008151	0.767393	-0.164579
H119	H	0.325182	1.100726	0.168754
H120	H	0.658516	1.434059	0.502087
H121	H	-0.010601	0.642035	-0.343163
H122	H	0.322732	0.975369	-0.009829
H123	H	0.656065	1.308702	0.323504
H124	H	0.129124	0.648887	-0.477111
H125	H	0.462457	0.982221	-0.143778
H126	H	0.795791	1.315554	0.189556
H127	H	0.271306	0.781099	-0.432478
H128	H	0.604639	1.114433	-0.099144
H129	H	0.937972	1.447766	0.234189
H130	H	0.273756	0.906457	-0.253894
H131	H	0.607089	1.239790	0.079439
H132	H	0.940423	1.573123	0.412772
C133	C	0.138383	1.121307	0.195908
C134	C	0.471716	1.454641	0.529241
C135	C	0.805049	1.787974	0.862574
C136	C	0.060201	1.225449	0.221575
C137	C	0.393534	1.558783	0.554909
C138	C	0.726868	1.892116	0.888242
C139	C	0.061611	1.297471	0.324200
C140	C	0.394945	1.630804	0.657533
C141	C	0.728278	1.964137	0.990866
C142	C	0.141203	1.265350	0.401156
C143	C	0.474536	1.598683	0.734490
C144	C	0.807870	1.932017	1.067823
C145	C	0.219390	1.161203	0.375490
C146	C	0.552724	1.494536	0.708824
C147	C	0.886057	1.827870	1.042157
C148	C	0.217980	1.089181	0.272866
C149	C	0.551314	1.422515	0.606199
C150	C	0.884647	1.755848	0.939533
H151	H	0.001277	1.249231	0.164606
H152	H	0.334611	1.582565	0.497939
H153	H	0.667944	1.915898	0.831273
H154	H	0.003731	1.374568	0.343199
H155	H	0.337065	1.707901	0.676532
H156	H	0.670398	2.041234	1.009866
H157	H	0.142247	1.318665	0.477125
H158	H	0.475580	1.651998	0.810458
H159	H	0.808914	1.985331	1.143792
H160	H	0.278314	1.137421	0.432460
H161	H	0.611648	1.470754	0.765793
H162	H	0.944981	1.804087	1.099126
H163	H	0.275860	1.012085	0.253867
H164	H	0.609194	1.345418	0.587200
H165	H	0.942527	1.678751	0.920533
H166	H	0.137981	1.102643	-0.169260
H167	H	0.471314	1.435977	0.164073
H168	H	0.804647	1.769310	0.497406
