data_functionalizedCrystal
_audit_creation_method	'MofGen! by Chris Wilmer'
_symmetry_space_group_name_H-M	'P1'
_symmetry_Int_Tables_number	1
_symmetry_cell_setting	triclinic
loop_
_symmetry_equiv_pos_as_xyz
  x,y,z
_cell_length_a	13.032721
_cell_length_b	13.033409
_cell_length_c	19.805399
_cell_angle_alpha	82.825371
_cell_angle_beta	82.844098
_cell_angle_gamma	89.138002
loop_
_atom_site_label
_atom_site_type_symbol
_atom_site_fract_x
_atom_site_fract_y
_atom_site_fract_z
Zn1	Zn	-0.608904	1.520117	0.307471
Zn2	Zn	-0.780878	1.498162	0.210239
Zn3	Zn	-0.587118	1.348150	0.206683
Zn4	Zn	-0.759019	1.326280	0.335759
O5	O	-0.683980	1.423177	0.265038
O6	O	-0.649983	1.661106	0.284223
O7	O	-0.755206	1.478227	0.115056
O8	O	-0.446095	1.389303	0.206725
O9	O	-0.776332	1.644976	0.212787
O10	O	-0.462101	1.515646	0.280774
O11	O	-0.612851	1.368014	0.112443
O12	O	-0.591655	1.201347	0.234155
O13	O	-0.739075	1.352028	0.426718
O14	O	-0.717950	1.185279	0.328987
O15	O	-0.628786	1.494439	0.405935
O16	O	-0.921892	1.457020	0.240217
O17	O	-0.905831	1.330739	0.332436
C18	C	-0.650067	1.156001	0.284255
C19	C	-0.635583	1.041698	0.292495
C20	C	-0.676576	0.864629	0.269267
C21	C	-0.691549	0.982766	0.260748
C22	C	-0.951180	1.389152	0.289795
C23	C	-1.065502	1.374690	0.300401
C24	C	-1.124389	1.430779	0.259529
C25	C	-1.242546	1.415834	0.270490
C26	C	-0.415739	1.457363	0.240198
C27	C	-0.301431	1.471931	0.229612
C28	C	-0.683922	1.423243	0.441571
C29	C	-0.683898	1.423271	0.516798
C30	C	-0.718026	1.691397	0.245746
C31	C	-0.732534	1.805696	0.237525
C32	C	-0.683970	1.423180	0.089181
C33	C	-0.683730	1.423388	0.013913
C34	C	-0.626467	1.497426	0.541321
C35	C	-0.626439	1.497441	0.612006
C36	C	-0.683847	1.423303	0.658167
C37	C	-0.741280	1.349140	0.633640
C38	C	-0.741302	1.349122	0.562956
C39	C	-0.741191	1.349211	0.918700
C40	C	-0.741167	1.349236	0.989388
C41	C	-0.626328	1.497529	0.967751
C42	C	-0.626350	1.497511	0.897067
C43	C	-0.683778	1.423345	0.872546
C44	C	-0.683807	1.423329	0.795901
C45	C	-0.683825	1.423323	0.734811
H46	H	-0.617588	0.827624	0.302753
Cl47	Cl	-1.244231	1.563166	0.163054
Cl48	Cl	-1.122711	1.283470	0.366962
Cl49	Cl	-0.554128	1.590764	0.998581
Cl50	Cl	-0.823623	0.862818	0.185833
Cl51	Cl	-0.782642	1.039884	0.209054
Cl52	Cl	-0.554298	1.590638	0.483297
Cl53	Cl	-0.544498	0.984582	0.344197
Cl54	Cl	-0.813499	1.255892	0.532127
H55	H	-1.087331	1.489869	0.216423
Cl56	Cl	-0.554288	1.590709	0.642833
Cl57	Cl	-1.299751	1.324610	0.337054
H58	H	-0.579606	1.557884	0.859485
Cl59	Cl	-0.813342	1.256027	1.047420
Cl60	Cl	-0.813387	1.255974	0.887883
Cl61	Cl	-0.813447	1.255935	0.691671
