data_functionalizedCrystal
_audit_creation_method	'MofGen! by Chris Wilmer'
_symmetry_space_group_name_H-M	'P1'
_symmetry_Int_Tables_number	1
_symmetry_cell_setting	triclinic
loop_
_symmetry_equiv_pos_as_xyz
  x,y,z
_cell_length_a	18.050590
_cell_length_b	18.215407
_cell_length_c	18.215399
_cell_angle_alpha	90.020595
_cell_angle_beta	90.032491
_cell_angle_gamma	90.022413
loop_
_atom_site_label
_atom_site_type_symbol
_atom_site_fract_x
_atom_site_fract_y
_atom_site_fract_z
Zn1	Zn	0.295669	-1.125084	-0.416108
Zn2	Zn	0.419864	-1.124998	-0.293032
Zn3	Zn	0.295692	-1.002017	-0.293053
Zn4	Zn	0.419821	-1.001988	-0.416055
O5	O	0.357761	-1.063522	-0.354562
O6	O	0.312151	-1.228057	-0.399794
O7	O	0.403419	-1.108660	-0.190050
O8	O	0.191764	-1.018390	-0.309408
O9	O	0.403397	-1.227993	-0.309371
O10	O	0.191747	-1.108807	-0.399815
O11	O	0.312191	-1.018306	-0.190066
O12	O	0.312150	-0.899029	-0.309357
O13	O	0.403325	-1.018341	-0.519046
O14	O	0.403347	-0.899007	-0.399725
O15	O	0.312110	-1.108779	-0.519085
O16	O	0.523783	-1.108632	-0.309320
O17	O	0.523751	-1.018257	-0.399704
C18	C	0.357747	-0.872315	-0.354538
C19	C	0.357758	-0.790516	-0.354546
C20	C	0.405318	-0.602331	-0.401539
C21	C	0.405319	-0.525472	-0.401547
C22	C	0.310209	-0.525465	-0.307588
C23	C	0.310204	-0.602322	-0.307584
C24	C	0.357763	-0.640753	-0.354558
C25	C	0.357769	-0.487037	-0.354570
C26	C	0.357771	-0.403703	-0.354579
C27	C	0.357761	-0.724092	-0.354551
C28	C	0.550713	-1.063452	-0.354520
C29	C	0.633259	-1.063489	-0.354527
C30	C	0.832700	-1.112724	-0.305431
C31	C	0.882032	-1.130698	-0.372595
C32	C	0.784390	-1.063521	-0.354546
C33	C	0.882139	-1.045612	-0.287403
C34	C	0.930375	-1.063553	-0.354559
C35	C	0.832635	-1.081529	-0.421746
C36	C	0.832737	-0.996412	-0.336508
C37	C	0.882047	-1.014360	-0.403718
C38	C	0.700291	-1.063504	-0.354538
C39	C	1.014471	-1.063569	-0.354575
C40	C	1.164056	-1.063595	-0.354604
C41	C	1.081510	-1.063582	-0.354580
C42	C	0.357710	-1.063566	-0.546515
C43	C	0.357688	-1.063586	-0.628314
C44	C	0.357774	-0.255474	-0.354583
C45	C	0.357774	-0.337273	-0.354583
C46	C	0.310149	-1.110694	-0.816529
C47	C	0.310127	-1.110703	-0.893388
C48	C	0.405113	-1.016529	-0.893336
C49	C	0.405130	-1.016517	-0.816479
C50	C	0.357649	-1.063604	-0.778077
C51	C	0.357610	-1.063625	-0.931794
C52	C	0.357587	-1.063634	-1.015127
C53	C	0.357671	-1.063594	-0.694738
C54	C	0.357759	-1.063519	-0.163356
C55	C	0.357571	-1.063643	-0.081557
H56	H	0.444041	-0.633619	-0.439791
H57	H	0.811032	-1.154352	-0.263943
Br58	Br	0.245709	-1.174595	-0.764415
Br59	Br	0.918105	-1.225313	-0.398058
H60	H	0.811066	-0.939663	-0.321221
Br61	Br	0.918385	-1.020344	-0.192756
Br62	Br	0.469858	-0.473330	-0.465313
Br63	Br	0.469594	-0.952598	-0.764289
Br64	Br	0.245668	-0.473304	-0.243839
Br65	Br	0.245664	-1.174619	-0.945570
Br66	Br	0.796552	-1.106918	-0.516421
Br67	Br	0.245653	-0.654471	-0.243827
Br68	Br	0.917937	-0.945030	-0.473031
Br69	Br	0.469551	-0.952632	-0.945457
