data_functionalizedCrystal
_audit_creation_method	'MofGen! by Chris Wilmer'
_symmetry_space_group_name_H-M	'P1'
_symmetry_Int_Tables_number	1
_symmetry_cell_setting	triclinic
loop_
_symmetry_equiv_pos_as_xyz
  x,y,z
_cell_length_a	15.297475
_cell_length_b	21.395361
_cell_length_c	21.395355
_cell_angle_alpha	89.978489
_cell_angle_beta	99.687451
_cell_angle_gamma	99.667694
loop_
_atom_site_label
_atom_site_type_symbol
_atom_site_fract_x
_atom_site_fract_y
_atom_site_fract_z
Zn1	Zn	1.379208	0.415565	0.519713
Zn2	Zn	1.879208	0.915565	1.019713
Zn3	Zn	1.379067	0.520308	0.414914
Zn4	Zn	1.879067	1.020308	0.914914
Zn5	Zn	1.228329	0.397400	0.396849
Zn6	Zn	1.728329	0.897400	0.896849
Zn7	Zn	1.228285	0.502138	0.501564
Zn8	Zn	1.728285	1.002138	1.001564
O9	O	1.303722	0.458853	0.458260
O10	O	1.803722	0.958853	0.958260
O11	O	1.505435	0.444666	0.520967
O12	O	2.005435	0.944666	1.020967
O13	O	1.359031	0.504006	0.324835
O14	O	1.859031	1.004006	0.824835
O15	O	1.248421	0.312141	0.413183
O16	O	1.748421	0.812141	0.913183
O17	O	1.505332	0.521620	0.443971
O18	O	2.005332	1.021620	0.943971
O19	O	1.359271	0.325487	0.503451
O20	O	1.859271	0.825487	1.003451
O21	O	1.248285	0.413706	0.311563
O22	O	1.748285	0.913706	0.811563
O23	O	1.102077	0.396087	0.395584
O24	O	1.602077	0.896087	0.895584
O25	O	1.248345	0.490652	0.591655
O26	O	1.748345	0.990652	1.091655
O27	O	1.102045	0.473038	0.472518
O28	O	1.602045	0.973038	0.972518
O29	O	1.359228	0.427047	0.604989
O30	O	1.859228	0.927047	1.104989
O31	O	1.358988	0.605566	0.426373
O32	O	1.858988	1.105566	0.926373
O33	O	1.248209	0.592217	0.490034
O34	O	1.748209	1.092217	0.990034
C35	C	1.069327	0.430620	0.430122
C36	C	1.569327	0.930620	0.930122
C37	C	0.969051	0.418557	0.418099
C38	C	1.469051	0.918557	0.918099
C39	C	1.303603	0.621626	0.458211
C40	C	1.803603	1.121626	0.958211
C41	C	1.303635	0.691271	0.458221
C42	C	1.803635	1.191271	0.958221
C43	C	1.303797	0.458849	0.621692
C44	C	1.803797	0.958849	1.121692
C45	C	1.303829	0.458847	0.691338
C46	C	1.803829	0.958847	1.191338
C47	C	0.686423	0.545073	0.544191
C48	C	1.186423	1.045073	1.044191
C49	C	0.780637	0.556412	0.555485
C50	C	1.280637	1.056412	1.055485
C51	C	0.827745	0.521949	0.521140
C52	C	1.327745	1.021949	1.021140
C53	C	0.780630	0.476146	0.475498
C54	C	1.280630	0.976146	0.975498
C55	C	0.686407	0.464810	0.464199
C56	C	1.186407	0.964810	0.964199
C57	C	0.827729	0.441685	0.441148
C58	C	1.327729	0.941685	0.941148
C59	C	0.780614	0.395882	0.395506
C60	C	1.280614	0.895882	0.895506
C61	C	0.686401	0.384548	0.384209
C62	C	1.186401	0.884548	0.884209
C63	C	0.639293	0.419011	0.418555
C64	C	1.139293	0.919011	0.918555
C65	C	0.921952	0.453021	0.452447
C66	C	1.421952	0.953021	0.952447
C67	C	0.921936	0.372758	0.372455
C68	C	1.421936	0.872758	0.872455
C69	C	0.827723	0.361420	0.361161
C70	C	1.327723	0.861420	0.861161
C71	C	1.539033	0.487196	0.486509
C72	C	2.039033	0.987196	0.986509
C73	C	1.639309	0.499274	0.498546
C74	C	2.139309	0.999274	0.998546
C75	C	1.303866	0.295447	0.458326
C76	C	1.803866	0.795447	0.958326
C77	C	1.303928	0.225813	0.458354
C78	C	1.803928	0.725813	0.958354
C79	C	1.361369	0.730920	0.425119
C80	C	1.861369	1.230920	0.925119
C81	C	1.361411	0.796361	0.425138
C82	C	1.861411	1.296361	0.925138
C83	C	1.303703	0.822147	0.458250
C84	C	1.803703	1.322147	0.958250
C85	C	1.245965	0.782490	0.491359
C86	C	1.745965	1.282490	0.991359
C87	C	1.245931	0.717051	0.491344
C88	C	1.745931	1.217051	0.991344
C89	C	1.222472	0.916083	0.453415
C90	C	1.722472	1.416083	0.953415
C91	C	1.222504	0.981519	0.453425
C92	C	1.722504	1.481519	0.953425
C93	C	1.303808	1.023981	0.458300
C94	C	1.803808	1.523981	0.958300
C95	C	1.385081	1.000998	0.463151
C96	C	1.885081	1.500998	0.963151
C97	C	1.385047	0.935559	0.463136
C98	C	1.885047	1.435559	0.963136
C99	C	1.303733	0.893103	0.458270
C100	C	1.803733	1.393103	0.958270
C101	C	1.361592	1.134589	0.425217
C102	C	1.861592	1.634589	0.925217
C103	C	1.361635	1.200031	0.425241
C104	C	1.861635	1.700031	0.925241
C105	C	1.246181	1.186157	0.491458
C106	C	1.746181	1.686157	0.991458
C107	C	1.246146	1.120717	0.491438
C108	C	1.746146	1.620717	0.991438
C109	C	1.303850	1.094937	0.458315
C110	C	1.803850	1.594937	0.958315
C111	C	1.303700	0.458817	0.295470
C112	C	1.803700	0.958817	0.795470
C113	C	1.303842	0.458663	0.225846
C114	C	1.803842	0.958663	0.725846
C115	C	1.361563	0.425726	0.730994
C116	C	1.861563	0.925726	1.230994
C117	C	1.361562	0.425699	0.796430
C118	C	1.861562	0.925699	1.296430
C119	C	1.303836	0.458806	0.822207
C120	C	1.803836	0.958806	1.322207
C121	C	1.246091	0.491928	0.782541
C122	C	1.746091	0.991928	1.282541
C123	C	1.246087	0.491949	0.717106
C124	C	1.746087	0.991949	1.217106
C125	C	1.296671	0.514358	0.925010
C126	C	1.796671	1.014358	1.425010
C127	C	1.296681	0.514339	0.990444
C128	C	1.796681	1.014339	1.490444
C129	C	1.303842	0.458740	1.024028
C130	C	1.803842	0.958740	1.524028
C131	C	1.311011	0.403161	0.992173
C132	C	1.811011	0.903161	1.492173
C133	C	1.311008	0.403181	0.926738
C134	C	1.811008	0.903181	1.426738
C135	C	1.303833	0.458786	0.893159
C136	C	1.803833	0.958786	1.393159
C137	C	1.361577	0.425587	1.134638
C138	C	1.861577	0.925587	1.634638
C139	C	1.361570	0.425558	1.200074
C140	C	1.861570	0.925558	1.700074
C141	C	1.246104	0.491793	1.186184
C142	C	1.746104	0.991793	1.686184
C143	C	1.246106	0.491815	1.120749
C144	C	1.746106	0.991815	1.620749
C145	C	1.303848	0.458714	1.094980
C146	C	1.803848	0.958714	1.594980
H147	H	0.904458	0.531183	0.530338
H148	H	1.404458	1.031183	1.030338
H149	H	0.960304	0.490314	0.489609
H150	H	1.460304	0.990314	0.989609
H151	H	1.198916	0.684767	0.518300
H152	H	1.698916	1.184767	1.018300
N153	N	1.288952	0.574281	1.024802
N154	N	1.788952	1.074281	1.524802
H155	H	1.341087	0.608608	1.019679
H156	H	1.841087	1.108608	1.519679
H157	H	1.230512	0.588510	1.006374
H158	H	1.730512	1.088510	1.506374
H159	H	0.789348	0.324126	0.323998
H160	H	1.289348	0.824126	0.823998
H161	H	0.818991	0.593706	0.592645
H162	H	1.318991	1.093706	1.092645
N163	N	0.635617	0.582246	0.581224
N164	N	1.135617	1.082246	1.081224
H165	H	0.568782	0.568116	0.567137
H166	H	1.068782	1.068116	1.067137
H167	H	0.652117	0.574551	0.627971
H168	H	1.152117	1.074551	1.127971
N169	N	1.183724	0.810298	0.527076
N170	N	1.683724	1.310298	1.027076
H171	H	1.192503	0.857769	0.522061
H172	H	1.692503	1.357769	1.022061
H173	H	1.119294	0.791146	0.509552
H174	H	1.619294	1.291146	1.009552
N175	N	1.423837	0.390024	0.703201
N176	N	1.923837	0.890024	1.203201
H177	H	1.460411	0.369038	0.738257
H178	H	1.960411	0.869038	1.238257
H179	H	1.387140	0.356616	0.671641
H180	H	1.887140	0.856616	1.171641
H181	H	1.316843	0.357926	0.900804
H182	H	1.816843	0.857926	1.400804
N183	N	1.472781	1.046786	0.468410
N184	N	1.972781	1.546786	0.968410
H185	H	1.503498	1.039102	0.431562
H186	H	2.003498	1.539102	0.931562
H187	H	1.460401	1.091708	0.467705
H188	H	1.960401	1.591708	0.967705
H189	H	1.199069	0.518919	0.684816
H190	H	1.699069	1.018919	1.184816
N191	N	1.423833	0.389974	0.839214
N192	N	1.923833	0.889974	1.339214
H193	H	1.460410	0.369008	0.812960
H194	H	1.960410	0.869008	1.312960
H195	H	1.465557	0.420501	0.871377
H196	H	1.965557	0.920501	1.371377
H197	H	1.408655	1.232314	0.398288
H198	H	1.908655	1.732314	0.898288
N199	N	1.423827	0.389819	1.242849
N200	N	1.923827	0.889819	1.742849
H201	H	1.460400	0.368853	1.216592
H202	H	1.960400	0.868853	1.716592
H203	H	1.465554	0.420335	1.275021
H204	H	1.965554	0.920335	1.775021
N205	N	1.183944	1.213961	0.527178
N206	N	1.683944	1.713961	1.027178
H207	H	1.192728	1.261433	0.522167
H208	H	1.692728	1.761433	1.022167
H209	H	1.119513	1.194813	0.509655
H210	H	1.619513	1.694813	1.009655
H211	H	1.408581	1.113598	0.398248
H212	H	1.908581	1.613598	0.898248
N213	N	0.635574	0.335146	0.334986
N214	N	1.135574	0.835146	0.834986
H215	H	0.596445	0.355856	0.301211
H216	H	1.096445	0.855856	0.801211
H217	H	0.679761	0.315044	0.314990
H218	H	1.179761	0.815044	0.814990
N219	N	1.288960	0.574332	0.888791
N220	N	1.788960	1.074332	1.388791
H221	H	1.284432	0.609538	0.918900
H222	H	1.784432	1.109538	1.418900
H223	H	1.343928	0.586771	0.868256
H224	H	1.843928	1.086771	1.368256
N225	N	1.183844	0.527499	1.213983
N226	N	1.683844	1.027499	1.713983
H227	H	1.197814	0.573953	1.204274
H228	H	1.697814	1.073953	1.704274
H229	H	1.119417	0.509958	1.194835
H230	H	1.619417	1.009958	1.694835
H231	H	1.199087	0.518881	0.803532
H232	H	1.699087	1.018881	1.303532
N233	N	0.537673	0.406791	0.406365
N234	N	1.037673	0.906791	0.906365
H235	H	0.515011	0.392615	0.446650
H236	H	1.015011	0.892615	0.946650
H237	H	0.515032	0.447044	0.392027
H238	H	1.015032	0.947044	0.892027
N239	N	0.972733	0.335586	0.335404
N240	N	1.472733	0.835586	0.835404
H241	H	1.039569	0.349716	0.349488
H242	H	1.539569	0.849716	0.849488
H243	H	0.956299	0.288875	0.343267
H244	H	1.456299	0.788875	0.843267
N245	N	1.423619	0.703118	0.389406
N246	N	1.923619	1.203118	0.889406
H247	H	1.386970	0.671593	0.355943
H248	H	1.886970	1.171593	0.855943
H249	H	1.460189	0.738210	0.368483
H250	H	1.960189	1.238210	0.868483
N251	N	1.423684	0.839137	0.389436
N252	N	1.923684	1.339137	0.889436
H253	H	1.460234	0.812875	0.368451
H254	H	1.960234	1.312875	0.868451
H255	H	1.386988	0.861906	0.356022
H256	H	1.886988	1.361906	0.856022
N257	N	1.472698	0.910768	0.468371
N258	N	1.972698	1.410768	0.968371
H259	H	1.524212	0.947592	0.471461
H260	H	2.024212	1.447592	0.971461
H261	H	1.481029	0.884597	0.507547
H262	H	1.981029	1.384597	1.007547
N263	N	1.183850	0.527543	1.077964
N264	N	1.683850	1.027543	1.577964
H265	H	1.142069	0.497051	1.045793
H266	H	1.642069	0.997051	1.545793
H267	H	1.147333	0.548514	1.104259
H268	H	1.647333	1.048514	1.604259
N269	N	1.183869	1.077947	0.527136
N270	N	1.683869	1.577947	1.027136
H271	H	1.147315	1.104210	0.548115
H272	H	1.647315	1.604210	1.048115
H273	H	1.142124	1.045813	0.496589
H274	H	1.642124	1.545813	0.996589
N275	N	1.134844	1.006299	0.448186
N276	N	1.634844	1.506299	0.948186
H277	H	1.104116	0.991210	0.485029
H278	H	1.604116	1.491210	0.985029
H279	H	1.147266	1.054193	0.448910
H280	H	1.647266	1.554193	0.948910
N281	N	1.318744	0.343188	1.028386
N282	N	1.818744	0.843188	1.528386
H283	H	1.317655	0.351605	1.074672
H284	H	1.817655	0.851605	1.574672
H285	H	1.266600	0.308898	1.010678
H286	H	1.766600	0.808898	1.510678
H287	H	1.156260	0.881515	0.449447
H288	H	1.656260	1.381515	0.949447
H289	H	1.408589	0.398629	1.113656
H290	H	1.908589	0.898629	1.613656
