data_functionalizedCrystal
_audit_creation_method	'MofGen! by Chris Wilmer'
_symmetry_space_group_name_H-M	'P1'
_symmetry_Int_Tables_number	1
_symmetry_cell_setting	triclinic
loop_
_symmetry_equiv_pos_as_xyz
  x,y,z
_cell_length_a	8.597340
_cell_length_b	10.654541
_cell_length_c	9.130307
_cell_angle_alpha	89.999371
_cell_angle_beta	82.301142
_cell_angle_gamma	84.909934
loop_
_atom_site_label
_atom_site_type_symbol
_atom_site_fract_x
_atom_site_fract_y
_atom_site_fract_z
O1	O	2.084441	0.187472	-0.141254
O2	O	1.627671	0.201850	-0.083608
O3	O	1.866560	0.011977	-0.113766
O4	O	1.845552	0.377344	-0.111097
O5	O	1.866542	0.011989	-0.357363
O6	O	1.627653	0.201862	-0.327205
O7	O	2.084423	0.187484	-0.384851
Cu8	Cu	1.856037	0.194674	-0.378270
Cu9	Cu	1.856057	0.194660	-0.090189
O10	O	1.845534	0.377357	-0.354693
C11	C	1.569174	0.200311	-0.198025
C12	C	1.394900	0.195692	-0.176031
C13	C	1.865009	-0.034823	-0.235369
C14	C	1.860397	-0.174291	-0.234784
C15	C	2.146053	-0.200743	-0.270854
C16	C	2.286708	-0.279490	-0.288617
C17	C	2.282364	-0.410531	-0.288065
C18	C	2.137350	-0.462827	-0.269742
C19	C	1.996696	-0.384081	-0.251979
C20	C	2.001055	-0.253038	-0.252538
C21	C	1.711042	-0.357629	-0.215899
C22	C	1.715383	-0.226587	-0.216461
C23	C	1.566028	-0.409925	-0.197576
C24	C	1.425370	-0.331178	-0.179823
C25	C	1.429720	-0.200130	-0.180378
C26	C	1.574728	-0.147841	-0.198698
C27	C	2.142919	0.189023	-0.270431
C28	C	2.317193	0.193641	-0.292415
C29	C	1.847085	0.424157	-0.233087
C30	C	1.851697	0.563625	-0.233662
N31	N	1.856034	0.194684	-0.580893
C32	C	1.664052	0.039843	-0.863331
C33	C	1.568024	-0.037540	-0.774544
C34	C	1.567994	-0.037517	-0.621207
C35	C	1.664007	0.039895	-0.556655
C36	C	1.760035	0.117278	-0.645443
C37	C	1.760050	0.117249	-0.798782
C38	C	1.952062	0.272066	-0.669680
C39	C	1.952085	0.272052	-0.823016
C40	C	2.048074	0.349478	-0.605128
C41	C	2.144097	0.426869	-0.693915
C42	C	2.144121	0.426844	-0.847261
C43	C	2.048113	0.349435	-0.911804
N44	N	1.856072	0.194640	0.112432
H45	H	1.383992	0.195410	-0.408889
C46	C	1.579526	-0.003694	-0.199309
N47	N	1.583147	0.104879	-0.199764
H48	H	1.328096	0.193914	-0.059550
C49	C	2.249710	0.512004	-0.622899
N50	N	2.329259	0.576128	-0.569404
H51	H	2.149604	-0.094044	-0.271326
C52	C	2.132581	-0.606977	-0.269130
N53	N	2.128987	-0.715552	-0.268673
C54	C	2.446216	-0.221954	-0.308783
N55	N	2.566358	-0.178621	-0.323975
C56	C	1.561255	-0.554074	-0.196978
N57	N	1.557656	-0.662649	-0.196538
C58	C	2.437090	-0.497155	-0.307606
N59	N	2.553631	-0.562399	-0.322328
H60	H	2.222324	0.489854	-0.919544
H61	H	2.048051	0.349485	-0.480273
H62	H	1.315181	-0.136020	-0.165906
C63	C	1.265872	-0.388713	-0.159677
N64	N	1.145736	-0.432054	-0.144511
C65	C	1.664064	0.039819	-1.032004
N66	N	1.664073	0.039797	-1.159050
H67	H	1.489856	-0.100570	-0.827120
C68	C	1.462359	-0.122641	-0.523538
N69	N	1.382792	-0.186754	-0.449974
C70	C	2.048132	0.349398	-1.080477
N71	N	2.048147	0.349363	-1.207524
H72	H	1.663989	0.039895	-0.431801
