data_functionalizedCrystal
_audit_creation_method	'MofGen! by Chris Wilmer'
_symmetry_space_group_name_H-M	'P1'
_symmetry_Int_Tables_number	1
_symmetry_cell_setting	triclinic
loop_
_symmetry_equiv_pos_as_xyz
  x,y,z
_cell_length_a	23.532407
_cell_length_b	22.610064
_cell_length_c	23.532357
_cell_angle_alpha	90.001483
_cell_angle_beta	82.838485
_cell_angle_gamma	90.002839
loop_
_atom_site_label
_atom_site_type_symbol
_atom_site_fract_x
_atom_site_fract_y
_atom_site_fract_z
O1	O	0.755251	0.049118	0.069129
O2	O	0.589386	0.049136	0.079132
O3	O	0.677335	0.049114	-0.008803
O4	O	0.667302	0.049140	0.157064
O5	O	0.677319	-0.049255	-0.008790
O6	O	0.589370	-0.049233	0.079145
O7	O	0.755236	-0.049251	0.069142
Zn8	Zn	0.672301	-0.064860	0.074145
Zn9	Zn	0.672321	0.064745	0.074128
O10	O	0.667286	-0.049229	0.157077
C11	C	0.568162	-0.000046	0.078884
C12	C	0.504945	-0.000040	0.078118
N13	N	0.672291	-0.153313	0.074157
C14	C	0.105834	-0.000059	0.125353
C15	C	0.046434	-0.000063	0.124641
O16	O	0.009681	-0.000078	0.168428
N17	N	0.023817	-0.000070	0.072364
C18	C	0.060604	-0.000079	0.020794
O19	O	0.035912	-0.000086	-0.023737
C20	C	0.120003	-0.000080	0.021506
C21	C	0.142616	-0.000067	0.073787
C22	C	0.128448	-0.000047	0.177629
C23	C	0.187844	-0.000042	0.178341
C24	C	0.224626	-0.000050	0.126775
C25	C	0.202012	-0.000062	0.074498
C26	C	0.156788	-0.000093	-0.030063
C27	C	0.216191	-0.000094	-0.029346
C28	C	0.238804	-0.000081	0.022935
C29	C	0.298190	-0.000065	0.023644
N30	N	0.320807	-0.000058	0.075922
C31	C	0.284025	-0.000050	0.127487
C32	C	-0.064139	-0.000079	0.019303
C33	C	-0.123536	-0.000075	0.018590
C34	C	-0.137702	-0.000059	0.122437
C35	C	-0.078303	-0.000060	0.123149
C36	C	-0.041522	-0.000072	0.071580
C37	C	0.408761	-0.000040	0.128977
C38	C	0.468163	-0.000032	0.129684
C39	C	0.482324	-0.000051	0.025837
C40	C	0.422927	-0.000055	0.025130
C41	C	0.386147	-0.000051	0.076704
O42	O	0.334977	-0.000052	-0.020120
O43	O	0.308725	-0.000051	0.172011
C44	C	0.711267	-0.561964	0.035197
C45	C	0.711269	-0.623884	0.035192
O46	O	0.744384	-0.655911	0.002076
N47	N	0.672321	-0.654850	0.074117
C48	C	0.633362	-0.623893	0.113044
O49	O	0.600233	-0.655918	0.146151
C50	C	0.633357	-0.561974	0.113045
C51	C	0.672312	-0.531011	0.074122
C52	C	0.750218	-0.531001	-0.003724
C53	C	0.750216	-0.469085	-0.003719
C54	C	0.711262	-0.438133	0.035207
C55	C	0.672310	-0.469096	0.074127
C56	C	0.594397	-0.531018	0.151969
C57	C	0.594395	-0.469095	0.151966
C58	C	0.633350	-0.438133	0.113043
C59	C	0.633354	-0.376227	0.113057
N60	N	0.672303	-0.345261	0.074133
C61	C	0.711257	-0.376214	0.035208
C62	C	0.633376	-0.753927	0.113038
C63	C	0.633383	-0.815844	0.113040
C64	C	0.711290	-0.815831	0.035188
C65	C	0.711284	-0.753912	0.035189
C66	C	0.672324	-0.722961	0.074114
C67	C	0.711249	-0.246187	0.035221
C68	C	0.711245	-0.184265	0.035231
C69	C	0.633337	-0.184284	0.113081
C70	C	0.633342	-0.246200	0.113073
C71	C	0.672301	-0.277150	0.074139
O72	O	0.600255	-0.344161	0.146155
O73	O	0.744375	-0.344182	0.002101
C74	C	0.776459	-0.000068	0.069390
C75	C	0.839676	-0.000070	0.070156
C76	C	0.677076	-0.000072	-0.030013
C77	C	0.676322	-0.000078	-0.093232
N78	N	0.672335	0.153198	0.074113
C79	C	0.671594	0.053576	-0.485250
C80	C	0.670876	0.053579	-0.544650
O81	O	0.670493	0.099182	-0.575372
N82	N	0.670512	-0.000041	-0.574354
C83	C	0.670859	-0.053668	-0.544655
O84	O	0.670483	-0.099276	-0.575375
C85	C	0.671573	-0.053671	-0.485256
C86	C	0.671943	-0.000047	-0.455556
C87	C	0.671963	0.107195	-0.455550
C88	C	0.672681	0.107192	-0.396155
C89	C	0.673030	0.053569	-0.366460
C90	C	0.672661	-0.000051	-0.396160
C91	C	0.671916	-0.107298	-0.455557
C92	C	0.672629	-0.107296	-0.396154
C93	C	0.672998	-0.053672	-0.366454
C94	C	0.673728	-0.053678	-0.307070
N95	N	0.674092	-0.000057	-0.277366
C96	C	0.673743	0.053566	-0.307061
C97	C	0.669361	-0.053658	-0.669396
C98	C	0.668652	-0.053656	-0.728795
C99	C	0.668668	0.053592	-0.728785
C100	C	0.669381	0.053589	-0.669387
C101	C	0.669725	-0.000038	-0.639692
C102	C	0.675252	0.053554	-0.182327
C103	C	0.675973	0.053545	-0.122927
C104	C	0.675954	-0.053702	-0.122941
C105	C	0.675236	-0.053694	-0.182336
C106	C	0.674883	-0.000061	-0.212027
O107	O	0.674109	-0.099257	-0.276310
O108	O	0.674112	0.099166	-0.276333
C109	C	0.667545	-0.000042	0.178287
C110	C	0.668300	-0.000032	0.241506
H111	H	0.486571	-0.000021	0.172259
H112	H	-0.141942	-0.000076	-0.023982
H113	H	-0.059896	-0.000053	0.165721
H114	H	0.669681	0.097254	-0.645208
O115	O	0.595447	-0.276189	0.150904
C116	C	0.518188	-0.269660	0.228135
C117	C	0.561072	-0.235630	0.185322
H118	H	0.490392	-0.236883	0.255982
H119	H	0.489845	-0.298627	0.203711
H120	H	0.542611	-0.298671	0.256437
H121	H	0.536695	-0.206587	0.157009
H122	H	0.589414	-0.206700	0.209782
H123	H	0.562667	-0.443898	0.183663
O124	O	0.749148	-0.723793	-0.002560
C125	C	0.826920	-0.653796	-0.015141
C126	C	0.784099	-0.687886	0.027685
H127	H	0.855181	-0.624748	0.009296
H128	H	0.854805	-0.686514	-0.042974
H129	H	0.802443	-0.624857	-0.043457
H130	H	0.808530	-0.716826	0.056038
H131	H	0.756215	-0.655136	0.055478
H132	H	0.742969	-0.159057	0.003536
O133	O	0.676304	0.105691	-0.094161
C134	C	0.676278	0.212066	-0.100436
C135	C	0.675890	0.153057	-0.133079
H136	H	0.675956	0.250376	-0.131889
H137	H	0.636743	0.214793	-0.067198
H138	H	0.716468	0.214711	-0.078054
H139	H	0.635727	0.150372	-0.155496
H140	H	0.715452	0.150355	-0.166285
H141	H	0.138388	-0.000105	-0.072635
O142	O	0.668275	-0.105799	-0.757552
C143	C	0.668369	-0.212173	-0.751280
C144	C	0.668788	-0.153162	-0.718644
H145	H	0.668796	-0.250482	-0.719839
H146	H	0.628162	-0.214893	-0.773629
H147	H	0.707885	-0.214828	-0.784546
H148	H	0.629299	-0.150467	-0.685351
H149	H	0.709021	-0.150468	-0.696335
O150	O	0.251839	-0.000077	-0.079495
C151	C	0.259615	-0.000131	-0.182571
C152	C	0.219181	-0.000140	-0.125822
H153	H	0.233227	-0.000194	-0.220042
H154	H	0.287767	0.041048	-0.184882
H155	H	0.287790	-0.041287	-0.184799
H156	H	0.190969	0.040988	-0.123557
H157	H	0.191068	-0.041346	-0.123535
O158	O	0.788040	-0.560997	-0.041615
C159	C	0.821987	-0.579949	-0.140818
C160	C	0.779124	-0.545937	-0.097970
H161	H	0.814785	-0.567795	-0.186390
H162	H	0.867564	-0.567748	-0.133668
H163	H	0.815318	-0.629522	-0.134112
H164	H	0.785740	-0.496357	-0.104650
H165	H	0.733562	-0.558187	-0.105130
H166	H	0.404515	-0.000057	-0.017442
O167	O	0.518118	0.000019	-0.024214
C168	C	0.593393	0.050983	-0.083695
C169	C	0.552896	0.050976	-0.026987
H170	H	0.621513	0.092183	-0.085961
H171	H	0.621593	0.009843	-0.085951
H172	H	0.567022	0.050944	-0.121178
H173	H	0.579222	0.051036	0.010528
H174	H	0.524695	0.092113	-0.024781
O175	O	-0.028387	-0.000186	-0.030780
C176	C	0.046915	-0.051131	-0.090238
C177	C	0.006455	-0.051090	-0.033505
H178	H	0.075104	-0.092276	-0.092454
H179	H	0.020571	-0.051172	-0.127742
H180	H	0.075053	-0.009943	-0.092499
H181	H	-0.021691	-0.092271	-0.031188
H182	H	0.032834	-0.051018	0.003972
O183	O	0.672981	-0.159444	-0.367401
C184	C	0.672832	-0.265818	-0.373676
C185	C	0.672448	-0.206805	-0.406310
H186	H	0.672388	-0.304124	-0.405119
H187	H	0.713035	-0.268557	-0.351323
H188	H	0.633311	-0.268456	-0.340414
H189	H	0.711941	-0.204127	-0.439600
H190	H	0.632218	-0.204090	-0.428624
H191	H	0.671616	-0.150964	-0.479729
O192	O	0.749147	-0.276154	-0.002621
C193	C	0.826396	-0.269589	-0.079861
C194	C	0.783516	-0.235578	-0.037029
H195	H	0.854186	-0.236798	-0.107699
H196	H	0.854745	-0.298560	-0.055452
H197	H	0.801969	-0.298593	-0.108169
H198	H	0.807895	-0.206542	-0.008711
H199	H	0.755167	-0.206644	-0.061474
O200	O	-0.173496	0.000023	0.172493
C201	C	-0.248763	0.051007	0.231961
C202	C	-0.208269	0.050979	0.175251
H203	H	-0.276879	0.092207	0.234215
H204	H	-0.276966	0.009867	0.234233
H205	H	-0.222388	0.050985	0.269442
H206	H	-0.234598	0.051023	0.137738
H207	H	-0.180063	0.092116	0.173029
O208	O	0.787903	-0.439030	-0.041696
C209	C	0.800220	-0.369428	-0.119807
C210	C	0.757524	-0.403358	-0.076723
H211	H	0.775675	-0.340588	-0.148145
H212	H	0.828639	-0.340312	-0.095611
H213	H	0.827962	-0.402302	-0.147587
H214	H	0.729744	-0.370526	-0.048932
H215	H	0.729145	-0.432483	-0.100955
O216	O	0.749183	-0.845813	-0.002650
C217	C	0.826429	-0.839282	-0.079896
C218	C	0.783558	-0.805253	-0.037070
H219	H	0.854225	-0.806504	-0.107743
H220	H	0.854774	-0.868254	-0.055481
H221	H	0.801995	-0.868289	-0.108194
H222	H	0.807946	-0.776214	-0.008760
H223	H	0.755214	-0.776319	-0.061520
H224	H	0.601668	-0.841050	0.144741
O225	O	0.556528	-0.561150	0.189698
C226	C	0.478646	-0.631020	0.202210
C227	C	0.521514	-0.596946	0.159417
H228	H	0.450318	-0.659960	0.177745
H229	H	0.503024	-0.660048	0.230539
H230	H	0.450832	-0.598238	0.230034
H231	H	0.549339	-0.629685	0.131556
H232	H	0.497100	-0.567909	0.131129
O233	O	0.595511	-0.723954	0.150913
C234	C	0.518221	-0.730515	0.228112
C235	C	0.561079	-0.764528	0.185259
H236	H	0.490364	-0.763305	0.255884
H237	H	0.542608	-0.701541	0.256482
H238	H	0.489935	-0.701514	0.203662
H239	H	0.589376	-0.793562	0.209663
H240	H	0.536657	-0.793465	0.156890
H241	H	0.601622	-0.159073	0.144775
O242	O	0.674808	0.105634	-0.211180
C243	C	0.624680	0.167873	-0.271527
C244	C	0.625101	0.108881	-0.238863
H245	H	0.584502	0.170512	-0.293927
H246	H	0.625030	0.206219	-0.240114
H247	H	0.664224	0.170543	-0.304756
H248	H	0.585563	0.106153	-0.205634
H249	H	0.624780	0.070563	-0.270310
O250	O	0.673007	0.159335	-0.367391
C251	C	0.672974	0.265709	-0.373677
C252	C	0.672594	0.206696	-0.406315
H253	H	0.672652	0.304016	-0.405134
H254	H	0.633436	0.268436	-0.340443
H255	H	0.713160	0.268360	-0.351291
H256	H	0.632434	0.204005	-0.428736
H257	H	0.712158	0.203994	-0.439517
H258	H	0.671677	0.150864	-0.479721
O259	O	0.668351	0.105736	-0.757552
C260	C	0.668404	0.212112	-0.751286
C261	C	0.668776	0.153106	-0.718637
H262	H	0.668736	0.250425	-0.719836
H263	H	0.707941	0.214828	-0.784522
H264	H	0.628216	0.214761	-0.773669
H265	H	0.708937	0.150417	-0.696219
H266	H	0.629213	0.150415	-0.685433
O267	O	0.669602	-0.105739	-0.640514
C268	C	0.621075	-0.167974	-0.566703
C269	C	0.620725	-0.108980	-0.599372
H270	H	0.581568	-0.170608	-0.533425
H271	H	0.620656	-0.206318	-0.598110
H272	H	0.661289	-0.170655	-0.544364
H273	H	0.580517	-0.106241	-0.621714
H274	H	0.621173	-0.070664	-0.567939
H275	H	0.674940	-0.097359	-0.206520
H276	H	0.676241	-0.097360	-0.098753
O277	O	0.373119	-0.000006	0.179128
C278	C	0.365353	-0.000014	0.282204
C279	C	0.405782	-0.000044	0.225452
H280	H	0.391745	-0.000057	0.319672
H281	H	0.337203	0.041163	0.284502
H282	H	0.337176	-0.041171	0.284450
H283	H	0.433995	0.041086	0.223168
H284	H	0.433894	-0.041248	0.223177
O285	O	0.209733	0.000045	0.229165
C286	C	0.215796	0.051038	0.318126
C287	C	0.190967	0.051007	0.260588
H288	H	0.200644	0.092242	0.343543
H289	H	0.200597	0.009902	0.343631
H290	H	0.264568	0.051009	0.309781
H291	H	0.142195	0.051056	0.268881
H292	H	0.206211	0.092139	0.235102
O293	O	0.092665	0.000043	0.227688
C294	C	0.017424	0.051047	0.287172
C295	C	0.057899	0.051004	0.230449
H296	H	-0.010687	0.092251	0.289428
H297	H	-0.010786	0.009911	0.289460
H298	H	0.043813	0.051027	0.324641
H299	H	0.031555	0.051045	0.192948
H300	H	0.086111	0.092137	0.228211
