data_functionalizedCrystal
_audit_creation_method	'MofGen! by Chris Wilmer'
_symmetry_space_group_name_H-M	'P1'
_symmetry_Int_Tables_number	1
_symmetry_cell_setting	triclinic
loop_
_symmetry_equiv_pos_as_xyz
  x,y,z
_cell_length_a	19.121112
_cell_length_b	19.120785
_cell_length_c	19.121278
_cell_angle_alpha	84.986890
_cell_angle_beta	89.882050
_cell_angle_gamma	89.914053
loop_
_atom_site_label
_atom_site_type_symbol
_atom_site_fract_x
_atom_site_fract_y
_atom_site_fract_z
Zn1	Zn	1.042387	-0.305902	-0.428453
Zn2	Zn	1.375721	0.027431	-0.095120
Zn3	Zn	1.709054	0.360764	0.238213
Zn4	Zn	1.042307	-0.428595	-0.305757
Zn5	Zn	1.375640	-0.095262	0.027577
Zn6	Zn	1.708974	0.238072	0.360910
Zn7	Zn	0.930137	-0.306342	-0.306216
Zn8	Zn	1.263470	0.026991	0.027117
Zn9	Zn	1.596804	0.360324	0.360450
Zn10	Zn	0.920529	-0.418545	-0.418410
Zn11	Zn	1.253863	-0.085212	-0.085077
Zn12	Zn	1.587196	0.248121	0.248257
O13	O	0.983840	-0.364846	-0.364709
O14	O	1.317173	-0.031513	-0.031376
O15	O	1.650507	0.301821	0.301958
O16	O	1.140318	-0.326199	-0.416188
O17	O	1.473652	0.007134	-0.082855
O18	O	1.806985	0.340467	0.250479
O19	O	1.031415	-0.416768	-0.207515
O20	O	1.364748	-0.083435	0.125818
O21	O	1.698081	0.249899	0.459151
O22	O	0.949082	-0.207979	-0.326827
O23	O	1.282415	0.125354	0.006507
O24	O	1.615749	0.458687	0.339840
O25	O	1.140259	-0.416341	-0.326044
O26	O	1.473593	-0.083008	0.007290
O27	O	1.806926	0.250326	0.340623
O28	O	1.031552	-0.207656	-0.416634
O29	O	1.364885	0.125677	-0.083300
O30	O	1.698218	0.459011	0.250033
O31	O	0.949004	-0.326949	-0.207853
O32	O	1.282337	0.006384	0.125480
O33	O	1.615671	0.339717	0.458814
O34	O	0.830921	-0.317205	-0.317088
O35	O	1.164254	0.016129	0.016245
O36	O	1.497588	0.349462	0.349579
O37	O	0.932707	-0.399213	-0.518045
O38	O	1.266040	-0.065879	-0.184711
O39	O	1.599373	0.267454	0.148622
O40	O	0.823862	-0.399640	-0.399516
O41	O	1.157195	-0.066306	-0.066183
O42	O	1.490529	0.267027	0.267150
O43	O	1.022235	-0.316454	-0.525423
O44	O	1.355569	0.016879	-0.192090
O45	O	1.688902	0.350212	0.141243
O46	O	1.022098	-0.525566	-0.316305
O47	O	1.355432	-0.192233	0.017028
O48	O	1.688765	0.141100	0.350362
O49	O	0.932629	-0.518183	-0.399071
O50	O	1.265962	-0.184850	-0.065738
O51	O	1.599295	0.148484	0.267596
C52	C	0.801996	-0.357380	-0.357263
C53	C	1.135330	-0.024047	-0.023929
C54	C	1.468663	0.309287	0.309404
C55	C	0.724201	-0.354202	-0.354093
C56	C	1.057535	-0.020869	-0.020760
C57	C	1.390868	0.312465	0.312574
C58	C	0.976331	-0.547364	-0.356564
C59	C	1.309664	-0.214031	-0.023231
C60	C	1.642997	0.119303	0.310102
C61	C	0.973181	-0.625447	-0.353106
C62	C	1.306514	-0.292114	-0.019773
C63	C	1.639848	0.041219	0.313560
C64	C	0.284393	-0.334039	-0.334019
C65	C	0.617727	-0.000705	-0.000685
C66	C	0.951060	0.332628	0.332648
C67	C	0.357490	-0.337029	-0.337000
C68	C	0.690823	-0.003695	-0.003667
C69	C	1.024156	0.329638	0.329666
C70	C	0.390379	-0.381520	-0.381331
C71	C	0.723712	-0.048187	-0.047998
C72	C	1.057045	0.285147	0.285336
C73	C	0.350167	-0.423019	-0.422688
C74	C	0.683501	-0.089686	-0.089355
C75	C	1.016834	0.243648	0.243979
C76	C	0.277072	-0.420025	-0.419709
C77	C	0.610406	-0.086692	-0.086376
C78	C	0.943739	0.246641	0.246957
C79	C	0.610895	-0.392707	-0.392471
C80	C	0.944229	-0.059374	-0.059138
C81	C	1.277562	0.273959	0.274195
C82	C	0.683995	-0.395700	-0.395445
C83	C	1.017329	-0.062366	-0.062112
C84	C	1.350662	0.270967	0.271222
C85	C	0.691313	-0.309708	-0.309758
C86	C	1.024646	0.023626	0.023575
C87	C	1.357980	0.356959	0.356909
C88	C	0.618216	-0.306721	-0.306780
C89	C	0.951550	0.026613	0.026553
C90	C	1.284883	0.359946	0.359886
C91	C	0.578011	-0.348217	-0.348140
C92	C	0.911345	-0.014884	-0.014807
C93	C	1.244678	0.318450	0.318527
C94	C	0.465095	-0.384579	-0.384378
C95	C	0.798428	-0.051245	-0.051045
C96	C	1.131761	0.282088	0.282288
C97	C	0.503297	-0.345154	-0.345096
C98	C	0.836630	-0.011821	-0.011762
C99	C	1.169963	0.321512	0.321571
C100	C	0.953197	-1.067082	-0.331223
C101	C	1.286530	-0.733749	0.002111
C102	C	1.619863	-0.400415	0.335444
C103	C	0.956158	-0.993714	-0.334472
C104	C	1.289491	-0.660381	-0.001139
C105	C	1.622824	-0.327048	0.332195
C106	C	1.000544	-0.956800	-0.382889
C107	C	1.333877	-0.623467	-0.049555
C108	C	1.667210	-0.290133	0.283778
C109	C	1.041966	-0.993257	-0.428063
C110	C	1.375300	-0.659923	-0.094730
C111	C	1.708633	-0.326590	0.238603
C112	C	1.039002	-1.066623	-0.424817
C113	C	1.372335	-0.733289	-0.091484
C114	C	1.705668	-0.399956	0.241850
C115	C	1.011639	-0.735270	-0.395035
C116	C	1.344972	-0.401937	-0.061701
C117	C	1.678306	-0.068604	0.271632
C118	C	1.014602	-0.661899	-0.398276
C119	C	1.347936	-0.328566	-0.064943
C120	C	1.681269	0.004767	0.268390
C121	C	0.928792	-0.662362	-0.304685
C122	C	1.262125	-0.329028	0.028648
C123	C	1.595459	0.004305	0.361981
C124	C	0.925834	-0.735729	-0.301440
C125	C	1.259167	-0.402396	0.031893
C126	C	1.592501	-0.069063	0.365226
C127	C	0.967254	-0.772180	-0.346618
C128	C	1.300587	-0.438846	-0.013284
C129	C	1.633921	-0.105513	0.320049
C130	C	1.003573	-0.881807	-0.386210
C131	C	1.336906	-0.548473	-0.052876
C132	C	1.670239	-0.215140	0.280457
C133	C	0.964221	-0.847171	-0.343300
C134	C	1.297554	-0.513838	-0.009966
C135	C	1.630888	-0.180505	0.323367
C136	C	1.166394	-0.372342	-0.372185
C137	C	1.499727	-0.039009	-0.038852
C138	C	1.833061	0.294325	0.294482
C139	C	1.244188	-0.375536	-0.375371
C140	C	1.577521	-0.042203	-0.042037
C141	C	1.910854	0.291130	0.291296
C142	C	0.976408	-0.356664	-0.547935
C143	C	1.309742	-0.023330	-0.214602
C144	C	1.643075	0.310003	0.118731
C145	C	0.973241	-0.353177	-0.626015
C146	C	1.306575	-0.019843	-0.292682
C147	C	1.639908	0.313490	0.040651
C148	C	0.991397	-0.181616	-0.372902
C149	C	1.324731	0.151718	-0.039568
C150	C	1.658064	0.485051	0.293765
C151	C	0.994618	-0.103534	-0.376393
C152	C	1.327951	0.229800	-0.043059
C153	C	1.661285	0.563133	0.290274
C154	C	0.953180	-0.331116	-1.067630
C155	C	1.286513	0.002217	-0.734297
C156	C	1.619846	0.335550	-0.400963
C157	C	0.956159	-0.334390	-0.994266
C158	C	1.289492	-0.001057	-0.660932
C159	C	1.622825	0.332277	-0.327599
C160	C	1.000551	-0.382794	-0.957407
C161	C	1.333885	-0.049461	-0.624073
C162	C	1.667218	0.283873	-0.290740
C163	C	1.041972	-0.427922	-0.993916
C164	C	1.375306	-0.094589	-0.660583
C165	C	1.708639	0.238744	-0.327249
C166	C	1.038997	-0.424645	-1.067279
C167	C	1.372330	-0.091311	-0.733946
C168	C	1.705663	0.242022	-0.400613
C169	C	1.011687	-0.395027	-0.735888
C170	C	1.345020	-0.061694	-0.402555
C171	C	1.678353	0.271640	-0.069222
C172	C	1.014658	-0.398303	-0.662520
C173	C	1.347991	-0.064970	-0.329186
C174	C	1.681324	0.268364	0.004147
C175	C	0.928845	-0.304769	-0.662874
C176	C	1.262178	0.028564	-0.329541
C177	C	1.595511	0.361897	0.003792
C178	C	0.925870	-0.301499	-0.736239
C179	C	1.259203	0.031835	-0.402905
C180	C	1.592536	0.365168	-0.069572
C181	C	0.967293	-0.346624	-0.772742
C182	C	1.300627	-0.013291	-0.439409
C183	C	1.633960	0.320042	-0.106075
C184	C	1.003596	-0.386143	-0.882416
C185	C	1.336929	-0.052810	-0.549083
C186	C	1.670263	0.280524	-0.215750
C187	C	0.964252	-0.343271	-0.847731
C188	C	1.297585	-0.009938	-0.514398
C189	C	1.630919	0.323395	-0.181065
C190	C	0.991285	-0.372948	-0.182200
C191	C	1.324619	-0.039615	0.151134
C192	C	1.657952	0.293719	0.484467
C193	C	0.994596	-0.376242	-0.104134
C194	C	1.327929	-0.042909	0.229199
C195	C	1.661263	0.290424	0.562533
H196	H	0.257621	-0.297810	-0.297919
H197	H	0.590954	0.035524	0.035414
H198	H	0.924288	0.368857	0.368748
H199	H	0.724055	-0.275923	-0.276087
H200	H	1.057389	0.057411	0.057247
H201	H	1.390722	0.390744	0.390580
H202	H	1.078104	-0.963197	-0.467489
H203	H	1.411437	-0.629863	-0.134155
H204	H	1.744771	-0.296530	0.199178
F205	F	0.234282	-0.464190	-0.463724
F206	F	0.567616	-0.130857	-0.130391
F207	F	0.900949	0.202476	0.202942
F208	F	0.905958	-1.106363	-0.279687
F209	F	1.239292	-0.773030	0.053646
F210	F	1.572625	-0.439696	0.386979
H211	H	0.922429	-0.964036	-0.297692
H212	H	1.255762	-0.630702	0.035642
H213	H	1.589095	-0.297369	0.368975
F214	F	0.916980	-0.886459	-0.291777
F215	F	1.250313	-0.553126	0.041557
F216	F	1.583646	-0.219793	0.374890
H217	H	0.710771	-0.431930	-0.431548
H218	H	1.044104	-0.098597	-0.098215
H219	H	1.377438	0.234737	0.235119
H220	H	1.072726	-1.096300	-0.461604
H221	H	1.406059	-0.762967	-0.128271
H222	H	1.739392	-0.429634	0.205062
F223	F	1.055767	-0.443061	-0.774728
F224	F	1.389100	-0.109727	-0.441395
F225	F	1.722434	0.223606	-0.108061
H226	H	1.039714	-0.851745	-0.425630
H227	H	1.373048	-0.518412	-0.092297
H228	H	1.706381	-0.185078	0.241037
F229	F	0.905930	-0.279598	-1.106851
F230	F	1.239263	0.053735	-0.773518
F231	F	1.572597	0.387069	-0.440185
F232	F	0.917011	-0.291755	-0.886961
F233	F	1.250344	0.041578	-0.553628
F234	F	1.583677	0.374911	-0.220294
H235	H	0.889692	-0.765780	-0.262013
H236	H	1.223025	-0.432447	0.071320
H237	H	1.556358	-0.099114	0.404653
H238	H	0.578169	-0.426499	-0.426146
H239	H	0.911502	-0.093166	-0.092813
H240	H	1.244836	0.240167	0.240520
H241	H	0.390223	-0.303240	-0.303324
H242	H	0.723556	0.030093	0.030010
H243	H	1.056889	0.363427	0.363343
F244	F	0.884769	-0.256740	-0.624020
F245	F	1.218102	0.076593	-0.290687
F246	F	1.551436	0.409927	0.042646
F247	F	1.089224	-0.479433	-0.954686
F248	F	1.422557	-0.146099	-0.621353
F249	F	1.755891	0.187234	-0.288020
F250	F	0.385172	-0.470372	-0.469866
F251	F	0.718506	-0.137039	-0.136533
F252	F	1.051839	0.196294	0.196800
H253	H	0.591443	-0.270496	-0.270676
H254	H	0.924777	0.062837	0.062657
H255	H	1.258110	0.396170	0.395990
F256	F	1.083081	-0.472671	-1.106130
F257	F	1.416414	-0.139338	-0.772796
F258	F	1.749748	0.193995	-0.439463
F259	F	0.468292	-0.297802	-0.297921
F260	F	0.801626	0.035532	0.035413
F261	F	1.134959	0.368865	0.368746
F262	F	1.055717	-0.774053	-0.443122
F263	F	1.389050	-0.440720	-0.109789
F264	F	1.722383	-0.107387	0.223545
F265	F	1.061849	-0.622614	-0.449808
F266	F	1.395182	-0.289280	-0.116475
F267	F	1.728515	0.044053	0.216859
F268	F	0.912079	-0.286359	-0.955418
F269	F	1.245412	0.046974	-0.622085
F270	F	1.578745	0.380308	-0.288752
H271	H	0.491881	-0.420806	-0.420471
H272	H	0.825215	-0.087472	-0.087137
H273	H	1.158548	0.245861	0.246196
F274	F	1.050842	-0.437655	-0.843182
F275	F	1.384175	-0.104322	-0.509849
F276	F	1.717509	0.229011	-0.176515
H277	H	1.050824	-0.437708	-0.632512
H278	H	1.384158	-0.104374	-0.299179
H279	H	1.717491	0.228959	0.034154
F280	F	0.884711	-0.623564	-0.256610
F281	F	1.218044	-0.290230	0.076723
F282	F	1.551378	0.043103	0.410057
F283	F	0.878588	-0.250011	-0.775459
F284	F	1.211921	0.083322	-0.442125
F285	F	1.545254	0.416655	-0.108792
