data_functionalizedCrystal
_audit_creation_method	'MofGen! by Chris Wilmer'
_symmetry_space_group_name_H-M	'P1'
_symmetry_Int_Tables_number	1
_symmetry_cell_setting	triclinic
loop_
_symmetry_equiv_pos_as_xyz
  x,y,z
_cell_length_a	18.050591
_cell_length_b	18.050589
_cell_length_c	18.215399
_cell_angle_alpha	89.976397
_cell_angle_beta	89.974300
_cell_angle_gamma	90.024227
loop_
_atom_site_label
_atom_site_type_symbol
_atom_site_fract_x
_atom_site_fract_y
_atom_site_fract_z
Zn1	Zn	1.135328	-0.295746	-0.416253
Zn2	Zn	1.135228	-0.419941	-0.293196
Zn3	Zn	1.011136	-0.295761	-0.293188
Zn4	Zn	1.011095	-0.419890	-0.416209
O5	O	1.073197	-0.357835	-0.354712
O6	O	1.239239	-0.312236	-0.399952
O7	O	1.118743	-0.403496	-0.190211
O8	O	1.027670	-0.191834	-0.309528
O9	O	1.239166	-0.403482	-0.309542
O10	O	1.118912	-0.191824	-0.399944
O11	O	1.027573	-0.312261	-0.190205
O12	O	0.907206	-0.312212	-0.309485
O13	O	1.027599	-0.403395	-0.519199
O14	O	0.907176	-0.403409	-0.399868
O15	O	1.118872	-0.312187	-0.519232
O16	O	1.118702	-0.523859	-0.309499
O17	O	1.027502	-0.523822	-0.399876
C18	C	0.880245	-0.357807	-0.354671
C19	C	0.797699	-0.357813	-0.354671
C20	C	0.598243	-0.308162	-0.305634
C21	C	0.548822	-0.375900	-0.287528
C22	C	0.646568	-0.357836	-0.354704
C23	C	0.548908	-0.290121	-0.372808
C24	C	0.500583	-0.357851	-0.354735
C25	C	0.598234	-0.425609	-0.336563
C26	C	0.598325	-0.339784	-0.421874
C27	C	0.548926	-0.407569	-0.403794
C28	C	0.730667	-0.357825	-0.354685
C29	C	0.416487	-0.357869	-0.354755
C30	C	1.073107	-0.550787	-0.354699
C31	C	1.073137	-0.633333	-0.354719
C32	C	1.023591	-0.832790	-0.403848
C33	C	1.005487	-0.882229	-0.336692
C34	C	1.073210	-0.784463	-0.354728
C35	C	1.091350	-0.882105	-0.421892
C36	C	1.073279	-0.930448	-0.354743
C37	C	1.055070	-0.832815	-0.287537
C38	C	1.140964	-0.832687	-0.372782
C39	C	1.122886	-0.882104	-0.305579
C40	C	1.073168	-0.700365	-0.354721
C41	C	1.073320	-1.014544	-0.354744
C42	C	1.266902	-0.357863	-0.354753
C43	C	1.349448	-0.357875	-0.354770
C44	C	1.073242	-0.357783	-0.546665
C45	C	1.073261	-0.357762	-0.628463
C46	C	1.073307	-0.164129	-0.354740
C47	C	1.073354	-0.081583	-0.354752
C48	C	1.120804	-0.310225	-0.816676
C49	C	1.120813	-0.310203	-0.893535
C50	C	1.025771	-0.405183	-0.893489
C51	C	1.025759	-0.405201	-0.816632
C52	C	1.073280	-0.357723	-0.778227
C53	C	1.073301	-0.357684	-0.931943
C54	C	1.073310	-0.357660	-1.015277
C55	C	1.073270	-0.357745	-0.694888
C56	C	1.073194	-0.357832	-0.163505
C57	C	1.073319	-0.357645	-0.081707
H58	H	0.620085	-0.324484	-0.478648
H59	H	0.619897	-0.266201	-0.264092
C60	C	0.519442	-0.396539	-0.210808
N61	N	0.497314	-0.412078	-0.153020
H62	H	0.987082	-0.443840	-0.924768
C63	C	0.519639	-0.212750	-0.393480
N64	N	0.497596	-0.154472	-0.409046
H65	H	0.619812	-0.482897	-0.321201
H66	H	0.987053	-0.443878	-0.785326
C67	C	1.173096	-0.257954	-0.935825
N68	N	1.212478	-0.218598	-0.967677
C69	C	0.966821	-0.803529	-0.459883
N70	N	0.924060	-0.781486	-0.502084
C71	C	0.928120	-0.911628	-0.316066
N72	N	0.869846	-0.933769	-0.300536
C73	C	0.519847	-0.464392	-0.459869
N74	N	0.497942	-0.507194	-0.502100
C75	C	1.173072	-0.257992	-0.774433
N76	N	1.212439	-0.218645	-0.742618
H77	H	1.164877	-0.903620	-0.263999
C78	C	1.034287	-0.803688	-0.210790
N79	N	1.018629	-0.781748	-0.152987
C80	C	1.218304	-0.803253	-0.393442
N81	N	1.276554	-0.781078	-0.409014
C82	C	1.112041	-0.911355	-0.498617
N83	N	1.127621	-0.933383	-0.556408
