data_functionalizedCrystal
_audit_creation_method	'MofGen! by Chris Wilmer'
_symmetry_space_group_name_H-M	'P1'
_symmetry_Int_Tables_number	1
_symmetry_cell_setting	triclinic
loop_
_symmetry_equiv_pos_as_xyz
  x,y,z
_cell_length_a	23.532407
_cell_length_b	11.792241
_cell_length_c	10.868271
_cell_angle_alpha	89.994719
_cell_angle_beta	90.001021
_cell_angle_gamma	83.521047
loop_
_atom_site_label
_atom_site_type_symbol
_atom_site_fract_x
_atom_site_fract_y
_atom_site_fract_z
O1	O	0.756076	0.137772	-0.102169
O2	O	0.590331	0.157706	-0.102205
O3	O	0.677225	-0.017526	-0.102178
O4	O	0.669181	0.313004	-0.102197
O5	O	0.677218	-0.017533	0.102467
O6	O	0.590323	0.157699	0.102439
O7	O	0.756069	0.137765	0.102475
Zn8	Zn	0.673195	0.147731	0.134949
Zn9	Zn	0.673204	0.147740	-0.134679
O10	O	0.669174	0.312997	0.102448
C11	C	0.676716	-0.059809	0.000144
C12	C	0.675204	-0.185787	0.000142
C13	C	0.569108	0.157195	0.000112
C14	C	0.505882	0.155669	0.000099
C15	C	0.672423	-0.416434	0.000121
C16	C	0.673968	-0.288085	0.000133
C17	C	0.107337	0.249795	0.000149
C18	C	0.047928	0.248377	0.000157
O19	O	0.011701	0.335633	0.000196
N20	N	0.024684	0.144202	0.000161
C21	C	0.060853	0.041437	0.000169
O22	O	0.035627	-0.047303	0.000175
C23	C	0.120260	0.042856	0.000171
C24	C	0.143501	0.147038	0.000154
C25	C	0.130577	0.353969	0.000134
C26	C	0.189982	0.355386	0.000124
C27	C	0.226146	0.252630	0.000129
C28	C	0.202905	0.148456	0.000144
C29	C	0.156428	-0.059907	0.000188
C30	C	0.215839	-0.058479	0.000190
C31	C	0.239079	0.045703	0.000174
C32	C	0.298474	0.047116	0.000140
N33	N	0.321717	0.151292	0.000136
C34	C	0.285553	0.254049	0.000130
C35	C	-0.063907	0.038465	0.000169
C36	C	-0.123313	0.037045	0.000159
C37	C	-0.136234	0.243985	0.000149
C38	C	-0.076827	0.245404	0.000150
C39	C	-0.040664	0.142641	0.000165
C40	C	0.410308	0.257017	0.000109
C41	C	0.469718	0.258425	0.000094
C42	C	0.482634	0.051485	0.000111
C43	C	0.423229	0.050077	0.000119
C44	C	0.387066	0.152852	0.000122
O45	O	0.334736	-0.040094	0.000105
O46	O	0.310787	0.342774	0.000141
C47	C	0.777291	0.138276	0.000155
C48	C	0.840517	0.139802	0.000160
C49	C	0.669683	0.355280	0.000123
C50	C	0.671195	0.481258	0.000117
N51	N	0.673193	0.147724	0.318963
N52	N	0.673211	0.147737	-0.318693
C53	C	0.673201	0.147737	0.569969
C54	C	0.673195	0.147733	0.430292
H55	H	0.380871	0.340707	0.000115
H56	H	-0.034466	-0.045223	0.000171
C57	C	0.521973	-0.059987	-0.000071
C58	C	0.556466	-0.065201	-0.105339
C59	C	0.592719	-0.167865	-0.105529
H60	H	0.499700	-0.122337	-0.000123
H61	H	0.545450	-0.063730	0.071258
H62	H	0.532992	-0.061470	-0.176648
H63	H	0.578751	-0.002875	-0.105309
H64	H	0.616197	-0.171608	-0.034201
H65	H	0.570442	-0.230207	-0.105578
H66	H	0.616131	-0.171412	-0.176946
C67	C	-0.051708	0.358634	0.000205
C68	C	-0.096101	0.448311	0.000226
C69	C	-0.072987	0.552638	0.000296
H70	H	-0.028809	0.363659	-0.071138
H71	H	-0.028819	0.363553	0.071600
H72	H	-0.118980	0.443394	-0.071162
H73	H	-0.119003	0.443324	0.071563
H74	H	-0.050098	0.557558	0.071692
H75	H	-0.050088	0.557652	-0.071047
H76	H	-0.103104	0.613497	0.000322
H77	H	-0.165690	0.327655	0.000150
H78	H	0.101138	0.437650	0.000134
H79	H	-0.142230	-0.047791	0.000153
H80	H	0.137517	-0.144743	0.000203
C81	C	0.215099	0.468618	0.000186
C82	C	0.170703	0.558291	0.000221
C83	C	0.193814	0.662621	0.000301
H84	H	0.237996	0.473653	-0.071156
H85	H	0.237988	0.473533	0.071581
H86	H	0.147824	0.553378	-0.071167
H87	H	0.147802	0.553294	0.071558
H88	H	0.216704	0.667536	0.071696
H89	H	0.216711	0.667644	-0.071043
H90	H	0.163696	0.723477	0.000336
C91	C	0.255169	-0.169970	0.000009
C92	C	0.289659	-0.175192	-0.105265
C93	C	0.325901	-0.277870	-0.105469
H94	H	0.232888	-0.232308	-0.000045
H95	H	0.278649	-0.173729	0.071333
H96	H	0.266181	-0.171444	-0.176570
H97	H	0.311952	-0.112878	-0.105233
H98	H	0.349381	-0.281630	-0.034145
H99	H	0.303615	-0.340200	-0.105520
H100	H	0.349310	-0.281423	-0.176890
H101	H	0.404306	-0.034757	0.000114
H102	H	0.488636	0.343267	0.000079
