data_functionalizedCrystal
_audit_creation_method	'MofGen! by Chris Wilmer'
_symmetry_space_group_name_H-M	'P1'
_symmetry_Int_Tables_number	1
_symmetry_cell_setting	triclinic
loop_
_symmetry_equiv_pos_as_xyz
  x,y,z
_cell_length_a	19.188933
_cell_length_b	26.809956
_cell_length_c	27.732048
_cell_angle_alpha	90.009578
_cell_angle_beta	82.894112
_cell_angle_gamma	90.014641
loop_
_atom_site_label
_atom_site_type_symbol
_atom_site_fract_x
_atom_site_fract_y
_atom_site_fract_z
O1	O	0.925771	0.041468	0.060351
O2	O	1.425771	0.541468	0.560351
O3	O	0.722408	0.041474	0.068473
O4	O	1.222408	0.541474	0.568473
O5	O	0.830405	0.041461	-0.005965
O6	O	1.330405	0.541461	0.494035
O7	O	0.817773	0.041481	0.134789
O8	O	1.317773	0.541481	0.634789
O9	O	0.830372	-0.041498	-0.005966
O10	O	1.330372	0.458502	0.494034
O11	O	0.722375	-0.041486	0.068473
O12	O	1.222375	0.458514	0.568473
O13	O	0.925738	-0.041491	0.060350
O14	O	1.425738	0.458509	0.560350
Zn15	Zn	0.824051	-0.054660	0.064412
Zn16	Zn	1.324051	0.445340	0.564412
Zn17	Zn	0.824095	0.054643	0.064412
Zn18	Zn	1.324095	0.554643	0.564412
O19	O	0.817740	-0.041479	0.134789
O20	O	1.317740	0.458521	0.634789
C21	C	0.696382	-0.000005	0.068210
C22	C	1.196382	0.499995	0.568210
C23	C	0.618883	-0.000004	0.067420
C24	C	1.118883	0.499996	0.567420
C25	C	0.065681	0.045211	0.061781
C26	C	0.565681	0.545211	0.561781
C27	C	0.138501	0.045213	0.062520
C28	C	0.638501	0.545213	0.562520
C29	C	0.174897	-0.000008	0.062892
C30	C	0.674897	0.499992	0.562892
C31	C	0.138471	-0.045234	0.062512
C32	C	0.638471	0.454766	0.562512
C33	C	0.065654	-0.045235	0.061768
C34	C	0.565654	0.454765	0.561768
N35	N	0.283721	-0.033664	0.091567
N36	N	0.783721	0.466336	0.591567
N37	N	0.352894	-0.033660	0.092275
N38	N	0.852894	0.466340	0.592275
C39	C	0.394292	-0.000008	0.065134
C40	C	0.894292	0.499992	0.565134
N41	N	0.363902	0.033647	0.037264
N42	N	0.863902	0.533647	0.537264
N43	N	0.294722	0.033645	0.036558
N44	N	0.794722	0.533645	0.536558
C45	C	0.253856	-0.000012	0.063699
C46	C	0.753856	0.499988	0.563699
C47	C	0.509669	0.045217	0.066312
C48	C	1.009669	0.545217	0.566312
C49	C	0.582491	0.045218	0.067049
C50	C	1.082491	0.545218	0.567049
C51	C	0.582459	-0.045231	0.067046
C52	C	1.082459	0.454769	0.567046
C53	C	0.509640	-0.045230	0.066304
C54	C	1.009640	0.454770	0.566304
C55	C	0.473249	-0.000004	0.065940
C56	C	0.973249	0.499996	0.565940
N57	N	0.824027	-0.129256	0.064411
N58	N	1.324027	0.370744	0.564411
C59	C	0.866113	-0.473879	0.093651
C60	C	1.366113	0.026121	0.593651
C61	C	0.866136	-0.682756	0.093651
C62	C	1.366136	-0.182756	0.593651
O63	O	0.901901	-0.709758	0.118506
O64	O	1.401901	-0.209758	0.618506
N65	N	0.824111	-0.708883	0.064407
N66	N	1.324111	-0.208883	0.564407
C67	C	0.782082	-0.682787	0.035159
C68	C	1.282082	-0.182787	0.535159
O69	O	0.746343	-0.709801	0.010281
O70	O	1.246343	-0.209801	0.510281
C71	C	0.782063	-0.473910	0.035157
C72	C	1.282063	0.026090	0.535157
C73	C	0.824085	-0.447786	0.064406
C74	C	1.324085	0.052214	0.564406
C75	C	0.908132	-0.447755	0.122898
C76	C	1.408132	0.052245	0.622898
C77	C	0.908123	-0.395539	0.122900
C78	C	1.408123	0.104461	0.622900
C79	C	0.866095	-0.369446	0.093655
C80	C	1.366095	0.130554	0.593655
C81	C	0.824076	-0.395570	0.064408
C82	C	1.324076	0.104430	0.564408
C83	C	0.740038	-0.447815	0.005906
C84	C	1.240038	0.052185	0.505906
C85	C	0.740039	-0.395592	0.005907
C86	C	1.240039	0.104408	0.505907
C87	C	0.782060	-0.369468	0.035157
C88	C	1.282060	0.130532	0.535157
C89	C	0.782039	-0.317261	0.035165
C90	C	1.282039	0.182739	0.535165
N91	N	0.824064	-0.291135	0.064409
N92	N	1.324064	0.208865	0.564409
C93	C	0.866092	-0.317227	0.093654
C94	C	1.366092	0.182773	0.593654
C95	C	0.782093	-0.792450	0.035162
C96	C	1.282093	-0.292450	0.535162
C97	C	0.782097	-0.844669	0.035163
C98	C	1.282097	-0.344669	0.535163
C99	C	0.866152	-0.844635	0.093655
C100	C	1.366152	-0.344635	0.593655
C101	C	0.866144	-0.792415	0.093656
C102	C	1.366144	-0.292415	0.593656
C103	C	0.824118	-0.766324	0.064406
C104	C	1.324118	-0.266324	0.564406
C105	C	0.866069	-0.207569	0.093656
C106	C	1.366069	0.292431	0.593656
C107	C	0.866054	-0.155348	0.093656
C108	C	1.366054	0.344652	0.593656
C109	C	0.782002	-0.155387	0.035163
C110	C	1.282002	0.344613	0.535163
C111	C	0.782014	-0.207603	0.035164
C112	C	1.282014	0.292397	0.535164
C113	C	0.824053	-0.233693	0.064412
C114	C	1.324053	0.266307	0.564412
O115	O	0.746299	-0.290228	0.010318
O116	O	1.246299	0.209772	0.510318
O117	O	0.901837	-0.290203	0.118520
O118	O	1.401837	0.209797	0.618520
C119	C	0.866122	-0.526095	0.093650
C120	C	1.366122	-0.026095	0.593650
C121	C	0.824103	-0.552219	0.064403
C122	C	1.324103	-0.052219	0.564403
C123	C	0.782075	-0.526126	0.035158
C124	C	1.282075	-0.026126	0.535158
C125	C	0.824107	-0.604438	0.064404
C126	C	1.324107	-0.104438	0.564404
C127	C	0.866135	-0.630530	0.093649
C128	C	1.366135	-0.130530	0.593649
C129	C	0.908159	-0.604404	0.122893
C130	C	1.408159	-0.104404	0.622893
C131	C	0.908150	-0.552188	0.122895
C132	C	1.408150	-0.052188	0.622895
C133	C	0.740051	-0.552253	0.005914
C134	C	1.240051	-0.052253	0.505914
C135	C	0.740063	-0.604469	0.005915
C136	C	1.240063	-0.104469	0.505915
C137	C	0.782091	-0.630561	0.035160
C138	C	1.282091	-0.130561	0.535160
C139	C	0.951764	-0.000011	0.060614
C140	C	1.451764	0.499989	0.560614
C141	C	1.029263	-0.000009	0.061404
C142	C	1.529263	0.499991	0.561404
C143	C	0.830124	-0.000020	-0.023973
C144	C	1.330124	0.499980	0.476027
C145	C	0.829325	-0.000024	-0.077631
C146	C	1.329325	0.499976	0.422369
N147	N	0.824125	0.129239	0.064408
N148	N	1.324125	0.629239	0.564408
C149	C	0.888118	0.000000	-0.416266
C150	C	1.388118	0.500000	0.083734
C151	C	0.885156	0.000007	-0.617934
C152	C	1.385156	0.500007	-0.117934
O153	O	0.938917	0.000028	-0.649025
O154	O	1.438917	0.500028	-0.149025
N155	N	0.821118	0.000009	-0.637254
N156	N	1.321118	0.500009	-0.137254
C157	C	0.757816	0.000011	-0.606153
C158	C	1.257816	0.500011	-0.106153
O159	O	0.703279	0.000018	-0.627213
O160	O	1.203279	0.500018	-0.127213
C161	C	0.760779	0.000008	-0.404486
C162	C	1.260779	0.500008	0.095514
C163	C	0.824821	0.000002	-0.385169
C164	C	1.324821	0.500002	0.114831
C165	C	0.952155	-0.000005	-0.396948
C166	C	1.452155	0.499995	0.103052
C167	C	0.952895	-0.000010	-0.346534
C168	C	1.452895	0.499990	0.153466
C169	C	0.889598	-0.000009	-0.315437
C170	C	1.389598	0.499991	0.184563
C171	C	0.825561	-0.000003	-0.334755
C172	C	1.325561	0.499997	0.165245
C173	C	0.697478	0.000014	-0.373386
C174	C	1.197478	0.500014	0.126614
C175	C	0.698224	0.000015	-0.322966
C176	C	1.198224	0.500015	0.177034
C177	C	0.762266	0.000008	-0.303649
C178	C	1.262266	0.500008	0.196351
C179	C	0.763004	-0.000006	-0.253243
C180	C	1.263004	0.499994	0.246757
N181	N	0.827042	-0.000007	-0.233924
N182	N	1.327042	0.499993	0.266076
C183	C	0.890339	-0.000009	-0.265021
C184	C	1.390339	0.499991	0.234979
C185	C	0.756264	0.000012	-0.712032
C186	C	1.256264	0.500012	-0.212032
C187	C	0.755523	0.000012	-0.762449
C188	C	1.255523	0.500012	-0.262449
C189	C	0.882864	0.000009	-0.774226
C190	C	1.382864	0.500009	-0.274226
C191	C	0.883604	0.000006	-0.723809
C192	C	1.383604	0.500006	-0.223809
C193	C	0.820302	0.000011	-0.692712
C194	C	1.320302	0.500011	-0.192712
C195	C	0.891888	-0.000018	-0.159147
C196	C	1.391888	0.499982	0.340853
C197	C	0.892622	-0.000025	-0.108727
C198	C	1.392622	0.499975	0.391273
C199	C	0.765282	-0.000019	-0.096954
C200	C	1.265282	0.499981	0.403046
C201	C	0.764548	-0.000015	-0.147369
C202	C	1.264548	0.499985	0.352631
C203	C	0.827856	-0.000013	-0.178464
C204	C	1.327856	0.499987	0.321536
O205	O	0.709271	-0.000021	-0.222124
O206	O	1.209271	0.499979	0.277876
O207	O	0.944867	-0.000004	-0.243951
O208	O	1.444867	0.499996	0.256049
C209	C	0.887378	0.000005	-0.466680
C210	C	1.387378	0.500005	0.033320
C211	C	0.823341	0.000011	-0.485997
C212	C	1.323341	0.500011	0.014003
C213	C	0.760044	0.000012	-0.454900
C214	C	1.260044	0.500012	0.045100
C215	C	0.822600	0.000011	-0.536414
C216	C	1.322600	0.500011	-0.036414
C217	C	0.885897	0.000009	-0.567511
C218	C	1.385897	0.500009	-0.067511
C219	C	0.949935	0.000008	-0.548191
C220	C	1.449935	0.500008	-0.048191
C221	C	0.950675	0.000004	-0.497777
C222	C	1.450675	0.500004	0.002223
C223	C	0.696006	0.000013	-0.474220
C224	C	1.196006	0.500013	0.025780
C225	C	0.695271	0.000017	-0.524635
C226	C	1.195271	0.500017	-0.024635
C227	C	0.758568	0.000016	-0.555732
C228	C	1.258568	0.500016	-0.055732
C229	C	0.818022	0.000004	0.152797
C230	C	1.318022	0.500004	0.652797
C231	C	0.818820	0.000011	0.206454
C232	C	1.318820	0.500011	0.706454
H233	H	0.900273	-0.134081	0.117477
H234	H	1.400273	0.365919	0.617477
Cl235	Cl	0.676677	0.000018	-0.672946
Cl236	Cl	1.176677	0.500018	-0.172946
H237	H	0.943440	-0.000015	-0.184459
H238	H	1.443440	0.499985	0.315541
Cl239	Cl	0.687207	-0.362794	-0.030870
Cl240	Cl	1.187207	0.137206	0.469130
Cl241	Cl	0.463919	0.102071	0.065851
Cl242	Cl	0.963919	0.602071	0.565851
H243	H	0.612142	0.082043	0.067352
H244	H	1.112142	0.582043	0.567352
H245	H	0.942369	-0.530922	0.146713
H246	H	1.442369	-0.030922	0.646713
H247	H	0.036002	-0.082060	0.061463
H248	H	0.536002	0.417940	0.561463
Cl249	Cl	0.019937	0.102066	0.061319
Cl250	Cl	0.519937	0.602066	0.561319
H251	H	0.612093	-0.082051	0.067347
H252	H	1.112093	0.417949	0.567347
Cl253	Cl	0.184293	0.102066	0.062996
Cl254	Cl	0.684293	0.602066	0.562996
H255	H	0.646675	0.000020	-0.297649
H256	H	1.146675	0.500020	0.202351
H257	H	0.479987	-0.082053	0.065999
H258	H	0.979987	0.417947	0.565999
Cl259	Cl	0.729180	-0.240445	-0.001603
Cl260	Cl	1.229180	0.259555	0.498397
H261	H	1.005045	-0.000013	-0.330811
H262	H	1.505045	0.499987	0.169189
H263	H	0.900302	-0.228806	0.117472
H264	H	1.400302	0.271194	0.617472
Cl265	Cl	0.960974	-0.480548	0.159669
Cl266	Cl	1.460974	0.019452	0.659669
H267	H	0.942345	-0.374274	0.146716
H268	H	1.442345	0.125726	0.646716
Cl269	Cl	0.616962	0.000025	-0.397657
Cl270	Cl	1.116962	0.500025	0.102343
Cl271	Cl	0.729169	-0.122575	-0.001600
Cl272	Cl	1.229169	0.377425	0.498400
H273	H	0.900362	-0.771149	0.117474
H274	H	1.400362	-0.271149	0.617474
Cl275	Cl	0.675010	0.000010	-0.786726
Cl276	Cl	1.175010	0.500010	-0.286726
H277	H	0.747870	-0.865934	0.011351
H278	H	1.247870	-0.365934	0.511351
H279	H	0.643117	0.000018	-0.540357
H280	H	1.143117	0.500018	-0.040357
Cl281	Cl	0.918989	-0.877447	0.130418
Cl282	Cl	1.418989	-0.377447	0.630418
H283	H	0.168110	-0.082053	0.062814
H284	H	0.668110	0.417947	0.562814
H285	H	1.003702	-0.000005	-0.422263
H286	H	1.503702	0.499995	0.077737
Cl287	Cl	0.729240	-0.759656	-0.001603
Cl288	Cl	1.229240	-0.259656	0.498397
H289	H	0.712399	-0.000024	-0.163097
H290	H	1.212399	0.499976	0.336903
Cl291	Cl	0.687207	-0.480643	-0.030867
Cl292	Cl	1.187207	0.019357	0.469133
Cl293	Cl	0.960991	-0.637216	0.159659
Cl294	Cl	1.460991	-0.137216	0.659659
Cl295	Cl	0.687226	-0.637304	-0.030857
Cl296	Cl	1.187226	-0.137304	0.469143
H297	H	0.705827	-0.531013	-0.017902
H298	H	1.205827	-0.031013	0.482098
H299	H	0.713748	-0.000020	-0.071626
H300	H	1.213748	0.499980	0.428374
Cl301	Cl	1.031190	-0.000000	-0.473501
Cl302	Cl	1.531190	0.500000	0.026499
Cl303	Cl	0.964117	-0.000002	-0.699530
Cl304	Cl	1.464117	0.499998	-0.199530
Cl305	Cl	0.973139	-0.000032	-0.084447
Cl306	Cl	1.473139	0.499968	0.415553
H307	H	0.934403	0.000008	-0.799554
H308	H	1.434403	0.500008	-0.299554
H309	H	1.001474	0.000005	-0.573519
H310	H	1.501474	0.500005	-0.073519
H311	H	0.644461	0.000015	-0.448905
H312	H	1.144461	0.500015	0.051095
