data_functionalizedCrystal
_audit_creation_method	'MofGen! by Chris Wilmer'
_symmetry_space_group_name_H-M	'P1'
_symmetry_Int_Tables_number	1
_symmetry_cell_setting	triclinic
loop_
_symmetry_equiv_pos_as_xyz
  x,y,z
_cell_length_a	17.019383
_cell_length_b	17.038272
_cell_length_c	11.804365
_cell_angle_alpha	102.699962
_cell_angle_beta	74.400379
_cell_angle_gamma	87.246883
loop_
_atom_site_label
_atom_site_type_symbol
_atom_site_fract_x
_atom_site_fract_y
_atom_site_fract_z
O1	O	1.084926	0.066120	-0.210173
O2	O	1.584926	0.566120	0.289827
O3	O	0.852540	0.082607	-0.186369
O4	O	1.352540	0.582607	0.313631
O5	O	0.967351	-0.039426	-0.198120
O6	O	1.467351	0.460574	0.301880
O7	O	0.970116	0.188154	-0.198422
O8	O	1.470116	0.688154	0.301578
O9	O	0.937123	-0.007331	0.003030
O10	O	1.437123	0.492669	0.503030
O11	O	0.822312	0.114702	0.014781
O12	O	1.322312	0.614702	0.514781
O13	O	1.054699	0.098215	-0.009023
O14	O	1.554699	0.598215	0.490977
Cu15	Cu	0.935746	0.109389	0.021245
Cu16	Cu	1.435746	0.609389	0.521245
Cu17	Cu	0.971493	0.071433	-0.216637
Cu18	Cu	1.471493	0.571433	0.283363
O19	O	0.939888	0.220249	0.002728
O20	O	1.439888	0.720249	0.502728
C21	C	0.807545	0.098660	-0.082733
C22	C	1.307545	0.598660	0.417267
C23	C	0.718509	0.098666	-0.073612
C24	C	1.218509	0.598666	0.426388
C25	C	0.949724	-0.052464	-0.097288
C26	C	1.449724	0.447536	0.402712
C27	C	0.942229	-0.139129	-0.096520
C28	C	1.442229	0.360871	0.403480
C29	C	0.693148	0.081177	-0.178965
C30	C	1.193148	0.581177	0.321035
C31	C	0.609485	0.081199	-0.170378
C32	C	1.109485	0.581199	0.329622
C33	C	0.551185	0.098703	-0.056436
C34	C	1.051185	0.598703	0.443564
C35	C	0.576550	0.116196	0.048925
C36	C	1.076550	0.616196	0.548925
C37	C	0.660211	0.116180	0.040336
C38	C	1.160211	0.616180	0.540336
C39	C	0.297758	0.099631	-0.025018
C40	C	0.797758	0.599631	0.474982
C41	C	0.214093	0.099643	-0.016437
C42	C	0.714093	0.599643	0.483563
C43	C	0.247033	0.064648	-0.235741
C44	C	0.747033	0.564648	0.264259
C45	C	0.330694	0.064629	-0.244319
C46	C	0.830694	0.564629	0.255681
C47	C	0.356052	0.082125	-0.138959
C48	C	0.856052	0.582125	0.361041
C49	C	0.465668	0.098723	-0.047655
C50	C	0.965668	0.598723	0.452345
C51	C	0.441568	0.082111	-0.147740
C52	C	0.941568	0.582111	0.352260
C53	C	1.011047	-0.190422	-0.103568
C54	C	1.511047	0.309578	0.396432
C55	C	1.004001	-0.271854	-0.102858
C56	C	1.504001	0.228146	0.397142
C57	C	0.928135	-0.301989	-0.095091
C58	C	1.428135	0.198011	0.404909
C59	C	0.859312	-0.250690	-0.088046
C60	C	1.359312	0.249310	0.411954
C61	C	0.866360	-0.169261	-0.088765
C62	C	1.366360	0.330739	0.411235
C63	C	0.903237	-0.547323	-0.092557
C64	C	1.403237	-0.047323	0.407443
C65	C	0.896193	-0.628757	-0.091834
C66	C	1.396193	-0.128757	0.408166
C67	C	1.040883	-0.649916	-0.106649
C68	C	1.540883	-0.149916	0.393351
C69	C	1.047924	-0.568484	-0.107360
C70	C	1.547924	-0.068484	0.392640
C71	C	0.979102	-0.517193	-0.100321
C72	C	1.479102	-0.017193	0.399679
C73	C	0.920930	-0.385224	-0.094360
C74	C	1.420930	0.114776	0.405640
C75	C	0.986308	-0.433960	-0.101060
C76	C	1.486308	0.066040	0.398940
C77	C	1.099694	0.082162	-0.112662
C78	C	1.599694	0.582162	0.387338
C79	C	1.188732	0.082155	-0.121790
C80	C	1.688732	0.582155	0.378210
C81	C	0.957515	0.233286	-0.098107
C82	C	1.457515	0.733286	0.401893
C83	C	0.965011	0.319949	-0.098882
C84	C	1.465011	0.819949	0.401118
N85	N	0.910609	0.136085	0.188559
N86	N	1.410609	0.636085	0.688559
N87	N	0.996636	0.044731	-0.383951
N88	N	1.496636	0.544731	0.116049
C89	C	1.056998	-0.019390	0.547524
C90	C	1.556998	0.480610	1.047524
C91	C	1.076013	-0.039588	0.420916
C92	C	1.576013	0.460412	0.920916
C93	C	1.034663	0.004328	0.362821
C94	C	1.534663	0.504328	0.862821
C95	C	0.974296	0.068447	0.431346
C96	C	1.474296	0.568447	0.931346
C97	C	0.955284	0.088652	0.557965
C98	C	1.455284	0.588652	1.057965
C99	C	0.932949	0.112369	0.373262
C100	C	1.432949	0.612369	0.873262
C101	C	0.872581	0.176488	0.441787
C102	C	1.372581	0.676488	0.941787
C103	C	0.853572	0.196689	0.568394
C104	C	1.353572	0.696689	1.068394
C105	C	0.894921	0.152773	0.626490
C106	C	1.394921	0.652773	1.126490
C107	C	0.951961	0.092165	0.246642
C108	C	1.451961	0.592165	0.746642
C109	C	0.850247	0.200206	0.257083
C110	C	1.350247	0.700206	0.757083
C111	C	0.831232	0.220405	0.383691
C112	C	1.331232	0.720405	0.883691
H113	H	0.740611	0.066921	-0.271749
H114	H	1.240611	0.566921	0.228251
Br115	Br	0.749305	0.307420	0.476701
Br116	Br	1.249305	0.807420	0.976701
Br117	Br	0.794131	0.259816	0.178248
Br118	Br	1.294131	0.759816	0.678248
H119	H	1.001113	0.039960	0.190860
H120	H	1.501113	0.539960	0.690860
H121	H	1.096914	-0.691686	-0.112381
H122	H	1.596914	-0.191686	0.387619
H123	H	0.804424	0.248904	0.624187
H124	H	1.304424	0.748904	1.124187
H125	H	1.072824	-0.165892	-0.109886
H126	H	1.572824	0.334108	0.390114
Br127	Br	0.332162	0.123378	0.117973
Br128	Br	0.832162	0.623378	0.617973
H129	H	0.588841	0.066958	-0.256167
H130	H	1.088841	0.566958	0.243833
H131	H	0.797541	-0.275233	-0.081729
H132	H	1.297541	0.224767	0.418271
H133	H	0.378159	0.050369	-0.337103
H134	H	0.878159	0.550369	0.162897
H135	H	0.226376	0.050405	-0.321519
H136	H	0.726376	0.550405	0.178481
Br137	Br	0.134971	0.123381	0.138208
Br138	Br	0.634971	0.623381	0.638208
H139	H	0.529075	0.130453	0.141699
H140	H	1.029075	0.630453	0.641699
Br141	Br	0.869107	0.180182	0.798323
Br142	Br	1.369107	0.680182	1.298323
Br143	Br	1.060469	-0.023085	0.190993
Br144	Br	1.560469	0.476915	0.690993
H145	H	1.060040	-0.313614	-0.108595
H146	H	1.560040	0.186386	0.391405
Br147	Br	0.694630	0.139922	0.183321
Br148	Br	1.194630	0.639922	0.683321
Br149	Br	0.772962	-0.099648	-0.079209
Br150	Br	1.272962	0.400352	0.420791
Br151	Br	1.157938	-0.126599	0.327920
Br152	Br	1.657938	0.373401	0.827920
H153	H	1.090664	-0.055137	0.594834
H154	H	1.590664	0.444863	1.094834
H155	H	0.489039	0.067864	-0.240511
H156	H	0.989039	0.567864	0.259489
H157	H	0.418191	0.112973	0.045116
H158	H	0.918191	0.612973	0.545116
Br159	Br	1.150895	-0.527598	-0.117941
Br160	Br	1.650895	-0.027598	0.382059
Br161	Br	1.089268	-0.393063	-0.111612
Br162	Br	1.589268	0.106937	0.388388
H163	H	0.834408	-0.653286	-0.085489
H164	H	1.334408	-0.153286	0.414511
H165	H	0.847196	-0.505571	-0.086825
H166	H	1.347196	-0.005571	0.413175
Br167	Br	0.817973	-0.426131	-0.083831
Br168	Br	1.317973	0.073869	0.416169
