data_functionalizedCrystal
_audit_creation_method	'MofGen! by Chris Wilmer'
_symmetry_space_group_name_H-M	'P1'
_symmetry_Int_Tables_number	1
_symmetry_cell_setting	triclinic
loop_
_symmetry_equiv_pos_as_xyz
  x,y,z
_cell_length_a	19.077105
_cell_length_b	12.594516
_cell_length_c	19.076919
_cell_angle_alpha	92.275735
_cell_angle_beta	90.076224
_cell_angle_gamma	87.708332
loop_
_atom_site_label
_atom_site_type_symbol
_atom_site_fract_x
_atom_site_fract_y
_atom_site_fract_z
Zn1	Zn	1.058345	-0.514931	-0.440441
Zn2	Zn	1.558345	-0.014931	0.059559
Zn3	Zn	1.063009	-0.686070	-0.322942
Zn4	Zn	1.563009	-0.186070	0.177058
Zn5	Zn	0.945560	-0.500673	-0.318234
Zn6	Zn	1.445560	-0.000673	0.181766
Zn7	Zn	0.940831	-0.685429	-0.435695
Zn8	Zn	1.440831	-0.185429	0.064305
O9	O	1.001936	-0.596776	-0.379328
O10	O	1.501936	-0.096776	0.120672
O11	O	1.157296	-0.543869	-0.428812
O12	O	1.657296	-0.043869	0.071188
O13	O	1.051361	-0.655778	-0.223986
O14	O	1.551361	-0.155778	0.276014
O15	O	0.960549	-0.353621	-0.334461
O16	O	1.460549	0.146379	0.165539
O17	O	1.160723	-0.669604	-0.342486
O18	O	1.660723	-0.169604	0.157514
O19	O	1.043411	-0.364097	-0.424246
O20	O	1.543411	0.135903	0.075754
O21	O	0.965072	-0.519568	-0.220527
O22	O	1.465072	-0.019568	0.279473
O23	O	0.846600	-0.518945	-0.329859
O24	O	1.346600	-0.018945	0.170141
O25	O	0.952488	-0.668510	-0.534656
O26	O	1.452488	-0.168510	-0.034656
O27	O	0.843125	-0.654684	-0.416157
O28	O	1.343125	-0.154684	0.083843
O29	O	1.038825	-0.543247	-0.538143
O30	O	1.538825	-0.043247	-0.038143
O31	O	1.046775	-0.834928	-0.337883
O32	O	1.546775	-0.334928	0.162117
O33	O	0.957011	-0.834457	-0.420722
O34	O	1.457011	-0.334457	0.079278
C35	C	0.819366	-0.585199	-0.371982
C36	C	1.319366	-0.085199	0.128018
C37	C	0.741261	-0.580272	-0.368856
C38	C	1.241261	-0.080272	0.131144
C39	C	0.702780	-0.648729	-0.412248
C40	C	1.202780	-0.148729	0.087752
C41	C	0.629392	-0.644086	-0.409314
C42	C	1.129392	-0.144086	0.090686
C43	C	0.594487	-0.570992	-0.362984
C44	C	1.094487	-0.070992	0.137016
C45	C	0.632974	-0.502528	-0.319591
C46	C	1.132974	-0.002528	0.180409
C47	C	0.706360	-0.507166	-0.322529
C48	C	1.206360	-0.007166	0.177471
C49	C	0.375197	-0.549527	-0.349391
C50	C	0.875197	-0.049527	0.150609
C51	C	0.301805	-0.544896	-0.346455
C52	C	0.801805	-0.044896	0.153545
C53	C	0.298228	-0.686453	-0.436179
C54	C	0.798228	-0.186453	0.063821
C55	C	0.371616	-0.691089	-0.439109
C56	C	0.871616	-0.191089	0.060891
C57	C	0.410096	-0.622622	-0.395719
C58	C	0.910096	-0.122622	0.104281
N59	N	0.519473	-0.566247	-0.359983
N60	N	1.019473	-0.066247	0.140017
N61	N	0.485109	-0.627362	-0.398724
N62	N	0.985109	-0.127362	0.101276
C63	C	1.001904	-0.873314	-0.379315
C64	C	1.501904	-0.373314	0.120685
C65	C	1.001954	-0.991624	-0.379335
C66	C	1.501954	-0.491624	0.120665
C67	C	1.050829	-1.061101	-0.334331
C68	C	1.550829	-0.561101	0.165669
C69	C	1.065420	-1.136633	-0.399156
C70	C	1.565420	-0.636633	0.100844
C71	C	0.987449	-1.126899	-0.314555
C72	C	1.487449	-0.626899	0.185445
C73	C	1.016576	-1.065601	-0.444195
C74	C	1.516576	-0.565601	0.055805
C75	C	0.938577	-1.055856	-0.359549
C76	C	1.438577	-0.555856	0.140451
C77	C	0.953142	-1.131357	-0.424417
C78	C	1.453142	-0.631357	0.075583
C79	C	1.185219	-0.608399	-0.386703
C80	C	1.685219	-0.108399	0.113297
C81	C	1.263323	-0.613352	-0.389846
C82	C	1.763323	-0.113352	0.110154
C83	C	0.994608	-0.607398	-0.562609
C84	C	1.494608	-0.107398	-0.062609
C85	C	0.991485	-0.611924	-0.640712
C86	C	1.491485	-0.111924	-0.140712
C87	C	1.001987	-0.319160	-0.379358
C88	C	1.501987	0.180840	0.120642
C89	C	1.002008	-0.200856	-0.379371
C90	C	1.502008	0.299144	0.120629
C91	C	1.034967	-0.548835	-0.679222
C92	C	1.534967	-0.048835	-0.179222
C93	C	1.032024	-0.553084	-0.752608
C94	C	1.532024	-0.053084	-0.252608
C95	C	0.985603	-0.620427	-0.787483
C96	C	1.485603	-0.120427	-0.287483
C97	C	0.942117	-0.683518	-0.748968
C98	C	1.442117	-0.183518	-0.248968
C99	C	0.945056	-0.679263	-0.675583
C100	C	1.445056	-0.179263	-0.175583
C101	C	0.971988	-0.640140	-1.006765
C102	C	1.471988	-0.140140	-0.506765
C103	C	0.969053	-0.644392	-1.080155
C104	C	1.469053	-0.144392	-0.580155
C105	C	1.058960	-0.513956	-1.083790
C106	C	1.558960	-0.013956	-0.583790
C107	C	1.061899	-0.509712	-1.010404
C108	C	1.561899	-0.009712	-0.510404
C109	C	1.018410	-0.572799	-0.971895
C110	C	1.518410	-0.072799	-0.471895
N111	N	0.982596	-0.624774	-0.862495
N112	N	1.482596	-0.124774	-0.362495
N113	N	1.021414	-0.568446	-0.896884
N114	N	1.521414	-0.068446	-0.396884
C115	C	1.009276	-0.586121	-0.196762
C116	C	1.509276	-0.086121	0.303238
C117	C	1.012535	-0.581304	-0.118665
C118	C	1.512535	-0.081304	0.381335
H119	H	0.273387	-0.485361	-0.308732
H120	H	0.773387	0.014639	0.191268
H121	H	0.731194	-0.708254	-0.449972
H122	H	1.231194	-0.208254	0.050028
H123	H	0.936587	-0.691526	-0.975420
H124	H	1.436587	-0.191526	-0.475420
H125	H	1.092166	-1.030250	-0.296309
H126	H	1.592166	-0.530250	0.203691
H127	H	0.598063	-0.699832	-0.444647
H128	H	1.098063	-0.199832	0.055353
H129	H	0.909642	-0.730626	-0.644229
H130	H	1.409642	-0.230626	-0.144229
F131	F	0.919640	-0.716067	-1.117270
F132	F	1.419640	-0.216067	-0.617270
F133	F	1.135506	-1.182777	-0.421066
F134	F	1.635506	-0.682777	0.078934
F135	F	0.408759	-0.768888	-0.488418
F136	F	0.908759	-0.268888	0.011582
H137	H	1.072771	-0.494001	-0.650832
H138	H	1.572771	0.005999	-0.150832
H139	H	1.028812	-1.038647	-0.499038
H140	H	1.528812	-0.538647	0.000962
H141	H	0.266889	-0.742194	-0.471506
H142	H	0.766889	-0.242194	0.028494
H143	H	0.406519	-0.493783	-0.314054
H144	H	0.906519	0.006217	0.185946
F145	F	0.595824	-0.424729	-0.270288
F146	F	1.095824	0.075271	0.229712
F147	F	1.111307	-0.438036	-0.973292
F148	F	1.611307	0.061964	-0.473292
H149	H	1.094366	-0.462593	-1.115151
H150	H	1.594366	0.037407	-0.615151
F151	F	1.078328	-0.485974	-0.793591
F152	F	1.578328	0.014026	-0.293591
F153	F	0.747315	-0.434303	-0.276347
F154	F	1.247315	0.065697	0.223653
H155	H	0.911832	-1.162019	-0.462536
H156	H	1.411832	-0.662019	0.037464
H157	H	0.884974	-1.020516	-0.342776
H158	H	1.384974	-0.520516	0.157224
F159	F	0.971382	-1.162303	-0.242930
F160	F	1.471382	-0.662303	0.257070
H161	H	0.904317	-0.738346	-0.777369
H162	H	1.404317	-0.238346	-0.277369
