data_functionalizedCrystal
_audit_creation_method	'MofGen! by Chris Wilmer'
_symmetry_space_group_name_H-M	'P1'
_symmetry_Int_Tables_number	1
_symmetry_cell_setting	triclinic
loop_
_symmetry_equiv_pos_as_xyz
  x,y,z
_cell_length_a	12.837943
_cell_length_b	10.654550
_cell_length_c	9.130313
_cell_angle_alpha	90.000110
_cell_angle_beta	89.999361
_cell_angle_gamma	89.656922
loop_
_atom_site_label
_atom_site_type_symbol
_atom_site_fract_x
_atom_site_fract_y
_atom_site_fract_z
O1	O	-1.377797	-0.326745	-0.121766
O2	O	-1.075875	-0.310604	-0.121775
O3	O	-1.233778	-0.136692	-0.121765
O4	O	-1.219894	-0.500656	-0.121776
O5	O	-1.233776	-0.136697	0.121834
O6	O	-1.075873	-0.310609	0.121824
O7	O	-1.377795	-0.326750	0.121833
Cu8	Cu	-1.226834	-0.318680	0.144071
Cu9	Cu	-1.226836	-0.318674	-0.144013
O10	O	-1.219892	-0.500661	0.121823
C11	C	-1.037215	-0.305153	0.000023
C12	C	-0.922021	-0.288891	0.000020
C13	C	-1.232758	-0.089786	0.000033
C14	C	-1.229708	0.049990	0.000027
C15	C	-1.416456	-0.332200	0.000031
C16	C	-1.531650	-0.348462	0.000025
C17	C	-0.682468	-0.484395	0.000035
C18	C	-0.574232	-0.469121	0.000033
C19	C	-0.597312	-0.243070	0.000024
C20	C	-0.705547	-0.258344	0.000026
C21	C	-0.748121	-0.379010	0.000029
C22	C	-0.856359	-0.394284	0.000021
C23	C	-0.879436	-0.168233	0.000023
C24	C	-0.771201	-0.152959	0.000021
C25	C	-1.220913	-0.547568	0.000022
C26	C	-1.223963	-0.687344	0.000017
N27	N	-1.226840	-0.318684	0.346693
C28	C	-1.322678	0.119331	0.000035
C29	C	-1.319806	0.250665	0.000024
C30	C	-1.130985	0.243307	0.000006
C31	C	-1.133858	0.111975	0.000006
C32	C	-1.431693	0.123580	0.000052
C33	C	-1.428821	0.254914	0.000041
N34	N	-1.226839	-0.318661	-0.346636
C35	C	-1.296777	-0.241707	0.423350
C36	C	-1.296775	-0.241691	0.576687
C37	C	-1.156894	-0.395641	0.576697
C38	C	-1.156892	-0.395648	0.423363
C39	C	-1.377540	-0.152829	0.423345
C40	C	-1.377537	-0.152814	0.576682
H41	H	-0.891020	-0.492536	0.000026
H42	H	-0.717132	-0.582647	0.000035
H43	H	-0.520780	-0.554937	0.000041
C44	C	-1.484291	0.305285	0.137767
C45	C	-1.531905	0.213198	0.248812
C46	C	-1.587368	0.263568	0.386536
C47	C	-1.595217	0.406024	0.413214
C48	C	-1.547602	0.498119	0.302166
C49	C	-1.492139	0.447749	0.164443
H50	H	-1.526096	0.107736	0.229066
H51	H	-1.622616	0.195392	0.468740
H52	H	-1.636274	0.443311	0.515165
H53	H	-1.553411	0.603582	0.321912
H54	H	-1.456891	0.515925	0.082238
C55	C	-1.485229	-0.193657	0.632935
C56	C	-1.550063	-0.104407	0.729904
C57	C	-1.657746	-0.145260	0.786163
C58	C	-1.700595	-0.275362	0.745454
C59	C	-1.635760	-0.364620	0.648480
C60	C	-1.528077	-0.323768	0.592220
H61	H	-1.518345	-0.008090	0.760044
H62	H	-1.705741	-0.079184	0.857950
H63	H	-1.780308	-0.305603	0.787100
H64	H	-1.667479	-0.460937	0.618339
H65	H	-1.480083	-0.389843	0.520433
H66	H	-0.562628	-0.144828	0.000142
H67	H	-0.736522	-0.054715	0.000035
C68	C	-1.489288	0.077622	-0.137659
C69	C	-1.603328	0.116994	-0.164341
C70	C	-1.660919	0.071036	-0.302048
C71	C	-1.604471	-0.014294	-0.413073
C72	C	-1.490424	-0.053670	-0.386394
C73	C	-1.432833	-0.007712	-0.248687
H74	H	-1.645120	0.180165	-0.082150
H75	H	-1.745344	0.100186	-0.321797
H76	H	-1.647103	-0.048315	-0.515012
H77	H	-1.448632	-0.116841	-0.468584
H78	H	-1.348408	-0.036862	-0.228938
C79	C	-1.343495	-0.025858	0.640915
C80	C	-1.406025	0.094142	0.605497
C81	C	-1.371983	0.221097	0.669724
C82	C	-1.275411	0.228051	0.769369
C83	C	-1.212875	0.108046	0.804792
C84	C	-1.246917	-0.018908	0.740565
H85	H	-1.477518	0.088998	0.531730
H86	H	-1.418276	0.309932	0.643501
H87	H	-1.250211	0.322030	0.816913
H88	H	-1.141382	0.113191	0.878559
H89	H	-1.200624	-0.107743	0.766788
C90	C	-1.079954	-0.480313	0.339034
C91	C	-1.003069	-0.565041	0.423365
C92	C	-0.926128	-0.649707	0.339033
C93	C	-0.926071	-0.649645	0.170372
C94	C	-1.002959	-0.564913	0.086032
C95	C	-1.079901	-0.480247	0.170363
H96	H	-1.003109	-0.565090	0.548226
H97	H	-0.869210	-0.712431	0.401468
H98	H	-0.869114	-0.712319	0.107945
H99	H	-1.002920	-0.564864	-0.038829
H100	H	-1.136818	-0.417524	0.107929
H101	H	-0.932904	-0.082421	0.000008
H102	H	-1.058152	0.055522	-0.000021
H103	H	-1.359826	-0.054364	0.381727
H104	H	-1.466406	0.084163	0.105234
H105	H	-1.052947	0.293790	-0.000013
H106	H	-1.461767	0.296964	-0.105137
H107	H	-1.099943	-0.458302	0.639138
H108	H	-1.452867	-0.191638	0.375788
