data_functionalizedCrystal
_audit_creation_method	'MofGen! by Chris Wilmer'
_symmetry_space_group_name_H-M	'P1'
_symmetry_Int_Tables_number	1
_symmetry_cell_setting	triclinic
loop_
_symmetry_equiv_pos_as_xyz
  x,y,z
_cell_length_a	17.077404
_cell_length_b	12.645330
_cell_length_c	17.077396
_cell_angle_alpha	89.975931
_cell_angle_beta	89.980499
_cell_angle_gamma	90.017917
loop_
_atom_site_label
_atom_site_type_symbol
_atom_site_fract_x
_atom_site_fract_y
_atom_site_fract_z
Zn1	Zn	1.200083	-0.422033	-0.443867
Zn2	Zn	1.700083	0.077967	0.056133
Zn3	Zn	1.200002	-0.599318	-0.312611
Zn4	Zn	1.700002	-0.099318	0.187389
Zn5	Zn	1.068815	-0.422070	-0.312615
Zn6	Zn	1.568815	0.077930	0.187385
Zn7	Zn	1.068795	-0.599256	-0.443834
Zn8	Zn	1.568795	-0.099256	0.056166
O9	O	1.134424	-0.510669	-0.378232
O10	O	1.634424	-0.010669	0.121768
O11	O	1.309919	-0.445561	-0.426467
O12	O	1.809919	0.054439	0.073533
O13	O	1.182574	-0.575848	-0.202764
O14	O	1.682574	-0.075848	0.297236
O15	O	1.086270	-0.273718	-0.330041
O16	O	1.586270	0.226282	0.169959
O17	O	1.309860	-0.575812	-0.330034
O18	O	1.809860	-0.075812	0.169966
O19	O	1.182712	-0.273691	-0.426471
O20	O	1.682712	0.226309	0.073529
O21	O	1.086192	-0.445624	-0.202767
O22	O	1.586192	0.054376	0.297233
O23	O	0.958965	-0.445563	-0.330009
O24	O	1.458965	0.054437	0.169991
O25	O	1.086236	-0.575705	-0.553686
O26	O	1.586236	-0.075705	-0.053686
O27	O	0.958950	-0.575741	-0.426416
O28	O	1.458950	-0.075741	0.073584
O29	O	1.182693	-0.445500	-0.553709
O30	O	1.682693	0.054500	-0.053709
O31	O	1.182555	-0.747657	-0.330003
O32	O	1.682555	-0.247657	0.169997
O33	O	1.086157	-0.747611	-0.426412
O34	O	1.586157	-0.247611	0.073588
C35	C	0.930476	-0.510650	-0.378210
C36	C	1.430476	-0.010650	0.121790
C37	C	0.843226	-0.510667	-0.378219
C38	C	1.343226	-0.010667	0.121781
C39	C	0.802249	-0.578553	-0.428338
C40	C	1.302249	-0.078553	0.071662
C41	C	0.720268	-0.578555	-0.428350
C42	C	1.220268	-0.078555	0.071650
C43	C	0.679267	-0.510677	-0.378240
C44	C	1.179267	-0.010677	0.121760
C45	C	0.720250	-0.442783	-0.328119
C46	C	1.220250	0.057217	0.171881
C47	C	0.802229	-0.442777	-0.328111
C48	C	1.302229	0.057223	0.171889
C49	C	0.549380	-0.442804	-0.328138
C50	C	1.049380	0.057196	0.171862
C51	C	0.467395	-0.442812	-0.328145
C52	C	0.967395	0.057188	0.171855
C53	C	0.467419	-0.578583	-0.428377
C54	C	0.967419	-0.078583	0.071623
C55	C	0.549398	-0.578576	-0.428369
C56	C	1.049398	-0.078576	0.071631
C57	C	0.590376	-0.510684	-0.378247
C58	C	1.090376	-0.010684	0.121753
C59	C	1.134366	-0.786099	-0.378221
C60	C	1.634366	-0.286099	0.121779
C61	C	1.134414	-0.903929	-0.378242
C62	C	1.634414	-0.403929	0.121758
C63	C	1.074020	-1.071508	-0.439080
C64	C	1.574020	-0.571508	0.060920
C65	C	1.073711	-0.948949	-0.438885
C66	C	1.573711	-0.448949	0.061115
C67	C	1.112022	-0.948522	-0.295515
C68	C	1.612022	-0.448522	0.204485
C69	C	1.111653	-1.071120	-0.295885
C70	C	1.611653	-0.571120	0.204115
C71	C	1.217568	-1.071018	-0.399460
C72	C	1.717568	-0.571018	0.100540
C73	C	1.217059	-0.948411	-0.401269
C74	C	1.717059	-0.448411	0.098731
C75	C	1.339168	-0.510689	-0.378254
C76	C	1.839168	-0.010689	0.121746
C77	C	1.426418	-0.510698	-0.378263
C78	C	1.926418	-0.010698	0.121737
C79	C	1.134471	-0.510591	-0.582976
C80	C	1.634471	-0.010591	-0.082976
C81	C	1.134491	-0.510558	-0.670226
C82	C	1.634491	-0.010558	-0.170226
C83	C	1.134502	-0.234164	-0.378260
C84	C	1.634502	0.265836	0.121740
C85	C	1.134536	-0.116334	-0.378272
C86	C	1.634536	0.383666	0.121728
C87	C	1.184718	-0.442755	-0.711230
C88	C	1.684718	0.057245	-0.211230
C89	C	1.184728	-0.442719	-0.793210
C90	C	1.684728	0.057281	-0.293210
C91	C	1.134514	-0.510493	-0.834185
C92	C	1.634514	-0.010493	-0.334185
C93	C	1.084281	-0.578300	-0.793176
C94	C	1.584281	-0.078300	-0.293176
C95	C	1.084268	-0.578329	-0.711197
C96	C	1.584268	-0.078329	-0.211197
C97	C	1.084313	-0.578236	-0.964046
C98	C	1.584313	-0.078236	-0.464046
C99	C	1.084326	-0.578208	-1.046031
C100	C	1.584326	-0.078208	-0.546031
C101	C	1.184772	-0.442627	-1.046059
C102	C	1.684772	0.057373	-0.546059
C103	C	1.184759	-0.442656	-0.964080
C104	C	1.684759	0.057344	-0.464080
C105	C	1.134528	-0.510464	-0.923076
C106	C	1.634528	-0.010464	-0.423076
C107	C	1.134421	-0.510671	-0.174284
C108	C	1.634421	-0.010671	0.325716
C109	C	1.134553	-0.510405	-0.087034
C110	C	1.634553	-0.010405	0.412966
H111	H	0.835626	-0.633831	-0.469141
H112	H	1.335626	-0.133831	0.030859
Cl113	Cl	0.415851	-0.357483	-0.265145
Cl114	Cl	0.915851	0.142517	0.234855
H115	H	0.434051	-0.633860	-0.469191
H116	H	0.934051	-0.133860	0.030809
H117	H	0.686860	-0.387511	-0.287322
H118	H	1.186860	0.112489	0.212678
H119	H	0.835591	-0.387492	-0.287304
H120	H	1.335591	0.112508	0.212696
H121	H	1.043360	-0.633530	-0.677813
H122	H	1.543360	-0.133530	-0.177813
H123	H	1.087720	-0.918796	-0.500226
H124	H	1.587720	-0.418796	-0.000226
Cl125	Cl	0.668757	-0.663901	-0.491359
Cl126	Cl	1.168757	-0.163901	0.008641
H127	H	1.233945	-0.919262	-0.462152
H128	H	1.733945	-0.419262	0.037848
H129	H	1.087901	-1.100921	-0.500623
H130	H	1.587901	-0.600921	-0.000623
Cl131	Cl	1.247908	-0.357524	-0.844754
Cl132	Cl	1.747908	0.142476	-0.344754
Cl133	Cl	1.177914	-0.903505	-0.223649
Cl134	Cl	1.677914	-0.403505	0.276351
Cl135	Cl	0.600893	-0.357453	-0.265127
Cl136	Cl	1.100893	0.142547	0.234873
H137	H	1.262654	-1.100005	-0.355171
H138	H	1.762654	-0.600005	0.144829
Cl139	Cl	0.600942	-0.663918	-0.491361
Cl140	Cl	1.100942	-0.163918	0.008639
H141	H	1.012848	-1.102409	-0.425223
H142	H	1.512848	-0.602409	0.074777
Cl143	Cl	0.978672	-0.903805	-0.417216
Cl144	Cl	1.478672	-0.403805	0.082784
Cl145	Cl	1.019285	-0.901270	-0.267301
Cl146	Cl	1.519285	-0.401270	0.232699
H147	H	1.225611	-0.387568	-0.677874
H148	H	1.725611	0.112432	-0.177874
Cl149	Cl	1.017942	-1.115422	-0.268174
Cl150	Cl	1.517942	-0.615422	0.231826
H151	H	1.153818	-1.100776	-0.249033
H152	H	1.653818	-0.600776	0.250967
H153	H	1.237995	-1.101863	-0.458759
H154	H	1.737995	-0.601863	0.041241
H155	H	1.043393	-0.633479	-0.826544
H156	H	1.543393	-0.133479	-0.326544
Cl157	Cl	1.247891	-0.357459	-0.912570
Cl158	Cl	1.747891	0.142541	-0.412570
Cl159	Cl	1.290341	-0.901082	-0.337874
Cl160	Cl	1.790341	-0.401082	0.162126
Cl161	Cl	1.247921	-0.357384	-1.097606
Cl162	Cl	1.747921	0.142616	-0.597606
H163	H	1.043436	-0.633394	-1.079391
H164	H	1.543436	-0.133394	-0.579391
H165	H	1.043396	-0.633436	-0.930663
H166	H	1.543396	-0.133436	-0.430663
