data_functionalizedCrystal
_audit_creation_method	'MofGen! by Chris Wilmer'
_symmetry_space_group_name_H-M	'P1'
_symmetry_Int_Tables_number	1
_symmetry_cell_setting	triclinic
loop_
_symmetry_equiv_pos_as_xyz
  x,y,z
_cell_length_a	6.817900
_cell_length_b	16.417825
_cell_length_c	11.168144
_cell_angle_alpha	93.915274
_cell_angle_beta	108.508840
_cell_angle_gamma	103.385495
loop_
_atom_site_label
_atom_site_type_symbol
_atom_site_fract_x
_atom_site_fract_y
_atom_site_fract_z
V1	V	-4.083862	-0.115897	-0.394142
O2	O	-4.070715	0.005557	-0.386183
O3	O	-4.034578	-0.229793	-0.391884
O4	O	-4.060552	-0.114120	-0.565841
O5	O	-4.044561	-0.110917	-0.211022
V6	V	-4.564353	-0.101369	-0.372186
O7	O	-4.351770	-0.147766	-0.442303
O8	O	-4.746642	-0.069501	-0.324024
O9	O	-4.390431	0.012526	-0.374444
O10	O	-4.694897	-0.222824	-0.380144
O11	O	-4.721051	-0.106350	-0.555305
O12	O	-4.364457	-0.103147	-0.200487
C13	C	-3.878552	-0.257558	-0.385779
C14	C	-3.919710	-0.350670	-0.385078
C15	C	-3.957359	-0.552930	-0.267809
C16	C	-3.996055	-0.640419	-0.267160
C17	C	-4.110238	-0.664337	-0.498532
C18	C	-4.071556	-0.576849	-0.499181
C19	C	-3.995105	-0.521147	-0.383815
C20	C	-4.072484	-0.696124	-0.382517
C21	C	-4.114441	-0.790984	-0.381814
C22	C	-3.953149	-0.426281	-0.384518
C23	C	-3.911683	-0.110005	-0.607677
C24	C	-3.973902	-0.109305	-0.748044
C25	C	-4.042090	-0.181888	-0.828042
C26	C	-4.106398	-0.181166	-0.973120
C27	C	-4.209799	0.040287	-0.380545
C28	C	-4.147880	0.133398	-0.381255
C29	C	-4.176667	-0.107265	-0.158644
C30	C	-4.093686	-0.107960	-0.018275
H31	H	-4.172485	-0.709699	-0.592459
H32	H	-4.052871	-0.244562	-0.789126
F33	F	-4.017230	-0.026732	-0.928452
H34	H	-3.963145	-0.046631	-0.786961
H35	H	-3.965318	-0.666292	-0.172697
F36	F	-4.111745	-0.543023	-0.622657
F37	F	-4.182827	-0.262390	-1.062950
H38	H	-3.895109	-0.507579	-0.173871
