data_functionalizedCrystal
_audit_creation_method	'MofGen! by Chris Wilmer'
_symmetry_space_group_name_H-M	'P1'
_symmetry_Int_Tables_number	1
_symmetry_cell_setting	triclinic
loop_
_symmetry_equiv_pos_as_xyz
  x,y,z
_cell_length_a	29.999520
_cell_length_b	29.998686
_cell_length_c	29.995014
_cell_angle_alpha	60.005185
_cell_angle_beta	60.010401
_cell_angle_gamma	59.993433
loop_
_atom_site_label
_atom_site_type_symbol
_atom_site_fract_x
_atom_site_fract_y
_atom_site_fract_z
O1	O	0.061772	-0.651300	0.544623
O2	O	0.561772	-0.151300	1.044623
O3	O	0.023267	-0.507084	0.438819
O4	O	0.523267	-0.007084	0.938819
O5	O	0.114589	-0.598332	0.438743
O6	O	0.614589	-0.098332	0.938743
O7	O	-0.029550	-0.560051	0.544699
O8	O	0.470450	-0.060051	1.044699
O9	O	0.144886	-0.568039	0.468961
O10	O	0.644886	-0.068039	0.968961
O11	O	0.053564	-0.476791	0.469038
O12	O	0.553564	0.023209	0.969038
O13	O	0.092069	-0.621007	0.574841
O14	O	0.592069	-0.121007	1.074841
Zn15	Zn	0.077627	-0.544089	0.526737
Zn16	Zn	0.577627	-0.044089	1.026737
Zn17	Zn	0.037709	-0.584002	0.486923
Zn18	Zn	0.537709	-0.084002	0.986923
O19	O	0.000748	-0.529758	0.574918
O20	O	0.500748	-0.029758	1.074918
N21	N	0.104871	-0.516854	0.553912
N22	N	0.604871	-0.016854	1.053912
N23	N	0.010470	-0.611242	0.459748
N24	N	0.510470	-0.111242	0.959748
C25	C	0.143162	-0.478782	0.827124
C26	C	0.643162	0.021218	1.327124
C27	C	0.378203	-0.478734	0.591892
C28	C	0.878203	0.021266	1.091892
C29	C	0.143005	-0.478752	0.591997
C30	C	0.643005	0.021248	1.091997
C31	C	0.142986	-0.243586	0.592008
C32	C	0.642986	0.256414	1.092008
C33	C	0.180857	-0.357087	0.629814
C34	C	0.680857	0.142913	1.129814
C35	C	0.180866	-0.440920	0.629807
C36	C	0.680866	0.059080	1.129807
C37	C	0.201840	-0.419964	0.650755
C38	C	0.701840	0.080036	1.150755
C39	C	0.293272	-0.404201	0.602606
C40	C	0.793272	0.095799	1.102606
C41	C	0.350426	-0.423248	0.583534
C42	C	0.850426	0.076752	1.083534
C43	C	0.350451	-0.515727	0.618798
C44	C	0.850451	-0.015727	1.118798
C45	C	0.293297	-0.496678	0.637872
C46	C	0.793297	0.003322	1.137872
C47	C	0.194628	-0.328499	0.573626
C48	C	0.694628	0.171501	1.073626
C49	C	0.175551	-0.271340	0.554591
C50	C	0.675551	0.228660	1.054591
C51	C	0.128936	-0.271362	0.647935
C52	C	0.628936	0.228638	1.147935
C53	C	0.148014	-0.328521	0.666970
C54	C	0.648014	0.171479	1.166970
C55	C	0.124672	-0.427119	0.643641
C56	C	0.624672	0.072881	1.143641
C57	C	0.105611	-0.446170	0.624592
C58	C	0.605611	0.053830	1.124592
C59	C	0.198934	-0.492820	0.577889
C60	C	0.698934	0.007180	1.077889
C61	C	0.217998	-0.473770	0.596931
C62	C	0.717998	0.026230	1.096931
C63	C	0.124740	-0.427136	0.742229
C64	C	0.624740	0.072864	1.242229
C65	C	0.105728	-0.446202	0.799386
C66	C	0.605728	0.053798	1.299386
C67	C	0.199085	-0.492863	0.799337
C68	C	0.699085	0.007137	1.299337
C69	C	0.218096	-0.473798	0.742178
C70	C	0.718096	0.026202	1.242178
C71	C	0.180923	-0.440933	0.713626
C72	C	0.680923	0.059067	1.213626
C73	C	0.264710	-0.440915	0.629773
C74	C	0.764710	0.059085	1.129773
C75	C	0.121509	-0.499370	0.889991
C76	C	0.621509	0.000630	1.389991
C77	C	0.441068	-0.498953	0.570621
C78	C	0.941068	0.001047	1.070621
C79	C	0.121297	-0.499349	0.571429
C80	C	0.621297	0.000651	1.071429
C81	C	0.121653	-0.180715	0.571802
C82	C	0.621653	0.319285	1.071802
C83	C	-0.111071	-0.648912	0.421584
C84	C	0.388929	-0.148912	0.921584
C85	C	-0.027286	-0.649018	0.421777
C86	C	0.472714	-0.149018	0.921777
C87	C	-0.048200	-0.669944	0.400740
C88	C	0.451800	-0.169944	0.900740
C89	C	-0.064036	-0.761340	0.448814
C90	C	0.435964	-0.261340	0.948814
C91	C	-0.045033	-0.818500	0.467893
C92	C	0.454967	-0.318500	0.967893
C93	C	0.047447	-0.818609	0.432797
C94	C	0.547447	-0.318609	0.932797
C95	C	0.028444	-0.761451	0.413717
C96	C	0.528444	-0.261451	0.913717
C97	C	-0.139731	-0.662677	0.477755
C98	C	0.360269	-0.162677	0.977755
C99	C	-0.196885	-0.643554	0.496701
C100	C	0.303115	-0.143554	0.996701
C101	C	-0.196717	-0.596907	0.403303
C102	C	0.303283	-0.096907	0.903303
C103	C	-0.139562	-0.616030	0.384357
C104	C	0.360438	-0.116030	0.884357
C105	C	-0.041053	-0.592827	0.407952
C106	C	0.458947	-0.092827	0.907952
C107	C	-0.022041	-0.573809	0.427083
C108	C	0.477959	-0.073809	0.927083
C109	C	0.024504	-0.667167	0.473848
C110	C	0.524504	-0.167167	0.973848
C111	C	0.005492	-0.686188	0.454725
C112	C	0.505492	-0.186188	0.954725
C113	C	-0.040886	-0.592836	0.309259
C114	C	0.459114	-0.092836	0.809259
C115	C	-0.021740	-0.573821	0.252102
C116	C	0.478260	-0.073821	0.752102
C117	C	0.024886	-0.667185	0.252163
C118	C	0.524886	-0.167185	0.752163
C119	C	0.005743	-0.686199	0.309322
C120	C	0.505743	-0.186199	0.809322
C121	C	-0.027145	-0.649023	0.337868
C122	C	0.472855	-0.149023	0.837868
C123	C	-0.027299	-0.732818	0.421728
C124	C	0.472701	-0.232818	0.921728
N125	N	0.492511	-0.516826	0.553742
N126	N	0.992511	-0.016826	1.053742
O127	O	0.679283	-0.525926	0.419277
O128	O	1.179283	-0.025926	0.919277
O129	O	0.679465	-0.632059	0.563349
O130	O	1.179465	-0.132059	1.063349
O131	O	0.679393	-0.631817	0.471975
O132	O	1.179393	-0.131817	0.971975
O133	O	0.679355	-0.526168	0.510650
O134	O	1.179355	-0.026168	1.010650
O135	O	0.588593	-0.601610	0.502313
O136	O	1.088593	-0.101610	1.002313
O137	O	0.588665	-0.601852	0.593686
O138	O	1.088665	-0.101852	1.093686
O139	O	0.588483	-0.495720	0.449614
O140	O	1.088483	0.004280	0.949614
Zn141	Zn	0.574158	-0.543990	0.526467
Zn142	Zn	1.074158	-0.043990	1.026467
Zn143	Zn	0.693790	-0.583788	0.486496
Zn144	Zn	1.193790	-0.083788	0.986496
O145	O	0.588555	-0.495962	0.540987
O146	O	1.088555	0.004038	1.040987
N147	N	0.775436	-0.610952	0.459215
N148	N	1.275436	-0.110952	0.959215
N149	N	0.104844	-0.129269	0.553931
N150	N	0.604844	0.370731	1.053931
O151	O	-0.029548	0.057600	0.544709
O152	O	0.470452	0.557600	1.044709
O153	O	0.114530	0.057617	0.438578
O154	O	0.614530	0.557617	0.938578
O155	O	0.023130	0.057594	0.438850
O156	O	0.523130	0.557594	0.938850
O157	O	0.061852	0.057623	0.544437
O158	O	0.561852	0.557623	1.044437
O159	O	0.053431	-0.033213	0.469115
O160	O	0.553431	0.466787	0.969115
O161	O	0.144831	-0.033190	0.468843
O162	O	0.644831	0.466810	0.968843
O163	O	0.000753	-0.033207	0.574974
O164	O	0.500753	0.466793	1.074974
Zn165	Zn	0.077603	-0.047616	0.526714
Zn166	Zn	0.577603	0.452384	1.026714
Zn167	Zn	0.037680	0.072026	0.486838
Zn168	Zn	0.537680	0.572026	0.986838
O169	O	0.092153	-0.033184	0.574702
O170	O	0.592153	0.466816	1.074702
N171	N	0.010432	0.153679	0.459622
N172	N	0.510432	0.653679	0.959622
N173	N	0.105130	-0.516904	0.941437
N174	N	0.605130	-0.016904	1.441437
O175	O	0.095923	-0.651280	1.128292
O176	O	0.595923	-0.151280	1.628292
O177	O	-0.010184	-0.507155	1.128318
O178	O	0.489816	-0.007155	1.628318
O179	O	-0.009938	-0.598539	1.128284
O180	O	0.490062	-0.098539	1.628284
O181	O	0.095677	-0.559897	1.128326
O182	O	0.595677	-0.059897	1.628326
O183	O	0.020315	-0.568257	1.037481
O184	O	0.520315	-0.068257	1.537481
O185	O	0.020068	-0.476874	1.037515
O186	O	0.520068	0.023126	1.537515
O187	O	0.126176	-0.620999	1.037489
O188	O	0.626176	-0.120999	1.537489
Zn189	Zn	0.077925	-0.544128	1.023085
Zn190	Zn	0.577925	-0.044128	1.523085
Zn191	Zn	0.038066	-0.584026	1.142722
Zn192	Zn	0.538066	-0.084026	1.642722
O193	O	0.125929	-0.529616	1.037523
O194	O	0.625929	-0.029616	1.537523
N195	N	0.010860	-0.611256	1.224371
N196	N	0.510860	-0.111256	1.724371
C197	C	0.034807	-0.473765	0.439352
C198	C	0.534807	0.026235	0.939352
C199	C	0.147897	-0.586765	0.439257
C200	C	0.647897	-0.086765	0.939257
C201	C	0.080529	-0.654326	0.574308
C202	C	0.580529	-0.154326	1.074308
C203	C	-0.032561	-0.541326	0.574403
C204	C	0.467439	-0.041326	1.074403
C205	C	0.634087	-0.631571	0.596668
C206	C	1.134087	-0.131571	1.096668
C207	C	0.633999	-0.631272	0.483513
C208	C	1.133999	-0.131272	0.983513
C209	C	0.633858	-0.496206	0.416295
C210	C	1.133858	0.003794	0.916295
C211	C	0.633949	-0.496507	0.529449
C212	C	1.133949	0.003493	1.029449
C213	C	0.147793	0.012327	0.439058
C214	C	0.647793	0.512327	0.939058
C215	C	0.034644	0.012187	0.439432
C216	C	0.534644	0.512187	0.939432
C217	C	-0.032548	0.012195	0.574457
C218	C	0.467452	0.512195	1.074457
C219	C	0.080639	0.012222	0.574120
C220	C	0.580639	0.512222	1.074120
C221	C	-0.009670	-0.473857	1.082920
C222	C	0.490330	0.026143	1.582920
C223	C	-0.009359	-0.587018	1.082860
C224	C	0.490641	-0.087018	1.582860
C225	C	0.125662	-0.654297	1.082887
C226	C	0.625662	-0.154297	1.582887
C227	C	0.125358	-0.541129	1.082927
C228	C	0.625358	-0.041129	1.582927
H229	H	0.059977	-0.434960	0.822668
H230	H	0.559977	0.065040	1.322668
O231	O	0.197243	-0.596502	0.399510
O232	O	0.697243	-0.096502	0.899510
C233	C	0.190061	-0.590371	0.353509
C234	C	0.690061	-0.090371	0.853509
H235	H	0.150065	-0.596372	0.366658
H236	H	0.650065	-0.096372	0.866658
H237	H	0.188851	-0.547691	0.322641
H238	H	0.688851	-0.047691	0.822641
C239	C	0.287001	-0.625850	0.311043
C240	C	0.787001	-0.125850	0.811043
C241	C	0.237880	-0.633226	0.327194
C242	C	0.737880	-0.133226	0.827194
H243	H	0.316499	-0.652283	0.294809
H244	H	0.816499	-0.152283	0.794809
H245	H	0.291840	-0.629979	0.342034
H246	H	0.791840	-0.129979	0.842034
H247	H	0.285985	-0.590282	0.285323
H248	H	0.785985	-0.090282	0.785323
H249	H	0.238894	-0.668790	0.352919
H250	H	0.738894	-0.168790	0.852919
H251	H	0.233042	-0.629104	0.296207
H252	H	0.733042	-0.129104	0.796207
O253	O	0.024774	0.012070	0.399906
O254	O	0.524774	0.512070	0.899906
C255	C	0.011927	-0.034965	0.418736
C256	C	0.511927	0.465035	0.918736
H257	H	0.029560	-0.067820	0.452640
H258	H	0.529560	0.432180	0.952640
H259	H	-0.034307	-0.024342	0.435208
H260	H	0.465693	0.475658	0.935208
C261	C	0.014872	-0.015961	0.329616
C262	C	0.514872	0.484039	0.829616
C263	C	0.036533	-0.056315	0.371254
C264	C	0.536533	0.443685	0.871254
H265	H	0.030047	-0.029129	0.300327
H266	H	0.530047	0.470871	0.800327
H267	H	0.023525	0.015729	0.316930
H268	H	0.523525	0.515729	0.816930
H269	H	-0.023656	-0.007111	0.343350
H270	H	0.476344	0.492889	0.843350
H271	H	0.075059	-0.065159	0.357522
H272	H	0.575059	0.434841	0.857522
H273	H	0.027886	-0.088007	0.383938
H274	H	0.527886	0.411993	0.883938
O275	O	0.633910	-0.456963	0.539416
O276	O	1.133910	0.043037	1.039416
C277	C	0.633982	-0.476859	0.593069
C278	C	1.133982	0.023141	1.093069
H279	H	0.616832	-0.511927	0.618903
H280	H	1.116832	-0.011927	1.118903
H281	H	0.677555	-0.492064	0.592232
H282	H	1.177555	0.007936	1.092232
C283	C	0.619428	-0.387611	0.586180
C284	C	1.119428	0.112389	1.086180
C285	C	0.598360	-0.430679	0.617911
C286	C	1.098360	0.069321	1.117911
H287	H	0.597457	-0.359126	0.601503
H288	H	1.097457	0.140874	1.101503
H289	H	0.619382	-0.374207	0.550032
H290	H	1.119382	0.125793	1.050032
H291	H	0.655738	-0.400289	0.585485
H292	H	1.155738	0.099711	1.085485
H293	H	0.562053	-0.418003	0.618600
H294	H	1.062053	0.081997	1.118600
H295	H	0.598399	-0.444081	0.654059
H296	H	1.098399	0.055919	1.154059
O297	O	0.197006	0.012701	0.399138
O298	O	0.697006	0.512701	0.899138
C299	C	0.189528	0.059834	0.353287
C300	C	0.689528	0.559834	0.853287
H301	H	0.145939	0.075333	0.354036
H302	H	0.645939	0.575333	0.854036
H303	H	0.197191	0.092825	0.354347
H304	H	0.697191	0.592825	0.854347
C305	C	0.283423	0.026783	0.299838
C306	C	0.783423	0.526783	0.799838
C307	C	0.229888	0.045816	0.300755
C308	C	0.729888	0.545816	0.800755
H309	H	0.308320	0.018137	0.267433
H310	H	0.808320	0.518137	0.767433
H311	H	0.288462	-0.004971	0.330729
H312	H	0.788462	0.495029	0.830729
H313	H	0.289801	0.054278	0.300723
H314	H	0.789801	0.554278	0.800723
H315	H	0.223508	0.018318	0.299876
H316	H	0.723508	0.518318	0.799876
H317	H	0.224848	0.077565	0.269862
H318	H	0.724848	0.577565	0.769862
H319	H	-0.033252	-0.528055	0.415829
H320	H	0.466748	-0.028055	0.915829
H321	H	-0.073925	0.012190	0.607776
H322	H	0.426075	0.512190	1.107776
H323	H	-0.042983	-0.432464	1.082928
H324	H	0.457017	0.067536	1.582928
H325	H	0.088930	0.012231	0.607291
H326	H	0.588930	0.512231	1.107291
O327	O	0.634170	-0.671271	0.646053
O328	O	1.134170	-0.171271	1.146053
C329	C	0.634167	-0.651607	0.680034
C330	C	1.134167	-0.151607	1.180034
H331	H	0.651318	-0.616539	0.653783
H332	H	1.151318	-0.116539	1.153783
H333	H	0.590615	-0.636472	0.707631
H334	H	1.090615	-0.136472	1.207631
C335	C	0.648766	-0.741015	0.747578
C336	C	1.148766	-0.241015	1.247578
C337	C	0.669834	-0.697946	0.715335
C338	C	1.169834	-0.197946	1.215335
H339	H	0.670765	-0.769599	0.769355
H340	H	1.170765	-0.269599	1.269355
H341	H	0.648766	-0.754263	0.724685
H342	H	1.148766	-0.254263	1.224685
H343	H	0.612472	-0.728395	0.770570
H344	H	1.112472	-0.228395	1.270570
H345	H	0.706125	-0.710565	0.692339
H346	H	1.206125	-0.210565	1.192339
H347	H	0.669842	-0.684701	0.738225
H348	H	1.169842	-0.184701	1.238225
H349	H	0.088756	-0.695753	0.607538
H350	H	0.588756	-0.195753	1.107538
H351	H	0.633799	-0.462884	0.374920
H352	H	1.133799	0.037116	0.874920
O353	O	0.272688	-0.487299	0.714455
O354	O	0.772688	0.012701	1.214455
C355	C	0.296439	-0.544548	0.728395
C356	C	0.796439	-0.044548	1.228395
H357	H	0.269363	-0.564557	0.769900
H358	H	0.769363	-0.064557	1.269900
H359	H	0.300671	-0.557473	0.696228
H360	H	0.800671	-0.057473	1.196228
C361	C	0.386498	-0.538020	0.680030
C362	C	0.886498	-0.038020	1.180030
C363	C	0.353245	-0.562596	0.731009
C364	C	0.853245	-0.062596	1.231009
H365	H	0.421539	-0.549153	0.681640
H366	H	0.921539	-0.049153	1.181640
H367	H	0.370497	-0.499450	0.670636
H368	H	0.870497	0.000550	1.170636
H369	H	0.390019	-0.548793	0.653230
H370	H	0.890019	-0.048793	1.153230
H371	H	0.349719	-0.551817	0.757807
H372	H	0.849719	-0.051817	1.257807
H373	H	0.369247	-0.601165	0.740408
H374	H	0.869247	-0.101165	1.240408
H375	H	-0.042525	-0.595273	1.082811
H376	H	0.457475	-0.095273	1.582811
H377	H	0.158977	-0.695688	1.082873
H378	H	0.658977	-0.195688	1.582873
H379	H	0.158538	-0.532861	1.082933
H380	H	0.658538	-0.032861	1.582933
H381	H	0.094465	-0.400370	0.718985
H382	H	0.594465	0.099630	1.218985
H383	H	0.229358	-0.519614	0.822579
H384	H	0.729358	-0.019614	1.322579
H385	H	0.059853	-0.434921	0.635844
H386	H	0.559853	0.065079	1.135844
O387	O	0.088529	-0.395193	0.675549
O388	O	0.588529	0.104807	1.175549
C389	C	0.034843	-0.387107	0.683680
C390	C	0.534843	0.112893	1.183680
H391	H	0.034923	-0.393485	0.649223
H392	H	0.534923	0.106515	1.149223
H393	H	0.018494	-0.417537	0.724395
H394	H	0.518494	0.082463	1.224395
C395	C	-0.001922	-0.320720	0.726428
C396	C	0.498078	0.179280	1.226428
C397	C	-0.001824	-0.328549	0.684104
C398	C	0.498176	0.171451	1.184104
H399	H	-0.024541	-0.284600	0.726692
H400	H	0.475459	0.215400	1.226692
H401	H	0.034247	-0.326169	0.720952
H402	H	0.534247	0.173831	1.220952
H403	H	-0.015545	-0.346082	0.760353
H404	H	0.484455	0.153918	1.260353
H405	H	0.011805	-0.303192	0.650180
H406	H	0.511805	0.196808	1.150180
H407	H	-0.037992	-0.323095	0.689575
H408	H	0.462008	0.176905	1.189575
O409	O	-0.035169	-0.519219	0.224401
O410	O	0.464831	-0.019219	0.724401
C411	C	-0.068290	-0.490489	0.261857
C412	C	0.431710	0.009511	0.761857
H413	H	-0.089125	-0.517716	0.302576
H414	H	0.410875	-0.017716	0.802576
H415	H	-0.041948	-0.478197	0.268007
H416	H	0.458052	0.021803	0.768007
C417	C	-0.086319	-0.405493	0.189446
C418	C	0.413681	0.094507	0.689446
C419	C	-0.111913	-0.438932	0.239457
C420	C	0.388087	0.061068	0.739457
H421	H	-0.113226	-0.373689	0.175628
H422	H	0.386774	0.126311	0.675628
H423	H	-0.064003	-0.424848	0.164211
H424	H	0.435997	0.075152	0.664211
H425	H	-0.064369	-0.395255	0.194577
H426	H	0.435631	0.104745	0.694577
H427	H	-0.133857	-0.449175	0.234324
H428	H	0.366143	0.050825	0.734324
H429	H	-0.134234	-0.419577	0.264691
H430	H	0.365766	0.080423	0.764691
O431	O	-0.081971	-0.531498	0.614048
O432	O	0.418029	-0.031498	1.114048
C433	C	-0.115904	-0.477854	0.594308
C434	C	0.384096	0.022146	1.094308
H435	H	-0.089615	-0.451926	0.559242
H436	H	0.410385	0.048074	1.059242
H437	H	-0.143480	-0.478685	0.579149
H438	H	0.356520	0.021315	1.079149
C439	C	-0.183522	-0.485002	0.683658
C440	C	0.316478	0.014998	1.183658
C441	C	-0.151233	-0.453156	0.640592
C442	C	0.348767	0.046844	1.140592
H443	H	-0.205317	-0.469768	0.712208
H444	H	0.294683	0.030232	1.212208
H445	H	-0.160662	-0.521144	0.696957
H446	H	0.339338	-0.021144	1.196957
H447	H	-0.206497	-0.485692	0.671018
H448	H	0.293503	0.014308	1.171018
H449	H	-0.128254	-0.452473	0.653230
H450	H	0.371746	0.047527	1.153230
H451	H	-0.174091	-0.417014	0.627296
H452	H	0.325909	0.082986	1.127296
H453	H	0.229173	-0.519573	0.551126
H454	H	0.729173	-0.019573	1.051126
H455	H	0.634015	-0.664461	0.475235
H456	H	1.134015	-0.164461	0.975235
H457	H	0.270043	-0.526578	0.659994
H458	H	0.770043	-0.026578	1.159994
O459	O	0.272603	-0.487229	0.583450
O460	O	0.772603	0.012771	1.083450
C461	C	0.301290	-0.520288	0.550329
C462	C	0.801290	-0.020288	1.050329
H463	H	0.274044	-0.541088	0.557642
H464	H	0.774044	-0.041088	1.057642
H465	H	0.313560	-0.493899	0.505563
H466	H	0.813560	0.006101	1.005563
C467	C	0.386321	-0.538406	0.555759
C468	C	0.886321	-0.038406	1.055759
C469	C	0.352858	-0.563955	0.564745
C470	C	0.852858	-0.063955	1.064745
H471	H	0.418132	-0.565340	0.564649
H472	H	0.918132	-0.065340	1.064649
H473	H	0.366995	-0.516131	0.578072
H474	H	0.866995	-0.016131	1.078072
H475	H	0.396541	-0.516416	0.518454
H476	H	0.896541	-0.016416	1.018454
H477	H	0.342634	-0.585939	0.602050
H478	H	0.842634	-0.085939	1.102050
H479	H	0.372184	-0.586235	0.542438
H480	H	0.872184	-0.086235	1.042438
H481	H	0.373680	-0.393351	0.561411
H482	H	0.873680	0.106649	1.061411
O483	O	0.265589	-0.350018	0.594715
O484	O	0.765589	0.149982	1.094715
C485	C	0.303058	-0.321699	0.566632
C486	C	0.803058	0.178301	1.066632
H487	H	0.343813	-0.351034	0.573211
H488	H	0.843813	0.148966	1.073211
H489	H	0.309109	-0.303933	0.521161
H490	H	0.809109	0.196067	1.021161
C491	C	0.230707	-0.239105	0.580414
C492	C	0.730707	0.260895	1.080414
C493	C	0.280761	-0.275134	0.588497
C494	C	0.780761	0.224866	1.088497
H495	H	0.216953	-0.210380	0.593899
H496	H	0.716953	0.289620	1.093899
H497	H	0.205462	-0.258183	0.599332
H498	H	0.705462	0.241817	1.099332
H499	H	0.235756	-0.224306	0.542521
H500	H	0.735756	0.275694	1.042521
H501	H	0.275710	-0.289938	0.626390
H502	H	0.775710	0.210062	1.126390
H503	H	0.306005	-0.256057	0.569586
H504	H	0.806005	0.243943	1.069586
O505	O	0.226503	-0.356166	0.537461
O506	O	0.726503	0.143834	1.037461
C507	C	0.234571	-0.318674	0.483784
C508	C	0.734571	0.181326	0.983784
H509	H	0.200103	-0.277934	0.483905
H510	H	0.700103	0.222066	0.983905
H511	H	0.275283	-0.312588	0.467388
H512	H	0.775283	0.187412	0.967388
C513	C	0.277282	-0.391013	0.446986
C514	C	0.777282	0.108987	0.946986
C515	C	0.234946	-0.340976	0.447134
C516	C	0.734946	0.159024	0.947134
H517	H	0.277516	-0.404770	0.424378
H518	H	0.777516	0.095230	0.924378
H519	H	0.271849	-0.416272	0.483149
H520	H	0.771849	0.083728	0.983149
H521	H	0.311205	-0.385934	0.433324
H522	H	0.811205	0.114066	0.933324
H523	H	0.201024	-0.346057	0.460803
H524	H	0.701024	0.153943	0.960803
H525	H	0.240374	-0.315718	0.410973
H526	H	0.740374	0.184282	0.910973
O527	O	0.378309	-0.569876	0.626595
O528	O	0.878309	-0.069876	1.126595
C529	C	0.434880	-0.578817	0.603947
C530	C	0.934880	-0.078817	1.103947
H531	H	0.442664	-0.539479	0.571185
H532	H	0.942664	-0.039479	1.071185
H533	H	0.451124	-0.591989	0.637391
H534	H	0.951124	-0.091989	1.137391
C535	C	0.454657	-0.672244	0.618526
C536	C	0.954657	-0.172244	1.118526
C537	C	0.464217	-0.623930	0.578283
C538	C	0.964217	-0.123930	1.078283
H539	H	0.472754	-0.700074	0.602697
H540	H	0.972754	-0.200074	1.102697
H541	H	0.416544	-0.666222	0.633786
H542	H	0.916544	-0.166222	1.133786
H543	H	0.468193	-0.683214	0.646393
H544	H	0.968193	-0.183214	1.146393
H545	H	0.450675	-0.612957	0.550421
H546	H	0.950675	-0.112957	1.050421
H547	H	0.502329	-0.629951	0.563018
H548	H	1.002329	-0.129951	1.063018
H549	H	0.186762	-0.248063	0.508836
H550	H	0.686762	0.251937	1.008836
H551	H	0.136793	-0.351798	0.712725
H552	H	0.636793	0.148202	1.212725
O553	O	0.097024	-0.243692	0.684101
O554	O	0.597024	0.256308	1.184101
C555	C	0.088982	-0.281182	0.737778
C556	C	0.588982	0.218818	1.237778
H557	H	0.095372	-0.321928	0.737676
H558	H	0.595372	0.178072	1.237676
H559	H	0.119423	-0.287256	0.754129
H560	H	0.619423	0.212744	1.254129
C561	C	0.022593	-0.208845	0.774588
C562	C	0.522593	0.291155	1.274588
C563	C	0.030437	-0.258888	0.774463
C564	C	0.530437	0.241112	1.274463
H565	H	-0.013519	-0.195093	0.797218
H566	H	0.486481	0.304907	1.297218
H567	H	0.028012	-0.183587	0.738425
H568	H	0.528012	0.316413	1.238425
H569	H	0.047965	-0.213914	0.788212
H570	H	0.547965	0.286086	1.288212
H571	H	0.005071	-0.253818	0.760833
H572	H	0.505071	0.246182	1.260833
H573	H	0.025012	-0.284145	0.810625
H574	H	0.525012	0.215855	1.310625
H575	H	-0.067667	-0.562559	0.332499
H576	H	0.432333	-0.062559	0.832499
H577	H	0.016937	-0.731954	0.332612
H578	H	0.516937	-0.231954	0.832612
O579	O	0.056838	-0.703372	0.224522
O580	O	0.556838	-0.203372	0.724522
C581	C	0.064844	-0.757041	0.262033
C582	C	0.564844	-0.257041	0.762033
H583	H	0.058394	-0.756926	0.302798
H584	H	0.558394	-0.256926	0.802798
H585	H	0.034422	-0.773368	0.268041
H586	H	0.534422	-0.273368	0.768041
C587	C	0.131319	-0.793907	0.189757
C588	C	0.631319	-0.293907	0.689757
C589	C	0.123401	-0.793767	0.239824
C590	C	0.623401	-0.293767	0.739824
H591	H	0.167439	-0.816562	0.176057
H592	H	0.667439	-0.316562	0.676057
H593	H	0.125924	-0.757749	0.164485
H594	H	0.625924	-0.257749	0.664485
H595	H	0.105964	-0.807512	0.194771
H596	H	0.605964	-0.307512	0.694771
H597	H	0.148751	-0.780156	0.234809
H598	H	0.648751	-0.280156	0.734809
H599	H	0.128802	-0.829923	0.265095
H600	H	0.628802	-0.329923	0.765095
H601	H	-0.067739	-0.562558	0.381123
H602	H	0.432261	-0.062558	0.881123
H603	H	0.051198	-0.697438	0.500669
H604	H	0.551198	-0.197438	1.000669
H605	H	0.016700	-0.731943	0.465981
H606	H	0.516700	-0.231943	0.965981
H607	H	0.092838	-0.841923	0.426277
H608	H	0.592838	-0.341923	0.926277
O609	O	0.064203	-0.733828	0.387437
O610	O	0.564203	-0.233828	0.887437
C611	C	0.117478	-0.771360	0.384450
C612	C	0.617478	-0.271360	0.884450
H613	H	0.115246	-0.812084	0.418211
H614	H	0.615246	-0.312084	0.918211
H615	H	0.139349	-0.777466	0.343035
H616	H	0.639349	-0.277466	0.843035
C617	C	0.151885	-0.699077	0.350060
C618	C	0.651885	-0.199077	0.850060
C619	C	0.149144	-0.749095	0.391529
C620	C	0.649144	-0.249095	0.891529
H621	H	0.171420	-0.685343	0.354424
H622	H	0.671420	-0.185343	0.854424
H623	H	0.115993	-0.673791	0.352070
H624	H	0.615993	-0.173791	0.852070
H625	H	0.170110	-0.704173	0.315552
H626	H	0.670110	-0.204173	0.815552
H627	H	0.130913	-0.743998	0.426036
H628	H	0.630913	-0.243998	0.926036
H629	H	0.185034	-0.774380	0.389525
H630	H	0.685034	-0.274380	0.889525
H631	H	-0.109425	-0.738032	0.455342
H632	H	0.390575	-0.238032	0.955342
O633	O	-0.080792	-0.846120	0.494179
O634	O	0.419208	-0.346120	0.994179
C635	C	-0.107527	-0.832149	0.459162
C636	C	0.392473	-0.332149	0.959162
H637	H	-0.106125	-0.790690	0.426585
H638	H	0.393875	-0.290690	0.926585
H639	H	-0.086224	-0.864362	0.438754
H640	H	0.413776	-0.364362	0.938754
C641	C	-0.169127	-0.880295	0.532500
C642	C	0.330873	-0.380295	1.032500
C643	C	-0.167408	-0.829373	0.492490
C644	C	0.332592	-0.329373	0.992490
H645	H	-0.206064	-0.878585	0.553058
H646	H	0.293936	-0.378585	1.053058
H647	H	-0.151114	-0.889710	0.556091
H648	H	0.348886	-0.389710	1.056091
H649	H	-0.151372	-0.907135	0.515487
H650	H	0.348628	-0.407135	1.015487
H651	H	-0.185158	-0.802536	0.509504
H652	H	0.314842	-0.302536	1.009504
H653	H	-0.185426	-0.819953	0.468902
H654	H	0.314574	-0.319953	0.968902
O655	O	-0.112112	-0.694672	0.513966
O656	O	0.387888	-0.194672	1.013966
C657	C	-0.126127	-0.742578	0.546980
C658	C	0.373873	-0.242578	1.046980
H659	H	-0.167605	-0.734861	0.547455
H660	H	0.332395	-0.234861	1.047455
H661	H	-0.093955	-0.776985	0.529829
H662	H	0.406045	-0.276985	1.029829
C663	C	-0.077924	-0.768329	0.604986
C664	C	0.422076	-0.268329	1.104986
C665	C	-0.128870	-0.758850	0.605573
C666	C	0.371130	-0.258850	1.105573
H667	H	-0.079613	-0.778369	0.641128
H668	H	0.420387	-0.278369	1.141128
H669	H	-0.068480	-0.736055	0.582743
H670	H	0.431520	-0.236055	1.082743
H671	H	-0.051119	-0.797000	0.590691
H672	H	0.448881	-0.297000	1.090691
H673	H	-0.155672	-0.730175	0.619861
H674	H	0.344328	-0.230175	1.119861
H675	H	-0.138318	-0.791120	0.627820
H676	H	0.361682	-0.291120	1.127820
O677	O	-0.224312	-0.564958	0.367069
O678	O	0.275688	-0.064958	0.867069
C679	C	-0.186760	-0.556930	0.313426
C680	C	0.313240	-0.056930	0.813426
H681	H	-0.146039	-0.563364	0.313612
H682	H	0.353961	-0.063364	0.813612
H683	H	-0.180667	-0.587355	0.297042
H684	H	0.319333	-0.087355	0.797042
C685	C	-0.258995	-0.490471	0.276481
C686	C	0.241005	0.009529	0.776481
C687	C	-0.208981	-0.498368	0.276709
C688	C	0.291019	0.001632	0.776709
H689	H	-0.272702	-0.454348	0.253831
H690	H	0.227298	0.045652	0.753831
H691	H	-0.284295	-0.495880	0.312621
H692	H	0.215705	0.004120	0.812621
H693	H	-0.253910	-0.515828	0.262829
H694	H	0.246090	-0.015828	0.762829
H695	H	-0.214068	-0.473016	0.290367
H696	H	0.285932	0.026984	0.790367
H697	H	-0.183682	-0.492954	0.240570
H698	H	0.316318	0.007046	0.740570
O699	O	0.024899	-0.424323	0.399757
O700	O	0.524899	0.075677	0.899757
C701	C	-0.028752	-0.390452	0.419571
C702	C	0.471248	0.109548	0.919571
H703	H	-0.054623	-0.416799	0.454635
H704	H	0.445377	0.083201	0.954635
H705	H	-0.027928	-0.362893	0.434754
H706	H	0.472072	0.137107	0.934754
C707	C	-0.021747	-0.322734	0.330273
C708	C	0.478253	0.177266	0.830273
C709	C	-0.053523	-0.355093	0.373336
C710	C	0.446477	0.144907	0.873336
H711	H	-0.037027	-0.300921	0.301754
H712	H	0.462973	0.199079	0.801754
H713	H	0.014399	-0.345552	0.316924
H714	H	0.514399	0.154448	0.816924
H715	H	-0.021063	-0.299773	0.342933
H716	H	0.478937	0.200227	0.842933
H717	H	-0.054201	-0.378059	0.360678
H718	H	0.445799	0.121941	0.860678
H719	H	-0.089670	-0.332278	0.386682
H720	H	0.410330	0.167722	0.886682
O721	O	-0.224751	-0.656832	0.551264
O722	O	0.275249	-0.156832	1.051264
C723	C	-0.257821	-0.608787	0.565043
C724	C	0.242179	-0.108787	1.065043
H725	H	-0.240547	-0.574483	0.532850
H726	H	0.259453	-0.074483	1.032850
H727	H	-0.301116	-0.596710	0.566853
H728	H	0.198884	-0.096710	1.066853
C729	C	-0.280013	-0.661089	0.660677
C730	C	0.219987	-0.161089	1.160677
C731	C	-0.258793	-0.618958	0.621140
C732	C	0.241207	-0.118958	1.121140
H733	H	-0.280615	-0.667363	0.695281
H734	H	0.219385	-0.167363	1.195281
H735	H	-0.257734	-0.693459	0.651395
H736	H	0.242266	-0.193459	1.151395
H737	H	-0.316090	-0.651020	0.662178
H738	H	0.183910	-0.151020	1.162178
H739	H	-0.222715	-0.629031	0.619634
H740	H	0.277285	-0.129031	1.119634
H741	H	-0.281066	-0.586590	0.630423
H742	H	0.218934	-0.086590	1.130423
H743	H	-0.116227	-0.604815	0.338615
H744	H	0.383773	-0.104815	0.838615
