data_functionalizedCrystal
_audit_creation_method	'MofGen! by Chris Wilmer'
_symmetry_space_group_name_H-M	'P1'
_symmetry_Int_Tables_number	1
_symmetry_cell_setting	triclinic
loop_
_symmetry_equiv_pos_as_xyz
  x,y,z
_cell_length_a	18.215407
_cell_length_b	18.215405
_cell_length_c	18.215399
_cell_angle_alpha	89.969449
_cell_angle_beta	89.980167
_cell_angle_gamma	90.025333
loop_
_atom_site_label
_atom_site_type_symbol
_atom_site_fract_x
_atom_site_fract_y
_atom_site_fract_z
Zn1	Zn	-1.125072	0.292983	0.416103
Zn2	Zn	-0.875072	0.542983	0.666103
Zn3	Zn	-0.625072	0.792983	0.916103
Zn4	Zn	-0.375072	1.042983	1.166103
Zn5	Zn	-1.124980	0.416054	0.293031
Zn6	Zn	-0.874980	0.666054	0.543031
Zn7	Zn	-0.624980	0.916054	0.793031
Zn8	Zn	-0.374980	1.166054	1.043031
Zn9	Zn	-1.002005	0.293007	0.293050
Zn10	Zn	-0.752005	0.543007	0.543050
Zn11	Zn	-0.502005	0.793007	0.793050
Zn12	Zn	-0.252005	1.043007	1.043050
Zn13	Zn	-1.001970	0.416013	0.416056
Zn14	Zn	-0.751970	0.666013	0.666056
Zn15	Zn	-0.501970	0.916013	0.916056
Zn16	Zn	-0.251970	1.166013	1.166056
O17	O	-1.063507	0.354514	0.354560
O18	O	-0.813507	0.604514	0.604560
O19	O	-0.563507	0.854514	0.854560
O20	O	-0.313507	1.104514	1.104560
O21	O	-1.228044	0.309316	0.399788
O22	O	-0.978044	0.559316	0.649788
O23	O	-0.728044	0.809316	0.899788
O24	O	-0.478044	1.059316	1.149788
O25	O	-1.108643	0.399759	0.190049
O26	O	-0.858643	0.649759	0.440049
O27	O	-0.608643	0.899759	0.690049
O28	O	-0.358643	1.149759	0.940049
O29	O	-1.018382	0.190020	0.309401
O30	O	-0.768382	0.440020	0.559401
O31	O	-0.518382	0.690020	0.809401
O32	O	-0.268382	0.940020	1.059401
O33	O	-1.227977	0.399736	0.309368
O34	O	-0.977977	0.649736	0.559368
O35	O	-0.727977	0.899736	0.809368
O36	O	-0.477977	1.149736	1.059368
O37	O	-1.108799	0.190002	0.399807
O38	O	-0.858799	0.440002	0.649807
O39	O	-0.608799	0.690002	0.899807
O40	O	-0.358799	0.940002	1.149807
O41	O	-1.018293	0.309357	0.190063
O42	O	-0.768293	0.559357	0.440063
O43	O	-0.518293	0.809357	0.690063
O44	O	-0.268293	1.059357	0.940063
O45	O	-0.899016	0.309317	0.309355
O46	O	-0.649016	0.559317	0.559355
O47	O	-0.399016	0.809317	0.809355
O48	O	-0.149016	1.059317	1.059355
O49	O	-1.018324	0.399666	0.519046
O50	O	-0.768324	0.649666	0.769046
O51	O	-0.518324	0.899666	1.019046
O52	O	-0.268324	1.149666	1.269046
O53	O	-0.898991	0.399689	0.399727
O54	O	-0.648991	0.649689	0.649727
O55	O	-0.398991	0.899689	0.899727
O56	O	-0.148991	1.149689	1.149727
O57	O	-1.108766	0.309276	0.519081
O58	O	-0.858766	0.559276	0.769081
O59	O	-0.608766	0.809276	1.019081
O60	O	-0.358766	1.059276	1.269081
O61	O	-1.108610	0.519033	0.309322
O62	O	-0.858610	0.769033	0.559322
O63	O	-0.608610	1.019033	0.809322
O64	O	-0.358610	1.269033	1.059322
O65	O	-1.018235	0.519003	0.399708
O66	O	-0.768235	0.769003	0.649708
O67	O	-0.518235	1.019003	0.899708
O68	O	-0.268235	1.269003	1.149708
C69	C	-0.872301	0.354502	0.354539
C70	C	-0.622301	0.604502	0.604539
C71	C	-0.372301	0.854502	0.854539
C72	C	-0.122301	1.104502	1.104539
C73	C	-0.790502	0.354514	0.354547
C74	C	-0.540502	0.604514	0.604547
C75	C	-0.290502	0.854514	0.854547
C76	C	-0.040502	1.104514	1.104547
C77	C	-1.063429	0.545721	0.354524
C78	C	-0.813429	0.795721	0.604524
C79	C	-0.563429	1.045721	0.854524
C80	C	-0.313429	1.295721	1.104524
C81	C	-1.063463	0.627520	0.354534
C82	C	-0.813463	0.877520	0.604534
C83	C	-0.563463	1.127520	0.854534
C84	C	-0.313463	1.377520	1.104534
C85	C	-1.063552	0.354464	0.546513
C86	C	-0.813552	0.604464	0.796513
C87	C	-0.563552	0.854464	1.046513
C88	C	-0.313552	1.104464	1.296513
C89	C	-1.063571	0.354442	0.628312
C90	C	-0.813571	0.604442	0.878312
C91	C	-0.563571	0.854442	1.128312
C92	C	-0.313571	1.104442	1.378312
C93	C	-1.255460	0.354528	0.354581
C94	C	-1.005460	0.604528	0.604581
C95	C	-0.755460	0.854528	0.854581
C96	C	-0.505460	1.104528	1.104581
C97	C	-1.337259	0.354533	0.354591
C98	C	-1.087259	0.604533	0.604591
C99	C	-0.837259	0.854533	0.854591
C100	C	-0.587259	1.104533	1.104591
C101	C	-0.602314	0.401645	0.401544
C102	C	-0.352314	0.651645	0.651544
C103	C	-0.102314	0.901645	0.901544
C104	C	0.147686	1.151645	1.151544
C105	C	-0.525455	0.401647	0.401554
C106	C	-0.275455	0.651647	0.651554
C107	C	-0.025455	0.901647	0.901554
C108	C	0.224545	1.151647	1.151554
C109	C	-0.525452	0.307397	0.307591
C110	C	-0.275452	0.557397	0.557591
C111	C	-0.025452	0.807397	0.807591
C112	C	0.224548	1.057397	1.057591
C113	C	-0.602309	0.307392	0.307586
C114	C	-0.352309	0.557392	0.557586
C115	C	-0.102309	0.807392	0.807586
C116	C	0.147691	1.057392	1.057586
C117	C	-0.640738	0.354520	0.354562
C118	C	-0.390738	0.604520	0.604562
C119	C	-0.140738	0.854520	0.854562
C120	C	0.109262	1.104520	1.104562
C121	C	-0.487022	0.354528	0.354576
C122	C	-0.237022	0.604528	0.604576
C123	C	0.012978	0.854528	0.854576
C124	C	0.262978	1.104528	1.104576
C125	C	-0.403688	0.354530	0.354585
C126	C	-0.153688	0.604530	0.604585
C127	C	0.096312	0.854530	0.854585
C128	C	0.346312	1.104530	1.104585
C129	C	-0.724077	0.354517	0.354553
C130	C	-0.474077	0.604517	0.604553
C131	C	-0.224077	0.854517	0.854553
C132	C	0.025923	1.104517	1.104553
C133	C	-1.063605	0.162561	0.354611
C134	C	-0.813605	0.412561	0.604611
C135	C	-0.563605	0.662561	0.854611
C136	C	-0.313605	0.912561	1.104611
C137	C	-1.063647	0.080763	0.354633
C138	C	-0.813647	0.330763	0.604633
C139	C	-0.563647	0.580763	0.854633
C140	C	-0.313647	0.830763	1.104633
C141	C	-1.110632	0.815705	0.307556
C142	C	-0.860632	1.065705	0.557556
C143	C	-0.610632	1.315705	0.807556
C144	C	-0.360632	1.565705	1.057556
C145	C	-1.110665	0.892563	0.307574
C146	C	-0.860665	1.142563	0.557574
C147	C	-0.610665	1.392563	0.807574
C148	C	-0.360665	1.642563	1.057574
C149	C	-1.016476	0.892572	0.401616
C150	C	-0.766476	1.142572	0.651616
C151	C	-0.516476	1.392572	0.901616
C152	C	-0.266476	1.642572	1.151616
C153	C	-1.016447	0.815715	0.401601
C154	C	-0.766447	1.065715	0.651601
C155	C	-0.516447	1.315715	0.901601
C156	C	-0.266447	1.565715	1.151601
C157	C	-1.063524	0.777283	0.354567
C158	C	-0.813524	1.027283	0.604567
C159	C	-0.563524	1.277283	0.854567
C160	C	-0.313524	1.527283	1.104567
C161	C	-1.063586	0.930999	0.354600
C162	C	-0.813586	1.180999	0.604600
C163	C	-0.563586	1.430999	0.854600
C164	C	-0.313586	1.680999	1.104600
C165	C	-1.063621	1.014333	0.354619
C166	C	-0.813621	1.264333	0.604619
C167	C	-0.563621	1.514333	0.854619
C168	C	-0.313621	1.764333	1.104619
C169	C	-1.063490	0.693944	0.354548
C170	C	-0.813490	0.943944	0.604548
C171	C	-0.563490	1.193944	0.854548
C172	C	-0.313490	1.443944	1.104548
C173	C	-1.063504	0.354512	0.163353
C174	C	-0.813504	0.604512	0.413353
C175	C	-0.563504	0.854512	0.663353
C176	C	-0.313504	1.104512	0.913353
C177	C	-1.063628	0.354326	0.081555
C178	C	-0.813628	0.604326	0.331555
C179	C	-0.563628	0.854326	0.581555
C180	C	-0.313628	1.104326	0.831555
C181	C	-1.110681	0.307332	0.816525
C182	C	-0.860681	0.557332	1.066525
C183	C	-0.610681	0.807332	1.316525
C184	C	-0.360681	1.057332	1.566525
C185	C	-1.110690	0.307311	0.893384
C186	C	-0.860690	0.557311	1.143384
C187	C	-0.610690	0.807311	1.393384
C188	C	-0.360690	1.057311	1.643384
C189	C	-1.016513	0.401438	0.893336
C190	C	-0.766513	0.651438	1.143336
C191	C	-0.516513	0.901438	1.393336
C192	C	-0.266513	1.151438	1.643336
C193	C	-1.016501	0.401455	0.816479
C194	C	-0.766501	0.651455	1.066479
C195	C	-0.516501	0.901455	1.316479
C196	C	-0.266501	1.151455	1.566479
C197	C	-1.063589	0.354403	0.778075
C198	C	-0.813589	0.604403	1.028075
C199	C	-0.563589	0.854403	1.278075
C200	C	-0.313589	1.104403	1.528075
C201	C	-1.063610	0.354365	0.931791
C202	C	-0.813610	0.604365	1.181791
C203	C	-0.563610	0.854365	1.431791
C204	C	-0.313610	1.104365	1.681791
C205	C	-1.063619	0.354342	1.015125
C206	C	-0.813619	0.604342	1.265125
C207	C	-0.563619	0.854342	1.515125
C208	C	-0.313619	1.104342	1.765125
C209	C	-1.063579	0.354425	0.694736
C210	C	-0.813579	0.604425	0.944736
C211	C	-0.563579	0.854425	1.194736
C212	C	-0.313579	1.104425	1.444736
H213	H	-0.633601	0.440018	0.439797
H214	H	-0.383601	0.690018	0.689797
H215	H	-0.133601	0.940018	0.939797
H216	H	0.116399	1.190018	1.189797
H217	H	-1.149026	0.923843	0.269294
H218	H	-0.899026	1.173843	0.519294
H219	H	-0.649026	1.423843	0.769294
H220	H	-0.399026	1.673843	1.019294
Br221	Br	-0.952588	0.944734	0.465444
Br222	Br	-0.702588	1.194734	0.715444
Br223	Br	-0.452588	1.444734	0.965444
Br224	Br	-0.202588	1.694734	1.215444
H225	H	-0.978177	0.439748	0.924614
H226	H	-0.728177	0.689748	1.174614
H227	H	-0.478177	0.939748	1.424614
H228	H	-0.228177	1.189748	1.674614
H229	H	-1.149021	0.269017	0.785259
H230	H	-0.899021	0.519017	1.035259
H231	H	-0.649021	0.769017	1.285259
H232	H	-0.399021	1.019017	1.535259
Br233	Br	-0.473310	0.465602	0.465322
Br234	Br	-0.223310	0.715602	0.715322
Br235	Br	0.026690	0.965602	0.965322
Br236	Br	0.276690	1.215602	1.215322
Br237	Br	-0.654461	0.243424	0.243826
Br238	Br	-0.404461	0.493424	0.493826
Br239	Br	-0.154461	0.743424	0.743826
Br240	Br	0.095539	0.993424	0.993826
H241	H	-1.148966	0.784415	0.269260
H242	H	-0.898966	1.034415	0.519260
H243	H	-0.648966	1.284415	0.769260
H244	H	-0.398966	1.534415	1.019260
Br245	Br	-0.952517	0.763566	0.465413
Br246	Br	-0.702517	1.013566	0.715413
Br247	Br	-0.452517	1.263566	0.965413
Br248	Br	-0.202517	1.513566	1.215413
H249	H	-0.978148	0.439786	0.785173
H250	H	-0.728148	0.689786	1.035173
H251	H	-0.478148	0.939786	1.285173
H252	H	-0.228148	1.189786	1.535173
Br253	Br	-0.473293	0.243441	0.243841
Br254	Br	-0.223293	0.493441	0.493841
Br255	Br	0.026707	0.743441	0.743841
Br256	Br	0.276707	0.993441	0.993841
Br257	Br	-1.174608	0.243431	0.945563
Br258	Br	-0.924608	0.493431	1.195563
Br259	Br	-0.674608	0.743431	1.445563
Br260	Br	-0.424608	0.993431	1.695563
