data_functionalizedCrystal
_audit_creation_method	'MofGen! by Chris Wilmer'
_symmetry_space_group_name_H-M	'P1'
_symmetry_Int_Tables_number	1
_symmetry_cell_setting	triclinic
loop_
_symmetry_equiv_pos_as_xyz
  x,y,z
_cell_length_a	16.120530
_cell_length_b	12.594516
_cell_length_c	16.120297
_cell_angle_alpha	87.126738
_cell_angle_beta	89.871860
_cell_angle_gamma	87.109090
loop_
_atom_site_label
_atom_site_type_symbol
_atom_site_fract_x
_atom_site_fract_y
_atom_site_fract_z
Zn1	Zn	1.247514	-0.539248	0.534570
Zn2	Zn	1.254487	-0.708691	0.395513
Zn3	Zn	1.115501	-0.521262	0.388487
Zn4	Zn	1.108444	-0.707711	0.527483
O5	O	1.181487	-0.619228	0.461513
O6	O	1.364806	-0.569663	0.522030
O7	O	1.241923	-0.676711	0.278216
O8	O	1.133048	-0.374706	0.407891
O9	O	1.369930	-0.694152	0.419866
O10	O	1.230037	-0.387920	0.515217
O11	O	1.139811	-0.539008	0.273054
O12	O	0.998198	-0.538057	0.401019
O13	O	1.121019	-0.692481	0.644788
O14	O	0.993013	-0.675040	0.503138
O15	O	1.223193	-0.568712	0.649995
O16	O	1.235079	-0.857503	0.412994
O17	O	1.127781	-0.856783	0.509951
C18	C	0.965432	-0.604492	0.450548
C19	C	0.873003	-0.598214	0.445876
C20	C	1.181443	-0.895764	0.461485
C21	C	1.181499	-1.014075	0.461505
C22	C	0.703771	-0.586729	0.437355
C23	C	0.660039	-0.651809	0.485732
C24	C	0.565873	-0.645419	0.480991
C25	C	0.797946	-0.593118	0.442095
C26	C	1.239955	-1.154457	0.408872
C27	C	1.165106	-1.077346	0.384592
C28	C	1.256341	-1.089611	0.485746
C29	C	1.106694	-1.147754	0.437261
C30	C	1.197978	-1.160031	0.538452
C31	C	1.123075	-1.082950	0.514199
C32	C	1.398384	-0.634023	0.472522
C33	C	1.490813	-0.640327	0.477213
C34	C	1.170541	-0.632494	0.678408
C35	C	1.165877	-0.638147	0.770835
C36	C	1.181552	-0.341615	0.461561
C37	C	1.181580	-0.223312	0.461581
C38	C	1.192437	-0.605941	0.245465
C39	C	1.197263	-0.599999	0.153046
C40	C	1.157331	-0.648442	0.940060
C41	C	1.205806	-0.589707	0.983827
C42	C	1.201051	-0.595435	1.077989
C43	C	1.162085	-0.642715	0.845889
H44	H	0.670493	-0.526218	0.392380
O45	O	0.704114	-0.731974	0.545314
H46	H	0.745547	-0.786407	0.509971
H47	H	1.211911	-1.196178	0.603477
O48	O	1.265518	-0.517407	0.939792
H49	H	1.329951	-0.541113	0.959735
O50	O	1.305318	-1.196033	0.349828
H51	H	1.291469	-1.162734	0.286024
O52	O	1.146678	-1.029477	0.298444
H53	H	1.195251	-1.058127	0.254835
H54	H	1.043421	-1.173369	0.416717
H55	H	1.073620	-1.051760	0.558739
H56	H	1.319598	-1.063858	0.506216
H57	H	1.112262	-0.703025	0.973306
