data_functionalizedCrystal
_audit_creation_method	'MofGen! by Chris Wilmer'
_symmetry_space_group_name_H-M	'P1'
_symmetry_Int_Tables_number	1
_symmetry_cell_setting	triclinic
loop_
_symmetry_equiv_pos_as_xyz
  x,y,z
_cell_length_a	15.944551
_cell_length_b	16.992695
_cell_length_c	15.455313
_cell_angle_alpha	87.152573
_cell_angle_beta	92.676985
_cell_angle_gamma	87.083481
loop_
_atom_site_label
_atom_site_type_symbol
_atom_site_fract_x
_atom_site_fract_y
_atom_site_fract_z
O1	O	-1.124754	-0.097702	-0.072040
O2	O	-0.881041	-0.110169	-0.072062
O3	O	-1.001920	0.010207	-0.072045
O4	O	-1.003875	-0.218078	-0.072058
O5	O	-0.995006	0.003352	0.072217
O6	O	-0.874127	-0.117024	0.072199
O7	O	-1.117839	-0.104557	0.072221
Cu8	Cu	-0.995352	-0.111417	0.085382
Cu9	Cu	-1.003529	-0.103310	-0.085223
O10	O	-0.996960	-0.224933	0.072203
C11	C	-0.846255	-0.113079	0.000066
C12	C	-0.752906	-0.111527	0.000058
C13	C	-0.995949	0.035992	0.000086
C14	C	-0.988449	0.123037	0.000085
C15	C	-1.152625	-0.101647	0.000091
C16	C	-1.245975	-0.103199	0.000093
C17	C	-0.532795	-0.033204	0.000079
C18	C	-0.477623	-0.066195	-0.071051
C19	C	-0.581991	-0.108720	0.000068
C20	C	-0.470830	-0.072971	0.071179
C21	C	-0.416895	-0.106003	0.000082
C22	C	-0.528052	-0.141729	-0.071121
C23	C	-0.521261	-0.148498	0.071173
C24	C	-0.466111	-0.181543	0.000025
C25	C	-0.677099	-0.110283	0.000059
C26	C	-0.321790	-0.104446	0.000084
C27	C	-1.002931	-0.250718	0.000071
C28	C	-1.010431	-0.337762	0.000066
N29	N	-0.989607	-0.117118	0.205377
C30	C	-1.060814	0.173273	0.000092
C31	C	-1.053762	0.255060	0.000083
C32	C	-0.974345	0.286609	0.000073
C33	C	-0.901975	0.236367	0.000063
C34	C	-0.909028	0.154581	0.000066
C35	C	-0.945114	0.530209	0.000059
C36	C	-0.938067	0.612001	0.000059
C37	C	-1.089855	0.630689	0.000077
C38	C	-1.096900	0.548901	0.000085
C39	C	-1.024531	0.498666	0.000070
N40	N	-0.967135	0.370209	0.000067
N41	N	-1.031742	0.415068	0.000070
N42	N	-1.009280	-0.097602	-0.205218
C43	C	-1.040980	-0.065997	0.250778
C44	C	-1.036644	-0.070316	0.341586
C45	C	-0.980937	-0.125761	0.386990
C46	C	-0.929558	-0.176884	0.341582
C47	C	-0.933890	-0.172561	0.250776
C48	C	-0.962233	-0.144402	0.658568
C49	C	-0.957906	-0.148723	0.749380
C50	C	-1.064992	-0.042153	0.749378
C51	C	-1.069323	-0.037838	0.658571
C52	C	-1.017941	-0.088958	0.613171
N53	N	-0.976505	-0.130179	0.479809
N54	N	-1.022369	-0.084536	0.520353
H55	H	-0.561929	0.029473	-0.000005
H56	H	-1.112689	0.295960	0.000091
H57	H	-0.458253	-0.031397	-0.131184
H58	H	-0.850101	0.113679	0.000060
H59	H	-0.553065	-0.170785	-0.131322
H60	H	-0.445719	-0.043874	0.131312
Br61	Br	-1.106363	-0.000934	0.403205
Br62	Br	-1.168599	0.130464	0.000118
H63	H	-1.161570	0.523220	0.000093
Br64	Br	-1.188065	0.698869	0.000097
H65	H	-0.892055	-0.214188	0.213811
Br66	Br	-0.417857	-0.286105	-0.000042
Br67	Br	-0.553581	-0.206455	0.171402
H68	H	-0.873392	0.637684	0.000065
Br69	Br	-0.846898	0.462043	0.000034
Br70	Br	-0.892504	-0.213779	0.596959
Br71	Br	-1.116593	0.009247	0.189168
Br72	Br	-0.882301	-0.223979	0.810995
H73	H	-0.837312	0.262061	0.000050
Br74	Br	-1.144929	0.037405	0.596949
H75	H	-1.106824	-0.000533	0.786351
H76	H	-0.884195	-0.222026	0.378555
