data_functionalizedCrystal
_audit_creation_method	'MofGen! by Chris Wilmer'
_symmetry_space_group_name_H-M	'P1'
_symmetry_Int_Tables_number	1
_symmetry_cell_setting	triclinic
loop_
_symmetry_equiv_pos_as_xyz
  x,y,z
_cell_length_a	6.817900
_cell_length_b	15.866870
_cell_length_c	14.125465
_cell_angle_alpha	113.228420
_cell_angle_beta	100.398878
_cell_angle_gamma	102.655915
loop_
_atom_site_label
_atom_site_type_symbol
_atom_site_fract_x
_atom_site_fract_y
_atom_site_fract_z
V1	V	-4.011086	-0.131684	-0.346677
O2	O	-3.978431	0.007174	-0.291722
O3	O	-3.982395	-0.261921	-0.390814
O4	O	-3.946868	-0.129287	-0.476657
O5	O	-4.014203	-0.126378	-0.205284
V6	V	-4.494210	-0.115118	-0.324116
O7	O	-4.273220	-0.168021	-0.396168
O8	O	-4.682273	-0.078781	-0.274625
O9	O	-4.299695	0.015119	-0.279979
O10	O	-4.644262	-0.253977	-0.379072
O11	O	-4.608490	-0.120424	-0.465510
O12	O	-4.335221	-0.117516	-0.194136
C13	C	-3.832702	-0.293681	-0.397345
C14	C	-3.890424	-0.400149	-0.434299
C15	C	-3.921038	-0.683174	-0.091525
C16	C	-3.975283	-0.783222	-0.126281
C17	C	-4.038973	-0.810065	-0.312008
C18	C	-3.984723	-0.710017	-0.277268
C19	C	-3.925761	-0.646580	-0.167026
C20	C	-3.989445	-0.673422	-0.352768
C21	C	-3.935210	-0.573384	-0.318031
C22	C	-3.876253	-0.509940	-0.207793
C23	C	-3.871526	-0.546541	-0.132288
C24	C	-4.048422	-0.736862	-0.463011
C25	C	-4.053145	-0.700267	-0.538511
C26	C	-3.998894	-0.600227	-0.503774
C27	C	-3.939937	-0.536783	-0.393536
C28	C	-4.003621	-0.563626	-0.579279
C29	C	-3.949386	-0.463587	-0.544541
C30	C	-3.885702	-0.436744	-0.358798
C31	C	-3.787383	-0.124492	-0.506846
C32	C	-3.816292	-0.123394	-0.613411
C33	C	-3.869280	-0.121380	-0.808519
C34	C	-4.055384	-0.125420	-0.862273
C35	C	-4.084869	-0.124299	-0.970839
C36	C	-3.839787	-0.122501	-0.699944
C37	C	-4.112731	0.046874	-0.273447
C38	C	-4.034246	0.153341	-0.236501
C39	C	-4.158049	-0.122313	-0.163944
C40	C	-4.108378	-0.123406	-0.057376
H41	H	-3.832101	-0.428483	-0.179512
Cl42	Cl	-3.657496	-0.114753	-0.863355
Cl43	Cl	-3.955335	-0.417578	-0.639457
H44	H	-3.872993	-0.631518	-0.001754
H45	H	-3.971427	-0.813012	-0.064791
Cl46	Cl	-3.797366	-0.466782	0.006307
Cl47	Cl	-4.267187	-0.132051	-0.807441
H48	H	-3.837657	-0.385088	-0.269027
Cl49	Cl	-4.113105	-0.889823	-0.450594
H50	H	-4.101166	-0.751931	-0.628272
Cl51	Cl	-4.077779	-0.643387	-0.717865
Cl52	Cl	-4.116614	-0.862627	-0.506681
