data_functionalizedCrystal
_audit_creation_method	'MofGen! by Chris Wilmer'
_symmetry_space_group_name_H-M	'P1'
_symmetry_Int_Tables_number	1
_symmetry_cell_setting	triclinic
loop_
_symmetry_equiv_pos_as_xyz
  x,y,z
_cell_length_a	18.050591
_cell_length_b	18.050589
_cell_length_c	16.120297
_cell_angle_alpha	92.875657
_cell_angle_beta	92.882683
_cell_angle_gamma	90.027061
loop_
_atom_site_label
_atom_site_type_symbol
_atom_site_fract_x
_atom_site_fract_y
_atom_site_fract_z
Zn1	Zn	1.114037	-0.316990	-0.471313
Zn2	Zn	1.120235	-0.434885	-0.331911
Zn3	Zn	0.996142	-0.310711	-0.331926
Zn4	Zn	0.989805	-0.441139	-0.471288
O5	O	1.055055	-0.375931	-0.401610
O6	O	1.218784	-0.332639	-0.452825
O7	O	1.109019	-0.413168	-0.215249
O8	O	1.011840	-0.207620	-0.350434
O9	O	1.223337	-0.419256	-0.350407
O10	O	1.098456	-0.212233	-0.452840
O11	O	1.017849	-0.321938	-0.215261
O12	O	0.891377	-0.328003	-0.350409
O13	O	1.001039	-0.429915	-0.587955
O14	O	0.886722	-0.423827	-0.452797
O15	O	1.092312	-0.338703	-0.587974
O16	O	1.102874	-0.539638	-0.350382
O17	O	1.007049	-0.544233	-0.452782
C18	C	0.862103	-0.375913	-0.401603
C19	C	0.779556	-0.375924	-0.401620
C20	C	0.528224	-0.428132	-0.457222
C21	C	0.581026	-0.442771	-0.381129
C22	C	0.482436	-0.375947	-0.401618
C23	C	0.576716	-0.361332	-0.477708
C24	C	0.628421	-0.375937	-0.401623
C25	C	0.534152	-0.390619	-0.325484
C26	C	0.529836	-0.309151	-0.422115
C27	C	0.582618	-0.323761	-0.345968
C28	C	0.398338	-0.375954	-0.401616
C29	C	0.712518	-0.375930	-0.401616
C30	C	1.054966	-0.568883	-0.401596
C31	C	1.054994	-0.651429	-0.401618
C32	C	1.002934	-0.853405	-0.457283
C33	C	0.988267	-0.899407	-0.381211
C34	C	1.055067	-0.802560	-0.401629
C35	C	1.069770	-0.903640	-0.477710
C36	C	1.055135	-0.948546	-0.401646
C37	C	1.040366	-0.847473	-0.325516
C38	C	1.121898	-0.851705	-0.422066
C39	C	1.107259	-0.897682	-0.345941
C40	C	1.055026	-0.718462	-0.401620
C41	C	1.055177	-1.032643	-0.401646
C42	C	1.248760	-0.375950	-0.401617
C43	C	1.331306	-0.375958	-0.401620
C44	C	1.045277	-0.385707	-0.619060
C45	C	1.041111	-0.389873	-0.711724
C46	C	1.055164	-0.182227	-0.401642
C47	C	1.055210	-0.099682	-0.401655
C48	C	1.033476	-0.397462	-0.881383
C49	C	1.076780	-0.354178	-0.922688
C50	C	1.072532	-0.358400	-1.017092
C51	C	1.037723	-0.393240	-0.786970
C52	C	1.064837	-0.366140	-0.185005
C53	C	1.069148	-0.361765	-0.092342
H54	H	0.507363	-0.252684	-0.439477
O55	O	0.511702	-0.405470	-0.248756
C56	C	0.433555	-0.405310	-0.249685
H57	H	0.410121	-0.416644	-0.316104
H58	H	0.413539	-0.348896	-0.225023
C59	C	0.435666	-0.452110	-0.112713
C60	C	0.406884	-0.466037	-0.194290
H61	H	0.419213	-0.489567	-0.078540
H62	H	0.488315	-0.452216	-0.112086
H63	H	0.418983	-0.405097	-0.092173
H64	H	0.423574	-0.513045	-0.214832
H65	H	0.354237	-0.465941	-0.194919
H66	H	0.606284	-0.279623	-0.298893
O67	O	1.025503	-0.818410	-0.248685
C68	C	1.015131	-0.876398	-0.194956
H69	H	1.044099	-0.928493	-0.219617
H70	H	0.953298	-0.888040	-0.191623
C71	C	1.012614	-0.789662	-0.077168
C72	C	1.048200	-0.853643	-0.107453
H73	H	1.033009	-0.775625	-0.023191
H74	H	1.019599	-0.750593	-0.113366
H75	H	0.961089	-0.799371	-0.074397
H76	H	1.099722	-0.843930	-0.110234
H77	H	1.041224	-0.892710	-0.071254
H78	H	1.117043	-0.313949	-0.887152
O79	O	0.985385	-0.445475	-0.923641
C80	C	0.945969	-0.484913	-0.866648
H81	H	0.946144	-0.451773	-0.804549
H82	H	0.973547	-0.540911	-0.857429
C83	C	0.865209	-0.537817	-0.977005
C84	C	0.865419	-0.497111	-0.900735
H85	H	0.815523	-0.545345	-0.998032
H86	H	0.891766	-0.511250	-1.015403
H87	H	0.888195	-0.584477	-0.969312
H88	H	0.842442	-0.450449	-0.908431
H89	H	0.838856	-0.523671	-0.862339
H90	H	0.603481	-0.499255	-0.363788
O91	O	0.499865	-0.480913	-0.513153
C92	C	0.526011	-0.551242	-0.491239
H93	H	0.542973	-0.549439	-0.422085
H94	H	0.575998	-0.566906	-0.528848
C95	C	0.443300	-0.611557	-0.594850
C96	C	0.464127	-0.609344	-0.509912
H97	H	0.405129	-0.647398	-0.606371
H98	H	0.425687	-0.564175	-0.609616
H99	H	0.484961	-0.624608	-0.626181
H100	H	0.422469	-0.596284	-0.478584
H101	H	0.481732	-0.656726	-0.495141
H102	H	0.958788	-0.833877	-0.504282
O103	O	0.599067	-0.346673	-0.554533
C104	C	0.571289	-0.401848	-0.612946
H105	H	0.520388	-0.428992	-0.588191
H106	H	0.615772	-0.445599	-0.623767
C107	C	0.612131	-0.333010	-0.725981
C108	C	0.549610	-0.366345	-0.695580
H109	H	0.598762	-0.311112	-0.776955
H110	H	0.630849	-0.295839	-0.686628
H111	H	0.649195	-0.369475	-0.734992
H112	H	0.512552	-0.329879	-0.686560
H113	H	0.530887	-0.403510	-0.734934
H114	H	0.931781	-0.920407	-0.363940
H115	H	1.151378	-0.917067	-0.298829
H116	H	1.178369	-0.830708	-0.439373
O117	O	1.084671	-0.933024	-0.554394
C118	C	1.150003	-0.975642	-0.548726
H119	H	1.159623	-0.993963	-0.482400
H120	H	1.199137	-0.940829	-0.565896
C121	C	1.130184	-1.021970	-0.690402
C122	C	1.141997	-1.044479	-0.608940
H123	H	1.125248	-1.064430	-0.727547
H124	H	1.086170	-0.993256	-0.694221
H125	H	1.171132	-0.992959	-0.704698
H126	H	1.101045	-1.073481	-0.594642
H127	H	1.186004	-1.073200	-0.605120
