data_functionalizedCrystal
_audit_creation_method	'MofGen! by Chris Wilmer'
_symmetry_space_group_name_H-M	'P1'
_symmetry_Int_Tables_number	1
_symmetry_cell_setting	triclinic
loop_
_symmetry_equiv_pos_as_xyz
  x,y,z
_cell_length_a	18.050589
_cell_length_b	12.827893
_cell_length_c	12.827885
_cell_angle_alpha	90.021379
_cell_angle_beta	89.970449
_cell_angle_gamma	89.973570
loop_
_atom_site_label
_atom_site_type_symbol
_atom_site_fract_x
_atom_site_fract_y
_atom_site_fract_z
Zn1	Zn	-0.295659	-1.597578	-0.590904
Zn2	Zn	-0.419867	-1.597433	-0.416165
Zn3	Zn	-0.295691	-1.422819	-0.416172
Zn4	Zn	-0.419808	-1.422766	-0.590859
O5	O	-0.357756	-1.510149	-0.503525
O6	O	-0.312147	-1.743795	-0.567740
O7	O	-0.403433	-1.574231	-0.269930
O8	O	-0.191762	-1.446085	-0.439372
O9	O	-0.403402	-1.743688	-0.439360
O10	O	-0.191739	-1.574479	-0.567747
O11	O	-0.312202	-1.445943	-0.269935
O12	O	-0.312144	-1.276576	-0.439328
O13	O	-0.403301	-1.445994	-0.737101
O14	O	-0.403332	-1.276537	-0.567670
O15	O	-0.312089	-1.574428	-0.737134
O16	O	-0.523784	-1.574180	-0.439317
O17	O	-0.523740	-1.445853	-0.567664
C18	C	-0.357736	-1.238639	-0.503496
C19	C	-0.357745	-1.122486	-0.503508
C20	C	-0.312668	-1.070754	-0.567132
C21	C	-0.312677	-0.950704	-0.567146
C22	C	-0.550708	-1.510023	-0.503507
C23	C	-0.633254	-1.510065	-0.503535
C24	C	-0.832708	-1.440349	-0.573306
C25	C	-0.882155	-1.414872	-0.477948
C26	C	-0.784384	-1.510167	-0.503549
C27	C	-0.882019	-1.535696	-0.598917
C28	C	-0.930370	-1.510264	-0.503570
C29	C	-0.832744	-1.484640	-0.408140
C30	C	-0.832604	-1.605508	-0.529174
C31	C	-0.882029	-1.580067	-0.433751
C32	C	-0.700286	-1.510109	-0.503538
C33	C	-1.014466	-1.510323	-0.503570
C34	C	-0.164051	-1.510304	-0.503565
C35	C	-0.081505	-1.510370	-0.503582
C36	C	-0.357685	-1.510221	-0.776095
C37	C	-0.357655	-1.510252	-0.892248
C38	C	-0.357771	-0.782719	-0.503546
C39	C	-0.357762	-0.898872	-0.503534
C40	C	-0.312502	-1.446791	-0.944036
C41	C	-0.312469	-1.446822	-1.064086
C42	C	-0.357774	-1.510137	-0.232015
C43	C	-0.357595	-1.510309	-0.115862
H44	H	-0.274067	-1.115341	-0.621588
Cl45	Cl	-0.915255	-1.671293	-0.342587
Cl46	Cl	-0.417308	-1.594168	-0.961005
H47	H	-0.396360	-0.943354	-0.449066
Cl48	Cl	-0.798974	-1.729892	-0.562678
H49	H	-0.396342	-1.077899	-0.449046
H50	H	-0.273872	-1.392434	-0.899496
Cl51	Cl	-0.799269	-1.349063	-0.664256
Cl52	Cl	-0.799469	-1.451221	-0.283596
H53	H	-0.903664	-1.557249	-0.679561
H54	H	-0.274087	-0.906215	-0.621620
Cl55	Cl	-0.915757	-1.290455	-0.444486
Cl56	Cl	-0.252778	-1.362940	-1.132840
H57	H	-0.396251	-1.564647	-1.071333
