data_functionalizedCrystal
_audit_creation_method	'MofGen! by Chris Wilmer'
_symmetry_space_group_name_H-M	'P1'
_symmetry_Int_Tables_number	1
_symmetry_cell_setting	triclinic
loop_
_symmetry_equiv_pos_as_xyz
  x,y,z
_cell_length_a	16.625546
_cell_length_b	13.032831
_cell_length_c	13.034296
_cell_angle_alpha	105.185450
_cell_angle_beta	82.786634
_cell_angle_gamma	97.173222
loop_
_atom_site_label
_atom_site_type_symbol
_atom_site_fract_x
_atom_site_fract_y
_atom_site_fract_z
Zn1	Zn	-0.408761	-1.700150	-0.806419
Zn2	Zn	0.091239	-1.200150	-0.306419
Zn3	Zn	-0.558797	-1.677445	-0.628778
Zn4	Zn	-0.058797	-1.177445	-0.128778
Zn5	Zn	-0.408768	-1.499953	-0.606300
Zn6	Zn	0.091232	-0.999953	-0.106300
Zn7	Zn	-0.528334	-1.522480	-0.783834
Zn8	Zn	-0.028334	-1.022480	-0.283834
O9	O	-0.476165	-1.600007	-0.706333
O10	O	0.023835	-1.100007	-0.206333
O11	O	-0.441409	-1.845775	-0.801714
O12	O	0.058591	-1.345775	-0.301714
O13	O	-0.551647	-1.634971	-0.477154
O14	O	-0.051647	-1.134971	0.022846
O15	O	-0.295937	-1.526584	-0.632892
O16	O	0.204063	-1.026584	-0.132892
O17	O	-0.551640	-1.829094	-0.671201
O18	O	-0.051640	-1.329094	-0.171201
O19	O	-0.295932	-1.673668	-0.779918
O20	O	0.204068	-1.173668	-0.279918
O21	O	-0.441422	-1.504568	-0.460640
O22	O	0.058578	-1.004568	0.039360
O23	O	-0.411883	-1.354305	-0.610992
O24	O	0.088117	-0.854305	-0.110992
O25	O	-0.499720	-1.564978	-0.935472
O26	O	0.000280	-1.064978	-0.435472
O27	O	-0.499728	-1.370855	-0.741425
O28	O	0.000272	-0.870855	-0.241425
O29	O	-0.411870	-1.695512	-0.952065
O30	O	0.088130	-1.195512	-0.452065
O31	O	-0.667586	-1.656815	-0.649301
O32	O	-0.167586	-1.156815	-0.149301
O33	O	-0.645205	-1.542963	-0.763220
O34	O	-0.145205	-1.042963	-0.263220
C35	C	-0.685651	-1.599901	-0.706276
C36	C	-0.185651	-1.099901	-0.206276
C37	C	-0.775275	-1.599957	-0.706299
C38	C	-0.275275	-1.099957	-0.206299
C39	C	-0.452501	-1.324040	-0.671319
C40	C	0.047499	-0.824040	-0.171319
C41	C	-0.442395	-1.205984	-0.656365
C42	C	0.057605	-0.705984	-0.156365
C43	C	-0.452396	-1.635290	-0.983387
C44	C	0.047604	-1.135290	-0.483387
C45	C	-0.442268	-1.650326	-1.101452
C46	C	0.057732	-1.150326	-0.601452
C47	C	-1.103457	-1.600157	-0.706433
C48	C	-0.603457	-1.100157	-0.206433
C49	C	-1.012146	-1.600098	-0.706398
C50	C	-0.512146	-1.100098	-0.206398
C51	C	-0.939369	-1.600056	-0.706365
C52	C	-0.439369	-1.100056	-0.206365
C53	C	-0.848053	-1.599999	-0.706332
C54	C	-0.348053	-1.099999	-0.206332
C55	C	-0.265861	-1.600146	-0.706417
C56	C	0.234139	-1.100146	-0.206417
C57	C	-0.176242	-1.600205	-0.706453
C58	C	0.323758	-1.100205	-0.206453
C59	C	-0.499922	-1.877052	-0.741484
C60	C	0.000078	-1.377052	-0.241484
C61	C	-0.510046	-1.995112	-0.756463
C62	C	-0.010046	-1.495112	-0.256463
C63	C	-0.481440	-1.161555	-0.714137
C64	C	0.018560	-0.661555	-0.214137
C65	C	-0.470995	-1.039537	-0.698683
C66	C	0.029005	-0.539537	-0.198683
C67	C	-0.481218	-1.592444	-1.145878
C68	C	0.018782	-1.092444	-0.645878
C69	C	-0.470751	-1.607983	-1.267903
C70	C	0.029249	-1.107983	-0.767903
C71	C	-0.499788	-1.564922	-0.430364
C72	C	0.000212	-1.064922	0.069636
C73	C	-0.509707	-1.550093	-0.312326
C74	C	-0.009707	-1.050093	0.187674
H75	H	-0.522596	-1.213851	-0.775043
H76	H	-0.022596	-0.713851	-0.275043
F77	F	-0.563838	-1.063457	-0.836087
F78	F	-0.063838	-0.563457	-0.336087
F79	F	-0.388555	-1.730141	-1.169812
F80	F	0.111445	-1.230141	-0.669812
F81	F	-0.563435	-1.470286	-1.243974
F82	F	-0.063435	-0.970286	-0.743974
F83	F	-0.388589	-1.137635	-0.576765
F84	F	0.111411	-0.637635	-0.076765
H85	H	-0.429829	-0.987245	-0.637781
H86	H	0.070171	-0.487245	-0.137781
H87	H	-0.522318	-1.531390	-1.093575
H88	H	-0.022318	-1.031390	-0.593575
H89	H	-0.429654	-1.669049	-1.320204
H90	H	0.070346	-1.169049	-0.820204
