data_functionalizedCrystal
_audit_creation_method	'MofGen! by Chris Wilmer'
_symmetry_space_group_name_H-M	'P1'
_symmetry_Int_Tables_number	1
_symmetry_cell_setting	triclinic
loop_
_symmetry_equiv_pos_as_xyz
  x,y,z
_cell_length_a	16.992694
_cell_length_b	9.065218
_cell_length_c	8.140239
_cell_angle_alpha	90.001686
_cell_angle_beta	90.002898
_cell_angle_gamma	92.157946
loop_
_atom_site_label
_atom_site_type_symbol
_atom_site_fract_x
_atom_site_fract_y
_atom_site_fract_z
O1	O	1.042613	-0.313082	-0.136397
O2	O	0.814303	-0.309648	-0.136445
O3	O	0.933177	-0.097160	-0.136417
O4	O	0.923739	-0.525570	-0.136425
O5	O	0.933170	-0.097157	0.136810
O6	O	0.814297	-0.309644	0.136782
O7	O	1.042606	-0.313079	0.136830
Zn8	Zn	0.928450	-0.311361	0.180187
Zn9	Zn	0.928459	-0.311366	-0.179802
O10	O	0.923732	-0.525566	0.136802
C11	C	0.785056	-0.305227	0.000162
C12	C	0.697918	-0.292043	0.000143
C13	C	0.648581	-0.419249	0.000142
C14	C	0.566706	-0.406853	0.000165
C15	C	0.534170	-0.267249	0.000177
C16	C	0.583514	-0.140034	0.000184
C17	C	0.665387	-0.152432	0.000173
C18	C	0.290208	-0.215866	0.000222
C19	C	0.208328	-0.203477	0.000229
C20	C	0.191526	-0.470298	0.000213
C21	C	0.273402	-0.482683	0.000192
C22	C	0.322738	-0.355468	0.000207
N23	N	0.450482	-0.254575	0.000196
N24	N	0.406425	-0.368144	0.000200
C25	C	0.932267	-0.042088	0.000194
C26	C	0.929555	0.122007	0.000186
C27	C	1.071853	-0.317499	0.000220
C28	C	1.158991	-0.330683	0.000227
C29	C	0.924643	-0.580639	0.000187
C30	C	0.927355	-0.744733	0.000185
N31	N	0.928450	-0.311358	0.425869
N32	N	0.928465	-0.311358	-0.425484
H33	H	0.705557	-0.048847	0.000173
Br34	Br	0.357154	-0.043214	0.000247
Br35	Br	0.692728	-0.608721	0.000108
H36	H	0.557017	-0.026365	0.000217
H37	H	0.526539	-0.510438	0.000162
H38	H	0.299886	-0.596363	0.000163
H39	H	0.181841	-0.089790	0.000237
H40	H	0.151349	-0.573869	0.000204
