data_functionalizedCrystal
_audit_creation_method	'MofGen! by Chris Wilmer'
_symmetry_space_group_name_H-M	'P1'
_symmetry_Int_Tables_number	1
_symmetry_cell_setting	triclinic
loop_
_symmetry_equiv_pos_as_xyz
  x,y,z
_cell_length_a	23.532355
_cell_length_b	23.532357
_cell_length_c	22.610064
_cell_angle_alpha	89.998517
_cell_angle_beta	89.997644
_cell_angle_gamma	82.827896
loop_
_atom_site_label
_atom_site_type_symbol
_atom_site_fract_x
_atom_site_fract_y
_atom_site_fract_z
O1	O	0.755270	0.068988	-0.049111
O2	O	1.088604	0.402321	0.284222
O3	O	1.421937	0.735655	0.617555
O4	O	0.589401	0.079022	-0.049131
O5	O	0.922734	0.412356	0.284202
O6	O	1.256068	0.745689	0.617536
O7	O	0.677352	-0.008929	-0.049108
O8	O	1.010686	0.324404	0.284225
O9	O	1.344019	0.657737	0.617558
O10	O	0.667319	0.156940	-0.049134
O11	O	1.000652	0.490273	0.284199
O12	O	1.333986	0.823607	0.617533
O13	O	0.677337	-0.008917	0.049261
O14	O	1.010670	0.324417	0.382594
O15	O	1.344003	0.657750	0.715928
O16	O	0.589385	0.079035	0.049238
O17	O	0.922719	0.412369	0.382572
O18	O	1.256052	0.745702	0.715905
O19	O	0.755255	0.069001	0.049258
O20	O	1.088588	0.402334	0.382591
O21	O	1.421921	0.735668	0.715925
Zn22	Zn	0.672318	0.074020	0.064866
Zn23	Zn	1.005651	0.407353	0.398200
Zn24	Zn	1.338984	0.740687	0.731533
Zn25	Zn	0.672338	0.074003	-0.064739
Zn26	Zn	1.005671	0.407337	0.268594
Zn27	Zn	1.339005	0.740670	0.601927
O28	O	0.667303	0.156953	0.049235
O29	O	1.000637	0.490286	0.382569
O30	O	1.333970	0.823619	0.715902
C31	C	0.568177	0.078778	0.000051
C32	C	0.901510	0.412111	0.333385
C33	C	1.234843	0.745445	0.666718
C34	C	0.504958	0.078024	0.000044
C35	C	0.838291	0.411357	0.333378
C36	C	1.171625	0.744691	0.666711
C37	C	0.677094	-0.030140	0.000078
C38	C	1.010427	0.303194	0.333411
C39	C	1.343760	0.636527	0.666745
C40	C	0.676339	-0.093358	0.000084
C41	C	1.009672	0.239975	0.333417
C42	C	1.343006	0.573309	0.666750
C43	C	0.112937	0.073293	0.053691
C44	C	0.446270	0.406626	0.387024
C45	C	0.779603	0.739959	0.720357
C46	C	0.053537	0.072575	0.053693
C47	C	0.386871	0.405909	0.387026
C48	C	0.720204	0.739242	0.720360
O49	O	0.022812	0.072191	0.099295
O50	O	0.356145	0.405524	0.432629
O51	O	0.689478	0.738857	0.765962
N52	N	0.023837	0.072212	0.000072
N53	N	0.357171	0.405546	0.333406
N54	N	0.690504	0.738879	0.666739
C55	C	0.053541	0.072561	-0.053554
C56	C	0.386874	0.405895	0.279779
C57	C	0.720207	0.739228	0.613112
O58	O	0.022824	0.072186	-0.099163
O59	O	0.356158	0.405520	0.234171
O60	O	0.689491	0.738853	0.567504
C61	C	0.112939	0.073275	-0.053556
C62	C	0.446273	0.406608	0.279777
C63	C	0.779606	0.739941	0.613111
C64	C	0.142636	0.073643	0.000068
C65	C	0.475969	0.406977	0.333402
C66	C	0.809302	0.740310	0.666735
C67	C	0.142633	0.073661	0.107311
C68	C	0.475966	0.406994	0.440644
C69	C	0.809300	0.740327	0.773977
C70	C	0.202028	0.074379	0.107308
C71	C	0.535361	0.407712	0.440641
C72	C	0.868695	0.741046	0.773975
C73	C	0.231727	0.074730	0.053686
C74	C	0.565060	0.408063	0.387019
C75	C	0.898393	0.741396	0.720352
C76	C	0.202031	0.074362	0.000066
C77	C	0.535364	0.407695	0.333399
C78	C	0.868697	0.741028	0.666732
C79	C	0.142642	0.073620	-0.107182
C80	C	0.475975	0.406953	0.226151
C81	C	0.809309	0.740286	0.559484
C82	C	0.202045	0.074333	-0.107179
C83	C	0.535378	0.407666	0.226154
C84	C	0.868712	0.740999	0.559487
C85	C	0.231741	0.074701	-0.053555
C86	C	0.565074	0.408034	0.279778
C87	C	0.898408	0.741368	0.613112
C88	C	0.291124	0.075431	-0.053560
C89	C	0.624458	0.408764	0.279774
C90	C	0.957791	0.742098	0.613107
N91	N	0.320824	0.075794	0.000061
N92	N	0.654158	0.409127	0.333395
N93	N	0.987491	0.742460	0.666728
C94	C	0.291126	0.075443	0.053684
C95	C	0.624459	0.408776	0.387017
C96	C	0.957792	0.742110	0.720350
C97	C	-0.071201	0.071062	-0.053546
C98	C	0.262133	0.404396	0.279787
C99	C	0.595466	0.737729	0.613120
C100	C	-0.130599	0.070353	-0.053545
C101	C	0.202735	0.403686	0.279788
C102	C	0.536068	0.737020	0.613121
C103	C	-0.130598	0.070366	0.053702
C104	C	0.202735	0.403699	0.387036
C105	C	0.536069	0.737032	0.720369
C106	C	-0.071199	0.071079	0.053701
C107	C	0.262134	0.404413	0.387034
C108	C	0.595468	0.737746	0.720367
C109	C	-0.041501	0.071425	0.000074
C110	C	0.291833	0.404758	0.333408
C111	C	0.625166	0.738092	0.666741
C112	C	0.415859	0.076952	0.053674
C113	C	0.749193	0.410286	0.387008
C114	C	1.082526	0.743619	0.720341
C115	C	0.475259	0.077673	0.053667
C116	C	0.808593	0.411007	0.387000
C117	C	1.141926	0.744340	0.720333
C118	C	0.475254	0.077657	-0.053581
C119	C	0.808587	0.410991	0.279753
C120	C	1.141920	0.744324	0.613086
C121	C	0.415858	0.076940	-0.053574
C122	C	0.749192	0.410273	0.279760
C123	C	1.082525	0.743606	0.613093
C124	C	0.386163	0.076585	0.000059
C125	C	0.719496	0.409919	0.333392
C126	C	1.052830	0.743252	0.666725
O127	O	0.321888	0.075813	-0.099138
O128	O	0.655222	0.409147	0.234195
O129	O	0.988555	0.742480	0.567528
O130	O	0.321850	0.075811	0.099285
O131	O	0.655183	0.409144	0.432618
O132	O	0.988517	0.742477	0.765951
C133	C	0.671611	-0.485375	-0.053570
C134	C	1.004944	-0.152042	0.279763
C135	C	1.338277	0.181291	0.613097
C136	C	0.670893	-0.544775	-0.053573
C137	C	1.004227	-0.211441	0.279760
C138	C	1.337560	0.121892	0.613093
O139	O	0.670510	-0.575497	-0.099176
O140	O	1.003844	-0.242164	0.234157
O141	O	1.337177	0.091170	0.567491
N142	N	0.670529	-0.574479	0.000047
N143	N	1.003863	-0.241145	0.333380
N144	N	1.337196	0.092188	0.666713
C145	C	0.670877	-0.544780	0.053674
C146	C	1.004210	-0.211446	0.387007
C147	C	1.337543	0.121887	0.720341
O148	O	0.670500	-0.575500	0.099282
O149	O	1.003834	-0.242166	0.432615
O150	O	1.337167	0.091167	0.765949
C151	C	0.671590	-0.485381	0.053677
C152	C	1.004923	-0.152048	0.387010
C153	C	1.338256	0.181286	0.720344
C154	C	0.671960	-0.455681	0.000053
C155	C	1.005293	-0.122347	0.333386
C156	C	1.338626	0.210986	0.666720
C157	C	0.671980	-0.455675	-0.107189
C158	C	1.005313	-0.122342	0.226144
C159	C	1.338647	0.210992	0.559477
C160	C	0.672698	-0.396280	-0.107186
C161	C	1.006031	-0.062947	0.226148
C162	C	1.339365	0.270387	0.559481
C163	C	0.673047	-0.366585	-0.053563
C164	C	1.006380	-0.033252	0.279771
C165	C	1.339714	0.300081	0.613104
C166	C	0.672678	-0.396286	0.000057
C167	C	1.006011	-0.062952	0.333390
C168	C	1.339345	0.270381	0.666723
C169	C	0.671933	-0.455682	0.107303
C170	C	1.005266	-0.122349	0.440637
C171	C	1.338600	0.210984	0.773970
C172	C	0.672646	-0.396280	0.107302
C173	C	1.005979	-0.062946	0.440635
C174	C	1.339312	0.270387	0.773968
C175	C	0.673016	-0.366579	0.053678
C176	C	1.006349	-0.033246	0.387011
C177	C	1.339682	0.300087	0.720345
C178	C	0.673745	-0.307196	0.053684
C179	C	1.007079	0.026137	0.387017
C180	C	1.340412	0.359471	0.720350
N181	N	0.674109	-0.277492	0.000063
N182	N	1.007443	0.055842	0.333397
N183	N	1.340776	0.389175	0.666730
C184	C	0.673760	-0.307186	-0.053560
C185	C	1.007094	0.026147	0.279774
C186	C	1.340427	0.359480	0.613107
C187	C	0.669378	-0.669521	0.053664
C188	C	1.002711	-0.336188	0.386997
C189	C	1.336045	-0.002854	0.720331
C190	C	0.668669	-0.728919	0.053662
C191	C	1.002002	-0.395586	0.386995
C192	C	1.335335	-0.062253	0.720328
C193	C	0.668685	-0.728910	-0.053586
C194	C	1.002018	-0.395577	0.279747
C195	C	1.335351	-0.062243	0.613081
C196	C	0.669398	-0.669511	-0.053583
C197	C	1.002731	-0.336178	0.279750
C198	C	1.336064	-0.002845	0.613084
C199	C	0.669742	-0.639817	0.000044
C200	C	1.003075	-0.306484	0.333377
C201	C	1.336409	0.026850	0.666710
C202	C	0.675269	-0.182453	-0.053548
C203	C	1.008603	0.150881	0.279785
C204	C	1.341936	0.484214	0.613119
C205	C	0.675990	-0.123053	-0.053540
C206	C	1.009323	0.210281	0.279794
C207	C	1.342657	0.543614	0.613127
C208	C	0.675971	-0.123067	0.053708
C209	C	1.009304	0.210267	0.387041
C210	C	1.342638	0.543600	0.720374
C211	C	0.675253	-0.182462	0.053700
C212	C	1.008587	0.150871	0.387033
C213	C	1.341920	0.484205	0.720366
C214	C	0.674901	-0.212153	0.000067
C215	C	1.008234	0.121180	0.333400
C216	C	1.341567	0.454514	0.666734
O217	O	0.674126	-0.276436	0.099263
O218	O	1.007460	0.056898	0.432596
O219	O	1.340793	0.390231	0.765930
O220	O	0.674129	-0.276458	-0.099160
O221	O	1.007462	0.056875	0.234173
O222	O	1.340796	0.390208	0.567507
C223	C	0.776479	0.069245	0.000074
C224	C	1.109812	0.402579	0.333408
C225	C	1.443146	0.735912	0.666741
C226	C	0.839698	0.069999	0.000078
C227	C	1.173031	0.403333	0.333411
C228	C	1.506364	0.736666	0.666744
C229	C	0.667562	0.178163	0.000048
C230	C	1.000896	0.511496	0.333381
C231	C	1.334229	0.844829	0.666714
C232	C	0.668317	0.241381	0.000038
C233	C	1.001650	0.574715	0.333372
C234	C	1.334983	0.908048	0.666705
N235	N	0.672308	0.074031	0.153319
N236	N	1.005641	0.407365	0.486652
N237	N	1.338974	0.740698	0.819985
N238	N	0.672352	0.073987	-0.153192
N239	N	1.005686	0.407321	0.180142
N240	N	1.339019	0.740654	0.513475
C241	C	0.711285	0.035064	0.561970
C242	C	1.044618	0.368397	0.895304
C243	C	1.377951	0.701731	1.228637
C244	C	0.711288	0.035060	0.623890
C245	C	1.044621	0.368393	0.957223
C246	C	1.377954	0.701727	1.290557
O247	O	0.744403	0.001937	0.655917
O248	O	1.077736	0.335270	0.989251
O249	O	1.411069	0.668604	1.322584
N250	N	0.672338	0.073991	0.654856
N251	N	1.005671	0.407325	0.988189
N252	N	1.339004	0.740658	1.321523
C253	C	0.633378	0.112926	0.623899
C254	C	0.966712	0.446259	0.957232
C255	C	1.300045	0.779592	1.290565
O256	O	0.600249	0.146039	0.655923
O257	O	0.933582	0.479373	0.989257
O258	O	1.266915	0.812706	1.322590
C259	C	0.633373	0.112927	0.561980
C260	C	0.966707	0.446260	0.895313
C261	C	1.300040	0.779593	1.228647
C262	C	0.672330	0.073996	0.531017
C263	C	1.005663	0.407330	0.864351
C264	C	1.338996	0.740663	1.197684
C265	C	0.750237	-0.003863	0.531008
C266	C	1.083571	0.329470	0.864341
C267	C	1.416904	0.662803	1.197674
C268	C	0.750235	-0.003858	0.469092
C269	C	1.083568	0.329475	0.802425
C270	C	1.416902	0.662808	1.135759
C271	C	0.711280	0.035074	0.438139
C272	C	1.044613	0.368407	0.771472
C273	C	1.377947	0.701741	1.104806
C274	C	0.672327	0.074001	0.469102
C275	C	1.005661	0.407335	0.802435
C276	C	1.338994	0.740668	1.135768
C277	C	0.594412	0.151858	0.531024
C278	C	0.927745	0.485191	0.864357
C279	C	1.261079	0.818524	1.197690
C280	C	0.594410	0.151855	0.469101
C281	C	0.927743	0.485188	0.802434
C282	C	1.261076	0.818522	1.135767
C283	C	0.633366	0.112925	0.438138
C284	C	0.966699	0.446258	0.771471
C285	C	1.300033	0.779592	1.104805
C286	C	0.633370	0.112939	0.376233
C287	C	0.966703	0.446272	0.709566
C288	C	1.300036	0.779606	1.042900
N289	N	0.672320	0.074007	0.345267
N290	N	1.005653	0.407341	0.678601
N291	N	1.338986	0.740674	1.011934
C292	C	0.711275	0.035075	0.376220
C293	C	1.044608	0.368408	0.709553
C294	C	1.377941	0.701742	1.042887
C295	C	0.633392	0.112920	0.753932
C296	C	0.966725	0.446253	1.087266
C297	C	1.300058	0.779587	1.420599
C298	C	0.633399	0.112922	0.815850
C299	C	0.966732	0.446256	1.149183
C300	C	1.300066	0.779589	1.482517
C301	C	0.711308	0.035056	0.815837
C302	C	1.044641	0.368389	1.149170
C303	C	1.377974	0.701722	1.482504
C304	C	0.711302	0.035057	0.753918
C305	C	1.044636	0.368390	1.087252
C306	C	1.377969	0.701723	1.420585
C307	C	0.672342	0.073989	0.722966
C308	C	1.005675	0.407322	1.056300
C309	C	1.339008	0.740655	1.389633
C310	C	0.711267	0.035089	0.246193
C311	C	1.044600	0.368422	0.579526
C312	C	1.377934	0.701755	0.912860
C313	C	0.711263	0.035099	0.184272
C314	C	1.044596	0.368432	0.517605
C315	C	1.377930	0.701766	0.850938
C316	C	0.633353	0.112963	0.184290
C317	C	0.966686	0.446297	0.517623
C318	C	1.300019	0.779630	0.850957
C319	C	0.633359	0.112955	0.246206
C320	C	0.966692	0.446289	0.579539
C321	C	1.300025	0.779622	0.912872
C322	C	0.672318	0.074013	0.277156
C323	C	1.005651	0.407347	0.610489
C324	C	1.338985	0.740680	0.943822
O325	O	0.600270	0.146043	0.344166
O326	O	0.933603	0.479377	0.677500
O327	O	1.266937	0.812710	1.010833
O328	O	0.744394	0.001962	0.344188
O329	O	1.077727	0.335295	0.677521
O330	O	1.411061	0.668629	1.010855
H331	H	0.499435	0.077975	0.097336
H332	H	0.832768	0.411309	0.430669
H333	H	1.166102	0.744642	0.764003
O334	O	0.669788	-0.637482	-0.111422
O335	O	1.003121	-0.304148	0.221911
O336	O	1.336454	0.029185	0.555245
H337	H	0.708937	-0.615726	-0.113990
H338	H	1.042270	-0.282393	0.219344
H339	H	1.375603	0.050940	0.552677
O340	O	0.668299	-0.760941	-0.111426
O341	O	1.001633	-0.427608	0.221907
O342	O	1.334966	-0.094275	0.555241
H343	H	0.667734	-0.807233	-0.102414
H344	H	1.001067	-0.473899	0.230919
H345	H	1.334400	-0.140566	0.564252
H346	H	0.742991	0.003378	0.271385
H347	H	1.076324	0.336711	0.604719
H348	H	1.409657	0.670045	0.938052
O349	O	0.673082	-0.364247	-0.165023
O350	O	1.006415	-0.030913	0.168311
O351	O	1.339749	0.302420	0.501644
H352	H	0.672710	-0.394881	-0.202306
H353	H	1.006043	-0.061548	0.131028
H354	H	1.339376	0.271786	0.464361
H355	H	0.601637	0.144663	0.159078
H356	H	0.934971	0.477997	0.492412
H357	H	1.268304	0.811330	0.825745
O358	O	-0.039171	0.071480	0.111537
O359	O	0.294163	0.404813	0.444870
O360	O	0.627496	0.738146	0.778204
H361	H	-0.069807	0.071116	0.148821
H362	H	0.263526	0.404450	0.482154
H363	H	0.596859	0.737783	0.815488
H364	H	0.674958	-0.206646	0.097365
H365	H	1.008291	0.126687	0.430698
H366	H	1.341624	0.460021	0.764031
H367	H	0.391677	0.076649	-0.097239
H368	H	0.725011	0.409982	0.236095
H369	H	1.058344	0.743315	0.569428
O370	O	0.110547	0.073326	0.165120
O371	O	0.443881	0.406659	0.498453
O372	O	0.777214	0.739992	0.831787
H373	H	0.127205	0.034661	0.190891
H374	H	0.460538	0.367994	0.524224
H375	H	0.793871	0.701327	0.857557
O376	O	0.792244	-0.045855	0.435699
O377	O	1.125577	0.287478	0.769033
O378	O	1.458911	0.620812	1.102366
H379	H	0.819324	-0.072929	0.467634
H380	H	1.152657	0.260404	0.800967
H381	H	1.485990	0.593737	1.134300
O382	O	0.753326	-0.006934	0.849232
O383	O	1.086659	0.326399	1.182565
O384	O	1.419993	0.659732	1.515899
H385	H	0.780418	-0.034004	0.817303
H386	H	1.113752	0.299330	1.150636
H387	H	1.447085	0.632663	1.483970
O388	O	0.507295	0.078036	-0.111413
O389	O	0.840629	0.411369	0.221921
O390	O	1.173962	0.744702	0.555254
H391	H	0.476670	0.077664	-0.148703
H392	H	0.810003	0.410997	0.184630
H393	H	1.143336	0.744330	0.517964
O394	O	0.668275	-0.760952	0.111498
O395	O	1.001608	-0.427619	0.444831
O396	O	1.334942	-0.094286	0.778165
H397	H	0.668634	-0.730318	0.148783
H398	H	1.001968	-0.396985	0.482116
H399	H	1.335301	-0.063651	0.815449
H400	H	0.226202	0.074676	0.150975
H401	H	0.559535	0.408009	0.484308
H402	H	0.892868	0.741342	0.817641
O403	O	0.676349	-0.091030	0.111541
O404	O	1.009682	0.242304	0.444874
O405	O	1.343015	0.575637	0.778207
H406	H	0.675976	-0.121658	0.148830
H407	H	1.009310	0.211675	0.482164
H408	H	1.342643	0.545009	0.815497
H409	H	0.669660	-0.645348	0.097336
H410	H	1.002993	-0.312015	0.430669
H411	H	1.336327	0.021319	0.764003
O412	O	-0.162652	0.070111	0.111542
O413	O	0.170682	0.403444	0.444875
O414	O	0.504015	0.736777	0.778208
H415	H	-0.208949	0.069593	0.102529
H416	H	0.124385	0.402927	0.435862
H417	H	0.457718	0.736260	0.769196
H418	H	0.226222	0.074614	-0.150849
H419	H	0.559556	0.407948	0.182484
H420	H	0.892889	0.741281	0.515817
O421	O	0.671528	-0.487708	0.165141
O422	O	1.004862	-0.154374	0.498474
O423	O	1.338195	0.178959	0.831808
H424	H	0.671882	-0.457069	0.202423
H425	H	1.005216	-0.123736	0.535756
H426	H	1.338549	0.209597	0.869089
H427	H	0.676292	-0.098873	-0.097208
H428	H	1.009626	0.234460	0.236125
H429	H	1.342959	0.567793	0.569458
O430	O	0.792264	-0.045850	0.564388
O431	O	1.125597	0.287483	0.897722
O432	O	1.458931	0.620816	1.231055
H433	H	0.819350	-0.072910	0.532446
H434	H	1.152683	0.260424	0.865779
H435	H	1.486016	0.593757	1.199113
H436	H	0.671694	-0.479846	-0.150858
H437	H	1.005027	-0.146512	0.182475
H438	H	1.338360	0.186821	0.515808
O439	O	0.383833	0.076577	0.111518
O440	O	0.717167	0.409911	0.444852
O441	O	1.050500	0.743244	0.778185
H442	H	0.414469	0.076960	0.148798
H443	H	0.747802	0.410294	0.482132
H444	H	1.081135	0.743627	0.815465
O445	O	0.674884	-0.214473	-0.111393
O446	O	1.008217	0.118861	0.221941
O447	O	1.341550	0.452194	0.555274
H448	H	0.675263	-0.183833	-0.148672
H449	H	1.008597	0.149500	0.184661
H450	H	1.341930	0.482833	0.517995
O451	O	-0.162623	0.069965	-0.111385
O452	O	0.170710	0.403298	0.221948
O453	O	0.504044	0.736631	0.555282
H454	H	-0.208918	0.069412	-0.102382
H455	H	0.124415	0.402745	0.230951
H456	H	0.457749	0.736078	0.564285
O457	O	0.591401	0.154929	0.849244
O458	O	0.924734	0.488262	1.182577
O459	O	1.258068	0.821596	1.515910
H460	H	0.564318	0.182002	0.817311
H461	H	0.897651	0.515336	1.150645
H462	H	1.230985	0.848669	1.483978
H463	H	-0.047024	0.071349	-0.097218
H464	H	0.286309	0.404683	0.236115
H465	H	0.619642	0.738016	0.569448
H466	H	0.743024	0.003356	0.728712
H467	H	1.076357	0.336689	1.062046
H468	H	1.409690	0.670023	1.395379
O469	O	0.673024	-0.364252	0.165143
O470	O	1.006357	-0.030918	0.498476
O471	O	1.339691	0.302415	0.831810
H472	H	0.672652	-0.394888	0.202426
H473	H	1.005986	-0.061555	0.535759
H474	H	1.339319	0.271778	0.869093
H475	H	0.742988	0.003397	0.159064
H476	H	1.076321	0.336731	0.492397
H477	H	1.409654	0.670064	0.825731
H478	H	0.601666	0.144628	0.728734
H479	H	0.935000	0.477961	1.062068
H480	H	1.268333	0.811294	1.395401
H481	H	0.118474	0.073319	-0.150849
H482	H	0.451807	0.406652	0.182484
H483	H	0.785141	0.739986	0.515818
H484	H	0.562690	0.183558	0.556225
H485	H	0.896023	0.516891	0.889558
H486	H	1.229357	0.850225	1.222891
H487	H	0.562681	0.183558	0.443903
H488	H	0.896015	0.516891	0.777236
H489	H	1.229348	0.850224	1.110569
H490	H	0.601642	0.144661	0.271416
H491	H	0.934976	0.477995	0.604749
H492	H	1.268309	0.811328	0.938083
