data_functionalizedCrystal
_audit_creation_method	'MofGen! by Chris Wilmer'
_symmetry_space_group_name_H-M	'P1'
_symmetry_Int_Tables_number	1
_symmetry_cell_setting	triclinic
loop_
_symmetry_equiv_pos_as_xyz
  x,y,z
_cell_length_a	15.995292
_cell_length_b	15.995350
_cell_length_c	9.130313
_cell_angle_alpha	89.997713
_cell_angle_beta	89.995303
_cell_angle_gamma	83.480495
loop_
_atom_site_label
_atom_site_type_symbol
_atom_site_fract_x
_atom_site_fract_y
_atom_site_fract_z
O1	O	1.111015	0.107695	-0.121832
O2	O	0.867233	0.121073	-0.121825
O3	O	0.995788	-0.007505	-0.121827
O4	O	0.982460	0.236273	-0.121829
O5	O	0.995779	-0.007509	0.121772
O6	O	0.867224	0.121069	0.121774
O7	O	1.111006	0.107691	0.121767
Cu8	Cu	0.989114	0.114380	0.144013
Cu9	Cu	0.989125	0.114384	-0.144071
O10	O	0.982451	0.236269	0.121769
C11	C	0.836033	0.120527	-0.000025
C12	C	0.743080	0.118894	-0.000022
C13	C	0.995232	-0.038702	-0.000030
C14	C	0.993580	-0.131652	-0.000039
C15	C	0.405341	0.112893	-0.000039
C16	C	0.428654	0.205697	-0.000584
C17	C	0.525329	0.207461	-0.000028
C18	C	0.572897	0.115871	-0.000032
C19	C	0.543790	0.069471	0.139071
C20	C	0.447000	0.068354	0.139181
C21	C	0.447154	0.066463	-0.137836
C22	C	0.543647	0.069902	-0.139669
C23	C	0.667593	0.117549	-0.000023
C24	C	0.310646	0.111212	-0.000038
C25	C	0.987648	-0.469398	-0.000034
C26	C	0.896094	-0.421945	-0.000577
C27	C	0.897746	-0.325255	-0.000028
C28	C	0.990591	-0.301838	-0.000037
C29	C	1.035744	-0.342927	0.139066
C30	C	1.033444	-0.439562	0.139183
C31	C	1.035345	-0.439917	-0.137835
C32	C	1.035323	-0.342971	-0.139673
C33	C	0.992259	-0.207141	-0.000034
C34	C	0.985983	-0.564095	-0.000027
C35	C	1.142206	0.108237	-0.000036
C36	C	1.235159	0.109870	-0.000048
C37	C	0.983006	0.267466	-0.000031
C38	C	0.984658	0.360416	-0.000032
N39	N	0.989113	0.114376	0.346636
N40	N	0.989132	0.114381	-0.346693
C41	C	1.046056	0.057466	0.423287
C42	C	1.046064	0.057466	0.576623
C43	C	0.932183	0.171294	0.576645
C44	C	0.932172	0.171290	0.423311
H45	H	0.544359	0.243795	-0.099746
Br46	Br	0.835190	-0.454991	0.164256
Br47	Br	0.838172	-0.278793	0.166450
Br48	Br	0.402292	0.121911	0.312491
H49	H	0.859504	-0.440467	-0.100331
H50	H	0.885824	0.217633	0.639089
H51	H	1.092420	0.011122	0.360861
H52	H	0.885798	0.217634	0.360898
H53	H	0.575659	0.002073	0.144241
H54	H	1.000511	-0.457859	0.243170
Br55	Br	0.399956	0.114820	-0.313566
Br56	Br	1.123343	-0.019777	0.680647
H57	H	0.399632	0.241268	0.098612
Br58	Br	0.382000	0.265327	-0.166855
H59	H	0.563846	0.101690	0.242593
H60	H	1.100661	-0.471825	0.145488
Br61	Br	0.574644	0.126180	-0.311196
Br62	Br	0.985452	-0.474125	-0.313564
H63	H	0.862252	-0.296824	-0.099743
Br64	Br	0.556005	0.268383	0.166457
Br65	Br	0.983465	-0.295619	0.311615
Br66	Br	0.598592	-0.041527	-0.153676
Br67	Br	0.422742	-0.045052	0.149801
H68	H	0.433161	-0.001847	-0.138779
H69	H	1.103954	-0.328816	0.144233
Br70	Br	0.980762	-0.297002	-0.311219
H71	H	1.103030	-0.327623	-0.148079
H72	H	1.102848	-0.471692	-0.138776
