data_functionalizedCrystal
_audit_creation_method	'MofGen! by Chris Wilmer'
_symmetry_space_group_name_H-M	'P1'
_symmetry_Int_Tables_number	1
_symmetry_cell_setting	triclinic
loop_
_symmetry_equiv_pos_as_xyz
  x,y,z
_cell_length_a	17.640112
_cell_length_b	13.897447
_cell_length_c	17.640968
_cell_angle_alpha	101.230028
_cell_angle_beta	87.860920
_cell_angle_gamma	101.244075
loop_
_atom_site_label
_atom_site_type_symbol
_atom_site_fract_x
_atom_site_fract_y
_atom_site_fract_z
Zn1	Zn	1.247780	-0.027714	0.195081
Zn2	Zn	1.222020	-0.226719	0.068102
Zn3	Zn	1.095115	-0.090459	0.093728
Zn4	Zn	1.120760	-0.214022	0.220684
O5	O	1.171418	-0.139729	0.144399
O6	O	1.350631	-0.033168	0.156797
O7	O	1.183672	-0.240217	-0.034771
O8	O	1.115414	0.052860	0.107182
O9	O	1.331705	-0.179376	0.063506
O10	O	1.227576	0.098958	0.181645
O11	O	1.090436	-0.140107	-0.015944
O12	O	0.992248	-0.127795	0.132008
O13	O	1.159123	-0.157736	0.323560
O14	O	1.011090	-0.218577	0.225282
O15	O	1.252443	-0.020856	0.304749
O16	O	1.208539	-0.360031	0.088333
O17	O	1.134144	-0.350702	0.200434
C18	C	0.974115	-0.178617	0.184205
C19	C	0.889711	-0.195272	0.201252
C20	C	1.171353	-0.390361	0.144393
C21	C	1.171400	-0.497561	0.144403
C22	C	0.563040	-0.013187	0.014898
C23	C	0.483732	-0.028853	0.030927
C24	C	0.503372	-0.123604	0.127886
C25	C	0.582684	-0.107942	0.111868
C26	C	0.612511	-0.052734	0.055373
C27	C	0.632155	-0.147488	0.152342
C28	C	0.711459	-0.131831	0.136322
C29	C	0.741292	-0.076628	0.079828
C30	C	0.691815	-0.037077	0.039353
C31	C	0.602325	-0.202701	0.208833
C32	C	0.651796	-0.242247	0.249307
C33	C	0.731103	-0.226585	0.233292
C34	C	0.760936	-0.171382	0.176798
C35	C	0.780580	-0.266136	0.273767
C36	C	0.859884	-0.250480	0.257747
C37	C	0.840240	-0.155726	0.160778
C38	C	1.171440	-0.584618	0.144412
C39	C	1.171497	-0.693834	0.144421
C40	C	1.369492	-0.100689	0.104437
C41	C	1.453900	-0.084053	0.087408
C42	C	1.211517	-0.080881	0.342480
C43	C	1.228605	-0.055803	0.426891
C44	C	1.171508	0.111891	0.144416
C45	C	1.171546	0.219116	0.144424
C46	C	1.131520	-0.198270	-0.052921
C47	C	1.114579	-0.223046	-0.137361
C48	C	1.041897	-0.329658	0.753469
C49	C	1.057969	-0.306078	0.832783
C50	C	1.155136	-0.163558	0.813187
C51	C	1.139069	-0.187123	0.733870
C52	C	1.082449	-0.270175	0.704018
C53	C	1.179622	-0.127639	0.684419
C54	C	1.163559	-0.151206	0.605110
C55	C	1.106943	-0.234255	0.575251
C56	C	1.066386	-0.293741	0.624709
C57	C	1.236245	-0.044592	0.714272
C58	C	1.276797	0.014891	0.664821
C59	C	1.260731	-0.008670	0.585511
C60	C	1.204115	-0.091720	0.555652
C61	C	1.301288	0.050815	0.536053
C62	C	1.285224	0.027249	0.456743
C63	C	1.188052	-0.115286	0.476342
H64	H	0.864529	-0.110752	0.114785
H65	H	0.716104	0.007896	-0.006640
C66	C	0.747762	-0.326864	0.335905
H67	H	0.693447	-0.330522	0.339650
H68	H	0.758487	-0.392414	0.322082
H69	H	0.771102	-0.295105	0.384326
C70	C	0.595860	0.047547	-0.047241
H71	H	0.650176	0.051210	-0.050979
H72	H	0.572518	0.015805	-0.095659
H73	H	0.585143	0.113105	-0.033407
C74	C	0.828524	-0.059402	0.062201
H75	H	0.839200	-0.020866	0.022755
H76	H	0.856406	-0.024707	0.107602
H77	H	0.843779	-0.122014	0.045356
H78	H	1.093869	-0.253445	0.510671
C79	C	0.515091	-0.219938	0.226451
H80	H	0.504410	-0.258496	0.265883
H81	H	0.499825	-0.157339	0.243292
H82	H	0.487219	-0.254639	0.181040
C83	C	0.429316	0.014658	-0.013594
H84	H	0.458442	0.049785	-0.049529
H85	H	0.391657	-0.038128	-0.040481
H86	H	0.404286	0.059178	0.021765
H87	H	0.627499	-0.287201	0.295304
H88	H	0.479075	-0.168557	0.173882
H89	H	0.995773	-0.397268	0.729166
C90	C	1.004101	-0.385091	0.591863
H91	H	1.000342	-0.390599	0.537547
H92	H	1.017817	-0.443859	0.602613
H93	H	0.955713	-0.377155	0.615159
C94	C	1.217409	-0.072203	0.846030
H95	H	1.221165	-0.066681	0.900347
H96	H	1.265796	-0.080117	0.822732
H97	H	1.203673	-0.013440	0.835281
C98	C	0.914305	-0.293974	0.302270
H99	H	0.885185	-0.329087	0.338216
H100	H	0.939340	-0.338486	0.266916
H101	H	0.951961	-0.241176	0.329158
C102	C	1.013356	-0.371514	0.887178
H103	H	0.977333	-0.424346	0.858038
H104	H	1.048656	-0.398626	0.912252
H105	H	0.986543	-0.331937	0.924797
C106	C	1.363570	0.142161	0.568892
H107	H	1.385426	0.174209	0.528080
H108	H	1.340808	0.187661	0.605702
H109	H	1.402913	0.120959	0.593143
C110	C	1.125767	-0.206636	0.443497
H111	H	1.122007	-0.212144	0.389181
H112	H	1.139483	-0.265405	0.454246
H113	H	1.077379	-0.198701	0.466792
H114	H	1.249323	-0.025409	0.778852
C115	C	1.339071	0.106247	0.697664
H116	H	1.342826	0.111768	0.751982
H117	H	1.387457	0.098333	0.674367
H118	H	1.325335	0.165009	0.686915
C119	C	1.329823	0.092686	0.402346
H120	H	1.365836	0.145531	0.431484
H121	H	1.356632	0.053118	0.364723
H122	H	1.294511	0.119797	0.377279
