data_functionalizedCrystal
_audit_creation_method	'MofGen! by Chris Wilmer'
_symmetry_space_group_name_H-M	'P1'
_symmetry_Int_Tables_number	1
_symmetry_cell_setting	triclinic
loop_
_symmetry_equiv_pos_as_xyz
  x,y,z
_cell_length_a	13.635800
_cell_length_b	23.752963
_cell_length_c	9.582880
_cell_angle_alpha	85.519928
_cell_angle_beta	111.207034
_cell_angle_gamma	79.933268
loop_
_atom_site_label
_atom_site_type_symbol
_atom_site_fract_x
_atom_site_fract_y
_atom_site_fract_z
V1	V	2.050021	-0.078920	0.467477
O2	O	2.051618	0.004041	0.457674
O3	O	2.017318	-0.156725	0.465149
O4	O	2.045547	-0.077597	0.670963
O5	O	2.023193	-0.075634	0.250435
V6	V	2.290381	-0.069010	0.441411
O7	O	2.183725	-0.100659	0.524654
O8	O	2.381776	-0.047271	0.384235
O9	O	2.211481	0.008794	0.443739
O10	O	2.347483	-0.151971	0.451214
O11	O	2.375907	-0.072296	0.658453
O12	O	2.183252	-0.070333	0.237925
V13	V	2.550021	-0.078920	0.467477
O14	O	2.551618	0.004041	0.457674
O15	O	2.517318	-0.156725	0.465149
O16	O	2.545547	-0.077597	0.670963
O17	O	2.523193	-0.075634	0.250435
V18	V	2.790381	-0.069010	0.441411
O19	O	2.683725	-0.100659	0.524654
O20	O	2.881776	-0.047271	0.384235
O21	O	2.711481	0.008794	0.443739
O22	O	2.847483	-0.151971	0.451214
O23	O	2.875907	-0.072296	0.658453
O24	O	2.683252	-0.070333	0.237925
C25	C	1.937112	-0.175695	0.457998
C26	C	1.951148	-0.239301	0.457451
C27	C	2.005785	-0.625615	0.316760
C28	C	2.018984	-0.685378	0.316225
O29	O	1.998234	-0.709401	0.199326
N30	N	2.058045	-0.723367	0.453097
C31	C	2.083920	-0.701591	0.590513
O32	O	2.118358	-0.739392	0.706884
C33	C	2.070729	-0.641829	0.591047
C34	C	2.031656	-0.603842	0.454165
C35	C	1.966716	-0.587629	0.179890
C36	C	1.953517	-0.527869	0.180425
C37	C	1.979387	-0.506097	0.317831
C38	C	2.018457	-0.544083	0.454701
C39	C	2.096611	-0.620054	0.728462
C40	C	2.083417	-0.560288	0.728984
C41	C	2.044344	-0.522301	0.592103
C42	C	2.031128	-0.462551	0.592641
N43	N	1.992067	-0.424562	0.455770
C44	C	1.966196	-0.446335	0.318364
C45	C	2.111621	-0.827095	0.589381
C46	C	2.124805	-0.886855	0.588849
C47	C	2.059870	-0.870638	0.314561
C48	C	2.046679	-0.810876	0.315094
C49	C	2.072560	-0.789106	0.452510
C50	C	1.938479	-0.320837	0.319499
C51	C	1.925277	-0.261073	0.320046
C52	C	1.990219	-0.277296	0.594333
C53	C	2.003414	-0.337054	0.593787
C54	C	1.977544	-0.358823	0.456357
O55	O	2.051859	-0.438487	0.709481
O56	O	1.931775	-0.408529	0.202014
C57	C	1.973120	-0.074760	0.720533
C58	C	2.010047	-0.074193	0.886890
C59	C	2.123358	0.027762	0.450886
C60	C	2.098941	0.091366	0.451443
C61	C	2.087349	-0.073173	0.188347
C62	C	2.040041	-0.073737	0.021989
C63	C	2.437112	-0.175695	0.457998
C64	C	2.451148	-0.239301	0.457451
C65	C	2.473120	-0.074760	0.720533
C66	C	2.510047	-0.074193	0.886890
C67	C	2.623358	0.027762	0.450886
C68	C	2.598941	0.091366	0.451443
C69	C	2.587349	-0.073173	0.188347
C70	C	2.540041	-0.073737	0.021989
C71	C	2.549220	-0.272084	0.464704
C72	C	2.562428	-0.331850	0.464213
C73	C	2.477560	-0.358830	0.456458
C74	C	2.379481	-0.326043	0.449210
C75	C	2.366277	-0.266279	0.449712
C76	C	2.673363	0.124149	0.444194
C77	C	2.650428	0.183915	0.444693
C78	C	2.553073	0.210895	0.452450
C79	C	2.478645	0.178108	0.459695
C80	C	2.501578	0.118345	0.459186
H81	H	1.917411	-0.338553	0.207591
N82	N	2.111316	-0.536803	0.877194
H83	H	2.169491	-0.514342	0.888634
H84	H	2.138016	-0.569966	0.963730
H85	H	1.945649	-0.605348	0.067992
H86	H	2.618333	-0.250124	0.471009
N87	N	2.045574	-0.378020	0.741436
H88	H	2.114708	-0.405141	0.752419
H89	H	1.990247	-0.401174	0.742178
N90	N	2.004521	-0.769906	0.167460
H91	H	1.990128	-0.792773	0.080340
H92	H	2.059828	-0.746729	0.166780
N93	N	2.287943	-0.355145	0.440818
H94	H	2.223587	-0.337965	0.344356
H95	H	2.267808	-0.348980	0.530944
H96	H	2.038806	-0.888376	0.202677
H97	H	2.752641	0.102190	0.437878
H98	H	2.286412	-0.239590	0.443798
N99	N	2.421299	0.082992	0.467014
H100	H	2.408460	0.086622	0.563647
H101	H	2.450642	0.041053	0.465453
N102	N	1.883132	-0.220112	0.172387
H103	H	1.938404	-0.196926	0.171576
H104	H	1.813986	-0.193020	0.161465
H105	H	1.921708	-0.496945	0.068963
N106	N	2.730718	0.219269	0.436903
H107	H	2.795875	0.193103	0.431936
H108	H	2.753630	0.238681	0.530059
N109	N	2.166928	-0.927823	0.736482
H110	H	2.181309	-0.904956	0.823601
H111	H	2.236026	-0.954946	0.747346
N112	N	2.139528	-0.803615	0.737602
H113	H	2.166271	-0.836753	0.824218
H114	H	2.073262	-0.777198	0.738700
H115	H	2.534413	0.259559	0.452863
H116	H	2.399377	0.200085	0.466010
H117	H	2.128427	-0.650974	0.839926
N118	N	2.668192	-0.367220	0.471992
H119	H	2.727985	-0.363602	0.568604
H120	H	2.683690	-0.352566	0.382010
N121	N	2.018108	-0.253806	0.742529
H122	H	2.003816	-0.210183	0.722085
H123	H	2.096799	-0.269763	0.807427
H124	H	2.488326	-0.407494	0.456051
