data_functionalizedCrystal
_audit_creation_method	'MofGen! by Chris Wilmer'
_symmetry_space_group_name_H-M	'P1'
_symmetry_Int_Tables_number	1
_symmetry_cell_setting	triclinic
loop_
_symmetry_equiv_pos_as_xyz
  x,y,z
_cell_length_a	16.109301
_cell_length_b	10.868271
_cell_length_c	16.109301
_cell_angle_alpha	89.993442
_cell_angle_beta	96.538519
_cell_angle_gamma	90.001598
loop_
_atom_site_label
_atom_site_type_symbol
_atom_site_fract_x
_atom_site_fract_y
_atom_site_fract_z
O1	O	1.103132	0.102248	-0.106868
O2	O	0.861070	0.102268	-0.120167
O3	O	0.988750	0.102245	0.007514
O4	O	0.975451	0.102271	-0.234548
O5	O	0.988740	-0.102399	0.007519
O6	O	0.861059	-0.102376	-0.120162
O7	O	1.103121	-0.102396	-0.106863
Zn8	Zn	0.982088	-0.134878	-0.113512
Zn9	Zn	0.982102	0.134750	-0.113518
O10	O	0.975440	-0.102373	-0.234543
C11	C	0.830090	-0.000051	-0.119626
C12	C	0.737794	-0.000044	-0.118011
C13	C	0.515522	-0.000051	-0.190018
C14	C	0.428801	-0.000059	-0.188494
C15	C	0.448676	-0.000070	-0.037006
C16	C	0.535394	-0.000071	-0.038530
C17	C	0.568815	-0.000055	-0.115039
C18	C	0.395376	-0.000062	-0.111990
C19	C	0.301350	-0.000071	-0.110337
C20	C	0.662847	-0.000048	-0.116693
N21	N	0.982085	-0.318892	-0.113507
C22	C	0.982098	-0.569898	-0.113516
C23	C	0.982088	-0.430221	-0.113513
C24	C	1.134101	-0.000074	-0.107404
C25	C	1.226397	-0.000073	-0.109019
C26	C	0.988206	-0.000078	0.038491
C27	C	0.986591	-0.000079	0.130786
N28	N	0.982112	0.318764	-0.113516
C29	C	0.975984	-0.000048	-0.265521
C30	C	0.977600	-0.000038	-0.357816
C31	C	1.058599	-0.000066	0.353059
C32	C	1.057075	-0.000055	0.439779
C33	C	0.905586	-0.000048	0.419905
C34	C	0.907111	-0.000049	0.333186
C35	C	0.983620	-0.000064	0.299766
C36	C	0.980571	-0.000053	0.473205
C37	C	0.978918	-0.000042	0.567231
C38	C	0.985273	-0.000073	0.205734
H39	H	0.421454	-0.000090	0.025285
H40	H	1.120897	-0.000075	0.325851
O41	O	0.587288	-0.000124	0.034232
C42	C	0.729694	-0.000054	0.099013
C43	C	0.671021	-0.000018	0.016554
H44	H	0.797404	0.000058	0.084749
H45	H	0.717608	-0.085719	0.136681
H46	H	0.717498	0.085568	0.136660
H47	H	0.683182	-0.085582	-0.021160
H48	H	0.683119	0.085703	-0.021051
H49	H	1.118130	-0.000054	0.483168
O50	O	0.376998	-0.000265	-0.261306
C51	C	0.267520	-0.106234	-0.347481
C52	C	0.326154	-0.106168	-0.264996
H53	H	0.226386	-0.191835	-0.350483
H54	H	0.306264	-0.106301	-0.402455
H55	H	0.226463	-0.020552	-0.350543
H56	H	0.367223	-0.191836	-0.261853
H57	H	0.287360	-0.106037	-0.210061
O58	O	0.831342	-0.000099	0.452510
C59	C	0.761853	-0.000030	0.577296
C60	C	0.845994	0.000005	0.540485
H61	H	0.773671	0.000080	0.648428
H62	H	0.724788	-0.085693	0.555411
H63	H	0.724804	0.085594	0.555290
H64	H	0.883111	-0.085561	0.562474
H65	H	0.882996	0.085724	0.562366
H66	H	0.542730	-0.000047	-0.252317
O67	O	0.834195	-0.000103	0.281530
C68	C	0.683777	-0.000018	0.270961
C69	C	0.766287	0.000007	0.329556
H70	H	0.628852	0.000098	0.309766
H71	H	0.680645	-0.085680	0.229885
H72	H	0.680757	0.085607	0.229843
H73	H	0.769362	-0.085559	0.370726
H74	H	0.769385	0.085726	0.370575
