data_functionalizedCrystal
_audit_creation_method	'MofGen! by Chris Wilmer'
_symmetry_space_group_name_H-M	'P1'
_symmetry_Int_Tables_number	1
_symmetry_cell_setting	triclinic
loop_
_symmetry_equiv_pos_as_xyz
  x,y,z
_cell_length_a	17.699083
_cell_length_b	9.130313
_cell_length_c	17.699092
_cell_angle_alpha	89.999556
_cell_angle_beta	96.715309
_cell_angle_gamma	90.006231
loop_
_atom_site_label
_atom_site_type_symbol
_atom_site_fract_x
_atom_site_fract_y
_atom_site_fract_z
O1	O	-1.004074	0.121574	0.095707
O2	O	-0.783696	0.121624	0.108160
O3	O	-0.900108	0.121594	-0.008255
O4	O	-0.887662	0.121604	0.212122
O5	O	-0.900107	-0.122004	-0.008252
O6	O	-0.783695	-0.121974	0.108163
O7	O	-1.004073	-0.122025	0.095711
Cu8	Cu	-0.893884	-0.144242	0.101937
Cu9	Cu	-0.893885	0.143842	0.101933
O10	O	-0.887661	-0.121995	0.212126
C11	C	-0.755499	-0.000168	0.107715
C12	C	-0.671480	-0.000149	0.106377
C13	C	-0.622862	-0.000146	0.174710
C14	C	-0.543918	-0.000164	0.173448
C15	C	-0.513595	-0.000174	0.103851
C16	C	-0.562220	-0.000182	0.035513
C17	C	-0.641162	-0.000175	0.036776
C18	C	-0.243857	-0.000214	0.030418
C19	C	-0.164909	-0.000217	0.029160
C20	C	-0.146613	-0.000203	0.167089
C21	C	-0.225555	-0.000196	0.168352
C22	C	-0.274173	-0.000211	0.100014
C23	C	-0.359772	-0.000194	0.101384
C24	C	-0.427998	-0.000180	0.102481
N25	N	-0.893888	-0.346865	0.101939
C26	C	-0.945448	-0.423530	0.050408
C27	C	-0.945446	-0.576867	0.050399
C28	C	-0.842321	-0.576860	0.153459
C29	C	-0.842320	-0.423526	0.153464
C30	C	-0.997016	-0.346869	-0.001117
C31	C	-1.048581	-0.423535	-0.052651
C32	C	-1.048579	-0.576871	-0.052660
C33	C	-0.997012	-0.653543	-0.001135
C34	C	-0.032271	-0.000225	0.096155
C35	C	-0.116289	-0.000224	0.097494
C36	C	-0.899661	-0.000203	-0.036450
C37	C	-0.898319	-0.000196	-0.120468
N38	N	-0.893887	0.346464	0.101925
C39	C	-0.897692	0.132592	-0.159937
C40	C	-0.896427	0.132594	-0.238880
C41	C	-0.895795	-0.000193	-0.278353
C42	C	-0.896420	-0.132991	-0.238878
C43	C	-0.897680	-0.132991	-0.159936
C44	C	-0.891340	-0.132992	-0.557243
C45	C	-0.890083	-0.132981	-0.636191
C46	C	-0.890087	0.132593	-0.636188
C47	C	-0.891347	0.132593	-0.557245
C48	C	-0.891968	-0.000204	-0.517777
C49	C	-0.893338	-0.000204	-0.432178
C50	C	-0.894430	-0.000194	-0.363952
C51	C	-0.888109	-0.000195	0.240321
C52	C	-0.889450	-0.000192	0.324339
H53	H	-0.283433	-0.000227	-0.025227
F54	F	-1.103452	-0.658462	-0.107512
H55	H	-0.895901	-0.241108	-0.271023
H56	H	-0.997024	-0.222015	-0.001112
H57	H	-0.889578	0.240723	-0.668332
F58	F	-0.257822	-0.000176	0.242426
F59	F	-0.787441	-0.341932	0.208308
H60	H	-0.997010	-0.778400	-0.001152
F61	F	-0.692906	-0.000183	-0.035954
H62	H	-0.889566	-0.241119	-0.668328
H63	H	-0.895919	0.240723	-0.271013
F64	F	-0.787445	-0.658463	0.208294
F65	F	-0.094864	-0.000193	0.239821
F66	F	-0.898370	0.273925	-0.117935
F67	F	-0.898347	-0.274322	-0.117930
F68	F	-0.892023	0.273923	-0.515240
F69	F	-0.132640	-0.000228	-0.044918
H70	H	-0.537525	-0.000211	-0.021154
H71	H	-1.090561	-0.361101	-0.094606
F72	F	-0.891991	-0.274326	-0.515247
F73	F	-0.655126	-0.000125	0.248785
F74	F	-0.492177	-0.000154	0.246177
