data_functionalizedCrystal
_audit_creation_method	'MofGen! by Chris Wilmer'
_symmetry_space_group_name_H-M	'P1'
_symmetry_Int_Tables_number	1
_symmetry_cell_setting	triclinic
loop_
_symmetry_equiv_pos_as_xyz
  x,y,z
_cell_length_a	17.639181
_cell_length_b	25.639239
_cell_length_c	17.640968
_cell_angle_alpha	101.231536
_cell_angle_beta	92.163516
_cell_angle_gamma	78.846973
loop_
_atom_site_label
_atom_site_type_symbol
_atom_site_fract_x
_atom_site_fract_y
_atom_site_fract_z
Zn1	Zn	1.247356	-0.348823	0.194243
Zn2	Zn	1.221547	-0.449793	0.067277
Zn3	Zn	1.094724	-0.341990	0.092991
Zn4	Zn	1.120325	-0.415823	0.219927
O5	O	1.170988	-0.389107	0.143610
O6	O	1.350171	-0.379293	0.155890
O7	O	1.183209	-0.446850	-0.035570
O8	O	1.115058	-0.269741	0.106435
O9	O	1.331210	-0.453475	0.062609
O10	O	1.227196	-0.274761	0.180824
O11	O	1.090032	-0.367648	-0.016678
O12	O	0.991881	-0.334708	0.131340
O13	O	1.158691	-0.395578	0.322779
O14	O	1.010690	-0.388952	0.224599
O15	O	1.252020	-0.346353	0.303909
O16	O	1.208033	-0.518442	0.087514
O17	O	1.133666	-0.493484	0.199666
C18	C	0.973739	-0.357403	0.183547
C19	C	0.889359	-0.343850	0.200651
C20	C	0.562433	-0.492180	0.013685
C21	C	0.483146	-0.479437	0.029763
C22	C	0.502918	-0.402284	0.127041
C23	C	0.582208	-0.415018	0.110968
C24	C	0.611959	-0.459967	0.054290
C25	C	0.631734	-0.382806	0.151574
C26	C	0.711017	-0.395541	0.135505
C27	C	0.740774	-0.440489	0.078831
C28	C	0.691242	-0.472703	0.038222
C29	C	0.601983	-0.337859	0.208255
C30	C	0.651509	-0.305647	0.248861
C31	C	0.730793	-0.318380	0.232788
C32	C	0.760550	-0.363327	0.176114
C33	C	0.780325	-0.286166	0.273398
C34	C	0.859608	-0.298901	0.257329
C35	C	0.839833	-0.376063	0.160046
C36	C	1.170851	-0.524933	0.143599
C37	C	1.170867	-0.583048	0.143606
C38	C	1.132253	-0.821274	0.201993
C39	C	1.132223	-0.766666	0.201990
O40	O	1.099262	-0.727387	0.251633
N41	N	1.170970	-0.752333	0.143627
C42	C	1.209757	-0.792612	0.085267
O43	O	1.242713	-0.775406	0.035624
C44	C	1.209791	-0.847219	0.085273
C45	C	1.171034	-0.861548	0.143637
C46	C	1.093500	-0.835605	0.260352
C47	C	1.093529	-0.890209	0.260354
C48	C	1.132310	-0.930483	0.201997
C49	C	1.171063	-0.916152	0.143639
C50	C	1.248582	-0.887496	0.026917
C51	C	1.248613	-0.942106	0.026929
C52	C	1.209857	-0.956435	0.085293
C53	C	1.209874	-1.011030	0.085284
N54	N	1.171126	-1.025363	0.143648
C55	C	1.132344	-0.985089	0.202004
C56	C	1.209684	-0.677932	0.085257
C57	C	1.209646	-0.623326	0.085247
C58	C	1.132112	-0.597385	0.201971
C59	C	1.132146	-0.651992	0.201978
C60	C	1.170936	-0.692266	0.143621
C61	C	1.132407	-1.099763	0.202004
C62	C	1.132437	-1.154373	0.201999
C63	C	1.209974	-1.180310	0.085277
C64	C	1.209941	-1.125704	0.085279
C65	C	1.171156	-1.085431	0.143649
O66	O	1.242821	-1.050338	0.035668
O67	O	1.099403	-1.002304	0.251644
C68	C	1.369007	-0.420936	0.103516
C69	C	1.453391	-0.434499	0.086431
C70	C	1.211090	-0.367938	0.341666
C71	C	1.228179	-0.358917	0.426066
C72	C	1.171150	-0.252753	0.143633
C73	C	1.171219	-0.194647	0.143642
C74	C	1.131086	-0.410163	-0.053685
C75	C	1.114144	-0.419060	-0.138114
C76	C	1.041455	-0.457400	0.752763
C77	C	1.057529	-0.448920	0.832067
C78	C	1.154704	-0.397667	0.812408
C79	C	1.138636	-0.406141	0.733102
C80	C	1.082011	-0.436009	0.703286
C81	C	1.179192	-0.384749	0.683625
C82	C	1.163128	-0.393225	0.604326
C83	C	1.106507	-0.423093	0.574503
C84	C	1.065947	-0.444484	0.623987
C85	C	1.235820	-0.354885	0.713442
C86	C	1.276376	-0.333493	0.663965
C87	C	1.260308	-0.341966	0.584665
C88	C	1.203688	-0.371833	0.554842
C89	C	1.300869	-0.320574	0.535181
C90	C	1.284804	-0.329050	0.455881
C91	C	1.187623	-0.380309	0.475543
H92	H	0.478685	-0.365688	0.173190
C93	C	1.252266	-0.607571	0.021033
N94	N	1.284371	-0.595706	-0.027335
C95	C	0.747587	-0.236721	0.335736
N96	N	0.722928	-0.199475	0.382687
C97	C	0.914090	-0.263465	0.301996
N98	N	0.955126	-0.236774	0.335641
C99	C	1.329417	-0.305517	0.401454
N100	N	1.363021	-0.287792	0.360459
H101	H	1.100535	-0.564584	0.249490
C102	C	0.827989	-0.454498	0.061154
N103	N	0.893679	-0.465048	0.047839
H104	H	0.537425	-0.327493	0.221339
H105	H	0.586656	-0.528779	-0.032473
C106	C	1.088835	-0.432416	0.487271
N107	N	1.075523	-0.439437	0.421568
C108	C	1.253489	-0.345561	0.800675
N109	N	1.266795	-0.338538	0.866379
C110	C	1.089801	-1.170130	0.266207
N111	N	1.057691	-1.181998	0.314568
C112	C	1.003656	-0.477340	0.591186
N113	N	0.956742	-0.502087	0.566479
H114	H	1.061967	-0.901870	0.307879
H115	H	0.627275	-0.269051	0.295010
C116	C	1.089743	-1.055470	0.266214
N117	N	1.057604	-1.022108	0.314575
C118	C	1.252628	-1.224620	0.021085
N119	N	1.284758	-1.257997	-0.027263
C120	C	1.050850	-0.791311	0.324567
N121	N	1.018726	-0.757951	0.372939
H122	H	1.280142	-0.875838	-0.020607
C123	C	0.723971	-0.522147	-0.024130
N124	N	0.748623	-0.559389	-0.071090
C125	C	1.089517	-0.667749	0.266185
N126	N	1.057409	-0.679613	0.314550
H127	H	1.322482	-0.309177	0.688252
H128	H	0.442823	-0.505673	-0.003305
C129	C	1.252346	-0.722230	0.021047
N130	N	1.284479	-0.755592	-0.027316
H131	H	1.141496	-0.404615	0.451269
C132	C	1.291283	-0.986405	-0.037272
N133	N	1.323420	-1.019769	-0.085630
C134	C	1.363153	-0.287720	0.567990
N135	N	1.410064	-0.262972	0.592702
H136	H	0.995328	-0.481706	0.728490
C137	C	1.252579	-1.109942	0.021080
N138	N	1.284704	-1.098074	-0.027270
H139	H	1.024499	-0.466342	0.872350
H140	H	0.864056	-0.412662	0.113888
H141	H	1.200810	-0.373350	0.836695
