data_functionalizedCrystal
_audit_creation_method	'MofGen! by Chris Wilmer'
_symmetry_space_group_name_H-M	'P1'
_symmetry_Int_Tables_number	1
_symmetry_cell_setting	triclinic
loop_
_symmetry_equiv_pos_as_xyz
  x,y,z
_cell_length_a	10.686154
_cell_length_b	11.169416
_cell_length_c	11.169409
_cell_angle_alpha	89.972049
_cell_angle_beta	85.654236
_cell_angle_gamma	85.616470
loop_
_atom_site_label
_atom_site_type_symbol
_atom_site_fract_x
_atom_site_fract_y
_atom_site_fract_z
Zn1	Zn	-1.929201	-0.336868	-0.538128
Zn2	Zn	-1.595868	-0.003534	-0.204795
Zn3	Zn	-1.262534	0.329799	0.128538
Zn4	Zn	-1.929102	-0.537615	-0.337468
Zn5	Zn	-1.595768	-0.204282	-0.004134
Zn6	Zn	-1.262435	0.129051	0.329199
Zn7	Zn	-1.718182	-0.352343	-0.352825
Zn8	Zn	-1.384849	-0.019010	-0.019492
Zn9	Zn	-1.051516	0.314324	0.313841
Zn10	Zn	-1.718212	-0.552911	-0.553466
Zn11	Zn	-1.384879	-0.219577	-0.220132
Zn12	Zn	-1.051546	0.113756	0.113201
O13	O	-1.823674	-0.444934	-0.445472
O14	O	-1.490341	-0.111601	-0.112138
O15	O	-1.157008	0.221733	0.221195
O16	O	-2.105758	-0.350619	-0.498664
O17	O	-1.772425	-0.017286	-0.165331
O18	O	-1.439091	0.316047	0.168003
O19	O	-1.901068	-0.513114	-0.171559
O20	O	-1.567735	-0.179780	0.161774
O21	O	-1.234402	0.153553	0.495108
O22	O	-1.746203	-0.182338	-0.377415
O23	O	-1.412870	0.150995	-0.044081
O24	O	-1.079537	0.484328	0.289252
O25	O	-2.105685	-0.498108	-0.351240
O26	O	-1.772351	-0.164774	-0.017906
O27	O	-1.439018	0.168559	0.315427
O28	O	-1.901238	-0.170969	-0.513556
O29	O	-1.567905	0.162365	-0.180223
O30	O	-1.234571	0.495698	0.153111
O31	O	-1.746107	-0.376995	-0.182842
O32	O	-1.412774	-0.043662	0.150491
O33	O	-1.079440	0.289672	0.483824
O34	O	-1.541616	-0.391827	-0.392287
O35	O	-1.208283	-0.058493	-0.058953
O36	O	-0.874949	0.274840	0.274380
O37	O	-1.746255	-0.524177	-0.719377
O38	O	-1.412921	-0.190844	-0.386044
O39	O	-1.079588	0.142490	-0.052710
O40	O	-1.541638	-0.539183	-0.539696
O41	O	-1.208305	-0.205850	-0.206363
O42	O	-0.874972	0.127484	0.126970
O43	O	-1.901267	-0.365451	-0.708109
O44	O	-1.567934	-0.032118	-0.374775
O45	O	-1.234601	0.301216	-0.041442
O46	O	-1.901097	-0.707596	-0.366112
O47	O	-1.567764	-0.374263	-0.032778
O48	O	-1.234431	-0.040929	0.300555
O49	O	-1.746158	-0.718834	-0.524805
O50	O	-1.412825	-0.385500	-0.191471
O51	O	-1.079491	-0.052167	0.141862
C52	C	-1.495845	-0.468845	-0.469323
C53	C	-1.162511	-0.135511	-0.135990
C54	C	-0.829178	0.197822	0.197344
C55	C	-1.355598	-0.479103	-0.479555
C56	C	-1.022264	-0.145769	-0.146222
C57	C	-0.688931	0.187564	0.187111
C58	C	-1.823654	-0.756760	-0.445480
C59	C	-1.490321	-0.423427	-0.112146
C60	C	-1.156988	-0.090094	0.221187
C61	C	-1.823761	-0.890152	-0.445515
C62	C	-1.490428	-0.556819	-0.112181
C63	C	-1.157095	-0.223486	0.221152
C64	C	-1.823775	-0.444794	-0.758507
C65	C	-1.490442	-0.111460	-0.425174
C66	C	-1.157109	0.221873	-0.091840
C67	C	-1.823818	-0.444734	-0.891904
C68	C	-1.490485	-0.111401	-0.558571
C69	C	-1.157152	0.221933	-0.225237
C70	C	-1.152784	-0.420919	-0.421520
C71	C	-0.819451	-0.087586	-0.088187
C72	C	-0.486117	0.245747	0.245147
C73	C	-1.293031	-0.410656	-0.411293
C74	C	-0.959698	-0.077323	-0.077960
C75	C	-0.626364	0.256011	0.255373
C76	C	-1.823729	-0.131888	-0.445488
C77	C	-1.490395	0.201445	-0.112154
C78	C	-1.157062	0.534779	0.221179
C79	C	-1.823752	0.001514	-0.445494
C80	C	-1.490418	0.334847	-0.112161
C81	C	-1.157085	0.668180	0.221172
C82	C	-1.823646	-0.444982	-0.133649
C83	C	-1.490313	-0.111649	0.199684
C84	C	-1.156979	0.221685	0.533018
C85	C	-1.823847	-0.444686	-0.000235
C86	C	-1.490514	-0.111353	0.333098
C87	C	-1.157181	0.221981	0.666432
H88	H	-1.301864	-0.545561	-0.545823
H89	H	-0.968530	-0.212228	-0.212490
H90	H	-0.635197	0.121105	0.120844
H91	H	-1.346759	-0.344209	-0.345022
H92	H	-1.013425	-0.010876	-0.011689
H93	H	-0.680092	0.322457	0.321644
