data_functionalizedCrystal
_audit_creation_method	'MofGen! by Chris Wilmer'
_symmetry_space_group_name_H-M	'P1'
_symmetry_Int_Tables_number	1
_symmetry_cell_setting	triclinic
loop_
_symmetry_equiv_pos_as_xyz
  x,y,z
_cell_length_a	17.699104
_cell_length_b	15.021413
_cell_length_c	17.699083
_cell_angle_alpha	90.001380
_cell_angle_beta	96.712734
_cell_angle_gamma	90.008051
loop_
_atom_site_label
_atom_site_type_symbol
_atom_site_fract_x
_atom_site_fract_y
_atom_site_fract_z
O1	O	1.004070	0.074052	-0.095778
O2	O	0.783694	0.074050	-0.108214
O3	O	0.900108	0.074043	0.008193
O4	O	0.887655	0.074059	-0.212185
O5	O	0.900090	-0.074021	0.008180
O6	O	0.783676	-0.074014	-0.108227
O7	O	1.004052	-0.074012	-0.095791
Zn8	Zn	0.893861	-0.097522	-0.102011
Zn9	Zn	0.893884	0.097559	-0.101994
O10	O	0.887638	-0.074006	-0.212198
C11	C	0.755488	0.000017	-0.107772
C12	C	0.671471	0.000016	-0.106427
N13	N	0.893851	-0.230659	-0.102022
C14	C	0.146600	0.000030	-0.167171
C15	C	0.225543	0.000033	-0.168430
C16	C	0.274161	0.000028	-0.100095
C17	C	0.243831	0.000029	-0.030496
C18	C	0.164889	0.000033	-0.029238
C19	C	0.562197	0.000015	-0.035569
C20	C	0.641144	0.000009	-0.036833
C21	C	0.622852	0.000015	-0.174762
C22	C	0.543909	0.000019	-0.173503
C23	C	0.513587	0.000025	-0.103905
C24	C	0.427987	0.000024	-0.102541
C25	C	0.359759	0.000023	-0.101459
C26	C	0.840465	-0.529671	-0.156267
C27	C	0.825279	-0.470317	-0.088112
C28	C	0.893884	-0.587696	-0.101990
C29	C	0.909017	-0.470308	-0.170159
C30	C	0.893865	-0.412272	-0.102010
C31	C	0.878664	-0.529649	-0.033801
C32	C	0.962432	-0.529645	-0.115893
C33	C	0.947275	-0.470318	-0.047688
C34	C	0.893892	-0.688754	-0.101981
C35	C	0.893857	-0.311217	-0.102012
C36	C	1.032258	0.000022	-0.096233
C37	C	1.116275	0.000029	-0.097578
C38	C	0.899653	0.000011	0.036383
C39	C	0.898314	0.000010	0.120402
N40	N	0.893901	0.230697	-0.101977
C41	C	0.888093	0.000029	-0.240388
C42	C	0.889431	0.000035	-0.324406
C43	C	0.966647	0.000010	0.169017
C44	C	0.965385	0.000018	0.247961
C45	C	0.895789	0.000020	0.278287
C46	C	0.827451	0.000023	0.229665
C47	C	0.828714	0.000022	0.150723
C48	C	0.822356	0.000030	0.548028
C49	C	0.821098	0.000029	0.626976
C50	C	0.959026	0.000026	0.645266
C51	C	0.960289	0.000025	0.566324
C52	C	0.891952	0.000033	0.517709
C53	C	0.893321	0.000026	0.432110
C54	C	0.894419	0.000020	0.363885
H55	H	0.107020	0.000027	-0.222818
H56	H	0.647550	0.000014	-0.231432
C57	C	0.490434	0.000029	-0.248672
H58	H	0.519802	0.000039	-0.290301
H59	H	0.459247	-0.051600	-0.251055
H60	H	0.459271	0.051673	-0.251039
C61	C	0.528848	0.000024	0.040983
H62	H	0.474870	0.000039	0.031951
H63	H	0.545532	-0.051609	0.069115
H64	H	0.545556	0.051664	0.069110
C65	C	0.753550	0.000023	0.097242
H66	H	0.764269	0.000031	0.045884
H67	H	0.724996	-0.051608	0.106417
H68	H	0.725017	0.051665	0.106425
C69	C	0.926326	-0.435091	-0.248022
H70	H	0.971436	-0.400276	-0.241547
H71	H	0.933112	-0.483837	-0.280747
H72	H	0.885102	-0.399415	-0.269802
C73	C	0.258898	0.000023	-0.244983
H74	H	0.218637	0.000013	-0.285500
H75	H	0.289322	0.051653	-0.248345
H76	H	0.289303	-0.051620	-0.248338
H77	H	1.021028	0.000015	0.287541
H78	H	0.766711	0.000037	0.508455
H79	H	0.992445	-0.444423	-0.001747
C80	C	0.750897	0.000023	0.263021
H81	H	0.759930	0.000014	0.316999
H82	H	0.722771	0.051655	0.246328
H83	H	0.722764	-0.051618	0.246322
H84	H	0.140200	0.000033	0.027432
C85	C	0.779416	-0.564885	-0.218194
H86	H	0.802992	-0.599681	-0.253657
H87	H	0.744023	-0.600560	-0.195340
H88	H	0.753578	-0.516130	-0.243797
H89	H	0.680728	0.000007	0.018817
C90	C	0.297308	0.000021	0.044671
H91	H	0.348667	0.000009	0.033956
H92	H	0.288139	0.051652	0.073221
H93	H	0.288116	-0.051621	0.073207
C94	C	0.746961	-0.435103	-0.072231
H95	H	0.709067	-0.455420	-0.110834
H96	H	0.735836	-0.456293	-0.024185
H97	H	0.747661	-0.371866	-0.071896
H98	H	1.020391	-0.555728	-0.127671
C99	C	0.861263	-0.564707	0.044081
H100	H	0.861349	-0.627949	0.043603
H101	H	0.898975	-0.543911	0.082643
H102	H	0.812715	-0.543899	0.054035
H103	H	1.023320	0.000003	0.144333
C104	C	1.036842	0.000019	0.532966
H105	H	1.027807	0.000010	0.478988
H106	H	1.064981	0.051651	0.549661
H107	H	1.064963	-0.051622	0.549660
C108	C	1.034198	0.000032	0.698745
H109	H	1.023482	0.000044	0.750104
H110	H	1.062735	-0.051601	0.689566
H111	H	1.062745	0.051672	0.689562
H112	H	0.764421	0.000029	0.651664
