data_functionalizedCrystal
_audit_creation_method	'MofGen! by Chris Wilmer'
_symmetry_space_group_name_H-M	'P1'
_symmetry_Int_Tables_number	1
_symmetry_cell_setting	triclinic
loop_
_symmetry_equiv_pos_as_xyz
  x,y,z
_cell_length_a	14.044191
_cell_length_b	13.101039
_cell_length_c	10.654550
_cell_angle_alpha	93.394964
_cell_angle_beta	91.161646
_cell_angle_gamma	93.662449
loop_
_atom_site_label
_atom_site_type_symbol
_atom_site_fract_x
_atom_site_fract_y
_atom_site_fract_z
O1	O	1.264870	0.085164	-0.296681
O2	O	1.514870	0.335164	-0.046681
O3	O	1.764870	0.585164	0.203319
O4	O	2.014870	0.835164	0.453319
O5	O	0.988829	0.085177	-0.285737
O6	O	1.238829	0.335177	-0.035737
O7	O	1.488829	0.585177	0.214263
O8	O	1.738829	0.835177	0.464263
O9	O	1.133196	0.085164	-0.109108
O10	O	1.383196	0.335164	0.140892
O11	O	1.633196	0.585164	0.390892
O12	O	1.883196	0.835164	0.640892
O13	O	1.120504	0.085177	-0.473309
O14	O	1.370504	0.335177	-0.223309
O15	O	1.620504	0.585177	0.026691
O16	O	1.870504	0.835177	0.276691
O17	O	1.122838	-0.085265	-0.121804
O18	O	1.372838	0.164735	0.128196
O19	O	1.622838	0.414735	0.378196
O20	O	1.872838	0.664735	0.628196
O21	O	0.978471	-0.085252	-0.298433
O22	O	1.228471	0.164748	-0.048433
O23	O	1.478471	0.414748	0.201567
O24	O	1.728471	0.664748	0.451567
O25	O	1.254512	-0.085265	-0.309376
O26	O	1.504512	0.164735	-0.059376
O27	O	1.754512	0.414735	0.190624
O28	O	2.004512	0.664735	0.440624
Zn29	Zn	1.114847	-0.112318	-0.305920
Zn30	Zn	1.364847	0.137682	-0.055920
Zn31	Zn	1.614847	0.387682	0.194080
Zn32	Zn	1.864847	0.637682	0.444080
Zn33	Zn	1.128494	0.112230	-0.289193
Zn34	Zn	1.378494	0.362230	-0.039193
Zn35	Zn	1.628494	0.612230	0.210807
Zn36	Zn	1.878494	0.862230	0.460807
O37	O	1.110146	-0.085252	-0.486005
O38	O	1.360146	0.164748	-0.236005
O39	O	1.610146	0.414748	0.013995
O40	O	1.860146	0.664748	0.263995
C41	C	0.948305	-0.000036	-0.287298
C42	C	1.198305	0.249964	-0.037298
C43	C	1.448305	0.499964	0.212702
C44	C	1.698305	0.749964	0.462702
C45	C	0.842985	-0.000031	-0.273018
C46	C	1.092985	0.249969	-0.023018
C47	C	1.342985	0.499969	0.226982
C48	C	1.592985	0.749969	0.476982
C49	C	0.593192	-0.000038	-0.348184
C50	C	0.843192	0.249962	-0.098184
C51	C	1.093192	0.499962	0.151816
C52	C	1.343192	0.749962	0.401816
C53	C	0.650156	-0.000040	-0.246934
C54	C	0.900156	0.249960	0.003066
C55	C	1.150156	0.499960	0.253066
C56	C	1.400156	0.749960	0.503066
C57	C	0.757456	-0.000035	-0.261451
C58	C	1.007456	0.249965	-0.011451
C59	C	1.257456	0.499965	0.238549
C60	C	1.507456	0.749965	0.488549
C61	C	0.485882	-0.000044	-0.333669
C62	C	0.735882	0.249956	-0.083669
C63	C	0.985882	0.499956	0.166331
C64	C	1.235882	0.749956	0.416331
N65	N	1.105540	-0.265565	-0.317336
N66	N	1.355540	-0.015565	-0.067336
N67	N	1.605540	0.234435	0.182664
N68	N	1.855540	0.484435	0.432664
C69	C	1.092878	-0.474607	-0.332880
C70	C	1.342878	-0.224607	-0.082880
C71	C	1.592878	0.025393	0.167120
C72	C	1.842878	0.275393	0.417120
C73	C	1.150468	-0.525488	-0.262228
C74	C	1.400468	-0.275488	-0.012228
C75	C	1.650468	-0.025488	0.237772
C76	C	1.900468	0.224512	0.487772
C77	C	1.143422	-0.641805	-0.270877
C78	C	1.393422	-0.391805	-0.020877
C79	C	1.643422	-0.141805	0.229123
C80	C	1.893422	0.108195	0.479123
C81	C	1.099922	-0.358278	-0.324233
C82	C	1.349922	-0.108278	-0.074233
C83	C	1.599922	0.141722	0.175767
C84	C	1.849922	0.391722	0.425767
C85	C	1.295037	-0.000050	-0.307815
C86	C	1.545037	0.249950	-0.057815
C87	C	1.795037	0.499950	0.192185
C88	C	2.045037	0.749950	0.442185
C89	C	1.400357	-0.000048	-0.322094
C90	C	1.650357	0.249952	-0.072094
C91	C	1.900357	0.499952	0.177906
C92	C	2.150357	0.749952	0.427906
C93	C	1.127085	-0.000050	-0.068564
C94	C	1.377085	0.249950	0.181436
C95	C	1.627085	0.499950	0.431436
C96	C	1.877085	0.749950	0.681436
C97	C	1.124297	-0.000048	0.071159
C98	C	1.374297	0.249952	0.321159
C99	C	1.624297	0.499952	0.571159
C100	C	1.874297	0.749952	0.821159
N101	N	1.137809	0.265477	-0.277768
N102	N	1.387809	0.515477	-0.027768
N103	N	1.637809	0.765477	0.222232
N104	N	1.887809	1.015477	0.472232
C105	C	1.116257	-0.000035	-0.526549
C106	C	1.366257	0.249965	-0.276549
C107	C	1.616257	0.499965	-0.026549
C108	C	1.866257	0.749965	0.223451
C109	C	1.119045	-0.000030	-0.666272
C110	C	1.369045	0.249970	-0.416272
C111	C	1.619045	0.499970	-0.166272
C112	C	1.869045	0.749970	0.083728
C113	C	1.209298	-0.000052	0.142100
C114	C	1.459298	0.249948	0.392100
C115	C	1.709298	0.499948	0.642100
C116	C	1.959298	0.749948	0.892100
C117	C	1.206673	-0.000039	0.273386
C118	C	1.456673	0.249961	0.523386
C119	C	1.706673	0.499961	0.773386
C120	C	1.956673	0.749961	1.023386
C121	C	1.034038	-0.000024	0.262778
C122	C	1.284038	0.249976	0.512778
C123	C	1.534038	0.499976	0.762778
C124	C	1.784038	0.749976	1.012778
C125	C	1.036664	-0.000029	0.131495
C126	C	1.286664	0.249971	0.381495
C127	C	1.536664	0.499971	0.631495
C128	C	1.786664	0.749971	0.881495
C129	C	1.310413	0.059671	0.463615
C130	C	1.560413	0.309671	0.713615
C131	C	1.810413	0.559671	0.963615
C132	C	2.060413	0.809671	1.213615
C133	C	1.395417	0.059649	0.534559
C134	C	1.645417	0.309649	0.784559
C135	C	1.895417	0.559649	1.034559
C136	C	2.145417	0.809649	1.284559
C137	C	1.468848	-0.000079	0.492192
C138	C	1.718848	0.249921	0.742192
C139	C	1.968848	0.499921	0.992192
C140	C	2.218848	0.749921	1.242192
C141	C	1.457275	-0.059812	0.378880
C142	C	1.707275	0.190188	0.628880
C143	C	1.957275	0.440188	0.878880
C144	C	2.207275	0.690188	1.128880
C145	C	1.372269	-0.059800	0.307942
C146	C	1.622269	0.190200	0.557942
C147	C	1.872269	0.440200	0.807942
C148	C	2.122269	0.690200	1.057942
C149	C	1.298843	-0.000047	0.350310
C150	C	1.548843	0.249953	0.600310
C151	C	1.798843	0.499953	0.850310
C152	C	2.048843	0.749953	1.100310
C153	C	0.932930	-0.059747	-0.058737
C154	C	1.182930	0.190253	0.191263
C155	C	1.432930	0.440253	0.441263
C156	C	1.682930	0.690253	0.691263
C157	C	0.847922	-0.059743	-0.129678
C158	C	1.097922	0.190257	0.120322
C159	C	1.347922	0.440257	0.370322
C160	C	1.597922	0.690257	0.620322
C161	C	0.774483	-0.000020	-0.087314
C162	C	1.024483	0.249980	0.162686
C163	C	1.274483	0.499980	0.412686
C164	C	1.524483	0.749980	0.662686
C165	C	0.786045	0.059697	0.026000
C166	C	1.036045	0.309697	0.276000
C167	C	1.286045	0.559697	0.526000
C168	C	1.536045	0.809697	0.776000
C169	C	0.871053	0.059692	0.096941
C170	C	1.121053	0.309692	0.346941
C171	C	1.371053	0.559692	0.596941
C172	C	1.621053	0.809692	0.846941
C173	C	0.944492	-0.000029	0.054568
C174	C	1.194492	0.249971	0.304568
C175	C	1.444492	0.499971	0.554568
C176	C	1.694492	0.749971	0.804568
H177	H	0.625008	-0.000032	-0.445762
H178	H	0.875008	0.249968	-0.195762
H179	H	1.125008	0.499968	0.054238
H180	H	1.375008	0.749968	0.304238
H181	H	0.962690	-0.000010	0.311919
H182	H	1.212690	0.249990	0.561919
H183	H	1.462690	0.499990	0.811919
H184	H	1.712690	0.749990	1.061919
Br185	Br	0.597130	-0.000049	-0.084283
Br186	Br	0.847130	0.249951	0.165717
Br187	Br	1.097130	0.499951	0.415717
Br188	Br	1.347130	0.749951	0.665717
Br189	Br	1.001887	-0.547598	-0.444517
Br190	Br	1.251887	-0.297598	-0.194517
Br191	Br	1.501887	-0.047598	0.055483
Br192	Br	1.751887	0.202402	0.305483
H193	H	1.205064	-0.481690	-0.195248
H194	H	1.455064	-0.231690	0.054752
H195	H	1.705064	0.018310	0.304752
H196	H	1.955064	0.268310	0.554752
H197	H	1.280654	-0.000065	0.092979
H198	H	1.530654	0.249935	0.342979
H199	H	1.780654	0.499935	0.592979
H200	H	2.030654	0.749935	0.842979
H201	H	1.362845	-0.108436	0.215689
H202	H	1.612845	0.141564	0.465689
H203	H	1.862845	0.391564	0.715689
H204	H	2.112845	0.641564	0.965689
Br205	Br	1.556932	-0.140887	0.321395
Br206	Br	1.806932	0.109113	0.571395
Br207	Br	2.056932	0.359113	0.821395
Br208	Br	2.306932	0.609113	1.071395
H209	H	1.538060	-0.000095	0.549964
H210	H	1.788060	0.249905	0.799964
H211	H	2.038060	0.499905	1.049964
H212	H	2.288060	0.749905	1.299964
Br213	Br	1.210767	0.140760	0.521107
Br214	Br	1.460767	0.390760	0.771107
Br215	Br	1.710767	0.640760	1.021107
Br216	Br	1.960767	0.890760	1.271107
H217	H	1.404835	0.108291	0.626817
H218	H	1.654835	0.358291	0.876817
H219	H	1.904835	0.608291	1.126817
H220	H	2.154835	0.858291	1.376817
Br221	Br	0.886745	0.140735	0.250730
Br222	Br	1.136745	0.390735	0.500730
Br223	Br	1.386745	0.640735	0.750730
Br224	Br	1.636745	0.890735	1.000730
H225	H	0.726236	0.108306	0.060512
H226	H	0.976236	0.358306	0.310512
H227	H	1.226236	0.608306	0.560512
H228	H	1.476236	0.858306	0.810512
H229	H	0.838508	-0.108381	-0.221938
H230	H	1.088508	0.141619	0.028062
H231	H	1.338508	0.391619	0.278062
H232	H	1.588508	0.641619	0.528062
H233	H	0.705260	-0.000035	-0.145077
H234	H	0.955260	0.249965	0.104923
H235	H	1.205260	0.499965	0.354923
H236	H	1.455260	0.749965	0.604923
Br237	Br	1.032603	-0.140797	-0.116246
Br238	Br	1.282603	0.109203	0.133754
Br239	Br	1.532603	0.359203	0.383754
Br240	Br	1.782603	0.609203	0.633754
