data_functionalizedCrystal
_audit_creation_method	'MofGen! by Chris Wilmer'
_symmetry_space_group_name_H-M	'P1'
_symmetry_Int_Tables_number	1
_symmetry_cell_setting	triclinic
loop_
_symmetry_equiv_pos_as_xyz
  x,y,z
_cell_length_a	10.540514
_cell_length_b	19.288865
_cell_length_c	17.766277
_cell_angle_alpha	89.988397
_cell_angle_beta	90.009862
_cell_angle_gamma	96.174296
loop_
_atom_site_label
_atom_site_type_symbol
_atom_site_fract_x
_atom_site_fract_y
_atom_site_fract_z
O1	O	1.683735	-0.097800	0.062613
O2	O	1.314112	-0.107041	0.062614
O3	O	1.509604	-0.001361	0.062599
O4	O	1.488243	-0.203480	0.062628
O5	O	1.509570	-0.001355	-0.062590
O6	O	1.314078	-0.107035	-0.062575
O7	O	1.683701	-0.097794	-0.062575
Cu8	Cu	1.498886	-0.102414	-0.074006
Cu9	Cu	1.498927	-0.102421	0.074044
O10	O	1.488209	-0.203474	-0.062560
C11	C	1.266807	-0.106349	0.000019
C12	C	1.125903	-0.104286	0.000019
C13	C	1.053513	-0.179868	0.000031
C14	C	0.906947	-0.177748	0.000319
C15	C	0.934501	-0.063185	0.071367
C16	C	1.080981	-0.065841	0.071423
C17	C	1.081370	-0.064716	-0.070945
C18	C	0.934407	-0.063987	-0.071879
C19	C	1.508899	0.024523	0.000002
C20	C	1.506836	0.101640	-0.000005
C21	C	1.731006	-0.098487	0.000021
C22	C	1.871910	-0.100549	0.000026
C23	C	1.488913	-0.229358	0.000038
C24	C	1.490977	-0.306475	0.000050
C25	C	1.621542	0.145577	-0.000008
C26	C	1.619604	0.218037	0.000004
C27	C	1.502953	0.246557	0.000004
C28	C	1.388232	0.202611	0.000012
C29	C	1.390174	0.130152	0.000008
C30	C	1.411240	0.355454	-0.043847
C31	C	1.409303	0.427911	-0.043847
C32	C	1.496959	0.470042	0.000021
C33	C	1.586574	0.439709	0.043879
C34	C	1.588516	0.367250	0.043875
C35	C	1.500835	0.325125	0.000009
C36	C	1.609571	0.592549	0.000031
C37	C	1.607628	0.665010	0.000048
C38	C	1.376253	0.649582	0.000049
C39	C	1.378200	0.577122	0.000040
C40	C	1.494862	0.548610	0.000027
N41	N	1.498867	-0.102409	-0.178136
C42	C	1.585459	-0.055637	-0.217530
C43	C	1.585466	-0.055634	-0.296331
C44	C	1.498894	-0.102415	-0.335737
C45	C	1.412286	-0.149190	-0.296333
C46	C	1.412272	-0.149187	-0.217533
C47	C	1.481900	-0.165590	-0.460565
C48	C	1.481923	-0.165594	-0.539364
C49	C	1.498928	-0.102423	-0.578783
C50	C	1.515937	-0.039247	-0.539393
C51	C	1.515924	-0.039244	-0.460593
C52	C	1.498898	-0.102423	-0.421182
C53	C	1.585532	-0.055644	-0.703622
C54	C	1.585530	-0.055640	-0.782426
C55	C	1.412356	-0.149202	-0.782426
C56	C	1.412352	-0.149200	-0.703625
C57	C	1.498946	-0.102422	-0.664227
N58	N	1.498956	-0.102421	0.178175
H59	H	1.130225	-0.010321	0.074461
H60	H	1.341846	-0.187289	-0.671548
H61	H	1.336328	0.452602	-0.079555
N62	N	1.316684	0.310014	-0.091159
H63	H	1.259628	0.340224	-0.118946
H64	H	1.364187	0.283072	-0.128624
H65	H	1.083081	-0.210081	0.051124
N66	N	1.262422	0.233374	0.000007
H67	H	1.212172	0.217400	-0.046400
H68	H	1.212296	0.217378	0.046446
H69	H	1.656039	-0.017553	-0.671544
N70	N	0.879267	-0.100144	-0.141793
H71	H	0.919824	-0.076396	-0.187854
H72	H	0.896976	-0.150568	-0.141079
H73	H	1.713014	0.253817	0.000004
H74	H	1.112289	-0.089873	-0.125036
N75	N	1.534266	0.028891	-0.418110
H76	H	1.531681	0.019304	-0.362210
H77	H	1.619522	0.054764	-0.431878
H78	H	0.911475	-0.007716	-0.076407
H79	H	0.863614	-0.207136	-0.050808
N80	N	1.735394	0.561792	0.000019
H81	H	1.719220	0.509222	0.000007
H82	H	1.785546	0.577842	-0.046392
N83	N	1.678846	-0.005180	-0.175040
H84	H	1.665703	-0.012275	-0.119141
H85	H	1.768840	-0.013681	-0.188799
N86	N	1.534287	0.028894	-0.581896
H87	H	1.531709	0.019309	-0.637792
H88	H	1.463887	0.058190	-0.568138
H89	H	1.081355	-0.210526	-0.051119
N90	N	1.463570	-0.233730	-0.581846
H91	H	1.452774	-0.273747	-0.544919
H92	H	1.385009	-0.234763	-0.614551
N93	N	1.731353	0.712403	0.000047
H94	H	1.805546	0.683342	0.000036
H95	H	1.735562	0.742813	-0.046359
N96	N	1.747365	0.114824	-0.000020
H97	H	1.819737	0.153658	-0.000020
H98	H	1.753228	0.085088	0.046387
H99	H	1.468031	-0.217034	-0.428477
H100	H	1.296763	0.094378	0.000011
N101	N	1.145609	0.009129	-0.071876
H102	H	1.203283	0.016944	-0.026579
H103	H	1.197820	0.017011	-0.119368
H104	H	1.661481	0.342556	0.079588
H105	H	1.281274	0.672802	0.000053
N106	N	1.678863	-0.005190	-0.338839
H107	H	1.664543	0.044187	-0.325145
H108	H	1.768856	-0.013725	-0.325094
H109	H	1.656040	-0.017549	-0.814501
N110	N	1.681132	0.485139	0.091196
H111	H	1.666304	0.535644	0.084549
H112	H	1.669620	0.471666	0.145901
N113	N	0.850810	-0.216508	0.068471
H114	H	0.921289	-0.235036	0.098445
H115	H	0.805808	-0.183755	0.100863
N116	N	1.318903	-0.199644	-0.338829
H117	H	1.332052	-0.192550	-0.394727
H118	H	1.333271	-0.248994	-0.325038
N119	N	1.318969	-0.199653	-0.824917
H120	H	1.367288	-0.230665	-0.857597
H121	H	1.264136	-0.229236	-0.787951
N122	N	1.117596	-0.101990	0.142342
H123	H	1.038618	-0.116054	0.173273
H124	H	1.159683	-0.144881	0.128590
N125	N	0.906631	0.011922	0.074609
H126	H	0.853032	0.022475	0.029758
H127	H	0.858752	0.020025	0.122494
N128	N	1.254481	0.529728	0.000040
H129	H	1.180287	0.558788	0.000041
H130	H	1.250235	0.499339	-0.046371
N131	N	1.318867	-0.199638	-0.175045
H132	H	1.333196	-0.249012	-0.188744
H133	H	1.332041	-0.192480	-0.119160
N134	N	0.877373	-0.097138	0.141971
H135	H	0.893098	-0.147867	0.142871
H136	H	0.918289	-0.072680	0.187532
