data_functionalizedCrystal
_audit_creation_method	'MofGen! by Chris Wilmer'
_symmetry_space_group_name_H-M	'P1'
_symmetry_Int_Tables_number	1
_symmetry_cell_setting	triclinic
loop_
_symmetry_equiv_pos_as_xyz
  x,y,z
_cell_length_a	25.639239
_cell_length_b	18.050591
_cell_length_c	18.050582
_cell_angle_alpha	90.011103
_cell_angle_beta	89.975362
_cell_angle_gamma	89.961418
loop_
_atom_site_label
_atom_site_type_symbol
_atom_site_fract_x
_atom_site_fract_y
_atom_site_fract_z
Zn1	Zn	-0.208185	-1.135238	-0.419826
Zn2	Zn	0.291815	-0.635238	0.080174
Zn3	Zn	-0.295613	-1.135126	-0.295632
Zn4	Zn	0.204387	-0.635126	0.204368
Zn5	Zn	-0.208194	-1.011058	-0.295659
Zn6	Zn	0.291806	-0.511058	0.204341
Zn7	Zn	-0.295592	-1.010983	-0.419788
Zn8	Zn	0.204408	-0.510983	0.080212
O9	O	-0.251896	-1.073101	-0.357726
O10	O	0.248104	-0.573101	0.142274
O11	O	-0.219789	-1.239148	-0.403356
O12	O	0.280211	-0.739148	0.096644
O13	O	-0.284029	-1.118653	-0.191711
O14	O	0.215971	-0.618653	0.308289
O15	O	-0.135027	-1.027609	-0.312157
O16	O	0.364973	-0.527609	0.187843
O17	O	-0.284022	-1.239066	-0.312111
O18	O	0.215978	-0.739066	0.187889
O19	O	-0.135021	-1.118844	-0.403382
O20	O	0.364979	-0.618844	0.096618
O21	O	-0.219802	-1.027500	-0.191730
O22	O	0.280198	-0.527500	0.308270
O23	O	-0.219781	-0.907123	-0.312120
O24	O	0.280219	-0.407123	0.187880
O25	O	-0.283985	-1.027481	-0.523718
O26	O	0.216015	-0.527481	-0.023718
O27	O	-0.283992	-0.907068	-0.403318
O28	O	0.216008	-0.407068	0.096682
O29	O	-0.219768	-1.118771	-0.523746
O30	O	0.280232	-0.618771	-0.023746
O31	O	-0.368776	-1.118580	-0.312074
O32	O	0.131224	-0.618580	0.187926
O33	O	-0.368760	-1.027373	-0.403292
O34	O	0.131240	-0.527373	0.096708
C35	C	-0.251886	-0.880149	-0.357718
C36	C	0.248114	-0.380149	0.142282
C37	C	-0.251894	-0.797603	-0.357732
C38	C	0.248106	-0.297603	0.142268
C39	C	-0.286887	-0.548770	-0.407256
C40	C	0.213113	-0.048770	0.092744
C41	C	-0.299609	-0.598136	-0.339470
C42	C	0.200391	-0.098136	0.160530
C43	C	-0.251914	-0.500483	-0.357728
C44	C	0.248086	-0.000483	0.142272
C45	C	-0.239207	-0.598198	-0.425512
C46	C	0.260793	-0.098198	0.074488
C47	C	-0.251906	-0.646468	-0.357734
C48	C	0.248094	-0.146468	0.142266
C49	C	-0.264661	-0.548762	-0.289906
C50	C	0.235339	-0.048762	0.210094
C51	C	-0.204237	-0.548820	-0.375995
C52	C	0.295763	-0.048820	0.124005
C53	C	-0.216940	-0.598164	-0.308162
C54	C	0.283060	-0.098164	0.191838
C55	C	-0.251920	-0.416385	-0.357726
C56	C	0.248080	0.083615	0.142274
C57	C	-0.251899	-0.730565	-0.357729
C58	C	0.248101	-0.230565	0.142271
C59	C	-0.387739	-1.072976	-0.357692
C60	C	0.112261	-0.572976	0.142308
C61	C	-0.445853	-1.072991	-0.357703
C62	C	0.054147	-0.572991	0.142297
C63	C	-0.806211	-1.120717	-0.310310
C64	C	-0.306211	-0.620717	0.189690
C65	C	-0.860816	-1.120746	-0.310320
C66	C	-0.360816	-0.620746	0.189680
O67	O	-0.889049	-1.161195	-0.269988
O68	O	-0.389049	-0.661195	0.230012
N69	N	-0.888135	-1.073232	-0.357775
N70	N	-0.388135	-0.573232	0.142225
C71	C	-0.860847	-1.025691	-0.405229
C72	C	-0.360847	-0.525691	0.094771
O73	O	-0.889098	-0.985280	-0.445595
O74	O	-0.389098	-0.485280	0.054405
C75	C	-0.806244	-1.025667	-0.405222
C76	C	-0.306244	-0.525667	0.094778
C77	C	-0.778927	-1.073179	-0.357759
C78	C	-0.278927	-0.573179	0.142241
C79	C	-0.778895	-1.168226	-0.262851
C80	C	-0.278895	-0.668226	0.237149
C81	C	-0.724294	-1.168196	-0.262840
C82	C	-0.224294	-0.668196	0.237160
C83	C	-0.697010	-1.120657	-0.310289
C84	C	-0.197010	-0.620657	0.189711
C85	C	-0.724327	-1.073149	-0.357748
C86	C	-0.224327	-0.573149	0.142252
C87	C	-0.778957	-0.978131	-0.452679
C88	C	-0.278957	-0.478131	0.047321
C89	C	-0.724350	-0.978111	-0.452669
C90	C	-0.224350	-0.478111	0.047331
C91	C	-0.697034	-1.025622	-0.405205
C92	C	-0.197034	-0.525622	0.094795
C93	C	-0.642442	-1.025580	-0.405186
C94	C	-0.142442	-0.525580	0.094814
N95	N	-0.615123	-1.073094	-0.357731
N96	N	-0.115123	-0.573094	0.142269
C97	C	-0.642407	-1.120633	-0.310282
C98	C	-0.142407	-0.620633	0.189718
C99	C	-0.975518	-1.025747	-0.405241
C100	C	-0.475518	-0.525747	0.094759
C101	C	-1.030120	-1.025767	-0.405244
C102	C	-0.530120	-0.525767	0.094756
C103	C	-1.030085	-1.120823	-0.310336
C104	C	-0.530085	-0.620823	0.189664
C105	C	-0.975481	-1.120799	-0.310329
C106	C	-0.475481	-0.620799	0.189671
C107	C	-0.948198	-1.073261	-0.357785
C108	C	-0.448198	-0.573261	0.142215
C109	C	-0.527742	-1.120566	-0.310263
C110	C	-0.027742	-0.620566	0.189737
C111	C	-0.473137	-1.120529	-0.310254
C112	C	0.026863	-0.620529	0.189746
C113	C	-0.473177	-1.025477	-0.405165
C114	C	0.026823	-0.525477	0.094835
C115	C	-0.527777	-1.025510	-0.405171
C116	C	-0.027777	-0.525510	0.094829
C117	C	-0.555059	-1.073061	-0.357717
C118	C	-0.055059	-0.573061	0.142283
O119	O	-0.614175	-0.985154	-0.445499
O120	O	-0.114175	-0.485154	0.054501
O121	O	-0.614149	-1.161044	-0.269930
O122	O	-0.114149	-0.661044	0.230070
C123	C	-0.115523	-1.073247	-0.357777
C124	C	0.384477	-0.573247	0.142223
C125	C	-0.057409	-1.073309	-0.357798
C126	C	0.442591	-0.573309	0.142202
C127	C	-0.251873	-1.073130	-0.551432
C128	C	0.248127	-0.573130	-0.051432
C129	C	-0.251863	-1.073143	-0.633978
C130	C	0.248137	-0.573143	-0.133978
C131	C	-0.251910	-0.266807	-0.357732
C132	C	0.248090	0.233193	0.142268
C133	C	-0.251924	-0.349353	-0.357729
C134	C	0.248076	0.150647	0.142271
C135	C	-0.286736	-1.023537	-0.833413
C136	C	0.213264	-0.523537	-0.333413
C137	C	-0.299517	-1.091289	-0.882800
C138	C	0.200483	-0.591289	-0.382800
C139	C	-0.251823	-1.073180	-0.785108
C140	C	0.248177	-0.573180	-0.285108
C141	C	-0.239028	-1.005465	-0.882804
C142	C	0.260972	-0.505465	-0.382804
C143	C	-0.251785	-1.073209	-0.931093
C144	C	0.248215	-0.573209	-0.431093
C145	C	-0.264629	-1.140967	-0.833407
C146	C	0.235371	-0.640967	-0.333407
C147	C	-0.204117	-1.055097	-0.833407
C148	C	0.295883	-0.555097	-0.333407
C149	C	-0.216880	-1.122896	-0.882771
C150	C	0.283120	-0.622896	-0.382771
C151	C	-0.251846	-1.073162	-0.701010
C152	C	0.248154	-0.573162	-0.201010
C153	C	-0.251762	-1.073235	-1.015190
C154	C	0.248238	-0.573235	-0.515190
C155	C	-0.251881	-1.073115	-0.164774
C156	C	0.248119	-0.573115	0.335226
C157	C	-0.251744	-1.073247	-0.082229
C158	C	0.248256	-0.573247	0.417771
H159	H	-0.228463	-0.619913	-0.482834
H160	H	0.271537	-0.119913	0.017166
C161	C	-0.389484	-0.983246	-0.447289
C162	C	0.110516	-0.483246	0.052711
C163	C	-0.443179	-0.973228	-0.457322
C164	C	0.056821	-0.473228	0.042678
H165	H	-0.370965	-0.950995	-0.479496
H166	H	0.129035	-0.450995	0.020504
H167	H	-0.380567	-0.972399	-0.397386
H168	H	0.119433	-0.472399	0.102614
H169	H	-0.380505	-1.033138	-0.458193
H170	H	0.119495	-0.533138	0.041807
H171	H	-0.452159	-0.923337	-0.446413
H172	H	0.047841	-0.423337	0.053587
H173	H	-0.452099	-0.984070	-0.507236
H174	H	0.047901	-0.484070	-0.007236
H175	H	-1.052309	-1.159534	-0.271703
H176	H	-0.552309	-0.659534	0.228297
H177	H	-1.052357	-0.987072	-0.443887
H178	H	-0.552357	-0.487072	0.056113
H179	H	-0.339925	-0.619799	-0.324016
H180	H	0.160075	-0.119799	0.175984
H181	H	-0.275453	-0.527139	-0.232569
H182	H	0.224547	-0.027139	0.267431
C183	C	-0.113082	-0.545567	-0.345743
C184	C	0.386918	-0.045567	0.154257
C185	C	-0.149828	-0.519545	-0.396881
C186	C	0.350172	-0.019545	0.103119
H187	H	-0.079492	-0.527495	-0.358647
H188	H	0.420508	-0.027495	0.141353
H189	H	-0.122061	-0.528668	-0.297558
H190	H	0.377939	-0.028668	0.202442
H191	H	-0.112765	-0.598189	-0.346352
H192	H	0.387235	-0.098189	0.153648
H193	H	-0.150147	-0.466922	-0.396268
H194	H	0.349853	0.033078	0.103732
H195	H	-0.140846	-0.536440	-0.445078
H196	H	0.359154	-0.036440	0.054922
H197	H	-0.163801	-1.039765	-0.811695
H198	H	0.336199	-0.539765	-0.311695
H199	H	-0.702056	-1.206886	-0.224194
H200	H	-0.202056	-0.706886	0.275806
C201	C	-0.351559	-0.932486	-0.863970
C202	C	0.148441	-0.432486	-0.363970
C203	C	-0.326643	-0.966919	-0.804150
C204	C	0.173357	-0.466919	-0.304150
H205	H	-0.376198	-0.897538	-0.845902
H206	H	0.123802	-0.397538	-0.345902
H207	H	-0.326390	-0.907800	-0.893647
H208	H	0.173610	-0.407800	-0.393647
H209	H	-0.368996	-0.968769	-0.892923
H210	H	0.131004	-0.468769	-0.392923
H211	H	-0.309203	-0.930636	-0.775200
H212	H	0.190797	-0.430636	-0.275200
H213	H	-0.351817	-0.991606	-0.774461
H214	H	0.148183	-0.491606	-0.274461
H215	H	-0.275481	-1.198261	-0.811800
H216	H	0.224519	-0.698261	-0.311800
H217	H	-0.187361	-0.619715	-0.266232
H218	H	0.312639	-0.119715	0.233768
C219	C	-0.353224	-1.112403	-0.989665
C220	C	0.146776	-0.612403	-0.489665
C221	C	-0.353955	-1.111957	-0.912100
C222	C	0.146045	-0.611957	-0.412100
H223	H	-0.386832	-1.125162	-1.007751
H224	H	0.113168	-0.625162	-0.507751
H225	H	-0.343908	-1.064634	-1.007296
H226	H	0.156092	-0.564634	-0.507296
H227	H	-0.328442	-1.147727	-1.006551
H228	H	0.171558	-0.647727	-0.506551
H229	H	-0.378734	-1.076629	-0.895214
H230	H	0.121266	-0.576629	-0.395214
H231	H	-0.363278	-1.159734	-0.894462
H232	H	0.136722	-0.659734	-0.394462
C233	C	-0.190505	-1.250491	-0.886781
C234	C	0.309495	-0.750491	-0.386781
C235	C	-0.177001	-1.179646	-0.911853
C236	C	0.322999	-0.679646	-0.411853
H237	H	-0.165889	-1.285526	-0.904741
H238	H	0.334111	-0.785526	-0.404741
H239	H	-0.190503	-1.251067	-0.834164
H240	H	0.309497	-0.751067	-0.334164
H241	H	-0.224279	-1.262929	-0.904446
H242	H	0.275721	-0.762929	-0.404446
H243	H	-0.143229	-1.167206	-0.894183
H244	H	0.356771	-0.667206	-0.394183
H245	H	-0.176998	-1.179068	-0.964480
H246	H	0.323002	-0.679068	-0.464480
C247	C	-0.411660	-1.220402	-0.300001
C248	C	0.088340	-0.720402	0.199999
C249	C	-0.443109	-1.172758	-0.258080
C250	C	0.056891	-0.672758	0.241920
H251	H	-0.393122	-1.252641	-0.267791
H252	H	0.106878	-0.752641	0.232209
H253	H	-0.432927	-1.248797	-0.332380
H254	H	0.067073	-0.748797	0.167620
H255	H	-0.387595	-1.192078	-0.328253
H256	H	0.112405	-0.692078	0.171747
H257	H	-0.467176	-1.201083	-0.229833
H258	H	0.032824	-0.701083	0.270167
H259	H	-0.421840	-1.144361	-0.225688
H260	H	0.078160	-0.644361	0.274312
C261	C	-0.981046	-0.931783	-0.499047
C262	C	-0.481046	-0.431783	0.000953
C263	C	-0.945531	-0.973480	-0.457400
C264	C	-0.445531	-0.473480	0.042600
H265	H	-0.962534	-0.899514	-0.531245
H266	H	-0.462534	-0.399514	-0.031245
H267	H	-1.002308	-0.964133	-0.527483
H268	H	-0.502308	-0.464133	-0.027483
H269	H	-1.002377	-0.903415	-0.466656
H270	H	-0.502377	-0.403415	0.033344
H271	H	-0.924203	-1.001853	-0.489791
H272	H	-0.424203	-0.501853	0.010209
H273	H	-0.924260	-0.941126	-0.428962
H274	H	-0.424260	-0.441126	0.071038
H275	H	-0.549948	-1.159288	-0.271623
H276	H	-0.049948	-0.659288	0.228377
C277	C	-0.773361	-1.262168	-0.169032
C278	C	-0.273361	-0.762168	0.330968
C279	C	-0.808879	-1.220482	-0.210685
C280	C	-0.308879	-0.720482	0.289315
H281	H	-0.791870	-1.294424	-0.136819
H282	H	-0.291870	-0.794424	0.363181
H283	H	-0.752036	-1.290543	-0.201414
H284	H	-0.252036	-0.790543	0.298586
H285	H	-0.752094	-1.229805	-0.140607
H286	H	-0.252094	-0.729805	0.359393
H287	H	-0.830144	-1.252844	-0.239115
H288	H	-0.330144	-0.752844	0.260885
H289	H	-0.830213	-1.192104	-0.178299
H290	H	-0.330213	-0.692104	0.321701
C291	C	-0.980944	-1.214756	-0.216518
C292	C	-0.480944	-0.714756	0.283482
C293	C	-0.945458	-1.173029	-0.258161
C294	C	-0.445458	-0.673029	0.241839
H295	H	-0.962409	-1.247005	-0.184314
H296	H	-0.462409	-0.747005	0.315686
H297	H	-1.002271	-1.182424	-0.188089
H298	H	-0.502271	-0.682424	0.311911
H299	H	-1.002212	-1.243147	-0.248911
H300	H	-0.502212	-0.743147	0.251089
H301	H	-0.924193	-1.144634	-0.225767
H302	H	-0.424193	-0.644634	0.274233
H303	H	-0.924121	-1.205365	-0.286592
H304	H	-0.424121	-0.705365	0.213408
C305	C	-0.224114	-0.929154	-0.989662
C306	C	0.275886	-0.429154	-0.489662
C307	C	-0.224436	-0.928144	-0.912096
C308	C	0.275564	-0.428144	-0.412096
H309	H	-0.215112	-0.881417	-1.007742
H310	H	0.284888	-0.381417	-0.507742
H311	H	-0.199263	-0.964366	-1.006555
H312	H	0.300737	-0.464366	-0.506555
H313	H	-0.257753	-0.942352	-1.007291
H314	H	0.242247	-0.442352	-0.507291
H315	H	-0.190795	-0.914951	-0.894467
H316	H	0.309205	-0.414951	-0.394467
H317	H	-0.249288	-0.892921	-0.895196
H318	H	0.250712	-0.392921	-0.395196
C319	C	-0.376744	-0.544378	-0.444411
C320	C	0.123256	-0.044378	0.055589
C321	C	-0.326845	-0.519482	-0.463722
C322	C	0.173155	-0.019482	0.036278
H323	H	-0.401413	-0.526292	-0.479267
H324	H	0.098587	-0.026292	0.020733
H325	H	-0.377233	-0.596992	-0.444491
H326	H	0.122767	-0.096992	0.055509
H327	H	-0.385430	-0.526721	-0.396383
H328	H	0.114570	-0.026721	0.103617
H329	H	-0.318158	-0.537144	-0.511748
H330	H	0.181842	-0.037144	-0.011748
H331	H	-0.326355	-0.466857	-0.463650
H332	H	0.173645	0.033143	0.036350
C333	C	-0.773484	-0.884190	-0.546504
C334	C	-0.273484	-0.384190	-0.046504
C335	C	-0.808974	-0.925908	-0.504859
C336	C	-0.308974	-0.425908	-0.004859
H337	H	-0.792015	-0.851952	-0.578723
H338	H	-0.292015	-0.351952	-0.078723
H339	H	-0.752223	-0.855793	-0.514118
H340	H	-0.252223	-0.355793	-0.014118
H341	H	-0.752150	-0.916533	-0.574923
H342	H	-0.252150	-0.416533	-0.074923
H343	H	-0.830305	-0.893565	-0.476435
H344	H	-0.330305	-0.393565	0.023565
H345	H	-0.830244	-0.954307	-0.537249
H346	H	-0.330244	-0.454307	-0.037249
H347	H	-0.702139	-0.939401	-0.491316
H348	H	-0.202139	-0.439401	0.008684
C349	C	-0.522325	-0.931553	-0.498987
C350	C	-0.022325	-0.431553	0.001013
C351	C	-0.557807	-0.973285	-0.457343
C352	C	-0.057807	-0.473285	0.042657
H353	H	-0.540862	-0.899320	-0.531203
H354	H	-0.040862	-0.399320	-0.031203
H355	H	-0.501067	-0.903152	-0.466601
H356	H	-0.001067	-0.403152	0.033399
H357	H	-0.500987	-0.963889	-0.527409
H358	H	-0.000987	-0.463889	-0.027409
H359	H	-0.579142	-0.940950	-0.428916
H360	H	-0.079142	-0.440950	0.071084
H361	H	-0.579073	-1.001689	-0.489733
H362	H	-0.079073	-0.501689	0.010267
