data_functionalizedCrystal
_audit_creation_method	'MofGen! by Chris Wilmer'
_symmetry_space_group_name_H-M	'P1'
_symmetry_Int_Tables_number	1
_symmetry_cell_setting	triclinic
loop_
_symmetry_equiv_pos_as_xyz
  x,y,z
_cell_length_a	27.731993
_cell_length_b	27.732048
_cell_length_c	17.666332
_cell_angle_alpha	89.988553
_cell_angle_beta	90.002180
_cell_angle_gamma	82.631525
loop_
_atom_site_label
_atom_site_type_symbol
_atom_site_fract_x
_atom_site_fract_y
_atom_site_fract_z
O1	O	0.640948	0.057392	-0.062753
O2	O	0.974281	0.390726	0.270581
O3	O	1.307614	0.724059	0.603914
O4	O	0.500151	0.066165	-0.062800
O5	O	0.833484	0.399499	0.270533
O6	O	1.166817	0.732832	0.603867
O7	O	0.574922	-0.008619	-0.062761
O8	O	0.908255	0.324715	0.270573
O9	O	1.241589	0.658048	0.603906
O10	O	0.566176	0.132176	-0.062792
O11	O	0.899510	0.465510	0.270541
O12	O	1.232843	0.798843	0.603874
O13	O	0.574909	-0.008623	0.063136
O14	O	0.908242	0.324711	0.396470
O15	O	1.241576	0.658044	0.729803
O16	O	0.500138	0.066161	0.063097
O17	O	0.833471	0.399495	0.396430
O18	O	1.166804	0.732828	0.729763
O19	O	0.640935	0.057388	0.063144
O20	O	0.974268	0.390722	0.396477
O21	O	1.307601	0.724055	0.729811
Cu22	Cu	0.570535	0.061775	0.074616
Cu23	Cu	0.903868	0.395108	0.407949
Cu24	Cu	1.237202	0.728441	0.741282
Cu25	Cu	0.570550	0.061779	-0.074272
Cu26	Cu	0.903884	0.395112	0.259062
Cu27	Cu	1.237217	0.728446	0.592395
O28	O	0.566163	0.132172	0.063104
O29	O	0.899497	0.465506	0.396438
O30	O	1.232830	0.798839	0.729771
C31	C	0.482137	0.065983	0.000142
C32	C	0.815470	0.399317	0.333476
C33	C	1.148803	0.732650	0.666809
C34	C	0.428480	0.065441	0.000125
C35	C	0.761814	0.398774	0.333458
C36	C	1.095147	0.732108	0.666792
C37	C	0.045327	0.061512	-0.068464
C38	C	0.378661	0.394846	0.264870
C39	C	0.711994	0.728179	0.598203
C40	C	0.246985	0.063580	-0.068485
C41	C	0.580318	0.396913	0.264849
C42	C	0.913651	0.730246	0.598182
O43	O	0.273064	0.063829	-0.126850
O44	O	0.606397	0.397162	0.206483
O45	O	0.939730	0.730496	0.539816
N46	N	0.272198	0.063836	0.000140
N47	N	0.605531	0.397169	0.333473
N48	N	0.938864	0.730503	0.666807
C49	C	0.246994	0.063573	0.068775
C50	C	0.580327	0.396906	0.402108
C51	C	0.913661	0.730239	0.735442
O52	O	0.273067	0.063833	0.127144
O53	O	0.606401	0.397167	0.460477
O54	O	0.939734	0.730500	0.793811
C55	C	0.045338	0.061502	0.068795
C56	C	0.378671	0.394835	0.402128
C57	C	0.712005	0.728169	0.735462
C58	C	0.020127	0.061251	0.000166
C59	C	0.353460	0.394584	0.333499
C60	C	0.686793	0.727917	0.666833
C61	C	0.020116	0.061260	-0.137087
C62	C	0.353449	0.394594	0.196246
C63	C	0.686783	0.727927	0.529579
C64	C	-0.030296	0.060746	-0.137081
C65	C	0.303038	0.394080	0.196252
C66	C	0.636371	0.727413	0.529585
C67	C	-0.055496	0.060484	-0.068452
C68	C	0.277837	0.393818	0.264882
C69	C	0.611170	0.727151	0.598215
C70	C	-0.030285	0.060736	0.000172
C71	C	0.303048	0.394070	0.333505
C72	C	0.636382	0.727403	0.666838
C73	C	0.020136	0.061235	0.137429
C74	C	0.353469	0.394569	0.470762
C75	C	0.686802	0.727902	0.804096
C76	C	-0.030281	0.060716	0.137428
C77	C	0.303052	0.394050	0.470761
C78	C	0.636385	0.727383	0.804095
C79	C	-0.055493	0.060465	0.068799
C80	C	0.277841	0.393798	0.402132
C81	C	0.611174	0.727131	0.735466
C82	C	-0.105897	0.059960	0.068807
C83	C	0.227436	0.393294	0.402141
C84	C	0.560770	0.726627	0.735474
N85	N	-0.131110	0.059704	0.000183
N86	N	0.202223	0.393037	0.333516
N87	N	0.535556	0.726371	0.666849
C88	C	-0.105910	0.059966	-0.068447
C89	C	0.227423	0.393299	0.264886
C90	C	0.560757	0.726633	0.598220
C91	C	0.352866	0.064661	0.068759
C92	C	0.686200	0.397994	0.402093
C93	C	1.019533	0.731327	0.735426
C94	C	0.403280	0.065179	0.068755
C95	C	0.736613	0.398512	0.402088
C96	C	1.069946	0.731846	0.735421
C97	C	0.403267	0.065185	-0.068505
C98	C	0.736600	0.398518	0.264828
C99	C	1.069934	0.731852	0.598161
C100	C	0.352852	0.064670	-0.068500
C101	C	0.686185	0.398003	0.264834
C102	C	1.019519	0.731337	0.598167
C103	C	0.327653	0.064404	0.000135
C104	C	0.660986	0.397737	0.333468
C105	C	0.994320	0.731071	0.666801
C106	C	-0.211778	0.058887	-0.068429
C107	C	0.121555	0.392220	0.264904
C108	C	0.454889	0.725553	0.598237
C109	C	-0.262195	0.058375	-0.068417
C110	C	0.071139	0.391708	0.264916
C111	C	0.404472	0.725041	0.598249
C112	C	-0.262177	0.058366	0.068842
C113	C	0.071156	0.391699	0.402175
C114	C	0.404490	0.725033	0.735509
C115	C	-0.211765	0.058881	0.068831
C116	C	0.121568	0.392214	0.402164
C117	C	0.454901	0.725547	0.735497
C118	C	-0.186567	0.059139	0.000189
C119	C	0.146766	0.392473	0.333522
C120	C	0.480100	0.725806	0.666855
O121	O	-0.132007	0.059705	0.127142
O122	O	0.201327	0.393038	0.460475
O123	O	0.534660	0.726372	0.793809
O124	O	-0.131990	0.059694	-0.126807
O125	O	0.201343	0.393028	0.206526
O126	O	0.534676	0.726361	0.539859
C127	C	0.095739	0.062027	-0.068470
C128	C	0.429072	0.395360	0.264864
C129	C	0.762406	0.728693	0.598197
C130	C	0.120950	0.062279	0.000154
C131	C	0.454283	0.395612	0.333487
C132	C	0.787617	0.728945	0.666821
C133	C	0.095750	0.062017	0.068784
C134	C	0.429083	0.395350	0.402117
C135	C	0.762416	0.728683	0.735450
C136	C	0.171364	0.062797	0.000149
C137	C	0.504697	0.396131	0.333482
C138	C	0.838030	0.729464	0.666816
C139	C	0.196564	0.063059	-0.068480
C140	C	0.529898	0.396392	0.264853
C141	C	0.863231	0.729726	0.598186
C142	C	0.171351	0.062803	-0.137105
C143	C	0.504684	0.396136	0.196228
C144	C	0.838018	0.729469	0.529562
C145	C	0.120939	0.062289	-0.137099
C146	C	0.454273	0.395622	0.196234
C147	C	0.787606	0.728955	0.529567
C148	C	0.120963	0.062273	0.137408
C149	C	0.454296	0.395607	0.470742
C150	C	0.787630	0.728940	0.804075
C151	C	0.171375	0.062788	0.137397
C152	C	0.504708	0.396121	0.470730
C153	C	0.838041	0.729455	0.804063
C154	C	0.196575	0.063050	0.068767
C155	C	0.529908	0.396383	0.402100
C156	C	0.863242	0.729716	0.735434
C157	C	0.574732	-0.026628	0.000190
C158	C	0.908065	0.306706	0.333523
C159	C	1.241399	0.640039	0.666857
C160	C	0.574179	-0.080282	0.000196
C161	C	0.907512	0.253051	0.333529
C162	C	1.240846	0.586384	0.666863
C163	C	0.614884	-0.419105	0.000171
C164	C	0.948217	-0.085772	0.333504
C165	C	1.281551	0.247561	0.666837
C166	C	0.612833	-0.620765	0.000159
C167	C	0.946166	-0.287431	0.333493
C168	C	1.279500	0.045902	0.666826
O169	O	0.650055	-0.652028	0.000139
O170	O	0.983388	-0.318694	0.333472
O171	O	1.316721	0.014639	0.666806
N172	N	0.568497	-0.639880	0.000145
N173	N	0.901830	-0.306546	0.333479
N174	N	1.235163	0.026787	0.666812
C175	C	0.524670	-0.608576	0.000129
C176	C	0.858003	-0.275243	0.333462
C177	C	1.191336	0.058090	0.666796
O178	O	0.486912	-0.629462	0.000109
O179	O	0.820245	-0.296129	0.333442
O180	O	1.153579	0.037204	0.666775
C181	C	0.526721	-0.406918	0.000135
C182	C	0.860055	-0.073585	0.333468
C183	C	1.193388	0.259748	0.666801
C184	C	0.571061	-0.387806	0.000157
C185	C	0.904394	-0.054473	0.333490
C186	C	1.237727	0.278860	0.666823
C187	C	0.659220	-0.399993	0.000192
C188	C	0.992553	-0.066660	0.333525
C189	C	1.325886	0.266674	0.666858
C190	C	0.659732	-0.349581	0.000199
C191	C	0.993065	-0.016248	0.333532
C192	C	1.326399	0.317086	0.666865
C193	C	0.615909	-0.318282	0.000185
C194	C	0.949242	0.015052	0.333518
C195	C	1.282575	0.348385	0.666851
C196	C	0.571573	-0.337394	0.000164
C197	C	0.904906	-0.004061	0.333497
C198	C	1.238240	0.329272	0.666830
C199	C	0.482895	-0.375616	0.000113
C200	C	0.816228	-0.042283	0.333446
C201	C	1.149562	0.291051	0.666780
C202	C	0.483412	-0.325199	0.000113
C203	C	0.816745	0.008135	0.333446
C204	C	1.150079	0.341468	0.666779
C205	C	0.527751	-0.306087	0.000134
C206	C	0.861085	0.027247	0.333468
C207	C	1.194418	0.360580	0.666801
C208	C	0.528262	-0.255683	0.000156
C209	C	0.861595	0.077650	0.333490
C210	C	1.194928	0.410983	0.666823
N211	N	0.572598	-0.236568	0.000171
N212	N	0.905932	0.096765	0.333504
N213	N	1.239265	0.430098	0.666837
C214	C	0.616422	-0.267867	0.000185
C215	C	0.949755	0.065466	0.333518
C216	C	1.283088	0.398799	0.666851
C217	C	0.523596	-0.714450	0.000127
C218	C	0.856929	-0.381117	0.333461
C219	C	1.190262	-0.047784	0.666794
C220	C	0.523083	-0.764865	0.000127
C221	C	0.856416	-0.431531	0.333461
C222	C	1.189749	-0.098198	0.666794
C223	C	0.611246	-0.777049	0.000156
C224	C	0.944579	-0.443716	0.333490
C225	C	1.277913	-0.110383	0.666823
C226	C	0.611759	-0.726634	0.000162
C227	C	0.945092	-0.393301	0.333495
C228	C	1.278425	-0.059967	0.666829
C229	C	0.567932	-0.695335	0.000142
C230	C	0.901266	-0.362002	0.333475
C231	C	1.234599	-0.028669	0.666808
C232	C	0.617494	-0.161998	0.000200
C233	C	0.950827	0.171335	0.333533
C234	C	1.284161	0.504668	0.666867
C235	C	0.618003	-0.111582	0.000210
C236	C	0.951336	0.221752	0.333543
C237	C	1.284669	0.555085	0.666877
C238	C	0.529839	-0.099401	0.000177
C239	C	0.863173	0.233932	0.333510
C240	C	1.196506	0.567265	0.666844
C241	C	0.529331	-0.149814	0.000171
C242	C	0.862664	0.183520	0.333504
C243	C	1.195997	0.516853	0.666837
C244	C	0.573162	-0.181112	0.000180
C245	C	0.906495	0.152222	0.333513
C246	C	1.239829	0.485555	0.666846
O247	O	0.491060	-0.224392	0.000169
O248	O	0.824393	0.108941	0.333502
O249	O	1.157727	0.442275	0.666835
O250	O	0.654174	-0.246972	0.000188
O251	O	0.987507	0.086361	0.333521
O252	O	1.320841	0.419694	0.666855
C253	C	0.614372	-0.469517	0.000164
C254	C	0.947705	-0.136184	0.333497
C255	C	1.281038	0.197149	0.666830
C256	C	0.570036	-0.488630	0.000143
C257	C	0.903369	-0.155297	0.333476
C258	C	1.236703	0.178037	0.666809
C259	C	0.526213	-0.457331	0.000129
C260	C	0.859546	-0.123997	0.333462
C261	C	1.192879	0.209336	0.666795
C262	C	0.569523	-0.539044	0.000143
C263	C	0.902856	-0.205711	0.333476
C264	C	1.236190	0.127622	0.666809
C265	C	0.613346	-0.570343	0.000157
C266	C	0.946680	-0.237010	0.333490
C267	C	1.280013	0.096323	0.666823
C268	C	0.657683	-0.551228	0.000171
C269	C	0.991016	-0.217895	0.333504
C270	C	1.324349	0.115438	0.666838
C271	C	0.658195	-0.500817	0.000178
C272	C	0.991528	-0.167483	0.333511
C273	C	1.324862	0.165850	0.666845
C274	C	0.481876	-0.476446	0.000114
C275	C	0.815210	-0.143112	0.333448
C276	C	1.148543	0.190221	0.666781
C277	C	0.481368	-0.526858	0.000108
C278	C	0.814701	-0.193525	0.333442
C279	C	1.148034	0.139809	0.666775
C280	C	0.525191	-0.558157	0.000122
C281	C	0.858524	-0.224824	0.333456
C282	C	1.191858	0.108509	0.666789
C283	C	0.658949	0.057570	0.000200
C284	C	0.992282	0.390904	0.333533
C285	C	1.325615	0.724237	0.666866
C286	C	0.712605	0.058113	0.000212
C287	C	1.045938	0.391446	0.333546
C288	C	1.379272	0.724779	0.666879
C289	C	0.566353	0.150181	0.000152
C290	C	0.899687	0.483515	0.333486
C291	C	1.233020	0.816848	0.666819
C292	C	0.566906	0.203836	0.000141
C293	C	0.900239	0.537169	0.333475
C294	C	1.233573	0.870503	0.666808
N295	N	0.570528	0.061771	0.179335
N296	N	0.903861	0.395104	0.512668
N297	N	1.237194	0.728438	0.846002
N298	N	0.570561	0.061779	-0.178991
N299	N	0.903895	0.395112	0.154342
N300	N	1.237228	0.728445	0.487675
C301	C	0.603647	0.028673	0.218962
C302	C	0.936980	0.362006	0.552296
C303	C	1.270314	0.695339	0.885629
C304	C	0.603650	0.028670	0.298210
C305	C	0.936983	0.362004	0.631543
C306	C	1.270317	0.695337	0.964877
C307	C	0.570538	0.061775	0.337827
C308	C	0.903871	0.395108	0.671161
C309	C	1.237205	0.728441	1.004494
C310	C	0.537412	0.094876	0.298190
C311	C	0.870746	0.428209	0.631524
C312	C	1.204079	0.761542	0.964857
C313	C	0.537407	0.094874	0.218944
C314	C	0.870741	0.428207	0.552278
C315	C	1.204074	0.761540	0.885611
N316	N	0.564065	0.104594	0.462235
N317	N	0.897398	0.437928	0.795568
N318	N	1.230732	0.771261	1.128902
N319	N	0.564073	0.104595	0.537515
N320	N	0.897406	0.437928	0.870849
N321	N	1.230739	0.771261	1.204182
C322	C	0.570551	0.061781	0.576591
C323	C	0.903884	0.395115	0.909925
C324	C	1.237217	0.728448	1.243258
N325	N	0.577030	0.018966	0.537543
N326	N	0.910363	0.352300	0.870876
N327	N	1.243697	0.685633	1.204209
N328	N	0.577025	0.018967	0.462255
N329	N	0.910358	0.352300	0.795589
N330	N	1.243691	0.685633	1.128922
C331	C	0.570540	0.061780	0.423756
C332	C	0.903873	0.395113	0.757090
C333	C	1.237206	0.728447	1.090423
C334	C	0.603675	0.028678	0.702148
C335	C	0.937008	0.362011	1.035481
C336	C	1.270342	0.695344	1.368815
C337	C	0.603674	0.028675	0.781397
C338	C	0.937008	0.362008	1.114730
C339	C	1.270341	0.695341	1.448064
C340	C	0.537439	0.094884	0.781376
C341	C	0.870772	0.428217	1.114709
C342	C	1.204106	0.761551	1.448043
C343	C	0.537437	0.094883	0.702128
C344	C	0.870771	0.428216	1.035462
C345	C	1.204104	0.761550	1.368795
C346	C	0.570558	0.061780	0.662519
C347	C	0.903891	0.395114	0.995852
C348	C	1.237224	0.728447	1.329186
H349	H	0.423802	0.065392	0.124639
H350	H	0.757135	0.398725	0.457973
H351	H	1.090468	0.732058	0.791306
F352	F	0.430096	0.065465	-0.141546
F353	F	0.763429	0.398799	0.191787
F354	F	1.096762	0.732132	0.525120
H355	H	0.510451	0.121829	0.330451
H356	H	0.843785	0.455162	0.663784
H357	H	1.177118	0.788496	0.997117
F358	F	0.326053	0.064383	0.141814
F359	F	0.659386	0.397716	0.475148
F360	F	0.992720	0.731049	0.808481
H361	H	0.510477	0.121836	0.813632
H362	H	0.843810	0.455170	1.146965
H363	H	1.177143	0.788503	1.480298
F364	F	0.482140	-0.170155	0.000161
F365	F	0.815474	0.163178	0.333494
F366	F	1.148807	0.496512	0.666828
H367	H	0.040654	0.061439	0.193314
H368	H	0.373988	0.394772	0.526648
H369	H	0.707321	0.728105	0.859981
H370	H	0.510437	0.121827	0.186679
H371	H	0.843770	0.455160	0.520012
H372	H	1.177104	0.788494	0.853346
H373	H	0.630620	0.001717	0.330480
H374	H	0.963954	0.335050	0.663814
H375	H	1.297287	0.668383	0.997147
F376	F	0.483202	-0.066082	0.000162
F377	F	0.816535	0.267251	0.333495
F378	F	1.149869	0.600585	0.666829
H379	H	0.695838	-0.334025	0.000213
H380	H	1.029171	-0.000692	0.333547
H381	H	1.362504	0.332642	0.666880
F382	F	0.658950	-0.706298	0.000185
F383	F	0.992283	-0.372965	0.333518
F384	F	1.325617	-0.039632	0.666852
H385	H	-0.050796	0.060504	0.193320
H386	H	0.282537	0.393837	0.526653
H387	H	0.615870	0.727171	0.859986
H388	H	0.510470	0.121837	0.669862
H389	H	0.843804	0.455170	1.003195
H390	H	1.177137	0.788503	1.336528
H391	H	0.694301	-0.485261	0.000195
H392	H	1.027634	-0.151927	0.333529
H393	H	1.360967	0.181406	0.666862
H394	H	0.630642	0.001722	0.669897
H395	H	0.963976	0.335055	1.003230
H396	H	1.297309	0.668388	1.336563
F397	F	0.638923	-0.006557	0.823573
F398	F	0.972257	0.326776	1.156906
F399	F	1.305590	0.660109	1.490240
F400	F	0.704323	-0.584548	0.000190
F401	F	1.037656	-0.251215	0.333523
F402	F	1.370990	0.082118	0.666857
H403	H	-0.282719	0.058171	-0.124306
H404	H	0.050614	0.391504	0.209027
H405	H	0.383947	0.724838	0.542361
H406	H	-0.191239	0.059095	0.124714
H407	H	0.142095	0.392428	0.458047
H408	H	0.475428	0.725762	0.791381
F409	F	-0.184967	0.059162	-0.141486
F410	F	0.148366	0.392495	0.191848
F411	F	0.481700	0.725829	0.525181
F412	F	0.435702	-0.395945	0.000086
F413	F	0.769036	-0.062612	0.333420
F414	F	1.102369	0.270722	0.666753
F415	F	0.434172	-0.547192	0.000090
F416	F	0.767505	-0.213859	0.333423
F417	F	1.100839	0.119474	0.666757
H418	H	-0.050818	0.060539	-0.192966
H419	H	0.282515	0.393873	0.140367
H420	H	0.615849	0.727206	0.473700
H421	H	0.630614	0.001717	0.186715
H422	H	0.963948	0.335051	0.520048
H423	H	1.297281	0.668384	0.853382
F424	F	0.435231	-0.443141	0.000097
F425	F	0.768564	-0.109807	0.333430
F426	F	1.101897	0.223526	0.666764
H427	H	0.332328	0.064465	-0.124384
H428	H	0.665662	0.397798	0.208950
H429	H	0.998995	0.731132	0.542283
F430	F	-0.289006	0.058089	0.141879
F431	F	0.044327	0.391422	0.475212
F432	F	0.377660	0.724756	0.808545
F433	F	0.705867	-0.433297	0.000206
F434	F	1.039200	-0.099964	0.333540
F435	F	1.372534	0.233369	0.666873
F436	F	0.198180	0.063083	-0.210146
F437	F	0.531513	0.396417	0.123187
F438	F	0.864846	0.729750	0.456521
F439	F	0.046929	0.061538	-0.210139
F440	F	0.380262	0.394871	0.123194
F441	F	0.713595	0.728205	0.456528
H442	H	0.100450	0.062057	0.193296
H443	H	0.433783	0.395391	0.526629
H444	H	0.767117	0.728724	0.859963
H445	H	0.646929	-0.802542	0.000168
H446	H	0.980262	-0.469209	0.333502
H447	H	1.313596	-0.135875	0.666835
H448	H	0.191897	0.062997	0.193287
H449	H	0.525230	0.396330	0.526620
H450	H	0.858563	0.729663	0.859954
F451	F	0.665196	-0.091245	0.000233
F452	F	0.998530	0.242089	0.333566
F453	F	1.331863	0.575422	0.666900
F454	F	0.094114	0.062020	-0.210144
F455	F	0.427447	0.395354	0.123189
F456	F	0.760781	0.728687	0.456522
H457	H	0.653186	-0.187476	0.000204
H458	H	0.986519	0.145857	0.333538
H459	H	1.319852	0.479191	0.666871
H460	H	0.486977	-0.780421	0.000123
H461	H	0.820311	-0.447088	0.333456
H462	H	1.153644	-0.113754	0.666789
H463	H	0.487905	-0.688970	0.000111
H464	H	0.821238	-0.355637	0.333444
H465	H	1.154572	-0.022304	0.666778
H466	H	0.447722	-0.299717	0.000095
H467	H	0.781056	0.033616	0.333428
H468	H	1.114389	0.366950	0.666761
