data_functionalizedCrystal
_audit_creation_method	'MofGen! by Chris Wilmer'
_symmetry_space_group_name_H-M	'P1'
_symmetry_Int_Tables_number	1
_symmetry_cell_setting	triclinic
loop_
_symmetry_equiv_pos_as_xyz
  x,y,z
_cell_length_a	17.640280
_cell_length_b	19.805407
_cell_length_c	19.805399
_cell_angle_alpha	90.019197
_cell_angle_beta	78.776890
_cell_angle_gamma	101.203588
loop_
_atom_site_label
_atom_site_type_symbol
_atom_site_fract_x
_atom_site_fract_y
_atom_site_fract_z
Zn1	Zn	-0.314765	-1.089295	-0.328295
Zn2	Zn	-0.446941	-1.112121	-0.192256
Zn3	Zn	-0.314778	-0.976112	-0.215118
Zn4	Zn	-0.446890	-0.998975	-0.305413
O5	O	-0.380843	-1.044126	-0.260271
O6	O	-0.332314	-1.187042	-0.310258
O7	O	-0.429436	-1.094063	-0.100568
O8	O	-0.204171	-0.972005	-0.249276
O9	O	-0.429423	-1.203812	-0.210311
O10	O	-0.204161	-1.055161	-0.332427
O11	O	-0.332336	-0.994138	-0.117365
O12	O	-0.332287	-0.884426	-0.227088
O13	O	-0.429336	-1.010972	-0.403169
O14	O	-0.429349	-0.901223	-0.293426
O15	O	-0.332265	-1.077330	-0.419981
O16	O	-0.557539	-1.116233	-0.188122
O17	O	-0.557502	-1.033105	-0.271258
C18	C	-0.380814	-0.868265	-0.260255
C19	C	-0.380821	-0.793034	-0.260261
C20	C	-0.330345	-0.748974	-0.312353
C21	C	-0.330348	-0.678286	-0.312354
C22	C	-0.380831	-0.651660	-0.260264
C23	C	-0.431309	-0.695726	-0.208167
C24	C	-0.431302	-0.766412	-0.208164
C25	C	-0.431338	-0.410657	-0.208175
C26	C	-0.431342	-0.339966	-0.208183
C27	C	-0.330383	-0.322532	-0.312365
C28	C	-0.330376	-0.393218	-0.312363
C29	C	-0.380851	-0.437276	-0.260263
C30	C	-0.380847	-0.513924	-0.260263
C31	C	-0.380840	-0.575015	-0.260267
C32	C	-0.586199	-1.079645	-0.224741
C33	C	-0.674051	-1.094902	-0.209563
C34	C	-0.963026	-0.928497	-0.375817
C35	C	-1.045576	-0.942834	-0.361534
C36	C	-1.045550	-1.029449	-0.275052
C37	C	-0.962998	-1.015121	-0.289330
C38	C	-0.921742	-0.964643	-0.339713
C39	C	-0.921714	-1.051267	-0.253226
C40	C	-0.839169	-1.036938	-0.267501
C41	C	-0.797908	-0.986461	-0.317879
C42	C	-0.839197	-0.950314	-0.353987
C43	C	-0.962971	-1.101741	-0.202841
C44	C	-0.921687	-1.137888	-0.166737
C45	C	-0.839141	-1.123562	-0.181014
C46	C	-0.797880	-1.073085	-0.231393
C47	C	-0.797852	-1.159709	-0.144907
C48	C	-0.715307	-1.145379	-0.159181
C49	C	-0.715335	-1.058755	-0.245667
C50	C	-0.174686	-1.008487	-0.295954
C51	C	-0.086834	-0.993299	-0.311160
C52	C	-0.380794	-1.044155	-0.436822
C53	C	-0.380772	-1.044168	-0.512058
C54	C	-0.380867	-0.220673	-0.260282
C55	C	-0.380862	-0.295904	-0.260273
C56	C	-0.330225	-1.078721	-0.556157
C57	C	-0.330202	-1.078724	-0.626850
C58	C	-0.380731	-1.044177	-0.653441
C59	C	-0.431281	-1.009620	-0.609336
C60	C	-0.431299	-1.009613	-0.538645
C61	C	-0.431207	-1.009645	-0.894422
C62	C	-0.431187	-1.009656	-0.965117
C63	C	-0.330110	-1.078756	-0.982626
C64	C	-0.330128	-1.078749	-0.911936
C65	C	-0.380675	-1.044189	-0.867838
C66	C	-0.380698	-1.044185	-0.791185
C67	C	-0.380712	-1.044185	-0.730091
C68	C	-0.380836	-1.044126	-0.084416
C69	C	-0.380634	-1.044206	-0.009219
H70	H	-0.472404	-0.802285	-0.165745
H71	H	-0.730695	-0.974790	-0.329496
H72	H	-0.472420	-0.981489	-0.630992
F73	F	-0.485097	-0.972835	-0.491711
F74	F	-0.484969	-0.972885	-0.993415
F75	F	-0.276617	-0.777305	-0.367798
F76	F	-0.276351	-1.115521	-0.883640
F77	F	-0.485033	-0.667386	-0.152726
H78	H	-0.289080	-1.106855	-0.534513
H79	H	-0.472377	-0.981516	-0.858523
F80	F	-0.671423	-1.005037	-0.299296
F81	F	-0.919114	-0.874778	-0.429445
F82	F	-0.795286	-0.896595	-0.407616
H83	H	-1.079151	-1.070545	-0.234029
F84	F	-0.485044	-0.457537	-0.152718
H85	H	-0.289270	-0.414892	-0.354781
H86	H	-0.289246	-0.642415	-0.354774
H87	H	-0.289281	-0.286650	-0.354785
F88	F	-0.671367	-1.183846	-0.120750
H89	H	-0.289043	-1.106862	-0.662753
F90	F	-0.485075	-0.311631	-0.152738
H91	H	-0.288949	-1.106894	-1.018541
F92	F	-1.089511	-0.904352	-0.399958
H93	H	-1.030184	-1.113408	-0.191222
H94	H	-0.955289	-1.178984	-0.125714
F95	F	-0.841769	-1.213425	-0.091284
