data_functionalizedCrystal
_audit_creation_method	'MofGen! by Chris Wilmer'
_symmetry_space_group_name_H-M	'P1'
_symmetry_Int_Tables_number	1
_symmetry_cell_setting	triclinic
loop_
_symmetry_equiv_pos_as_xyz
  x,y,z
_cell_length_a	15.072220
_cell_length_b	10.654550
_cell_length_c	10.654543
_cell_angle_alpha	84.483552
_cell_angle_beta	90.007685
_cell_angle_gamma	89.990717
loop_
_atom_site_label
_atom_site_type_symbol
_atom_site_fract_x
_atom_site_fract_y
_atom_site_fract_z
O1	O	-0.073709	-1.667816	-0.176413
O2	O	-0.073724	-1.302338	-0.193219
O3	O	-0.073718	-1.493484	-0.002077
O4	O	-0.073715	-1.476670	-0.367556
O5	O	0.073847	-1.493509	-0.002043
O6	O	0.073841	-1.302362	-0.193186
O7	O	0.073856	-1.667841	-0.176380
Zn8	Zn	0.097278	-1.485105	-0.184777
Zn9	Zn	-0.097146	-1.485073	-0.184822
O10	O	0.073850	-1.476694	-0.367523
C11	C	0.000056	-1.255552	-0.191969
C12	C	0.000050	-1.116109	-0.188277
N13	N	-0.229834	-1.485052	-0.184843
C14	C	0.000062	-1.492264	0.044738
C15	C	0.000055	-1.488575	0.184182
C16	C	-0.589036	-1.485108	-0.184778
C17	C	-0.551432	-1.382940	-0.287168
C18	C	-0.448607	-1.382555	-0.286918
C19	C	-0.410832	-1.485080	-0.184811
C20	C	-0.448141	-1.455663	-0.053414
C21	C	-0.550999	-1.454945	-0.053994
C22	C	-0.551115	-1.616987	-0.212617
C23	C	-0.448251	-1.616119	-0.215607
C24	C	-0.310119	-1.485067	-0.184822
C25	C	-0.689749	-1.485119	-0.184759
N26	N	0.229967	-1.485136	-0.184747
C27	C	0.000074	-1.714627	-0.177630
C28	C	0.000074	-1.854070	-0.181322
C29	C	0.000053	-1.036620	-0.300819
C30	C	0.000069	-0.905600	-0.297342
C31	C	0.000074	-0.933568	-0.068772
C32	C	0.000064	-1.064586	-0.072250
C33	C	0.000056	-1.601119	0.263668
C34	C	0.000040	-1.597645	0.394689
C35	C	0.000024	-1.369075	0.366726
C36	C	0.000034	-1.372550	0.235707
C37	C	0.000058	-1.477921	0.585663
C38	C	0.000028	-1.481627	0.446222
H39	H	-0.423383	-1.400194	-0.384542
H40	H	-0.576182	-1.400309	-0.385106
N41	N	0.000070	-1.145774	0.042728
N42	N	0.000078	-1.099759	0.146313
H43	H	0.000086	-1.157096	0.227513
N44	N	0.000050	-1.719631	0.211036
N45	N	-0.062149	-1.747060	0.141029
H46	H	-0.062157	-1.830764	0.103861
H47	H	0.000039	-1.689290	0.459402
H48	H	-0.423883	-1.638411	-0.312284
H49	H	0.000009	-1.274611	0.408694
N50	N	0.000089	-0.880957	0.049751
N51	N	0.062292	-0.904978	0.125895
H52	H	0.062302	-0.867824	0.209606
N53	N	-0.583874	-1.260888	-0.264971
N54	N	-0.634569	-1.248822	-0.174071
H55	H	-0.657484	-1.162624	-0.158390
N56	N	-0.417754	-1.259794	-0.264426
N57	N	-0.472188	-1.174138	-0.248854
H58	H	-0.450400	-1.087432	-0.232965
H59	H	-0.574997	-1.358741	-0.029688
H60	H	0.000074	-0.840885	-0.388985
H61	H	-0.575873	-1.526487	0.024561
N62	N	0.000015	-1.257583	0.154504
N63	N	-0.062198	-1.180672	0.159751
H64	H	-0.062216	-1.099480	0.102401
H65	H	-0.423671	-1.528060	0.024663
N66	N	0.000040	-1.089271	-0.419321
N67	N	-0.062167	-1.159237	-0.446777
H68	H	-0.062175	-1.196421	-0.530472
H69	H	-0.422381	-1.360553	-0.028554
N70	N	-0.583684	-1.652198	-0.330331
N71	N	-0.635246	-1.580512	-0.395142
H72	H	-0.658250	-1.605366	-0.478282
H73	H	-0.422536	-1.695768	-0.145989
H74	H	-0.575435	-1.693028	-0.137971
