data_functionalizedCrystal
_audit_creation_method	'MofGen! by Chris Wilmer'
_symmetry_space_group_name_H-M	'P1'
_symmetry_Int_Tables_number	1
_symmetry_cell_setting	triclinic
loop_
_symmetry_equiv_pos_as_xyz
  x,y,z
_cell_length_a	21.295420
_cell_length_b	21.295417
_cell_length_c	19.076919
_cell_angle_alpha	87.732301
_cell_angle_beta	87.719118
_cell_angle_gamma	90.027953
loop_
_atom_site_label
_atom_site_type_symbol
_atom_site_fract_x
_atom_site_fract_y
_atom_site_fract_z
Zn1	Zn	0.948011	-0.264951	0.397936
Zn2	Zn	1.448011	0.235049	0.897936
Zn3	Zn	0.952159	-0.365990	0.280235
Zn4	Zn	1.452159	0.134010	0.780235
Zn5	Zn	0.846977	-0.260737	0.280255
Zn6	Zn	1.346977	0.239263	0.780255
Zn7	Zn	0.842707	-0.370181	0.397890
Zn8	Zn	1.342707	0.129819	0.897890
O9	O	0.897464	-0.315465	0.339079
O10	O	1.397464	0.184535	0.839079
O11	O	1.036650	-0.278364	0.382334
O12	O	1.536650	0.221636	0.882334
O13	O	0.941729	-0.348511	0.181749
O14	O	1.441729	0.151489	0.681749
O15	O	0.860431	-0.173207	0.295893
O16	O	1.360431	0.326793	0.795893
O17	O	1.039698	-0.352597	0.295860
O18	O	1.539698	0.147403	0.795860
O19	O	0.934660	-0.176303	0.382353
O20	O	1.434660	0.323697	0.882353
O21	O	0.864453	-0.271181	0.181764
O22	O	1.364453	0.228819	0.681764
O23	O	0.758322	-0.275245	0.295848
O24	O	1.258322	0.224755	0.795848
O25	O	0.853153	-0.359739	0.496385
O26	O	1.353153	0.140261	0.996385
O27	O	0.755184	-0.355653	0.382274
O28	O	1.255184	0.144347	0.882274
O29	O	0.930519	-0.282427	0.496419
O30	O	1.430519	0.217573	0.996419
O31	O	0.937588	-0.454635	0.295815
O32	O	1.437588	0.045365	0.795815
O33	O	0.857175	-0.457714	0.382255
O34	O	1.357175	0.042286	0.882255
C35	C	0.733913	-0.315447	0.339059
C36	C	1.233913	0.184553	0.839059
C37	C	0.663944	-0.315455	0.339067
C38	C	1.163944	0.184545	0.839067
C39	C	0.162870	-0.357406	0.384037
C40	C	0.662870	0.142594	0.884037
C41	C	0.228613	-0.357406	0.384030
C42	C	0.728613	0.142594	0.884030
C43	C	0.263104	-0.315480	0.339101
C44	C	0.763104	0.184520	0.839101
C45	C	0.231847	-0.273562	0.294164
C46	C	0.731847	0.226438	0.794164
C47	C	0.166105	-0.273567	0.294167
C48	C	0.666105	0.226433	0.794167
N49	N	0.366534	-0.260173	0.333809
N50	N	0.866534	0.239827	0.833809
N51	N	0.428986	-0.260170	0.333809
N52	N	0.928986	0.239830	0.833809
C53	C	0.461179	-0.315462	0.339086
C54	C	0.961179	0.184538	0.839086
N55	N	0.428561	-0.370759	0.344376
N56	N	0.928561	0.129241	0.844376
N57	N	0.366103	-0.370761	0.344379
N58	N	0.866103	0.129239	0.844379
C59	C	0.334389	-0.315469	0.339092
C60	C	0.834389	0.184531	0.839092
C61	C	0.563714	-0.357380	0.384009
C62	C	1.063714	0.142620	0.884009
C63	C	0.629458	-0.357381	0.383997
C64	C	1.129458	0.142619	0.883997
C65	C	0.632690	-0.273531	0.294134
C66	C	1.132690	0.226469	0.794134
C67	C	0.566948	-0.273536	0.294143
C68	C	1.066948	0.226464	0.794143
C69	C	0.532463	-0.315459	0.339084
C70	C	1.032463	0.184541	0.839084
C71	C	0.897385	-0.479015	0.339043
C72	C	1.397385	0.020985	0.839043
C73	C	0.897408	-0.548983	0.339052
C74	C	1.397408	-0.048983	0.839052
C75	C	0.936034	-0.583406	0.384104
C76	C	1.436034	-0.083406	0.884104
C77	C	0.936056	-0.649149	0.384121
C78	C	1.436056	-0.149149	0.884121
C79	C	0.897458	-0.680467	0.339074
C80	C	1.397458	-0.180467	0.839074
C81	C	0.858823	-0.646036	0.294019
C82	C	1.358823	-0.146036	0.794019
C83	C	0.858798	-0.580294	0.294008
C84	C	1.358798	-0.080294	0.794008
N85	N	0.894919	-0.781515	0.277479
N86	N	1.394919	-0.281515	0.777479
N87	N	0.894947	-0.843967	0.277492
N88	N	1.394947	-0.343967	0.777492
C89	C	0.897530	-0.878543	0.339106
C90	C	1.397530	-0.378543	0.839106
N91	N	0.900098	-0.848307	0.400708
N92	N	1.400098	-0.348307	0.900708
N93	N	0.900073	-0.785850	0.400695
N94	N	1.400073	-0.285850	0.900695
C95	C	0.897480	-0.751752	0.339081
C96	C	1.397480	-0.251752	0.839081
C97	C	0.936183	-0.984252	0.384180
C98	C	1.436183	-0.484252	0.884180
C99	C	0.936200	-1.049996	0.384199
C100	C	1.436200	-0.549996	0.884199
C101	C	0.858970	-1.046881	0.294090
C102	C	1.358970	-0.546881	0.794090
C103	C	0.858950	-0.981138	0.294078
C104	C	1.358950	-0.481138	0.794078
C105	C	0.897559	-0.949827	0.339122
C106	C	1.397559	-0.449827	0.839122
C107	C	1.061653	-0.315483	0.339100
C108	C	1.561653	0.184517	0.839100
C109	C	1.131621	-0.315491	0.339109
C110	C	1.631621	0.184509	0.839109
C111	C	0.890897	-0.322021	0.522653
C112	C	1.390897	0.177979	1.022653
C113	C	0.888099	-0.324814	0.600881
C114	C	1.388099	0.175186	1.100881
C115	C	0.897559	-0.151276	0.339130
C116	C	1.397559	0.348724	0.839130
C117	C	0.897600	-0.081309	0.339152
C118	C	1.397600	0.418691	0.839152
C119	C	0.904041	-0.308889	0.156219
C120	C	1.404041	0.191111	0.656219
C121	C	0.906961	-0.305918	0.077992
C122	C	1.406961	0.194082	0.577992
C123	C	0.927063	-0.285876	0.637652
C124	C	1.427063	0.214124	1.137652
C125	C	0.924426	-0.288499	0.711155
C126	C	1.424426	0.211501	1.211155
C127	C	0.882828	-0.330063	0.747887
C128	C	1.382828	0.169937	1.247887
C129	C	0.843859	-0.369003	0.711111
C130	C	1.343859	0.130997	1.211111
C131	C	0.846494	-0.366377	0.637609
C132	C	1.346494	0.133623	1.137609
C133	C	0.870627	-0.342231	0.967714
C134	C	1.370627	0.157769	1.467714
C135	C	0.867997	-0.344856	1.041221
C136	C	1.367997	0.155144	1.541221
C137	C	0.948563	-0.264351	1.041260
C138	C	1.448563	0.235649	1.541260
C139	C	0.951196	-0.261731	0.967756
C140	C	1.451196	0.238269	1.467756
C141	C	0.912226	-0.300668	0.930987
C142	C	1.412226	0.199332	1.430987
N143	N	0.880133	-0.332747	0.823020
N144	N	1.380133	0.167253	1.323020
N145	N	0.914918	-0.297981	0.855856
N146	N	1.414918	0.202019	1.355856
H147	H	0.254061	-0.391538	0.420619
H148	H	0.754061	0.108462	0.920619
H149	H	0.967471	-0.557915	0.420783
H150	H	1.467471	-0.057915	0.920783
H151	H	0.259933	-0.239426	0.257581
H152	H	0.759933	0.260574	0.757581
H153	H	0.960938	-0.252032	0.607750
H154	H	1.460938	0.247968	1.107750
H155	H	0.654900	-0.391517	0.420582
H156	H	1.154900	0.108483	0.920582
H157	H	0.827395	-0.671539	0.257343
H158	H	1.327395	-0.171539	0.757343
O159	O	0.973632	-0.682500	0.427915
O160	O	1.473632	-0.182500	0.927915
C161	C	1.050192	-0.678658	0.517328
C162	C	1.550192	-0.178658	1.017328
C163	C	1.007684	-0.640814	0.467751
C164	C	1.507684	-0.140814	0.967751
H165	H	1.077724	-0.644971	0.549558
H166	H	1.577724	-0.144971	1.049558
H167	H	1.084338	-0.708256	0.485094
H168	H	1.584338	-0.208256	0.985094
H169	H	1.019943	-0.710773	0.554071
H170	H	1.519943	-0.210773	1.054071
H171	H	1.037882	-0.608665	0.430998
H172	H	1.537882	-0.108665	0.930998
H173	H	0.973535	-0.611257	0.500028
H174	H	1.473535	-0.111257	1.000028
H175	H	0.956156	-0.256793	0.741091
H176	H	1.456156	0.243207	1.241091
H177	H	0.140662	-0.239433	0.257581
H178	H	0.640662	0.260567	0.757581
H179	H	0.967654	-1.078022	0.420888
H180	H	1.467654	-0.578022	0.920888
O181	O	0.821522	-0.947625	0.250274
O182	O	1.321522	-0.447625	0.750274
C183	C	0.816499	-0.870078	0.155203
C184	C	1.316499	-0.370078	0.655203
C185	C	0.858962	-0.907980	0.204778
C186	C	1.358962	-0.407980	0.704778
H187	H	0.846753	-0.838025	0.118397
H188	H	1.346753	-0.338025	0.618397
H189	H	0.782406	-0.840424	0.187438
H190	H	1.282406	-0.340424	0.687438
H191	H	0.788899	-0.903764	0.123041
H192	H	1.288899	-0.403764	0.623041
H193	H	0.886602	-0.874339	0.236951
H194	H	1.386602	-0.374339	0.736951
H195	H	0.893015	-0.937642	0.172503
H196	H	1.393015	-0.437642	0.672503
O197	O	0.973590	-0.953762	0.427973
O198	O	1.473590	-0.453762	0.927973
C199	C	0.978552	-0.882911	0.523015
C200	C	1.478552	-0.382911	1.023015
C201	C	0.936119	-0.917390	0.473452
C202	C	1.436119	-0.417390	0.973452
H203	H	0.948274	-0.853507	0.559807
H204	H	1.448274	-0.353507	1.059807
H205	H	1.012624	-0.850924	0.490769
H206	H	1.512624	-0.350924	0.990769
H207	H	1.006177	-0.918819	0.555193
H208	H	1.506177	-0.418819	1.055193
H209	H	0.908454	-0.881528	0.441263
H210	H	1.408454	-0.381528	0.941263
H211	H	0.902087	-0.949388	0.505738
H212	H	1.402087	-0.449388	1.005738
H213	H	0.985071	-0.227886	0.937854
H214	H	1.485071	0.272114	1.437854
O215	O	0.821259	-0.546948	0.250174
O216	O	1.321259	-0.046948	0.750174
C217	C	0.744631	-0.550797	0.160835
C218	C	1.244631	-0.050797	0.660835
C219	C	0.787123	-0.588640	0.210430
C220	C	1.287123	-0.088640	0.710430
H221	H	0.717011	-0.584489	0.128700
H222	H	1.217011	-0.084489	0.628700
H223	H	0.774834	-0.518712	0.124010
H224	H	1.274834	-0.018712	0.624010
H225	H	0.710555	-0.521169	0.193120
H226	H	1.210555	-0.021169	0.693120
H227	H	0.821206	-0.618304	0.178202
H228	H	1.321206	-0.118304	0.678202
H229	H	0.756881	-0.620685	0.247257
H230	H	1.256881	-0.120685	0.747257
O231	O	0.530308	-0.398162	0.427686
O232	O	1.030308	0.101838	0.927686
C233	C	0.534038	-0.481291	0.516858
C234	C	1.034038	0.018709	1.016858
C235	C	0.571945	-0.435153	0.467415
C236	C	1.071945	0.064847	0.967415
H237	H	0.567684	-0.511201	0.549002
H238	H	1.067684	-0.011201	1.049002
H239	H	0.504408	-0.513053	0.484524
H240	H	1.004408	-0.013053	0.984524
H241	H	0.501949	-0.453739	0.553687
H242	H	1.001949	0.046261	1.053687
H243	H	0.604068	-0.462653	0.430576
H244	H	1.104068	0.037347	0.930576
H245	H	0.601533	-0.403390	0.499792
H246	H	1.101533	0.096610	0.999792
H247	H	0.660772	-0.239396	0.257550
H248	H	1.160772	0.260604	0.757550
O249	O	0.821529	-1.077393	0.250359
O250	O	1.321529	-0.577393	0.750359
C251	C	0.787300	-1.177293	0.210484
C252	C	1.287300	-0.677293	0.710484
C253	C	0.829749	-1.142814	0.260030
C254	C	1.329749	-0.642814	0.760030
H255	H	0.793921	-1.230192	0.218297
H256	H	1.293921	-0.730192	0.718297
H257	H	0.800416	-1.162403	0.153724
H258	H	1.300416	-0.662403	0.653724
H259	H	0.736096	-1.164803	0.222787
H260	H	1.236096	-0.664803	0.722787
H261	H	0.880965	-1.155286	0.247790
H262	H	1.380965	-0.655286	0.747790
H263	H	0.816579	-1.157706	0.316775
H264	H	1.316579	-0.657706	0.816775
O265	O	0.536686	-0.232753	0.250482
O266	O	1.036686	0.267247	0.750482
C267	C	0.546833	-0.149612	0.161323
C268	C	1.046833	0.350388	0.661323
C269	C	0.581182	-0.195755	0.210749
C270	C	1.081182	0.304245	0.710749
H271	H	0.582793	-0.119696	0.129175
H272	H	1.082793	0.380304	0.629175
H273	H	0.514933	-0.117856	0.193671
H274	H	1.014933	0.382144	0.693671
H275	H	0.517337	-0.177160	0.124497
H276	H	1.017337	0.322840	0.624497
H277	H	0.610712	-0.168258	0.247585
H278	H	1.110712	0.331742	0.747585
H279	H	0.613044	-0.227511	0.178358
H280	H	1.113044	0.272489	0.678358
O281	O	0.986349	-0.226549	1.077087
O282	O	1.486349	0.273451	1.577087
C283	C	1.018023	-0.194936	1.190338
C284	C	1.518023	0.305064	1.690338
C285	C	0.975186	-0.237775	1.149853
C286	C	1.475186	0.262225	1.649853
H287	H	1.009022	-0.204007	1.249177
H288	H	1.509022	0.295993	1.749177
H289	H	1.007511	-0.143649	1.175951
H290	H	1.507511	0.356351	1.675951
H291	H	1.069288	-0.205470	1.175851
H292	H	1.569288	0.294530	1.675851
H293	H	0.923907	-0.227298	1.164319
H294	H	1.423907	0.272702	1.664319
H295	H	0.985752	-0.289049	1.164243
H296	H	1.485752	0.210951	1.664243
O297	O	0.808580	-0.404115	0.601861
O298	O	1.308580	0.095885	1.101861
C299	C	0.726582	-0.409617	0.518829
C300	C	1.226582	0.090383	1.018829
C301	C	0.769475	-0.366805	0.559278
C302	C	1.269475	0.133195	1.059278
H303	H	0.694965	-0.379470	0.484380
H304	H	1.194965	0.120530	0.984380
H305	H	0.696357	-0.439763	0.557679
H306	H	1.196357	0.060237	1.057679
H307	H	0.756708	-0.441321	0.484443
H308	H	1.256708	0.058679	0.984443
H309	H	0.739398	-0.335064	0.593664
H310	H	1.239398	0.164936	1.093664
H311	H	0.799704	-0.336702	0.520390
H312	H	1.299704	0.163298	1.020390
O313	O	0.827634	-0.385210	1.077013
O314	O	1.327634	0.114790	1.577013
C315	C	0.787838	-0.424891	1.190232
C316	C	1.287838	0.075109	1.690232
C317	C	0.833587	-0.379178	1.149786
C318	C	1.333587	0.120822	1.649786
H319	H	0.792626	-0.420021	1.249077
H320	H	1.292626	0.079979	1.749077
H321	H	0.799367	-0.475154	1.175823
H322	H	1.299367	0.024846	1.675823
H323	H	0.737615	-0.413309	1.175732
H324	H	1.237615	0.086691	1.675732
H325	H	0.883826	-0.390703	1.164265
H326	H	1.383826	0.109297	1.664265
H327	H	0.822004	-0.328928	1.164199
H328	H	1.322004	0.171072	1.664199
O329	O	0.832741	-0.380109	0.932111
O330	O	1.332741	0.119891	1.432111
C331	C	0.752504	-0.460186	0.939836
C332	C	1.252504	0.039814	1.439836
C333	C	0.795393	-0.417340	0.980247
C334	C	1.295393	0.082660	1.480247
H335	H	0.722288	-0.490289	0.978736
H336	H	1.222288	0.009711	1.478736
H337	H	0.782570	-0.491924	0.905428
H338	H	1.282570	0.008076	1.405428
H339	H	0.720869	-0.430028	0.905419
H340	H	1.220869	0.069972	1.405419
H341	H	0.827036	-0.447449	1.014702
H342	H	1.327036	0.052551	1.514702
H343	H	0.765289	-0.385599	1.014611
H344	H	1.265289	0.114401	1.514611
O345	O	0.803539	-0.409446	0.746823
O346	O	1.303539	0.090554	1.246823
C347	C	0.792044	-0.497374	0.829811
C348	C	1.292044	0.002626	1.329811
C349	C	0.837776	-0.451621	0.789402
C350	C	1.337776	0.048379	1.289402
H351	H	0.819705	-0.531475	0.864257
H352	H	1.319705	-0.031475	1.364257
H353	H	0.764655	-0.524800	0.790935
H354	H	1.264655	-0.024800	1.290935
H355	H	0.757903	-0.469684	0.864196
H356	H	1.257903	0.030316	1.364196
H357	H	0.871956	-0.479262	0.755016
H358	H	1.371956	0.020738	1.255016
H359	H	0.865119	-0.424194	0.828316
H360	H	1.365119	0.075806	1.328316
H361	H	0.134797	-0.391546	0.420630
H362	H	0.634797	0.108454	0.920630
