data_functionalizedCrystal
_audit_creation_method	'MofGen! by Chris Wilmer'
_symmetry_space_group_name_H-M	'P1'
_symmetry_Int_Tables_number	1
_symmetry_cell_setting	triclinic
loop_
_symmetry_equiv_pos_as_xyz
  x,y,z
_cell_length_a	12.759401
_cell_length_b	13.897448
_cell_length_c	12.759393
_cell_angle_alpha	89.968364
_cell_angle_beta	89.979541
_cell_angle_gamma	90.019217
loop_
_atom_site_label
_atom_site_type_symbol
_atom_site_fract_x
_atom_site_fract_y
_atom_site_fract_z
Zn1	Zn	1.606240	-0.383935	-0.594007
Zn2	Zn	2.106240	0.116065	-0.094007
Zn3	Zn	1.606123	-0.545260	-0.418322
Zn4	Zn	2.106123	-0.045260	0.081678
Zn5	Zn	1.430540	-0.383985	-0.418342
Zn6	Zn	1.930540	0.116015	0.081658
Zn7	Zn	1.430521	-0.545194	-0.593959
Zn8	Zn	1.930521	-0.045194	-0.093959
O9	O	1.518356	-0.464593	-0.506158
O10	O	2.018356	0.035407	-0.006158
O11	O	1.753245	-0.405342	-0.570714
O12	O	2.253245	0.094658	-0.070714
O13	O	1.582790	-0.523914	-0.271303
O14	O	2.082790	-0.023914	0.228697
O15	O	1.453903	-0.248996	-0.441673
O16	O	1.953903	0.251004	0.058327
O17	O	1.753159	-0.523866	-0.441638
O18	O	2.253159	-0.023866	0.058362
O19	O	1.582989	-0.248960	-0.570734
O20	O	2.082989	0.251040	-0.070734
O21	O	1.453790	-0.405426	-0.271318
O22	O	1.953790	0.094574	0.228682
O23	O	1.283516	-0.405363	-0.441627
O24	O	1.783516	0.094637	0.058373
O25	O	1.453871	-0.523754	-0.740987
O26	O	1.953871	-0.023754	-0.240987
O27	O	1.283502	-0.523803	-0.570652
O28	O	1.783502	-0.023803	-0.070652
O29	O	1.582971	-0.405278	-0.741022
O30	O	2.082971	0.094722	-0.241022
O31	O	1.582772	-0.680233	-0.441592
O32	O	2.082772	-0.180233	0.058408
O33	O	1.453758	-0.680184	-0.570632
O34	O	1.953758	-0.180184	-0.070632
C35	C	1.245388	-0.464582	-0.506137
C36	C	1.745388	0.035418	-0.006137
C37	C	1.128612	-0.464600	-0.506153
C38	C	1.628612	0.035400	-0.006153
C39	C	1.073770	-0.526365	-0.573230
C40	C	1.573770	-0.026365	-0.073230
C41	C	0.964046	-0.526369	-0.573251
C42	C	1.464046	-0.026369	-0.073251
C43	C	0.964015	-0.402839	-0.439108
C44	C	1.464015	0.097161	0.060892
C45	C	1.073737	-0.402831	-0.439093
C46	C	1.573737	0.097169	0.060907
C47	C	1.518279	-0.715208	-0.506127
C48	C	2.018279	-0.215208	-0.006127
C49	C	1.518342	-0.822422	-0.506149
C50	C	2.018342	-0.322422	-0.006149
C51	C	1.518453	-1.018717	-0.506215
C52	C	2.018453	-0.518717	-0.006215
C53	C	1.518388	-0.909484	-0.506182
C54	C	2.018388	-0.409484	-0.006182
C55	C	1.792389	-0.464606	-0.506179
C56	C	2.292389	0.035394	-0.006179
C57	C	1.909166	-0.464611	-0.506188
C58	C	2.409166	0.035389	-0.006188
C59	C	1.518432	-0.464504	-0.780191
C60	C	2.018432	0.035496	-0.280191
C61	C	1.518465	-0.464465	-0.896968
C62	C	2.018465	0.035535	-0.396968
C63	C	1.518461	-0.213000	-0.506211
C64	C	2.018461	0.287000	-0.006211
C65	C	1.518506	-0.105786	-0.506234
C66	C	2.018506	0.394214	-0.006234
C67	C	1.585663	-0.526090	-1.061557
C68	C	2.085663	-0.026090	-0.561557
C69	C	1.585637	-0.526136	-0.951833
C70	C	2.085637	-0.026136	-0.451833
C71	C	1.451306	-0.402752	-0.951832
C72	C	1.951306	0.097248	-0.451832
C73	C	1.451327	-0.402712	-1.061554
C74	C	1.951327	0.097288	-0.561554
C75	C	1.518340	-0.464613	-0.233190
C76	C	2.018340	0.035387	0.266810
C77	C	1.518511	-0.464380	-0.116414
C78	C	2.018511	0.035620	0.383586
H79	H	0.919323	-0.352551	-0.384509
H80	H	1.419323	0.147449	0.115491
H81	H	1.118390	-0.352528	-0.384470
H82	H	1.618390	0.147472	0.115530
H83	H	1.640368	-0.576305	-1.106221
H84	H	2.140368	-0.076305	-0.606221
H85	H	1.118446	-0.576659	-0.627837
H86	H	1.618446	-0.076659	-0.127837
H87	H	1.640319	-0.576387	-0.907174
H88	H	2.140319	-0.076387	-0.407174
H89	H	1.396608	-0.352543	-0.907152
H90	H	1.896608	0.147457	-0.407152
H91	H	0.919399	-0.576663	-0.627874
H92	H	1.419399	-0.076663	-0.127874
H93	H	1.396639	-0.352458	-1.106220
H94	H	1.896639	0.147542	-0.606220
