data_functionalizedCrystal
_audit_creation_method	'MofGen! by Chris Wilmer'
_symmetry_space_group_name_H-M	'P1'
_symmetry_Int_Tables_number	1
_symmetry_cell_setting	triclinic
loop_
_symmetry_equiv_pos_as_xyz
  x,y,z
_cell_length_a	19.077068
_cell_length_b	21.395364
_cell_length_c	21.395355
_cell_angle_alpha	89.975448
_cell_angle_beta	92.279051
_cell_angle_gamma	92.341988
loop_
_atom_site_label
_atom_site_type_symbol
_atom_site_fract_x
_atom_site_fract_y
_atom_site_fract_z
Zn1	Zn	-0.280007	0.947860	-0.364266
Zn2	Zn	0.219993	1.447860	0.135734
Zn3	Zn	-0.397689	0.943560	-0.263693
Zn4	Zn	0.102311	1.443560	0.236307
Zn5	Zn	-0.280038	0.843074	-0.259504
Zn6	Zn	0.219962	1.343074	0.240496
Zn7	Zn	-0.397702	0.838841	-0.368434
Zn8	Zn	0.102298	1.338841	0.131566
O9	O	-0.338859	0.893333	-0.313974
O10	O	0.161141	1.393333	0.186026
O11	O	-0.295600	1.034968	-0.350934
O12	O	0.204400	1.534968	0.149066
O13	O	-0.382090	0.930202	-0.175460
O14	O	0.117910	1.430202	0.324540
O15	O	-0.181541	0.860545	-0.269903
O16	O	0.318459	1.360545	0.230097
O17	O	-0.382060	1.031809	-0.277044
O18	O	0.117940	1.531809	0.222956
O19	O	-0.181518	0.937531	-0.346872
O20	O	0.318482	1.437531	0.153128
O21	O	-0.295652	0.856375	-0.172382
O22	O	0.204348	1.356375	0.327618
O23	O	-0.295665	0.754834	-0.273945
O24	O	0.204335	1.254834	0.226055
O25	O	-0.382082	0.853331	-0.455559
O26	O	0.117918	1.353331	0.044441
O27	O	-0.382112	0.751724	-0.353975
O28	O	0.117888	1.251724	0.146025
O29	O	-0.295612	0.933426	-0.452497
O30	O	0.204388	1.433426	0.047503
O31	O	-0.496184	0.926097	-0.281085
O32	O	0.003816	1.426097	0.218915
O33	O	-0.496193	0.849161	-0.358038
O34	O	0.003807	1.349161	0.141962
C35	C	-0.338893	0.730545	-0.313958
C36	C	0.161107	1.230545	0.186042
C37	C	-0.338925	0.660902	-0.313966
C38	C	0.161075	1.160902	0.186034
C39	C	-0.293979	0.629854	-0.352506
C40	C	0.206021	1.129854	0.147494
C41	C	-0.293960	0.564419	-0.352507
C42	C	0.206040	1.064419	0.147493
C43	C	-0.338900	0.530035	-0.313977
C44	C	0.161100	1.030035	0.186023
C45	C	-0.383849	0.561091	-0.275430
C46	C	0.116151	1.061091	0.224570
C47	C	-0.383862	0.626525	-0.275425
C48	C	0.116138	1.126525	0.224575
C49	C	-0.402285	0.424047	-0.311204
C50	C	0.097715	0.924047	0.188796
C51	C	-0.402273	0.358614	-0.311214
C52	C	0.097727	0.858614	0.188786
C53	C	-0.338861	0.328215	-0.313990
C54	C	0.161139	0.828215	0.186010
C55	C	-0.275458	0.363257	-0.316769
C56	C	0.224542	0.863257	0.183231
C57	C	-0.275471	0.428691	-0.316763
C58	C	0.224529	0.928691	0.183237
C59	C	-0.338891	0.459083	-0.313978
C60	C	0.161109	0.959083	0.186022
C61	C	-0.293891	0.226215	-0.352533
C62	C	0.206109	0.726215	0.147467
C63	C	-0.293871	0.160780	-0.352530
C64	C	0.206129	0.660780	0.147470
C65	C	-0.383767	0.157452	-0.275456
C66	C	0.116233	0.657452	0.224544
C67	C	-0.383780	0.222887	-0.275455
C68	C	0.116220	0.722887	0.224545
C69	C	-0.338843	0.257265	-0.313997
C70	C	0.161157	0.757265	0.186003
C71	C	-0.521726	0.886720	-0.320482
C72	C	-0.021726	1.386720	0.179518
C73	C	-0.599958	0.883948	-0.323287
C74	C	-0.099958	1.383948	0.176713
C75	C	-0.636683	0.922734	-0.284573
C76	C	-0.136683	1.422734	0.215427
C77	C	-0.710190	0.920131	-0.287215
C78	C	-0.210190	1.420131	0.212785
C79	C	-0.746970	0.878738	-0.328568
C80	C	-0.246970	1.378738	0.171432
C81	C	-0.710240	0.839951	-0.367286
C82	C	-0.210240	1.339951	0.132714
C83	C	-0.636734	0.842558	-0.364647
C84	C	-0.136734	1.342558	0.135353
C85	C	-0.966810	0.866646	-0.340756
C86	C	-0.466810	1.366646	0.159244
C87	C	-1.040321	0.864040	-0.343391
C88	C	-0.540321	1.364040	0.156609
C89	C	-1.040266	0.944221	-0.263320
C90	C	-0.540266	1.444221	0.236680
C91	C	-0.966759	0.946822	-0.260682
C92	C	-0.466759	1.446822	0.239318
C93	C	-0.930035	0.908037	-0.299403
C94	C	-0.430035	1.408037	0.200597
N95	N	-0.822106	0.876075	-0.331268
N96	N	-0.322106	1.376075	0.168732
N97	N	-0.854901	0.910704	-0.296705
N98	N	-0.354901	1.410704	0.203295
C99	C	-0.155278	0.899990	-0.307455
C100	C	0.344722	1.399990	0.192545
C101	C	-0.077046	0.902826	-0.304677
C102	C	0.422954	1.402826	0.195323
C103	C	-0.338845	0.893386	-0.477397
C104	C	0.161155	1.393386	0.022603
C105	C	-0.338839	0.893408	-0.547038
C106	C	0.161161	1.393408	-0.047038
C107	C	-0.338825	1.056758	-0.313991
C108	C	0.161175	1.556758	0.186009
C109	C	-0.338811	1.126400	-0.313998
C110	C	0.161189	1.626400	0.186002
C111	C	-0.293812	0.935113	-0.578158
C112	C	0.206188	1.435113	-0.078158
C113	C	-0.293782	0.935113	-0.643592
C114	C	0.206218	1.435113	-0.143592
C115	C	-0.338791	0.893415	-0.677905
C116	C	0.161209	1.393415	-0.177905
C117	C	-0.383821	0.851703	-0.646778
C118	C	0.116179	1.351703	-0.146778
C119	C	-0.383844	0.851700	-0.581344
C120	C	0.116156	1.351700	-0.081344
C121	C	-0.402166	0.886176	-0.783835
C122	C	0.097834	1.386176	-0.283835
C123	C	-0.402143	0.886183	-0.849267
C124	C	0.097857	1.386183	-0.349267
C125	C	-0.338716	0.893422	-0.879723
C126	C	0.161284	1.393422	-0.379723
C127	C	-0.275310	0.900665	-0.844739
C128	C	0.224690	1.400665	-0.344739
C129	C	-0.275334	0.900662	-0.779306
C130	C	0.224666	1.400662	-0.279306
C131	C	-0.338769	0.893414	-0.748857
C132	C	0.161231	1.393414	-0.248857
C133	C	-0.293653	0.935128	-0.981794
C134	C	0.206347	1.435128	-0.481794
C135	C	-0.293622	0.935124	-1.047230
C136	C	0.206378	1.435124	-0.547230
C137	C	-0.383667	0.851717	-1.050414
C138	C	0.116333	1.351717	-0.550414
C139	C	-0.383692	0.851718	-0.984979
C140	C	0.116308	1.351718	-0.484979
C141	C	-0.338686	0.893427	-0.950673
C142	C	0.161314	1.393427	-0.450673
C143	C	-0.338822	0.893319	-0.151186
C144	C	0.161178	1.393319	0.348814
C145	C	-0.338630	0.893425	-0.081538
C146	C	0.161370	1.393425	0.418462
H147	H	-0.257266	0.135501	-0.383912
H148	H	0.242734	0.635501	0.116088
H149	H	-0.256951	0.969084	-1.072566
H150	H	0.243049	1.469084	-0.572566
Br151	Br	-0.444743	0.795118	-1.096974
Br152	Br	0.055257	1.295118	-0.596974
Br153	Br	-0.189429	0.476246	-0.320533
Br154	Br	0.310571	0.976246	0.179467
Br155	Br	-0.444804	0.795118	-0.942742
Br156	Br	0.055196	1.295118	-0.442742
Br157	Br	-0.916848	1.003008	-0.204566
Br158	Br	-0.416848	1.503008	0.295434
Br159	Br	-1.090109	0.996858	-0.210777
Br160	Br	-0.590109	1.496858	0.289223
Br161	Br	-0.444956	0.795096	-0.539107
Br162	Br	0.055044	1.295096	-0.039107
Br163	Br	-0.232903	0.272875	-0.404834
Br164	Br	0.267097	0.772875	0.095166
Br165	Br	-0.488194	0.876362	-0.896739
Br166	Br	0.011806	1.376362	-0.396739
H167	H	-1.070265	0.830341	-0.377077
H168	H	-0.570265	1.330341	0.122923
Br169	Br	-0.760155	0.783780	-0.423414
Br170	Br	-0.260155	1.283780	0.076586
Br171	Br	-0.916980	0.814009	-0.393306
Br172	Br	-0.416980	1.314009	0.106694
H173	H	-0.606833	0.810975	-0.396173
H174	H	-0.106833	1.310975	0.103827
H175	H	-0.257164	0.969074	-0.550230
H176	H	0.242836	1.469074	-0.050230
Br177	Br	-0.444751	0.110795	-0.223157
Br178	Br	0.055249	0.610795	0.276843
H179	H	-0.740088	0.951714	-0.255689
H180	H	-0.240088	1.451714	0.244311
Br181	Br	-0.232652	0.991700	-0.685835
Br182	Br	0.267348	1.491700	-0.185835
H183	H	-0.223662	0.906560	-0.869535
H184	H	0.276338	1.406560	-0.369535
H185	H	-0.453803	0.880115	-0.759043
H186	H	0.046197	1.380115	-0.259043
H187	H	-0.420383	0.248167	-0.244075
H188	H	0.079617	0.748167	0.255925
Br189	Br	-0.189288	0.910489	-0.731829
Br190	Br	0.310712	1.410489	-0.231829
Br191	Br	-0.444862	0.668665	-0.223114
Br192	Br	0.055138	1.168665	0.276886
H193	H	-0.257356	0.539135	-0.383890
H194	H	0.242644	1.039135	0.116110
Br195	Br	-0.586774	0.978907	-0.228442
Br196	Br	-0.086774	1.478907	0.271558
Br197	Br	-0.444900	0.795108	-0.693343
Br198	Br	0.055100	1.295108	-0.193343
Br199	Br	-0.232993	0.676506	-0.404812
Br200	Br	0.267007	1.176506	0.095188
Br201	Br	-0.189393	0.322011	-0.320537
Br202	Br	0.310607	0.822011	0.179463
H203	H	-0.453900	0.330088	-0.308954
H204	H	0.046100	0.830088	0.191046
Br205	Br	-0.444835	0.514429	-0.223133
Br206	Br	0.055165	1.014429	0.276867
Br207	Br	-0.488351	0.465296	-0.307425
Br208	Br	0.011649	0.965296	0.192575
Br209	Br	-0.232573	0.991729	-0.935232
Br210	Br	0.267427	1.491729	-0.435232
