data_functionalizedCrystal
_audit_creation_method	'MofGen! by Chris Wilmer'
_symmetry_space_group_name_H-M	'P1'
_symmetry_Int_Tables_number	1
_symmetry_cell_setting	triclinic
loop_
_symmetry_equiv_pos_as_xyz
  x,y,z
_cell_length_a	12.759401
_cell_length_b	18.101395
_cell_length_c	18.101390
_cell_angle_alpha	89.968753
_cell_angle_beta	89.984355
_cell_angle_gamma	90.032629
loop_
_atom_site_label
_atom_site_type_symbol
_atom_site_fract_x
_atom_site_fract_y
_atom_site_fract_z
Zn1	Zn	1.606092	-0.294772	-0.418706
Zn2	Zn	1.605949	-0.418629	-0.294868
Zn3	Zn	1.430407	-0.294809	-0.294883
Zn4	Zn	1.430332	-0.418579	-0.418672
O5	O	1.518195	-0.356697	-0.356782
O6	O	1.753094	-0.311207	-0.402287
O7	O	1.582634	-0.402240	-0.191237
O8	O	1.453803	-0.191171	-0.311328
O9	O	1.752989	-0.402204	-0.311303
O10	O	1.582878	-0.191144	-0.402301
O11	O	1.453664	-0.311270	-0.191248
O12	O	1.283376	-0.311222	-0.311295
O13	O	1.453676	-0.402120	-0.522309
O14	O	1.283321	-0.402156	-0.402243
O15	O	1.582805	-0.311159	-0.522334
O16	O	1.582562	-0.522255	-0.311270
O17	O	1.453537	-0.522219	-0.402229
C18	C	1.245227	-0.356688	-0.356767
C19	C	1.128451	-0.356702	-0.356779
C20	C	1.073588	-0.404123	-0.404060
C21	C	0.963864	-0.404126	-0.404075
C22	C	0.963875	-0.309284	-0.309520
C23	C	1.073597	-0.309278	-0.309509
C24	C	0.813945	-0.430701	-0.491382
C25	C	0.759079	-0.478134	-0.538657
C26	C	0.794646	-0.550406	-0.549896
C27	C	0.885078	-0.575261	-0.513849
C28	C	0.939939	-0.527832	-0.466568
C29	C	0.904373	-0.455549	-0.455343
C30	C	1.223518	-0.282711	-0.222202
C31	C	1.278381	-0.235286	-0.174917
C32	C	1.242816	-0.163012	-0.163670
C33	C	1.152381	-0.138160	-0.199704
C34	C	1.097518	-0.185585	-0.246989
C35	C	1.133090	-0.257859	-0.258237
C36	C	1.518054	-0.549108	-0.356760
C37	C	1.518090	-0.631422	-0.356776
C38	C	1.518321	-0.930513	-0.356816
C39	C	1.437330	-0.899196	-0.414186
C40	C	1.436945	-0.813578	-0.414007
C41	C	1.518206	-0.782130	-0.356796
C42	C	1.488234	-0.813288	-0.278748
C43	C	1.487712	-0.898933	-0.279091
C44	C	1.629461	-0.898853	-0.376807
C45	C	1.628808	-0.813202	-0.378519
C46	C	1.518144	-0.698271	-0.356781
C47	C	1.518381	-1.014372	-0.356826
C48	C	1.792228	-0.356707	-0.356797
C49	C	1.909005	-0.356711	-0.356804
C50	C	1.518248	-0.356630	-0.549944
C51	C	1.518271	-0.356601	-0.632258
C52	C	1.518365	-0.163535	-0.356820
C53	C	1.518437	-0.081221	-0.356836
C54	C	1.518308	-0.356578	-0.782967
C55	C	1.599556	-0.299343	-0.814336
C56	C	1.599896	-0.299498	-0.899955
C57	C	1.518346	-0.356554	-0.931349
C58	C	1.547961	-0.434665	-0.900240
C59	C	1.548529	-0.434348	-0.814595
C60	C	1.407248	-0.336380	-0.814526
C61	C	1.407865	-0.334644	-0.900177
C62	C	1.518365	-0.356545	-1.015209
C63	C	1.518292	-0.356592	-0.699107
C64	C	1.518202	-0.356711	-0.164372
C65	C	1.518383	-0.356531	-0.082058
H66	H	1.123411	-0.079313	-0.190535
H67	H	1.544143	-0.919652	-0.234888
H68	H	1.681384	-0.312570	-0.792821
H69	H	1.581276	-0.241256	-0.793763
C70	C	1.379638	-0.784413	-0.255457
C71	C	1.367967	-0.738120	-0.184585
C72	C	1.259368	-0.709247	-0.161299
C73	C	1.162441	-0.726666	-0.208887
C74	C	1.174108	-0.772961	-0.279764
C75	C	1.282707	-0.801835	-0.303049
H76	H	1.439721	-0.725223	-0.149354
H77	H	1.250731	-0.674976	-0.108831
H78	H	1.082049	-0.705292	-0.191650
H79	H	1.102354	-0.785858	-0.314995
H80	H	1.291344	-0.836105	-0.355518
H81	H	1.490607	-0.478468	-0.920573
H82	H	1.581393	-0.241589	-0.920990
C83	C	0.774825	-0.351195	-0.479026
C84	C	0.675352	-0.323865	-0.518668
C85	C	0.636226	-0.244358	-0.506310
C86	C	0.696573	-0.192182	-0.454311
C87	C	0.796052	-0.219511	-0.414666
C88	C	0.835178	-0.299018	-0.427023
H89	H	0.630674	-0.362490	-0.557163
H90	H	0.562585	-0.224128	-0.535659
H91	H	0.667609	-0.133327	-0.445164
H92	H	0.840729	-0.180887	-0.376170
H93	H	0.908819	-0.319248	-0.397675
H94	H	1.380191	-0.280401	-0.792932
C95	C	1.325659	-0.785985	-0.396109
C96	C	1.306661	-0.737455	-0.327561
C97	C	1.195370	-0.709864	-0.309659
C98	C	1.103076	-0.730805	-0.360305
C99	C	1.122070	-0.779338	-0.428858
C100	C	1.233362	-0.806929	-0.446760
H101	H	1.374985	-0.721951	-0.290065
H102	H	1.181309	-0.673937	-0.258911
H103	H	1.020691	-0.710381	-0.347053
H104	H	1.053747	-0.794842	-0.466354
H105	H	1.247422	-0.842856	-0.497508
H106	H	1.287491	-0.124401	-0.125160
H107	H	0.749966	-0.589026	-0.588390
H108	H	1.455697	-0.792509	-0.471879
C109	C	1.659360	-0.785690	-0.456114
C110	C	1.759108	-0.738939	-0.466733
C111	C	1.789658	-0.711427	-0.544329
C112	C	1.720460	-0.730664	-0.611307
C113	C	1.620706	-0.777418	-0.600690
C114	C	1.590155	-0.804930	-0.523094
H115	H	1.810338	-0.724696	-0.417150
H116	H	1.863503	-0.676817	-0.552188
H117	H	1.743076	-0.710298	-0.668748
H118	H	1.569476	-0.791661	-0.650273
H119	H	1.516310	-0.839540	-0.515235
C120	C	1.565410	-0.785772	-0.219421
C121	C	1.656765	-0.734569	-0.241208
C122	C	1.733942	-0.707053	-0.181882
C123	C	1.719764	-0.730739	-0.100770
C124	C	1.628405	-0.781945	-0.078979
C125	C	1.551228	-0.809461	-0.138304
H126	H	1.667264	-0.717033	-0.301255
H127	H	1.801572	-0.669147	-0.198013
H128	H	1.776895	-0.710370	-0.056853
H129	H	1.617906	-0.799481	-0.018931
H130	H	1.483598	-0.847367	-0.122173
C131	C	1.666382	-0.927951	-0.452384
C132	C	1.596075	-0.980843	-0.496914
C133	C	1.632983	-1.009942	-0.572493
C134	C	1.740197	-0.986150	-0.603542
C135	C	1.810511	-0.933256	-0.559011
C136	C	1.773603	-0.904156	-0.483431
H137	H	1.516703	-0.998458	-0.473931
H138	H	1.580931	-1.049099	-0.605458
H139	H	1.767518	-1.007691	-0.659490
H140	H	1.889883	-0.915641	-0.581994
H141	H	1.825655	-0.865000	-0.450467
C142	C	1.326715	-0.928359	-0.396525
C143	C	1.275961	-0.911307	-0.321252
C144	C	1.165349	-0.940474	-0.303588
C145	C	1.105490	-0.986693	-0.361197
C146	C	1.156243	-1.003747	-0.436476
C147	C	1.266856	-0.974580	-0.454140
H148	H	1.320273	-0.877091	-0.278601
H149	H	1.127779	-0.927850	-0.247861
H150	H	1.023608	-1.008284	-0.348121
H151	H	1.111932	-1.037963	-0.479126
H152	H	1.304426	-0.987205	-0.509866
H153	H	1.692342	-0.791791	-0.339778
C154	C	1.377958	-0.926019	-0.256219
C155	C	1.333024	-0.904988	-0.180123
C156	C	1.223267	-0.932070	-0.157253
C157	C	1.158443	-0.980182	-0.210479
C158	C	1.203376	-1.001215	-0.286580
C159	C	1.313134	-0.974134	-0.309450
H160	H	1.381011	-0.869370	-0.140717
H161	H	1.190005	-0.916499	-0.100917
H162	H	1.077194	-1.000229	-0.193549
H163	H	1.155389	-1.036833	-0.325986
H164	H	1.346396	-0.989705	-0.365786
H165	H	1.682201	-0.312881	-0.920449
H166	H	1.689802	-0.919105	-0.335022
C167	C	1.039412	-0.555161	-0.426922
C168	C	1.099766	-0.502988	-0.374923
C169	C	1.199247	-0.530317	-0.335282
C170	C	1.238374	-0.609819	-0.347640
C171	C	1.178020	-0.661997	-0.399641
C172	C	1.078539	-0.634668	-0.439281
H173	H	1.070802	-0.444131	-0.365773
H174	H	1.243925	-0.491691	-0.296788
H175	H	1.312016	-0.630049	-0.318295
H176	H	1.206984	-0.720853	-0.408791
H177	H	1.033861	-0.673294	-0.477776
H178	H	1.346718	-0.378064	-0.794236
H179	H	1.629702	-0.451432	-0.794624
H180	H	1.491880	-0.478445	-0.793841
H181	H	1.628237	-0.452049	-0.921712
H182	H	0.919200	-0.270675	-0.271034
H183	H	1.385523	-0.277161	-0.920513
C184	C	0.998040	-0.158250	-0.286634
C185	C	0.903175	-0.131671	-0.241271
C186	C	0.803699	-0.104338	-0.280915
C187	C	0.799087	-0.103583	-0.365922
C188	C	0.893956	-0.130164	-0.411289
C189	C	0.993432	-0.157497	-0.371645
H190	H	0.906585	-0.132229	-0.178340
H191	H	0.733471	-0.084661	-0.247330
H192	H	0.725449	-0.083350	-0.395268
H193	H	0.890545	-0.129606	-0.474220
H194	H	1.063659	-0.177173	-0.405230
H195	H	1.352018	-0.255527	-0.145576
C196	C	1.321762	-0.386817	-0.929040
C197	C	1.350393	-0.450514	-0.981652
C198	C	1.264293	-0.502694	-1.010514
C199	C	1.149563	-0.491175	-0.986763
C200	C	1.120927	-0.427474	-0.934148
C201	C	1.207026	-0.375295	-0.905286
H202	H	1.435328	-0.459044	-0.999236
H203	H	1.285493	-0.549849	-1.049463
H204	H	1.085827	-0.529801	-1.008129
H205	H	1.035992	-0.418944	-0.916564
H206	H	1.185827	-0.328139	-0.866337
H207	H	1.118246	-0.442737	-0.442552
H208	H	0.914022	-0.634116	-0.522997
H209	H	1.252490	-0.341561	-0.231362
H210	H	0.685449	-0.457890	-0.568007
H211	H	1.455896	-0.919739	-0.472246
