data_functionalizedCrystal
_audit_creation_method	'MofGen! by Chris Wilmer'
_symmetry_space_group_name_H-M	'P1'
_symmetry_Int_Tables_number	1
_symmetry_cell_setting	triclinic
loop_
_symmetry_equiv_pos_as_xyz
  x,y,z
_cell_length_a	12.645331
_cell_length_b	12.645330
_cell_length_c	12.645323
_cell_angle_alpha	90.025945
_cell_angle_beta	89.978207
_cell_angle_gamma	89.974834
loop_
_atom_site_label
_atom_site_type_symbol
_atom_site_fract_x
_atom_site_fract_y
_atom_site_fract_z
Zn1	Zn	1.620659	0.422039	-0.599453
Zn2	Zn	2.120659	0.922039	-0.099453
Zn3	Zn	1.620518	0.599333	-0.422196
Zn4	Zn	2.120518	1.099333	0.077804
Zn5	Zn	1.443377	0.422081	-0.422197
Zn6	Zn	1.943377	0.922081	0.077803
Zn7	Zn	1.443330	0.599258	-0.599411
Zn8	Zn	1.943330	1.099258	-0.099411
O9	O	1.531971	0.510678	-0.510814
O10	O	2.031971	1.010678	-0.010814
O11	O	1.768988	0.445572	-0.575956
O12	O	2.268988	0.945572	-0.075956
O13	O	1.596980	0.575869	-0.273849
O14	O	2.096980	1.075869	0.226151
O15	O	1.466973	0.273728	-0.445729
O16	O	1.966973	0.773728	0.054271
O17	O	1.768884	0.575829	-0.445726
O18	O	2.268884	1.075829	0.054274
O19	O	1.597222	0.273697	-0.575958
O20	O	2.097222	0.773697	-0.075958
O21	O	1.466835	0.445643	-0.273850
O22	O	1.966835	0.945643	0.226150
O23	O	1.295023	0.445570	-0.445688
O24	O	1.795023	0.945570	0.054312
O25	O	1.466892	0.575700	-0.747764
O26	O	1.966892	1.075700	-0.247764
O27	O	1.294989	0.575741	-0.575886
O28	O	1.794989	1.075741	-0.075886
O29	O	1.597176	0.445499	-0.747795
O30	O	2.097176	0.945499	-0.247795
O31	O	1.596934	0.747671	-0.445686
O32	O	2.096934	1.247671	0.054314
O33	O	1.466755	0.747615	-0.575885
O34	O	1.966755	1.247615	-0.075885
C35	C	1.256541	0.510653	-0.510784
C36	C	1.756541	1.010653	-0.010784
C37	C	1.138711	0.510667	-0.510796
C38	C	1.638711	1.010667	-0.010796
C39	C	1.531853	0.786108	-0.510804
C40	C	2.031853	1.286108	-0.010804
C41	C	1.531899	0.903938	-0.510835
C42	C	2.031899	1.403938	-0.010835
C43	C	1.532045	0.510586	-0.787320
C44	C	2.032045	1.010586	-0.287320
C45	C	1.532076	0.510547	-0.905150
C46	C	2.032076	1.010547	-0.405150
C47	C	0.971134	0.428400	-0.429340
C48	C	1.471134	0.928400	0.070660
C49	C	1.093693	0.428613	-0.428981
C50	C	1.593693	0.928613	0.071019
C51	C	1.094175	0.622343	-0.480283
C52	C	1.594175	1.122343	0.019717
C53	C	0.971576	0.621893	-0.479727
C54	C	1.471576	1.121893	0.020273
C55	C	0.971564	0.482323	-0.623079
C56	C	1.471564	0.982323	-0.123079
C57	C	1.094170	0.479828	-0.622455
C58	C	1.594170	0.979828	-0.122455
C59	C	1.808476	0.510704	-0.510846
C60	C	2.308476	1.010704	-0.010846
C61	C	1.926306	0.510715	-0.510859
C62	C	2.426306	1.010715	-0.010859
C63	C	1.450316	1.071511	-0.592998
C64	C	1.950316	1.571511	-0.092998
C65	C	1.449917	0.948952	-0.592732
C66	C	1.949917	1.448952	-0.092732
C67	C	1.501649	0.948535	-0.399113
C68	C	2.001649	1.448535	0.100887
C69	C	1.501133	1.071133	-0.399614
C70	C	2.001133	1.571133	0.100386
C71	C	1.644175	1.071028	-0.539492
C72	C	2.144175	1.571028	-0.039492
C73	C	1.643505	0.948421	-0.541933
C74	C	2.143505	1.448421	-0.041933
C75	C	1.532081	1.234173	-0.510852
C76	C	2.032081	1.734173	-0.010852
C77	C	1.532033	1.116343	-0.510878
C78	C	2.032033	1.616343	-0.010878
C79	C	1.450120	0.592441	-0.950012
C80	C	1.950120	1.092441	-0.450012
C81	C	1.449831	0.592133	-1.072572
C82	C	1.949831	1.092133	-0.572572
C83	C	1.502223	0.398649	-1.073050
C84	C	2.002223	0.898649	-0.573050
C85	C	1.501596	0.399189	-0.950452
C86	C	2.001596	0.899189	-0.450452
C87	C	1.644160	0.539437	-0.950341
C88	C	2.144160	1.039437	-0.450341
C89	C	1.643592	0.541835	-1.072947
C90	C	2.143592	1.041835	-0.572947
C91	C	1.531958	0.510693	-0.235384
C92	C	2.031958	1.010693	0.264616
C93	C	1.532132	0.510433	-0.117555
C94	C	2.032132	1.010433	0.382445
H95	H	1.123806	0.345802	-0.448106
H96	H	1.623806	0.845802	0.051894
F97	F	0.933674	0.560686	-0.702470
F98	F	1.433674	1.060686	-0.202470
H99	H	1.366790	0.919716	-0.573774
H100	H	1.866790	1.419716	-0.073774
H101	H	1.468554	0.675612	-0.920537
H102	H	1.968554	1.175612	-0.420537
F103	F	1.723971	0.461481	-0.912415
F104	F	2.223971	0.961481	-0.412415
H105	H	1.707908	0.486539	-1.103572
H106	H	2.207908	0.986539	-0.603572
F107	F	1.679820	0.644221	-0.909940
F108	F	2.179820	1.144221	-0.409940
H109	H	0.941681	0.345340	-0.448259
H110	H	1.441681	0.845340	0.051741
H111	H	1.419678	0.374744	-0.921853
H112	H	1.919678	0.874744	-0.421853
F113	F	1.342332	1.111918	-0.568555
F114	F	1.842332	1.611918	-0.068555
F115	F	1.342178	0.567712	-0.909748
F116	F	1.842178	1.067712	-0.409748
F117	F	1.393985	1.108638	-0.367931
F118	F	1.893985	1.608638	0.132069
F119	F	1.575543	1.109905	-0.316907
F120	F	2.075543	1.609905	0.183093
F121	F	1.396348	0.366102	-1.113175
F122	F	1.896348	0.866102	-0.613175
H123	H	1.559290	0.919380	-0.336254
H124	H	2.059290	1.419380	0.163746
F125	F	1.576255	0.316689	-0.911656
F126	F	2.076255	0.816689	-0.411656
F127	F	1.131965	0.453137	-0.320284
F128	F	1.631965	0.953137	0.179716
H129	H	1.705057	1.100019	-0.479681
H130	H	2.205057	1.600019	0.020319
H131	H	0.940284	0.446958	-0.346669
H132	H	1.440284	0.946958	0.153331
H133	H	0.942928	0.645971	-0.397688
H134	H	1.442928	1.145971	0.102312
F135	F	1.395627	0.908529	-0.366855
F136	F	1.895627	1.408529	0.133145
H137	H	1.468844	0.918795	-0.675573
H138	H	1.968844	1.418795	-0.175573
F139	F	1.673325	0.910318	-0.649402
F140	F	2.173325	1.410318	-0.149402
H141	H	1.707604	0.917774	-0.486476
H142	H	2.207604	1.417774	0.013524
H143	H	1.123286	0.397648	-0.645464
H144	H	1.623286	0.897648	-0.145464
H145	H	1.468502	0.675012	-1.102664
H146	H	1.968502	1.175012	-0.602664
H147	H	1.560105	0.335930	-1.102186
H148	H	2.060105	0.835930	-0.602186
H149	H	0.941921	0.685301	-0.536513
H150	H	1.441921	1.185301	-0.036513
F151	F	1.673082	0.649366	-1.110966
F152	F	2.173082	1.149366	-0.610966
H153	H	1.123334	0.685313	-0.537794
H154	H	1.623334	1.185313	-0.037794
H155	H	1.124828	0.646833	-0.399125
H156	H	1.624828	1.146833	0.100875
H157	H	1.124819	0.535408	-0.686442
H158	H	1.624819	1.035408	-0.186442
F159	F	0.931199	0.377739	-0.659351
F160	F	1.431199	0.877739	-0.159351
H161	H	1.469060	1.100920	-0.676112
H162	H	1.969060	1.600920	-0.176112
F163	F	1.680230	1.111339	-0.644167
F164	F	2.180230	1.611339	-0.144167
F165	F	1.341289	0.567091	-1.110908
F166	F	1.841289	1.067091	-0.610908
