data_functionalizedCrystal
_audit_creation_method	'MofGen! by Chris Wilmer'
_symmetry_space_group_name_H-M	'P1'
_symmetry_Int_Tables_number	1
_symmetry_cell_setting	triclinic
loop_
_symmetry_equiv_pos_as_xyz
  x,y,z
_cell_length_a	14.519731
_cell_length_b	14.519731
_cell_length_c	9.130313
_cell_angle_alpha	90.005202
_cell_angle_beta	90.002047
_cell_angle_gamma	83.688853
loop_
_atom_site_label
_atom_site_type_symbol
_atom_site_fract_x
_atom_site_fract_y
_atom_site_fract_z
O1	O	1.223861	0.120983	0.121806
O2	O	1.723861	0.620983	0.621806
O3	O	0.955388	0.135199	0.121808
O4	O	1.455388	0.635199	0.621808
O5	O	1.096733	-0.006145	0.121794
O6	O	1.596733	0.493855	0.621794
O7	O	1.082517	0.262328	0.121821
O8	O	1.582517	0.762328	0.621821
O9	O	1.096727	-0.006149	-0.121805
O10	O	1.596727	0.493851	0.378195
O11	O	0.955383	0.135195	-0.121790
O12	O	1.455383	0.635195	0.378210
O13	O	1.223856	0.120980	-0.121793
O14	O	1.723856	0.620980	0.378207
Cu15	Cu	1.089619	0.128087	-0.144034
Cu16	Cu	1.589619	0.628087	0.355966
Cu17	Cu	1.089625	0.128092	0.144050
Cu18	Cu	1.589625	0.628092	0.644050
O19	O	1.082511	0.262324	-0.121778
O20	O	1.582511	0.762324	0.378222
C21	C	0.921026	0.134531	0.000009
C22	C	1.421026	0.634531	0.500009
C23	C	0.818645	0.132535	0.000010
C24	C	1.318645	0.632535	0.500010
C25	C	0.735501	0.130913	0.000016
C26	C	1.235501	0.630913	0.500016
C27	C	0.631192	0.128887	0.000016
C28	C	1.131192	0.628887	0.500016
C29	C	0.548053	0.127278	0.000016
C30	C	1.048053	0.627278	0.500016
C31	C	0.443738	0.125252	0.000019
C32	C	0.943738	0.625252	0.500019
C33	C	1.096064	-0.040507	-0.000006
C34	C	1.596064	0.459493	0.499994
C35	C	1.094068	-0.142887	-0.000007
C36	C	1.594068	0.357113	0.499993
C37	C	1.092446	-0.226031	-0.000003
C38	C	1.592446	0.273969	0.499997
C39	C	1.090419	-0.330340	0.000008
C40	C	1.590419	0.169660	0.500008
C41	C	1.088811	-0.413479	0.000017
C42	C	1.588811	0.086521	0.500017
C43	C	1.086785	-0.517795	0.000026
C44	C	1.586785	-0.017795	0.500026
C45	C	1.258218	0.121648	0.000009
C46	C	1.758218	0.621648	0.500009
C47	C	1.360598	0.123644	0.000018
C48	C	1.860598	0.623644	0.500018
C49	C	1.083180	0.296685	0.000025
C50	C	1.583180	0.796685	0.500025
C51	C	1.085176	0.399066	0.000035
C52	C	1.585176	0.899066	0.500035
N53	N	1.089621	0.128083	-0.346657
N54	N	1.589621	0.628083	0.153343
C55	C	1.033604	0.072018	-0.423338
C56	C	1.533604	0.572018	0.076662
C57	C	1.033606	0.072023	-0.576675
C58	C	1.533606	0.572023	-0.076675
C59	C	1.145650	0.184159	-0.576636
C60	C	1.645650	0.684159	-0.076636
C61	C	1.145642	0.184159	-0.423302
C62	C	1.645642	0.684159	0.076698
C63	C	0.968919	0.007274	-0.423361
C64	C	1.468919	0.507274	0.076639
C65	C	0.968921	0.007279	-0.576698
C66	C	1.468921	0.507279	-0.076698
N67	N	1.089630	0.128088	0.346672
N68	N	1.589630	0.628088	0.846672
H69	H	1.191259	0.229815	-0.639059
H70	H	1.691259	0.729815	-0.139059
H71	H	0.998433	-0.062369	-0.375807
H72	H	1.498433	0.437631	0.124193
O73	O	0.996467	-0.079685	-0.626455
O74	O	1.496467	0.420315	-0.126455
C75	C	0.925374	-0.110940	-0.712246
C76	C	1.425374	0.389060	-0.212246
H77	H	0.856087	-0.071313	-0.680560
H78	H	1.356087	0.428687	-0.180560
H79	H	0.922765	-0.188138	-0.692537
H80	H	1.422765	0.311862	-0.192537
H81	H	0.939781	-0.098642	-0.833012
H82	H	1.439781	0.401358	-0.333012
O83	O	1.200137	0.238651	-0.349041
O84	O	1.700137	0.738651	0.150959
C85	C	1.249565	0.288159	-0.449575
C86	C	1.749565	0.788159	0.050425
H87	H	1.254893	0.249993	-0.558881
H88	H	1.754893	0.749993	-0.058881
H89	H	1.322085	0.294058	-0.405258
H90	H	1.822085	0.794058	0.094742
H91	H	1.211686	0.360457	-0.465879
H92	H	1.711686	0.860457	0.034121
O93	O	0.881972	0.035085	-0.373793
O94	O	1.381972	0.535085	0.126207
C95	C	0.853377	0.125220	-0.425409
C96	C	1.353377	0.625220	0.074591
H97	H	0.916880	0.161680	-0.452636
H98	H	1.416880	0.661680	0.047364
H99	H	0.810781	0.165969	-0.337274
H100	H	1.310781	0.665969	0.162726
H101	H	0.809346	0.120899	-0.528052
H102	H	1.309346	0.620899	-0.028052
O103	O	0.885752	0.042291	-0.633377
O104	O	1.385752	0.542291	-0.133377
C105	C	0.816436	-0.011551	-0.585544
C106	C	1.316436	0.488449	-0.085544
H107	H	0.849506	-0.083682	-0.554062
H108	H	1.349506	0.416318	-0.054062
H109	H	0.764308	-0.017409	-0.677534
H110	H	1.264308	0.482591	-0.177534
H111	H	0.779441	0.022900	-0.486361
H112	H	1.279441	0.522900	0.013639
