data_functionalizedCrystal
_audit_creation_method	'MofGen! by Chris Wilmer'
_symmetry_space_group_name_H-M	'P1'
_symmetry_Int_Tables_number	1
_symmetry_cell_setting	triclinic
loop_
_symmetry_equiv_pos_as_xyz
  x,y,z
_cell_length_a	19.077068
_cell_length_b	21.395364
_cell_length_c	19.077314
_cell_angle_alpha	87.719544
_cell_angle_beta	89.878373
_cell_angle_gamma	87.675407
loop_
_atom_site_label
_atom_site_type_symbol
_atom_site_fract_x
_atom_site_fract_y
_atom_site_fract_z
Zn1	Zn	-0.263857	-0.933785	-0.408560
Zn2	Zn	0.069477	-0.600452	-0.075226
Zn3	Zn	0.402810	-0.267119	0.258107
Zn4	Zn	-0.386085	-0.933368	-0.295767
Zn5	Zn	-0.052752	-0.600034	0.037567
Zn6	Zn	0.280581	-0.266701	0.370900
Zn7	Zn	-0.268590	-0.833045	-0.291065
Zn8	Zn	0.064744	-0.499711	0.042269
Zn9	Zn	0.398077	-0.166378	0.375602
Zn10	Zn	-0.381326	-0.824607	-0.413230
Zn11	Zn	-0.047992	-0.491274	-0.079897
Zn12	Zn	0.285341	-0.157940	0.253436
O13	O	-0.324964	-0.881201	-0.352155
O14	O	0.008369	-0.547868	-0.018822
O15	O	0.341702	-0.214535	0.314511
O16	O	-0.280082	-1.021407	-0.393611
O17	O	0.053251	-0.688074	-0.060277
O18	O	0.386585	-0.354740	0.273056
O19	O	-0.374472	-0.923416	-0.196812
O20	O	-0.041139	-0.590083	0.136522
O21	O	0.292195	-0.256749	0.469855
O22	O	-0.169628	-0.850114	-0.302728
O23	O	0.163705	-0.516781	0.030605
O24	O	0.497038	-0.183448	0.363939
O25	O	-0.369883	-1.021100	-0.310742
O26	O	-0.036549	-0.687767	0.022591
O27	O	0.296784	-0.354433	0.355925
O28	O	-0.166151	-0.924128	-0.389051
O29	O	0.167182	-0.590795	-0.055718
O30	O	0.500516	-0.257461	0.277615
O31	O	-0.288148	-0.849709	-0.193357
O32	O	0.045185	-0.516376	0.139976
O33	O	0.378518	-0.183042	0.473310
O34	O	-0.283533	-0.744248	-0.307257
O35	O	0.049800	-0.410915	0.026076
O36	O	0.383134	-0.077582	0.359410
O37	O	-0.361770	-0.835733	-0.510942
O38	O	-0.028437	-0.502400	-0.177609
O39	O	0.304896	-0.169067	0.155725
O40	O	-0.366360	-0.738049	-0.397012
O41	O	-0.033026	-0.404716	-0.063678
O42	O	0.300307	-0.071383	0.269655
O43	O	-0.275466	-0.915946	-0.507511
O44	O	0.057867	-0.582613	-0.174177
O45	O	0.391200	-0.249280	0.159156
O46	O	-0.483788	-0.915234	-0.315271
O47	O	-0.150454	-0.581901	0.018063
O48	O	0.182879	-0.248568	0.351396
O49	O	-0.480290	-0.835328	-0.401571
O50	O	-0.146957	-0.501995	-0.068238
O51	O	0.186376	-0.168662	0.265096
C52	C	-0.324944	-0.718415	-0.352131
C53	C	0.008389	-0.385082	-0.018798
C54	C	0.341723	-0.051749	0.314535
C55	C	-0.324951	-0.648773	-0.352139
C56	C	0.008382	-0.315440	-0.018805
C57	C	0.341715	0.017893	0.314528
C58	C	-0.368165	-0.143764	-0.398837
C59	C	-0.034831	0.189569	-0.065504
C60	C	0.298502	0.522903	0.267829
C61	C	-0.368166	-0.209200	-0.398831
C62	C	-0.034833	0.124134	-0.065498
C63	C	0.298500	0.457467	0.267835
C64	C	-0.324969	-0.245133	-0.352167
C65	C	0.008364	0.088200	-0.018834
C66	C	0.341698	0.421533	0.314500
C67	C	-0.281780	-0.215627	-0.305493
C68	C	0.051553	0.117707	0.027840
C69	C	0.384887	0.451040	0.361174
C70	C	-0.281785	-0.150192	-0.305496
C71	C	0.051548	0.183141	0.027838
C72	C	0.384882	0.516475	0.361171
C73	C	-0.261863	-0.351362	-0.344186
C74	C	0.071470	-0.018029	-0.010853
C75	C	0.404804	0.315305	0.322480
C76	C	-0.261857	-0.416795	-0.344188
C77	C	0.071477	-0.083462	-0.010855
C78	C	0.404810	0.249871	0.322478
C79	C	-0.324954	-0.446955	-0.352154
C80	C	0.008379	-0.113622	-0.018821
C81	C	0.341712	0.219711	0.314512
C82	C	-0.388059	-0.411673	-0.360133
C83	C	-0.054726	-0.078340	-0.026800
C84	C	0.278607	0.254993	0.306534
C85	C	-0.388064	-0.346239	-0.360136
C86	C	-0.054731	-0.012906	-0.026802
C87	C	0.278602	0.320428	0.306531
C88	C	-0.324959	-0.316086	-0.352158
C89	C	0.008374	0.017247	-0.018825
C90	C	0.341708	0.350580	0.314508
C91	C	-0.368145	-0.547407	-0.398815
C92	C	-0.034812	-0.214074	-0.065482
C93	C	0.298521	0.119260	0.267851
C94	C	-0.368148	-0.612844	-0.398804
C95	C	-0.034815	-0.279511	-0.065471
C96	C	0.298518	0.053823	0.267863
C97	C	-0.281756	-0.619270	-0.305469
C98	C	0.051578	-0.285936	0.027864
C99	C	0.384911	0.047397	0.361197
C100	C	-0.281759	-0.553834	-0.305477
C101	C	0.051574	-0.220501	0.027856
C102	C	0.384907	0.112833	0.361190
C103	C	-0.324953	-0.517907	-0.352154
C104	C	0.008380	-0.184573	-0.018820
C105	C	0.341714	0.148760	0.314513
C106	C	-0.507535	-0.874337	-0.359453
C107	C	-0.174202	-0.541004	-0.026120
C108	C	0.159132	-0.207670	0.307213
C109	C	-0.585639	-0.871457	-0.362599
C110	C	-0.252305	-0.538124	-0.029266
C111	C	0.081028	-0.204790	0.304068
C112	C	-0.624128	-0.911736	-0.319182
C113	C	-0.290795	-0.578403	0.014151
C114	C	0.042539	-0.245070	0.347485
C115	C	-0.697514	-0.909031	-0.322145
C116	C	-0.364181	-0.575698	0.011188
C117	C	-0.030848	-0.242364	0.344522
C118	C	-0.732410	-0.866043	-0.368521
C119	C	-0.399077	-0.532710	-0.035188
C120	C	-0.065744	-0.199376	0.298145
C121	C	-0.693916	-0.825762	-0.411943
C122	C	-0.360582	-0.492428	-0.078610
C123	C	-0.027249	-0.159095	0.254724
C124	C	-0.620531	-0.828470	-0.408983
C125	C	-0.287197	-0.495137	-0.075650
C126	C	0.046136	-0.161804	0.257683
C127	C	-0.951696	-0.853480	-0.382191
C128	C	-0.618362	-0.520147	-0.048857
C129	C	-0.285029	-0.186813	0.284476
C130	C	-1.025086	-0.850773	-0.385145
C131	C	-0.691753	-0.517440	-0.051812
C132	C	-0.358419	-0.184106	0.281521
C133	C	-1.028679	-0.934044	-0.295348
C134	C	-0.695346	-0.600710	0.037985
C135	C	-0.362013	-0.267377	0.371319
C136	C	-0.955293	-0.936746	-0.292389
C137	C	-0.621959	-0.603413	0.040944
C138	C	-0.288626	-0.270079	0.374277
C139	C	-0.916805	-0.896467	-0.335814
C140	C	-0.583471	-0.563134	-0.002480
C141	C	-0.250138	-0.229800	0.330853
N142	N	-0.807423	-0.863275	-0.371549
N143	N	-0.474090	-0.529942	-0.038216
N144	N	-0.140756	-0.196609	0.295117
N145	N	-0.841793	-0.899238	-0.332789
N146	N	-0.508460	-0.565905	0.000545
N147	N	-0.175126	-0.232571	0.333878
C148	C	-0.141680	-0.888109	-0.344844
C149	C	0.191653	-0.554776	-0.011511
C150	C	0.524987	-0.221442	0.321822
C151	C	-0.063575	-0.891052	-0.341729
C152	C	0.269758	-0.557719	-0.008395
C153	C	0.603092	-0.224386	0.324938
C154	C	-0.317560	-0.874945	-0.535435
C155	C	0.015774	-0.541612	-0.202102
C156	C	0.349107	-0.208279	0.131231
C157	C	-0.314404	-0.872279	-0.613538
C158	C	0.018929	-0.538946	-0.280205
C159	C	0.352263	-0.205613	0.053128
C160	C	-0.324981	-0.044623	-0.352175
C161	C	0.008352	0.288710	-0.018842
C162	C	0.341685	0.622044	0.314491
C163	C	-0.324979	-0.114265	-0.352172
C164	C	0.008355	0.219069	-0.018839
C165	C	0.341688	0.552402	0.314494
C166	C	-0.357863	-0.909399	-0.652033
C167	C	-0.024530	-0.576066	-0.318699
C168	C	0.308803	-0.242732	0.014634
C169	C	-0.354890	-0.906894	-0.725418
C170	C	-0.021556	-0.573561	-0.392085
C171	C	0.311777	-0.240228	-0.058752
C172	C	-0.308460	-0.867266	-0.760309
C173	C	0.024873	-0.533933	-0.426975
C174	C	0.358207	-0.200600	-0.093642
C175	C	-0.264996	-0.830145	-0.721809
C176	C	0.068337	-0.496812	-0.388476
C177	C	0.401671	-0.163479	-0.055142
C178	C	-0.267967	-0.832654	-0.648425
C179	C	0.065367	-0.499320	-0.315091
C180	C	0.398700	-0.165987	0.018242
C181	C	-0.294754	-0.855653	-0.979592
C182	C	0.038580	-0.522319	-0.646258
C183	C	0.371913	-0.188986	-0.312925
C184	C	-0.291788	-0.853146	-1.052981
C185	C	0.041545	-0.519812	-0.719648
C186	C	0.374879	-0.186479	-0.386315
C187	C	-0.381681	-0.929896	-1.056586
C188	C	-0.048348	-0.596563	-0.723252
C189	C	0.284986	-0.263229	-0.389919
C190	C	-0.384650	-0.932398	-0.983200
C191	C	-0.051317	-0.599065	-0.649866
C192	C	0.282016	-0.265731	-0.316533
C193	C	-0.341184	-0.895280	-0.944706
C194	C	-0.007850	-0.561946	-0.611373
C195	C	0.325483	-0.228613	-0.278040
N196	N	-0.305421	-0.864704	-0.835321
N197	N	0.027912	-0.531370	-0.501987
N198	N	0.361245	-0.198037	-0.168654
N199	N	-0.344220	-0.897846	-0.869696
N200	N	-0.010886	-0.564512	-0.536362
N201	N	0.322447	-0.231179	-0.203029
C202	C	-0.332290	-0.887471	-0.169586
C203	C	0.001044	-0.554137	0.163747
C204	C	0.334377	-0.220804	0.497080
C205	C	-0.335247	-0.890265	-0.091476
C206	C	-0.001914	-0.556932	0.241858
C207	C	0.331419	-0.223599	0.575191
H208	H	-0.403333	-0.233223	-0.436834
H209	H	-0.070000	0.100111	-0.103500
H210	H	0.263333	0.433444	0.229833
H211	H	-0.926882	-0.971750	-0.254626
H212	H	-0.593549	-0.638417	0.078707
H213	H	-0.260215	-0.305084	0.412041
Cl214	Cl	-0.206624	-0.780330	-0.765671
Cl215	Cl	0.126710	-0.446996	-0.432338
Cl216	Cl	0.460043	-0.113663	-0.099005
H217	H	-0.390279	-0.937121	-0.756757
H218	H	-0.056946	-0.603788	-0.423424
H219	H	0.276388	-0.270455	-0.090091
H220	H	-0.210479	-0.326812	-0.337688
H221	H	0.122854	0.006521	-0.004354
H222	H	0.456187	0.339855	0.328979
H223	H	-0.595721	-0.946739	-0.281414
H224	H	-0.262387	-0.613406	0.051919
H225	H	0.070946	-0.280073	0.385252
Cl226	Cl	-1.077068	-0.984681	-0.240766
Cl227	Cl	-0.743735	-0.651347	0.092567
Cl228	Cl	-0.410402	-0.318014	0.425901
Cl229	Cl	-1.068955	-0.796719	-0.443443
Cl230	Cl	-0.735621	-0.463385	-0.110109
Cl231	Cl	-0.402288	-0.130052	0.223224
H232	H	-0.403339	-0.114516	-0.436843
H233	H	-0.070006	0.218818	-0.103509
H234	H	0.263328	0.552151	0.229824
Cl235	Cl	-0.903320	-0.802842	-0.436780
Cl236	Cl	-0.569987	-0.469509	-0.103447
Cl237	Cl	-0.236653	-0.136175	0.229887
H238	H	-0.253974	-0.820877	-1.081387
H239	H	0.079360	-0.487544	-0.748053
H240	H	0.412693	-0.154211	-0.414720
H241	H	-0.589193	-0.795671	-0.444339
H242	H	-0.255860	-0.462338	-0.111005
H243	H	0.077473	-0.129005	0.222328
H244	H	-0.728849	-0.941831	-0.286790
H245	H	-0.395516	-0.608497	0.046544
H246	H	-0.062182	-0.275164	0.379877
H247	H	-0.417068	-0.960117	-1.087935
H248	H	-0.083734	-0.626784	-0.754601
H249	H	0.249599	-0.293451	-0.421268
Cl250	Cl	-0.443020	-0.982220	-0.939343
Cl251	Cl	-0.109686	-0.648887	-0.606010
Cl252	Cl	0.223647	-0.315554	-0.272676
Cl253	Cl	-0.182525	-0.461142	-0.334169
Cl254	Cl	0.150809	-0.127809	-0.000835
Cl255	Cl	0.484142	0.205524	0.332498
H256	H	-0.246586	-0.648527	-0.267472
H257	H	0.086747	-0.315193	0.065861
H258	H	0.420081	0.018140	0.399195
Cl259	Cl	-0.416239	-0.959216	-0.608178
Cl260	Cl	-0.082906	-0.625883	-0.274845
Cl261	Cl	0.250428	-0.292550	0.058489
Cl262	Cl	-0.240112	-0.808986	-0.931210
Cl263	Cl	0.093222	-0.475653	-0.597876
Cl264	Cl	0.426555	-0.142320	-0.264543
H265	H	-0.232575	-0.802428	-0.617083
H266	H	0.100758	-0.469095	-0.283750
H267	H	0.434091	-0.135762	0.049583
H268	H	-0.439447	-0.317515	-0.366630
H269	H	-0.106113	0.015818	-0.033297
H270	H	0.227220	0.349151	0.300036
Cl271	Cl	-0.227459	-0.516747	-0.246814
Cl272	Cl	0.105874	-0.183414	0.086519
Cl273	Cl	0.439208	0.149920	0.419852
H274	H	-0.439439	-0.436228	-0.366625
H275	H	-0.106105	-0.102895	-0.033291
H276	H	0.227228	0.230439	0.300042
H277	H	-0.403317	-0.518153	-0.436821
H278	H	-0.069984	-0.184820	-0.103488
H279	H	0.263350	0.148513	0.229845
H280	H	-0.403320	-0.636861	-0.436803
H281	H	-0.069987	-0.303528	-0.103469
H282	H	0.263346	0.029806	0.229864
Cl283	Cl	-0.227478	-0.260799	-0.246827
Cl284	Cl	0.105856	0.072534	0.086507
Cl285	Cl	0.439189	0.405867	0.419840
H286	H	-0.246616	-0.126174	-0.267495
H287	H	0.086717	0.207159	0.065838
H288	H	0.420051	0.540492	0.399172
H289	H	-0.722334	-0.790762	-0.449707
H290	H	-0.389000	-0.457429	-0.116373
H291	H	-0.055667	-0.124096	0.216960
