data_functionalizedCrystal
_audit_creation_method	'MofGen! by Chris Wilmer'
_symmetry_space_group_name_H-M	'P1'
_symmetry_Int_Tables_number	1
_symmetry_cell_setting	triclinic
loop_
_symmetry_equiv_pos_as_xyz
  x,y,z
_cell_length_a	17.077404
_cell_length_b	16.959454
_cell_length_c	17.077395
_cell_angle_alpha	89.976524
_cell_angle_beta	89.984359
_cell_angle_gamma	90.020300
loop_
_atom_site_label
_atom_site_type_symbol
_atom_site_fract_x
_atom_site_fract_y
_atom_site_fract_z
Zn1	Zn	1.200040	-0.314687	-0.443863
Zn2	Zn	1.533373	0.018647	-0.110530
Zn3	Zn	1.866707	0.351980	0.222804
Zn4	Zn	1.199962	-0.446872	-0.312606
Zn5	Zn	1.533296	-0.113538	0.020728
Zn6	Zn	1.866629	0.219795	0.354061
Zn7	Zn	1.068781	-0.314711	-0.312611
Zn8	Zn	1.402114	0.018622	0.020722
Zn9	Zn	1.735447	0.351955	0.354056
Zn10	Zn	1.068746	-0.446828	-0.443829
Zn11	Zn	1.402080	-0.113494	-0.110496
Zn12	Zn	1.735413	0.219839	0.222837
O13	O	1.134382	-0.380774	-0.378227
O14	O	1.467716	-0.047441	-0.044894
O15	O	1.801049	0.285892	0.288439
O16	O	1.309877	-0.332229	-0.426463
O17	O	1.643210	0.001104	-0.093130
O18	O	1.976543	0.334437	0.240203
O19	O	1.182543	-0.429369	-0.202759
O20	O	1.515876	-0.096036	0.130574
O21	O	1.849209	0.237298	0.463907
O22	O	1.086239	-0.204097	-0.330038
O23	O	1.419573	0.129236	0.003295
O24	O	1.752906	0.462569	0.336628
O25	O	1.309820	-0.429345	-0.330029
O26	O	1.643153	-0.096012	0.003304
O27	O	1.976486	0.237322	0.336637
O28	O	1.182675	-0.204079	-0.426469
O29	O	1.516008	0.129254	-0.093135
O30	O	1.849342	0.462588	0.240198
O31	O	1.086164	-0.332272	-0.202763
O32	O	1.419498	0.001062	0.130570
O33	O	1.752831	0.334395	0.463903
O34	O	0.958929	-0.332229	-0.330006
O35	O	1.292263	0.001104	0.003328
O36	O	1.625596	0.334438	0.336661
O37	O	1.086181	-0.429270	-0.553681
O38	O	1.419514	-0.095937	-0.220347
O39	O	1.752847	0.237397	0.112986
O40	O	0.958904	-0.429294	-0.426411
O41	O	1.292237	-0.095961	-0.093078
O42	O	1.625571	0.237373	0.240256
O43	O	1.182642	-0.332187	-0.553706
O44	O	1.515975	0.001147	-0.220372
O45	O	1.849308	0.334480	0.112961
O46	O	1.182509	-0.557477	-0.329996
O47	O	1.515843	-0.224143	0.003337
O48	O	1.849176	0.109190	0.336670
O49	O	1.086106	-0.557444	-0.426406
O50	O	1.419439	-0.224111	-0.093072
O51	O	1.752772	0.109222	0.240261
C52	C	0.930435	-0.380760	-0.378206
C53	C	1.263768	-0.047427	-0.044872
C54	C	1.597101	0.285907	0.288461
C55	C	0.843185	-0.380773	-0.378215
C56	C	1.176518	-0.047440	-0.044882
C57	C	1.509851	0.285894	0.288452
C58	C	1.134317	-0.586141	-0.378214
C59	C	1.467650	-0.252807	-0.044881
C60	C	1.800983	0.080526	0.288453
C61	C	1.134360	-0.673997	-0.378234
C62	C	1.467694	-0.340664	-0.044901
C63	C	1.801027	-0.007330	0.288432
C64	C	0.802202	-0.431391	-0.428333
C65	C	1.135535	-0.098058	-0.094999
C66	C	1.468869	0.235276	0.238334
C67	C	0.720221	-0.431393	-0.428345
C68	C	1.053555	-0.098059	-0.095012
C69	C	1.386888	0.235274	0.238321
C70	C	0.679225	-0.380780	-0.378236
C71	C	1.012559	-0.047446	-0.044902
C72	C	1.345892	0.285887	0.288431
C73	C	0.720214	-0.330156	-0.328116
C74	C	1.053547	0.003177	0.005218
C75	C	1.386880	0.336511	0.338551
C76	C	0.802193	-0.330151	-0.328108
C77	C	1.135526	0.003182	0.005226
C78	C	1.468859	0.336516	0.338559
C79	C	0.549344	-0.330172	-0.328134
C80	C	0.882677	0.003162	0.005199
C81	C	1.216010	0.336495	0.338532
C82	C	0.467359	-0.330178	-0.328141
C83	C	0.800693	0.003156	0.005192
C84	C	1.134026	0.336489	0.338525
C85	C	0.467373	-0.431413	-0.428372
C86	C	0.800706	-0.098080	-0.095039
C87	C	1.134039	0.235253	0.238294
C88	C	0.549351	-0.431408	-0.428364
C89	C	0.882685	-0.098075	-0.095031
C90	C	1.216018	0.235258	0.238302
C91	C	0.590334	-0.380785	-0.378243
C92	C	0.923668	-0.047452	-0.044910
C93	C	1.257001	0.285881	0.288424
C94	C	1.084258	-1.045486	-0.428422
C95	C	1.417591	-0.712152	-0.095089
C96	C	1.750924	-0.378819	0.238244
C97	C	1.184726	-1.045460	-0.328112
C98	C	1.518059	-0.712126	0.005221
C99	C	1.851392	-0.378793	0.338554
C100	C	1.184698	-0.962914	-0.328105
C101	C	1.518032	-0.629580	0.005228
C102	C	1.851365	-0.296247	0.338562
C103	C	1.134449	-0.921650	-0.378256
C104	C	1.467782	-0.588317	-0.044923
C105	C	1.801116	-0.254983	0.288410
C106	C	1.084227	-0.962932	-0.428415
C107	C	1.417560	-0.629599	-0.095082
C108	C	1.750894	-0.296266	0.238252
C109	C	1.234914	-0.921625	-0.277942
C110	C	1.568247	-0.588292	0.055392
C111	C	1.901580	-0.254959	0.388725
C112	C	1.234888	-0.839074	-0.277932
C113	C	1.568221	-0.505741	0.055401
C114	C	1.901554	-0.172408	0.388735
C115	C	1.184642	-0.797809	-0.328088
C116	C	1.517975	-0.464476	0.005245
C117	C	1.851308	-0.131143	0.338579
C118	C	1.134418	-0.839097	-0.378249
C119	C	1.467752	-0.505763	-0.044916
C120	C	1.801085	-0.172430	0.288418
C121	C	1.084169	-0.797833	-0.428400
C122	C	1.417502	-0.464500	-0.095067
C123	C	1.750836	-0.131166	0.238266
C124	C	1.033949	-0.839119	-0.478566
C125	C	1.367282	-0.505785	-0.145233
C126	C	1.700616	-0.172452	0.188100
C127	C	1.033981	-0.921667	-0.478571
C128	C	1.367314	-0.588334	-0.145238
C129	C	1.700648	-0.255001	0.188096
C130	C	1.184610	-0.715261	-0.328083
C131	C	1.517943	-0.381927	0.005250
C132	C	1.851276	-0.048594	0.338584
C133	C	1.084138	-0.715279	-0.428393
C134	C	1.417472	-0.381946	-0.095060
C135	C	1.750805	-0.048613	0.238274
C136	C	1.339127	-0.380789	-0.378250
C137	C	1.672460	-0.047456	-0.044916
C138	C	2.005793	0.285877	0.288417
C139	C	1.426376	-0.380796	-0.378259
C140	C	1.759710	-0.047462	-0.044926
C141	C	2.093043	0.285871	0.288408
C142	C	1.134416	-0.380721	-0.582972
C143	C	1.467749	-0.047387	-0.249638
C144	C	1.801083	0.285946	0.083695
C145	C	1.134430	-0.380698	-0.670222
C146	C	1.467764	-0.047364	-0.336888
C147	C	1.801097	0.285969	-0.003555
C148	C	1.134470	-0.174606	-0.378258
C149	C	1.467803	0.158727	-0.044925
C150	C	1.801136	0.492061	0.288409
C151	C	1.134507	-0.086749	-0.378271
C152	C	1.467840	0.246584	-0.044938
C153	C	1.801174	0.579917	0.288396
C154	C	1.184745	-0.330039	-1.046050
C155	C	1.518078	0.003294	-0.712717
C156	C	1.851411	0.336628	-0.379384
C157	C	1.184729	-0.330067	-0.964070
C158	C	1.518062	0.003267	-0.630737
C159	C	1.851395	0.336600	-0.297403
C160	C	1.134495	-0.380623	-0.923071
C161	C	1.467828	-0.047290	-0.589737
C162	C	1.801162	0.286044	-0.256404
C163	C	1.084280	-0.431160	-0.964056
C164	C	1.417613	-0.097827	-0.630723
C165	C	1.750947	0.235506	-0.297389
C166	C	1.084300	-0.431136	-1.046035
C167	C	1.417634	-0.097803	-0.712702
C168	C	1.750967	0.235531	-0.379368
C169	C	1.084239	-0.431206	-0.793186
C170	C	1.417573	-0.097873	-0.459853
C171	C	1.750906	0.235461	-0.126519
C172	C	1.084217	-0.431230	-0.711201
C173	C	1.417551	-0.097896	-0.377868
C174	C	1.750884	0.235437	-0.044535
C175	C	1.184667	-0.330137	-0.711221
C176	C	1.518001	0.003196	-0.377887
C177	C	1.851334	0.336530	-0.044554
C178	C	1.184688	-0.330113	-0.793200
C179	C	1.518021	0.003221	-0.459866
C180	C	1.851355	0.336554	-0.126533
C181	C	1.134472	-0.380649	-0.834180
C182	C	1.467805	-0.047316	-0.500846
C183	C	1.801138	0.286018	-0.167513
C184	C	1.134394	-0.380771	-0.174279
C185	C	1.467727	-0.047437	0.159054
C186	C	1.801061	0.285896	0.492387
C187	C	1.134532	-0.380571	-0.087030
C188	C	1.467865	-0.047238	0.246303
C189	C	1.801198	0.286096	0.579637
H190	H	0.835575	-0.472609	-0.469136
H191	H	1.168909	-0.139275	-0.135802
H192	H	1.502242	0.194058	0.197531
Br193	Br	0.604963	-0.261467	-0.260114
Br194	Br	0.938296	0.071866	0.073220
Br195	Br	1.271630	0.405200	0.406553
H196	H	1.225494	-0.681650	-0.287235
H197	H	1.558828	-0.348316	0.046098
H198	H	1.892161	-0.014983	0.379431
Br199	Br	1.016108	-0.499777	-0.908415
Br200	Br	1.349441	-0.166443	-0.575082
Br201	Br	1.682775	0.166890	-0.241749
H202	H	1.225589	-0.288942	-0.826579
H203	H	1.558923	0.044391	-0.493246
H204	H	1.892256	0.377725	-0.159912
H205	H	0.686857	-0.472612	-0.469156
H206	H	1.020190	-0.139278	-0.135822
H207	H	1.353524	0.194055	0.197511
H208	H	0.582728	-0.472626	-0.469164
H209	H	0.916062	-0.139293	-0.135830
H210	H	1.249395	0.194041	0.197503
H211	H	0.434000	-0.472630	-0.469185
H212	H	0.767334	-0.139297	-0.135852
H213	H	1.100667	0.194037	0.197482
Br214	Br	1.252917	-1.101460	-0.260052
Br215	Br	1.586250	-0.768127	0.073281
Br216	Br	1.919583	-0.434794	0.406615
Br217	Br	1.303108	-0.977628	-0.209887
Br218	Br	1.636442	-0.644295	0.123446
Br219	Br	1.969775	-0.310962	0.456780
Br220	Br	0.664577	-0.261458	-0.260116
Br221	Br	0.997910	0.071875	0.073218
Br222	Br	1.331244	0.405208	0.406551
H223	H	0.433982	-0.288955	-0.287347
H224	H	0.767316	0.044379	0.045987
H225	H	1.100649	0.377712	0.379320
Br226	Br	1.252842	-0.261574	-0.655607
Br227	Br	1.586175	0.071759	-0.322273
Br228	Br	1.919508	0.405092	0.011060
H229	H	0.835560	-0.288928	-0.287301
H230	H	1.168893	0.044405	0.046033
H231	H	1.502227	0.377738	0.379366
Br232	Br	1.016046	-0.499845	-0.655559
Br233	Br	1.349379	-0.166512	-0.322226
Br234	Br	1.682713	0.166821	0.011107
H235	H	1.043222	-0.681688	-0.469236
H236	H	1.376555	-0.348354	-0.135902
H237	H	1.709889	-0.015021	0.197431
H238	H	0.993032	-0.805512	-0.519396
H239	H	1.326365	-0.472179	-0.186063
H240	H	1.659699	-0.138846	0.147270
Br241	Br	0.965832	-0.977702	-0.546647
Br242	Br	1.299165	-0.644369	-0.213313
Br243	Br	1.632498	-0.311035	0.120020
H244	H	1.043413	-0.472285	-1.079400
H245	H	1.376746	-0.138952	-0.746066
H246	H	1.710079	0.194382	-0.412733
H247	H	1.043372	-1.079104	-0.469268
H248	H	1.376705	-0.745771	-0.135935
H249	H	1.710039	-0.412438	0.197398
Br250	Br	1.303047	-0.783051	-0.209858
Br251	Br	1.636380	-0.449717	0.123476
Br252	Br	1.969714	-0.116384	0.456809
H253	H	1.225646	-0.288865	-1.079426
H254	H	1.558979	0.044468	-0.746093
H255	H	1.892312	0.377801	-0.412759
Br256	Br	1.252880	-0.261487	-0.908457
Br257	Br	1.586214	0.071846	-0.575124
Br258	Br	1.919547	0.405179	-0.241790
Br259	Br	1.016089	-0.499793	-0.848801
Br260	Br	1.349422	-0.166460	-0.515468
Br261	Br	1.682755	0.166873	-0.182134
