data_functionalizedCrystal
_audit_creation_method	'MofGen! by Chris Wilmer'
_symmetry_space_group_name_H-M	'P1'
_symmetry_Int_Tables_number	1
_symmetry_cell_setting	triclinic
loop_
_symmetry_equiv_pos_as_xyz
  x,y,z
_cell_length_a	11.169417
_cell_length_b	12.759399
_cell_length_c	12.759393
_cell_angle_alpha	89.969094
_cell_angle_beta	89.980914
_cell_angle_gamma	90.016365
loop_
_atom_site_label
_atom_site_type_symbol
_atom_site_fract_x
_atom_site_fract_y
_atom_site_fract_z
Zn1	Zn	1.834917	-0.418180	-0.593965
Zn2	Zn	1.834792	-0.593896	-0.418284
Zn3	Zn	1.634205	-0.418236	-0.418306
Zn4	Zn	1.634194	-0.593822	-0.593927
O5	O	1.734527	-0.506033	-0.506121
O6	O	2.002850	-0.441498	-0.570668
O7	O	1.808135	-0.570648	-0.271266
O8	O	1.660887	-0.271207	-0.441633
O9	O	2.002758	-0.570595	-0.441595
O10	O	1.808350	-0.271167	-0.570689
O11	O	1.660765	-0.441591	-0.271282
O12	O	1.466254	-0.441519	-0.441596
O13	O	1.660869	-0.570468	-0.740953
O14	O	1.466246	-0.570522	-0.570624
O15	O	1.808339	-0.441426	-0.740981
O16	O	1.808125	-0.740907	-0.441558
O17	O	1.660747	-0.740853	-0.570602
C18	C	1.734453	-0.779001	-0.506097
C19	C	1.734532	-0.895777	-0.506122
C20	C	1.422702	-0.506019	-0.506109
C21	C	1.289302	-0.506039	-0.506128
C22	C	1.811359	-0.950633	-0.439005
C23	C	1.811436	-1.060357	-0.439040
C24	C	1.657848	-1.060360	-0.573312
C25	C	1.657778	-0.950638	-0.573281
C26	C	2.047569	-0.506048	-0.506133
C27	C	2.180969	-0.506055	-0.506139
C28	C	1.734617	-0.505933	-0.780154
C29	C	1.734655	-0.505890	-0.896931
C30	C	1.734634	-0.232000	-0.506168
C31	C	1.734679	-0.115223	-0.506188
C32	C	1.811449	-0.438686	-0.951809
C33	C	1.811469	-0.438641	-1.061533
C34	C	1.657899	-0.573011	-1.061491
C35	C	1.657873	-0.573051	-0.951769
C36	C	1.734507	-0.506058	-0.233153
C37	C	1.734701	-0.505805	-0.116377
H38	H	1.873998	-1.105015	-0.384388
H39	H	1.873858	-0.905968	-0.384321
H40	H	1.595356	-1.105041	-0.627989
N41	N	1.574899	-0.891467	-0.645668
H42	H	1.586506	-0.813635	-0.635458
H43	H	1.593545	-0.910568	-0.720723
H44	H	1.873966	-0.383996	-0.907163
N45	N	1.575106	-0.645460	-1.120642
H46	H	1.526453	-0.688039	-1.069224
H47	H	1.519593	-0.602678	-1.166172
H48	H	1.595330	-0.627775	-0.907086
H49	H	1.874000	-0.383915	-1.106210
