data_functionalizedCrystal
_audit_creation_method	'MofGen! by Chris Wilmer'
_symmetry_space_group_name_H-M	'P1'
_symmetry_Int_Tables_number	1
_symmetry_cell_setting	triclinic
loop_
_symmetry_equiv_pos_as_xyz
  x,y,z
_cell_length_a	16.992701
_cell_length_b	27.731996
_cell_length_c	15.455313
_cell_angle_alpha	92.636264
_cell_angle_beta	87.136501
_cell_angle_gamma	86.644279
loop_
_atom_site_label
_atom_site_type_symbol
_atom_site_fract_x
_atom_site_fract_y
_atom_site_fract_z
O1	O	1.042582	0.100459	-0.072156
O2	O	0.814310	0.099336	-0.072156
O3	O	0.935556	0.029807	-0.072137
O4	O	0.921336	0.169988	-0.072175
O5	O	0.928623	0.033766	0.072124
O6	O	0.807377	0.103295	0.072105
O7	O	1.035649	0.104418	0.072105
Cu8	Cu	0.920880	0.104218	0.085277
Cu9	Cu	0.929079	0.099536	-0.085328
O10	O	0.914403	0.173947	0.072086
C11	C	0.781649	0.099870	-0.000025
C12	C	0.694659	0.095557	-0.000024
C13	C	0.206059	0.066574	-0.000020
C14	C	0.287794	0.070631	-0.000016
C15	C	0.318771	0.116311	-0.000032
C16	C	0.268007	0.157938	-0.000043
C17	C	0.186272	0.153880	-0.000041
C18	C	0.562159	0.133126	-0.000034
C19	C	0.643901	0.137180	-0.000039
C20	C	0.663683	0.049873	-0.000009
C21	C	0.581946	0.045820	-0.000013
C22	C	0.531189	0.087446	-0.000019
N23	N	0.402318	0.120459	-0.000030
N24	N	0.447643	0.083298	-0.000015
C25	C	0.931797	0.013766	-0.000004
C26	C	0.930917	-0.039928	0.000005
C27	C	0.929162	-0.375042	-0.078674
C28	C	0.925821	-0.576845	-0.078689
O29	O	0.928569	-0.604771	-0.145567
N30	N	0.921627	-0.599923	-0.000053
C31	C	0.918262	-0.572546	0.078592
O32	O	0.914610	-0.596804	0.145476
C33	C	0.921597	-0.370743	0.078606
C34	C	0.925800	-0.347669	-0.000035
C35	C	0.933363	-0.351968	-0.157309
C36	C	0.934202	-0.301520	-0.157304
C37	C	0.930841	-0.274147	-0.078665
C38	C	0.926639	-0.297221	-0.000030
C39	C	0.918227	-0.343367	0.157251
C40	C	0.919060	-0.292913	0.157247
C41	C	0.923262	-0.269839	0.078606
C42	C	0.924117	-0.219401	0.078614
N43	N	0.928311	-0.196323	-0.000022
C44	C	0.931673	-0.223697	-0.078661
C45	C	0.916513	-0.678495	0.078579
C46	C	0.915681	-0.728945	0.078576
C47	C	0.923238	-0.733242	-0.078706
C48	C	0.924076	-0.682790	-0.078702
C49	C	0.920707	-0.655418	-0.000057
C50	C	0.933436	-0.117753	-0.078646
C51	C	0.934279	-0.067301	-0.078634
C52	C	0.926717	-0.063009	0.078647
C53	C	0.925879	-0.113457	0.078636
C54	C	0.929236	-0.140828	-0.000018
O55	O	0.921362	-0.191444	0.145457
O56	O	0.935307	-0.199428	-0.145536
C57	C	0.928322	-0.425490	-0.078679
C58	C	0.924121	-0.448564	-0.000044
C59	C	0.920759	-0.421191	0.078595
C60	C	0.923289	-0.499015	-0.000047
C61	C	0.926651	-0.526388	-0.078687
C62	C	0.930845	-0.503310	-0.157323
C63	C	0.931684	-0.452863	-0.157318
C64	C	0.916565	-0.444268	0.157231
C65	C	0.915727	-0.494716	0.157220
C66	C	0.919089	-0.522089	0.078581
C67	C	1.068310	0.103884	-0.000028
C68	C	1.155301	0.108197	-0.000034
C69	C	0.918162	0.189988	-0.000049
C70	C	0.919043	0.243681	-0.000064
N71	N	0.915119	0.107510	0.205272
N72	N	0.934847	0.096240	-0.205323
C73	C	0.966646	0.077984	0.250674
C74	C	0.962296	0.080479	0.341481
C75	C	0.906422	0.112503	0.386885
C76	C	0.854890	0.142030	0.341476
C77	C	0.859236	0.139533	0.250671
C78	C	0.887661	0.123270	0.658463
C79	C	0.883319	0.125766	0.749275
C80	C	0.990725	0.064214	0.749274
C81	C	0.995070	0.061722	0.658467
C82	C	0.943535	0.091247	0.613066
N83	N	0.901976	0.115055	0.479704
N84	N	0.947978	0.088693	0.520248
H85	H	0.144945	0.187775	-0.000050
H86	H	1.012147	0.051909	0.213712
H87	H	1.040567	0.035645	0.621501
H88	H	0.912311	-0.513499	0.221264
H89	H	0.916305	-0.270628	0.221291
C90	C	0.980525	-0.387881	0.248479
C91	C	0.912876	-0.414182	0.243676
H92	H	0.978246	-0.369306	0.301848
H93	H	1.026064	-0.409576	0.245204
H94	H	0.983134	-0.366916	0.201647
H95	H	0.910269	-0.435149	0.290505
H96	H	0.867324	-0.392484	0.246960
H97	H	1.032682	0.040175	0.786247
C98	C	0.760412	0.182163	-0.000038
C99	C	0.677952	0.187396	-0.000037
H100	H	0.781432	0.213163	-0.000039
H101	H	0.775446	0.166269	0.050264
H102	H	0.780280	0.163516	-0.050350
H103	H	0.658083	0.206040	0.050278
H104	H	0.662910	0.203297	-0.050345
C105	C	0.873446	-0.286886	-0.291332
C106	C	0.938778	-0.276188	-0.243778
H107	H	0.876259	-0.271255	-0.344726
H108	H	0.873444	-0.320851	-0.302523
H109	H	0.826327	-0.275799	-0.258999
H110	H	0.985897	-0.287278	-0.276109
H111	H	0.938788	-0.242215	-0.232590
H112	H	0.705018	0.015983	-0.000003
H113	H	1.004253	0.056436	0.378447
C114	C	0.869420	-0.408357	-0.248586
C115	C	0.937062	-0.382050	-0.243760
H116	H	0.871708	-0.426924	-0.301965
H117	H	0.866807	-0.429325	-0.201770
H118	H	0.823872	-0.386661	-0.245312
H119	H	0.982610	-0.403747	-0.247028
H120	H	0.939683	-0.361081	-0.290590
H121	H	0.520842	0.167021	-0.000044
C122	C	0.777564	0.186347	0.740160
C123	C	0.821887	0.160962	0.799185
H124	H	0.739637	0.208071	0.770975
H125	H	0.811655	0.204030	0.704730
H126	H	0.751331	0.164155	0.704756
H127	H	0.848125	0.183154	0.834585
H128	H	0.787792	0.143279	0.834630
H129	H	0.329119	0.036737	-0.000001
H130	H	0.937703	-0.048516	-0.142676
C131	C	0.384515	0.202923	-0.000064
C132	C	0.302054	0.208151	-0.000060
H133	H	0.405531	0.233924	-0.000081
H134	H	0.399553	0.187037	0.050245
H135	H	0.404383	0.184269	-0.050369
H136	H	0.282185	0.226801	0.050248
H137	H	0.287009	0.224044	-0.050375
C138	C	0.609712	-0.040072	0.000036
C139	C	0.547899	-0.004394	0.000017
H140	H	0.588691	-0.071071	0.000058
H141	H	0.643595	-0.038059	-0.050271
H142	H	0.638765	-0.035286	0.050343
H143	H	0.518850	-0.009177	-0.050294
H144	H	0.514003	-0.006408	0.050329
H145	H	0.936166	-0.140032	-0.142693
C146	C	0.931461	-0.692116	-0.234164
C147	C	0.928686	-0.657429	-0.165146
H148	H	0.934300	-0.676460	-0.287533
H149	H	0.976697	-0.713623	-0.230891
H150	H	0.885257	-0.709784	-0.230883
H151	H	0.974892	-0.639763	-0.168423
H152	H	0.883445	-0.635914	-0.168420
C153	C	0.908289	-0.719619	0.234039
C154	C	0.911068	-0.754305	0.165020
H155	H	0.905433	-0.735274	0.287407
H156	H	0.954488	-0.701955	0.230769
H157	H	0.863050	-0.698107	0.230755
H158	H	0.956310	-0.775815	0.168300
H159	H	0.864863	-0.771977	0.168293
H160	H	0.925976	-0.755537	-0.142737
C161	C	0.987899	-0.046636	0.212729
C162	C	0.923004	-0.032917	0.165089
H163	H	0.985598	-0.028056	0.266094
H164	H	0.986799	-0.079980	0.223980
H165	H	1.035310	-0.041167	0.180427
H166	H	0.875593	-0.038389	0.197390
H167	H	0.924096	0.000435	0.153841
C168	C	0.845668	-0.616441	0.169860
C169	C	0.912817	-0.648413	0.165036
H170	H	0.843389	-0.597875	0.223238
H171	H	0.848289	-0.595473	0.123043
H172	H	0.799786	-0.634294	0.166584
H173	H	0.958700	-0.630560	0.168305
H174	H	0.910203	-0.669383	0.211865
C175	C	0.853172	-0.164871	0.169877
C176	C	0.921279	-0.138829	0.165072
H177	H	0.850335	-0.180536	0.223237
H178	H	0.807944	-0.143355	0.166625
H179	H	0.855056	-0.188390	0.123033
H180	H	0.919393	-0.115307	0.211913
H181	H	0.966518	-0.160348	0.168333
C182	C	0.932909	-0.582558	-0.227149
C183	C	0.934536	-0.533406	-0.243765
H184	H	0.935179	-0.601138	-0.280513
H185	H	0.976938	-0.591862	-0.194846
H186	H	0.885498	-0.588010	-0.194831
H187	H	0.981950	-0.527953	-0.276077
H188	H	0.890503	-0.524099	-0.276082
C189	C	0.806473	0.224643	0.369396
C190	C	0.793467	0.177231	0.391376
H191	H	0.768548	0.246374	0.400197
H192	H	0.857990	0.232337	0.384269
H193	H	0.801689	0.227373	0.308815
H194	H	0.798257	0.174500	0.451957
H195	H	0.741937	0.169534	0.376510
H196	H	0.914807	-0.362145	0.221289
H197	H	0.845700	0.147312	0.621505
H198	H	0.180845	0.029376	-0.000012
H199	H	0.935106	-0.434080	-0.221356
H200	H	0.817277	0.163575	0.213705
