data_functionalizedCrystal
_audit_creation_method	'MofGen! by Chris Wilmer'
_symmetry_space_group_name_H-M	'P1'
_symmetry_Int_Tables_number	1
_symmetry_cell_setting	triclinic
loop_
_symmetry_equiv_pos_as_xyz
  x,y,z
_cell_length_a	16.625548
_cell_length_b	12.759393
_cell_length_c	12.759400
_cell_angle_alpha	89.968436
_cell_angle_beta	90.015753
_cell_angle_gamma	89.978332
loop_
_atom_site_label
_atom_site_type_symbol
_atom_site_fract_x
_atom_site_fract_y
_atom_site_fract_z
Zn1	Zn	1.232733	-0.594070	-0.418174
Zn2	Zn	1.232652	-0.418390	-0.593893
Zn3	Zn	1.097892	-0.418400	-0.418232
Zn4	Zn	1.097883	-0.594022	-0.593815
O5	O	1.165290	-0.506221	-0.506029
O6	O	1.345554	-0.570782	-0.441492
O7	O	1.214745	-0.271371	-0.570648
O8	O	1.115817	-0.441727	-0.271203
O9	O	1.345495	-0.441711	-0.570592
O10	O	1.214883	-0.570791	-0.271161
O11	O	1.115738	-0.271378	-0.441591
O12	O	0.985059	-0.441680	-0.441515
O13	O	1.115802	-0.741050	-0.570459
O14	O	0.985052	-0.570709	-0.570515
O15	O	1.214875	-0.741085	-0.441417
O16	O	1.214737	-0.441664	-0.740904
O17	O	1.115723	-0.570700	-0.740847
C18	C	0.955799	-0.506191	-0.506014
C19	C	0.866178	-0.506204	-0.506033
C20	C	1.165242	-0.506199	-0.778996
C21	C	1.165295	-0.506225	-0.895773
C22	C	1.165346	-0.780254	-0.505923
C23	C	1.165371	-0.897031	-0.505878
C24	C	0.538002	-0.506249	-0.506039
C25	C	0.629311	-0.506233	-0.506035
C26	C	0.702087	-0.506225	-0.506037
C27	C	0.793402	-0.506211	-0.506031
C28	C	1.375599	-0.506251	-0.506045
C29	C	1.465220	-0.506264	-0.506051
C30	C	1.216965	-0.951913	-0.438679
C31	C	1.216984	-1.061637	-0.438641
C32	C	1.113812	-1.061587	-0.573010
C33	C	1.113789	-0.951865	-0.573041
C34	C	1.276533	-0.951943	-0.361105
C35	C	1.276552	-1.061667	-0.361067
C36	C	1.165280	-0.233253	-0.506058
C37	C	1.165412	-0.116477	-0.505808
C38	C	1.216909	-0.439110	-0.950630
C39	C	1.216959	-0.439142	-1.060354
C40	C	1.113774	-0.573407	-1.060354
C41	C	1.113729	-0.573379	-0.950632
C42	C	1.276480	-0.361590	-0.950630
C43	C	1.276529	-0.361622	-1.060354
C44	C	1.165360	-0.506266	-0.231995
C45	C	1.165390	-0.506285	-0.115219
H46	H	1.071815	-1.106247	-0.627690
C47	C	1.253954	-0.911735	-0.251200
H48	H	1.244675	-0.969657	-0.205979
H49	H	1.296688	-0.870386	-0.224177
H50	H	1.206552	-0.870368	-0.255642
C51	C	1.253993	-0.251691	-1.100710
H52	H	1.254036	-0.251716	-1.175167
H53	H	1.201955	-0.233447	-1.075975
H54	H	1.292099	-0.202094	-1.075895
H55	H	1.071773	-0.907184	-0.627757
H56	H	1.254209	-1.095713	-0.283758
H57	H	1.335836	-0.917911	-0.390272
H58	H	1.339001	-1.091450	-0.382858
C59	C	1.056956	-0.647207	-0.890292
H60	H	1.026248	-0.687196	-0.938682
H61	H	1.087764	-0.693007	-0.847417
H62	H	1.021818	-0.606960	-0.847564
C63	C	1.057052	-0.647265	-1.120703
H64	H	1.064467	-0.637668	-1.193906
H65	H	1.068814	-0.717865	-1.102649
H66	H	1.002872	-0.631813	-1.102793
H67	H	1.338907	-0.383446	-0.920771
C68	C	1.246292	-0.257129	-0.904763
H69	H	1.232884	-0.210627	-0.960263
H70	H	1.200027	-0.269545	-0.862894
H71	H	1.287354	-0.226757	-0.862844
C72	C	1.356670	-0.401090	-1.106218
H73	H	1.392327	-0.418638	-1.050716
H74	H	1.347086	-0.461348	-1.148083
H75	H	1.380045	-0.347620	-1.148139
