data_functionalizedCrystal
_audit_creation_method	'MofGen! by Chris Wilmer'
_symmetry_space_group_name_H-M	'P1'
_symmetry_Int_Tables_number	1
_symmetry_cell_setting	triclinic
loop_
_symmetry_equiv_pos_as_xyz
  x,y,z
_cell_length_a	6.817900
_cell_length_b	11.102193
_cell_length_c	9.514088
_cell_angle_alpha	88.635678
_cell_angle_beta	118.843545
_cell_angle_gamma	108.603963
loop_
_atom_site_label
_atom_site_type_symbol
_atom_site_fract_x
_atom_site_fract_y
_atom_site_fract_z
V1	V	-4.243913	-0.178092	-0.500742
O2	O	-4.200436	0.006240	-0.491211
O3	O	-4.219776	-0.350896	-0.497317
O4	O	-4.278436	-0.176370	-0.719134
O5	O	-4.141370	-0.169495	-0.267859
V6	V	-4.713653	-0.155923	-0.472888
O7	O	-4.535408	-0.226720	-0.561844
O8	O	-4.872356	-0.107295	-0.411786
O9	O	-4.514584	0.016881	-0.476313
O10	O	-4.874527	-0.340255	-0.482419
O11	O	-4.933593	-0.164520	-0.705771
O12	O	-4.455924	-0.157646	-0.254496
C13	C	-4.067996	-0.392991	-0.489418
C14	C	-4.130100	-0.534267	-0.488073
C15	C	-3.973159	-0.594135	-0.479438
C16	C	-4.031526	-0.726880	-0.478177
C17	C	-4.403791	-0.739879	-0.494194
C18	C	-4.345415	-0.607135	-0.495443
C19	C	-3.758239	-0.586632	-0.470198
C20	C	-3.816607	-0.719377	-0.468937
C21	C	-4.142820	-0.170363	-0.772365
C22	C	-4.252490	-0.170098	-0.950901
C23	C	-4.329705	0.058969	-0.484208
C24	C	-4.246844	0.200244	-0.485564
C25	C	-4.254879	-0.163656	-0.201257
C26	C	-4.124446	-0.163915	-0.022719
H27	H	-3.583826	-0.533294	-0.354076
H28	H	-3.930928	-0.158835	-0.947624
C29	C	-3.645003	-0.751747	-0.307157
H30	H	-3.691269	-0.842502	-0.311796
H31	H	-3.486570	-0.717537	-0.289025
H32	H	-3.651356	-0.715188	-0.220836
H33	H	-3.751915	-0.558023	-0.584216
C34	C	-4.513943	-0.176981	-1.052343
H35	H	-4.579572	-0.180909	-0.983349
H36	H	-4.519429	-0.102627	-1.103457
H37	H	-4.604142	-0.251681	-1.132796
C38	C	-3.829295	-0.783671	-0.616214
H39	H	-3.868880	-0.873748	-0.615342
H40	H	-3.948216	-0.768091	-0.713556
H41	H	-3.678587	-0.748850	-0.610580
H42	H	-4.473205	-0.558393	-0.502457
H43	H	-4.579098	-0.799223	-0.500189
