data_functionalizedCrystal
_audit_creation_method	'MofGen! by Chris Wilmer'
_symmetry_space_group_name_H-M	'P1'
_symmetry_Int_Tables_number	1
_symmetry_cell_setting	triclinic
loop_
_symmetry_equiv_pos_as_xyz
  x,y,z
_cell_length_a	14.519731
_cell_length_b	14.519709
_cell_length_c	18.366186
_cell_angle_alpha	89.992822
_cell_angle_beta	89.990864
_cell_angle_gamma	83.684499
loop_
_atom_site_label
_atom_site_type_symbol
_atom_site_fract_x
_atom_site_fract_y
_atom_site_fract_z
O1	O	1.223861	0.120986	-0.060553
O2	O	1.473861	0.370986	0.189447
O3	O	1.723861	0.620986	0.439447
O4	O	1.973861	0.870986	0.689447
O5	O	0.955387	0.135202	-0.060554
O6	O	1.205387	0.385202	0.189446
O7	O	1.455387	0.635202	0.439446
O8	O	1.705387	0.885202	0.689446
O9	O	1.096742	-0.006144	-0.060547
O10	O	1.346742	0.243856	0.189453
O11	O	1.596742	0.493856	0.439453
O12	O	1.846742	0.743856	0.689453
O13	O	1.082506	0.262332	-0.060560
O14	O	1.332506	0.512332	0.189440
O15	O	1.582506	0.762332	0.439440
O16	O	1.832506	1.012332	0.689440
O17	O	1.096718	-0.006151	0.060553
O18	O	1.346718	0.243849	0.310553
O19	O	1.596718	0.493849	0.560553
O20	O	1.846718	0.743849	0.810553
O21	O	0.955363	0.135195	0.060545
O22	O	1.205363	0.385195	0.310545
O23	O	1.455363	0.635195	0.560545
O24	O	1.705363	0.885195	0.810545
O25	O	1.223837	0.120979	0.060547
O26	O	1.473837	0.370979	0.310547
O27	O	1.723837	0.620979	0.560547
O28	O	1.973837	0.870979	0.810547
Zn29	Zn	1.089596	0.128086	0.079773
Zn30	Zn	1.339596	0.378086	0.329773
Zn31	Zn	1.589596	0.628086	0.579773
Zn32	Zn	1.839596	0.878086	0.829773
Zn33	Zn	1.089628	0.128095	-0.079781
Zn34	Zn	1.339628	0.378095	0.170219
Zn35	Zn	1.589628	0.628095	0.420219
Zn36	Zn	1.839628	0.878095	0.670219
O37	O	1.082482	0.262325	0.060539
O38	O	1.332482	0.512325	0.310539
O39	O	1.582482	0.762325	0.560539
O40	O	1.832482	1.012325	0.810539
C41	C	0.921016	0.134532	-0.000005
C42	C	1.171016	0.384532	0.249995
C43	C	1.421016	0.634532	0.499995
C44	C	1.671016	0.884532	0.749995
C45	C	0.818635	0.132536	-0.000005
C46	C	1.068635	0.382536	0.249995
C47	C	1.318635	0.632536	0.499995
C48	C	1.568635	0.882536	0.749995
C49	C	0.735491	0.130915	-0.000008
C50	C	0.985491	0.380915	0.249992
C51	C	1.235491	0.630915	0.499992
C52	C	1.485491	0.880915	0.749992
C53	C	0.631182	0.128888	-0.000008
C54	C	0.881182	0.378888	0.249992
C55	C	1.131182	0.628888	0.499992
C56	C	1.381182	0.878888	0.749992
C57	C	0.548043	0.127280	-0.000008
C58	C	0.798043	0.377280	0.249992
C59	C	1.048043	0.627280	0.499992
C60	C	1.298043	0.877280	0.749992
C61	C	0.443728	0.125253	-0.000009
C62	C	0.693728	0.375253	0.249991
C63	C	0.943728	0.625253	0.499991
C64	C	1.193728	0.875253	0.749991
C65	C	1.096067	-0.040507	0.000003
C66	C	1.346067	0.209493	0.250003
C67	C	1.596067	0.459493	0.500003
C68	C	1.846067	0.709493	0.750003
C69	C	1.094079	-0.142889	0.000003
C70	C	1.344079	0.107111	0.250003
C71	C	1.594079	0.357111	0.500003
C72	C	1.844079	0.607111	0.750003
C73	C	1.086759	-0.517785	-0.000016
C74	C	1.336759	-0.267785	0.249984
C75	C	1.586759	-0.017785	0.499984
C76	C	1.836759	0.232215	0.749984
C77	C	1.088792	-0.413477	-0.000010
C78	C	1.338792	-0.163477	0.249990
C79	C	1.588792	0.086523	0.499990
C80	C	1.838792	0.336523	0.749990
C81	C	1.090419	-0.330340	-0.000005
C82	C	1.340419	-0.080340	0.249995
C83	C	1.590419	0.169660	0.499995
C84	C	1.840419	0.419660	0.749995
C85	C	1.092452	-0.226025	-0.000001
C86	C	1.342452	0.023975	0.249999
C87	C	1.592452	0.273975	0.499999
C88	C	1.842452	0.523975	0.749999
C89	C	1.258209	0.121649	-0.000005
C90	C	1.508209	0.371649	0.249995
C91	C	1.758209	0.621649	0.499995
C92	C	2.008209	0.871649	0.749995
C93	C	1.360589	0.123645	-0.000009
C94	C	1.610589	0.373645	0.249991
C95	C	1.860589	0.623645	0.499991
C96	C	2.110589	0.873645	0.749991
C97	C	1.083157	0.296688	-0.000012
C98	C	1.333157	0.546688	0.249988
C99	C	1.583157	0.796688	0.499988
C100	C	1.833157	1.046688	0.749988
C101	C	1.085146	0.399070	-0.000017
C102	C	1.335146	0.649070	0.249983
C103	C	1.585146	0.899070	0.499983
C104	C	1.835146	1.149070	0.749983
N105	N	1.089581	0.128079	0.188664
N106	N	1.339581	0.378079	0.438664
N107	N	1.589581	0.628079	0.688664
N108	N	1.839581	0.878079	0.938664
N109	N	1.089650	0.128095	-0.188672
N110	N	1.339650	0.378095	0.061328
N111	N	1.589650	0.628095	0.311328
N112	N	1.839650	0.878095	0.561328
C113	C	1.152194	0.065522	0.226768
C114	C	1.402194	0.315522	0.476768
C115	C	1.652194	0.565522	0.726768
C116	C	1.902194	0.815522	0.976768
C117	C	1.152200	0.065518	0.302996
C118	C	1.402200	0.315518	0.552996
C119	C	1.652200	0.565518	0.802996
C120	C	1.902200	0.815518	1.052996
C121	C	1.089602	0.128087	0.341117
C122	C	1.339602	0.378087	0.591117
C123	C	1.589602	0.628087	0.841117
C124	C	1.839602	0.878087	1.091117
C125	C	1.026977	0.190649	0.303004
C126	C	1.276977	0.440649	0.553004
C127	C	1.526977	0.690649	0.803004
C128	C	1.776977	0.940649	1.053004
C129	C	1.026967	0.190645	0.226778
C130	C	1.276967	0.440645	0.476778
C131	C	1.526967	0.690645	0.726778
C132	C	1.776967	0.940645	0.976778
C133	C	1.077658	0.212057	0.461873
C134	C	1.327658	0.462057	0.711873
C135	C	1.577658	0.712057	0.961873
C136	C	1.827658	0.962057	1.211873
C137	C	1.077674	0.212062	0.538098
C138	C	1.327674	0.462062	0.788098
C139	C	1.577674	0.712062	1.038098
C140	C	1.827674	0.962062	1.288098
C141	C	1.089628	0.128098	0.576224
C142	C	1.339628	0.378098	0.826224
C143	C	1.589628	0.628098	1.076224
C144	C	1.839628	0.878098	1.326224
C145	C	1.101585	0.044126	0.538117
C146	C	1.351585	0.294126	0.788117
C147	C	1.601585	0.544126	1.038117
C148	C	1.851585	0.794126	1.288117
C149	C	1.101574	0.044122	0.461890
C150	C	1.351574	0.294122	0.711890
C151	C	1.601574	0.544122	0.961890
C152	C	1.851574	0.794122	1.211890
C153	C	1.089606	0.128098	0.423772
C154	C	1.339606	0.378098	0.673772
C155	C	1.589606	0.628098	0.923772
C156	C	1.839606	0.878098	1.173772
C157	C	1.152251	0.065532	0.696983
C158	C	1.402251	0.315532	0.946983
C159	C	1.652251	0.565532	1.196983
C160	C	1.902251	0.815532	1.446983
C161	C	1.152250	0.065526	0.773212
C162	C	1.402250	0.315526	1.023212
C163	C	1.652250	0.565526	1.273212
C164	C	1.902250	0.815526	1.523212
C165	C	1.027032	0.190665	0.773219
C166	C	1.277032	0.440665	1.023219
C167	C	1.527032	0.690665	1.273219
C168	C	1.777032	0.940665	1.523219
C169	C	1.027028	0.190662	0.696991
C170	C	1.277028	0.440662	0.946991
C171	C	1.527028	0.690662	1.196991
C172	C	1.777028	0.940662	1.446991
C173	C	1.089642	0.128097	0.658878
C174	C	1.339642	0.378097	0.908878
C175	C	1.589642	0.628097	1.158878
C176	C	1.839642	0.878097	1.408878
H177	H	1.203176	0.014575	0.195738
H178	H	1.453176	0.264575	0.445738
H179	H	1.703176	0.514575	0.695738
H180	H	1.953176	0.764575	0.945738
F181	F	1.114291	-0.045245	0.421336
F182	F	1.364291	0.204755	0.671336
F183	F	1.614291	0.454755	0.921336
F184	F	1.864291	0.704755	1.171336
F185	F	0.960405	0.257250	0.813787
F186	F	1.210405	0.507250	1.063787
F187	F	1.460405	0.757250	1.313787
F188	F	1.710405	1.007250	1.563787
F189	F	0.960353	0.257236	0.343576
F190	F	1.210353	0.507236	0.593576
F191	F	1.460353	0.757236	0.843576
F192	F	1.710353	1.007236	1.093576
H193	H	0.976046	0.241606	0.665965
H194	H	1.226046	0.491606	0.915965
H195	H	1.476046	0.741606	1.165965
H196	H	1.726046	0.991606	1.415965
F197	F	0.960324	0.257230	0.186223
F198	F	1.210324	0.507230	0.436223
F199	F	1.460324	0.757230	0.686223
F200	F	1.710324	1.007230	0.936223
H201	H	1.111318	-0.024246	0.569157
H202	H	1.361318	0.225754	0.819157
H203	H	1.611318	0.475754	1.069157
H204	H	1.861318	0.725754	1.319157
F205	F	1.064956	0.301432	0.578648
F206	F	1.314956	0.551432	0.828648
F207	F	1.564956	0.801432	1.078648
F208	F	1.814956	1.051432	1.328648
H209	H	1.203232	0.014584	0.665950
H210	H	1.453232	0.264584	0.915950
H211	H	1.703232	0.514584	1.165950
H212	H	1.953232	0.764584	1.415950
H213	H	1.203234	0.014580	0.804237
H214	H	1.453234	0.264580	1.054237
H215	H	1.703234	0.514580	1.304237
H216	H	1.953234	0.764580	1.554237
F217	F	1.065002	0.301431	0.421303
F218	F	1.315002	0.551431	0.671303
F219	F	1.565002	0.801431	0.921303
F220	F	1.815002	1.051431	1.171303
F221	F	1.218845	-0.001067	0.343555
F222	F	1.468845	0.248933	0.593555
F223	F	1.718845	0.498933	0.843555
F224	F	1.968845	0.748933	1.093555
