data_functionalizedCrystal
_audit_creation_method	'MofGen! by Chris Wilmer'
_symmetry_space_group_name_H-M	'P1'
_symmetry_Int_Tables_number	1
_symmetry_cell_setting	triclinic
loop_
_symmetry_equiv_pos_as_xyz
  x,y,z
_cell_length_a	6.817900
_cell_length_b	13.694049
_cell_length_c	10.943624
_cell_angle_alpha	78.135196
_cell_angle_beta	108.838799
_cell_angle_gamma	106.285429
loop_
_atom_site_label
_atom_site_type_symbol
_atom_site_fract_x
_atom_site_fract_y
_atom_site_fract_z
V1	V	-4.076265	-0.140244	-0.353027
O2	O	-4.075097	0.006767	-0.397278
O3	O	-4.015652	-0.278106	-0.301591
O4	O	-4.054835	-0.138074	-0.529360
O5	O	-4.035643	-0.134234	-0.167932
V6	V	-4.557981	-0.122661	-0.336843
O7	O	-4.341488	-0.178813	-0.388527
O8	O	-4.742956	-0.084092	-0.301343
O9	O	-4.395388	0.015201	-0.388280
O10	O	-4.676546	-0.269671	-0.292593
O11	O	-4.716000	-0.128670	-0.521938
O12	O	-4.356205	-0.124830	-0.160511
C13	C	-3.856809	-0.311714	-0.283373
C14	C	-3.888717	-0.424418	-0.242493
C15	C	-3.846647	-0.462883	-0.110154
C16	C	-3.876652	-0.568773	-0.071729
C17	C	-3.948715	-0.636208	-0.165639
C18	C	-3.990772	-0.597743	-0.297980
C19	C	-3.960780	-0.491843	-0.336409
C20	C	-4.062848	-0.665168	-0.391893
C21	C	-4.104906	-0.626703	-0.524235
C22	C	-4.074913	-0.520813	-0.562657
C23	C	-4.002850	-0.453378	-0.468748
C24	C	-4.092841	-0.771068	-0.353464
C25	C	-4.206974	-0.800028	-0.579719
C26	C	-4.176968	-0.694138	-0.618144
C27	C	-3.906789	-0.133089	-0.573913
C28	C	-3.970470	-0.132227	-0.717744
C29	C	-3.816923	-0.126427	-0.796939
C30	C	-3.982197	-0.212525	-0.872526
C31	C	-3.918688	-0.044604	-0.898437
C32	C	-4.134933	-0.218407	-0.791425
C33	C	-4.071364	-0.050409	-0.817339
C34	C	-4.236768	-0.136532	-0.892887
C35	C	-4.217572	0.048804	-0.406493
C36	C	-4.164903	0.161507	-0.447380
C37	C	-4.167591	-0.129819	-0.115950
C38	C	-4.083149	-0.130675	0.027880
H39	H	-3.978429	-0.367153	-0.500027
H40	H	-4.108314	0.018131	-0.792559
O41	O	-3.776761	-0.397526	-0.018778
C42	C	-3.746018	-0.454175	0.106272
H43	H	-3.847533	-0.535702	0.098898
H44	H	-3.794769	-0.416201	0.171811
H45	H	-3.570899	-0.456432	0.149225
O46	O	-3.938413	-0.294369	-0.902125
C47	C	-4.128670	-0.356193	-0.971478
H48	H	-4.269919	-0.342075	-0.949206
H49	H	-4.123392	-0.440398	-0.940983
H50	H	-4.146547	-0.336100	-1.080323
H51	H	-4.225746	-0.291942	-0.744913
H52	H	-3.827881	0.028833	-0.945132
H53	H	-4.109175	-0.489500	-0.670418
H54	H	-4.058591	-0.802375	-0.245711
O55	O	-4.449327	-0.141831	-0.942594
C56	C	-4.563186	-0.233507	-0.887402
H57	H	-4.460073	-0.292050	-0.850845
H58	H	-4.714681	-0.265267	-0.964163
H59	H	-4.606875	-0.217336	-0.802572
O60	O	-3.836214	-0.606184	0.056794
C61	C	-4.023704	-0.671472	0.081373
H62	H	-4.168319	-0.651202	0.002501
H63	H	-4.031870	-0.661489	0.180369
H64	H	-4.022535	-0.754516	0.081126
H65	H	-3.973142	-0.722427	-0.134345
H66	H	-4.211207	-0.662804	-0.725898
O67	O	-3.604457	-0.121325	-0.747014
C68	C	-3.490223	-0.030528	-0.803609
H69	H	-3.596997	-0.003150	-0.901328
H70	H	-3.344794	-0.046198	-0.819003
H71	H	-3.436503	0.031184	-0.736263
H72	H	-4.265650	-0.854934	-0.656188
