data_functionalizedCrystal
_audit_creation_method	'MofGen! by Chris Wilmer'
_symmetry_space_group_name_H-M	'P1'
_symmetry_Int_Tables_number	1
_symmetry_cell_setting	triclinic
loop_
_symmetry_equiv_pos_as_xyz
  x,y,z
_cell_length_a	14.421503
_cell_length_b	15.944551
_cell_length_c	15.944551
_cell_angle_alpha	83.498738
_cell_angle_beta	90.000609
_cell_angle_gamma	90.011571
loop_
_atom_site_label
_atom_site_type_symbol
_atom_site_fract_x
_atom_site_fract_y
_atom_site_fract_z
O1	O	0.077017	-1.114511	-0.108326
O2	O	0.077040	-0.869961	-0.121682
O3	O	0.077020	-0.998914	0.007271
O4	O	0.077038	-0.985558	-0.237279
O5	O	-0.077204	-0.998930	0.007262
O6	O	-0.077183	-0.869977	-0.121690
O7	O	-0.077206	-1.114526	-0.108334
Cu8	Cu	-0.091277	-0.992253	-0.115013
Cu9	Cu	0.091110	-0.992235	-0.115003
O10	O	-0.077186	-0.985574	-0.237287
C11	C	-0.000069	-0.838675	-0.121132
C12	C	-0.000060	-0.745429	-0.119470
N13	N	-0.219558	-0.992272	-0.115020
C14	C	-0.000092	-0.998367	0.038561
C15	C	-0.000093	-0.996705	0.131807
C16	C	-0.469196	-1.051913	-0.055379
C17	C	-0.530987	-0.976013	-0.039061
C18	C	-0.408719	-0.992253	-0.115009
C19	C	-0.531022	-1.068135	-0.131278
C20	C	-0.591441	-0.992242	-0.114998
C21	C	-0.469149	-0.916316	-0.098655
C22	C	-0.469179	-1.008487	-0.190904
C23	C	-0.530942	-0.932533	-0.174619
C24	C	-0.303458	-0.992261	-0.115014
C25	C	-0.696700	-0.992226	-0.114994
N26	N	0.219392	-0.992222	-0.114990
C27	C	-0.000096	-1.145813	-0.108885
C28	C	-0.000098	-1.239059	-0.110547
C29	C	-0.000084	-0.530572	-0.035565
C30	C	0.075959	-0.469544	-0.074523
C31	C	-0.000071	-0.574703	-0.116462
C32	C	-0.076093	-0.469582	-0.074551
C33	C	-0.000086	-0.409790	-0.113551
C34	C	0.076035	-0.514903	-0.155443
C35	C	-0.076086	-0.514947	-0.155459
C36	C	-0.000024	-0.453937	-0.194476
C37	C	-0.000062	-0.669705	-0.118137
C38	C	-0.000089	-0.314789	-0.111883
C39	C	-0.000072	-0.986120	-0.268577
C40	C	-0.000066	-0.987782	-0.361823
C41	C	-0.000072	-0.912801	0.346663
C42	C	-0.076117	-0.951771	0.407676
C43	C	-0.000085	-0.993698	0.302533
C44	C	0.075935	-0.951775	0.407668
C45	C	-0.000074	-0.990787	0.467445
C46	C	-0.076193	-1.032690	0.362317
C47	C	0.075927	-1.032682	0.362303
C48	C	-0.000136	-1.071711	0.423298
C49	C	-0.000092	-0.995372	0.207530
C50	C	-0.000073	-0.989119	0.562446
H51	H	-0.442084	-1.102312	-0.004923
C52	C	0.163492	-1.161566	0.375369
C53	C	0.162710	-1.078825	0.335123
H54	H	0.217077	-1.190044	0.358590
H55	H	0.109518	-1.190378	0.360017
H56	H	0.164426	-1.160387	0.434796
H57	H	0.161769	-1.080004	0.275696
H58	H	0.216698	-1.050005	0.350470
C59	C	-0.162388	-0.354702	-0.027952
C60	C	-0.162880	-0.442474	-0.028351
H61	H	-0.215961	-0.337971	0.000579
H62	H	-0.162485	-0.328205	-0.084389
H63	H	-0.108388	-0.338406	0.000241
H64	H	-0.216877	-0.458769	-0.056549
H65	H	-0.162792	-0.468979	0.028096
C66	C	-0.664411	-0.865353	-0.242592
C67	C	-0.567324	-0.864352	-0.242693
H68	H	-0.686871	-0.823263	-0.284620
H69	H	-0.686504	-0.854268	-0.188821
H70	H	-0.685701	-0.919204	-0.254282
H71	H	-0.546034	-0.810502	-0.230997
H72	H	-0.545222	-0.875431	-0.296477
C73	C	-0.079889	-0.780004	0.324427
C74	C	-0.000162	-0.822157	0.301691
H75	H	-0.079948	-0.724049	0.296657
H76	H	-0.080433	-0.778328	0.383782
H77	H	-0.133356	-0.809043	0.308247
H78	H	0.053306	-0.793122	0.317876
H79	H	0.000391	-0.823829	0.242323
H80	H	0.140394	-0.534885	-0.189630
C81	C	-0.507564	-0.776309	-0.068494
C82	C	-0.432625	-0.829659	-0.079968
H83	H	-0.485012	-0.722812	-0.056961
H84	H	-0.544267	-0.800339	-0.022451
H85	H	-0.544229	-0.769584	-0.118298
H86	H	-0.395964	-0.836388	-0.030162
H87	H	-0.395907	-0.805623	-0.126015
C88	C	-0.162382	-0.905205	0.522600
C89	C	-0.162896	-0.905593	0.434827
H90	H	-0.215956	-0.876698	0.539357
H91	H	-0.108388	-0.877005	0.538878
H92	H	-0.162469	-0.961654	0.549091
H93	H	-0.162802	-0.849145	0.408336
H94	H	-0.216904	-0.933792	0.418541
H95	H	-0.442009	-1.022253	-0.255071
C96	C	-0.536469	-1.217151	-0.087384
C97	C	-0.567664	-1.154775	-0.149895
H98	H	-0.559072	-1.270642	-0.098885
H99	H	-0.558573	-1.205236	-0.033882
H100	H	-0.470605	-1.217887	-0.087002
H101	H	-0.633528	-1.154036	-0.150273
H102	H	-0.545565	-1.166694	-0.203411
C103	C	0.000606	-1.160178	0.555589
C104	C	-0.000166	-1.162440	0.468057
H105	H	0.000599	-1.216191	0.583216
H106	H	-0.052904	-1.131267	0.571822
H107	H	0.054655	-1.131553	0.571091
H108	H	-0.054219	-1.191060	0.452554
H109	H	0.053349	-1.191363	0.451817
H110	H	-0.558137	-0.962272	0.025125
H111	H	0.140230	-0.917541	0.427749
C112	C	0.079723	-0.432026	-0.327340
C113	C	0.000037	-0.409164	-0.285199
H114	H	0.079765	-0.404379	-0.383345
H115	H	0.080229	-0.491400	-0.328879
H116	H	0.133219	-0.415789	-0.298382
H117	H	-0.053459	-0.425407	-0.314153
H118	H	-0.000477	-0.349776	-0.283665
H119	H	0.000005	-0.563905	0.031573
H120	H	0.140243	-0.449428	-0.040304
H121	H	-0.140373	-0.535085	-0.189650
H122	H	-0.140554	-1.066884	0.342324
