data_functionalizedCrystal
_audit_creation_method	'MofGen! by Chris Wilmer'
_symmetry_space_group_name_H-M	'P1'
_symmetry_Int_Tables_number	1
_symmetry_cell_setting	triclinic
loop_
_symmetry_equiv_pos_as_xyz
  x,y,z
_cell_length_a	10.540539
_cell_length_b	11.792254
_cell_length_c	10.268362
_cell_angle_alpha	89.994545
_cell_angle_beta	89.997484
_cell_angle_gamma	84.362045
loop_
_atom_site_label
_atom_site_type_symbol
_atom_site_fract_x
_atom_site_fract_y
_atom_site_fract_z
O1	O	1.685375	0.159956	-0.108240
O2	O	1.315913	0.175027	-0.108256
O3	O	1.509601	0.002345	-0.108238
O4	O	1.491686	0.332638	-0.108257
O5	O	1.509584	0.002338	0.108363
O6	O	1.315896	0.175020	0.108345
O7	O	1.685358	0.159949	0.108361
Cu8	Cu	1.500625	0.167483	0.128130
Cu9	Cu	1.500645	0.167492	-0.128025
O10	O	1.491669	0.332630	0.108343
C11	C	1.268605	0.173893	0.000043
C12	C	1.127668	0.170512	0.000037
C13	C	0.944657	0.040941	0.000550
C14	C	1.091264	0.044369	0.000048
C15	C	1.065811	0.231221	-0.123652
C16	C	0.919280	0.226916	-0.123741
C17	C	0.918764	0.229474	0.122574
C18	C	1.065742	0.230636	0.124195
C19	C	1.508464	-0.039952	0.000062
C20	C	1.505086	-0.165974	0.000061
C21	C	1.732665	0.161083	0.000060
C22	C	1.873603	0.164464	0.000057
C23	C	1.502342	-0.268318	0.000056
C24	C	1.498910	-0.396713	0.000044
C25	C	1.492806	0.374928	0.000041
C26	C	1.496184	0.500949	0.000033
N27	N	1.500620	0.167477	0.308296
N28	N	1.500660	0.167490	-0.308191
C29	C	1.500639	0.167490	0.573967
C30	C	1.500625	0.167486	0.426129
H31	H	1.106839	0.186285	0.215699
Br32	Br	0.897262	-0.042126	0.148399
Br33	Br	1.102608	0.385610	-0.131367
Br34	Br	1.161072	-0.035442	-0.148237
Br35	Br	0.894579	-0.041774	-0.146451
H36	H	0.871020	0.317636	-0.129361
Br37	Br	1.137025	0.160945	-0.277074
H38	H	0.887341	0.188648	0.216329
H39	H	1.089673	0.322602	0.131658
Br40	Br	0.839568	0.381333	0.123958
H41	H	1.134024	-0.003399	0.088714
Br42	Br	0.872505	0.152142	-0.277836
