data_functionalizedCrystal
_audit_creation_method	'MofGen! by Chris Wilmer'
_symmetry_space_group_name_H-M	'P1'
_symmetry_Int_Tables_number	1
_symmetry_cell_setting	triclinic
loop_
_symmetry_equiv_pos_as_xyz
  x,y,z
_cell_length_a	10.540539
_cell_length_b	9.616153
_cell_length_c	15.537862
_cell_angle_alpha	90.005071
_cell_angle_beta	65.894963
_cell_angle_gamma	90.004826
loop_
_atom_site_label
_atom_site_type_symbol
_atom_site_fract_x
_atom_site_fract_y
_atom_site_fract_z
O1	O	1.623282	0.115586	0.132346
O2	O	1.247969	0.115603	0.144816
O3	O	1.508698	0.115579	0.001936
O4	O	1.362553	0.115610	0.275226
O5	O	1.508670	-0.115712	0.001939
O6	O	1.247941	-0.115688	0.144819
O7	O	1.623254	-0.115706	0.132349
Zn8	Zn	1.435593	-0.152419	0.138584
Zn9	Zn	1.435630	0.152317	0.138580
O10	O	1.362525	-0.115681	0.275229
C11	C	1.201095	-0.000040	0.143882
C12	C	1.061470	-0.000034	0.141084
N13	N	1.435577	-0.360394	0.138586
C14	C	0.928762	-0.000586	0.033875
C15	C	1.074039	-0.000050	0.036711
C16	C	0.976052	0.132045	0.191311
C17	C	0.831192	0.132141	0.187749
C18	C	0.829667	-0.130880	0.189876
C19	C	0.976194	-0.132611	0.190837
C20	C	1.295911	-0.580751	0.214761
C21	C	1.296004	-0.419583	0.215047
C22	C	1.557755	-0.418847	0.160879
C23	C	1.556935	-0.580065	0.161418
C24	C	1.454507	-0.580315	0.039869
C25	C	1.451157	-0.419088	0.040509
C26	C	1.670128	-0.000059	0.133283
C27	C	1.809753	-0.000056	0.136080
C28	C	1.523975	-0.000067	-0.033057
C29	C	1.569523	-0.000070	-0.137330
N30	N	1.435659	0.360292	0.138571
C31	C	1.754146	-0.000078	-0.294716
C32	C	1.711333	-0.000076	-0.196735
C33	C	1.470468	-0.000058	-0.175890
C34	C	1.513261	-0.000053	-0.273871
C35	C	1.655102	-0.000064	-0.333277
C36	C	1.414216	-0.000039	-0.312432
C37	C	1.457006	-0.000041	-0.410405
C38	C	1.598841	-0.000057	-0.469817
C39	C	1.697892	-0.000066	-0.431250
C40	C	1.272376	-0.000037	-0.253024
C41	C	1.173331	-0.000024	-0.291585
C42	C	1.216121	-0.000016	-0.389560
C43	C	1.357955	-0.000032	-0.448972
C44	C	1.117070	-0.000007	-0.428127
C45	C	1.159860	-0.000009	-0.526100
C46	C	1.400745	-0.000034	-0.546945
C47	C	1.347248	-0.000032	0.310222
C48	C	1.301701	-0.000020	0.414494
H49	H	1.135338	-0.094731	-0.002809
C50	C	1.273239	-0.635450	0.313130
N51	N	1.256167	-0.676651	0.387221
H52	H	0.747713	0.138144	0.262812
C53	C	1.698504	-0.632753	0.089388
N54	N	1.805140	-0.672432	0.035148
H55	H	1.279260	-0.380996	0.288274
H56	H	0.820556	0.230863	0.150624
C57	C	1.699055	-0.367045	0.087960
N58	N	1.805481	-0.328025	0.033037
C59	C	1.050906	0.000013	-0.568519
N60	N	0.968838	0.000027	-0.600469
H61	H	1.057844	-0.000019	-0.243204
H62	H	1.203733	-0.380065	0.201633
H63	H	1.001583	-0.000011	-0.379744
C64	C	0.957269	0.138706	0.294859
N65	N	0.943126	0.143720	0.372851
H66	H	0.919672	-0.095308	-0.007357
C67	C	1.592891	-0.631831	-0.036743
N68	N	1.697122	-0.670642	-0.094441
C69	C	1.155890	0.128074	-0.017055
N70	N	1.217540	0.224583	-0.057552
C71	C	0.914197	0.126638	-0.021604
N72	N	0.903220	0.222462	-0.063390
C73	C	1.545879	-0.364292	0.257069
N74	N	1.536922	-0.323208	0.329524
C75	C	1.556778	-0.000033	-0.612297
N76	N	1.674297	-0.000034	-0.661521
H77	H	1.869647	-0.000066	-0.343089
H78	H	1.361513	-0.380885	0.023612
C79	C	1.055893	0.264831	0.144168
N80	N	1.116031	0.364843	0.108653
H81	H	0.814089	-0.230995	0.156099
H82	H	1.034504	-0.230323	0.154145
C83	C	1.314447	-0.000037	-0.110533
N84	N	1.196929	-0.000014	-0.061307
C85	C	1.820303	-0.000082	-0.154323
N86	N	1.902377	-0.000085	-0.122379
H87	H	0.964421	-0.140577	0.266932
H88	H	0.746776	-0.131764	0.265263
H89	H	1.547223	-0.617646	0.233428
C90	C	1.340043	-0.635295	0.011226
N91	N	1.253818	-0.676705	-0.010338
H92	H	1.549795	-0.378803	-0.018912
H93	H	1.633678	-0.000053	-0.549592
H94	H	1.203234	-0.619559	0.201554
H95	H	1.813393	-0.000055	-0.479623
H96	H	1.237541	-0.000045	-0.173249
