data_functionalizedCrystal
_audit_creation_method	'MofGen! by Chris Wilmer'
_symmetry_space_group_name_H-M	'P1'
_symmetry_Int_Tables_number	1
_symmetry_cell_setting	triclinic
loop_
_symmetry_equiv_pos_as_xyz
  x,y,z
_cell_length_a	14.446369
_cell_length_b	31.640172
_cell_length_c	14.446369
_cell_angle_alpha	90.005514
_cell_angle_beta	60.003968
_cell_angle_gamma	59.995816
loop_
_atom_site_label
_atom_site_type_symbol
_atom_site_fract_x
_atom_site_fract_y
_atom_site_fract_z
Zr1	Zr	1.013120	0.407162	-0.121343
O2	O	1.206249	0.339669	-0.269162
O3	O	0.819998	0.427855	-0.076030
O4	O	1.013106	0.427851	-0.269138
O5	O	1.013149	0.339672	0.076275
O6	O	1.013087	0.497408	-0.269118
O7	O	1.013141	0.339672	-0.076053
O8	O	0.667652	0.497415	0.076317
O9	O	1.358584	0.339666	-0.269160
O10	O	0.899415	0.488587	-0.056688
O11	O	0.899435	0.436677	0.056979
O12	O	1.126795	0.436673	-0.170381
O13	O	1.126816	0.384763	-0.056715
Zr14	Zr	1.013103	0.518097	0.121636
Zr15	Zr	1.013089	0.518097	-0.121310
Zr16	Zr	1.013133	0.407162	0.121604
Zr17	Zr	1.256077	0.407157	-0.121340
Zr18	Zr	0.770145	0.518102	0.121634
O19	O	1.206225	0.497404	0.076324
O20	O	1.206206	0.497405	-0.269115
O21	O	1.206268	0.339668	0.076278
O22	O	0.819973	0.585591	0.269455
O23	O	0.819955	0.585591	-0.075984
O24	O	0.820017	0.427855	0.269409
O25	O	1.013073	0.585587	-0.075982
O26	O	1.013116	0.497408	0.269432
O27	O	1.013136	0.427851	0.269411
O28	O	1.013082	0.585587	0.076347
O29	O	1.358560	0.427845	-0.269134
O30	O	0.667662	0.497415	0.269428
O31	O	0.667638	0.585594	0.269453
O32	O	0.667628	0.585594	0.076343
O33	O	1.358595	0.339666	-0.076049
O34	O	1.358571	0.427844	-0.076024
O35	O	0.899427	0.488587	0.170675
O36	O	0.899407	0.540496	0.057009
O37	O	1.126787	0.488582	-0.056685
O38	O	1.126808	0.436673	0.056981
C39	C	0.709209	0.462636	0.000143
C40	C	0.606067	0.462638	0.000142
C41	C	0.459738	0.495210	-0.071898
C42	C	0.566663	0.495395	-0.071590
C43	C	0.479210	0.486520	0.123673
C44	C	0.371831	0.486758	0.123283
C45	C	0.546819	0.406137	-0.050336
C46	C	0.655292	0.406227	-0.052841
C47	C	1.013150	0.323866	0.000106
C48	C	1.013163	0.276771	0.000093
C49	C	0.894409	0.011864	0.059517
C50	C	0.894386	-0.165121	0.059539
O51	O	0.793444	-0.164961	0.110053
N52	N	1.013075	-0.214349	0.000191
C53	C	1.131779	-0.219331	-0.059162
O54	O	1.232731	-0.265263	-0.109631
C55	C	1.131800	-0.042346	-0.059177
C56	C	1.013103	0.006882	0.000166
C57	C	0.775721	0.061090	0.118856
C58	C	0.775728	0.105333	0.118845
C59	C	0.894423	0.100351	0.059494
C60	C	1.013110	0.051125	0.000155
C61	C	1.250502	-0.047328	-0.118522
C62	C	1.250497	-0.003077	-0.118518
C63	C	1.131800	0.046151	-0.059175
C64	C	1.131811	0.090386	-0.059207
N65	N	1.013122	0.139614	0.000142
C66	C	0.894427	0.144597	0.059492
C67	C	1.131759	-0.312248	-0.059151
C68	C	1.131754	-0.356494	-0.059149
C69	C	0.894361	-0.302282	0.059553
C70	C	0.894367	-0.258035	0.059544
C71	C	1.013070	-0.263020	0.000197
C72	C	0.894451	0.237509	0.059463
C73	C	0.894468	0.281754	0.059443
C74	C	1.131861	0.227537	-0.059254
C75	C	1.131844	0.183296	-0.059239
C76	C	1.013129	0.188285	0.000128
O77	O	1.232701	0.090265	-0.109684
O78	O	0.793491	0.190534	0.109975
C79	C	0.894402	-0.032379	0.059528
C80	C	1.013089	-0.081605	0.000189
C81	C	1.131784	-0.086587	-0.059162
C82	C	1.013084	-0.125851	0.000191
C83	C	0.894390	-0.120869	0.059541
C84	C	0.775701	-0.071640	0.118890
C85	C	0.775708	-0.027397	0.118878
C86	C	1.250473	-0.135816	-0.118510
C87	C	1.250456	-0.180057	-0.118495
C88	C	1.131762	-0.175075	-0.059145
C89	C	1.317014	0.462624	0.000150
C90	C	1.420156	0.462622	0.000152
C91	C	1.013095	0.462630	-0.303743
C92	C	1.013089	0.462630	-0.406880
C93	C	1.013073	0.601393	0.000187
C94	C	1.013060	0.648488	0.000201
C95	C	0.869695	0.495535	-0.481854
C96	C	0.869598	0.495393	-0.374526
C97	C	1.084332	0.406225	-0.481455
C98	C	1.083422	0.406405	-0.588314
C99	C	1.086353	0.485674	-0.589865
C100	C	1.083650	0.486816	-0.481193
C101	C	1.013128	0.462629	0.304036
C102	C	1.013134	0.462629	0.407173
C103	C	0.709170	0.601399	0.000184
C104	C	0.606016	0.648496	0.000196
C105	C	0.709225	0.462635	0.304033
C106	C	0.606089	0.462637	0.407169
C107	C	0.709187	0.601399	0.304073
C108	C	0.606038	0.648496	0.407223
C109	C	1.317035	0.323861	-0.303780
C110	C	1.420185	0.276764	-0.406929
C111	C	1.317052	0.323860	0.000110
C112	C	1.420207	0.276763	0.000097
C113	C	1.316997	0.462624	-0.303739
C114	C	1.420133	0.462622	-0.406875
C115	C	0.557577	0.643517	-0.059156
C116	C	0.460666	0.687765	-0.059167
C117	C	0.412188	0.736992	0.000182
C118	C	0.460636	0.741970	0.059536
C119	C	0.557552	0.697722	0.059540
C120	C	0.557587	0.697714	0.396331
C121	C	0.460681	0.741971	0.493242
C122	C	0.412221	0.737008	0.601044
C123	C	0.460681	0.687785	0.611934
C124	C	0.557592	0.643529	0.515024
C125	C	1.468647	0.227545	-0.396037
C126	C	1.565583	0.183289	-0.492948
C127	C	1.614048	0.188251	-0.600750
C128	C	1.565582	0.237474	-0.611640
C129	C	1.468654	0.281730	-0.514730
C130	C	1.468655	0.281742	0.059440
C131	C	1.565594	0.237494	0.059424
C132	C	1.614075	0.188267	0.000072
C133	C	1.565622	0.183289	-0.059278
C134	C	1.468693	0.227537	-0.059268
C135	C	0.459784	0.429743	0.482140
C136	C	0.566705	0.429880	0.374813
C137	C	0.479221	0.519045	0.481737
C138	C	0.371847	0.518870	0.588595
C139	C	0.546841	0.439598	0.590160
C140	C	0.655311	0.438451	0.481489
H141	H	0.656009	0.479380	-0.162555
H142	H	0.586424	0.398690	0.594265
H143	H	1.605055	0.241509	-0.699424
Cl144	Cl	1.399692	-0.241941	-0.193108
Cl145	Cl	1.626487	0.121414	-0.479232
Cl146	Cl	0.231695	0.550931	0.185685
H147	H	1.692973	0.152211	-0.679651
H148	H	0.421151	0.782057	0.107856
Cl149	Cl	0.618482	0.581657	0.528737
H150	H	0.421231	0.683702	-0.107500
H151	H	0.813686	0.479698	-0.480826
H152	H	0.813391	0.537178	-0.479504
Cl153	Cl	0.290386	0.792650	0.722864
Cl154	Cl	0.782856	0.470676	-0.291533
H155	H	0.597030	0.701764	0.308561
Cl156	Cl	1.245898	0.366495	-0.709647
H157	H	1.605027	0.241557	0.107758
H158	H	0.596978	0.701784	0.107878
H159	H	1.347130	-0.139880	-0.166843
H160	H	1.429249	0.223476	-0.107589
Cl161	Cl	0.399744	0.681555	0.747466
Cl162	Cl	1.007961	0.377537	-0.401800
Cl163	Cl	0.618506	0.581637	-0.133782
Cl164	Cl	1.407739	0.221293	-0.260526
H165	H	0.341884	0.464555	0.179883
Cl166	Cl	0.231721	0.547356	0.588180
H167	H	1.429197	0.321805	-0.523613
H168	H	1.429189	0.321821	0.107779
H169	H	1.032808	0.387956	-0.588051
H170	H	0.333272	0.773018	0.000171
H171	H	1.031694	0.528373	-0.429764
H172	H	0.421235	0.782047	0.484355
Cl173	Cl	0.513564	0.451643	0.210158
Cl174	Cl	0.419656	0.550087	0.186517
H175	H	1.605111	0.143203	-0.107601
H176	H	1.693001	0.152242	0.000073
Cl177	Cl	0.704669	0.365750	0.291002
Cl178	Cl	0.517294	0.365449	0.478513
Cl179	Cl	1.247223	0.366725	-0.523508
Cl180	Cl	0.321344	0.454194	0.480543
Cl181	Cl	0.508857	0.454562	0.291769
H182	H	0.341887	0.544719	0.667182
H183	H	0.501463	0.544624	0.508976
Cl184	Cl	0.783285	0.559520	-0.290702
Cl185	Cl	0.419672	0.547734	0.402073
Cl186	Cl	0.795012	0.374285	0.402102
Cl187	Cl	0.607919	0.375336	-0.188659
Cl188	Cl	0.508560	0.476418	0.710936
H189	H	0.496980	0.479271	-0.163096
Cl190	Cl	0.508808	0.559727	-0.017518
Cl191	Cl	0.321290	0.559155	-0.018336
Cl192	Cl	0.795033	0.378672	-0.193338
Cl193	Cl	0.704916	0.471602	0.520899
Cl194	Cl	0.745143	-0.196152	0.134152
Cl195	Cl	0.508562	0.368473	0.030297
Cl196	Cl	0.704902	0.365584	0.019761
H197	H	0.797807	0.321837	0.107771
H198	H	0.797781	0.241579	0.107807
H199	H	0.679073	0.145413	0.167163
Cl200	Cl	0.626485	0.067366	0.193481
Cl201	Cl	0.745146	-0.296026	0.134166
Cl202	Cl	1.249494	0.448847	-0.710628
H203	H	1.228409	-0.396575	-0.107487
H204	H	1.228427	-0.316316	-0.107486
H205	H	1.188332	0.465340	-0.506713
Cl206	Cl	1.399732	-0.109206	-0.193118
Cl207	Cl	1.281065	0.121409	-0.133865
Cl208	Cl	1.399733	-0.009348	-0.193128
H209	H	1.228499	0.223489	-0.107580
H210	H	0.679052	0.012683	0.167204
H211	H	0.679055	-0.067591	0.167208
H212	H	1.040443	0.526582	-0.593969
