data_functionalizedCrystal
_audit_creation_method	'MofGen! by Chris Wilmer'
_symmetry_space_group_name_H-M	'P1'
_symmetry_Int_Tables_number	1
_symmetry_cell_setting	triclinic
loop_
_symmetry_equiv_pos_as_xyz
  x,y,z
_cell_length_a	10.654544
_cell_length_b	10.654545
_cell_length_c	14.586319
_cell_angle_alpha	89.998553
_cell_angle_beta	89.995432
_cell_angle_gamma	84.485139
loop_
_atom_site_label
_atom_site_type_symbol
_atom_site_fract_x
_atom_site_fract_y
_atom_site_fract_z
O1	O	1.667841	0.176396	-0.076258
O2	O	1.302363	0.193203	-0.076255
O3	O	1.493504	0.002060	-0.076256
O4	O	1.476700	0.367539	-0.076257
O5	O	1.493491	0.002057	0.076225
O6	O	1.302349	0.193200	0.076226
O7	O	1.667828	0.176393	0.076223
Cu8	Cu	1.485087	0.184796	0.090147
Cu9	Cu	1.485103	0.184800	-0.090179
O10	O	1.476686	0.367536	0.076224
C11	C	1.255558	0.191967	-0.000014
C12	C	1.116115	0.188275	-0.000012
C13	C	1.116075	0.188287	0.166227
C14	C	1.050546	0.186562	0.249343
C15	C	0.919527	0.183091	0.249339
C16	C	0.854035	0.181341	0.166210
C17	C	0.919565	0.183066	0.083093
C18	C	1.050586	0.186541	0.083106
C19	C	0.919606	0.183046	-0.083144
C20	C	1.050623	0.186526	-0.083142
C21	C	0.854114	0.181296	-0.166274
C22	C	0.919643	0.183031	-0.249393
C23	C	1.050669	0.186503	-0.249385
C24	C	1.116153	0.188251	-0.166259
C25	C	1.492263	-0.044739	-0.000017
C26	C	1.488571	-0.184182	-0.000022
C27	C	1.488601	-0.184188	-0.166262
C28	C	1.486885	-0.249700	-0.249381
C29	C	1.483416	-0.380719	-0.249382
C30	C	1.481659	-0.446228	-0.166255
C31	C	1.483374	-0.380715	-0.083136
C32	C	1.486847	-0.249694	-0.083144
C33	C	1.483335	-0.380709	0.083102
C34	C	1.486813	-0.249691	0.083105
C35	C	1.481577	-0.446218	0.166229
C36	C	1.483301	-0.380706	0.249350
C37	C	1.486772	-0.249680	0.249348
C38	C	1.488528	-0.184179	0.166224
C39	C	1.714633	0.177629	-0.000020
C40	C	1.854076	0.181321	-0.000028
C41	C	1.477927	0.414335	-0.000017
C42	C	1.481620	0.553778	-0.000018
N43	N	1.485085	0.184793	0.216979
N44	N	1.485115	0.184793	-0.217011
C45	C	1.569751	0.100184	0.451985
C46	C	1.569755	0.100181	0.547966
C47	C	1.400440	0.269406	0.547977
C48	C	1.400431	0.269402	0.451997
C49	C	1.485094	0.184793	0.404004
C50	C	1.485106	0.184794	0.595964
C51	C	1.485110	0.184791	0.700032
C52	C	1.485090	0.184793	0.299930
H53	H	0.747355	0.178499	0.166214
O54	O	1.114138	0.188037	0.330115
C55	C	1.095364	0.078631	0.380698
H56	H	1.068638	0.001781	0.332068
H57	H	1.185977	0.044473	0.418408
H58	H	1.016300	0.101170	0.432521
H59	H	1.638687	0.031288	0.412911
O60	O	1.318242	0.351481	0.405240
C61	C	1.336412	0.333352	0.310236
H62	H	1.382477	0.233931	0.297130
H63	H	1.241427	0.346445	0.273764
H64	H	1.400022	0.405016	0.282990
O65	O	1.114521	0.188129	-0.330045
C66	C	1.244202	0.191606	-0.312221
H67	H	1.266941	0.152402	-0.240783
H68	H	1.301451	0.132054	-0.365300
H69	H	1.269078	0.293172	-0.316170
H70	H	1.491440	-0.077507	-0.166269
O71	O	1.652115	0.017949	0.594432
C72	C	1.726809	-0.056748	0.531487
H73	H	1.728669	-0.005240	0.463068
H74	H	1.826939	-0.074978	0.559209
H75	H	1.685222	-0.150426	0.521283
O76	O	0.856227	0.181286	-0.330218
C77	C	0.942148	0.183600	-0.403580
H78	H	1.040396	0.146390	-0.379211
H79	H	0.911747	0.121730	-0.461714
H80	H	0.943779	0.284549	-0.429138
H81	H	1.331511	0.338295	0.587062
H82	H	1.222755	0.191130	0.166238
H83	H	1.488149	-0.196345	0.317034
H84	H	0.747433	0.178461	-0.166271
H85	H	1.222834	0.191086	-0.166245
H86	H	0.866172	0.181695	0.317020
O87	O	1.488454	-0.185899	-0.330064
C88	C	1.381881	-0.096841	-0.335070
H89	H	1.346162	-0.072791	-0.262910
H90	H	1.408776	-0.007695	-0.370235
H91	H	1.304530	-0.138021	-0.376112
O92	O	1.481776	-0.444173	-0.330204
C93	C	1.484015	-0.358261	-0.403574
H94	H	1.526204	-0.269726	-0.379223
H95	H	1.543854	-0.403574	-0.461718
H96	H	1.383800	-0.332011	-0.429111
H97	H	1.478819	-0.552908	-0.166263
H98	H	1.478745	-0.552899	0.166222
O99	O	1.481420	-0.444456	0.330032
C100	C	1.370810	-0.506928	0.335010
H101	H	1.334104	-0.522122	0.262840
H102	H	1.392773	-0.602051	0.370188
H103	H	1.296114	-0.447132	0.376026
H104	H	1.491360	-0.077497	0.166214
