data_functionalizedCrystal
_audit_creation_method	'MofGen! by Chris Wilmer'
_symmetry_space_group_name_H-M	'P1'
_symmetry_Int_Tables_number	1
_symmetry_cell_setting	triclinic
loop_
_symmetry_equiv_pos_as_xyz
  x,y,z
_cell_length_a	17.699083
_cell_length_b	15.995350
_cell_length_c	16.776229
_cell_angle_alpha	89.995580
_cell_angle_beta	89.998886
_cell_angle_gamma	83.387695
loop_
_atom_site_label
_atom_site_type_symbol
_atom_site_fract_x
_atom_site_fract_y
_atom_site_fract_z
O1	O	1.004255	0.105885	-0.066173
O2	O	0.783899	0.119661	-0.066198
O3	O	0.900100	-0.009127	-0.066184
O4	O	0.888053	0.234673	-0.066187
O5	O	0.900085	-0.009135	0.066393
O6	O	0.783884	0.119653	0.066378
O7	O	1.004239	0.105877	0.066404
Zn8	Zn	0.894059	0.112764	0.087441
Zn9	Zn	0.894079	0.112774	-0.087235
O10	O	0.888038	0.234665	0.066390
C11	C	0.755694	0.119163	0.000087
C12	C	0.671673	0.117683	0.000077
C13	C	0.623178	0.193278	0.000076
C14	C	0.544232	0.191882	0.000087
C15	C	0.513783	0.114889	0.000092
C16	C	0.562285	0.039287	0.000095
C17	C	0.641229	0.040685	0.000090
C18	C	0.243912	0.033651	0.000115
C19	C	0.164962	0.032259	0.000117
C20	C	0.146916	0.184848	0.000111
C21	C	0.225860	0.186245	0.000106
C22	C	0.274354	0.110644	0.000114
C23	C	0.359956	0.112159	0.000104
C24	C	0.428183	0.113373	0.000096
C25	C	0.899595	-0.040324	0.000103
C26	C	0.898101	-0.133272	0.000098
C27	C	0.892739	-0.471008	0.000100
C28	C	0.809983	-0.423406	-0.000207
C29	C	0.811476	-0.326719	0.000092
C30	C	0.895399	-0.303453	0.000099
C31	C	0.936209	-0.344618	0.075810
C32	C	0.934130	-0.441250	0.075873
C33	C	0.935857	-0.441602	-0.074891
C34	C	0.935837	-0.344657	-0.075892
C35	C	0.896907	-0.208759	0.000101
C36	C	0.891234	-0.565703	0.000104
C37	C	1.032445	0.106375	0.000117
C38	C	1.116465	0.107856	0.000122
C39	C	0.888544	0.265863	0.000101
C40	C	0.890037	0.358810	0.000101
N41	N	0.894051	0.112756	0.206652
N42	N	0.894094	0.112775	-0.206446
C43	C	0.945520	0.055752	0.248375
C44	C	0.945524	0.055752	0.331827
C45	C	0.894062	0.112760	0.373555
C46	C	0.842587	0.169766	0.331825
C47	C	0.842580	0.169762	0.248375
C48	C	0.842614	0.169783	0.668373
C49	C	0.842627	0.169784	0.751829
C50	C	0.945559	0.055772	0.751825
C51	C	0.945552	0.055768	0.668375
C52	C	0.894074	0.112771	0.626653
C53	C	0.894069	0.112770	0.536164
C54	C	0.894070	0.112765	0.464041
H55	H	0.504750	0.253440	0.000085
O56	O	0.099698	0.258212	0.000147
C57	C	0.023490	0.240476	0.000135
H58	H	0.020463	0.174716	0.025241
H59	H	0.000656	0.243696	-0.063467
C60	C	-0.021104	0.386350	0.021289
C61	C	-0.024822	0.305585	0.052131
H62	H	-0.050907	0.426513	0.053360
H63	H	0.030239	0.398300	0.021294
H64	H	-0.040131	0.389021	-0.031712
H65	H	-0.005787	0.302911	0.105127
H66	H	-0.076163	0.293635	0.052136
H67	H	0.250646	0.248941	0.000098
H68	H	0.140174	-0.030442	0.000122
O69	O	0.770426	-0.445306	-0.064953
C70	C	0.696560	-0.401609	-0.063443
H71	H	0.696599	-0.342267	-0.025822
H72	H	0.655420	-0.443658	-0.036492
C73	C	0.671344	-0.450124	-0.195225
C74	C	0.671393	-0.377235	-0.149024
H75	H	0.655818	-0.435092	-0.248016
H76	H	0.721108	-0.479566	-0.196242
H77	H	0.637061	-0.485158	-0.172757
H78	H	0.705682	-0.342208	-0.171487
H79	H	0.621634	-0.347787	-0.148013
O80	O	0.290905	-0.039862	0.000083
C81	C	0.247098	-0.108114	0.000106
H82	H	0.188179	-0.086738	-0.024995
H83	H	0.241474	-0.131722	0.063711
C84	C	0.358797	-0.205909	-0.021051
C85	C	0.286434	-0.179656	-0.051887
H86	H	0.383062	-0.250041	-0.053120
H87	H	0.388312	-0.159927	-0.021064
H88	H	0.354101	-0.225577	0.031952
H89	H	0.291132	-0.159979	-0.104886
H90	H	0.256921	-0.225636	-0.051885
H91	H	0.680714	-0.020873	0.000090
O92	O	0.900349	-0.311880	-0.142693
C93	C	0.903418	-0.224212	-0.144624
H94	H	0.953121	-0.207948	-0.106677
H95	H	0.848070	-0.190449	-0.120030
C96	C	0.853349	-0.216001	-0.277824
C97	C	0.914400	-0.196026	-0.231222
H98	H	0.860120	-0.198613	-0.331242
H99	H	0.851279	-0.275064	-0.276523
H100	H	0.807232	-0.187864	-0.257320
H101	H	0.960514	-0.224172	-0.251721
H102	H	0.916478	-0.136967	-0.232529
O103	O	0.770734	-0.446846	0.064171
C104	C	0.766658	-0.534311	0.061394
H105	H	0.815259	-0.565697	0.023365
H106	H	0.709997	-0.546783	0.034203
C107	C	0.713401	-0.532058	0.193171
C108	C	0.773098	-0.570608	0.146469
H109	H	0.717370	-0.554449	0.245649
H110	H	0.716144	-0.473131	0.195041
H111	H	0.666190	-0.542455	0.170503
H112	H	0.820308	-0.560202	0.169132
H113	H	0.770363	-0.629535	0.144604
H114	H	0.537487	-0.023402	0.000111
O115	O	0.773146	-0.292606	-0.064568
C116	C	0.711691	-0.234809	-0.039158
H117	H	0.723596	-0.211726	0.023384
H118	H	0.657453	-0.266954	-0.038462
C119	C	0.687125	-0.187787	-0.173639
C120	C	0.701750	-0.159430	-0.096827
H121	H	0.680990	-0.141291	-0.209214
H122	H	0.728526	-0.226728	-0.190760
H123	H	0.641928	-0.214574	-0.173048
H124	H	0.746951	-0.132652	-0.097417
H125	H	0.660356	-0.120482	-0.079708
O126	O	0.995437	0.000242	0.207898
C127	C	0.983131	-0.082613	0.228344
H128	H	0.922533	-0.082914	0.251279
H129	H	1.025070	-0.107251	0.276799
C130	C	1.069322	-0.139064	0.126071
C131	C	0.994892	-0.139433	0.154234
H132	H	1.076580	-0.174115	0.080359
H133	H	1.077615	-0.083243	0.112298
H134	H	1.104263	-0.159593	0.166458
H135	H	0.959953	-0.118894	0.113852
H136	H	0.986593	-0.195252	0.167999
O137	O	0.772937	-0.293253	0.064885
C138	C	0.774157	-0.205274	0.065422
H139	H	0.784226	-0.182540	0.002318
H140	H	0.821875	-0.188659	0.106028
C141	C	0.685063	-0.190245	0.173904
C142	C	0.697423	-0.162323	0.096398
H143	H	0.637731	-0.163750	0.193015
H144	H	0.684243	-0.249519	0.173545
H145	H	0.724832	-0.176398	0.207733
H146	H	0.657659	-0.176180	0.062569
H147	H	0.698235	-0.103050	0.096753
H148	H	0.800701	0.216198	0.634409
H149	H	0.996873	-0.473487	-0.075395
O150	O	0.995423	0.000297	0.372389
C151	C	0.954909	-0.051298	0.420685
H152	H	0.895220	-0.052636	0.395548
H153	H	0.950949	-0.025092	0.483930
C154	C	1.069943	-0.139611	0.452835
C155	C	0.996634	-0.141259	0.421958
H156	H	1.095681	-0.195102	0.453625
H157	H	1.097239	-0.104849	0.420300
H158	H	1.066632	-0.117768	0.505537
H159	H	0.999945	-0.163092	0.369254
H160	H	0.969339	-0.176028	0.454485
H161	H	0.904358	-0.459494	0.132463
H162	H	0.800667	0.216180	0.214404
O163	O	0.902489	-0.310626	0.143046
C164	C	0.956242	-0.272597	0.188420
H165	H	1.004114	-0.256242	0.147894
H166	H	0.980640	-0.318062	0.236727
C167	C	0.858535	-0.211822	0.277247
C168	C	0.917329	-0.191728	0.227471
H169	H	0.834532	-0.161940	0.301339
H170	H	0.822321	-0.237445	0.246680
H171	H	0.878876	-0.249711	0.317496
H172	H	0.896987	-0.153849	0.187217
H173	H	0.953540	-0.166097	0.258032
H174	H	0.994888	-0.473622	0.079313
H175	H	0.987460	0.009350	0.634403
H176	H	0.647962	0.255975	0.000071
O177	O	0.903480	-0.465921	-0.143333
C178	C	0.826968	-0.429994	-0.146649
H179	H	0.819065	-0.371447	-0.107422
H180	H	0.788567	-0.477581	-0.124404
C181	C	0.815649	-0.477464	-0.281490
C182	C	0.805943	-0.405551	-0.233316
H183	H	0.802677	-0.462390	-0.334950
H184	H	0.867195	-0.501672	-0.279255
H185	H	0.783646	-0.517113	-0.262943
H186	H	0.837952	-0.365909	-0.251857
H187	H	0.754401	-0.381337	-0.235555
O188	O	0.995487	0.000423	0.792479
C189	C	0.984474	0.012657	0.875083
H190	H	0.924302	0.044032	0.886486
H191	H	1.027309	0.054596	0.898755
C192	C	1.069765	-0.111549	0.903925
C193	C	0.995859	-0.073020	0.917932
H194	H	1.076792	-0.164397	0.930358
H195	H	1.077188	-0.119790	0.848273
H196	H	1.105453	-0.076591	0.923653
H197	H	0.960173	-0.107973	0.898195
H198	H	0.988430	-0.064787	0.973581
H199	H	0.800717	0.216208	0.785802
O200	O	1.009789	-0.328027	0.079286
C201	C	1.044696	-0.365861	0.147931
H202	H	1.012782	-0.420297	0.167621
H203	H	1.043284	-0.317333	0.197836
C204	C	1.167042	-0.332347	0.104717
C205	C	1.127849	-0.399211	0.128898
H206	H	1.218336	-0.352916	0.092979
H207	H	1.143525	-0.306854	0.058471
H208	H	1.165858	-0.291913	0.146309
H209	H	1.129026	-0.439638	0.087302
H210	H	1.151368	-0.424711	0.175136
O211	O	1.008842	-0.326491	-0.081510
C212	C	1.042882	-0.364653	-0.150433
H213	H	0.996784	-0.376659	-0.195074
H214	H	1.077094	-0.426946	-0.133655
C215	C	1.152741	-0.291227	-0.133252
C216	C	1.096122	-0.305966	-0.188084
H217	H	1.185585	-0.255029	-0.156475
H218	H	1.129809	-0.265518	-0.086815
H219	H	1.181242	-0.343142	-0.119275
H220	H	1.067616	-0.254052	-0.202051
H221	H	1.119050	-0.331664	-0.234523
O222	O	0.792669	0.225113	0.372480
C223	C	0.803699	0.212882	0.455084
H224	H	0.863872	0.181505	0.466477
H225	H	0.760867	0.170947	0.478778
C226	C	0.718419	0.337093	0.483923
C227	C	0.792327	0.298561	0.497917
H228	H	0.711400	0.389943	0.510346
H229	H	0.710985	0.345332	0.428271
H230	H	0.682734	0.302139	0.503668
H231	H	0.828010	0.333511	0.478163
H232	H	0.799767	0.290331	0.553566
