data_functionalizedCrystal
_audit_creation_method	'MofGen! by Chris Wilmer'
_symmetry_space_group_name_H-M	'P1'
_symmetry_Int_Tables_number	1
_symmetry_cell_setting	triclinic
loop_
_symmetry_equiv_pos_as_xyz
  x,y,z
_cell_length_a	27.732025
_cell_length_b	17.038272
_cell_length_c	16.098524
_cell_angle_alpha	87.129416
_cell_angle_beta	93.070433
_cell_angle_gamma	93.127488
loop_
_atom_site_label
_atom_site_type_symbol
_atom_site_fract_x
_atom_site_fract_y
_atom_site_fract_z
O1	O	0.106965	-1.039219	0.069106
O2	O	0.606965	-0.539219	0.569106
O3	O	0.105300	-0.811609	0.069131
O4	O	0.605300	-0.311609	0.569131
O5	O	0.036059	-0.932494	0.069143
O6	O	0.536059	-0.432494	0.569143
O7	O	0.176205	-0.918335	0.069094
O8	O	0.676205	-0.418335	0.569094
O9	O	0.031943	-0.926292	-0.069368
O10	O	0.531943	-0.426292	0.430632
O11	O	0.101184	-0.805407	-0.069380
O12	O	0.601184	-0.305407	0.430620
O13	O	0.102849	-1.033017	-0.069406
O14	O	0.602849	-0.533017	0.430594
Zn15	Zn	0.101363	-0.918228	-0.091385
Zn16	Zn	0.601363	-0.418228	0.408615
Zn17	Zn	0.106786	-0.926399	0.091110
Zn18	Zn	0.606786	-0.426399	0.591110
O19	O	0.172089	-0.912133	-0.069417
O20	O	0.672089	-0.412133	0.430583
C21	C	0.101727	-0.779398	-0.000121
C22	C	0.601727	-0.279398	0.499879
C23	C	0.097206	-0.692659	-0.000110
C24	C	0.597206	-0.192659	0.499890
C25	C	0.015981	-0.929099	-0.000104
C26	C	0.515981	-0.429099	0.499896
C27	C	-0.037714	-0.928213	-0.000080
C28	C	0.462286	-0.428213	0.499920
C29	C	0.106422	-1.065228	-0.000152
C30	C	0.606422	-0.565228	0.499848
C31	C	0.110942	-1.151968	-0.000158
C32	C	0.610942	-0.651968	0.499842
C33	C	-0.418926	-0.925292	0.075375
C34	C	0.081074	-0.425292	0.575375
C35	C	-0.217114	-0.928611	0.075402
C36	C	0.282886	-0.428611	0.575402
O37	O	-0.189117	-0.931947	0.139615
O38	O	0.310883	-0.431947	0.639615
N39	N	-0.194117	-0.925646	-0.000099
N40	N	0.305883	-0.425646	0.499901
C41	C	-0.221577	-0.921855	-0.075611
C42	C	0.278423	-0.421855	0.424389
O43	O	-0.197386	-0.919417	-0.139828
O44	O	0.302614	-0.419417	0.360172
C45	C	-0.423388	-0.918541	-0.075637
C46	C	0.076612	-0.418541	0.424363
C47	C	-0.446382	-0.921499	-0.000131
C48	C	0.053618	-0.421499	0.499869
C49	C	-0.441920	-0.928251	0.150874
C50	C	0.058080	-0.428251	0.650874
C51	C	-0.492370	-0.927417	0.150867
C52	C	0.007630	-0.427417	0.650867
C53	C	-0.519826	-0.923624	0.075360
C54	C	-0.019826	-0.423624	0.575360
C55	C	-0.496832	-0.920665	-0.000139
C56	C	0.003168	-0.420665	0.499861
C57	C	-0.450847	-0.914756	-0.151148
C58	C	0.049153	-0.414756	0.348852
C59	C	-0.501303	-0.913930	-0.151148
C60	C	-0.001303	-0.413930	0.348852
C61	C	-0.524297	-0.916888	-0.075642
C62	C	-0.024297	-0.416888	0.424358
C63	C	-0.574737	-0.916038	-0.075653
C64	C	-0.074737	-0.416038	0.424347
N65	N	-0.597734	-0.919004	-0.000152
N66	N	-0.097734	-0.419004	0.499848
C67	C	-0.570278	-0.922797	0.075354
C68	C	-0.070278	-0.422797	0.575354
C69	C	-0.115623	-0.923593	-0.075592
C70	C	0.384377	-0.423593	0.424408
C71	C	-0.065170	-0.924420	-0.075586
C72	C	0.434830	-0.424420	0.424414
C73	C	-0.060711	-0.931178	0.075427
C74	C	0.439289	-0.431178	0.575427
C75	C	-0.111164	-0.930346	0.075420
C76	C	0.388836	-0.430346	0.575420
C77	C	-0.138620	-0.926559	-0.000092
C78	C	0.361380	-0.426559	0.499908
C79	C	-0.676227	-0.921044	0.075333
C80	C	-0.176227	-0.421044	0.575333
C81	C	-0.726681	-0.920206	0.075319
C82	C	-0.226681	-0.420206	0.575319
C83	C	-0.731136	-0.913453	-0.075693
C84	C	-0.231136	-0.413453	0.424307
C85	C	-0.680686	-0.914286	-0.075680
C86	C	-0.180686	-0.414286	0.424320
C87	C	-0.653232	-0.918085	-0.000160
C88	C	-0.153232	-0.418085	0.499840
O89	O	-0.602764	-0.912713	-0.139833
O90	O	-0.102764	-0.412713	0.360167
O91	O	-0.594479	-0.925252	0.139562
O92	O	-0.094479	-0.425252	0.639562
C93	C	-0.368476	-0.926126	0.075382
C94	C	0.131524	-0.426126	0.575382
C95	C	-0.345482	-0.923167	-0.000117
C96	C	0.154518	-0.423167	0.499883
C97	C	-0.372938	-0.919375	-0.075623
C98	C	0.127062	-0.419375	0.424377
C99	C	-0.295030	-0.923994	-0.000110
C100	C	0.204970	-0.423994	0.499890
C101	C	-0.267574	-0.927787	0.075396
C102	C	0.232426	-0.427787	0.575396
C103	C	-0.290571	-0.930753	0.150896
C104	C	0.209429	-0.430753	0.650896
C105	C	-0.341020	-0.929919	0.150889
C106	C	0.158980	-0.429919	0.650889
C107	C	-0.349941	-0.916409	-0.151123
C108	C	0.150059	-0.416409	0.348877
C109	C	-0.299491	-0.917242	-0.151110
C110	C	0.200509	-0.417242	0.348890
C111	C	-0.272035	-0.921035	-0.075603
C112	C	0.227965	-0.421035	0.424397
C113	C	0.192168	-0.915528	-0.000168
C114	C	0.692168	-0.415528	0.499832
C115	C	0.245863	-0.916414	-0.000188
C116	C	0.745863	-0.416414	0.499812
N117	N	0.097662	-0.912657	-0.215932
N118	N	0.597662	-0.412657	0.284068
C119	C	0.138709	-0.642055	-0.000125
C120	C	0.638709	-0.142055	0.499875
C121	C	0.134458	-0.560554	-0.000135
C122	C	0.634458	-0.060554	0.499865
C123	C	0.088705	-0.529659	-0.000124
C124	C	0.588705	-0.029659	0.499876
C125	C	0.047199	-0.580269	-0.000111
C126	C	0.547199	-0.080269	0.499889
C127	C	0.051450	-0.661768	-0.000107
C128	C	0.551450	-0.161768	0.499893
C129	C	0.073687	-0.284077	-0.000141
C130	C	0.573687	0.215923	0.499859
C131	C	0.069440	-0.202572	-0.000142
C132	C	0.569440	0.297428	0.499858
C133	C	0.156699	-0.182862	-0.000168
C134	C	0.656699	0.317138	0.499832
C135	C	0.160946	-0.264364	-0.000159
C136	C	0.660946	0.235636	0.499841
C137	C	0.119440	-0.314967	-0.000150
C138	C	0.619440	0.185033	0.499850
C139	C	0.084359	-0.446352	-0.000131
C140	C	0.584359	0.053648	0.499869
C141	C	0.123786	-0.398272	-0.000149
C142	C	0.623786	0.101728	0.499851
C143	C	0.127636	-0.957742	-0.259530
C144	C	0.627636	-0.457742	0.240470
C145	C	0.125044	-0.953855	-0.346717
C146	C	0.625044	-0.453855	0.153283
C147	C	0.092481	-0.904879	-0.390306
C148	C	0.592481	-0.404879	0.109694
C149	C	0.062504	-0.859792	-0.346703
C150	C	0.562504	-0.359792	0.153297
C151	C	0.065093	-0.863683	-0.259517
C152	C	0.565093	-0.363683	0.240483
C153	C	0.083095	-0.890781	-0.653553
C154	C	0.583095	-0.390781	-0.153553
C155	C	0.080509	-0.886891	-0.740745
C156	C	0.580509	-0.386891	-0.240745
C157	C	0.143049	-0.980956	-0.740753
C158	C	0.643049	-0.480956	-0.240753
C159	C	0.145638	-0.984839	-0.653565
C160	C	0.645638	-0.484839	-0.153565
C161	C	0.115659	-0.939755	-0.609970
C162	C	0.615659	-0.439755	-0.109970
C163	C	0.089832	-0.900903	-0.479427
C164	C	0.589832	-0.400903	0.020573
C165	C	0.118306	-0.943736	-0.520851
C166	C	0.618306	-0.443736	-0.020851
N167	N	0.110483	-0.931976	0.215658
N168	N	0.610483	-0.431976	0.715658
H169	H	-0.745400	-0.922612	0.136807
H170	H	-0.245400	-0.422612	0.636807
H171	H	0.032180	-0.177421	-0.000132
H172	H	0.532180	0.322579	0.499868
Cl173	Cl	-0.535815	-0.909172	-0.246083
Cl174	Cl	-0.035815	-0.409172	0.253917
H175	H	0.040685	-0.826970	-0.224021
H176	H	0.540685	-0.326970	0.275979
H177	H	0.017654	-0.702970	-0.000094
H178	H	0.517654	-0.202970	0.499906
Cl179	Cl	0.168575	-1.019314	-0.204740
Cl180	Cl	0.668575	-0.519314	0.295260
H181	H	-0.511087	-0.929831	0.212351
H182	H	-0.011087	-0.429831	0.712351
H183	H	0.172153	-1.024723	-0.618081
H184	H	0.672153	-0.524723	-0.118081
H185	H	0.175966	-0.667202	-0.000133
H186	H	0.675966	-0.167202	0.499867
Cl187	Cl	-0.256045	-0.935522	0.245818
Cl188	Cl	0.243955	-0.435522	0.745818
Cl189	Cl	0.021508	-0.347682	-0.000130
Cl190	Cl	0.521508	0.152318	0.499870
Cl191	Cl	0.186636	-0.496940	-0.000149
Cl192	Cl	0.686636	0.003060	0.499851
Cl193	Cl	0.208874	-0.119243	-0.000182
Cl194	Cl	0.708874	0.380757	0.499818
H195	H	-0.753500	-0.910362	-0.137169
H196	H	-0.253500	-0.410362	0.362831
Cl197	Cl	-0.407413	-0.933019	0.245810
Cl198	Cl	0.092587	-0.433019	0.745810
Cl199	Cl	0.039568	-0.825317	-0.795542
Cl200	Cl	0.539568	-0.325317	-0.295542
Cl201	Cl	-0.369919	-0.933640	0.245815
Cl202	Cl	0.130081	-0.433640	0.745815
Cl203	Cl	-0.641721	-0.925818	0.170274
Cl204	Cl	-0.141721	-0.425818	0.670274
Cl205	Cl	0.162729	-1.010535	-0.401522
Cl206	Cl	0.662729	-0.510535	0.098478
Cl207	Cl	0.021566	-0.798222	-0.401501
Cl208	Cl	0.521566	-0.298222	0.098499
H209	H	-0.280774	-0.914826	-0.212600
H210	H	0.219226	-0.414826	0.287400
H211	H	-0.129882	-0.932753	0.136903
H212	H	0.370118	-0.432753	0.636903
Cl213	Cl	-0.384450	-0.911638	-0.246056
Cl214	Cl	0.115550	-0.411638	0.253944
Cl215	Cl	-0.026185	-0.935935	0.170349
Cl216	Cl	0.473815	-0.435935	0.670349
Cl217	Cl	-0.036270	-0.920683	-0.170511
Cl218	Cl	0.463730	-0.420683	0.329489
Cl219	Cl	0.180733	-1.037630	-0.795564
Cl220	Cl	0.680733	-0.537630	-0.295564
Cl221	Cl	0.045425	-0.834072	-0.598758
Cl222	Cl	0.545425	-0.334072	-0.098758
H223	H	-0.432135	-0.912356	-0.212633
H224	H	0.067865	-0.412356	0.287367
Cl225	Cl	0.159240	-1.005307	-0.466052
Cl226	Cl	0.659240	-0.505307	0.033948
Cl227	Cl	-0.150131	-0.918827	-0.170532
Cl228	Cl	0.349869	-0.418827	0.329468
Cl229	Cl	0.048900	-0.839328	-0.534231
Cl230	Cl	0.548900	-0.339328	-0.034231
Cl231	Cl	0.218467	-0.303197	-0.000167
Cl232	Cl	0.718467	0.196803	0.499833
H233	H	0.009945	-0.555108	-0.000114
H234	H	0.509945	-0.055108	0.499886
Cl235	Cl	0.181303	-0.437112	-0.000165
Cl236	Cl	0.681303	0.062888	0.499835
Cl237	Cl	-0.651779	-0.910567	-0.170602
Cl238	Cl	-0.151779	-0.410567	0.329398
H239	H	0.047106	-0.421188	-0.000146
H240	H	0.547106	0.078812	0.499854
