data_functionalizedCrystal
_audit_creation_method	'MofGen! by Chris Wilmer'
_symmetry_space_group_name_H-M	'P1'
_symmetry_Int_Tables_number	1
_symmetry_cell_setting	triclinic
loop_
_symmetry_equiv_pos_as_xyz
  x,y,z
_cell_length_a	13.033409
_cell_length_b	13.032868
_cell_length_c	19.805399
_cell_angle_alpha	97.153250
_cell_angle_beta	82.825371
_cell_angle_gamma	90.854064
loop_
_atom_site_label
_atom_site_type_symbol
_atom_site_fract_x
_atom_site_fract_y
_atom_site_fract_z
Zn1	Zn	1.520034	0.608893	0.307459
Zn2	Zn	2.020034	1.108893	0.807459
Zn3	Zn	1.498057	0.780865	0.210224
Zn4	Zn	1.998057	1.280865	0.710224
Zn5	Zn	1.348071	0.587108	0.206671
Zn6	Zn	1.848071	1.087108	0.706671
Zn7	Zn	1.326177	0.759006	0.335745
Zn8	Zn	1.826177	1.259006	0.835745
O9	O	1.423085	0.683968	0.265025
O10	O	1.923085	1.183968	0.765025
O11	O	1.661018	0.649972	0.284210
O12	O	2.161018	1.149972	0.784210
O13	O	1.478125	0.755194	0.115041
O14	O	1.978125	1.255194	0.615041
O15	O	1.389242	0.446087	0.206717
O16	O	1.889242	0.946087	0.706717
O17	O	1.644871	0.776318	0.212772
O18	O	2.144871	1.276318	0.712772
O19	O	1.515583	0.462093	0.280765
O20	O	2.015583	0.962093	0.780765
O21	O	1.367931	0.612841	0.112431
O22	O	1.867931	1.112841	0.612431
O23	O	1.201267	0.591645	0.234144
O24	O	1.701267	1.091645	0.734144
O25	O	1.351928	0.739062	0.426704
O26	O	1.851928	1.239062	0.926704
O27	O	1.185182	0.717937	0.328973
O28	O	1.685182	1.217937	0.828973
O29	O	1.494354	0.628775	0.405923
O30	O	1.994354	1.128775	0.905923
O31	O	1.456896	0.921876	0.240199
O32	O	1.956896	1.421876	0.740199
O33	O	1.330617	0.905816	0.332418
O34	O	1.830617	1.405816	0.832418
C35	C	1.155913	0.650056	0.284243
C36	C	1.655913	1.150056	0.784243
C37	C	1.041613	0.635573	0.292483
C38	C	1.541613	1.135573	0.792483
C39	C	0.864538	0.676565	0.269254
C40	C	1.364538	1.176565	0.769254
C41	C	0.982673	0.691537	0.260735
C42	C	1.482673	1.191537	0.760735
C43	C	1.389024	0.951164	0.289776
C44	C	1.889024	1.451164	0.789776
C45	C	1.374547	1.065484	0.300381
C46	C	1.874547	1.565484	0.800381
C47	C	1.430628	1.124369	0.259507
C48	C	1.930628	1.624369	0.759507
C49	C	1.415666	1.242525	0.270466
C50	C	1.915666	1.742525	0.770466
C51	C	1.691300	0.718014	0.245732
C52	C	2.191300	1.218014	0.745732
C53	C	1.805597	0.732522	0.237511
C54	C	2.305597	1.232522	0.737511
C55	C	1.423151	0.683911	0.441557
C56	C	1.923151	1.183911	0.941557
C57	C	1.423179	0.683886	0.516785
C58	C	1.923179	1.183886	1.016785
C59	C	1.457273	1.415728	0.240185
C60	C	1.957273	1.915728	0.740185
C61	C	1.471755	1.301409	0.229587
C62	C	1.971755	1.801409	0.729587
C63	C	1.423088	0.683959	0.089168
C64	C	1.923088	1.183959	0.589168
C65	C	1.423296	0.683719	0.013899
C66	C	1.923296	1.183719	0.513899
C67	C	1.497342	0.626457	0.541309
C68	C	1.997342	1.126457	1.041309
C69	C	1.497356	0.626428	0.611994
C70	C	1.997356	1.126428	1.111994
C71	C	1.423211	0.683836	0.658154
C72	C	1.923211	1.183836	1.158154
C73	C	1.349040	0.741267	0.633626
C74	C	1.849040	1.241267	1.133626
C75	C	1.349022	0.741289	0.562942
C76	C	1.849022	1.241289	1.062942
C77	C	1.349111	0.741178	0.918686
C78	C	1.849111	1.241178	1.418686
C79	C	1.349136	0.741154	0.989374
C80	C	1.849136	1.241154	1.489374
C81	C	1.497444	0.626318	0.967738
C82	C	1.997444	1.126318	1.467738
C83	C	1.497426	0.626340	0.897055
C84	C	1.997426	1.126340	1.397055
C85	C	1.423253	0.683766	0.872532
C86	C	1.923253	1.183766	1.372532
C87	C	1.423237	0.683795	0.795887
C88	C	1.923237	1.183795	1.295887
C89	C	1.423231	0.683813	0.734798
C90	C	1.923231	1.183813	1.234798
H91	H	1.489722	1.087313	0.216402
H92	H	1.989722	1.587313	0.716402
Br93	Br	1.598052	0.548539	0.645275
Br94	Br	2.098052	1.048539	1.145275
Br95	Br	1.598110	0.548378	1.001022
Br96	Br	2.098110	1.048378	1.501022
H97	H	1.356577	1.279580	0.313579
H98	H	1.856577	1.779580	0.813579
H99	H	0.827541	0.617577	0.302741
H100	H	1.327541	1.117577	0.802741
Br101	Br	1.044320	0.789878	0.204928
Br102	Br	1.544320	1.289878	0.704928
Br103	Br	1.598060	0.548433	0.834412
Br104	Br	2.098060	1.048433	1.334412
Br105	Br	0.979967	0.537246	0.348301
Br106	Br	1.479967	1.037246	0.848301
H107	H	1.288754	0.787904	1.026957
H108	H	1.788754	1.287904	1.526957
H109	H	1.530853	1.264356	0.186479
H110	H	2.030853	1.764356	0.686479
Br111	Br	1.276064	1.127241	0.372237
Br112	Br	1.776064	1.627241	0.872237
Br113	Br	1.248445	0.819113	0.885414
Br114	Br	1.748445	1.319113	1.385414
H115	H	1.288667	0.788005	0.671214
H116	H	1.788667	1.288005	1.171214
H117	H	1.288622	0.788042	0.542976
H118	H	1.788622	1.288042	1.042976
H119	H	0.842593	0.791519	0.204031
H120	H	1.342593	1.291519	0.704031
H121	H	1.557722	0.579712	0.503730
H122	H	2.057722	1.079712	1.003730
