data_functionalizedCrystal
_audit_creation_method	'MofGen! by Chris Wilmer'
_symmetry_space_group_name_H-M	'P1'
_symmetry_Int_Tables_number	1
_symmetry_cell_setting	triclinic
loop_
_symmetry_equiv_pos_as_xyz
  x,y,z
_cell_length_a	29.839131
_cell_length_b	29.839134
_cell_length_c	13.033352
_cell_angle_alpha	82.833854
_cell_angle_beta	82.844232
_cell_angle_gamma	90.027971
loop_
_atom_site_label
_atom_site_type_symbol
_atom_site_fract_x
_atom_site_fract_y
_atom_site_fract_z
Zn1	Zn	-0.211292	0.654409	0.591076
Zn2	Zn	-0.276857	0.663908	0.416309
Zn3	Zn	-0.201733	0.588850	0.416324
Zn4	Zn	-0.286379	0.579254	0.590949
O5	O	-0.244065	0.621605	0.503664
O6	O	-0.220004	0.718534	0.567940
O7	O	-0.258906	0.661943	0.270089
O8	O	-0.140137	0.597587	0.439565
O9	O	-0.268175	0.725513	0.439539
O10	O	-0.147160	0.645753	0.567955
O11	O	-0.203713	0.606798	0.270100
O12	O	-0.212946	0.524713	0.439441
O13	O	-0.284404	0.581232	0.737188
O14	O	-0.275135	0.517663	0.567738
O15	O	-0.229238	0.636448	0.737281
O16	O	-0.340984	0.652639	0.439415
O17	O	-0.347980	0.590444	0.567723
C18	C	-0.244037	0.504888	0.503578
C19	C	-0.244037	0.454954	0.503566
C20	C	-0.211648	0.102012	0.436997
C21	C	-0.211632	0.289689	0.436934
O22	O	-0.184050	0.317058	0.380237
N23	N	-0.244047	0.309506	0.503618
C24	C	-0.276467	0.282400	0.570329
O25	O	-0.304035	0.303562	0.627054
C26	C	-0.276481	0.094724	0.570396
C27	C	-0.244066	0.074910	0.503700
C28	C	-0.179236	0.082198	0.370307
C29	C	-0.179242	0.035282	0.370319
C30	C	-0.211660	0.008180	0.437022
C31	C	-0.244072	0.027994	0.503712
C32	C	-0.308898	0.067620	0.637111
C33	C	-0.308898	0.020698	0.637124
C34	C	-0.276484	0.000884	0.570428
C35	C	-0.276496	-0.046024	0.570428
N36	N	-0.244081	-0.065841	0.503743
C37	C	-0.211663	-0.038739	0.437040
C38	C	-0.276458	0.380933	0.570287
C39	C	-0.276455	0.427852	0.570269
C40	C	-0.211620	0.435137	0.436875
C41	C	-0.211625	0.388218	0.436888
C42	C	-0.244043	0.361116	0.503602
C43	C	-0.211678	-0.137266	0.437071
C44	C	-0.211688	-0.184187	0.437086
C45	C	-0.276522	-0.191468	0.570483
C46	C	-0.276513	-0.144551	0.570465
C47	C	-0.244088	-0.117452	0.503755
O48	O	-0.304060	-0.073421	0.627103
O49	O	-0.184093	-0.059910	0.380339
C50	C	-0.211642	0.148928	0.436985
C51	C	-0.244055	0.168743	0.503675
C52	C	-0.276473	0.141641	0.570378
C53	C	-0.244052	0.215662	0.503657
C54	C	-0.211634	0.242763	0.436954
C55	C	-0.179218	0.222946	0.370269
C56	C	-0.179224	0.176030	0.370282
C57	C	-0.308888	0.161458	0.637062
C58	C	-0.308880	0.208375	0.637044
C59	C	-0.276462	0.235476	0.570341
C60	C	-0.360783	0.621542	0.503576
C61	C	-0.410717	0.621554	0.503574
C62	C	-0.723992	0.646674	0.570612
C63	C	-0.911669	0.646719	0.570675
O64	O	-0.939018	0.668014	0.627608
N65	N	-0.931513	0.621675	0.503780
C66	C	-0.904436	0.596616	0.436870
O67	O	-0.925622	0.575312	0.379981
C68	C	-0.716761	0.596569	0.436813
C69	C	-0.696918	0.621618	0.503705
C70	C	-0.704150	0.671720	0.637499
C71	C	-0.657233	0.671711	0.637479
C72	C	-0.630159	0.646655	0.570571
C73	C	-0.650002	0.621608	0.503685
C74	C	-0.689684	0.571507	0.369909
C75	C	-0.642763	0.571496	0.369903
C76	C	-0.622921	0.596545	0.436794
C77	C	-0.576011	0.596542	0.436757
N78	N	-0.556167	0.621586	0.503651
C79	C	-0.583241	0.646642	0.570559
C80	C	-1.002968	0.596644	0.436903
C81	C	-1.049887	0.596656	0.436916
C82	C	-1.057117	0.646759	0.570722
C83	C	-1.010197	0.646748	0.570704
C84	C	-0.983124	0.621687	0.503798
C85	C	-0.484712	0.646620	0.570510
C86	C	-0.437791	0.646610	0.570481
C87	C	-0.430566	0.596506	0.436679
C88	C	-0.477482	0.596518	0.436704
C89	C	-0.504555	0.621576	0.503628
O90	O	-0.548635	0.575255	0.379862
O91	O	-0.562047	0.667935	0.627455
C92	C	-0.770909	0.646683	0.570633
C93	C	-0.790752	0.621637	0.503746
C94	C	-0.763677	0.596581	0.436838
C95	C	-0.837670	0.621649	0.503758
C96	C	-0.864744	0.646706	0.570666
C97	C	-0.844900	0.671749	0.637560
C98	C	-0.797983	0.671740	0.637540
C99	C	-0.783522	0.571537	0.369944
C100	C	-0.830439	0.571549	0.369969
C101	C	-0.857513	0.596605	0.436876
C102	C	-0.126893	0.621680	0.503776
C103	C	-0.076961	0.621712	0.503823
C104	C	-0.258949	0.606710	0.776208
C105	C	-0.265292	0.600363	0.892350
C106	C	-0.244094	0.738779	0.503752
C107	C	-0.244106	0.788711	0.503789
C108	C	-0.240824	0.624852	0.944176
C109	C	-0.247379	0.618293	1.064215
C110	C	-0.229249	0.636439	1.232181
C111	C	-0.222908	0.642786	1.116039
H112	H	-0.152835	0.104259	0.315989
N113	N	-0.872559	0.697351	0.705890
N114	N	-0.896725	0.728001	0.669206
H115	H	-0.916261	0.746081	0.717463
H116	H	-0.335294	0.083744	0.691422
N117	N	-0.850696	0.545961	0.301620
N118	N	-0.826512	0.523593	0.241891
H119	H	-0.840817	0.505519	0.193625
N120	N	-0.309577	0.353260	0.638447
N121	N	-0.338514	0.370965	0.697976
H122	H	-0.361906	0.351422	0.746113
N123	N	-0.190546	0.675190	1.060231
N124	N	-0.194195	0.715984	1.072362
H125	H	-0.171340	0.738870	1.032947
H126	H	-0.421637	0.667009	0.624952
N127	N	-0.178506	0.367979	0.368783
N128	N	-0.151915	0.339807	0.405686
H129	H	-0.128522	0.325515	0.357587
H130	H	-0.291089	0.574537	0.936848
N131	N	-0.279740	0.585888	1.120026
N132	N	-0.267226	0.553967	1.180935
H133	H	-0.290080	0.531080	1.220354
H134	H	-0.493638	0.576125	0.382227
H135	H	-0.761481	0.551132	0.315461
H136	H	-0.620722	0.551087	0.315421
N137	N	-0.342015	-0.006978	0.705284
N138	N	-0.370950	0.010723	0.764825
H139	H	-0.394340	-0.008823	0.812963
H140	H	-0.302911	-0.128418	0.624766
H141	H	-0.335287	0.139396	0.691382
N142	N	-0.178574	-0.204418	0.368942
N143	N	-0.149632	-0.180211	0.309393
H144	H	-0.126246	-0.194498	0.261267
N145	N	-0.208456	0.657243	0.888349
N146	N	-0.203175	0.662524	0.790916
H147	H	-0.180314	0.685401	0.751488
H148	H	-0.185272	-0.115207	0.382754
H149	H	-0.152847	0.019154	0.316008
H150	H	-0.726189	0.692124	0.691989
H151	H	-0.185224	0.457212	0.382562
N152	N	-0.512355	0.672218	0.638879
N153	N	-0.494625	0.694577	0.698589
H154	H	-0.514147	0.712658	0.746871
H155	H	-0.302917	-0.213542	0.624787
H156	H	-0.152829	0.159902	0.315971
N157	N	-0.309575	0.448082	0.638387
N158	N	-0.338516	0.423874	0.697935
H159	H	-0.361908	0.438159	0.746049
H160	H	-0.408514	0.576107	0.382200
N161	N	-0.146109	0.250642	0.302133
N162	N	-0.146115	0.292532	0.302140
H163	H	-0.122732	0.312094	0.254025
N164	N	-0.341999	0.228604	0.705176
N165	N	-0.370940	0.204395	0.764724
H166	H	-0.394329	0.218680	0.812847
H167	H	-0.641081	0.692106	0.691950
N168	N	-0.989938	0.672339	0.639035
N169	N	-1.014122	0.694710	0.698760
H170	H	-0.999817	0.712784	0.747024
N171	N	-1.084783	0.672354	0.639055
N172	N	-1.126673	0.672358	0.639048
H173	H	-1.146215	0.690432	0.687308
H174	H	-1.066037	0.576264	0.382435
H175	H	-0.980928	0.576235	0.382418
N176	N	-0.709938	0.545911	0.301586
N177	N	-0.685752	0.523536	0.241875
H178	H	-0.700055	0.505454	0.193623
H179	H	-0.781831	0.692137	0.692009
