data_functionalizedCrystal
_audit_creation_method	'MofGen! by Chris Wilmer'
_symmetry_space_group_name_H-M	'P1'
_symmetry_Int_Tables_number	1
_symmetry_cell_setting	triclinic
loop_
_symmetry_equiv_pos_as_xyz
  x,y,z
_cell_length_a	15.298068
_cell_length_b	17.640280
_cell_length_c	15.296720
_cell_angle_alpha	89.704419
_cell_angle_beta	91.645182
_cell_angle_gamma	86.559969
loop_
_atom_site_label
_atom_site_type_symbol
_atom_site_fract_x
_atom_site_fract_y
_atom_site_fract_z
Zn1	Zn	1.311286	-0.220188	0.686657
Zn2	Zn	1.811286	0.279812	1.186657
Zn3	Zn	1.362691	-0.319595	0.521810
Zn4	Zn	1.862691	0.180405	1.021810
Zn5	Zn	1.188274	-0.212996	0.516154
Zn6	Zn	1.688274	0.287004	1.016154
Zn7	Zn	1.201833	-0.361089	0.635163
Zn8	Zn	1.701833	0.138911	1.135163
O9	O	1.266021	-0.278467	0.589946
O10	O	1.766021	0.221533	1.089946
O11	O	1.436905	-0.219019	0.688708
O12	O	1.936905	0.280981	1.188708
O13	O	1.355393	-0.285079	0.402265
O14	O	1.855393	0.214921	0.902265
O15	O	1.177405	-0.110370	0.557954
O16	O	1.677405	0.389630	1.057954
O17	O	1.474673	-0.292053	0.567596
O18	O	1.974673	0.207947	1.067596
O19	O	1.267781	-0.115654	0.683223
O20	O	1.767781	0.384346	1.183223
O21	O	1.227250	-0.206761	0.398109
O22	O	1.727250	0.293239	0.898109
O23	O	1.071273	-0.246996	0.508022
O24	O	1.571273	0.253004	1.008022
O25	O	1.200513	-0.362774	0.760788
O26	O	1.700513	0.137226	1.260788
O27	O	1.081234	-0.355800	0.595458
O28	O	1.581234	0.144200	1.095458
O29	O	1.280928	-0.259254	0.798621
O30	O	1.780928	0.240746	1.298621
O31	O	1.368541	-0.428679	0.517664
O32	O	1.868541	0.071321	1.017664
O33	O	1.250359	-0.459165	0.600943
O34	O	1.750359	0.040835	1.100943
C35	C	1.045450	-0.305121	0.545539
C36	C	1.545450	0.194879	1.045539
C37	C	0.951090	-0.316545	0.526558
C38	C	1.451090	0.183455	1.026558
C39	C	0.606488	-0.197004	0.725572
C40	C	1.106488	0.302996	1.225572
C41	C	0.695143	-0.186273	0.743409
C42	C	1.195143	0.313727	1.243409
C43	C	0.759134	-0.218840	0.689198
C44	C	1.259134	0.281160	1.189198
C45	C	0.734462	-0.262140	0.617146
C46	C	1.234462	0.237860	1.117146
C47	C	0.645798	-0.272876	0.599310
C48	C	1.145798	0.227124	1.099310
C49	C	0.798444	-0.294712	0.562937
C50	C	1.298444	0.205288	1.062937
C51	C	0.773772	-0.338012	0.490885
C52	C	1.273772	0.161988	0.990885
C53	C	0.685116	-0.348746	0.473052
C54	C	1.185116	0.151254	0.973052
C55	C	0.621125	-0.316179	0.527263
C56	C	1.121125	0.183821	1.027263
C57	C	0.887108	-0.283976	0.580772
C58	C	1.387108	0.216024	1.080772
C59	C	0.926418	-0.359848	0.454511
C60	C	1.426418	0.140152	0.954511
C61	C	0.837762	-0.370579	0.436673
C62	C	1.337762	0.129421	0.936673
C63	C	1.316520	-0.470779	0.554353
C64	C	1.816520	0.029221	1.054353
C65	C	1.338197	-0.553047	0.539170
C66	C	1.838197	-0.053047	1.039170
C67	C	1.101648	-0.903086	0.705668
C68	C	1.601648	-0.403086	1.205668
C69	C	1.122022	-0.980384	0.691375
C70	C	1.622022	-0.480384	1.191375
C71	C	1.245138	-0.948585	0.604779
C72	C	1.745138	-0.448585	1.104779
C73	C	1.224776	-0.871283	0.619069
C74	C	1.724776	-0.371283	1.119069
C75	C	1.153029	-0.848540	0.669513
C76	C	1.653029	-0.348540	1.169513
C77	C	1.276158	-0.816737	0.582914
C78	C	1.776158	-0.316737	1.082914
C79	C	1.255795	-0.739441	0.597199
C80	C	1.755795	-0.239441	1.097199
C81	C	1.184050	-0.716692	0.647639
C82	C	1.684050	-0.216692	1.147639
C83	C	1.132666	-0.771245	0.683798
C84	C	1.632666	-0.271245	1.183798
C85	C	1.347900	-0.839480	0.532465
C86	C	1.847900	-0.339480	1.032465
C87	C	1.399282	-0.784934	0.496310
C88	C	1.899282	-0.284934	0.996310
C89	C	1.378923	-0.707637	0.510600
C90	C	1.878923	-0.207637	1.010600
C91	C	1.307178	-0.684888	0.561040
C92	C	1.807178	-0.184888	1.061040
C93	C	1.430307	-0.653085	0.474440
C94	C	1.930307	-0.153085	0.974440
C95	C	1.409944	-0.575789	0.488725
C96	C	1.909944	-0.075789	0.988725
C97	C	1.286815	-0.607593	0.575324
C98	C	1.786815	-0.107593	1.075324
C99	C	1.487454	-0.251709	0.634527
C100	C	1.987454	0.248291	1.134527
C101	C	1.581815	-0.240307	0.653525
C102	C	2.081815	0.259693	1.153525
C103	C	1.236499	-0.316445	0.811368
C104	C	1.736499	0.183555	1.311368
C105	C	1.223918	-0.332629	0.905725
C106	C	1.723918	0.167371	1.405725
C107	C	1.215346	-0.085404	0.625702
C108	C	1.715346	0.414596	1.125702
C109	C	1.193751	-0.003132	0.640938
C110	C	1.693751	0.496868	1.140938
C111	C	1.295463	-0.240578	0.369405
C112	C	1.795463	0.259422	0.869405
C113	C	1.308154	-0.224165	0.275120
C114	C	1.808154	0.275835	0.775120
C115	C	1.355934	-0.162665	1.250492
C116	C	1.855934	0.337335	1.750492
C117	C	1.367760	-0.147460	1.161840
C118	C	1.867760	0.352540	1.661840
C119	C	1.331801	-0.193750	1.097807
C120	C	1.831801	0.306250	1.597807
C121	C	1.284013	-0.255249	1.122435
C122	C	1.784013	0.244751	1.622435
C123	C	1.272192	-0.270459	1.211096
C124	C	1.772192	0.229541	1.711096
C125	C	1.248058	-0.301545	1.058411
C126	C	1.748058	0.198455	1.558411
C127	C	1.200271	-0.363044	1.083038
C128	C	1.700271	0.136956	1.583038
C129	C	1.188452	-0.378251	1.171691
C130	C	1.688452	0.121749	1.671691
C131	C	1.224411	-0.331960	1.235724
C132	C	1.724411	0.168040	1.735724
C133	C	1.259880	-0.286335	0.969750
C134	C	1.759880	0.213665	1.469750
C135	C	1.176137	-0.394129	0.930353
C136	C	1.676137	0.105871	1.430353
C137	C	1.164312	-0.409334	1.019005
C138	C	1.664312	0.090666	1.519005
H139	H	0.665033	-0.384010	0.414388
H140	H	1.165033	0.115990	0.914388
H141	H	1.364479	-0.902420	0.520838
H142	H	1.864479	-0.402420	1.020838
Br143	Br	0.804267	-0.429339	0.338890
Br144	Br	1.304267	0.070661	0.838890
H145	H	0.978521	-0.386371	0.410371
H146	H	1.478521	0.113629	0.910371
Br147	Br	1.404744	-0.099857	1.337394
Br148	Br	1.904744	0.400143	1.837394
H149	H	0.907187	-0.248720	0.639437
H150	H	1.407187	0.251280	1.139437
H151	H	1.214786	-0.344337	1.307913
H152	H	1.714786	0.155663	1.807913
Br153	Br	0.879454	-0.204276	0.713407
Br154	Br	1.379454	0.295724	1.213407
H155	H	1.341432	-0.181367	1.025623
H156	H	1.841432	0.318633	1.525623
Br157	Br	1.004285	-0.872214	0.774142
Br158	Br	1.504285	-0.372214	1.274142
H159	H	1.146858	-0.431824	0.878217
H160	H	1.646858	0.068176	1.378217
Br161	Br	0.500801	-0.330736	0.503053
Br162	Br	1.000801	0.169264	1.003053
Br163	Br	0.728623	-0.127518	0.841195
Br164	Br	1.228623	0.372482	1.341195
H165	H	1.451783	-0.531376	0.459283
H166	H	1.951783	-0.031376	0.959283
H167	H	1.149549	-0.428332	1.191739
H168	H	1.649549	0.071668	1.691739
H169	H	1.298788	-0.236262	0.949707
H170	H	1.798788	0.263738	1.449707
H171	H	1.457696	-0.803462	0.455235
H172	H	1.957696	-0.303462	0.955235
Br173	Br	1.052270	-1.054411	0.740432
Br174	Br	1.552270	-0.554411	1.240432
Br175	Br	0.519645	-0.152826	0.799147
Br176	Br	1.019645	0.347174	1.299147
Br177	Br	1.527666	-0.683959	0.405973
Br178	Br	2.027666	-0.183959	0.905973
H179	H	1.228397	-0.589076	0.616409
H180	H	1.728397	-0.089076	1.116409
H181	H	1.406671	-0.097389	1.141795
H182	H	1.906671	0.402611	1.641795
H183	H	1.167467	-0.653752	0.659261
H184	H	1.667467	-0.153752	1.159261
Br185	Br	1.342505	-0.979457	0.536322
Br186	Br	1.842505	-0.479457	1.036322
H187	H	1.074248	-0.752728	0.724883
H188	H	1.574248	-0.252728	1.224883
H189	H	1.125402	-0.459407	1.039070
H190	H	1.625402	0.040593	1.539070
