data_functionalizedCrystal
_audit_creation_method	'MofGen! by Chris Wilmer'
_symmetry_space_group_name_H-M	'P1'
_symmetry_Int_Tables_number	1
_symmetry_cell_setting	triclinic
loop_
_symmetry_equiv_pos_as_xyz
  x,y,z
_cell_length_a	19.188930
_cell_length_b	14.971486
_cell_length_c	18.266242
_cell_angle_alpha	90.001879
_cell_angle_beta	89.979776
_cell_angle_gamma	96.620546
loop_
_atom_site_label
_atom_site_type_symbol
_atom_site_fract_x
_atom_site_fract_y
_atom_site_fract_z
O1	O	0.926507	-0.111664	-0.061117
O2	O	0.723244	-0.126697	-0.061067
O3	O	0.830323	0.011048	-0.061088
O4	O	0.819427	-0.249409	-0.061096
O5	O	0.830309	0.011044	0.060674
O6	O	0.723230	-0.126701	0.060695
O7	O	0.926493	-0.111669	0.060645
Zn8	Zn	0.824859	-0.119186	0.080003
Zn9	Zn	0.824877	-0.119180	-0.080424
O10	O	0.819413	-0.249414	0.060666
C11	C	0.697224	-0.126212	-0.000179
C12	C	0.619715	-0.124751	-0.000160
N13	N	0.824852	-0.119189	0.189490
C14	C	0.829829	0.044368	-0.000207
C15	C	0.828369	0.143658	-0.000207
C16	C	0.575051	-0.205575	-0.000174
C17	C	0.502223	-0.204202	-0.000182
C18	C	0.474062	-0.122000	-0.000191
C19	C	0.518735	-0.041165	-0.000173
C20	C	0.591562	-0.042541	-0.000157
N21	N	0.365884	-0.059166	-0.041659
N22	N	0.296701	-0.057865	-0.041675
C23	C	0.254640	-0.117852	-0.000235
N24	N	0.284373	-0.179203	0.041212
N25	N	0.353562	-0.180506	0.041225
C26	C	0.395094	-0.120500	-0.000207
C27	C	0.131007	-0.197193	-0.000257
C28	C	0.058178	-0.195817	-0.000260
C29	C	0.074692	-0.032778	-0.000258
C30	C	0.147519	-0.034157	-0.000248
C31	C	0.175672	-0.116367	-0.000250
C32	C	0.952512	-0.112153	-0.000244
C33	C	1.030021	-0.113615	-0.000268
C34	C	0.819907	-0.282734	-0.000216
C35	C	0.821368	-0.382023	-0.000221
C36	C	0.891275	0.201215	-0.000222
C37	C	0.889899	0.294507	-0.000229
C38	C	0.825615	0.330240	-0.000216
C39	C	0.762704	0.272675	-0.000203
C40	C	0.764081	0.179385	-0.000201
C41	C	0.759839	0.467123	-0.000205
C42	C	0.758461	0.560419	-0.000206
C43	C	0.885656	0.582245	-0.000233
C44	C	0.887033	0.488955	-0.000231
C45	C	0.824122	0.431396	-0.000217
N46	N	0.824890	-0.119169	-0.189911
C47	C	0.867278	-0.173276	0.771753
C48	C	0.867271	-0.173285	0.695108
C49	C	0.824884	-0.119171	0.656802
C50	C	0.782487	-0.065060	0.695147
C51	C	0.782490	-0.065059	0.771791
N52	N	0.822940	-0.040819	0.536468
N53	N	0.822941	-0.040822	0.463660
C54	C	0.824870	-0.119171	0.425880
N55	N	0.826812	-0.197517	0.463659
N56	N	0.826815	-0.197513	0.536473
C57	C	0.824875	-0.119166	0.573695
C58	C	0.867253	-0.173292	0.304437
C59	C	0.867241	-0.173303	0.227791
C60	C	0.782460	-0.065070	0.227831
C61	C	0.782469	-0.065067	0.304476
C62	C	0.824869	-0.119177	0.342774
H63	H	0.597968	-0.272517	-0.000177
H64	H	0.627928	0.023278	-0.000146
H65	H	0.901802	-0.217339	0.802931
H66	H	0.747943	-0.021014	0.196643
Cl67	Cl	0.729198	0.002968	0.819987
Cl68	Cl	0.483334	0.062174	-0.000179
H69	H	0.183886	0.031659	-0.000240
H70	H	0.901788	-0.217350	0.663889
H71	H	0.465851	-0.270021	-0.000191
Cl72	Cl	0.166403	-0.300541	-0.000253
Cl73	Cl	0.681890	0.317597	-0.000196
Cl74	Cl	0.729180	0.002962	0.352672
H75	H	0.936881	0.629114	-0.000247
Cl76	Cl	0.002027	-0.297435	-0.000274
H77	H	0.708609	0.420260	-0.000196
Cl78	Cl	0.729196	0.002966	0.646992
H79	H	0.051764	0.034152	-0.000311
H80	H	0.706116	0.589510	-0.000183
H81	H	0.939378	0.459865	-0.000237
Cl82	Cl	0.972093	0.156304	-0.000231
Cl83	Cl	0.968985	0.366862	-0.000246
Cl84	Cl	0.920518	-0.241351	0.179596
Cl85	Cl	0.684996	0.107026	-0.000185
H86	H	0.901774	-0.217356	0.335621
