data_functionalizedCrystal
_audit_creation_method	'MofGen! by Chris Wilmer'
_symmetry_space_group_name_H-M	'P1'
_symmetry_Int_Tables_number	1
_symmetry_cell_setting	triclinic
loop_
_symmetry_equiv_pos_as_xyz
  x,y,z
_cell_length_a	13.897449
_cell_length_b	18.050589
_cell_length_c	13.897441
_cell_angle_alpha	89.973300
_cell_angle_beta	90.018596
_cell_angle_gamma	89.964023
loop_
_atom_site_label
_atom_site_type_symbol
_atom_site_fract_x
_atom_site_fract_y
_atom_site_fract_z
Zn1	Zn	1.474568	0.295618	0.545401
Zn2	Zn	1.974568	0.795618	1.045401
Zn3	Zn	1.474420	0.419820	0.384110
Zn4	Zn	1.974420	0.919820	0.884110
Zn5	Zn	1.313263	0.295651	0.384119
Zn6	Zn	1.813263	0.795651	0.884119
Zn7	Zn	1.313191	0.419773	0.545363
Zn8	Zn	1.813191	0.919773	1.045363
O9	O	1.393861	0.357715	0.464748
O10	O	1.893861	0.857715	0.964748
O11	O	1.609530	0.312099	0.524017
O12	O	2.109530	0.812099	1.024017
O13	O	1.453011	0.403382	0.249130
O14	O	1.953011	0.903382	0.749130
O15	O	1.334753	0.191722	0.405533
O16	O	1.834753	0.691722	0.905533
O17	O	1.609422	0.403350	0.405518
O18	O	2.109422	0.903350	0.905518
O19	O	1.453263	0.191697	0.524026
O20	O	1.953263	0.691697	1.024026
O21	O	1.334610	0.312156	0.249136
O22	O	1.834610	0.812156	0.749136
O23	O	1.178272	0.312110	0.405496
O24	O	1.678272	0.812110	0.905496
O25	O	1.334630	0.403270	0.680350
O26	O	1.834630	0.903270	1.180350
O27	O	1.178219	0.403302	0.523961
O28	O	1.678219	0.903302	1.023961
O29	O	1.453193	0.312054	0.680377
O30	O	1.953193	0.812054	1.180377
O31	O	1.452941	0.523738	0.405481
O32	O	1.952941	1.023738	0.905481
O33	O	1.334487	0.523704	0.523953
O34	O	1.834487	1.023704	1.023953
C35	C	1.143247	0.357705	0.464726
C36	C	1.643247	0.857705	0.964726
C37	C	1.036033	0.357719	0.464740
C38	C	1.536033	0.857719	0.964740
C39	C	0.839737	0.357722	0.464765
C40	C	1.339737	0.857722	0.964765
C41	C	0.948970	0.357718	0.464748
C42	C	1.448970	0.857718	0.964748
C43	C	1.393716	0.550667	0.464733
C44	C	1.893716	1.050667	0.964733
C45	C	1.393742	0.633213	0.464759
C46	C	1.893742	1.133213	0.964759
C47	C	1.329361	0.832672	0.529162
C48	C	1.829361	1.332672	1.029162
C49	C	1.305840	0.882117	0.441144
C50	C	1.805840	1.382117	0.941144
C51	C	1.393815	0.784344	0.464772
C52	C	1.893815	1.284344	0.964772
C53	C	1.417362	0.881981	0.552801
C54	C	1.917362	1.381981	1.052801
C55	C	1.393883	0.930329	0.464793
C56	C	1.893883	1.430329	0.964793
C57	C	1.370248	0.832701	0.376707
C58	C	1.870248	1.332701	0.876707
C59	C	1.481811	0.832560	0.488424
C60	C	1.981811	1.332560	0.988424
C61	C	1.458323	0.881983	0.400345
C62	C	1.958323	1.381983	0.900345
C63	C	1.393773	0.700245	0.464762
C64	C	1.893773	1.200245	0.964762
C65	C	1.393925	1.014425	0.464793
C66	C	1.893925	1.514425	0.964793
C67	C	1.645454	0.357726	0.464771
C68	C	2.145454	0.857726	0.964771
C69	C	1.752668	0.357730	0.464781
C70	C	2.252668	0.857730	0.964781
C71	C	1.393920	0.357653	0.716341
C72	C	1.893920	0.857653	1.216341
C73	C	1.393945	0.357626	0.823555
C74	C	1.893945	0.857626	1.323555
C75	C	1.393996	1.164010	0.464786
C76	C	1.893996	1.664010	0.964786
C77	C	1.393959	1.081464	0.464805
C78	C	1.893959	1.581464	0.964805
C79	C	1.393858	0.357724	0.214134
C80	C	1.893858	0.857724	0.714134
C81	C	1.394019	0.357541	0.106921
C82	C	1.894019	0.857541	0.606921
C83	C	1.393965	0.357605	0.910625
C84	C	1.893965	0.857605	1.410625
C85	C	1.393993	0.357572	1.019858
C86	C	1.893993	0.857572	1.519858
H87	H	1.231458	0.903901	0.421157
H88	H	1.731458	1.403901	0.921157
H89	H	1.512859	0.903498	0.345838
H90	H	2.012859	1.403498	0.845838
O91	O	1.264389	0.806800	0.594142
O92	O	1.764389	1.306800	1.094142
C93	C	1.238476	0.734440	0.737552
C94	C	1.738476	1.234440	1.237552
C95	C	1.312161	0.763705	0.664052
C96	C	1.812161	1.263705	1.164052
H97	H	1.277067	0.699579	0.794081
H98	H	1.777067	1.199579	1.294081
H99	H	1.201031	0.783123	0.774007
H100	H	1.701031	1.283123	1.274007
H101	H	1.182758	0.698909	0.698934
H102	H	1.682758	1.198909	1.198934
H103	H	1.367937	0.799225	0.702596
H104	H	1.867937	1.299225	1.202596
H105	H	1.349532	0.714988	0.627600
H106	H	1.849532	1.214988	1.127600
H107	H	1.556176	0.810779	0.508453
H108	H	2.056176	1.310779	1.008453
O109	O	1.346573	0.807026	0.287819
O110	O	1.846573	1.307026	0.787819
C111	C	1.387199	0.803643	0.119327
C112	C	1.887199	1.303643	0.619327
C113	C	1.414137	0.832757	0.219937
C114	C	1.914137	1.332757	0.719937
H115	H	1.441798	0.824448	0.064415
H116	H	1.941798	1.324448	0.564415
H117	H	1.387378	0.740487	0.119984
H118	H	1.887378	1.240487	0.619984
H119	H	1.312427	0.824483	0.099092
H120	H	1.812427	1.324483	0.599092
H121	H	1.488914	0.811972	0.240235
H122	H	1.988914	1.311972	0.740235
H123	H	1.413892	0.895912	0.219226
H124	H	1.913892	1.395912	0.719226
O125	O	1.441266	0.907769	0.641574
O126	O	1.941266	1.407769	1.141574
C127	C	1.560259	0.910655	0.767666
C128	C	2.060259	1.410655	1.267666
C129	C	1.533330	0.881417	0.667114
C130	C	2.033330	1.381417	1.167114
H131	H	1.634685	0.889348	0.788355
H132	H	2.134685	1.389348	1.288355
H133	H	1.560824	0.973807	0.766680
H134	H	2.060824	1.473807	1.266680
H135	H	1.505162	0.890413	0.822435
H136	H	2.005162	1.390413	1.322435
H137	H	1.588399	0.901604	0.612288
H138	H	2.088399	1.401604	1.112288
H139	H	1.532734	0.818266	0.668180
H140	H	2.032734	1.318266	1.168180
