data_functionalizedCrystal
_audit_creation_method	'MofGen! by Chris Wilmer'
_symmetry_space_group_name_H-M	'P1'
_symmetry_Int_Tables_number	1
_symmetry_cell_setting	triclinic
loop_
_symmetry_equiv_pos_as_xyz
  x,y,z
_cell_length_a	12.594517
_cell_length_b	25.639239
_cell_length_c	12.594509
_cell_angle_alpha	89.965872
_cell_angle_beta	89.985695
_cell_angle_gamma	90.038644
loop_
_atom_site_label
_atom_site_type_symbol
_atom_site_fract_x
_atom_site_fract_y
_atom_site_fract_z
Zn1	Zn	1.627099	-0.208136	-0.601617
Zn2	Zn	2.127099	0.291864	-0.101617
Zn3	Zn	1.626920	-0.295578	-0.423620
Zn4	Zn	2.126920	0.204422	0.076380
Zn5	Zn	1.449103	-0.208158	-0.423668
Zn6	Zn	1.949103	0.291842	0.076332
Zn7	Zn	1.449015	-0.295542	-0.601572
Zn8	Zn	1.949015	0.204458	-0.101572
O9	O	1.538035	-0.251853	-0.512619
O10	O	2.038035	0.248147	-0.012619
O11	O	1.776021	-0.219741	-0.578004
O12	O	2.276021	0.280259	-0.078004
O13	O	1.603294	-0.284006	-0.274681
O14	O	2.103294	0.215994	0.225319
O15	O	1.472827	-0.134990	-0.447312
O16	O	1.972827	0.365010	0.052688
O17	O	1.775890	-0.283984	-0.447231
O18	O	2.275890	0.216016	0.052769
O19	O	1.603600	-0.134973	-0.578050
O20	O	2.103600	0.365027	-0.078050
O21	O	1.472653	-0.219779	-0.274715
O22	O	1.972653	0.280221	0.225285
O23	O	1.300146	-0.219744	-0.447268
O24	O	1.800146	0.280256	0.052732
O25	O	1.472677	-0.283923	-0.750524
O26	O	1.972677	0.216077	-0.250524
O27	O	1.300081	-0.283945	-0.577974
O28	O	1.800081	0.216055	-0.077974
O29	O	1.603514	-0.219706	-0.750557
O30	O	2.103514	0.280294	-0.250557
O31	O	1.603209	-0.368738	-0.447187
O32	O	2.103209	0.131262	0.052813
O33	O	1.472503	-0.368712	-0.577928
O34	O	1.972503	0.131288	-0.077928
C35	C	1.261494	-0.251843	-0.512622
C36	C	1.761494	0.248157	-0.012622
C37	C	1.143188	-0.251852	-0.512648
C38	C	1.643188	0.248148	-0.012648
C39	C	1.003167	-0.286833	-0.583607
C40	C	1.503167	0.213167	-0.083607
C41	C	1.073927	-0.299560	-0.486463
C42	C	1.573927	0.200440	0.013537
C43	C	1.073999	-0.239148	-0.609781
C44	C	1.573999	0.260852	-0.109781
C45	C	1.003163	-0.264620	-0.415421
C46	C	1.503163	0.235380	0.084579
C47	C	1.003229	-0.204186	-0.538805
C48	C	1.503229	0.295814	-0.038805
C49	C	1.073957	-0.216894	-0.441594
C50	C	1.573957	0.283106	0.058406
C51	C	1.537856	-0.387696	-0.512570
C52	C	2.037856	0.112304	-0.012570
C53	C	1.537876	-0.445810	-0.512585
C54	C	2.037876	0.054190	-0.012585
C55	C	1.606271	-0.806174	-0.444659
C56	C	2.106271	-0.306174	0.055341
C57	C	1.606312	-0.860779	-0.444673
C58	C	2.106312	-0.360779	0.055327
O59	O	1.664278	-0.889016	-0.386866
O60	O	2.164278	-0.389016	0.113134
N61	N	1.538222	-0.888092	-0.512690
N62	N	2.038222	-0.388092	-0.012690
C63	C	1.470093	-0.860799	-0.580704
C64	C	1.970093	-0.360799	-0.080704
O65	O	1.412182	-0.889046	-0.638560
O66	O	1.912182	-0.389046	-0.138560
C67	C	1.470058	-0.806196	-0.580695
C68	C	1.970058	-0.306196	-0.080695
C69	C	1.538145	-0.778885	-0.512666
C70	C	2.038145	-0.278885	-0.012666
C71	C	1.674353	-0.778863	-0.376636
C72	C	2.174353	-0.278863	0.123364
C73	C	1.674310	-0.724263	-0.376621
C74	C	2.174310	-0.224263	0.123379
C75	C	1.606185	-0.696973	-0.444628
C76	C	2.106185	-0.196973	0.055372
C77	C	1.538102	-0.724284	-0.512650
C78	C	2.038102	-0.224284	-0.012650
C79	C	1.401936	-0.778904	-0.648714
C80	C	1.901936	-0.278904	-0.148714
C81	C	1.401907	-0.724297	-0.648699
C82	C	1.901907	-0.224297	-0.148699
C83	C	1.469994	-0.696986	-0.580670
C84	C	1.969994	-0.196986	-0.080670
C85	C	1.469934	-0.642394	-0.580642
C86	C	1.969934	-0.142394	-0.080642
N87	N	1.538024	-0.615080	-0.512625
N88	N	2.038024	-0.115080	-0.012625
C89	C	1.606150	-0.642370	-0.444618
C90	C	2.106150	-0.142370	0.055382
C91	C	1.470173	-0.975470	-0.580721
C92	C	1.970173	-0.475470	-0.080721
C93	C	1.470202	-1.030072	-0.580726
C94	C	1.970202	-0.530072	-0.080726
C95	C	1.606423	-1.030048	-0.444695
C96	C	2.106423	-0.530048	0.055305
C97	C	1.606388	-0.975444	-0.444686
C98	C	2.106388	-0.475444	0.055314
C99	C	1.538264	-0.948156	-0.512704
C100	C	2.038264	-0.448156	-0.012704
C101	C	1.606054	-0.527705	-0.444590
C102	C	2.106054	-0.027705	0.055410
C103	C	1.606002	-0.473100	-0.444578
C104	C	2.106002	0.026900	0.055422
C105	C	1.469786	-0.473129	-0.580612
C106	C	1.969786	0.026871	-0.080612
C107	C	1.469833	-0.527729	-0.580621
C108	C	1.969833	-0.027729	-0.080621
C109	C	1.537976	-0.555016	-0.512607
C110	C	2.037976	-0.055016	-0.012607
O111	O	1.412001	-0.614122	-0.638423
O112	O	1.912001	-0.114122	-0.138423
O113	O	1.664061	-0.614117	-0.386782
O114	O	2.164061	-0.114117	0.113218
C115	C	1.815655	-0.251864	-0.512617
C116	C	2.315655	0.248136	-0.012617
C117	C	1.933961	-0.251868	-0.512616
C118	C	2.433961	0.248132	-0.012616
C119	C	1.538106	-0.251808	-0.790240
C120	C	2.038106	0.248192	-0.290240
C121	C	1.538136	-0.251788	-0.908546
C122	C	2.038136	0.248212	-0.408546
C123	C	1.538243	-0.115480	-0.512691
C124	C	2.038243	0.384520	-0.012691
C125	C	1.538332	-0.057366	-0.512722
C126	C	2.038332	0.442634	-0.012722
C127	C	1.466996	-0.286696	-0.977781
C128	C	1.966996	0.213304	-0.477781
C129	C	1.564106	-0.299471	-1.048557
C130	C	2.064106	0.200529	-0.548557
C131	C	1.441102	-0.238982	-1.048569
C132	C	1.941102	0.261018	-0.548569
C133	C	1.635297	-0.264588	-0.977763
C134	C	2.135297	0.235412	-0.477763
C135	C	1.512227	-0.204077	-0.977769
C136	C	2.012227	0.295923	-0.477769
C137	C	1.609405	-0.216834	-1.048513
C138	C	2.109405	0.283166	-0.548513
C139	C	1.538025	-0.251861	-0.236078
C140	C	2.038025	0.248139	0.263922
C141	C	1.538201	-0.251734	-0.117773
C142	C	2.038201	0.248266	0.382227
H143	H	0.972178	-0.275420	-0.333240
H144	H	1.472178	0.224580	0.166760
Cl145	Cl	1.384514	-0.941170	-0.666229
Cl146	Cl	1.884514	-0.441170	-0.166229
Cl147	Cl	1.478296	-0.141836	-0.929721
Cl148	Cl	1.978296	0.358164	-0.429721
Cl149	Cl	1.692065	-1.064365	-0.359198
Cl150	Cl	2.192065	-0.564365	0.140802
Cl151	Cl	1.121635	-0.171227	-0.348826
Cl152	Cl	1.621635	0.328773	0.151174
Cl153	Cl	1.316262	-0.689994	-0.734215
Cl154	Cl	1.816262	-0.189994	-0.234215
Cl155	Cl	1.691987	-0.941116	-0.359162
Cl156	Cl	2.191987	-0.441116	0.140838
H157	H	0.972085	-0.316432	-0.643553
H158	H	1.472085	0.183568	-0.143553
H159	H	1.586055	-0.339796	-1.079651
H160	H	2.086055	0.160204	-0.579651
H161	H	1.104982	-0.339877	-0.464318
H162	H	1.604982	0.160123	0.035682
H163	H	1.414315	-0.450901	-0.635980
H164	H	1.914315	0.049099	-0.135980
H165	H	1.729756	-0.702029	-0.321229
H166	H	2.229756	-0.202029	0.178771
Cl167	Cl	0.955238	-0.141958	-0.573038
Cl168	Cl	1.455238	0.358042	-0.073038
Cl169	Cl	1.316347	-0.813224	-0.734254
Cl170	Cl	1.816347	-0.313224	-0.234254
Cl171	Cl	1.122041	-0.222548	-0.736625
Cl172	Cl	1.622041	0.277452	-0.236625
H173	H	1.661446	-0.450865	-0.389177
H174	H	2.161446	0.049135	0.110823
Cl175	Cl	1.691718	-0.562000	-0.359084
Cl176	Cl	2.191718	-0.062000	0.140916
H177	H	1.414395	-0.549967	-0.636019
H178	H	1.914395	-0.049967	-0.136019
H179	H	1.717409	-0.275443	-0.946792
H180	H	2.217409	0.224557	-0.446792
H181	H	1.729835	-0.801077	-0.321256
H182	H	2.229835	-0.301077	0.178744
Cl183	Cl	1.702434	-0.171221	-1.096170
Cl184	Cl	2.202434	0.328779	-0.596170
Cl185	Cl	1.314367	-0.222292	-1.096589
Cl186	Cl	1.814367	0.277708	-0.596589
H187	H	1.406882	-0.316262	-0.946725
H188	H	1.906882	0.183738	-0.446725
H189	H	1.414749	-1.052304	-0.636112
H190	H	1.914749	-0.552304	-0.136112
