data_functionalizedCrystal
_audit_creation_method	'MofGen! by Chris Wilmer'
_symmetry_space_group_name_H-M	'P1'
_symmetry_Int_Tables_number	1
_symmetry_cell_setting	triclinic
loop_
_symmetry_equiv_pos_as_xyz
  x,y,z
_cell_length_a	15.995292
_cell_length_b	8.559649
_cell_length_c	14.472311
_cell_angle_alpha	90.004147
_cell_angle_beta	90.007316
_cell_angle_gamma	103.376360
loop_
_atom_site_label
_atom_site_type_symbol
_atom_site_fract_x
_atom_site_fract_y
_atom_site_fract_z
O1	O	-0.028397	-2.120116	0.076827
O2	O	0.014847	-1.654895	0.076830
O3	O	-0.129487	-1.900271	0.076830
O4	O	0.115937	-1.874740	0.076827
O5	O	-0.129509	-1.900296	-0.076852
O6	O	0.014825	-1.654920	-0.076852
O7	O	-0.028419	-2.120141	-0.076855
Cu8	Cu	-0.006799	-1.887533	-0.090886
Cu9	Cu	-0.006773	-1.887503	0.090861
O10	O	0.115915	-1.874765	-0.076855
C11	C	0.018113	-1.595376	-0.000011
C12	C	0.027868	-1.417992	-0.000010
N13	N	-0.006819	-1.887566	-0.218717
C14	C	-0.160626	-1.899245	-0.000009
C15	C	-0.253379	-1.896129	-0.000002
C16	C	-0.590381	-1.884677	-0.000010
C17	C	-0.578458	-2.061783	-0.000355
C18	C	-0.481998	-2.065149	-0.000005
C19	C	-0.423191	-1.890360	-0.000007
C20	C	-0.446585	-1.801800	0.087751
C21	C	-0.543238	-1.799668	0.087821
C22	C	-0.542888	-1.796081	-0.086944
C23	C	-0.446818	-1.802644	-0.088101
C24	C	-0.328700	-1.893562	-0.000002
C25	C	-0.684871	-1.881469	-0.000009
C26	C	0.147055	-1.875792	-0.000014
C27	C	0.239807	-1.878907	-0.000015
C28	C	-0.031685	-2.179660	-0.000012
C29	C	-0.041440	-2.357044	-0.000008
N30	N	-0.006760	-1.887483	0.218692
C31	C	-0.006780	-1.887512	0.407192
C32	C	0.070322	-1.755967	0.446422
C33	C	0.070533	-1.756320	0.553510
C34	C	-0.006799	-1.887537	0.592783
C35	C	0.001429	-2.054320	0.553897
C36	C	0.001983	-2.053533	0.446776
C37	C	-0.092417	-1.853779	0.446646
C38	C	-0.091601	-1.850004	0.553775
C39	C	-0.006812	-1.887562	0.697671
C40	C	-0.006766	-1.887498	0.302304
H41	H	-0.610854	-2.130058	-0.063289
H42	H	0.094673	-1.334460	-0.000005
H43	H	-0.053697	-2.154579	0.579333
C44	C	0.066083	-1.588847	0.589038
C45	C	0.065408	-1.556362	0.693662
C46	C	0.060960	-1.388881	0.729184
C47	C	0.057187	-1.253885	0.660084
C48	C	0.057861	-1.286366	0.555454
C49	C	0.062309	-1.453847	0.519931
H50	H	0.068202	-1.656298	0.744820
H51	H	0.060461	-1.364837	0.806639
H52	H	0.053895	-1.129905	0.686380
H53	H	0.055068	-1.186430	0.504295
H54	H	0.062808	-1.477891	0.442477
C55	C	-0.171630	-1.971042	0.589867
C56	C	-0.239631	-1.911789	0.646665
C57	C	-0.319660	-2.032844	0.682751
C58	C	-0.331688	-2.213152	0.662040
C59	C	-0.263686	-2.272414	0.605240
C60	C	-0.183656	-2.151359	0.569154
H61	H	-0.230728	-1.778306	0.661998
H62	H	-0.370000	-1.988973	0.724798
H63	H	-0.390931	-2.302765	0.688754
H64	H	-0.272588	-2.405897	0.589906
H65	H	-0.133316	-2.195229	0.527106
C66	C	0.066117	-1.587893	0.411717
C67	C	-0.007370	-1.568027	0.347321
C68	C	-0.011602	-1.399938	0.312651
C69	C	0.057653	-1.251716	0.342377
C70	C	0.131146	-1.271577	0.406776
C71	C	0.135378	-1.439666	0.441447
H72	H	-0.058642	-1.677754	0.325313
H73	H	-0.066007	-1.385236	0.264977
H74	H	0.054520	-1.127286	0.316711
H75	H	0.182418	-1.161850	0.428784
H76	H	0.189782	-1.454369	0.489120
H77	H	-0.611832	-2.129658	0.062226
H78	H	-0.108240	-1.440567	-0.000002
H79	H	0.133749	-1.777233	0.419526
C80	C	0.156676	-1.785480	0.588168
C81	C	0.225487	-1.808529	0.518373
C82	C	0.311634	-1.837693	0.553030
C83	C	0.328969	-1.843809	0.657483
C84	C	0.260156	-1.820759	0.727285
C85	C	0.174009	-1.791595	0.692627
H86	H	0.212657	-1.804002	0.441045
H87	H	0.362574	-1.854756	0.501358
H88	H	0.392739	-1.865398	0.683138
H89	H	0.272986	-1.825286	0.804613
H90	H	0.123069	-1.774532	0.744300
H91	H	-0.149666	-1.949707	0.421273
C92	C	-0.427346	-1.889740	-0.175812
C93	C	-0.390166	-2.039802	-0.167525
C94	C	-0.370687	-2.126900	-0.255234
C95	C	-0.388389	-2.063936	-0.351231
C96	C	-0.425571	-1.913867	-0.359522
C97	C	-0.445049	-1.826768	-0.271813
H98	H	-0.377060	-2.086418	-0.096459
H99	H	-0.343162	-2.237992	-0.249096
H100	H	-0.373970	-2.128412	-0.416159
H101	H	-0.438676	-1.867250	-0.430589
H102	H	-0.472574	-1.715676	-0.277951
C103	C	-0.584789	-1.882507	0.176438
C104	C	-0.529962	-1.950133	0.246649
C105	C	-0.571508	-2.032978	0.335267
C106	C	-0.667881	-2.048195	0.353674
C107	C	-0.722713	-1.980567	0.283461
C108	C	-0.681167	-1.897723	0.194843
H109	H	-0.458616	-1.938870	0.233025
H110	H	-0.530917	-2.083041	0.387244
H111	H	-0.698636	-2.109522	0.419275
H112	H	-0.794059	-1.991830	0.297085
H113	H	-0.721758	-1.847660	0.142867
H114	H	0.064105	-2.083230	0.421811
H115	H	-0.052539	-2.154493	0.420822
H116	H	-0.467442	-2.134505	-0.062912
C117	C	-0.391200	-1.630289	-0.095263
C118	C	-0.393704	-1.508422	-0.017625
C119	C	-0.338085	-1.336061	-0.024778
C120	C	-0.279962	-1.285566	-0.109568
C121	C	-0.277457	-1.407435	-0.187212
C122	C	-0.333076	-1.579797	-0.180060
H123	H	-0.436732	-1.545799	0.045147
H124	H	-0.339940	-1.245845	0.032700
H125	H	-0.238790	-1.157973	-0.114863
H126	H	-0.234429	-1.370058	-0.249985
H127	H	-0.331220	-1.670013	-0.237538
H128	H	0.062767	-2.084745	0.580745
H129	H	-0.548496	-1.665718	-0.087537
H130	H	-0.468070	-2.134893	0.063012
H131	H	-0.549438	-1.669812	0.091796
H132	H	-0.406446	-1.673178	0.091012
H133	H	-0.430469	-1.863277	0.153061
H134	H	-0.574573	-1.851866	-0.153464
H135	H	-0.103012	-1.734765	0.419612
H136	H	-0.098098	-1.727314	0.579193
