data_functionalizedCrystal
_audit_creation_method	'MofGen! by Chris Wilmer'
_symmetry_space_group_name_H-M	'P1'
_symmetry_Int_Tables_number	1
_symmetry_cell_setting	triclinic
loop_
_symmetry_equiv_pos_as_xyz
  x,y,z
_cell_length_a	13.897449
_cell_length_b	15.297327
_cell_length_c	15.296720
_cell_angle_alpha	107.319222
_cell_angle_beta	99.659654
_cell_angle_gamma	99.708002
loop_
_atom_site_label
_atom_site_type_symbol
_atom_site_fract_x
_atom_site_fract_y
_atom_site_fract_z
Zn1	Zn	1.280055	-0.461212	-0.589864
Zn2	Zn	1.279946	-0.589834	-0.461258
Zn3	Zn	1.152514	-0.434342	-0.434378
Zn4	Zn	1.084966	-0.616678	-0.616698
O5	O	1.199370	-0.525517	-0.525549
O6	O	1.415017	-0.478286	-0.572823
O7	O	1.291265	-0.546728	-0.327569
O8	O	1.197748	-0.307769	-0.432524
O9	O	1.414936	-0.572783	-0.478337
O10	O	1.291452	-0.327511	-0.546759
O11	O	1.197642	-0.432488	-0.307821
O12	O	1.008578	-0.458518	-0.458544
O13	O	1.082622	-0.618535	-0.743261
O14	O	0.958950	-0.592480	-0.592493
O15	O	1.225953	-0.504315	-0.723547
O16	O	1.225766	-0.723532	-0.504357
O17	O	1.082515	-0.743254	-0.618557
C18	C	1.146821	-0.767140	-0.567306
C19	C	1.124421	-0.870513	-0.585201
C20	C	0.948766	-0.525497	-0.525514
C21	C	0.841547	-0.525514	-0.525525
C22	C	1.359792	-1.120733	-0.397970
C23	C	1.380838	-1.023608	-0.381153
C24	C	1.316736	-0.985329	-0.432163
C25	C	1.231584	-1.044185	-0.499994
C26	C	1.210531	-1.141318	-0.516809
C27	C	1.167475	-1.005915	-0.551001
C28	C	1.082323	-1.064771	-0.618832
C29	C	1.061275	-1.161894	-0.635644
C30	C	1.125377	-1.200173	-0.584633
C31	C	1.188527	-0.908782	-0.534187
C32	C	1.039267	-0.929367	-0.653025
C33	C	1.018221	-1.026492	-0.669843
C34	C	0.754473	-0.525520	-0.525542
C35	C	0.645233	-0.525532	-0.525571
C36	C	1.450953	-0.525537	-0.525585
C37	C	1.558162	-0.525546	-0.525600
C38	C	1.146765	-0.567417	-0.768087
C39	C	1.124347	-0.585273	-0.871442
C40	C	1.252147	-0.282953	-0.483650
C41	C	1.274637	-0.179587	-0.465795
C42	C	1.359663	-0.397738	-1.121726
C43	C	1.380731	-0.380963	-1.024619
C44	C	1.316637	-0.432039	-0.986320
C45	C	1.231471	-0.499892	-1.045137
C46	C	1.210405	-0.516674	-1.142255
C47	C	1.167379	-0.550975	-1.006849
C48	C	1.082213	-0.618828	-1.065666
C49	C	1.061151	-0.635606	-1.162773
C50	C	1.125245	-0.584531	-1.201073
C51	C	1.188445	-0.534193	-0.909731
C52	C	1.039187	-0.653129	-0.930260
C53	C	1.018119	-0.669904	-1.027367
C54	C	1.251842	-0.483712	-0.283944
C55	C	1.274503	-0.465595	-0.180544
H56	H	1.257859	-0.860869	-0.478959
O57	O	1.337183	-0.415901	-0.892018
C58	C	1.349577	-0.499441	-0.874995
H59	H	1.371082	-0.547563	-0.937631
H60	H	1.411399	-0.481577	-0.808910
H61	H	1.276275	-0.536736	-0.864679
H62	H	1.108248	-1.279260	-0.598325
H63	H	0.948776	-0.725151	-1.075269
O64	O	0.978468	-0.701638	-1.219825
C65	C	0.984545	-0.790226	-1.212115
H66	H	1.036503	-0.779967	-1.141945
H67	H	0.906583	-0.831345	-1.215977
H68	H	1.015462	-0.831001	-1.272188
H69	H	1.411843	-0.356165	-1.152920
O70	O	0.977119	-0.892171	-0.702677
C71	C	1.031148	-0.846287	-0.753028
H72	H	1.099521	-0.876502	-0.763897
H73	H	0.980927	-0.857541	-0.824367
H74	H	1.056685	-0.767718	-0.711539
H75	H	1.333876	-0.906245	-0.418465
H76	H	1.108096	-0.598185	-1.280144
O77	O	0.977065	-0.702776	-0.892972
C78	C	1.031092	-0.753155	-0.847199
H79	H	1.114480	-0.717849	-0.827000
H80	H	1.003907	-0.753811	-0.781054
H81	H	1.018576	-0.828540	-0.896526
O82	O	1.421947	-1.158070	-0.348508
C83	C	1.385075	-1.256412	-0.377861
H84	H	1.335028	-1.282076	-0.451907
H85	H	1.450688	-1.292205	-0.377953
H86	H	1.339697	-1.274477	-0.327461
O87	O	1.463618	-0.966579	-0.315268
C88	C	1.515672	-1.021186	-0.273837
H89	H	1.495714	-1.096986	-0.323908
H90	H	1.599910	-0.991365	-0.259122
H91	H	1.493484	-1.019363	-0.204979
H92	H	0.948889	-1.074426	-0.725072
O93	O	0.978638	-1.219047	-0.701655
C94	C	0.984682	-1.211256	-0.790229
H95	H	1.066504	-1.185318	-0.790360
H96	H	0.952530	-1.283055	-0.847217
H97	H	0.939899	-1.159099	-0.804735
O98	O	1.271082	-0.468153	-0.852623
C99	C	1.265029	-0.379574	-0.860369
H100	H	1.183203	-0.379487	-0.886240
H101	H	1.297191	-0.322589	-0.788575
H102	H	1.309797	-0.365016	-0.912555
H103	H	1.450074	-0.325719	-0.976737
