data_functionalizedCrystal
_audit_creation_method	'MofGen! by Chris Wilmer'
_symmetry_space_group_name_H-M	'P1'
_symmetry_Int_Tables_number	1
_symmetry_cell_setting	triclinic
loop_
_symmetry_equiv_pos_as_xyz
  x,y,z
_cell_length_a	23.532361
_cell_length_b	23.532357
_cell_length_c	22.010155
_cell_angle_alpha	89.998697
_cell_angle_beta	89.995873
_cell_angle_gamma	82.828980
loop_
_atom_site_label
_atom_site_type_symbol
_atom_site_fract_x
_atom_site_fract_y
_atom_site_fract_z
O1	O	0.755269	0.069002	-0.050471
O2	O	0.589400	0.079033	-0.050487
O3	O	0.677351	-0.008917	-0.050466
O4	O	0.667317	0.156952	-0.050492
O5	O	0.677335	-0.008903	0.050584
O6	O	0.589384	0.079047	0.050563
O7	O	0.755253	0.069015	0.050579
Cu8	Cu	0.672317	0.074032	0.059798
Cu9	Cu	0.672336	0.074017	-0.059706
O10	O	0.667302	0.156966	0.050558
C11	C	0.568175	0.078789	0.000036
C12	C	0.504957	0.078034	0.000031
C13	C	0.231722	0.074723	-0.055047
C14	C	0.291122	0.075438	-0.055049
O15	O	0.321855	0.075782	-0.101894
N16	N	0.320819	0.075806	0.000034
C17	C	0.291114	0.075454	0.055122
O18	O	0.321828	0.075832	0.101974
C19	C	0.231716	0.074735	0.055123
C20	C	0.202021	0.074372	0.000036
C21	C	0.202028	0.074360	-0.110129
C22	C	0.142632	0.073646	-0.110127
C23	C	0.112931	0.073295	-0.055044
C24	C	0.142626	0.073658	0.000038
C25	C	0.202013	0.074378	0.110210
C26	C	0.142611	0.073659	0.110206
C27	C	0.112916	0.073296	0.055120
C28	C	0.053529	0.072594	0.055124
N29	N	0.023832	0.072225	0.000041
C30	C	0.053533	0.072576	-0.055043
C31	C	0.415854	0.076963	0.055115
C32	C	0.475250	0.077686	0.055115
C33	C	0.475254	0.077669	-0.055056
C34	C	0.415856	0.076950	-0.055055
C35	C	0.386157	0.076594	0.000033
C36	C	-0.071202	0.071078	-0.055035
C37	C	-0.130604	0.070366	-0.055028
C38	C	-0.130602	0.070380	0.055142
C39	C	-0.071206	0.071095	0.055136
C40	C	-0.041508	0.071441	0.000043
O41	O	0.022758	0.072247	0.101944
O42	O	0.022813	0.072190	-0.101887
C43	C	0.677092	-0.030127	0.000061
C44	C	0.676337	-0.093345	0.000066
C45	C	0.671609	-0.485363	-0.055049
C46	C	0.670892	-0.544762	-0.055053
O47	O	0.670509	-0.575484	-0.101899
N48	N	0.670527	-0.574466	0.000029
C49	C	0.670875	-0.544767	0.055118
O50	O	0.670498	-0.575486	0.101969
C51	C	0.671588	-0.485368	0.055121
C52	C	0.671958	-0.455668	0.000035
C53	C	0.671979	-0.455663	-0.110130
C54	C	0.672697	-0.396267	-0.110127
C55	C	0.673046	-0.366573	-0.055042
C56	C	0.672676	-0.396273	0.000039
C57	C	0.671931	-0.455669	0.110209
C58	C	0.672643	-0.396266	0.110207
C59	C	0.673014	-0.366566	0.055122
C60	C	0.673743	-0.307183	0.055127
N61	N	0.674108	-0.277479	0.000046
C62	C	0.673759	-0.307174	-0.055039
C63	C	0.669376	-0.669508	0.055107
C64	C	0.668667	-0.728906	0.055105
C65	C	0.668683	-0.728897	-0.055066
C66	C	0.669396	-0.669499	-0.055063
C67	C	0.669740	-0.639804	0.000026
C68	C	0.675268	-0.182440	-0.055027
C69	C	0.675988	-0.123040	-0.055018
C70	C	0.675969	-0.123054	0.055152
C71	C	0.675251	-0.182449	0.055144
C72	C	0.674899	-0.212140	0.000049
O73	O	0.674124	-0.276422	0.101949
O74	O	0.674128	-0.276446	-0.101882
C75	C	0.776477	0.069260	0.000054
C76	C	0.839695	0.070015	0.000056
C77	C	0.667560	0.178176	0.000030
C78	C	0.668315	0.241394	0.000020
N79	N	0.672308	0.074043	0.143850
N80	N	0.672349	0.074002	-0.143758
C81	C	0.711283	0.035078	0.563639
C82	C	0.711285	0.035074	0.627246
O83	O	0.744400	0.001952	0.660146
N84	N	0.672335	0.074005	0.659057
C85	C	0.633376	0.112938	0.627257
O86	O	0.600246	0.146051	0.660156
C87	C	0.633371	0.112939	0.563651
C88	C	0.672328	0.074009	0.531843
C89	C	0.750235	-0.003849	0.531831
C90	C	0.750233	-0.003844	0.468228
C91	C	0.711278	0.035087	0.436432
C92	C	0.672326	0.074014	0.468240
C93	C	0.594410	0.151869	0.531852
C94	C	0.594408	0.151866	0.468241
C95	C	0.633365	0.112937	0.436434
C96	C	0.633369	0.112951	0.372841
N97	N	0.672319	0.074020	0.341030
C98	C	0.711273	0.035088	0.372826
C99	C	0.633389	0.112933	0.760835
C100	C	0.633396	0.112935	0.824440
C101	C	0.711304	0.035070	0.824425
C102	C	0.711299	0.035071	0.760819
C103	C	0.672339	0.074002	0.729024
C104	C	0.711266	0.035101	0.239255
C105	C	0.711262	0.035111	0.175646
C106	C	0.633352	0.112974	0.175667
C107	C	0.633358	0.112967	0.239270
C108	C	0.672317	0.074026	0.271062
O109	O	0.600269	0.146054	0.339902
O110	O	0.744393	0.001976	0.339920
H111	H	0.499448	0.077954	-0.099908
C112	C	0.669798	-0.636833	-0.115656
H113	H	0.669485	-0.663030	-0.148460
H114	H	0.703291	-0.618198	-0.117945
H115	H	0.636854	-0.609125	-0.117950
C116	C	0.507908	0.078087	0.115710
H117	H	0.481707	0.077771	0.148513
H118	H	0.526542	0.111581	0.118000
H119	H	0.535616	0.045143	0.118005
C120	C	0.671512	-0.488328	0.170802
H121	H	0.671038	-0.527958	0.162921
H122	H	0.638405	-0.474045	0.193421
H123	H	0.704843	-0.483133	0.193445
C124	C	0.383188	0.076583	0.115715
H125	H	0.409384	0.076911	0.148517
H126	H	0.364556	0.043089	0.118019
H127	H	0.355477	0.109526	0.118000
C128	C	0.234664	0.074778	0.170806
H129	H	0.208460	0.074461	0.203606
H130	H	0.253294	0.108275	0.173097
H131	H	0.262375	0.041837	0.173105
C132	C	0.590501	0.155792	0.140684
H133	H	0.596078	0.150210	0.098247
H134	H	0.596454	0.193774	0.151102
H135	H	0.552530	0.149795	0.151112
C136	C	0.754153	-0.007758	0.859406
H137	H	0.777356	-0.030943	0.831356
H138	H	0.733804	-0.031357	0.884221
H139	H	0.777741	0.012609	0.884215
H140	H	0.601642	0.144672	0.265168
C141	C	0.668293	-0.761568	-0.115659
H142	H	0.667808	-0.801196	-0.107767
H143	H	0.701628	-0.756377	-0.138293
H144	H	0.635191	-0.747294	-0.138291
C145	C	0.109944	0.073271	0.170804
H146	H	0.136139	0.073595	0.203607
H147	H	0.091310	0.039777	0.173102
H148	H	0.082235	0.106215	0.173091
C149	C	0.793096	-0.046654	0.433245
H150	H	0.787529	-0.041075	0.390807
H151	H	0.787151	-0.084638	0.443664
H152	H	0.831063	-0.040647	0.443676
H153	H	0.118460	0.073348	-0.154984
H154	H	0.562680	0.183568	0.442357
C155	C	-0.163264	0.069966	-0.115625
H156	H	-0.137064	0.070271	-0.148430
H157	H	-0.190975	0.102903	-0.117923
H158	H	-0.181895	0.036466	-0.117910
H159	H	0.743021	0.003371	0.734925
C160	C	0.793089	-0.046676	0.566799
H161	H	0.787518	-0.041111	0.609239
H162	H	0.831057	-0.040687	0.556363
H163	H	0.787123	-0.084656	0.556373
H164	H	0.601680	0.144641	0.850334
C165	C	-0.038543	0.071466	-0.115636
H166	H	-0.064743	0.071153	-0.148436
H167	H	-0.010830	0.038530	-0.117931
H168	H	-0.019915	0.104967	-0.117932
H169	H	0.601664	0.144640	0.734951
C170	C	0.673024	-0.363606	0.170806
H171	H	0.672705	-0.389806	0.203608
H172	H	0.640088	-0.335893	0.173095
H173	H	0.706525	-0.344978	0.173104
C174	C	0.673101	-0.363602	-0.170719
H175	H	0.673582	-0.323972	-0.162836
H176	H	0.639771	-0.368799	-0.193356
H177	H	0.706209	-0.377880	-0.193346
C178	C	0.674846	-0.215120	0.115736
H179	H	0.675154	-0.188925	0.148542
H180	H	0.707778	-0.242837	0.118032
H181	H	0.641341	-0.233744	0.118018
H182	H	0.676256	-0.098866	0.100001
H183	H	0.226204	0.074643	-0.154988
H184	H	0.742987	0.003410	0.149750
C185	C	0.383198	0.076550	-0.115649
H186	H	0.409399	0.076860	-0.148452
H187	H	0.355485	0.109485	-0.117945
H188	H	0.364570	0.043048	-0.117938
H189	H	-0.047029	0.071401	0.099992
H190	H	0.562688	0.183569	0.557741
H191	H	-0.154796	0.070097	0.099990
C192	C	0.676396	-0.090370	-0.115613
H193	H	0.676880	-0.050742	-0.107725
H194	H	0.643067	-0.095563	-0.138252
H195	H	0.709504	-0.104648	-0.138239
C196	C	0.674896	-0.215094	-0.115629
H197	H	0.675227	-0.188893	-0.148428
H198	H	0.641404	-0.233731	-0.117940
H199	H	0.707842	-0.242801	-0.117910
C200	C	0.671601	-0.488319	-0.170729
H201	H	0.671928	-0.462116	-0.203527
H202	H	0.638109	-0.506955	-0.173035
H203	H	0.704547	-0.516025	-0.173016
H204	H	0.669658	-0.645335	0.099970
H205	H	0.742990	0.003391	0.265133
C206	C	0.668265	-0.761571	0.115699
H207	H	0.668571	-0.735373	0.148503
H208	H	0.701200	-0.789284	0.117996
H209	H	0.634763	-0.780198	0.117985
