data_functionalizedCrystal
_audit_creation_method	'MofGen! by Chris Wilmer'
_symmetry_space_group_name_H-M	'P1'
_symmetry_Int_Tables_number	1
_symmetry_cell_setting	triclinic
loop_
_symmetry_equiv_pos_as_xyz
  x,y,z
_cell_length_a	10.654562
_cell_length_b	15.944551
_cell_length_c	9.130313
_cell_angle_alpha	90.002201
_cell_angle_beta	90.003070
_cell_angle_gamma	83.994421
loop_
_atom_site_label
_atom_site_type_symbol
_atom_site_fract_x
_atom_site_fract_y
_atom_site_fract_z
O1	O	1.666298	0.118023	0.121899
O2	O	1.300676	0.129252	0.121881
O3	O	1.493471	0.001421	0.121878
O4	O	1.473503	0.245855	0.121903
O5	O	1.493469	0.001425	-0.121721
O6	O	1.300674	0.129256	-0.121718
O7	O	1.666295	0.118027	-0.121700
Cu8	Cu	1.483484	0.123642	-0.143951
Cu9	Cu	1.483487	0.123638	0.144133
O10	O	1.473500	0.245858	-0.121696
C11	C	1.253888	0.128427	0.000079
C12	C	1.114477	0.125954	0.000072
C13	C	1.048960	0.124802	-0.132702
C14	C	0.917968	0.122485	-0.132678
C15	C	0.918021	0.122475	0.132907
C16	C	1.049012	0.124786	0.132881
C17	C	1.114426	0.125970	-0.265511
C18	C	1.048908	0.124819	-0.398296
C19	C	0.917916	0.122502	-0.398272
C20	C	0.852441	0.121335	-0.265463
C21	C	1.492641	-0.029876	0.000078
C22	C	1.490156	-0.123136	0.000077
C23	C	1.364712	-0.338723	0.000091
C24	C	1.422963	-0.399400	-0.120015
C25	C	1.485660	-0.293888	0.000088
C26	C	1.422993	-0.399386	0.120154
C27	C	1.481308	-0.458826	0.000105
C28	C	1.543944	-0.353337	-0.120117
C29	C	1.543958	-0.353317	0.120160
C30	C	1.602296	-0.413976	0.000024
C31	C	1.488163	-0.198872	0.000077
C32	C	1.478814	-0.553842	0.000105
C33	C	1.713084	0.118852	0.000105
C34	C	1.852494	0.121325	0.000122
C35	C	1.474330	0.277155	0.000107
C36	C	1.476816	0.370416	0.000118
N37	N	1.483491	0.123644	-0.346574
C38	C	1.568883	0.067060	-0.423227
C39	C	1.568879	0.067050	-0.576564
C40	C	1.398089	0.180216	-0.576580
C41	C	1.398088	0.180221	-0.423246
C42	C	1.654287	0.010483	-0.346555
C43	C	1.739686	-0.046105	-0.423209
C44	C	1.739683	-0.046115	-0.576546
C45	C	1.654280	0.010463	-0.653229
N46	N	1.483490	0.123629	0.346755
H47	H	0.745779	0.119446	-0.265454
H48	H	1.654299	0.010488	-0.221700
H49	H	1.264320	-0.305999	-0.000034
H50	H	1.328559	0.226280	-0.639026
H51	H	1.595071	-0.332891	0.221710
H52	H	1.328553	0.226296	-0.360834
H53	H	1.654276	0.010444	-0.778086
H54	H	1.809211	-0.092174	-0.360765
C55	C	1.833613	-0.108361	-0.660869
C56	C	1.927543	-0.170595	-0.576529
C57	C	2.021481	-0.232840	-0.660850
C58	C	2.021489	-0.232850	-0.829512
C59	C	1.927555	-0.170613	-0.913861
C60	C	1.833617	-0.108369	-0.829540
H61	H	1.927541	-0.170590	-0.451667
H62	H	2.091017	-0.278912	-0.598408
H63	H	2.091027	-0.278927	-0.891931
H64	H	1.927557	-0.170619	-1.038723
H65	H	1.764081	-0.062297	-0.891982
C66	C	0.845999	0.121201	0.278988
C67	C	0.770183	0.046805	0.315517
C68	C	0.698163	0.045535	0.461600
C69	C	0.701958	0.118660	0.571156
C70	C	0.777777	0.193061	0.534630
C71	C	0.849798	0.194331	0.388546
H72	H	0.767371	-0.007331	0.234415
H73	H	0.642036	-0.009542	0.488638
H74	H	0.648644	0.117719	0.679296
H75	H	0.780589	0.247197	0.615732
H76	H	0.905924	0.249408	0.361508
H77	H	1.371823	-0.419762	0.221701
C78	C	1.121094	0.126057	0.278929
C79	C	1.117351	0.052929	0.388477
C80	C	1.189438	0.054197	0.534527
C81	C	1.265267	0.128593	0.571027
C82	C	1.269013	0.201726	0.461476
C83	C	1.196927	0.200459	0.315427
H84	H	1.061215	-0.002148	0.361460
H85	H	1.186664	0.000058	0.615623
H86	H	1.318630	0.129531	0.679142
H87	H	1.325150	0.256804	0.488494
H88	H	1.199701	0.254598	0.234330
H89	H	1.702777	-0.446550	-0.000038
H90	H	1.371805	-0.419804	-0.221560
H91	H	1.102228	0.125763	-0.506425
C92	C	1.612988	-0.325935	-0.257450
C93	C	1.628041	-0.232037	-0.282869
C94	C	1.697079	-0.204633	-0.420201
C95	C	1.751064	-0.271128	-0.532114
C96	C	1.736012	-0.365033	-0.506698
C97	C	1.666975	-0.392437	-0.369366
H98	H	1.588077	-0.182808	-0.200021
H99	H	1.708221	-0.135118	-0.439015
H100	H	1.802170	-0.250842	-0.633776
H101	H	1.775977	-0.414262	-0.589546
H102	H	1.655833	-0.461951	-0.350552
H103	H	1.221086	0.127860	-0.265546
H104	H	0.864577	0.121558	-0.506392
