data_functionalizedCrystal
_audit_creation_method	'MofGen! by Chris Wilmer'
_symmetry_space_group_name_H-M	'P1'
_symmetry_Int_Tables_number	1
_symmetry_cell_setting	triclinic
loop_
_symmetry_equiv_pos_as_xyz
  x,y,z
_cell_length_a	13.339070
_cell_length_b	13.448316
_cell_length_c	14.971486
_cell_angle_alpha	89.993189
_cell_angle_beta	99.621711
_cell_angle_gamma	89.993568
loop_
_atom_site_label
_atom_site_type_symbol
_atom_site_fract_x
_atom_site_fract_y
_atom_site_fract_z
O1	O	1.342828	-0.082730	0.448553
O2	O	1.048230	-0.082724	0.389678
O3	O	1.203425	-0.082720	0.290868
O4	O	1.187633	-0.082734	0.547363
O5	O	1.203406	0.082664	0.290854
O6	O	1.048210	0.082660	0.389665
O7	O	1.342809	0.082654	0.448540
Cu8	Cu	1.195508	0.097758	0.419101
Cu9	Cu	1.195531	-0.097828	0.419117
O10	O	1.187614	0.082650	0.547350
C11	C	1.010519	-0.000031	0.379726
C12	C	0.898181	-0.000028	0.350082
N13	N	1.195499	0.235322	0.419091
N14	N	1.195548	-0.235392	0.419121
C15	C	0.533667	-0.000057	0.580579
C16	C	0.639214	-0.000062	0.608433
C17	C	0.703961	-0.000053	0.543848
C18	C	0.663151	-0.000040	0.451403
C19	C	0.557594	-0.000042	0.423545
C20	C	0.727888	-0.000039	0.386815
C21	C	0.687078	-0.000025	0.294370
C22	C	0.581532	-0.000027	0.266517
C23	C	0.516785	-0.000036	0.331102
C24	C	0.833444	-0.000036	0.414672
C25	C	0.857372	-0.000022	0.257639
C26	C	0.751825	-0.000016	0.229784
C27	C	1.380520	-0.000041	0.458491
C28	C	1.492857	-0.000050	0.488136
C29	C	1.202709	-0.000028	0.257362
C30	C	1.200593	-0.000029	0.157541
C31	C	1.264241	0.287364	0.375368
C32	C	1.264247	0.391467	0.375369
C33	C	1.195516	0.443527	0.419099
C34	C	1.126767	0.391477	0.462823
C35	C	1.126756	0.287376	0.462816
C36	C	1.126795	0.608457	0.462836
C37	C	1.126806	0.712566	0.462844
C38	C	1.264286	0.712549	0.375389
C39	C	1.264275	0.608448	0.375382
C40	C	1.195527	0.556405	0.419108
C41	C	1.291766	-0.000030	0.122857
C42	C	1.289771	-0.000040	0.029064
C43	C	1.196602	-0.000042	-0.030042
C44	C	1.105422	-0.000044	0.004648
C45	C	1.107418	-0.000041	0.098439
C46	C	1.101269	-0.000047	-0.190841
C47	C	1.099273	-0.000048	-0.284639
C48	C	1.283622	-0.000047	-0.260216
C49	C	1.285618	-0.000044	-0.166425
C50	C	1.194437	-0.000044	-0.131741
C51	C	1.188330	-0.000044	0.580856
C52	C	1.190446	-0.000049	0.680676
H53	H	0.789901	-0.000060	0.566533
C54	C	0.927538	0.000144	0.187412
C55	C	0.909052	0.085219	0.133244
C56	C	0.973667	0.085394	0.068540
H57	H	0.996279	0.000197	0.217123
H58	H	0.915154	-0.057499	0.150539
H59	H	0.921445	0.142846	0.170112
H60	H	0.840324	0.085183	0.103512
H61	H	0.961282	0.027752	0.031667
H62	H	1.042403	0.085445	0.098259
H63	H	0.961126	0.143111	0.031774
H64	H	1.027020	-0.000050	-0.162606
C65	C	0.707315	-0.000060	0.129460
C66	C	0.601022	-0.000087	0.118894
C67	C	0.559984	-0.000141	0.026490
H68	H	0.729406	0.057600	0.101662
H69	H	0.729478	-0.057753	0.101744
H70	H	0.578868	0.057600	0.146598
H71	H	0.578903	-0.057743	0.146672
H72	H	0.582148	-0.057835	-0.001226
H73	H	0.582082	0.057520	-0.001300
H74	H	0.487861	-0.000169	0.019309
C75	C	1.338911	0.231027	0.327800
C76	C	1.399093	0.298891	0.289488
C77	C	1.467881	0.247033	0.245647
H78	H	1.381163	0.190397	0.370376
H79	H	1.302489	0.190455	0.281456
H80	H	1.435512	0.339446	0.335826
H81	H	1.356869	0.339523	0.246899
H82	H	1.431459	0.206461	0.199303
H83	H	1.510126	0.206404	0.288229
H84	H	1.508716	0.293070	0.219640
H85	H	0.672433	-0.000081	0.683702
H86	H	1.367634	-0.000023	0.170976
C87	C	1.382700	-0.000208	-0.297740
C88	C	1.438820	-0.085277	-0.267520
C89	C	1.530098	-0.085447	-0.302061
H90	H	1.368319	-0.000266	-0.362057
H91	H	1.420943	0.057439	-0.277335
H92	H	1.400585	-0.142908	-0.287929
H93	H	1.453228	-0.085237	-0.203207
H94	H	1.568341	-0.027800	-0.281656
H95	H	1.515707	-0.085502	-0.366378
H96	H	1.568190	-0.143160	-0.281555
C97	C	0.998017	-0.000119	-0.348666
C98	C	0.918592	-0.000158	-0.298220
C99	C	0.825300	-0.000241	-0.357171
H100	H	0.993244	0.057535	-0.385797
H101	H	0.993377	-0.057819	-0.385737
H102	H	0.923229	0.057536	-0.261165
H103	H	0.923331	-0.057807	-0.261092
H104	H	0.820660	-0.057941	-0.394241
H105	H	0.820538	0.057413	-0.394298
H106	H	0.771399	-0.000278	-0.322952
C107	C	1.338880	0.768916	0.327758
C108	C	1.322396	0.743590	0.235759
C109	C	1.391105	0.795487	0.191864
H110	H	1.329119	0.838386	0.333911
H111	H	1.406439	0.751812	0.354228
H112	H	1.254854	0.760700	0.209297
H113	H	1.332166	0.674128	0.229579
H114	H	1.458664	0.778384	0.218333
H115	H	1.381338	0.864955	0.198024
H116	H	1.379937	0.778304	0.129440
H117	H	0.866661	-0.000044	0.489941
C118	C	1.052054	0.768911	0.510315
C119	C	0.991816	0.701056	0.548573
C120	C	0.922928	0.752924	0.592294
H121	H	1.088368	0.809513	0.556674
H122	H	1.009857	0.809511	0.467650
H123	H	1.034007	0.660473	0.591234
H124	H	0.955480	0.660451	0.502233
H125	H	0.880732	0.793525	0.549629
H126	H	0.959250	0.793525	0.638649
H127	H	0.882042	0.706893	0.618250
H128	H	1.070809	0.566088	0.498438
C129	C	1.338728	0.448017	0.327758
C130	C	1.284782	0.507783	0.259562
C131	C	1.353363	0.559877	0.215674
H132	H	1.380915	0.488692	0.370323
H133	H	1.379646	0.402129	0.301666
H134	H	1.243881	0.553666	0.285655
H135	H	1.242598	0.467132	0.216978
H136	H	1.394282	0.513989	0.189581
H137	H	1.395547	0.600547	0.258246
H138	H	1.316771	0.600427	0.169393
H139	H	1.361484	-0.000035	-0.118302
H140	H	1.070799	0.433870	0.498424
H141	H	1.029563	-0.000051	-0.043484
C142	C	1.052079	0.231049	0.510380
C143	C	0.991907	0.298919	0.548700
C144	C	0.923108	0.247068	0.592530
H145	H	1.009821	0.190453	0.467796
H146	H	1.088491	0.190443	0.556718
H147	H	0.955497	0.339507	0.502367
H148	H	1.034138	0.339517	0.591297
H149	H	0.959520	0.206463	0.638869
H150	H	0.880857	0.206474	0.549941
H151	H	0.882280	0.293109	0.618543
H152	H	0.480942	-0.000072	0.633154
H153	H	0.430839	-0.000031	0.308427
H154	H	0.548308	-0.000027	0.191242
H155	H	1.320246	0.566061	0.339780
H156	H	1.364013	-0.000039	0.000829
H157	H	1.033176	-0.000040	0.126677
