data_functionalizedCrystal
_audit_creation_method	'MofGen! by Chris Wilmer'
_symmetry_space_group_name_H-M	'P1'
_symmetry_Int_Tables_number	1
_symmetry_cell_setting	triclinic
loop_
_symmetry_equiv_pos_as_xyz
  x,y,z
_cell_length_a	20.875790
_cell_length_b	23.096457
_cell_length_c	20.875641
_cell_angle_alpha	90.012078
_cell_angle_beta	59.241818
_cell_angle_gamma	61.751817
loop_
_atom_site_label
_atom_site_type_symbol
_atom_site_fract_x
_atom_site_fract_y
_atom_site_fract_z
Zr1	Zr	0.620453	-0.024593	0.674774
O2	O	0.754602	-0.114045	0.575627
O3	O	0.491432	-0.001443	0.700449
O4	O	0.618190	-0.116075	0.707221
O5	O	0.627840	0.095869	0.568880
O6	O	0.610573	-0.112818	0.816394
O7	O	0.627843	0.000587	0.568854
O8	O	0.383825	0.092238	0.804279
O9	O	0.854587	-0.109186	0.580995
O10	O	0.536916	0.016022	0.798574
O11	O	0.542598	0.084699	0.717120
O12	O	0.691840	-0.050265	0.725094
O13	O	0.697522	0.018412	0.643639
Zr14	Zr	0.608298	0.132567	0.848933
Zr15	Zr	0.608303	-0.019398	0.848891
Zr16	Zr	0.620447	0.127371	0.674815
Zr17	Zr	0.779919	-0.016844	0.683336
Zr18	Zr	0.448832	0.124818	0.840371
O19	O	0.737319	0.109417	0.823258
O20	O	0.737327	-0.106658	0.823199
O21	O	0.754594	0.102029	0.575686
O22	O	0.474149	0.222019	0.948080
O23	O	0.474157	0.005944	0.948021
O24	O	0.491424	0.214631	0.700507
O25	O	0.600911	0.012104	0.954827
O26	O	0.610560	0.224049	0.816485
O27	O	0.618178	0.220791	0.707313
O28	O	0.600908	0.107387	0.954853
O29	O	0.844930	-0.105057	0.719395
O30	O	0.383820	0.213030	0.804311
O31	O	0.374163	0.217160	0.942711
O32	O	0.374168	0.096368	0.942679
O33	O	0.854583	0.011605	0.581028
O34	O	0.844926	0.015735	0.719428
O35	O	0.536911	0.158239	0.798613
O36	O	0.531228	0.089562	0.880068
O37	O	0.686153	0.023274	0.806587
O38	O	0.691835	0.091952	0.725132
C39	C	0.414908	0.044293	0.751144
C40	C	0.347210	0.041004	0.747509
C41	C	0.256119	0.091063	0.802987
C42	C	0.192532	0.087967	0.799537
C43	C	0.220037	0.034808	0.740610
C44	C	0.311137	-0.015254	0.685127
C45	C	0.374723	-0.012155	0.688574
C46	C	0.036226	0.020007	0.724162
C47	C	-0.027369	0.016910	0.720720
C48	C	-0.145970	0.120133	0.835129
C49	C	-0.082378	0.123225	0.838574
C50	C	0.008717	0.073165	0.783088
N51	N	0.155042	0.031641	0.737083
N52	N	0.073710	0.076336	0.786613
C53	C	0.614382	-0.136098	0.761802
C54	C	0.614385	-0.200611	0.761784
C55	C	0.695251	-0.265516	0.723432
C56	C	0.695251	-0.326132	0.723453
C57	C	0.614381	-0.321839	0.761815
C58	C	0.533503	-0.256922	0.800176
C59	C	0.533505	-0.196308	0.800160
N60	N	0.556804	-0.392388	0.752832
N61	N	0.556807	-0.449971	0.752842
C62	C	0.614369	-0.504463	0.761864
N63	N	0.671942	-0.499204	0.770860
N64	N	0.671941	-0.441616	0.770846
C65	C	0.614369	-0.387561	0.761836
C66	C	0.695241	-0.635097	0.723533
C67	C	0.695237	-0.695713	0.723559
C68	C	0.533488	-0.626501	0.800276
C69	C	0.533494	-0.565888	0.800256
C70	C	0.614373	-0.570190	0.761879
C71	C	0.813843	0.063680	0.772563
C72	C	0.881540	0.066970	0.776198
C73	C	0.629572	0.047488	0.544059
C74	C	0.634730	0.045282	0.470142
C75	C	0.614368	0.244072	0.761905
C76	C	0.614366	0.308585	0.761922
C77	C	0.556286	0.078844	0.473769
C78	C	0.561138	0.076770	0.404313
C79	C	0.644434	0.041130	0.331231
C80	C	0.722883	0.007568	0.327605
C81	C	0.718031	0.009646	0.397060
C82	C	0.667618	0.031208	0.119394
C83	C	0.672464	0.029130	0.049937
C84	C	0.510718	0.098333	0.126651
C85	C	0.505873	0.100405	0.196103
C86	C	0.584323	0.066846	0.192472
N87	N	0.649395	0.039007	0.260235
N88	N	0.579361	0.068973	0.263467
C89	C	0.599178	0.060486	0.979648
C90	C	0.594021	0.062691	1.053565
C91	C	0.399711	0.050792	0.968938
C92	C	0.326856	0.049708	1.039221
C93	C	0.414901	0.234378	0.751195
C94	C	0.347201	0.295602	0.747578
C95	C	0.399704	0.240877	0.968990
C96	C	0.326846	0.304306	1.039290
C97	C	0.829047	-0.132904	0.554717
C98	C	0.901904	-0.196333	0.484417
C99	C	0.829040	0.057181	0.554769
C100	C	0.901895	0.058265	0.484486
C101	C	0.813850	-0.126405	0.772511
C102	C	0.881550	-0.187628	0.776129
C103	C	0.295611	0.010806	1.029687
C104	C	0.227165	0.009773	1.095719
C105	C	0.189961	0.047647	1.171283
C106	C	0.221212	0.086551	1.180815
C107	C	0.289661	0.087579	1.114784
C108	C	0.312440	0.362746	0.788418
C109	C	0.248837	0.420278	0.785017
C110	C	0.219993	0.410664	0.740779
C111	C	0.254761	0.343512	0.699934
C112	C	0.318367	0.285982	0.703332
C113	C	0.289665	0.298244	1.114829
C114	C	0.221216	0.357838	1.180891
C115	C	0.189945	0.423491	1.171411
C116	C	0.227133	0.429552	1.095864
C117	C	0.295585	0.369960	1.029804
C118	C	0.939093	-0.190271	0.408878
C119	C	1.007562	-0.249863	0.342817
C120	C	1.038836	-0.315516	0.352297
C121	C	1.001644	-0.321577	0.427845
C122	C	0.933181	-0.261985	0.493904
C123	C	0.933146	0.097162	0.494020
C124	C	1.001610	0.098179	0.427989
C125	C	1.038816	0.060302	0.352425
C126	C	1.007562	0.021401	0.342893
C127	C	0.939104	0.020381	0.408923
C128	C	0.910373	-0.177992	0.820373
C129	C	0.973975	-0.235512	0.823787
C130	C	1.008757	-0.302667	0.782952
C131	C	0.979927	-0.312302	0.738706
C132	C	0.916322	-0.254783	0.735297
H133	H	0.118363	0.128732	0.844713
H134	H	-0.220143	0.160890	0.880302
Cl135	Cl	0.880104	-0.266909	0.679661
H136	H	0.220536	0.474950	0.818281
Cl137	Cl	0.187810	0.512094	1.083959
H138	H	0.233713	0.134350	0.850973
H139	H	1.027116	-0.375039	0.435554
H140	H	0.335917	0.370587	0.824441
H141	H	0.488457	0.107868	0.533273
Cl142	Cl	1.010210	-0.223383	0.879409
Cl143	Cl	0.462518	0.118971	0.408879
Cl144	Cl	0.328925	0.136496	1.126783
Cl145	Cl	-0.116963	0.190060	0.912653
Cl146	Cl	0.796929	-0.270929	0.675171
Cl147	Cl	0.431837	-0.114708	0.848373
H148	H	-0.004962	-0.026382	0.672734
H149	H	0.168201	0.457515	0.738020
Cl150	Cl	0.431820	-0.621098	0.848514
Cl151	Cl	0.150737	-0.042926	0.654406
Cl152	Cl	0.827599	-0.037232	0.235729
H153	H	1.008256	-0.366987	0.705459
H154	H	0.231267	0.335695	0.663917
H155	H	0.346661	0.231312	0.670077
Cl156	Cl	0.345716	-0.082080	0.611043
H157	H	0.913635	-0.136818	0.401143
Cl158	Cl	0.342315	0.377592	0.934842
Cl159	Cl	0.431828	-0.484289	0.848455
Cl160	Cl	0.174427	0.134164	1.275816
H161	H	1.094559	0.061139	0.298665
H162	H	0.761104	-0.378987	0.692220
H163	H	0.448895	-0.052913	0.643391
H164	H	0.781908	-0.017674	0.394102
Cl165	Cl	0.401154	0.145211	0.287976
H166	H	0.315115	0.244791	1.122563
H167	H	0.446849	0.125656	0.129598
H168	H	0.190944	0.352891	1.242399
H169	H	0.134207	0.472010	1.225208
H170	H	0.882063	-0.123316	0.853627
Cl171	Cl	0.431838	-0.251525	0.848405
H172	H	1.037866	-0.009436	0.281360
Cl173	Cl	0.777187	-0.015685	-0.041941
H174	H	1.037833	-0.244915	0.281310
H175	H	1.094584	-0.364034	0.298501
Cl176	Cl	0.886431	-0.269619	0.588865
Cl177	Cl	0.886391	0.144780	0.589007
Cl178	Cl	1.040882	0.147090	0.439990
H179	H	0.913662	-0.011291	0.401149
Cl180	Cl	1.088721	-0.374970	0.787243
H181	H	0.761098	-0.638601	0.692285
H182	H	0.761090	-0.748562	0.692331
H183	H	0.325902	-0.020044	0.968165
Cl184	Cl	0.766241	-0.010984	0.114820
H185	H	0.134225	0.046805	1.225043
Cl186	Cl	0.187889	-0.039135	1.083718
