data_functionalizedCrystal
_audit_creation_method	'MofGen! by Chris Wilmer'
_symmetry_space_group_name_H-M	'P1'
_symmetry_Int_Tables_number	1
_symmetry_cell_setting	triclinic
loop_
_symmetry_equiv_pos_as_xyz
  x,y,z
_cell_length_a	6.817900
_cell_length_b	13.167930
_cell_length_c	11.102193
_cell_angle_alpha	97.926429
_cell_angle_beta	108.604059
_cell_angle_gamma	105.754568
loop_
_atom_site_label
_atom_site_type_symbol
_atom_site_fract_x
_atom_site_fract_y
_atom_site_fract_z
V1	V	-4.107360	-0.148902	-0.413817
O2	O	-4.070747	0.007147	-0.387871
O3	O	-4.080054	-0.295240	-0.428365
O4	O	-4.084198	-0.146615	-0.586369
O5	O	-4.066574	-0.142507	-0.228773
V6	V	-4.584984	-0.130236	-0.389574
O7	O	-4.381558	-0.189847	-0.466998
O8	O	-4.760984	-0.089292	-0.336393
O9	O	-4.389084	0.016102	-0.375026
O10	O	-4.738995	-0.286286	-0.415520
O11	O	-4.743167	-0.136632	-0.574618
O12	O	-4.384940	-0.132523	-0.217022
C13	C	-3.929370	-0.330914	-0.426321
C14	C	-3.988499	-0.450548	-0.439365
C15	C	-3.980162	-0.644611	-0.227456
C16	C	-4.035716	-0.757017	-0.239706
C17	C	-4.155177	-0.787766	-0.476115
C18	C	-4.099623	-0.675361	-0.463865
C19	C	-4.012112	-0.603787	-0.339531
C20	C	-3.956543	-0.491379	-0.327281
C21	C	-4.076018	-0.522131	-0.563690
C22	C	-4.131573	-0.634536	-0.575941
C23	C	-3.934655	-0.141327	-0.627869
C24	C	-3.997140	-0.140425	-0.769046
C25	C	-4.111969	-0.337534	-0.828618
C26	C	-4.198731	-0.435660	-0.924726
C27	C	-4.257441	-0.434807	-1.057371
C28	C	-4.229391	-0.335817	-1.093908
C29	C	-4.142629	-0.237691	-0.997800
C30	C	-4.083918	-0.238555	-0.865155
C31	C	-4.027815	-0.040585	-0.938229
C32	C	-3.969090	-0.041435	-0.805583
C33	C	-3.999765	0.058405	-0.974767
C34	C	-3.912987	0.156534	-0.878657
C35	C	-3.854274	0.155677	-0.746005
C36	C	-3.882328	0.056691	-0.709475
C37	C	-4.203110	0.051770	-0.377067
C38	C	-4.123221	0.171402	-0.364031
C39	C	-4.197825	-0.137815	-0.175516
C40	C	-4.114577	-0.138711	-0.034337
H41	H	-3.885275	-0.433104	-0.226042
N42	N	-4.001320	-0.801062	-0.118835
H43	H	-3.896690	-0.843300	-0.113876
H44	H	-4.146872	-0.850684	-0.123519
H45	H	-4.202838	-0.692827	-0.677170
H46	H	-4.102024	-0.488881	-0.654950
N47	N	-3.819029	0.055762	-0.566412
H48	H	-3.759815	0.132942	-0.511068
H49	H	-3.702455	0.020471	-0.541435
H50	H	-4.277227	-0.335132	-1.201919
H51	H	-4.047590	0.059092	-1.082776
N52	N	-4.249668	-0.864975	-0.610212
H53	H	-4.280045	-0.942377	-0.600961
H54	H	-4.141058	-0.848346	-0.654975
N55	N	-4.228970	-0.542427	-0.885325
H56	H	-4.389325	-0.589025	-0.926263
H57	H	-4.178491	-0.527995	-0.786706
H58	H	-4.328092	-0.514710	-1.135625
H59	H	-3.890171	0.237123	-0.908420
N60	N	-3.760691	0.261507	-0.642335
H61	H	-3.870847	0.301086	-0.657223
H62	H	-3.620749	0.308320	-0.647617
N63	N	-3.885747	-0.567414	-0.093356
H64	H	-3.994326	-0.583978	-0.048559
H65	H	-3.855383	-0.490040	-0.102704
N66	N	-4.048559	-0.338451	-0.685548
H67	H	-4.079467	-0.416045	-0.676983
H68	H	-4.136905	-0.303574	-0.646786
