data_functionalizedCrystal
_audit_creation_method	'MofGen! by Chris Wilmer'
_symmetry_space_group_name_H-M	'P1'
_symmetry_Int_Tables_number	1
_symmetry_cell_setting	triclinic
loop_
_symmetry_equiv_pos_as_xyz
  x,y,z
_cell_length_a	12.827893
_cell_length_b	13.031981
_cell_length_c	13.033352
_cell_angle_alpha	90.911385
_cell_angle_beta	82.820857
_cell_angle_gamma	97.191988
loop_
_atom_site_label
_atom_site_type_symbol
_atom_site_fract_x
_atom_site_fract_y
_atom_site_fract_z
Zn1	Zn	1.468872	-0.483524	0.529354
Zn2	Zn	1.474390	-0.633635	0.335534
Zn3	Zn	1.318785	-0.461663	0.357412
Zn4	Zn	1.275058	-0.655468	0.507453
O5	O	1.384276	-0.558573	0.432438
O6	O	1.615837	-0.503448	0.503653
O7	O	1.474358	-0.592537	0.194530
O8	O	1.354685	-0.320632	0.398542
O9	O	1.619892	-0.613735	0.361254
O10	O	1.464953	-0.336693	0.524867
O11	O	1.360035	-0.466189	0.210604
O12	O	1.166751	-0.487359	0.377306
O13	O	1.280159	-0.650945	0.654264
O14	O	1.134625	-0.629747	0.487540
O15	O	1.422553	-0.524619	0.670355
O16	O	1.431958	-0.780462	0.340018
O17	O	1.285510	-0.796502	0.466326
C18	C	1.112771	-0.558551	0.432421
C19	C	0.996614	-0.558570	0.432435
C20	C	0.942797	-0.504120	0.502982
C21	C	0.822742	-0.504138	0.502997
C22	C	1.354613	-0.825805	0.398444
C23	C	1.342013	-0.940132	0.383935
C24	C	1.390905	-0.998974	0.440031
C25	C	1.377884	-1.117138	0.425037
C26	C	1.656841	-0.558595	0.432456
C27	C	1.772992	-0.558604	0.432464
C28	C	1.345863	-0.592656	0.700666
C29	C	1.329493	-0.607180	0.814969
C30	C	1.414081	-0.290300	0.466588
C31	C	1.426782	-0.175978	0.481141
C32	C	1.392649	-0.551152	0.873890
C33	C	1.375732	-0.566162	0.992028
C34	C	1.422529	-0.524646	1.165251
C35	C	1.438897	-0.510126	1.050947
H36	H	0.776467	-0.457525	0.563398
O37	O	0.945479	-0.614332	0.360525
C38	C	0.866587	-0.688222	0.410577
H39	H	0.887249	-0.705010	0.490699
H40	H	0.861806	-0.762577	0.363195
H41	H	0.786915	-0.656830	0.418308
O42	O	1.452200	-0.954783	0.510715
C43	C	1.411752	-0.993984	0.609888
H44	H	1.324287	-1.024313	0.611263
H45	H	1.421163	-0.929706	0.669613
H46	H	1.457096	-1.059629	0.628983
H47	H	0.985603	-0.457486	0.563364
O48	O	1.518468	-0.439699	1.006901
C49	C	1.616411	-0.465491	1.030185
H50	H	1.603108	-0.514867	1.103175
H51	H	1.671006	-0.391709	1.043192
H52	H	1.654320	-0.510750	0.963018
O53	O	0.828091	-0.614156	0.360267
C54	C	0.818681	-0.578508	0.260667
H55	H	0.744089	-0.538774	0.263559
H56	H	0.813443	-0.646797	0.204998
H57	H	0.890900	-0.521129	0.232904
H58	H	1.478279	-1.138881	0.540275
H59	H	1.326377	-1.154237	0.365912
O60	O	1.280488	-0.984515	0.313526
C61	C	1.197749	-1.054110	0.364187
H62	H	1.221634	-1.079946	0.440146
H63	H	1.181503	-1.124413	0.312762
H64	H	1.123207	-1.014251	0.380620
H65	H	1.309127	-0.625240	1.029041
O66	O	1.471977	-0.480605	0.829631
C67	C	1.428697	-0.406315	0.775966
H68	H	1.347744	-0.440563	0.755361
H69	H	1.483538	-0.383007	0.702139
H70	H	1.419815	-0.335304	0.827001
O71	O	1.250177	-0.677784	0.859149
C72	C	1.293459	-0.752041	0.912855
H73	H	1.379670	-0.754304	0.879616
H74	H	1.246687	-0.831361	0.904099
H75	H	1.289020	-0.730506	0.998275
