data_functionalizedCrystal
_audit_creation_method	'MofGen! by Chris Wilmer'
_symmetry_space_group_name_H-M	'P1'
_symmetry_Int_Tables_number	1
_symmetry_cell_setting	triclinic
loop_
_symmetry_equiv_pos_as_xyz
  x,y,z
_cell_length_a	33.592126
_cell_length_b	33.591377
_cell_length_c	33.588093
_cell_angle_alpha	60.004089
_cell_angle_beta	60.008299
_cell_angle_gamma	59.994549
loop_
_atom_site_label
_atom_site_type_symbol
_atom_site_fract_x
_atom_site_fract_y
_atom_site_fract_z
O1	O	0.055297	-0.581666	0.486338
O2	O	0.020882	-0.452873	0.391864
O3	O	0.102445	-0.534352	0.391775
O4	O	-0.026266	-0.500187	0.486427
O5	O	0.129510	-0.507292	0.418747
O6	O	0.047947	-0.425814	0.418835
O7	O	0.082362	-0.554606	0.513309
Cu8	Cu	0.067626	-0.487739	0.468535
Cu9	Cu	0.035618	-0.519740	0.436638
O10	O	0.000799	-0.473128	0.513398
N11	N	0.090139	-0.465235	0.490972
N12	N	0.013110	-0.542249	0.414202
C13	C	0.124394	-0.431229	0.734914
C14	C	0.334265	-0.431145	0.524799
C15	C	0.124204	-0.431200	0.524965
C16	C	0.124184	-0.221175	0.524955
C17	C	0.158017	-0.322536	0.558710
C18	C	0.158027	-0.397406	0.558711
C19	C	0.176763	-0.378688	0.577408
C20	C	0.258412	-0.364594	0.534386
C21	C	0.309454	-0.381596	0.517340
C22	C	0.309485	-0.464188	0.548836
C23	C	0.258444	-0.447186	0.565883
C24	C	0.170304	-0.297002	0.508532
C25	C	0.153260	-0.245956	0.491537
C26	C	0.111648	-0.245983	0.574901
C27	C	0.128691	-0.297029	0.591896
C28	C	0.107841	-0.385091	0.571080
C29	C	0.090813	-0.402108	0.554078
C30	C	0.174153	-0.443755	0.512351
C31	C	0.191183	-0.426739	0.529347
C32	C	0.107923	-0.385106	0.659111
C33	C	0.090955	-0.402138	0.710156
C34	C	0.174335	-0.443795	0.710087
C35	C	0.191302	-0.426764	0.659041
C36	C	0.158095	-0.397418	0.633555
C37	C	0.232909	-0.397388	0.558656
C38	C	0.105069	-0.449619	0.791057
C39	C	0.390406	-0.449193	0.505789
C40	C	0.104813	-0.449599	0.506607
C41	C	0.105125	-0.165028	0.506915
C42	C	-0.020560	-0.576246	0.169890
C43	C	-0.020889	-0.786183	0.379970
C44	C	-0.020859	-0.576235	0.380063
C45	C	-0.230772	-0.576015	0.379658
C46	C	-0.129417	-0.609898	0.346025
C47	C	-0.054587	-0.609979	0.346172
C48	C	-0.073269	-0.628671	0.327396
C49	C	-0.087401	-0.710299	0.370335
C50	C	-0.070424	-0.761345	0.387369
C51	C	0.012165	-0.761428	0.356003
C52	C	-0.004813	-0.710383	0.338967
C53	C	-0.155001	-0.622196	0.396191
C54	C	-0.206043	-0.605128	0.413125
C55	C	-0.205914	-0.563467	0.329724
C56	C	-0.154872	-0.580535	0.312790
C57	C	-0.066886	-0.559797	0.333828
C58	C	-0.049903	-0.542809	0.350903
C59	C	-0.008321	-0.626180	0.392654
C60	C	-0.025304	-0.643170	0.375585
C61	C	-0.066758	-0.559805	0.245702
C62	C	-0.049671	-0.542819	0.194658
C63	C	-0.008026	-0.626194	0.194706
C64	C	-0.025111	-0.643179	0.245752
C65	C	-0.054479	-0.609983	0.271248
C66	C	-0.054597	-0.684821	0.346135
C67	C	-0.002109	-0.556901	0.113746
C68	C	-0.002869	-0.842328	0.398966
C69	C	-0.002496	-0.556887	0.398501
C70	C	-0.286914	-0.556929	0.397631
N71	N	0.436349	-0.465146	0.490703
O72	O	0.592194	-0.469605	0.374236
O73	O	0.592389	-0.564393	0.502890
O74	O	0.592305	-0.564176	0.421300
O75	O	0.592277	-0.469822	0.455826
O76	O	0.511216	-0.537214	0.448415
O77	O	0.511300	-0.537431	0.530004
O78	O	0.511104	-0.442643	0.401350
Cu79	Cu	0.503798	-0.487575	0.468153
Cu80	Cu	0.599695	-0.519461	0.436087
O81	O	0.511188	-0.442860	0.482940
N82	N	0.667145	-0.541890	0.413532
N83	N	0.090108	-0.119085	0.490958
O84	O	-0.026275	0.036848	0.486394
O85	O	0.102381	0.036888	0.391584
O86	O	0.020751	0.036852	0.391854
O87	O	0.055356	0.036884	0.486124
O88	O	0.047821	-0.044242	0.418876
O89	O	0.129452	-0.044207	0.418606
O90	O	0.000796	-0.044246	0.513417
Cu91	Cu	0.067596	-0.051631	0.468479
Cu92	Cu	0.035582	0.044273	0.436522
O93	O	0.082426	-0.044211	0.513146
N94	N	0.013063	0.111726	0.414043
N95	N	0.090453	-0.465282	0.837001
O96	O	0.085913	-0.581648	0.992925
O97	O	-0.008857	-0.452947	0.992970
O98	O	-0.008635	-0.534562	0.992946
O99	O	0.085691	-0.500033	0.992949
O100	O	0.018365	-0.507512	0.911855
O101	O	0.018143	-0.425898	0.911878
O102	O	0.112912	-0.554598	0.911834
Cu103	Cu	0.067993	-0.487778	0.904452
Cu104	Cu	0.036063	-0.519767	1.000352
O105	O	0.112691	-0.472984	0.911857
N106	N	0.013602	-0.542269	1.067803
C107	C	0.031188	-0.423114	0.392334
C108	C	0.132194	-0.524016	0.392223
C109	C	0.072056	-0.584366	0.512840
C110	C	-0.028950	-0.483464	0.512950
C111	C	0.551868	-0.563965	0.532655
C112	C	0.551766	-0.563697	0.431617
C113	C	0.551623	-0.443070	0.371586
C114	C	0.551728	-0.443339	0.472623
C115	C	0.132090	-0.003555	0.392006
C116	C	0.031035	-0.003698	0.392374
C117	C	-0.028947	-0.003703	0.512961
C118	C	0.072143	-0.003661	0.512626
C119	C	-0.008408	-0.423209	0.952430
C120	C	-0.008128	-0.524272	0.952385
C121	C	0.112464	-0.584336	0.952374
C122	C	0.112190	-0.483267	0.952401
H123	H	0.080878	-0.361206	0.638363
O124	O	0.180964	-0.003303	0.352524
H125	H	0.198095	-0.036309	0.342090
O126	O	0.181161	-0.533653	0.352852
H127	H	0.188060	-0.564717	0.343967
H128	H	-0.015291	-0.684031	0.385637
O129	O	-0.047362	-0.534042	0.952335
H130	H	-0.079754	-0.529796	0.985382
H131	H	0.141823	-0.475877	0.952395
H132	H	0.079554	-0.003651	0.542242
H133	H	-0.038161	-0.386246	0.952443
O134	O	0.081792	-0.633370	0.552150
H135	H	0.119508	-0.657200	0.538246
H136	H	0.551918	-0.593721	0.569607
H137	H	-0.065919	-0.476185	0.542670
H138	H	-0.065895	-0.003715	0.542725
O139	O	0.151872	-0.633300	0.952366
H140	H	0.160801	-0.640223	0.919313
O141	O	-0.062922	-0.488693	0.167112
H142	H	-0.046107	-0.482456	0.127335
H143	H	0.201378	-0.467681	0.730833
O144	O	0.551783	-0.602966	0.421839
H145	H	0.518709	-0.589803	0.412841
O146	O	0.036837	-0.388842	0.737713
H147	H	0.020098	-0.402564	0.727931
O148	O	0.245419	-0.440043	0.631476
H149	H	0.265657	-0.463304	0.657776
O150	O	0.072081	-0.353462	0.602758
H151	H	0.034324	-0.347756	0.608498
O152	O	0.551553	-0.403653	0.322641
H153	H	0.518488	-0.394742	0.315751
O154	O	0.036686	-0.388830	0.567407
H155	H	0.019996	-0.402577	0.607653
O156	O	0.209914	-0.475392	0.480681
H157	H	0.247671	-0.481093	0.474938
H158	H	0.232048	-0.436761	0.519270
H159	H	0.551722	-0.413701	0.480010
H160	H	0.237680	-0.473893	0.585645
H161	H	0.023621	-0.003702	0.362756
O162	O	0.021453	-0.374110	0.353024
H163	H	-0.016265	-0.350281	0.366926
O164	O	0.230874	-0.310885	0.526596
H165	H	0.207594	-0.296926	0.504763
O166	O	0.337030	-0.517900	0.556631
H167	H	0.327214	-0.530211	0.538615
O168	O	0.336965	-0.346228	0.491163
H169	H	0.310633	-0.308743	0.488998
H170	H	0.194180	-0.317769	0.481510
H171	H	0.163263	-0.225165	0.450676
H172	H	0.118680	-0.317820	0.632757
O173	O	0.080020	-0.218466	0.610690
H174	H	0.074342	-0.244798	0.648439
H175	H	-0.090673	-0.532769	0.266460
H176	H	-0.015108	-0.684041	0.266548
O177	O	0.023645	-0.661997	0.167208
H178	H	0.029314	-0.699743	0.193550
H179	H	-0.090726	-0.532768	0.309877
H180	H	0.015526	-0.653210	0.416597
O181	O	-0.063079	-0.488686	0.337509
H182	H	-0.086260	-0.468459	0.314154
H183	H	0.052703	-0.782242	0.350169
O184	O	0.030570	-0.682900	0.312872
H185	H	0.057901	-0.692726	0.279758
O186	O	-0.105804	-0.788830	0.413474
H187	H	-0.143275	-0.762479	0.415602
H188	H	-0.134277	-0.646110	0.423254
O189	O	-0.141096	-0.682730	0.378069
H190	H	-0.153374	-0.692509	0.359992
O191	O	-0.233656	-0.618393	0.467233
H192	H	-0.223898	-0.604687	0.484011
O193	O	-0.233374	-0.531800	0.293882
H194	H	-0.207008	-0.526119	0.256151
H195	H	-0.134040	-0.570516	0.271939
