data_functionalizedCrystal
_audit_creation_method	'MofGen! by Chris Wilmer'
_symmetry_space_group_name_H-M	'P1'
_symmetry_Int_Tables_number	1
_symmetry_cell_setting	triclinic
loop_
_symmetry_equiv_pos_as_xyz
  x,y,z
_cell_length_a	8.597187
_cell_length_b	7.088929
_cell_length_c	9.065218
_cell_angle_alpha	83.685725
_cell_angle_beta	94.826766
_cell_angle_gamma	91.336285
loop_
_atom_site_label
_atom_site_type_symbol
_atom_site_fract_x
_atom_site_fract_y
_atom_site_fract_z
O1	O	2.036169	0.494382	-0.266704
O2	O	1.586868	0.420375	-0.276644
O3	O	1.820806	0.458904	-0.057193
O4	O	1.802231	0.455852	-0.486155
O5	O	1.852068	0.146078	-0.027797
O6	O	1.618130	0.107549	-0.247248
O7	O	2.067432	0.181555	-0.237308
Cu8	Cu	1.845635	0.115988	-0.239594
Cu9	Cu	1.808664	0.485942	-0.274358
O10	O	1.833493	0.143026	-0.456759
C11	C	1.544948	0.254482	-0.259240
C12	C	1.373466	0.226237	-0.251161
N13	N	1.871650	-0.144215	-0.215142
C14	C	2.109350	0.347452	-0.254712
C15	C	2.280832	0.375710	-0.262793
C16	C	1.834652	0.302200	0.012523
C17	C	1.829313	0.301330	0.176458
N18	N	1.782661	0.746147	-0.298798
C19	C	1.819647	0.299734	-0.526475
C20	C	1.824984	0.300617	-0.690411
H21	H	1.321581	0.076668	-0.235038
H22	H	1.963895	-0.210678	-0.128456
H23	H	1.690433	-0.187396	-0.385490
F24	F	1.348648	0.571222	-0.283889
