data_functionalizedCrystal
_audit_creation_method	'MofGen! by Chris Wilmer'
_symmetry_space_group_name_H-M	'P1'
_symmetry_Int_Tables_number	1
_symmetry_cell_setting	triclinic
loop_
_symmetry_equiv_pos_as_xyz
  x,y,z
_cell_length_a	10.723024
_cell_length_b	14.519709
_cell_length_c	9.198806
_cell_angle_alpha	89.995869
_cell_angle_beta	89.996352
_cell_angle_gamma	84.074007
loop_
_atom_site_label
_atom_site_type_symbol
_atom_site_fract_x
_atom_site_fract_y
_atom_site_fract_z
O1	O	1.655978	0.129347	-0.120886
O2	O	1.292710	0.141728	-0.120892
O3	O	1.483976	0.001349	-0.120876
O4	O	1.464713	0.269727	-0.120902
O5	O	1.483960	0.001348	0.120909
O6	O	1.292695	0.141728	0.120893
O7	O	1.655963	0.129347	0.120899
Cu8	Cu	1.474328	0.135538	0.142973
Cu9	Cu	1.474345	0.135538	-0.142966
O10	O	1.464697	0.269727	0.120883
C11	C	1.246211	0.140827	0.000000
C12	C	1.107682	0.138132	-0.000001
C13	C	1.483070	-0.033016	0.000017
C14	C	1.480380	-0.135411	0.000018
C15	C	1.031965	0.216681	-0.000010
C16	C	0.888788	0.213896	-0.000012
C17	C	1.470476	-0.510357	-0.000020
C18	C	1.473227	-0.406035	-0.000009
C19	C	1.475428	-0.322887	0.000000
C20	C	1.478179	-0.218559	0.000008
C21	C	1.702462	0.130248	0.000003
C22	C	1.840991	0.132944	-0.000005
C23	C	1.465603	0.304091	-0.000013
C24	C	1.468293	0.406486	-0.000024
N25	N	1.474324	0.135537	0.344087
N26	N	1.474359	0.135532	-0.344080
C27	C	1.554633	0.076335	0.416290
C28	C	1.554653	0.076332	0.583703
H29	H	0.823726	0.281141	-0.000025
C30	C	0.928867	0.042091	0.000006
C31	C	1.022404	0.020835	0.125561
C32	C	1.110291	-0.070017	0.125571
C33	C	1.104639	-0.139614	0.000026
C34	C	1.011098	-0.118361	-0.125539
C35	C	0.923212	-0.027508	-0.125549
H36	H	1.026591	0.072357	0.218506
H37	H	1.179536	-0.085750	0.218524
H38	H	1.169698	-0.206869	0.000033
H39	H	1.006911	-0.169882	-0.218484
H40	H	0.853966	-0.011775	-0.218502
H41	H	1.405604	0.186222	0.593837
C42	C	1.647544	0.007856	0.667573
C43	C	1.740512	-0.060747	0.584042
C44	C	1.833406	-0.129225	0.667916
C45	C	1.833333	-0.129101	0.835321
C46	C	1.740362	-0.060496	0.918862
C47	C	1.647467	0.007982	0.834988
H48	H	1.740569	-0.060841	0.460110
H49	H	1.902230	-0.180011	0.606072
H50	H	1.902099	-0.179793	0.897410
H51	H	1.740304	-0.060403	1.042794
H52	H	1.578644	0.058768	0.896832
H53	H	1.073139	0.285991	-0.000009
C54	C	1.381452	0.204010	0.427996
C55	C	1.384151	0.309023	0.407201
C56	C	1.291276	0.377498	0.491105
C57	C	1.195703	0.340960	0.595806
C58	C	1.193001	0.235942	0.616606
C59	C	1.285876	0.167466	0.532701
H60	H	1.454903	0.336075	0.329691
H61	H	1.293276	0.455240	0.475707
H62	H	1.126951	0.391650	0.657917
H63	H	1.122249	0.208889	0.694115
H64	H	1.283875	0.089725	0.548099
H65	H	1.066508	0.068822	-0.000032
H66	H	1.623371	0.025649	0.354170
