data_functionalizedCrystal
_audit_creation_method	'MofGen! by Chris Wilmer'
_symmetry_space_group_name_H-M	'P1'
_symmetry_Int_Tables_number	1
_symmetry_cell_setting	triclinic
loop_
_symmetry_equiv_pos_as_xyz
  x,y,z
_cell_length_a	11.026607
_cell_length_b	14.044220
_cell_length_c	10.065875
_cell_angle_alpha	99.592716
_cell_angle_beta	79.302338
_cell_angle_gamma	100.887447
loop_
_atom_site_label
_atom_site_type_symbol
_atom_site_fract_x
_atom_site_fract_y
_atom_site_fract_z
O1	O	1.670494	0.393284	-0.113515
O2	O	1.312203	0.347236	-0.113514
O3	O	1.485969	0.231359	-0.113501
O4	O	1.496729	0.509161	-0.113528
O5	O	1.452846	0.253569	0.113485
O6	O	1.279081	0.369446	0.113472
O7	O	1.637372	0.415494	0.113471
Zn8	Zn	1.452967	0.395996	0.149510
Zn9	Zn	1.496608	0.366734	-0.149554
O10	O	1.463606	0.531371	0.113458
C11	C	1.249512	0.349846	-0.000021
C12	C	1.112056	0.324521	-0.000020
C13	C	1.464699	0.206346	-0.000008
C14	C	1.450655	0.098724	-0.000006
C15	C	1.045821	0.394445	-0.000028
C16	C	0.903753	0.368273	-0.000027
C17	C	1.424983	-0.098320	-0.000025
C18	C	1.524588	-0.138958	-0.000030
C19	C	1.510304	-0.248600	-0.000041
C20	C	1.439265	0.011332	-0.000015
C21	C	1.700064	0.412884	-0.000025
C22	C	1.837520	0.438207	-0.000035
C23	C	1.484876	0.556383	-0.000039
C24	C	1.498921	0.664004	-0.000049
N25	N	1.423193	0.415967	0.353614
N26	N	1.526391	0.346756	-0.353657
C27	C	1.486240	0.373675	0.421397
C28	C	1.463335	0.389055	0.578563
H29	H	0.855293	0.289025	-0.000054
H30	H	0.885983	0.517454	-0.000034
H31	H	1.557169	0.326076	0.363079
O32	O	1.378531	0.445707	0.648062
C33	C	1.163491	0.470308	0.692031
C34	C	1.259393	0.406055	0.613262
H35	H	1.067153	0.438286	0.663902
H36	H	1.159985	0.472578	0.806407
H37	H	1.192368	0.547679	0.664026
H38	H	1.230587	0.328654	0.641152
H39	H	1.262884	0.403868	0.498905
H40	H	1.094290	0.473686	-0.000028
O41	O	1.610770	0.289822	0.576575
C42	C	1.710089	0.222197	0.356318
C43	C	1.614680	0.286856	0.435158
H44	H	1.713262	0.219761	0.241968
H45	H	1.806649	0.253974	0.384003
H46	H	1.680921	0.144923	0.384631
H47	H	1.643731	0.364144	0.406887
H48	H	1.518143	0.254999	0.407466
H49	H	1.063591	0.245278	-0.000048
H50	H	1.352254	0.463557	0.411935
O51	O	1.639182	-0.082300	-0.000253
C52	C	1.850783	-0.049482	-0.117771
C53	C	1.721068	-0.113710	-0.117712
H54	H	1.917031	-0.074866	-0.212711
H55	H	1.842140	0.030128	-0.117846
H56	H	1.889231	-0.056201	-0.022729
H57	H	1.682545	-0.107075	-0.212738
H58	H	1.729789	-0.193293	-0.117566
O59	O	1.310538	-0.155175	0.000041
C60	C	1.191801	-0.317902	-0.000034
C61	C	1.321475	-0.253611	-0.000085
H62	H	1.200604	-0.397502	-0.000165
H63	H	1.125534	-0.292676	0.094990
H64	H	1.153273	-0.311123	-0.094997
H65	H	1.360116	-0.260359	0.094814
H66	H	1.387658	-0.278854	-0.095171
