data_functionalizedCrystal
_audit_creation_method	'MofGen! by Chris Wilmer'
_symmetry_space_group_name_H-M	'P1'
_symmetry_Int_Tables_number	1
_symmetry_cell_setting	triclinic
loop_
_symmetry_equiv_pos_as_xyz
  x,y,z
_cell_length_a	19.188925
_cell_length_b	19.188928
_cell_length_c	18.266242
_cell_angle_alpha	89.986251
_cell_angle_beta	90.009988
_cell_angle_gamma	96.856819
loop_
_atom_site_label
_atom_site_type_symbol
_atom_site_fract_x
_atom_site_fract_y
_atom_site_fract_z
O1	O	0.926151	-0.087151	0.060909
O2	O	1.259484	0.246183	0.394242
O3	O	1.592818	0.579516	0.727575
O4	O	0.722839	-0.098889	0.060908
O5	O	1.056172	0.234444	0.394241
O6	O	1.389506	0.567778	0.727575
O7	O	0.830363	0.008636	0.060890
O8	O	1.163696	0.341969	0.394223
O9	O	1.497030	0.675303	0.727556
O10	O	0.818627	-0.194676	0.060927
O11	O	1.151960	0.138658	0.394260
O12	O	1.485294	0.471991	0.727593
O13	O	0.830345	0.008642	-0.060872
O14	O	1.163678	0.341975	0.272461
O15	O	1.497011	0.675308	0.605794
O16	O	0.722821	-0.098883	-0.060854
O17	O	1.056154	0.234450	0.272479
O18	O	1.389487	0.567783	0.605813
O19	O	0.926133	-0.087145	-0.060853
O20	O	1.259466	0.246188	0.272480
O21	O	1.592799	0.579522	0.605813
Zn22	Zn	0.824474	-0.093013	-0.080186
Zn23	Zn	1.157807	0.240320	0.253147
Zn24	Zn	1.491141	0.573653	0.586481
Zn25	Zn	0.824498	-0.093021	0.080241
Zn26	Zn	1.157831	0.240313	0.413574
Zn27	Zn	1.491165	0.573646	0.746907
O28	O	0.818609	-0.194670	-0.060835
O29	O	1.151942	0.138663	0.272498
O30	O	1.485275	0.471997	0.605832
C31	C	0.696819	-0.098507	0.000027
C32	C	1.030152	0.234827	0.333360
C33	C	1.363486	0.568160	0.666693
C34	C	0.619314	-0.097367	0.000026
C35	C	0.952647	0.235966	0.333359
C36	C	1.285981	0.569299	0.666692
C37	C	0.057543	-0.152832	0.000038
C38	C	0.390877	0.180502	0.333371
C39	C	0.724210	0.513835	0.666704
C40	C	0.130367	-0.153908	0.000042
C41	C	0.463700	0.179425	0.333375
C42	C	0.797033	0.512759	0.666708
C43	C	0.175302	-0.090816	0.000029
C44	C	0.508635	0.242517	0.333362
C45	C	0.841968	0.575851	0.666696
C46	C	0.147408	-0.026642	0.000031
C47	C	0.480741	0.306691	0.333364
C48	C	0.814075	0.640024	0.666697
C49	C	0.074586	-0.025568	0.000034
C50	C	0.407919	0.307766	0.333367
C51	C	0.741253	0.641099	0.666701
N52	N	0.295973	-0.045138	-0.041428
N53	N	0.629306	0.288196	0.291905
N54	N	0.962640	0.621529	0.625239
N55	N	0.365150	-0.046163	-0.041433
N56	N	0.698484	0.287170	0.291901
N57	N	1.031817	0.620504	0.625234
C58	C	0.394711	-0.094050	0.000021
C59	C	0.728044	0.239283	0.333354
C60	C	1.061377	0.572617	0.666688
N61	N	0.352479	-0.140884	0.041470
N62	N	0.685813	0.192450	0.374803
N63	N	1.019146	0.525783	0.708137
N64	N	0.283295	-0.139860	0.041471
N65	N	0.616629	0.193473	0.374805
N66	N	0.949962	0.526806	0.708138
C67	C	0.254266	-0.091974	0.000026
C68	C	0.587599	0.241359	0.333359
C69	C	0.920932	0.574693	0.666693
C70	C	0.501559	-0.159387	0.000029
C71	C	0.834893	0.173947	0.333362
C72	C	1.168226	0.507280	0.666695
C73	C	0.574384	-0.160460	0.000037
C74	C	0.907717	0.172873	0.333371
C75	C	1.241051	0.506206	0.666704
C76	C	0.591424	-0.033193	0.000019
C77	C	0.924758	0.300140	0.333352
C78	C	1.258091	0.633474	0.666686
C79	C	0.518601	-0.032121	0.000018
C80	C	0.851934	0.301213	0.333351
C81	C	1.185267	0.634546	0.666684
C82	C	0.473672	-0.095220	0.000019
C83	C	0.807006	0.238114	0.333352
C84	C	1.140339	0.571447	0.666686
C85	C	0.829974	0.034650	0.000006
C86	C	1.163307	0.367983	0.333339
C87	C	1.496641	0.701317	0.666672
C88	C	0.828834	0.112154	-0.000004
C89	C	1.162167	0.445488	0.333329
C90	C	1.495501	0.778821	0.666663
C91	C	0.891925	0.157080	-0.000009
C92	C	1.225259	0.490413	0.333324
C93	C	1.558592	0.823746	0.666658
C94	C	0.890854	0.229904	-0.000000
C95	C	1.224188	0.563237	0.333333
C96	C	1.557521	0.896570	0.666666
C97	C	0.826688	0.257799	-0.000001
C98	C	1.160022	0.591132	0.333332
C99	C	1.493355	0.924466	0.666665
C100	C	0.763589	0.212864	0.000008
C101	C	1.096922	0.546197	0.333341
C102	C	1.430255	0.879530	0.666675
C103	C	0.764662	0.140042	0.000007
C104	C	1.097995	0.473375	0.333340
C105	C	1.431328	0.806708	0.666673
N106	N	0.777636	0.365805	-0.041444
N107	N	1.110969	0.699138	0.291889
N108	N	1.444302	1.032472	0.625223
N109	N	0.776621	0.434984	-0.041444
N110	N	1.109954	0.768317	0.291889
N111	N	1.443287	1.101650	0.625223
C112	C	0.823452	0.477208	0.000004
C113	C	1.156785	0.810541	0.333338
C114	C	1.490119	1.143874	0.666671
N115	N	0.871347	0.447641	0.041444
N116	N	1.204681	0.780975	0.374777
N117	N	1.538014	1.114308	0.708111
N118	N	0.872364	0.378457	0.041441
N119	N	1.205698	0.711790	0.374774
N120	N	1.539031	1.045123	0.708108
C121	C	0.825518	0.336761	0.000001
C122	C	1.158851	0.670095	0.333334
C123	C	1.492185	1.003428	0.666667
C124	C	0.885387	0.601097	0.000010
C125	C	1.218720	0.934431	0.333343
C126	C	1.552053	1.267764	0.666676
C127	C	0.884313	0.673922	0.000023
C128	C	1.217646	1.007256	0.333356
C129	C	1.550979	1.340589	0.666690
C130	C	0.757045	0.656881	0.000024
C131	C	1.090379	0.990214	0.333357
C132	C	1.423712	1.323548	0.666691
C133	C	0.758121	0.584058	0.000018
C134	C	1.091454	0.917391	0.333351
C135	C	1.424787	1.250724	0.666685
C136	C	0.822293	0.556171	0.000008
C137	C	1.155627	0.889504	0.333341
C138	C	1.488960	1.222837	0.666674
C139	C	0.952153	-0.087527	0.000029
C140	C	1.285486	0.245806	0.333363
C141	C	1.618820	0.579139	0.666696
C142	C	1.029658	-0.088667	0.000035
C143	C	1.362991	0.244667	0.333369
C144	C	1.696324	0.578000	0.666702
C145	C	0.819000	0.779316	0.000040
C146	C	1.152333	1.112650	0.333374
C147	C	1.485666	1.445983	0.666707
C148	C	0.820146	0.701813	0.000023
C149	C	1.153480	1.035146	0.333357
C150	C	1.486813	1.368479	0.666690
N151	N	0.824463	-0.093008	-0.189673
N152	N	1.157796	0.240325	0.143660
N153	N	1.491129	0.573659	0.476994
C154	C	0.872090	-0.045419	-0.227990
C155	C	1.205423	0.287914	0.105343
C156	C	1.538756	0.621247	0.438677
C157	C	0.872094	-0.045416	-0.304635
C158	C	1.205428	0.287917	0.028699
C159	C	1.538761	0.621251	0.362032
C160	C	0.824478	-0.093014	-0.342960
C161	C	1.157812	0.240320	-0.009626
C162	C	1.491145	0.573653	0.323707
C163	C	0.776842	-0.140606	-0.304634
C164	C	1.110175	0.192727	0.028700
C165	C	1.443509	0.526061	0.362033
C166	C	0.776834	-0.140603	-0.227990
C167	C	1.110168	0.192730	0.105343
C168	C	1.443501	0.526063	0.438676
N169	N	0.815402	-0.154821	-0.463281
N170	N	1.148735	0.178512	-0.129948
N171	N	1.482069	0.511845	0.203386
N172	N	0.815414	-0.154822	-0.536089
N173	N	1.148747	0.178512	-0.202756
N174	N	1.482080	0.511845	0.130578
C175	C	0.824498	-0.093024	-0.573882
C176	C	1.157831	0.240310	-0.240549
C177	C	1.491164	0.573643	0.092784
N178	N	0.833584	-0.031223	-0.536117
N179	N	1.166917	0.302110	-0.202783
N180	N	1.500250	0.635444	0.130550
N181	N	0.833576	-0.031223	-0.463302
N182	N	1.166909	0.302110	-0.129969
N183	N	1.500242	0.635443	0.203365
C184	C	0.824481	-0.093022	-0.426067
C185	C	1.157814	0.240312	-0.092733
C186	C	1.491148	0.573645	0.240600
C187	C	0.872132	-0.045427	-0.695306
C188	C	1.205466	0.287906	-0.361973
C189	C	1.538799	0.621239	-0.028640
C190	C	0.872132	-0.045423	-0.771953
C191	C	1.205465	0.287910	-0.438619
C192	C	1.538799	0.621243	-0.105286
C193	C	0.776883	-0.140619	-0.771950
C194	C	1.110216	0.192714	-0.438617
C195	C	1.443550	0.526047	-0.105283
C196	C	0.776880	-0.140617	-0.695305
C197	C	1.110214	0.192716	-0.361972
C198	C	1.443547	0.526049	-0.028638
C199	C	0.824509	-0.093022	-0.656988
C200	C	1.157842	0.240311	-0.323655
C201	C	1.491175	0.573644	0.009679
N202	N	0.824515	-0.093020	0.189728
N203	N	1.157848	0.240313	0.523061
N204	N	1.491181	0.573646	0.856394
H205	H	0.464976	-0.210765	0.000031
H206	H	0.798310	0.122568	0.333364
H207	H	1.131643	0.455901	0.666698
H208	H	0.910870	-0.006663	-0.196794
H209	H	1.244203	0.326670	0.136539
H210	H	1.577537	0.660004	0.469872
H211	H	0.495897	0.020129	0.000011
H212	H	0.829230	0.353463	0.333345
H213	H	1.162563	0.686796	0.666678
H214	H	0.910914	-0.006667	-0.803151
H215	H	1.244247	0.326666	-0.469818
H216	H	1.577580	0.660000	-0.136484
F217	F	0.044908	0.042729	0.000034
F218	F	0.378241	0.376062	0.333367
F219	F	0.711574	0.709395	0.666700
F220	F	0.726202	-0.191272	-0.812735
F221	F	1.059536	0.142062	-0.479401
F222	F	1.392869	0.475395	-0.146068
F223	F	0.922788	0.005237	-0.345421
F224	F	1.256122	0.338571	-0.012088
F225	F	1.589455	0.671904	0.321245
F226	F	0.604061	-0.228757	0.000047
F227	F	0.937394	0.104576	0.333380
F228	F	1.270728	0.437909	0.666714
H229	H	0.937640	0.578391	0.000005
H230	H	1.270973	0.911724	0.333338
H231	H	1.604306	1.245057	0.666671
F232	F	0.922820	0.005230	-0.654526
F233	F	1.256153	0.338564	-0.321192
F234	F	1.589486	0.671897	0.012141
F235	F	0.639243	0.033955	0.000015
F236	F	0.972576	0.367289	0.333348
F237	F	1.305909	0.700622	0.666681
H238	H	0.183999	0.024728	0.000022
H239	H	0.517332	0.358061	0.333356
H240	H	0.850666	0.691394	0.666689
F241	F	0.688754	0.686564	0.000027
F242	F	1.022088	1.019898	0.333360
F243	F	1.355421	1.353231	0.666693
F244	F	0.960224	0.127404	-0.000004
F245	F	1.293557	0.460738	0.333329
F246	F	1.626891	0.794071	0.666662
F247	F	0.958008	0.277725	-0.000005
F248	F	1.291341	0.611058	0.333329
F249	F	1.624674	0.944392	0.666662
F250	F	0.695299	0.242553	0.000012
F251	F	1.028632	0.575886	0.333345
F252	F	1.361965	0.909220	0.666678
H253	H	0.713283	0.103463	0.000011
H254	H	1.046617	0.436796	0.333344
H255	H	1.379950	0.770129	0.666677
F256	F	0.726192	-0.191271	-0.654522
F257	F	1.059525	0.142062	-0.321189
F258	F	1.392859	0.475396	0.012144
H259	H	0.706745	0.547478	0.000018
H260	H	1.040078	0.880812	0.333351
H261	H	1.373411	1.214145	0.666685
F262	F	0.009731	-0.219987	0.000046
F263	F	0.343065	0.113346	0.333380
F264	F	0.676398	0.446679	0.666713
F265	F	0.726163	-0.191261	-0.345422
F266	F	1.059497	0.142073	-0.012089
F267	F	1.392830	0.475406	0.321244
F268	F	0.160052	-0.222204	0.000043
F269	F	0.493385	0.111129	0.333376
F270	F	0.826719	0.444463	0.666710
H271	H	0.935692	0.710501	0.000023
H272	H	1.269025	1.043834	0.333356
H273	H	1.602358	1.377167	0.666690
F274	F	0.726141	-0.191256	-0.187209
F275	F	1.059475	0.142077	0.146125
F276	F	1.392808	0.475411	0.479458
