data_functionalizedCrystal
_audit_creation_method	'MofGen! by Chris Wilmer'
_symmetry_space_group_name_H-M	'P1'
_symmetry_Int_Tables_number	1
_symmetry_cell_setting	triclinic
loop_
_symmetry_equiv_pos_as_xyz
  x,y,z
_cell_length_a	19.188905
_cell_length_b	19.188924
_cell_length_c	7.088929
_cell_angle_alpha	96.204448
_cell_angle_beta	83.825162
_cell_angle_gamma	83.138260
loop_
_atom_site_label
_atom_site_type_symbol
_atom_site_fract_x
_atom_site_fract_y
_atom_site_fract_z
O1	O	0.918950	0.094299	0.159310
O2	O	0.715638	0.106049	0.159246
O3	O	0.823165	-0.001483	0.159258
O4	O	0.811423	0.201831	0.159299
O5	O	0.837535	-0.015886	-0.158716
O6	O	0.730008	0.091646	-0.158727
O7	O	0.933319	0.079896	-0.158663
Cu8	Cu	0.832976	0.084456	-0.187729
Cu9	Cu	0.815982	0.101489	0.188312
O10	O	0.825793	0.187428	-0.158675
C11	C	0.696812	0.098469	0.000251
C12	C	0.619308	0.097334	0.000226
C13	C	0.575083	0.104641	0.173558
C14	C	0.502258	0.103569	0.173581
C15	C	0.473664	0.095176	0.000263
C16	C	0.517898	0.087872	-0.173092
C17	C	0.590720	0.088952	-0.173111
N18	N	0.370474	0.047904	-0.128730
N19	N	0.301296	0.046878	-0.128700
C20	C	0.254255	0.091925	0.000308
N21	N	0.279006	0.138030	0.129316
N22	N	0.348191	0.139053	0.129292
C23	C	0.394701	0.094005	0.000264
C24	C	0.131065	0.098071	0.173678
C25	C	0.058239	0.097003	0.173694
C26	C	0.073881	0.081299	-0.172984
C27	C	0.146705	0.082374	-0.172996
C28	C	0.175292	0.090757	0.000341
C29	C	0.829970	-0.034696	0.000269
C30	C	0.828832	-0.112201	0.000263
C31	C	0.820467	-0.140749	0.173591
C32	C	0.819387	-0.213571	0.173605
C33	C	0.826685	-0.257844	0.000282
C34	C	0.835047	-0.229288	-0.173069
C35	C	0.836120	-0.156467	-0.173078
N36	N	0.870563	-0.383354	-0.128706
N37	N	0.869544	-0.452531	-0.128686
C38	C	0.823450	-0.477253	0.000299
N39	N	0.778421	-0.430183	0.129292
N40	N	0.779443	-0.361000	0.129277
C41	C	0.825522	-0.336808	0.000273
C42	C	0.813913	-0.584762	0.173654
C43	C	0.812828	-0.657585	0.173661
C44	C	0.828495	-0.673302	-0.173018
C45	C	0.829573	-0.600479	-0.173020
C46	C	0.822284	-0.556214	0.000322
C47	C	0.952145	0.087476	0.000336
C48	C	1.029649	0.088611	0.000374
C49	C	0.818987	0.220641	0.000318
C50	C	0.820125	0.298147	0.000336
N51	N	0.844934	0.072475	-0.452216
N52	N	0.804030	0.113464	0.452798
H53	H	0.494612	0.081040	-0.314210
N54	N	0.750836	0.166748	-0.444825
N55	N	0.712375	0.205285	-0.534026
H56	H	0.674805	0.242918	-0.461714
N57	N	0.160261	0.106635	0.350744
N58	N	0.120761	0.113164	0.505499
H59	H	0.141378	0.119212	0.630556
N60	N	0.804285	-0.686764	0.350697
N61	N	0.752737	-0.719057	0.389378
H62	H	0.746706	-0.739670	0.514409
H63	H	0.887334	0.030001	-0.533867
H64	H	0.834433	-0.709348	-0.314141
H65	H	0.842929	-0.133224	-0.314227
H66	H	0.598354	0.111467	0.314702
N67	N	0.013048	0.104473	0.350740
N68	N	-0.035929	0.154829	0.389441
H69	H	-0.067847	0.160104	0.514480
H70	H	0.812571	-0.236818	0.314754
N71	N	0.457083	0.111034	0.350661
N72	N	0.482617	0.118518	0.505406
H73	H	0.450714	0.123789	0.630471
H74	H	0.807974	-0.548718	0.314799
N75	N	0.635899	0.081499	-0.350172
N76	N	0.626409	0.125332	-0.466211
H77	H	0.658318	0.120069	-0.591263
N78	N	0.044682	0.072746	-0.350033
N79	N	-0.000800	0.119605	-0.388682
H80	H	-0.021424	0.113570	-0.513730
N81	N	0.191874	0.074905	-0.350071
N82	N	0.166338	0.067412	-0.504810
H83	H	0.198239	0.062137	-0.629879
N84	N	0.813012	-0.095523	0.350632
N85	N	0.813969	-0.030504	0.350608
H86	H	0.808703	0.001440	0.475643
N87	N	0.838131	-0.571305	-0.350055
N88	N	0.839091	-0.506285	-0.350041
H89	H	0.845134	-0.485680	-0.475079
H90	H	0.840987	-0.265341	-0.314190
