data_functionalizedCrystal
_audit_creation_method	'MofGen! by Chris Wilmer'
_symmetry_space_group_name_H-M	'P1'
_symmetry_Int_Tables_number	1
_symmetry_cell_setting	triclinic
loop_
_symmetry_equiv_pos_as_xyz
  x,y,z
_cell_length_a	16.109302
_cell_length_b	10.723024
_cell_length_c	15.186229
_cell_angle_alpha	89.989223
_cell_angle_beta	89.990142
_cell_angle_gamma	83.964825
loop_
_atom_site_label
_atom_site_type_symbol
_atom_site_fract_x
_atom_site_fract_y
_atom_site_fract_z
O1	O	1.104079	0.160409	-0.073266
O2	O	1.354079	0.410409	0.176734
O3	O	1.604079	0.660409	0.426734
O4	O	1.854079	0.910409	0.676734
O5	O	0.862134	0.180369	-0.073259
O6	O	1.112134	0.430369	0.176741
O7	O	1.362134	0.680369	0.426741
O8	O	1.612134	0.930369	0.676741
O9	O	0.988687	-0.011261	-0.073259
O10	O	1.238687	0.238739	0.176741
O11	O	1.488687	0.488739	0.426741
O12	O	1.738687	0.738739	0.676741
O13	O	0.977525	0.352039	-0.073265
O14	O	1.227525	0.602039	0.176735
O15	O	1.477525	0.852039	0.426735
O16	O	1.727525	1.102039	0.676735
O17	O	0.988670	-0.011292	0.073198
O18	O	1.238670	0.238708	0.323198
O19	O	1.488670	0.488708	0.573198
O20	O	1.738670	0.738708	0.823198
O21	O	0.862117	0.180338	0.073199
O22	O	1.112117	0.430338	0.323199
O23	O	1.362117	0.680338	0.573199
O24	O	1.612117	0.930338	0.823199
O25	O	1.104061	0.160378	0.073191
O26	O	1.354061	0.410378	0.323191
O27	O	1.604061	0.660378	0.573191
O28	O	1.854061	0.910378	0.823191
Zn29	Zn	0.983086	0.170353	0.096448
Zn30	Zn	1.233086	0.420353	0.346448
Zn31	Zn	1.483086	0.670353	0.596448
Zn32	Zn	1.733086	0.920353	0.846448
Zn33	Zn	0.983109	0.170394	-0.096516
Zn34	Zn	1.233109	0.420394	0.153484
Zn35	Zn	1.483109	0.670394	0.403484
Zn36	Zn	1.733109	0.920394	0.653484
O37	O	0.977508	0.352008	0.073192
O38	O	1.227508	0.602008	0.323192
O39	O	1.477508	0.852008	0.573192
O40	O	1.727508	1.102008	0.823192
C41	C	0.831146	0.179544	-0.000029
C42	C	1.081146	0.429544	0.249971
C43	C	1.331146	0.679544	0.499971
C44	C	1.581146	0.929544	0.749971
C45	C	0.738836	0.177120	-0.000026
C46	C	0.988836	0.427120	0.249974
C47	C	1.238836	0.677120	0.499974
C48	C	1.488836	0.927120	0.749974
C49	C	0.526453	0.171497	0.079799
C50	C	0.776453	0.421497	0.329799
C51	C	1.026453	0.671497	0.579799
C52	C	1.276453	0.921497	0.829799
C53	C	0.439719	0.169206	0.079796
C54	C	0.689719	0.419206	0.329796
C55	C	0.939719	0.669206	0.579796
C56	C	1.189719	0.919206	0.829796
C57	C	0.439749	0.169246	-0.079880
C58	C	0.689749	0.419246	0.170120
C59	C	0.939749	0.669246	0.420120
C60	C	1.189749	0.919246	0.670120
C61	C	0.526481	0.171528	-0.079876
C62	C	0.776481	0.421528	0.170124
C63	C	1.026481	0.671528	0.420124
C64	C	1.276481	0.921528	0.670124
C65	C	0.569831	0.172660	-0.000034
C66	C	0.819831	0.422660	0.249966
C67	C	1.069831	0.672660	0.499966
C68	C	1.319831	0.922660	0.749966
C69	C	0.396364	0.168086	-0.000041
C70	C	0.646364	0.418086	0.249959
C71	C	0.896364	0.668086	0.499959
C72	C	1.146364	0.918086	0.749959
C73	C	0.302324	0.165602	-0.000045
C74	C	0.552324	0.415602	0.249955
C75	C	0.802324	0.665602	0.499955
C76	C	1.052324	0.915602	0.749955
C77	C	0.663877	0.175142	-0.000030
C78	C	0.913877	0.425142	0.249970
C79	C	1.163877	0.675142	0.499970
C80	C	1.413877	0.925142	0.749970
C81	C	0.987866	-0.057766	-0.000032
C82	C	1.237866	0.192234	0.249968
C83	C	1.487866	0.442234	0.499968
C84	C	1.737866	0.692234	0.749968
C85	C	0.985436	-0.196288	-0.000035
C86	C	1.235436	0.053712	0.249965
C87	C	1.485436	0.303712	0.499965
C88	C	1.735436	0.553712	0.749965
C89	C	1.056248	-0.272209	-0.000038
C90	C	1.306248	-0.022209	0.249962
C91	C	1.556248	0.227791	0.499962
C92	C	1.806248	0.477791	0.749962
C93	C	1.053738	-0.415379	-0.000041
C94	C	1.303738	-0.165379	0.249959
C95	C	1.553738	0.084621	0.499959
C96	C	1.803738	0.334621	0.749959
C97	C	1.135049	0.161202	-0.000040
C98	C	1.385049	0.411202	0.249960
C99	C	1.635049	0.661202	0.499960
C100	C	1.885049	0.911202	0.749960
C101	C	1.227359	0.163627	-0.000049
C102	C	1.477359	0.413627	0.249951
C103	C	1.727359	0.663627	0.499951
C104	C	1.977359	0.913627	0.749951
C105	C	0.978329	0.398512	-0.000038
C106	C	1.228329	0.648512	0.249962
C107	C	1.478329	0.898512	0.499962
C108	C	1.728329	1.148512	0.749962
C109	C	0.980759	0.537034	-0.000040
C110	C	1.230759	0.787034	0.249960
C111	C	1.480759	1.037034	0.499960
C112	C	1.730759	1.287034	0.749960
N113	N	0.983076	0.170324	0.228141
N114	N	1.233076	0.420324	0.478141
N115	N	1.483076	0.670324	0.728141
N116	N	1.733076	0.920324	0.978141
N117	N	0.983125	0.170412	-0.228208
N118	N	1.233125	0.420412	0.021792
N119	N	1.483125	0.670412	0.271792
N120	N	1.733125	0.920412	0.521792
C121	C	0.932250	0.094677	0.546096
C122	C	1.182250	0.344677	0.796096
C123	C	1.432250	0.594677	1.046096
C124	C	1.682250	0.844677	1.296096
C125	C	0.932243	0.094659	0.453906
C126	C	1.182243	0.344659	0.703906
C127	C	1.432243	0.594659	0.953906
C128	C	1.682243	0.844659	1.203906
C129	C	1.033957	0.246063	0.453843
C130	C	1.283957	0.496063	0.703843
C131	C	1.533957	0.746063	0.953843
C132	C	1.783957	0.996063	1.203843
C133	C	1.033968	0.246074	0.546031
C134	C	1.283968	0.496074	0.796031
C135	C	1.533968	0.746074	1.046031
C136	C	1.783968	0.996074	1.296031
C137	C	0.983110	0.170383	0.592155
C138	C	1.233110	0.420383	0.842155
C139	C	1.483110	0.670383	1.092155
C140	C	1.733110	0.920383	1.342155
C141	C	0.983092	0.170354	0.407778
C142	C	1.233092	0.420354	0.657778
C143	C	1.483092	0.670354	0.907778
C144	C	1.733092	0.920354	1.157778
C145	C	0.983084	0.170335	0.307821
C146	C	1.233084	0.420335	0.557821
C147	C	1.483084	0.670335	0.807821
C148	C	1.733084	0.920335	1.057821
C149	C	0.983118	0.170400	0.692118
C150	C	1.233118	0.420400	0.942118
C151	C	1.483118	0.670400	1.192118
C152	C	1.733118	0.920400	1.442118
H153	H	0.404443	0.168326	-0.144885
H154	H	0.654443	0.418326	0.105115
H155	H	0.904443	0.668326	0.355115
H156	H	1.154443	0.918326	0.605115
O157	O	0.902667	-0.250581	-0.000028
O158	O	1.152667	-0.000581	0.249972
O159	O	1.402667	0.249419	0.499972
O160	O	1.652667	0.499419	0.749972
H161	H	0.866810	-0.218513	-0.059722
H162	H	1.116810	0.031487	0.190278
H163	H	1.366810	0.281487	0.440278
H164	H	1.616810	0.531487	0.690278
H165	H	0.404405	0.168259	0.144804
H166	H	0.654405	0.418259	0.394804
H167	H	0.904405	0.668259	0.644804
H168	H	1.154405	0.918259	0.894804
H169	H	1.114359	-0.480615	-0.000040
H170	H	1.364359	-0.230615	0.249960
H171	H	1.614359	0.019385	0.499960
H172	H	1.864359	0.269385	0.749960
O173	O	0.900448	-0.376577	-0.000031
O174	O	1.150448	-0.126577	0.249969
O175	O	1.400448	0.123423	0.499969
O176	O	1.650448	0.373423	0.749969
H177	H	0.897919	-0.316555	-0.059725
H178	H	1.147919	-0.066555	0.190275
H179	H	1.397919	0.183445	0.440275
H180	H	1.647919	0.433445	0.690275
O181	O	0.573277	0.172770	-0.165986
O182	O	0.823277	0.422770	0.084014
O183	O	1.073277	0.672770	0.334014
O184	O	1.323277	0.922770	0.584014
H185	H	0.605877	0.258799	-0.169801
H186	H	0.855877	0.508799	0.080199
H187	H	1.105877	0.758799	0.330199
H188	H	1.355877	1.008799	0.580199
H189	H	1.118732	-0.231215	-0.000034
H190	H	1.368732	0.018785	0.249966
H191	H	1.618732	0.268785	0.499966
H192	H	1.868732	0.518785	0.749966
O193	O	0.877392	0.012976	0.404244
O194	O	1.127392	0.262976	0.654244
O195	O	1.377392	0.512976	0.904244
O196	O	1.627392	0.762976	1.154244
H197	H	0.916871	-0.054092	0.362264
H198	H	1.166871	0.195908	0.612264
H199	H	1.416871	0.445908	0.862264
H200	H	1.666871	0.695908	1.112264
H201	H	0.890839	0.033043	0.583647
H202	H	1.140839	0.283043	0.833647
H203	H	1.390839	0.533043	1.083647
H204	H	1.640839	0.783043	1.333647
H205	H	1.075363	0.307690	0.416278
H206	H	1.325363	0.557690	0.666278
H207	H	1.575363	0.807690	0.916278
H208	H	1.825363	1.057690	1.166278
O209	O	0.573206	0.172712	0.165913
O210	O	0.823206	0.422712	0.415913
O211	O	1.073206	0.672712	0.665913
O212	O	1.323206	0.922712	0.915913
H213	H	0.640804	0.174508	0.152507
H214	H	0.890804	0.424508	0.402507
H215	H	1.140804	0.674508	0.652507
H216	H	1.390804	0.924508	0.902507
H217	H	1.075389	0.307724	0.583534
H218	H	1.325389	0.557724	0.833534
H219	H	1.575389	0.807724	1.083534
H220	H	1.825389	1.057724	1.333534
