data_functionalizedCrystal
_audit_creation_method	'MofGen! by Chris Wilmer'
_symmetry_space_group_name_H-M	'P1'
_symmetry_Int_Tables_number	1
_symmetry_cell_setting	triclinic
loop_
_symmetry_equiv_pos_as_xyz
  x,y,z
_cell_length_a	10.654556
_cell_length_b	10.654550
_cell_length_c	9.730223
_cell_angle_alpha	89.998521
_cell_angle_beta	89.998368
_cell_angle_gamma	84.486233
loop_
_atom_site_label
_atom_site_type_symbol
_atom_site_fract_x
_atom_site_fract_y
_atom_site_fract_z
O1	O	1.667834	0.176437	-0.114228
O2	O	1.302357	0.193234	-0.114241
O3	O	1.493499	0.002097	-0.114236
O4	O	1.476693	0.367575	-0.114234
O5	O	1.493486	0.002091	0.114344
O6	O	1.302345	0.193229	0.114339
O7	O	1.667822	0.176431	0.114352
Zn8	Zn	1.485081	0.184829	0.150637
Zn9	Zn	1.485098	0.184836	-0.150527
O10	O	1.476680	0.367569	0.114346
C11	C	1.255553	0.191997	0.000047
C12	C	1.116110	0.188302	0.000041
C13	C	0.919571	0.183102	-0.124547
C14	C	1.050594	0.186566	-0.124556
C15	C	1.050599	0.186560	0.124655
C16	C	0.919580	0.183087	0.124662
C17	C	1.492258	-0.044704	0.000051
C18	C	1.488567	-0.184147	0.000042
C19	C	1.714626	0.177669	0.000061
C20	C	1.854069	0.181364	0.000057
C21	C	1.483357	-0.380685	-0.124547
C22	C	1.486838	-0.249665	-0.124555
C23	C	1.486826	-0.249659	0.124655
C24	C	1.483353	-0.380678	0.124662
C25	C	1.477920	0.414370	0.000056
C26	C	1.481612	0.553813	0.000057
N27	N	1.485079	0.184824	0.356173
N28	N	1.485109	0.184832	-0.356063
C29	C	1.569746	0.100224	0.428102
C30	C	1.569759	0.100225	0.571985
C31	C	1.400434	0.269436	0.571998
C32	C	1.400416	0.269428	0.428118
H33	H	1.103920	0.187979	-0.226021
Cl34	Cl	1.132963	0.188740	0.281292
H35	H	1.638700	0.031334	0.630545
H36	H	0.866247	0.181671	0.226136
H37	H	1.481938	-0.434019	-0.226009
Cl38	Cl	1.489006	-0.167294	0.281292
Cl39	Cl	0.837220	0.180929	-0.281193
Cl40	Cl	1.489035	-0.167326	-0.281208
Cl41	Cl	1.481168	-0.463030	0.281320
H42	H	1.638682	0.031332	0.369528
Cl43	Cl	1.294010	0.375796	0.662449
H44	H	1.331464	0.338320	0.369550
