data_functionalizedCrystal
_audit_creation_method	'MofGen! by Chris Wilmer'
_symmetry_space_group_name_H-M	'P1'
_symmetry_Int_Tables_number	1
_symmetry_cell_setting	triclinic
loop_
_symmetry_equiv_pos_as_xyz
  x,y,z
_cell_length_a	8.559649
_cell_length_b	23.532407
_cell_length_c	7.681481
_cell_angle_alpha	84.289450
_cell_angle_beta	94.913240
_cell_angle_gamma	76.313671
loop_
_atom_site_label
_atom_site_type_symbol
_atom_site_fract_x
_atom_site_fract_y
_atom_site_fract_z
O1	O	2.105234	-0.013278	-0.146397
O2	O	1.639561	0.016154	-0.146414
O3	O	1.886443	-0.082081	-0.146373
O4	O	1.858352	0.084957	-0.146438
O5	O	1.916831	-0.094196	0.146490
O6	O	1.669949	0.004039	0.146449
O7	O	2.135622	-0.025394	0.146466
Zn8	Zn	1.907610	-0.012601	0.192956
Zn9	Zn	1.867573	0.003362	-0.192904
O10	O	1.888739	0.072842	0.146425
C11	C	1.595190	0.012327	0.000016
C12	C	1.417704	0.018967	0.000010
C13	C	1.900922	-0.109325	0.000063
C14	C	1.898774	-0.172453	0.000077
C15	C	2.031375	-0.577085	-0.000015
C16	C	2.029376	-0.636401	-0.000028
O17	O	2.152301	-0.678272	-0.000089
N18	N	1.882607	-0.652904	-0.000032
C19	C	1.737825	-0.610085	-0.000041
O20	O	1.612803	-0.629568	-0.000048
C21	C	1.739824	-0.550770	-0.000040
C22	C	1.886605	-0.534272	-0.000018
C23	C	2.178143	-0.560586	0.000005
C24	C	2.180142	-0.501274	0.000022
C25	C	2.035372	-0.458460	0.000019
C26	C	1.888603	-0.474960	-0.000002
C27	C	1.595043	-0.507952	-0.000062
C28	C	1.597055	-0.448633	-0.000062
C29	C	1.743835	-0.432135	-0.000040
C30	C	1.745832	-0.372834	0.000012
N31	N	1.892601	-0.356332	0.000016
C32	C	2.037371	-0.399145	0.000019
C33	C	1.733637	-0.734653	-0.000046
C34	C	1.731638	-0.793968	-0.000034
C35	C	2.023189	-0.820279	-0.000025
C36	C	2.025188	-0.760964	-0.000024
C37	C	1.880407	-0.718150	-0.000042
C38	C	2.041557	-0.274584	0.000056
C39	C	2.043544	-0.215266	0.000080
C40	C	1.751992	-0.188959	0.000061
C41	C	1.750006	-0.248272	0.000046
C42	C	1.894801	-0.291084	0.000038
O43	O	1.622970	-0.330931	0.000065
O44	O	2.162370	-0.379651	0.000003
C45	C	2.179993	-0.021566	0.000033
C46	C	2.357478	-0.028205	0.000026
C47	C	1.874260	0.100086	-0.000015
C48	C	1.876408	0.163214	-0.000040
N49	N	1.934946	-0.023496	0.456295
N50	N	1.840250	0.014252	-0.456243
H51	H	2.163075	-0.201838	0.000103
C52	C	1.347786	0.104579	0.150515
C53	C	1.304014	0.080350	-0.000021
H54	H	1.277603	0.142475	0.150485
H55	H	1.339284	0.079689	0.252630
H56	H	1.456150	0.108014	0.150501
H57	H	1.195653	0.076912	-0.000001
H58	H	1.312501	0.105246	-0.102163
H59	H	1.475518	-0.521372	-0.000090
H60	H	2.159463	-0.309436	0.000042
C61	C	1.582347	-0.658918	0.150509
C62	C	1.574484	-0.687593	-0.000039
H63	H	1.484096	-0.629865	0.150502
H64	H	1.598226	-0.686834	0.252616
H65	H	1.670040	-0.640599	0.150492
H66	H	1.486798	-0.705915	-0.000016
H67	H	1.558586	-0.659672	-0.102172
H68	H	1.743585	0.052781	0.468544
H69	H	2.031629	-0.062024	0.531517
H70	H	2.299665	-0.487847	0.000033
H71	H	1.630490	-0.261707	0.000077
C72	C	2.311590	-0.840345	-0.000020
C73	C	2.182327	-0.867347	-0.000033
H74	H	2.409828	-0.869405	-0.000014
H75	H	2.295716	-0.812434	-0.102137
H76	H	2.316905	-0.820893	0.102119
H77	H	2.177005	-0.886796	-0.102180
H78	H	2.198206	-0.895269	0.102094
H79	H	1.441697	-0.073670	0.000035
C80	C	2.329466	-0.636316	-0.150538
C81	C	2.337297	-0.607640	0.000010
H82	H	2.427735	-0.665360	-0.150528
H83	H	2.241801	-0.654641	-0.150533
H84	H	2.313578	-0.608395	-0.252656
H85	H	2.353173	-0.635561	0.102128
H86	H	2.424988	-0.589315	0.000021
H87	H	2.144710	-0.747536	-0.000007
H88	H	1.612118	-0.807395	-0.000022
C89	C	1.333540	-0.401711	-0.150636
C90	C	1.437901	-0.401573	-0.000077
H91	H	1.235284	-0.372661	-0.150634
H92	H	1.383171	-0.393161	-0.252736
H93	H	1.311367	-0.439402	-0.150628
H94	H	1.460083	-0.363883	-0.000092
H95	H	1.388260	-0.410119	0.102048
C96	C	1.569521	-0.100751	-0.150508
C97	C	1.592865	-0.141891	0.000045
H98	H	1.471276	-0.071694	-0.150529
H99	H	1.657221	-0.082443	-0.150476
H100	H	1.564209	-0.120216	-0.252622
H101	H	1.598188	-0.122427	0.102160
H102	H	1.505142	-0.160200	0.000030
