data_functionalizedCrystal
_audit_creation_method	'MofGen! by Chris Wilmer'
_symmetry_space_group_name_H-M	'P1'
_symmetry_Int_Tables_number	1
_symmetry_cell_setting	triclinic
loop_
_symmetry_equiv_pos_as_xyz
  x,y,z
_cell_length_a	19.805407
_cell_length_b	12.759400
_cell_length_c	19.805399
_cell_angle_alpha	89.977881
_cell_angle_beta	89.980427
_cell_angle_gamma	90.013166
loop_
_atom_site_label
_atom_site_type_symbol
_atom_site_fract_x
_atom_site_fract_y
_atom_site_fract_z
Zn1	Zn	1.034798	-0.418291	-0.382745
Zn2	Zn	1.034739	-0.593984	-0.269568
Zn3	Zn	0.921613	-0.418320	-0.269570
Zn4	Zn	0.921602	-0.593928	-0.382715
O5	O	0.978188	-0.506131	-0.326149
O6	O	1.129507	-0.441608	-0.367744
O7	O	1.019712	-0.570717	-0.174852
O8	O	0.936656	-0.271295	-0.284597
O9	O	1.129463	-0.570689	-0.284593
O10	O	1.019813	-0.271273	-0.367746
O11	O	0.936599	-0.441657	-0.174853
O12	O	0.826895	-0.441603	-0.284567
O13	O	0.936638	-0.570594	-0.477435
O14	O	0.826887	-0.570622	-0.367694
O15	O	1.019803	-0.441554	-0.477458
O16	O	1.019702	-0.740998	-0.284563
O17	O	0.936581	-0.740957	-0.367692
C18	C	0.802332	-0.506110	-0.326128
C19	C	0.727100	-0.506127	-0.326134
C20	C	0.691770	-0.573408	-0.369348
C21	C	0.621081	-0.573410	-0.369358
C22	C	0.585724	-0.506135	-0.326149
C23	C	0.621060	-0.438847	-0.282933
C24	C	0.691747	-0.438840	-0.282928
C25	C	0.335986	-0.438870	-0.282956
C26	C	0.265294	-0.438884	-0.282963
C27	C	0.265321	-0.573440	-0.369386
C28	C	0.336008	-0.573433	-0.369380
C29	C	0.371337	-0.506141	-0.326167
C30	C	0.447985	-0.506139	-0.326158
C31	C	0.509077	-0.506142	-0.326154
C32	C	0.978152	-0.779098	-0.326139
C33	C	0.978199	-0.895875	-0.326157
C34	C	1.021477	-0.950646	-0.369488
C35	C	1.021509	-1.060370	-0.369505
C36	C	0.934982	-1.060542	-0.282853
C37	C	0.934948	-0.950820	-0.282840
C38	C	1.064729	-0.895701	-0.412805
C39	C	1.108011	-0.950472	-0.456139
C40	C	1.108042	-1.060196	-0.456156
C41	C	1.064792	-1.115149	-0.412838
C42	C	1.154731	-0.506152	-0.326172
C43	C	1.229963	-0.506160	-0.326181
C44	C	0.978226	-0.506064	-0.502692
C45	C	0.978242	-0.506036	-0.577924
C46	C	0.978242	-0.232097	-0.326175
C47	C	0.978265	-0.115321	-0.326186
C48	C	1.021547	-0.438842	-0.613281
C49	C	1.021554	-0.438811	-0.683970
C50	C	0.978259	-0.505981	-0.719300
C51	C	0.934949	-0.573179	-0.683938
C52	C	0.934940	-0.573203	-0.613251
C53	C	0.934988	-0.573081	-0.969011
C54	C	0.935002	-0.573054	-1.039704
C55	C	1.021602	-0.438689	-1.039730
C56	C	1.021592	-0.438713	-0.969043
C57	C	0.978280	-0.505906	-0.933687
C58	C	0.978272	-0.505937	-0.857039
C59	C	0.978270	-0.505957	-0.795947
C60	C	0.978189	-0.506121	-0.150293
C61	C	0.978304	-0.505853	-0.075062
H62	H	0.236509	-0.384094	-0.247778
H63	H	0.592318	-0.628198	-0.404547
C64	C	0.444378	-0.633167	-0.407746
C65	C	0.374872	-0.647380	-0.416878
H66	H	0.468369	-0.678822	-0.437069
H67	H	0.455968	-0.562602	-0.417726
H68	H	0.455935	-0.648455	-0.362250
H69	H	0.363314	-0.632085	-0.462373
H70	H	0.363277	-0.717961	-0.406902
H71	H	0.720552	-0.628195	-0.404532
H72	H	0.899770	-1.105293	-0.247585
C73	C	1.082123	-1.272379	-0.348495
C74	C	1.064823	-1.235760	-0.412860
H75	H	1.082139	-1.346837	-0.348510
H76	H	1.125797	-1.247527	-0.336835
H77	H	1.050156	-1.247618	-0.316492
H78	H	1.096793	-1.260515	-0.444864
H79	H	1.021142	-1.260622	-0.424529
H80	H	1.143279	-1.104788	-0.491446
C81	C	0.843874	-0.827536	-0.273346
C82	C	0.887377	-0.890604	-0.235211
H83	H	0.814501	-0.790366	-0.243943
H84	H	0.869626	-0.779119	-0.299139
H85	H	0.817982	-0.870357	-0.302813
H86	H	0.913272	-0.847782	-0.205747
H87	H	0.861622	-0.939026	-0.209407
C88	C	1.054583	-0.260819	-0.947312
C89	C	1.069180	-0.364868	-0.930213
H90	H	1.083959	-0.215226	-0.923339
H91	H	1.060788	-0.251202	-0.994466
H92	H	1.009105	-0.245461	-0.935716
H93	H	1.114657	-0.380228	-0.941814
H94	H	1.062981	-0.374490	-0.883049
H95	H	1.056818	-0.384097	-0.712754
C96	C	0.771210	-0.424055	-0.191897
C97	C	0.730589	-0.364888	-0.235425
H98	H	0.795192	-0.378395	-0.162575
H99	H	0.743619	-0.469768	-0.165958
H100	H	0.802378	-0.464118	-0.217639
H101	H	0.699418	-0.324831	-0.209683
H102	H	0.758183	-0.319158	-0.261366
H103	H	1.056866	-0.383973	-1.068526
C104	C	0.849382	-0.705863	-1.032581
C105	C	0.887404	-0.646884	-1.078540
H106	H	0.819996	-0.751435	-1.056559
H107	H	0.878854	-0.746070	-1.005012
H108	H	0.823500	-0.660080	-1.005009
H109	H	0.913290	-0.692668	-1.106109
H110	H	0.857927	-0.606675	-1.106120
H111	H	1.056805	-0.384147	-0.584520
H112	H	0.592267	-0.384066	-0.247755
H113	H	0.899731	-0.627809	-0.940233
C114	C	0.896514	-0.632810	-0.792283
C115	C	0.887358	-0.647014	-0.722772
H116	H	0.867135	-0.678401	-0.816255
H117	H	0.886623	-0.562223	-0.803870
H118	H	0.941991	-0.648190	-0.803867
H119	H	0.841881	-0.631626	-0.711187
H120	H	0.897244	-0.717618	-0.711180
H121	H	0.364743	-0.384085	-0.247764
C122	C	0.156973	-0.633198	-0.407784
C123	C	0.226485	-0.647400	-0.416895
H124	H	0.133001	-0.678854	-0.437116
H125	H	0.145369	-0.648483	-0.362297
H126	H	0.145409	-0.562626	-0.417771
H127	H	0.238050	-0.717970	-0.406903
H128	H	0.238094	-0.632122	-0.462393
C129	C	1.047395	-0.738482	-0.477158
C130	C	1.064692	-0.775091	-0.412790
H131	H	1.047368	-0.664023	-0.477145
H132	H	1.079361	-0.763235	-0.509156
H133	H	1.003717	-0.763346	-0.488821
H134	H	1.108372	-0.750233	-0.401129
H135	H	1.032724	-0.750327	-0.380783
C136	C	1.140899	-0.916540	-0.570777
C137	C	1.155544	-0.890069	-0.503757
H138	H	1.170241	-0.879244	-0.600175
H139	H	1.147115	-0.989715	-0.576984
H140	H	1.095408	-0.898593	-0.580627
H141	H	1.201033	-0.908023	-0.493905
H142	H	1.149333	-0.816877	-0.497547
H143	H	0.899670	-0.627909	-0.584464
