data_functionalizedCrystal
_audit_creation_method	'MofGen! by Chris Wilmer'
_symmetry_space_group_name_H-M	'P1'
_symmetry_Int_Tables_number	1
_symmetry_cell_setting	triclinic
loop_
_symmetry_equiv_pos_as_xyz
  x,y,z
_cell_length_a	19.188930
_cell_length_b	17.038272
_cell_length_c	16.098538
_cell_angle_alpha	92.920305
_cell_angle_beta	87.256730
_cell_angle_gamma	87.128168
loop_
_atom_site_label
_atom_site_type_symbol
_atom_site_fract_x
_atom_site_fract_y
_atom_site_fract_z
O1	O	0.935137	0.094073	-0.069527
O2	O	0.732640	0.107214	-0.069471
O3	O	0.832685	-0.013168	-0.069492
O4	O	0.835092	0.214455	-0.069506
O5	O	0.826839	-0.006163	0.069022
O6	O	0.726794	0.114218	0.069043
O7	O	0.929291	0.101078	0.068987
Zn8	Zn	0.827115	0.108760	0.091007
Zn9	Zn	0.834817	0.099531	-0.091491
O10	O	0.829247	0.221459	0.069008
C11	C	0.827573	-0.038787	-0.000235
C12	C	0.821041	-0.125559	-0.000233
C13	C	0.703679	0.110291	-0.000206
C14	C	0.626094	0.109015	-0.000184
C15	C	0.881008	-0.175862	-0.000249
C16	C	0.874867	-0.257393	-0.000255
C17	C	0.808758	-0.288621	-0.000239
C18	C	0.748787	-0.238312	-0.000226
C19	C	0.754929	-0.156782	-0.000226
C20	C	0.787061	-0.534311	-0.000245
C21	C	0.780923	-0.615847	-0.000242
C22	C	0.907005	-0.634923	-0.000273
C23	C	0.913140	-0.553391	-0.000268
C24	C	0.853169	-0.503089	-0.000259
C25	C	0.802480	-0.371959	-0.000243
C26	C	0.859448	-0.419753	-0.000261
C27	C	0.585559	0.179649	-0.000202
C28	C	0.512661	0.178449	-0.000211
C29	C	0.480302	0.106609	-0.000219
C30	C	0.520846	0.035966	-0.000197
C31	C	0.593742	0.037169	-0.000180
N32	N	0.370901	0.049312	-0.047392
N33	N	0.301653	0.048174	-0.047410
C34	C	0.260670	0.102981	-0.000270
N35	N	0.291552	0.158981	0.046879
N36	N	0.360807	0.160121	0.046894
C37	C	0.401259	0.105297	-0.000238
C38	C	0.141091	0.172319	-0.000296
C39	C	0.068192	0.171116	-0.000300
C40	C	0.076378	0.028631	-0.000295
C41	C	0.149276	0.029836	-0.000282
C42	C	0.181628	0.101683	-0.000287
C43	C	0.958252	0.098001	-0.000280
C44	C	1.035837	0.099276	-0.000307
C45	C	0.834359	0.247078	-0.000251
C46	C	0.840890	0.333850	-0.000258
N47	N	0.821863	0.115058	0.215558
N48	N	0.840073	0.093227	-0.216041
C49	C	0.864344	0.063981	0.259133
C50	C	0.860677	0.068395	0.346323
C51	C	0.814533	0.123889	0.389935
C52	C	0.772047	0.174968	0.346353
C53	C	0.775711	0.170550	0.259165
C54	C	0.801251	0.139889	0.653188
C55	C	0.797592	0.144304	0.740383
C56	C	0.886222	0.037729	0.740346
C57	C	0.889884	0.033320	0.653157
C58	C	0.847396	0.084396	0.609582
C59	C	0.810786	0.128403	0.479057
C60	C	0.851140	0.079878	0.520462
H61	H	0.923699	-0.298347	-0.000266
C62	C	0.729504	0.225880	0.211807
C63	C	0.686392	0.181822	0.161803
C64	C	0.643807	0.232765	0.118174
H65	H	0.757897	0.256645	0.177705
H66	H	0.701458	0.259552	0.250241
H67	H	0.714435	0.148164	0.123374
H68	H	0.657985	0.151060	0.195884
H69	H	0.615761	0.266437	0.156608
H70	H	0.672205	0.263527	0.084077
H71	H	0.614545	0.202879	0.084247
H72	H	0.167433	0.230821	-0.000287
H73	H	0.934841	-0.150443	-0.000257
C74	C	0.747368	0.204457	0.787696
C75	C	0.678910	0.190873	0.766553
C76	C	0.632627	0.246258	0.810132
H77	H	0.758542	0.255924	0.773434
H78	H	0.751230	0.199765	0.845870
H79	H	0.675051	0.195572	0.708392
H80	H	0.667714	0.139417	0.780817
H81	H	0.636488	0.241566	0.868306
H82	H	0.643807	0.297721	0.795866
H83	H	0.586172	0.237045	0.795798
H84	H	0.035188	0.228638	-0.000309
C85	C	0.931184	-0.385750	-0.000407
C86	C	0.941393	-0.343083	-0.071660
C87	C	1.007462	-0.311732	-0.071814
H88	H	0.966090	-0.427303	-0.000457
H89	H	0.934164	-0.351857	0.047870
H90	H	0.938418	-0.376973	-0.119925
H91	H	0.906502	-0.301519	-0.071626
H92	H	1.010443	-0.277839	-0.023537
H93	H	1.042364	-0.353289	-0.071862
H94	H	1.014395	-0.282773	-0.120154
C95	C	0.041354	-0.049432	-0.000432
C96	C	0.064601	-0.095731	-0.071678
C97	C	0.032357	-0.167654	-0.071824
H98	H	-0.007869	-0.040149	-0.000486
H99	H	0.052947	-0.076107	0.047850
H100	H	0.053004	-0.069062	-0.119948
H101	H	0.113820	-0.105036	-0.071639
H102	H	0.043950	-0.194328	-0.023541
H103	H	-0.016865	-0.158363	-0.071875
H104	H	0.048130	-0.199079	-0.120159
H105	H	0.766657	0.181478	0.617717
C106	C	0.485588	-0.041955	-0.000251
C107	C	0.413073	-0.027892	-0.000294
C108	C	0.380572	-0.099656	-0.000351
H109	H	0.497077	-0.068647	0.048044
H110	H	0.501235	-0.073480	-0.048568
H111	H	0.397432	0.003620	0.048018
H112	H	0.401564	-0.001212	-0.048586
H113	H	0.396219	-0.131181	-0.048669
H114	H	0.392067	-0.126343	0.047944
H115	H	0.331368	-0.090125	-0.000389
H116	H	0.895268	0.026803	0.381802
C117	C	0.914465	0.003649	0.211938
C118	C	0.950868	-0.040151	0.268766
C119	C	0.997037	-0.095746	0.225323
H120	H	0.946684	0.029871	0.177900
H121	H	0.888865	-0.030587	0.177964
H122	H	0.976466	-0.005920	0.302725
H123	H	0.918667	-0.066390	0.302805
H124	H	0.971438	-0.129982	0.191349
H125	H	1.029252	-0.069517	0.191287
H126	H	1.021738	-0.125476	0.263874
H127	H	0.734472	0.220150	0.381867
H128	H	0.706097	-0.115826	-0.000213
H129	H	0.927459	-0.011868	0.617649
H130	H	0.920813	-0.003855	0.775833
C131	C	0.677060	-0.272329	-0.000339
C132	C	0.672866	-0.322195	-0.071588
C133	C	0.606804	-0.353551	-0.071712
H134	H	0.642161	-0.230776	-0.000373
H135	H	0.669997	-0.301342	0.047941
H136	H	0.679921	-0.293183	-0.119855
H137	H	0.707750	-0.363761	-0.071568
H138	H	0.599741	-0.382564	-0.023432
H139	H	0.571910	-0.311993	-0.071744
H140	H	0.603952	-0.387394	-0.120049
C141	C	0.901260	0.019549	0.473265
C142	C	0.937673	-0.024252	0.530084
C143	C	0.983844	-0.079838	0.486629
H144	H	0.933472	0.045779	0.439227
H145	H	0.875660	-0.014687	0.439292
H146	H	0.963271	0.009979	0.564043
H147	H	0.905479	-0.050499	0.564124
H148	H	0.958245	-0.114074	0.452656
H149	H	1.016052	-0.053602	0.452592
H150	H	1.008552	-0.109569	0.525174
H151	H	0.748653	-0.397393	-0.000228
C152	C	0.760617	0.188680	0.526260
C153	C	0.724182	0.232459	0.469441
C154	C	0.677951	0.287983	0.512896
H155	H	0.786151	0.222945	0.560259
H156	H	0.728425	0.162376	0.560272
H157	H	0.756369	0.258762	0.435444
H158	H	0.698633	0.198216	0.435440
H159	H	0.645760	0.261679	0.546908
H160	H	0.703491	0.322242	0.546894
H161	H	0.653220	0.317689	0.474352
C162	C	0.984981	-0.519643	-0.000323
C163	C	1.036186	-0.581148	-0.000357
C164	C	1.102373	-0.550090	-0.000413
H165	H	0.988053	-0.485810	0.047968
H166	H	0.992077	-0.490695	-0.048644
H167	H	1.029092	-0.610083	0.047959
H168	H	1.033137	-0.614986	-0.048645
H169	H	1.109470	-0.521142	-0.048733
H170	H	1.105438	-0.516258	0.047880
H171	H	1.137124	-0.591817	-0.000443
C172	C	0.709084	-0.649603	-0.000278
C173	C	0.657878	-0.588104	-0.000296
C174	C	0.591696	-0.619171	-0.000341
H175	H	0.701925	-0.678561	0.048012
H176	H	0.706080	-0.683431	-0.048600
H177	H	0.660880	-0.554290	0.048021
H178	H	0.665013	-0.559141	-0.048582
H179	H	0.588692	-0.652999	-0.048663
H180	H	0.584545	-0.648128	0.047950
H181	H	0.556946	-0.577449	-0.000361
C182	C	0.468764	0.255223	-0.000281
C183	C	0.512700	0.318398	-0.000302
C184	C	0.472290	0.389132	-0.000381
H185	H	0.438089	0.260275	0.047999
H186	H	0.442230	0.255304	-0.048613
H187	H	0.539222	0.318318	0.048026
H188	H	0.543375	0.313372	-0.048578
H189	H	0.445756	0.389213	-0.048713
H190	H	0.441616	0.394176	0.047900
H191	H	0.502094	0.432004	-0.000403
H192	H	0.955830	-0.675887	-0.000282
H193	H	0.182280	-0.027682	-0.000273
H194	H	0.738227	-0.493365	-0.000237
H195	H	0.611896	0.238152	-0.000207
H196	H	0.626746	-0.020352	-0.000166
