data_functionalizedCrystal
_audit_creation_method	'MofGen! by Chris Wilmer'
_symmetry_space_group_name_H-M	'P1'
_symmetry_Int_Tables_number	1
_symmetry_cell_setting	triclinic
loop_
_symmetry_equiv_pos_as_xyz
  x,y,z
_cell_length_a	8.559649
_cell_length_b	19.188930
_cell_length_c	7.088929
_cell_angle_alpha	83.792352
_cell_angle_beta	95.325015
_cell_angle_gamma	76.461723
loop_
_atom_site_label
_atom_site_type_symbol
_atom_site_fract_x
_atom_site_fract_y
_atom_site_fract_z
O1	O	2.103838	-0.015637	-0.158953
O2	O	1.638380	0.020435	-0.158972
O3	O	1.884545	-0.099961	-0.158924
O4	O	1.857673	0.104759	-0.159000
O5	O	1.917443	-0.116083	0.159057
O6	O	1.671278	0.004313	0.159009
O7	O	2.136736	-0.031759	0.159029
Cu8	Cu	1.907011	-0.015195	0.188053
Cu9	Cu	1.868105	0.003871	-0.187997
O10	O	1.890571	0.088637	0.158981
C11	C	1.595280	0.015108	0.000017
C12	C	1.417842	0.023245	0.000011
C13	C	1.900125	-0.133987	0.000072
C14	C	1.897515	-0.211356	0.000088
C15	C	2.041955	-0.263833	0.000103
C16	C	2.039498	-0.336527	0.000073
C17	C	1.892597	-0.356742	0.000065
C18	C	1.748137	-0.304254	0.000039
C19	C	1.750596	-0.231561	0.000050
N20	N	1.791505	-0.464363	0.108275
N21	N	1.789179	-0.533419	0.108268
C22	C	1.885180	-0.575761	0.000026
N23	N	1.983621	-0.546442	-0.108185
N24	N	1.985952	-0.477380	-0.108170
C25	C	1.889915	-0.435564	0.000051
C26	C	2.026966	-0.707062	0.000005
C27	C	2.024502	-0.779756	-0.000037
C28	C	1.733139	-0.747483	-0.000052
C29	C	1.735605	-0.674789	-0.000028
C30	C	1.882524	-0.654585	0.000009
C31	C	2.179836	-0.026431	0.000036
C32	C	2.357272	-0.034568	0.000029
C33	C	1.874991	0.122664	-0.000019
C34	C	1.877599	0.200034	-0.000048
N35	N	1.934386	-0.028606	0.452547
N36	N	1.840742	0.017276	-0.452490
H37	H	1.333944	0.078971	-0.000020
H38	H	2.161587	-0.247388	0.000127
H39	H	2.146595	-0.690611	0.000027
C40	C	2.196510	-0.393413	0.000194
C41	C	2.325703	-0.360161	0.000271
C42	C	2.470367	-0.412539	0.000410
H43	H	2.190373	-0.416843	-0.110664
H44	H	2.213157	-0.428065	0.111125
H45	H	2.309061	-0.325521	-0.110649
H46	H	2.331893	-0.336734	0.111121
H47	H	2.487014	-0.447192	0.111341
H48	H	2.464213	-0.435967	-0.110450
H49	H	2.558043	-0.389987	0.000480
H50	H	1.441159	-0.090289	0.000040
C51	C	1.593614	-0.174642	-0.000251
C52	C	1.488188	-0.174293	-0.163832
C53	C	1.343553	-0.121875	-0.164158
H54	H	1.615880	-0.128414	-0.000333
H55	H	1.544731	-0.185560	0.110572
H56	H	1.537061	-0.163371	-0.274626
H57	H	1.465875	-0.220508	-0.163784
H58	H	1.294670	-0.132792	-0.053335
H59	H	1.365836	-0.075650	-0.164235
H60	H	1.271998	-0.121635	-0.275136
H61	H	1.628528	-0.320718	0.000029
H62	H	2.142127	-0.822484	-0.000035
H63	H	1.613528	-0.763940	-0.000067
H64	H	1.743691	0.064824	0.465845
C65	C	2.063950	-0.092035	0.561089
C66	C	2.145936	-0.132188	0.430794
C67	C	2.265309	-0.190617	0.530712
H68	H	2.014771	-0.122003	0.639207
H69	H	2.138514	-0.074461	0.639116
H70	H	2.071384	-0.149762	0.352800
H71	H	2.195150	-0.102241	0.352672
H72	H	2.339873	-0.173043	0.608739
H73	H	2.216116	-0.220580	0.608827
H74	H	2.320961	-0.217865	0.442323
C75	C	1.578620	-0.617922	0.000080
C76	C	1.449446	-0.651184	0.000117
C77	C	1.304803	-0.598822	0.000237
H78	H	1.561824	-0.583236	-0.110771
H79	H	1.584916	-0.594533	0.111018
H80	H	1.443148	-0.674562	-0.110810
H81	H	1.466188	-0.685865	0.110959
H82	H	1.311099	-0.575433	0.111175
H83	H	1.288023	-0.564139	-0.110615
H84	H	1.217143	-0.621383	0.000280
