data_functionalizedCrystal
_audit_creation_method	'MofGen! by Chris Wilmer'
_symmetry_space_group_name_H-M	'P1'
_symmetry_Int_Tables_number	1
_symmetry_cell_setting	triclinic
loop_
_symmetry_equiv_pos_as_xyz
  x,y,z
_cell_length_a	6.394989
_cell_length_b	10.654550
_cell_length_c	9.730223
_cell_angle_alpha	90.003749
_cell_angle_beta	89.998443
_cell_angle_gamma	85.491307
loop_
_atom_site_label
_atom_site_type_symbol
_atom_site_fract_x
_atom_site_fract_y
_atom_site_fract_z
O1	O	-0.293432	-1.670942	-0.114394
O2	O	-0.321390	-1.305759	-0.114371
O3	O	-0.003422	-1.493534	-0.114383
O4	O	-0.611400	-1.483167	-0.114381
O5	O	-0.003430	-1.493532	0.114197
O6	O	-0.321398	-1.305757	0.114209
O7	O	-0.293440	-1.670940	0.114186
Zn8	Zn	-0.307420	-1.488348	0.150490
Zn9	Zn	-0.307410	-1.488351	-0.150674
O10	O	-0.611408	-1.483165	0.114199
C11	C	-0.319341	-1.258939	-0.000078
C12	C	-0.313199	-1.119430	-0.000069
C13	C	-0.295489	-1.717760	-0.000109
C14	C	-0.301631	-1.857269	-0.000127
N15	N	-0.307426	-1.488355	0.356026
C16	C	0.074425	-1.491483	-0.000098
C17	C	0.310751	-1.485219	-0.000099
N18	N	-0.307387	-1.488353	-0.356210
C19	C	-0.500414	-1.041927	-0.000089
C20	C	-0.494630	-0.910845	-0.000112
C21	C	-0.114402	-0.934782	-0.000103
C22	C	-0.120188	-1.065861	-0.000070
C23	C	-0.719936	-1.028107	-0.000100
C24	C	-0.714152	-0.897025	-0.000124
C25	C	-0.166678	-1.571524	0.427947
C26	C	-0.166653	-1.571521	0.571830
C27	C	-0.448142	-1.405175	0.571859
C28	C	-0.448156	-1.405174	0.427979
C29	C	-0.004169	-1.667567	0.427931
C30	C	-0.004143	-1.667563	0.571814
H31	H	0.032261	-1.128960	-0.000034
O32	O	-0.822328	-1.063985	0.114126
C33	C	-1.003326	-0.997645	0.322127
C34	C	-0.887377	-0.956843	0.192844
H35	H	-1.055989	-0.911042	0.385791
H36	H	-0.893649	-1.063948	0.386022
H37	H	-1.146320	-1.048161	0.290218
H38	H	-0.744387	-0.906276	0.224629
H39	H	-0.997196	-0.890599	0.128980
H40	H	0.156414	-1.644423	0.388878
H41	H	0.147607	-1.635443	0.616431
H42	H	0.042742	-0.891149	-0.000125
H43	H	-0.796862	-0.856169	-0.095791
O44	O	-0.046950	-1.783205	0.618175
C45	C	-0.124684	-1.993960	0.558091
C46	C	-0.076286	-1.863053	0.505401
H47	H	-0.148372	-2.058561	0.466940
H48	H	-0.273374	-1.984918	0.623147
H49	H	0.012026	-2.035338	0.623210
H50	H	-0.212866	-1.821600	0.440225
H51	H	0.072475	-1.872175	0.440419
H52	H	-0.780498	-0.852055	0.098561
O53	O	-0.803205	-1.071755	-0.117760
C54	C	-0.898854	-1.253137	-0.244136
C55	C	-0.804472	-1.203877	-0.110831
H56	H	-0.899951	-1.359960	-0.238566
H57	H	-0.800358	-1.226414	-0.335694
H58	H	-1.066282	-1.209481	-0.256798
H59	H	-0.637061	-1.247508	-0.098037
H60	H	-0.903122	-1.230585	-0.019341
O61	O	-0.585160	-1.324504	0.358181
C62	C	-0.947301	-1.256558	0.314264
C63	C	-0.792370	-1.348016	0.393366
H64	H	-1.114863	-1.275518	0.342703
H65	H	-0.923332	-1.270837	0.199051
H66	H	-0.918384	-1.155539	0.342549
H67	H	-0.821193	-1.449070	0.365196
H68	H	-0.816375	-1.333627	0.508560
O69	O	-0.584632	-1.324204	0.641697
C70	C	-0.703731	-1.107729	0.685677
C71	C	-0.549003	-1.199290	0.606528
H72	H	-0.675008	-1.006718	0.657250
H73	H	-0.679539	-1.121903	0.800883
H74	H	-0.871314	-1.126798	0.657419
H75	H	-0.381358	-1.180277	0.634670
H76	H	-0.573377	-1.185096	0.491342
H77	H	-0.055053	-1.759289	0.383299
