data_functionalizedCrystal
_audit_creation_method	'MofGen! by Chris Wilmer'
_symmetry_space_group_name_H-M	'P1'
_symmetry_Int_Tables_number	1
_symmetry_cell_setting	triclinic
loop_
_symmetry_equiv_pos_as_xyz
  x,y,z
_cell_length_a	19.288840
_cell_length_b	12.811415
_cell_length_c	18.366186
_cell_angle_alpha	84.562925
_cell_angle_beta	89.983729
_cell_angle_gamma	83.586086
loop_
_atom_site_label
_atom_site_type_symbol
_atom_site_fract_x
_atom_site_fract_y
_atom_site_fract_z
O1	O	0.922014	0.130809	-0.069307
O2	O	0.719838	0.148499	-0.070450
O3	O	0.826011	-0.013164	-0.059786
O4	O	0.815841	0.292471	-0.079972
O5	O	0.825993	-0.013172	0.061314
O6	O	0.719820	0.148491	0.050650
O7	O	0.921996	0.130801	0.051793
Zn8	Zn	0.820905	0.139645	0.070448
Zn9	Zn	0.820929	0.139655	-0.089106
O10	O	0.815823	0.292463	0.041128
C11	C	0.693950	0.147930	-0.009860
C12	C	0.616837	0.146234	-0.009738
C13	C	0.580639	0.145424	-0.075697
C14	C	0.508184	0.143819	-0.075600
C15	C	0.471932	0.143004	-0.009539
C16	C	0.508138	0.143820	0.056429
C17	C	0.580590	0.145435	0.056330
C18	C	0.362278	0.078964	0.045252
C19	C	0.289828	0.077342	0.045350
C20	C	0.248463	0.138026	-0.009229
C21	C	0.279560	0.200319	-0.063916
C22	C	0.352012	0.201934	-0.064016
C23	C	0.393369	0.141253	-0.009423
C24	C	0.133702	0.135477	-0.075088
C25	C	0.061245	0.133879	-0.074988
C26	C	0.061200	0.133869	0.057044
C27	C	0.133655	0.135478	0.056942
C28	C	0.169902	0.136277	-0.009126
C29	C	0.825432	-0.052269	0.003346
C30	C	0.823724	-0.168780	0.011037
C31	C	0.820522	-0.387694	-0.106549
C32	C	0.818917	-0.497166	-0.099326
C33	C	0.818905	-0.497196	0.032706
C34	C	0.820510	-0.387724	0.025482
C35	C	0.821319	-0.332977	-0.044147
C36	C	0.822929	-0.223505	-0.051369
C37	C	0.822911	-0.223535	0.080661
C38	C	0.821307	-0.333007	0.087884
C39	C	0.947884	0.131369	-0.008800
C40	C	1.024997	0.133065	-0.008926
C41	C	0.816402	0.331569	-0.022005
C42	C	0.818110	0.448079	-0.029701
N43	N	0.820894	0.139637	0.179340
N44	N	0.820946	0.139654	-0.197997
C45	C	0.867923	0.068088	0.222160
C46	C	0.867927	0.068083	0.298389
C47	C	0.820909	0.139645	0.331792
C48	C	0.773871	0.211200	0.288962
C49	C	0.773864	0.211196	0.212736
C50	C	0.812086	0.235280	0.446237
C51	C	0.812099	0.235286	0.522461
C52	C	0.820929	0.139659	0.566899
C53	C	0.829762	0.044021	0.535103
C54	C	0.829754	0.044017	0.458877
C55	C	0.820912	0.139658	0.414446
C56	C	0.867965	0.068098	0.692375
C57	C	0.867965	0.068092	0.768605
C58	C	0.773912	0.211219	0.759176
C59	C	0.773910	0.211216	0.682949
C60	C	0.820940	0.139657	0.649553
H61	H	0.264515	0.026614	0.089876
Cl62	Cl	0.927041	-0.021875	0.180177
Cl63	Cl	0.015738	0.132869	-0.157918
Cl64	Cl	0.015632	0.132854	0.140094
Cl65	Cl	0.714788	0.301173	0.629112
Cl66	Cl	0.823921	-0.154743	0.159114
H67	H	0.820645	-0.377596	0.144574
H68	H	0.735566	0.269461	0.177871
Cl69	Cl	0.179164	0.136490	0.139868
H70	H	0.610147	0.146075	-0.129495
Cl71	Cl	0.714760	0.301161	0.330954
H72	H	0.821187	-0.343120	-0.163244
H73	H	0.823590	-0.178932	-0.108065
Cl74	Cl	0.227567	0.276618	-0.132532
H75	H	0.377328	0.252657	-0.108542
Cl76	Cl	0.817913	-0.565950	-0.177777
H77	H	0.906225	0.009817	0.333259
Cl78	Cl	0.840849	-0.076206	0.418906
H79	H	0.478706	0.143161	-0.129314
H80	H	0.818240	-0.541788	0.089394
Cl81	Cl	0.179271	0.136492	-0.158143
Cl82	Cl	0.801000	0.355514	0.562426
Cl83	Cl	0.462563	0.142801	0.139478
Cl84	Cl	0.840869	-0.076205	0.590959
H85	H	0.735627	0.269482	0.786373
Cl86	Cl	0.414272	0.002669	0.113873
Cl87	Cl	0.626098	0.146453	0.139258
Cl88	Cl	0.927085	-0.021866	0.650390
Cl89	Cl	0.927088	-0.021869	0.822440
Cl90	Cl	0.801049	0.355512	0.390380
