data_functionalizedCrystal
_audit_creation_method	'MofGen! by Chris Wilmer'
_symmetry_space_group_name_H-M	'P1'
_symmetry_Int_Tables_number	1
_symmetry_cell_setting	triclinic
loop_
_symmetry_equiv_pos_as_xyz
  x,y,z
_cell_length_a	11.792241
_cell_length_b	9.065218
_cell_length_c	7.540329
_cell_angle_alpha	89.998628
_cell_angle_beta	89.997406
_cell_angle_gamma	95.395350
loop_
_atom_site_label
_atom_site_type_symbol
_atom_site_fract_x
_atom_site_fract_y
_atom_site_fract_z
O1	O	1.508026	-0.202221	0.147302
O2	O	1.177800	-0.223062	0.147343
O3	O	1.349739	0.002065	0.147318
O4	O	1.336087	-0.427348	0.147327
O5	O	1.349733	0.002066	-0.147647
O6	O	1.177794	-0.223061	-0.147622
O7	O	1.508020	-0.202219	-0.147663
Cu8	Cu	1.342906	-0.212640	-0.174575
Cu9	Cu	1.342914	-0.212642	0.174255
O10	O	1.336081	-0.427346	-0.147638
C11	C	1.348424	0.057040	-0.000161
C12	C	1.344501	0.220846	-0.000152
C13	C	1.135499	-0.221752	-0.000134
C14	C	1.009464	-0.217834	-0.000119
N15	N	1.342910	-0.212638	-0.419923
C16	C	0.778711	-0.210629	-0.000170
C17	C	0.907119	-0.214632	-0.000142
C18	C	1.550321	-0.203529	-0.000181
C19	C	1.676356	-0.207448	-0.000185
C20	C	1.337396	-0.482322	-0.000154
C21	C	1.341319	-0.646128	-0.000152
N22	N	1.342919	-0.212633	0.419604
