data_functionalizedCrystal
_audit_creation_method	'MofGen! by Chris Wilmer'
_symmetry_space_group_name_H-M	'P1'
_symmetry_Int_Tables_number	1
_symmetry_cell_setting	triclinic
loop_
_symmetry_equiv_pos_as_xyz
  x,y,z
_cell_length_a	12.759401
_cell_length_b	16.625546
_cell_length_c	16.625539
_cell_angle_alpha	89.971468
_cell_angle_beta	89.986116
_cell_angle_gamma	90.022629
loop_
_atom_site_label
_atom_site_type_symbol
_atom_site_fract_x
_atom_site_fract_y
_atom_site_fract_z
Zn1	Zn	1.606151	-0.321012	-0.455829
Zn2	Zn	1.606035	-0.455850	-0.320992
Zn3	Zn	1.430467	-0.321036	-0.321017
Zn4	Zn	1.430418	-0.455806	-0.455789
O5	O	1.518268	-0.388426	-0.388407
O6	O	1.753157	-0.338907	-0.437949
O7	O	1.582718	-0.437995	-0.208163
O8	O	1.453841	-0.208200	-0.338928
O9	O	1.753072	-0.437972	-0.338884
O10	O	1.582915	-0.208182	-0.437974
O11	O	1.453729	-0.338948	-0.208182
O12	O	1.283439	-0.338905	-0.338889
O13	O	1.453757	-0.437897	-0.568627
O14	O	1.283403	-0.437920	-0.437905
O15	O	1.582867	-0.338864	-0.568656
O16	O	1.582670	-0.568677	-0.338845
O17	O	1.453645	-0.568645	-0.437880
C18	C	1.245300	-0.388411	-0.388396
C19	C	1.128524	-0.388424	-0.388410
C20	C	1.073670	-0.440064	-0.439883
C21	C	0.963946	-0.440074	-0.439892
C22	C	0.963939	-0.336803	-0.336949
C23	C	1.073661	-0.336789	-0.336944
C24	C	1.073674	-0.499690	-0.499314
C25	C	0.963950	-0.499700	-0.499322
C26	C	1.518168	-0.597917	-0.388373
C27	C	1.518222	-0.687538	-0.388386
C28	C	1.518405	-1.015714	-0.388470
C29	C	1.518351	-0.924405	-0.388448
C30	C	1.518313	-0.851629	-0.388427
C31	C	1.518260	-0.760314	-0.388407
C32	C	1.792301	-0.388441	-0.388418
C33	C	1.909078	-0.388448	-0.388423
C34	C	1.518319	-0.388373	-0.598716
C35	C	1.518341	-0.388350	-0.688337
C36	C	1.518396	-0.178117	-0.388458
C37	C	1.518451	-0.088496	-0.388480
C38	C	1.518358	-0.388332	-0.761120
C39	C	1.518383	-0.388302	-0.852428
C40	C	1.518408	-0.388274	-0.925205
C41	C	1.518434	-0.388245	-1.016519
C42	C	1.518277	-0.388421	-0.178916
C43	C	1.518458	-0.388216	-0.089295
H44	H	0.934145	-0.562130	-0.482485
H45	H	0.919256	-0.294762	-0.295048
N46	N	1.132827	-0.281071	-0.281449
H47	H	1.081419	-0.248362	-0.248851
H48	H	1.178336	-0.313821	-0.244066
H49	H	1.103478	-0.483045	-0.561791
N50	N	1.118732	-0.578213	-0.469535
H51	H	1.059800	-0.616164	-0.455151
H52	H	1.163319	-0.603037	-0.513147
N53	N	0.918899	-0.470115	-0.577927
H54	H	0.977835	-0.455825	-0.615907
H55	H	0.874288	-0.513774	-0.602659
