data_functionalizedCrystal
_audit_creation_method	'MofGen! by Chris Wilmer'
_symmetry_space_group_name_H-M	'P1'
_symmetry_Int_Tables_number	1
_symmetry_cell_setting	triclinic
loop_
_symmetry_equiv_pos_as_xyz
  x,y,z
_cell_length_a	10.489711
_cell_length_b	15.944551
_cell_length_c	8.965430
_cell_angle_alpha	89.999468
_cell_angle_beta	89.994616
_cell_angle_gamma	84.012873
loop_
_atom_site_label
_atom_site_type_symbol
_atom_site_fract_x
_atom_site_fract_y
_atom_site_fract_z
O1	O	1.692434	0.118382	-0.124097
O2	O	1.321079	0.129531	-0.124088
O3	O	1.516898	0.001742	-0.124079
O4	O	1.496616	0.246171	-0.124106
O5	O	1.516881	0.001750	0.123999
O6	O	1.321063	0.129540	0.123991
O7	O	1.692418	0.118390	0.123982
Cu8	Cu	1.506739	0.123966	0.146638
Cu9	Cu	1.506758	0.123956	-0.146744
O10	O	1.496599	0.246179	0.123973
C11	C	1.273550	0.128699	-0.000048
C12	C	1.131954	0.126195	-0.000044
C13	C	0.948502	0.203044	-0.000069
C14	C	1.041188	0.164653	-0.122379
C15	C	1.041145	0.164640	0.122208
C16	C	0.972364	0.083301	-0.122486
C17	C	0.972312	0.083300	0.122210
C18	C	1.064971	0.044850	-0.000129
C19	C	1.516047	-0.029553	-0.000040
C20	C	1.513523	-0.122814	-0.000039
C21	C	1.386112	-0.338428	-0.000056
C22	C	1.445269	-0.399089	0.122260
C23	C	1.508956	-0.293567	-0.000050
C24	C	1.445315	-0.399081	-0.122326
C25	C	1.504536	-0.458506	-0.000068
C26	C	1.568147	-0.353000	0.122367
C27	C	1.568176	-0.352985	-0.122329
C28	C	1.627422	-0.413629	0.000018
C29	C	1.511499	-0.198550	-0.000039
C30	C	1.502003	-0.553522	-0.000068
C31	C	1.739947	0.119223	-0.000062
C32	C	1.881543	0.121726	-0.000075
C33	C	1.497450	0.277474	-0.000070
C34	C	1.499974	0.370735	-0.000081
N35	N	1.506734	0.123972	0.352987
N36	N	1.506773	0.123942	-0.353093
C37	C	1.416147	0.183051	0.450289
C38	C	1.531410	0.200039	0.549698
C39	C	1.391520	0.106992	0.549705
C40	C	1.622055	0.140998	0.450207
C41	C	1.482090	0.047918	0.450206
C42	C	1.597436	0.064874	0.549570
H43	H	0.897885	0.269881	-0.000198
H44	H	1.294070	0.092643	0.593414
Br45	Br	1.091943	0.222017	0.294549
H46	H	1.461183	-0.016367	0.406470
Br47	Br	1.288580	0.266394	0.377622
H48	H	1.071712	0.199059	-0.225786
H49	H	0.942039	0.048922	-0.226010
H50	H	1.115356	-0.022049	-0.000183
Br51	Br	1.784519	0.165039	0.377681
H52	H	1.393304	-0.419503	0.225671
H53	H	1.552281	0.264344	0.593399
H54	H	1.620055	-0.332698	0.225890
H55	H	0.941759	0.048925	0.225627
H56	H	1.284146	-0.305726	0.000068
Br57	Br	1.797520	-0.467888	0.000118
Br58	Br	1.358689	-0.433090	-0.294665
Br59	Br	1.654718	-0.318923	-0.294698
H60	H	1.674142	0.014898	0.592889
