data_functionalizedCrystal
_audit_creation_method	'MofGen! by Chris Wilmer'
_symmetry_space_group_name_H-M	'P1'
_symmetry_Int_Tables_number	1
_symmetry_cell_setting	triclinic
loop_
_symmetry_equiv_pos_as_xyz
  x,y,z
_cell_length_a	13.897449
_cell_length_b	12.759400
_cell_length_c	12.759393
_cell_angle_alpha	89.968436
_cell_angle_beta	90.020530
_cell_angle_gamma	89.984036
loop_
_atom_site_label
_atom_site_type_symbol
_atom_site_fract_x
_atom_site_fract_y
_atom_site_fract_z
Zn1	Zn	1.474721	0.418168	0.594038
Zn2	Zn	1.474624	0.593887	0.418359
Zn3	Zn	1.313411	0.418227	0.418372
Zn4	Zn	1.313400	0.593810	0.593994
O5	O	1.394039	0.506023	0.506191
O6	O	1.609690	0.441486	0.570747
O7	O	1.453202	0.570642	0.271339
O8	O	1.334854	0.271198	0.441698
O9	O	1.609618	0.570586	0.441676
O10	O	1.453368	0.271155	0.570760
O11	O	1.334760	0.441585	0.271349
O12	O	1.178428	0.441510	0.441655
O13	O	1.334836	0.570454	0.741021
O14	O	1.178420	0.570510	0.570684
O15	O	1.453358	0.441411	0.741054
O16	O	1.453192	0.740898	0.441633
O17	O	1.334742	0.740841	0.570671
C18	C	1.393982	0.778991	0.506169
C19	C	1.394045	0.895767	0.506194
C20	C	1.143425	0.506009	0.506167
C21	C	1.036211	0.506028	0.506181
C22	C	1.394106	0.505917	0.780224
C23	C	1.394135	0.505872	0.897001
C24	C	0.839915	0.506032	0.506209
C25	C	0.949148	0.506027	0.506191
C26	C	1.645632	0.506038	0.506215
C27	C	1.752846	0.506044	0.506226
C28	C	1.394123	0.231990	0.506236
C29	C	1.394158	0.115213	0.506255
C30	C	1.455791	0.950624	0.439078
C31	C	1.455850	1.060348	0.439111
C32	C	1.332410	1.060349	0.573378
C33	C	1.332356	0.950627	0.573350
C34	C	1.527055	0.950624	0.361557
C35	C	1.527114	1.060348	0.361589
C36	C	1.394027	0.506053	0.233223
C37	C	1.394185	0.505802	0.116447
C38	C	1.455858	0.438673	0.951882
C39	C	1.455881	0.438635	1.061606
C40	C	1.332456	0.573004	1.061559
C41	C	1.332429	0.573036	0.951836
C42	C	1.527119	0.361099	0.951910
C43	C	1.527142	0.361061	1.061634
H44	H	1.282087	0.905963	0.628011
C45	C	1.319009	1.183640	0.714720
C46	C	1.264601	1.120657	0.647188
H47	H	1.277143	1.220874	0.760282
H48	H	1.360984	1.140763	0.754933
H49	H	1.355788	1.232011	0.674741
H50	H	1.227827	1.072280	0.687167
H51	H	1.222609	1.163538	0.606971
H52	H	1.598088	1.094291	0.390804
H53	H	1.601850	0.382852	1.091415
C54	C	1.664446	0.849379	0.308980
C55	C	1.627868	0.910305	0.391062
H56	H	1.726684	0.824494	0.327195
H57	H	1.622923	0.791532	0.296824
H58	H	1.668553	0.890800	0.247258
H59	H	1.623755	0.868881	0.452783
H60	H	1.669402	0.968161	0.403232
H61	H	1.598064	0.390266	0.917876
C62	C	1.483753	1.015384	0.185077
C63	C	1.500164	1.100673	0.251736
H64	H	1.467109	1.040281	0.117265
H65	H	1.540417	0.973983	0.180688
H66	H	1.432591	0.974056	0.212067
H67	H	1.551332	1.141997	0.224750
H68	H	1.443493	1.142091	0.256121
C69	C	1.467367	0.188190	1.025890
C70	C	1.491078	0.256695	1.107607
H71	H	1.445108	0.123761	1.054276
H72	H	1.418231	0.218601	0.983983
H73	H	1.522692	0.175736	0.984001
H74	H	1.435751	0.269156	1.149492
H75	H	1.540218	0.226278	1.149531
H76	H	1.507133	0.279735	0.922153
C77	C	1.210412	0.705827	0.962816
C78	C	1.264566	0.646886	0.891510
H79	H	1.168516	0.751421	0.925571
H80	H	1.173557	0.660028	1.005623
H81	H	1.252440	0.746018	1.005601
H82	H	1.222538	0.606689	0.848730
H83	H	1.301424	0.692691	0.848685
H84	H	1.500315	0.916678	0.284230
H85	H	1.282214	0.627684	1.106219
