data_functionalizedCrystal
_audit_creation_method	'MofGen! by Chris Wilmer'
_symmetry_space_group_name_H-M	'P1'
_symmetry_Int_Tables_number	1
_symmetry_cell_setting	triclinic
loop_
_symmetry_equiv_pos_as_xyz
  x,y,z
_cell_length_a	9.065218
_cell_length_b	19.188924
_cell_length_c	7.540329
_cell_angle_alpha	89.994348
_cell_angle_beta	89.996962
_cell_angle_gamma	84.078925
loop_
_atom_site_label
_atom_site_type_symbol
_atom_site_fract_x
_atom_site_fract_y
_atom_site_fract_z
O1	O	1.956842	0.102370	-0.147497
O2	O	2.456842	0.602370	0.352503
O3	O	1.527265	0.110767	-0.147500
O4	O	2.027265	0.610767	0.352500
O5	O	1.754455	0.005009	-0.147477
O6	O	2.254455	0.505009	0.352523
O7	O	1.729651	0.208128	-0.147519
O8	O	2.229651	0.708128	0.352481
O9	O	1.754442	0.005007	0.147488
O10	O	2.254442	0.505007	0.647488
O11	O	1.527252	0.110765	0.147465
O12	O	2.027252	0.610765	0.647465
O13	O	1.956828	0.102368	0.147468
O14	O	2.456828	0.602368	0.647468
Cu15	Cu	1.742039	0.106567	0.174400
Cu16	Cu	2.242039	0.606567	0.674400
Cu17	Cu	1.742055	0.106568	-0.174431
Cu18	Cu	2.242055	0.606568	0.325569
O19	O	1.729638	0.208126	0.147446
O20	O	2.229638	0.708126	0.647446
C21	C	1.472300	0.109959	-0.000017
C22	C	1.972300	0.609959	0.499983
C23	C	1.308541	0.107546	-0.000018
C24	C	1.808541	0.607546	0.499982
C25	C	1.753647	-0.021009	0.000007
C26	C	2.253647	0.478991	0.500007
C27	C	1.751241	-0.098533	0.000012
C28	C	2.251241	0.401467	0.500012
C29	C	1.750125	-0.134940	-0.160774
C30	C	2.250125	0.365060	0.339226
C31	C	1.747843	-0.207780	-0.160788
C32	C	2.247843	0.292220	0.339212
C33	C	1.746707	-0.244213	-0.000006
C34	C	2.246707	0.255787	0.499994
C35	C	1.747815	-0.207796	0.160801
C36	C	2.247815	0.292204	0.660801
C37	C	1.750081	-0.134957	0.160810
C38	C	2.250081	0.365043	0.660810
N39	N	1.827093	-0.363252	0.119660
N40	N	2.327093	0.136748	0.619660
N41	N	1.824942	-0.432447	0.119641
N42	N	2.324942	0.067553	0.619641
C43	C	1.739874	-0.463675	-0.000023
C44	C	2.239874	0.036325	0.499977
N45	N	1.657055	-0.423095	-0.119694
N46	N	2.157055	0.076905	0.380306
N47	N	1.659212	-0.353894	-0.119680
N48	N	2.159212	0.146106	0.380320
C49	C	1.744248	-0.323195	0.000002
C50	C	2.244248	0.176805	0.500002
C51	C	1.736282	-0.579064	-0.160835
C52	C	2.236282	-0.079064	0.339165
C53	C	1.733991	-0.651905	-0.160842
C54	C	2.233991	-0.151905	0.339158
C55	C	1.733977	-0.651921	0.160752
C56	C	2.233977	-0.151921	0.660752
C57	C	1.736253	-0.579080	0.160754
C58	C	2.236253	-0.079080	0.660754
C59	C	1.737413	-0.542656	-0.000044
C60	C	2.237413	-0.042656	0.499956
C61	C	2.011793	0.103176	-0.000018
C62	C	2.511793	0.603176	0.499982
C63	C	2.175552	0.105589	-0.000029
C64	C	2.675552	0.605589	0.499971
C65	C	1.730446	0.234144	-0.000042
C66	C	2.230446	0.734144	0.499958
C67	C	1.732852	0.311668	-0.000059
C68	C	2.232852	0.811668	0.499941
N69	N	1.742038	0.106565	0.419748
N70	N	2.242038	0.606565	0.919748
N71	N	1.742067	0.106564	-0.419779
N72	N	2.242067	0.606564	0.080221
H73	H	1.751065	-0.105288	-0.291709
H74	H	2.251065	0.394712	0.208291
H75	H	1.746926	-0.237428	-0.291723
H76	H	2.246926	0.262572	0.208277
H77	H	1.737217	-0.549405	-0.291766
H78	H	2.237217	-0.049405	0.208234
H79	H	1.746885	-0.237464	0.291710
H80	H	2.246885	0.262536	0.791710
O81	O	1.732772	-0.691181	-0.334262
O82	O	2.232772	-0.191181	0.165738
H83	H	1.631198	-0.718766	-0.341947
H84	H	2.131198	-0.218766	0.158053
O85	O	1.751292	-0.095684	0.334237
O86	O	2.251292	0.404316	0.834237
H87	H	1.852850	-0.068086	0.341922
H88	H	2.352850	0.431914	0.841922
O89	O	1.732762	-0.691204	0.334175
O90	O	2.232762	-0.191204	0.834175
H91	H	1.731010	-0.747972	0.307160
H92	H	2.231010	-0.247972	0.807160
O93	O	1.737494	-0.539807	0.334173
O94	O	2.237494	-0.039807	0.834173
H95	H	1.736338	-0.577376	0.445976
H96	H	2.236338	-0.077376	0.945976
