data_functionalizedCrystal
_audit_creation_method	'MofGen! by Chris Wilmer'
_symmetry_space_group_name_H-M	'P1'
_symmetry_Int_Tables_number	1
_symmetry_cell_setting	triclinic
loop_
_symmetry_equiv_pos_as_xyz
  x,y,z
_cell_length_a	6.817900
_cell_length_b	16.417825
_cell_length_c	17.078481
_cell_angle_alpha	96.278205
_cell_angle_beta	99.306161
_cell_angle_gamma	103.385495
loop_
_atom_site_label
_atom_site_type_symbol
_atom_site_fract_x
_atom_site_fract_y
_atom_site_fract_z
V1	V	-3.979103	-0.115690	-0.247639
O2	O	-3.968072	0.005761	-0.242639
O3	O	-3.930419	-0.229587	-0.246221
O4	O	-3.910158	-0.113822	-0.355518
O5	O	-3.988474	-0.110806	-0.132585
V6	V	-4.465430	-0.101173	-0.233844
O7	O	-4.234211	-0.147533	-0.277899
O8	O	-4.660520	-0.069330	-0.203584
O9	O	-4.290908	0.012724	-0.235263
O10	O	-4.593858	-0.222623	-0.238844
O11	O	-4.573457	-0.106057	-0.348898
O12	O	-4.311169	-0.103041	-0.125966
C13	C	-3.776016	-0.257355	-0.242385
C14	C	-3.817360	-0.350467	-0.241944
C15	C	-3.886178	-0.552789	-0.168264
C16	C	-3.925047	-0.640279	-0.167857
C17	C	-3.977734	-0.664074	-0.313228
C18	C	-3.938879	-0.576586	-0.313635
C19	C	-3.893091	-0.520945	-0.241151
C20	C	-3.970815	-0.695923	-0.240336
C21	C	-4.012959	-0.790783	-0.239894
C22	C	-3.850948	-0.426079	-0.241592
C23	C	-3.750169	-0.109684	-0.381803
C24	C	-3.775080	-0.108911	-0.469996
C25	C	-3.968105	-0.112729	-0.515481
C26	C	-3.991499	-0.112001	-0.598347
C27	C	-3.821869	-0.107462	-0.635728
C28	C	-3.628828	-0.103642	-0.590237
C29	C	-3.605433	-0.104363	-0.507371
C30	C	-3.872392	-0.104851	-0.883125
C31	C	-3.895803	-0.104133	-0.965998
C32	C	-4.258473	-0.112491	-0.974102
C33	C	-4.235064	-0.113217	-0.891235
C34	C	-4.042023	-0.109392	-0.845750
N35	N	-3.845779	-0.106721	-0.720431
N36	N	-4.018113	-0.110127	-0.761048
C37	C	-4.108654	0.040488	-0.239096
C38	C	-4.046546	0.133599	-0.239542
C39	C	-4.134501	-0.107181	-0.099676
C40	C	-4.088828	-0.107950	-0.011482
H41	H	-4.106243	-0.116430	-0.485053
H42	H	-3.490711	-0.099941	-0.620678
C43	C	-3.946482	-0.541553	-0.393816
C44	C	-3.800806	-0.559332	-0.449941
C45	C	-3.808416	-0.524299	-0.530118
C46	C	-3.961703	-0.471486	-0.554170
C47	C	-4.107390	-0.453704	-0.498044
C48	C	-4.099780	-0.488737	-0.417867
H49	H	-3.687324	-0.598430	-0.432138
H50	H	-3.700568	-0.537463	-0.571667
H51	H	-3.967337	-0.445552	-0.613522
H52	H	-4.220872	-0.414606	-0.515847
H53	H	-4.207628	-0.475574	-0.376318
H54	H	-3.919417	-0.666201	-0.108505
H55	H	-3.448243	-0.101234	-0.470335
C56	C	-4.203838	-0.116204	-0.648376
C57	C	-4.314323	-0.046694	-0.629351
C58	C	-4.526673	-0.050895	-0.679377
C59	C	-4.628539	-0.124605	-0.748427
C60	C	-4.518054	-0.194120	-0.767456
C61	C	-4.305704	-0.189920	-0.717430
H62	H	-4.238915	0.007876	-0.578233
H63	H	-4.608460	0.000565	-0.665290
H64	H	-4.785733	-0.127715	-0.785459
H65	H	-4.593461	-0.248690	-0.818574
H66	H	-4.223917	-0.241380	-0.731516
H67	H	-4.373198	-0.116912	-0.860806
H68	H	-4.015015	-0.709387	-0.372242
C69	C	-3.660050	-0.100646	-0.833104
C70	C	-3.558173	-0.026925	-0.764064
C71	C	-3.345816	-0.022717	-0.714040
C72	C	-3.235335	-0.092230	-0.733057
C73	C	-3.337210	-0.165956	-0.802100
C74	C	-3.549568	-0.170164	-0.852124
H75	H	-3.639959	0.024538	-0.749984
H76	H	-3.270401	0.031860	-0.662930
H77	H	-3.078135	-0.089115	-0.696026
H78	H	-3.255425	-0.217418	-0.816180
H79	H	-3.624982	-0.224741	-0.903234
H80	H	-3.848895	-0.507488	-0.109243
H81	H	-4.415640	-0.115604	-1.011144
H82	H	-3.757658	-0.100434	-0.996430
