data_functionalizedCrystal
_audit_creation_method	'MofGen! by Chris Wilmer'
_symmetry_space_group_name_H-M	'P1'
_symmetry_Int_Tables_number	1
_symmetry_cell_setting	triclinic
loop_
_symmetry_equiv_pos_as_xyz
  x,y,z
_cell_length_a	19.077105
_cell_length_b	16.959454
_cell_length_c	19.076919
_cell_angle_alpha	92.275489
_cell_angle_beta	90.076224
_cell_angle_gamma	87.716588
loop_
_atom_site_label
_atom_site_type_symbol
_atom_site_fract_x
_atom_site_fract_y
_atom_site_fract_z
Zn1	Zn	1.058295	-0.382399	-0.440440
Zn2	Zn	1.558295	0.117601	0.059560
Zn3	Zn	1.062944	-0.509490	-0.322940
Zn4	Zn	1.562944	-0.009490	0.177060
Zn5	Zn	0.945513	-0.371810	-0.318233
Zn6	Zn	1.445513	0.128190	0.181767
Zn7	Zn	0.940765	-0.509013	-0.435693
Zn8	Zn	1.440765	-0.009013	0.064307
O9	O	1.001879	-0.443178	-0.379326
O10	O	1.501879	0.056822	0.120674
O11	O	1.157244	-0.403889	-0.428810
O12	O	1.657244	0.096111	0.071190
O13	O	1.051298	-0.486995	-0.223984
O14	O	1.551298	0.013005	0.276016
O15	O	0.960515	-0.262606	-0.334460
O16	O	1.460515	0.237394	0.165540
O17	O	1.160659	-0.497262	-0.342484
O18	O	1.660659	0.002738	0.157516
O19	O	1.043376	-0.270386	-0.424245
O20	O	1.543376	0.229614	0.075755
O21	O	0.965022	-0.385842	-0.220526
O22	O	1.465022	0.114158	0.279474
O23	O	0.846551	-0.385379	-0.329857
O24	O	1.346551	0.114621	0.170143
O25	O	0.952424	-0.496450	-0.534654
O26	O	1.452424	0.003550	-0.034654
O27	O	0.843063	-0.486182	-0.416155
O28	O	1.343063	0.013818	0.083845
O29	O	1.038773	-0.403426	-0.538142
O30	O	1.538773	0.096574	-0.038142
O31	O	1.046695	-0.620035	-0.337881
O32	O	1.546695	-0.120035	0.162119
O33	O	0.956931	-0.619685	-0.420720
O34	O	1.456931	-0.119685	0.079280
C35	C	0.819311	-0.434581	-0.371980
C36	C	1.319311	0.065419	0.128020
C37	C	0.741206	-0.430922	-0.368854
C38	C	1.241206	0.069078	0.131146
C39	C	0.702718	-0.481759	-0.412246
C40	C	1.202718	0.018241	0.087754
C41	C	0.629330	-0.478312	-0.409312
C42	C	1.129330	0.021688	0.090688
C43	C	0.594433	-0.424030	-0.362983
C44	C	1.094433	0.075970	0.137017
C45	C	0.632926	-0.373188	-0.319590
C46	C	1.132926	0.126812	0.180410
C47	C	0.706312	-0.376632	-0.322528
C48	C	1.206312	0.123368	0.177472
C49	C	0.375144	-0.408090	-0.349389
C50	C	0.875144	0.091910	0.150611
C51	C	0.301753	-0.404651	-0.346453
C52	C	0.801753	0.095349	0.153547
C53	C	0.298162	-0.509774	-0.436177
C54	C	0.798162	-0.009774	0.063823
C55	C	0.371550	-0.513217	-0.439107
C56	C	0.871550	-0.013217	0.060893
C57	C	0.410037	-0.462372	-0.395717
C58	C	0.910037	0.037628	0.104283
N59	N	0.519419	-0.420507	-0.359981
N60	N	1.019419	0.079493	0.140019
N61	N	0.485049	-0.465892	-0.398723
N62	N	0.985049	0.034108	0.101277
C63	C	1.001821	-0.648541	-0.379312
C64	C	1.501821	-0.148541	0.120688
C65	C	1.001859	-0.736400	-0.379332
C66	C	1.501859	-0.236400	0.120668
C67	C	0.955205	-1.107727	-0.422458
C68	C	1.455205	-0.607727	0.077542
C69	C	1.048747	-1.108038	-0.336274
C70	C	1.548747	-0.608038	0.163726
C71	C	1.048723	-1.025491	-0.336266
C72	C	1.548723	-0.525491	0.163734
C73	C	1.001938	-0.984058	-0.379355
C74	C	1.501938	-0.484058	0.120645
C75	C	0.955178	-1.025172	-0.422451
C76	C	1.455178	-0.525172	0.077549
C77	C	1.095477	-0.984370	-0.293166
C78	C	1.595477	-0.484370	0.206834
C79	C	1.095454	-0.901818	-0.293156
C80	C	1.595454	-0.401818	0.206844
C81	C	1.048672	-0.860383	-0.336249
C82	C	1.548672	-0.360383	0.163751
C83	C	1.001911	-0.901503	-0.379347
C84	C	1.501911	-0.401503	0.120653
C85	C	0.955126	-0.860069	-0.422436
C86	C	1.455126	-0.360069	0.077564
C87	C	0.908367	-0.901187	-0.465538
C88	C	1.408367	-0.401187	0.034462
C89	C	0.908396	-0.983737	-0.465543
C90	C	1.408396	-0.483737	0.034457
C91	C	1.048644	-0.777834	-0.336244
C92	C	1.548644	-0.277834	0.163756
C93	C	0.955099	-0.777514	-0.422428
C94	C	1.455099	-0.277514	0.077572
C95	C	1.185161	-0.451810	-0.386702
C96	C	1.685161	0.048190	0.113298
C97	C	1.263265	-0.455488	-0.389844
C98	C	1.763265	0.044512	0.110156
C99	C	0.994550	-0.451066	-0.562607
C100	C	1.494550	0.048934	-0.062607
C101	C	0.991427	-0.454427	-0.640710
C102	C	1.491427	0.045573	-0.140710
C103	C	1.001956	-0.237015	-0.379357
C104	C	1.501956	0.262985	0.120643
C105	C	1.001989	-0.149160	-0.379370
C106	C	1.501989	0.350840	0.120630
C107	C	1.034915	-0.407577	-0.679220
C108	C	1.534915	0.092423	-0.179220
C109	C	1.031972	-0.410731	-0.752606
C110	C	1.531972	0.089269	-0.252606
C111	C	0.985544	-0.460742	-0.787481
C112	C	1.485544	0.039258	-0.287481
C113	C	0.942052	-0.507595	-0.748966
C114	C	1.442052	-0.007595	-0.248966
C115	C	0.944992	-0.504435	-0.675581
C116	C	1.444992	-0.004435	-0.175581
C117	C	0.971927	-0.475381	-1.006763
C118	C	1.471927	0.024619	-0.506763
C119	C	0.968992	-0.478539	-1.080153
C120	C	1.468992	0.021461	-0.580153
C121	C	1.058911	-0.381674	-1.083788
C122	C	1.558911	0.118326	-0.583788
C123	C	1.061850	-0.378523	-1.010402
C124	C	1.561850	0.121477	-0.510402
C125	C	1.018355	-0.425372	-0.971893
C126	C	1.518355	0.074628	-0.471893
N127	N	0.982536	-0.463970	-0.862493
N128	N	1.482536	0.036030	-0.362493
N129	N	1.021360	-0.422140	-0.896882
N130	N	1.521360	0.077860	-0.396882
C131	C	1.009220	-0.435266	-0.196760
C132	C	1.509220	0.064734	0.303240
C133	C	1.012479	-0.431688	-0.118663
C134	C	1.512479	0.068312	0.381337
H135	H	0.406472	-0.366694	-0.314052
H136	H	0.906472	0.133306	0.185948
F137	F	0.747274	-0.322523	-0.276346
F138	F	1.247274	0.177477	0.223654
H139	H	1.086833	-1.141778	-0.301189
H140	H	1.586833	-0.641778	0.198811
F141	F	0.858635	-1.027503	-0.511411
F142	F	1.358635	-0.527503	-0.011411
F143	F	1.105197	-0.331815	-1.124777
F144	F	1.605197	0.168185	-0.624777
F145	F	0.919572	-0.531766	-1.117268
F146	F	1.419572	-0.031766	-0.617268
F147	F	0.408686	-0.570992	-0.488416
F148	F	0.908686	-0.070992	0.011584
H149	H	0.936521	-0.513541	-0.975418
H150	H	1.436521	-0.013541	-0.475418
H151	H	0.731126	-0.525964	-0.449970
H152	H	1.231126	-0.025964	0.050030
H153	H	0.604506	-0.328988	-0.281870
H154	H	1.104506	0.171012	0.218130
F155	F	1.145268	-1.028470	-0.247314
F156	F	1.645268	-0.528470	0.252686
H157	H	0.904247	-0.548311	-0.777367
H158	H	1.404247	-0.048311	-0.277367
H159	H	0.909572	-0.542578	-0.644227
H160	H	1.409572	-0.042578	-0.144227
H161	H	0.917137	-1.141209	-0.457553
H162	H	1.417137	-0.641209	0.042447
H163	H	0.266818	-0.551169	-0.471504
H164	H	0.766818	-0.051169	0.028496
F165	F	0.588371	-0.532420	-0.455495
F166	F	1.088371	-0.032420	0.044505
H167	H	0.870272	-0.867443	-0.500618
H168	H	1.370272	-0.367443	-0.000618
H169	H	1.072724	-0.366855	-0.650831
H170	H	1.572724	0.133145	-0.150831
F171	F	1.145223	-0.858065	-0.247288
F172	F	1.645223	-0.358065	0.252712
H173	H	0.917003	-0.743785	-0.457519
H174	H	1.417003	-0.243785	0.042481
H175	H	0.273341	-0.360439	-0.308731
H176	H	0.773341	0.139561	0.191269
H177	H	1.067386	-0.372582	-0.783958
H178	H	1.567386	0.127418	-0.283958
F179	F	1.098398	-0.734076	-0.290368
F180	F	1.598398	-0.234076	0.209632
F181	F	1.111265	-0.325295	-0.973291
F182	F	1.611265	0.174705	-0.473291
