data_functionalizedCrystal
_audit_creation_method	'MofGen! by Chris Wilmer'
_symmetry_space_group_name_H-M	'P1'
_symmetry_Int_Tables_number	1
_symmetry_cell_setting	triclinic
loop_
_symmetry_equiv_pos_as_xyz
  x,y,z
_cell_length_a	10.654550
_cell_length_b	14.853567
_cell_length_c	9.730223
_cell_angle_alpha	90.002458
_cell_angle_beta	89.996251
_cell_angle_gamma	84.059917
loop_
_atom_site_label
_atom_site_type_symbol
_atom_site_fract_x
_atom_site_fract_y
_atom_site_fract_z
O1	O	1.666519	0.126622	-0.114390
O2	O	1.300915	0.138686	-0.114367
O3	O	1.493482	0.001477	-0.114383
O4	O	1.473951	0.263832	-0.114374
O5	O	1.493480	0.001480	0.114197
O6	O	1.300912	0.138690	0.114213
O7	O	1.666516	0.126625	0.114190
Zn8	Zn	1.483714	0.132658	0.150493
Zn9	Zn	1.483717	0.132654	-0.150671
O10	O	1.473949	0.263835	0.114206
C11	C	1.254125	0.137802	-0.000074
C12	C	1.114709	0.135152	-0.000066
C13	C	1.034384	0.215939	-0.000083
C14	C	0.903389	0.213443	-0.000107
C15	C	0.933057	0.049367	-0.000102
C16	C	1.064050	0.051863	-0.000068
C17	C	1.017254	0.310667	-0.000091
C18	C	0.886260	0.308171	-0.000115
C19	C	1.492596	-0.032115	-0.000097
C20	C	1.489944	-0.132213	-0.000109
C21	C	1.364344	-0.545419	-0.000075
C22	C	1.593119	-0.565475	-0.000090
C23	C	1.595613	-0.471428	-0.000098
C24	C	1.482470	-0.414372	-0.000093
C25	C	1.366834	-0.451363	-0.000079
C26	C	1.711247	-0.434430	-0.000097
C27	C	1.713745	-0.340378	-0.000104
C28	C	1.600601	-0.283320	-0.000109
C29	C	1.484961	-0.320316	-0.000097
C30	C	1.371818	-0.263260	-0.000091
C31	C	1.256176	-0.300254	-0.000089
C32	C	1.253691	-0.394305	-0.000084
C33	C	1.603087	-0.189269	-0.000114
C34	C	1.374308	-0.169204	-0.000096
C35	C	1.713306	0.127510	-0.000106
C36	C	1.852722	0.130160	-0.000123
C37	C	1.474835	0.297427	-0.000083
C38	C	1.477487	0.397525	-0.000080
N39	N	1.483721	0.132661	0.356030
N40	N	1.483720	0.132644	-0.356207
C41	C	1.569012	0.071925	0.427949
C42	C	1.569009	0.071914	0.571832
C43	C	1.398420	0.193382	0.571864
C44	C	1.398418	0.193388	0.427984
C45	C	1.667504	0.001799	0.427931
C46	C	1.667501	0.001788	0.571814
H47	H	1.129447	-0.013921	-0.000035
C48	C	1.057918	-0.406149	0.117430
C49	C	1.126582	-0.434966	-0.000073
H50	H	0.979445	-0.431249	0.117431
H51	H	1.104508	-0.425682	0.197124
H52	H	1.043219	-0.341969	0.117409
H53	H	1.141290	-0.499146	-0.000047
H54	H	1.079982	-0.415438	-0.079788
C55	C	1.784060	0.030020	0.223947
C56	C	1.790259	0.031484	0.367664
H57	H	1.859832	0.048368	0.186743
H58	H	1.773734	-0.029582	0.193782
H59	H	1.714418	0.070297	0.193849
H60	H	1.859896	-0.008797	0.397763
H61	H	1.800599	0.091095	0.397841
C62	C	0.745427	-0.027314	-0.000151
C63	C	0.877367	-0.042181	-0.000119
H64	H	0.711052	-0.083835	-0.000172
H65	H	0.717854	0.005978	0.079551
H66	H	0.717897	0.005984	-0.079871
H67	H	0.904898	-0.075474	0.079607
H68	H	0.904951	-0.075488	-0.079830
C69	C	1.797544	0.022620	0.768446
C70	C	1.797564	0.022640	0.624540
H71	H	1.877838	0.035489	0.800993
H72	H	1.734542	0.067477	0.800986
H73	H	1.780258	-0.035127	0.800951
H74	H	1.814841	0.080389	0.592034
H75	H	1.860585	-0.022219	0.591985
C76	C	0.949032	0.388506	0.207356
C77	C	1.056344	0.360676	0.129054
H78	H	0.973169	0.419372	0.287087
H79	H	0.892375	0.427958	0.154200
H80	H	0.908788	0.337058	0.233903
H81	H	1.096584	0.412125	0.102498
H82	H	1.113022	0.321222	0.182220
C83	C	1.909507	-0.328533	-0.117633
C84	C	1.840854	-0.299717	-0.000123
H85	H	1.987975	-0.303424	-0.117650
H86	H	1.924211	-0.392704	-0.117614
H87	H	1.862900	-0.308999	-0.197331
H88	H	1.887457	-0.319257	0.079576
H89	H	1.826154	-0.235532	-0.000130
H90	H	1.270191	-0.575545	-0.000079
C91	C	1.158430	-0.147171	-0.000084
C92	C	1.131812	-0.237532	-0.000086
H93	H	1.081654	-0.108448	-0.000091
H94	H	1.205827	-0.135888	0.079622
H95	H	1.205846	-0.135893	-0.079800
H96	H	1.084404	-0.248811	0.079636
H97	H	1.084395	-0.248820	-0.079800
C98	C	1.229792	0.313446	0.442475
C99	C	1.304657	0.260145	0.348929
H100	H	1.171911	0.354663	0.393667
H101	H	1.184570	0.275609	0.498588
H102	H	1.282127	0.346226	0.498596
H103	H	1.252323	0.227360	0.292814
H104	H	1.349882	0.297987	0.292793
H105	H	1.685234	-0.611936	-0.000083
H106	H	1.697240	-0.159152	-0.000107
C107	C	1.841160	-0.551838	-0.117606
C108	C	1.835605	-0.497147	-0.000099
H109	H	1.917940	-0.590556	-0.117609
H110	H	1.771940	-0.587322	-0.117597
H111	H	1.837387	-0.514722	-0.197306
H112	H	1.839368	-0.534263	0.079602
H113	H	1.904843	-0.461660	-0.000096
C114	C	1.521169	-0.110708	0.423181
C115	C	1.639512	-0.091740	0.375200
H116	H	1.503885	-0.168451	0.390621
H117	H	1.521181	-0.110708	0.520797
H118	H	1.458178	-0.065833	0.390644
H119	H	1.702505	-0.136611	0.407746
H120	H	1.639510	-0.091748	0.277564
C121	C	1.227552	0.211788	0.733690
C122	C	1.304664	0.260134	0.650966
H123	H	1.169677	0.253001	0.782527
H124	H	1.182323	0.173971	0.677552
H125	H	1.278363	0.175617	0.797109
H126	H	1.253855	0.296301	0.587540
H127	H	1.349897	0.297967	0.707108
H128	H	1.052598	0.340828	-0.098778
H129	H	0.840290	0.336801	0.098570
C130	C	1.519220	-0.067089	0.713034
C131	C	1.627240	-0.086617	0.632034
H132	H	1.494363	-0.121668	0.750198
H133	H	1.537164	-0.027720	0.785744
H134	H	1.452868	-0.038647	0.658083
H135	H	1.693595	-0.115053	0.686988
H136	H	1.609302	-0.126001	0.559314
H137	H	1.282173	-0.122754	-0.000097
H138	H	0.844157	0.343862	-0.095782
