data_functionalizedCrystal
_audit_creation_method	'MofGen! by Chris Wilmer'
_symmetry_space_group_name_H-M	'P1'
_symmetry_Int_Tables_number	1
_symmetry_cell_setting	triclinic
loop_
_symmetry_equiv_pos_as_xyz
  x,y,z
_cell_length_a	19.121102
_cell_length_b	12.645330
_cell_length_c	12.645323
_cell_angle_alpha	89.966732
_cell_angle_beta	92.461268
_cell_angle_gamma	92.426549
loop_
_atom_site_label
_atom_site_type_symbol
_atom_site_fract_x
_atom_site_fract_y
_atom_site_fract_z
Zn1	Zn	1.073781	0.491281	0.668430
Zn2	Zn	1.073699	0.668563	0.491139
Zn3	Zn	0.956324	0.483745	0.483622
Zn4	Zn	0.956308	0.660927	0.660806
O5	O	1.015028	0.576129	0.575999
O6	O	1.172055	0.521148	0.651248
O7	O	1.058102	0.644089	0.341792
O8	O	0.971945	0.336400	0.508182
O9	O	1.171995	0.651396	0.520993
O10	O	1.058241	0.341936	0.643959
O11	O	0.971866	0.508304	0.336270
O12	O	0.858036	0.500898	0.500789
O13	O	0.971919	0.638381	0.810166
O14	O	0.858025	0.631073	0.630965
O15	O	1.058226	0.513742	0.815768
O16	O	1.058087	0.815895	0.513601
O17	O	0.971840	0.810284	0.638254
C18	C	0.832547	0.564340	0.564235
C19	C	0.754480	0.559322	0.559227
C20	C	0.717817	0.624842	0.624544
C21	C	0.644465	0.620114	0.619843
C22	C	0.607778	0.549870	0.549820
C23	C	0.644447	0.484342	0.484501
C24	C	0.717797	0.489067	0.489207
C25	C	0.386307	0.532205	0.532230
C26	C	0.312952	0.527488	0.527526
C27	C	0.312975	0.663259	0.662871
C28	C	0.386327	0.667981	0.667566
C29	C	0.422989	0.602450	0.602251
C30	C	0.532801	0.545037	0.545012
C31	C	0.497965	0.607278	0.607065
C32	C	1.014972	0.851555	0.575940
C33	C	1.015012	0.969388	0.575955
C34	C	1.069170	1.140431	0.497344
C35	C	1.069356	1.017882	0.497570
C36	C	1.035083	1.015064	0.688985
C37	C	1.035504	1.137689	0.688563
C38	C	0.940732	1.131925	0.542591
C39	C	0.941097	1.009344	0.540122
C40	C	1.198222	0.587964	0.587810
C41	C	1.276288	0.593008	0.592843
C42	C	1.015080	0.576050	0.852508
C43	C	1.015102	0.576017	0.970339
C44	C	1.015084	1.299627	0.576054
C45	C	1.015059	1.181796	0.576004
C46	C	1.015017	0.576133	0.300569
C47	C	1.015131	0.575877	0.182746
C48	C	0.960639	0.654030	1.134369
C49	C	0.960781	0.654443	1.011818
C50	C	1.089106	0.611108	1.019613
C51	C	1.088807	0.611600	1.142192
C52	C	0.996261	0.462502	1.136342
C53	C	0.994609	0.463068	1.013629
H54	H	0.747682	0.682046	0.681560
H55	H	1.056798	0.987070	0.413909
H56	H	0.502922	0.487846	0.487997
O57	O	0.421880	0.468662	0.468627
C58	C	0.444228	0.418356	0.289835
C59	C	0.403910	0.490405	0.361745
H60	H	0.429703	0.435894	0.203407
H61	H	0.502965	0.433786	0.305128
H62	H	0.429827	0.331983	0.307745
H63	H	0.418252	0.576803	0.343877
H64	H	0.345183	0.474884	0.346439
O65	O	0.894925	0.627503	1.165169
C66	C	0.772955	0.668881	1.155629
C67	C	0.847338	0.699022	1.120635
H68	H	0.734463	0.726701	1.119656
H69	H	0.757338	0.585185	1.127579
H70	H	0.772009	0.672481	1.245633
H71	H	0.848342	0.695485	1.030637
H72	H	0.862925	0.782702	1.148763
H73	H	1.130785	0.557407	1.174578
H74	H	1.056764	1.169183	0.413443
H75	H	1.123926	1.174692	0.519592
H76	H	1.105375	0.693288	0.989959
H77	H	0.614617	0.673468	0.673030
H78	H	0.898611	0.975989	0.592836
H79	H	1.031400	0.401377	0.985383
H80	H	0.747647	0.435708	0.436025
O81	O	0.933062	0.425319	1.169257
C82	C	0.870042	0.288640	1.263579
C83	C	0.941661	0.330633	1.226391
H84	H	0.876968	0.212070	1.309760
H85	H	0.847137	0.350051	1.316639
H86	H	0.832987	0.272678	1.191792
H87	H	0.978769	0.346589	1.298113
H88	H	0.964509	0.269200	1.173296
H89	H	0.905905	0.631931	0.978190
O90	O	0.608844	0.415955	0.416595
C91	C	0.586455	0.234126	0.363988
C92	C	0.626801	0.311454	0.440980
H93	H	0.600969	0.149622	0.383662
H94	H	0.527722	0.241909	0.371841
H95	H	0.600840	0.253615	0.279404
H96	H	0.612474	0.292015	0.525596
H97	H	0.685524	0.303657	0.433035
O98	O	0.422036	0.736068	0.735655
C99	C	0.504855	0.755830	0.884122
C100	C	0.464473	0.678605	0.807064
H101	H	0.539164	0.709400	0.941889
H102	H	0.539219	0.813401	0.837621
H103	H	0.466033	0.801864	0.929948
H104	H	0.503245	0.632499	0.761218
H105	H	0.430098	0.621103	0.853625
O106	O	0.277272	0.459381	0.459414
C107	C	0.194350	0.439552	0.311084
C108	C	0.234731	0.516803	0.388116
H109	H	0.159935	0.485945	0.253434
H110	H	0.233110	0.393521	0.265129
H111	H	0.160072	0.381980	0.357720
H112	H	0.269010	0.574438	0.341562
H113	H	0.195933	0.562756	0.434072
O114	O	1.135067	0.987206	0.524467
C115	C	1.254275	1.042509	0.572984
C116	C	1.179884	1.077394	0.542552
H117	H	1.290534	1.115407	0.587592
H118	H	1.252914	0.992539	0.647994
H119	H	1.274460	0.993741	0.505813
H120	H	1.159655	1.126202	0.609653
H121	H	1.181289	1.127310	0.467509
O122	O	0.533677	0.675369	0.675141
C123	C	0.616511	0.695141	0.823587
C124	C	0.576115	0.617910	0.746550
H125	H	0.650821	0.648715	0.881355
H126	H	0.650874	0.752698	0.777069
H127	H	0.577697	0.741190	0.869415
H128	H	0.614879	0.571789	0.700703
H129	H	0.541742	0.560422	0.793128
H130	H	0.940149	0.436692	0.981032
O131	O	0.975334	0.753629	1.171877
C132	C	1.005614	0.935156	1.129337
C133	C	0.988966	0.822417	1.086716
H134	H	1.016654	0.990798	1.060508
H135	H	0.958949	0.963423	1.173090
H136	H	1.053617	0.934691	1.185986
H137	H	0.940984	0.822793	1.030027
H138	H	1.035669	0.794196	1.043026
O139	O	1.100365	1.175717	0.721634
C140	C	1.217180	1.133692	0.781924
C141	C	1.143758	1.090492	0.744467
H142	H	1.252280	1.064809	0.800417
H143	H	1.240724	1.184651	0.716944
H144	H	1.212873	1.183611	0.856220
H145	H	1.148005	1.040526	0.670192
H146	H	1.120241	1.039591	0.809512
H147	H	0.922475	1.161756	0.461349
O148	O	0.975553	0.754603	0.977730
C149	C	0.936237	0.902048	0.873589
C150	C	0.919406	0.788620	0.912126
H151	H	0.890859	0.929577	0.820522
H152	H	0.944352	0.957297	0.944671
H153	H	0.985993	0.903213	0.826982
H154	H	0.869644	0.787352	0.958713
H155	H	0.911336	0.733420	0.841000
H156	H	0.900416	1.158332	0.599824
H157	H	0.997819	1.164926	0.749449
H158	H	0.996876	0.983454	0.749375
H159	H	1.088804	0.987741	0.717105
O160	O	1.043658	0.392960	1.173837
C161	C	1.131103	0.269952	1.131071
C162	C	1.077460	0.348683	1.088461
H163	H	1.158436	0.234115	1.062065
H164	H	1.171619	0.313089	1.186063
H165	H	1.102924	0.204306	1.176638
H166	H	1.105578	0.414348	1.042846
H167	H	1.036947	0.305470	1.033524
O168	O	0.922966	0.973785	0.440815
C169	C	0.836085	0.969725	0.296922
C170	C	0.856519	1.010046	0.409402
H171	H	0.782356	0.999007	0.271499
H172	H	0.876551	1.000746	0.239624
H173	H	0.834203	0.879497	0.296403
H174	H	0.858394	1.100269	0.410024
H175	H	0.816047	0.978944	0.466652
H176	H	0.283117	0.716609	0.716048
O177	O	1.138929	0.545683	0.988200
C178	C	1.261062	0.505262	0.998046
C179	C	1.204708	0.579422	1.033725
H180	H	1.314260	0.532526	1.034819
H181	H	1.247552	0.421001	1.024733
H182	H	1.263099	0.507398	0.908098
H183	H	1.202642	0.577378	1.123668
H184	H	1.218240	0.663649	1.006960
O185	O	1.107985	0.710650	1.177419
C186	C	1.197368	0.850944	1.184202
C187	C	1.175731	0.738768	1.144233
H188	H	1.252148	0.873703	1.157407
H189	H	1.158646	0.909648	1.150527
H190	H	1.197342	0.852496	1.274340
H191	H	1.175763	0.737113	1.054102
H192	H	1.214458	0.680113	1.177989
