data_functionalizedCrystal
_audit_creation_method	'MofGen! by Chris Wilmer'
_symmetry_space_group_name_H-M	'P1'
_symmetry_Int_Tables_number	1
_symmetry_cell_setting	triclinic
loop_
_symmetry_equiv_pos_as_xyz
  x,y,z
_cell_length_a	10.489711
_cell_length_b	12.811415
_cell_length_c	11.295483
_cell_angle_alpha	88.701575
_cell_angle_beta	85.851708
_cell_angle_gamma	84.283939
loop_
_atom_site_label
_atom_site_type_symbol
_atom_site_fract_x
_atom_site_fract_y
_atom_site_fract_z
O1	O	1.703073	0.139865	-0.114170
O2	O	2.203073	0.639865	0.385830
O3	O	1.331919	0.153693	-0.115656
O4	O	1.831919	0.653693	0.384344
O5	O	1.525422	-0.004786	-0.098540
O6	O	2.025422	0.495214	0.401460
O7	O	1.509570	0.298344	-0.131285
O8	O	2.009570	0.798344	0.368715
O9	O	1.508426	0.009112	0.098009
O10	O	2.008426	0.509112	0.598009
O11	O	1.314923	0.167591	0.080894
O12	O	1.814923	0.667591	0.580894
O13	O	1.686077	0.153763	0.082380
O14	O	2.186077	0.653763	0.582380
Cu15	Cu	1.498948	0.161946	0.099584
Cu16	Cu	1.998948	0.661946	0.599584
Cu17	Cu	1.519048	0.145510	-0.132859
Cu18	Cu	2.019048	0.645510	0.367141
O19	O	1.492574	0.312242	0.065265
O20	O	1.992574	0.812242	0.565265
C21	C	1.275885	0.159604	-0.017268
C22	C	1.775885	0.659604	0.482732
C23	C	1.134243	0.156500	-0.016930
C24	C	1.634243	0.656500	0.483070
C25	C	0.952185	0.251803	-0.027238
C26	C	1.452185	0.751803	0.472762
C27	C	1.052547	0.197345	-0.119003
C28	C	1.552547	0.697345	0.380997
C29	C	1.035763	0.211021	0.074782
C30	C	1.535763	0.711021	0.574782
C31	C	0.982257	0.096450	-0.108197
C32	C	1.482257	0.596450	0.391803
C33	C	0.965456	0.110147	0.085674
C34	C	1.465456	0.610147	0.585674
C35	C	1.065792	0.055614	-0.006107
C36	C	1.565792	0.555614	0.493893
C37	C	1.515515	-0.036653	0.003925
C38	C	2.015515	0.463347	0.503925
C39	C	1.511301	-0.152311	0.016411
C40	C	2.011301	0.347689	0.516411
C41	C	1.521890	-0.384788	-0.174429
C42	C	2.021890	0.115212	0.325571
C43	C	1.517932	-0.493459	-0.162702
C44	C	2.017932	0.006541	0.337298
C45	C	1.499415	-0.478328	0.051589
C46	C	1.999415	0.021672	0.551589
C47	C	1.503374	-0.369656	0.039863
C48	C	2.003374	0.130344	0.539863
C49	C	1.514614	-0.322890	-0.073150
C50	C	2.014614	0.177110	0.426850
C51	C	1.518582	-0.214217	-0.084875
C52	C	2.018582	0.285783	0.415125
C53	C	1.500056	-0.199087	0.129415
C54	C	2.000056	0.300913	0.629415
C55	C	1.496097	-0.307758	0.141142
C56	C	1.996097	0.192242	0.641142
C57	C	1.742111	0.147852	-0.016010
C58	C	2.242111	0.647852	0.483990
C59	C	1.883754	0.150956	-0.016356
C60	C	2.383754	0.650956	0.483644
C61	C	1.502481	0.344108	-0.037203
C62	C	2.002481	0.844108	0.462797
C63	C	1.506696	0.459766	-0.049697
C64	C	2.006696	0.959766	0.450303
N65	N	1.484820	0.173505	0.263072
N66	N	1.984820	0.673505	0.763072
N67	N	1.533186	0.133942	-0.296346
N68	N	2.033186	0.633942	0.203654
C69	C	1.634885	0.050672	0.525627
C70	C	2.134885	0.550672	1.025627
C71	C	1.624217	0.059415	0.649346
C72	C	2.124217	0.559415	1.149346
C73	C	1.452813	0.199729	0.634233
C74	C	1.952813	0.699729	1.134233
C75	C	1.463480	0.190986	0.510513
C76	C	1.963480	0.690986	1.010513
C77	C	1.554520	0.116456	0.456215
C78	C	2.054520	0.616456	0.956215
C79	C	1.565193	0.107719	0.332493
C80	C	2.065193	0.607719	0.832493
C81	C	1.393783	0.248027	0.317382
C82	C	1.893783	0.748027	0.817382
C83	C	1.383116	0.256770	0.441101
C84	C	1.883116	0.756770	0.941101
H85	H	1.090772	0.234225	-0.205538
H86	H	1.590772	0.734225	0.294462
H87	H	1.308989	0.317448	0.485326
H88	H	1.808989	0.817448	0.985326
H89	H	1.531054	-0.346711	-0.266448
H90	H	2.031054	0.153289	0.233552
H91	H	1.378681	0.260402	0.678460
H92	H	1.878681	0.760402	1.178460
H93	H	1.523852	-0.543852	-0.245175
H94	H	2.023852	-0.043852	0.254825
H95	H	0.902788	0.334684	-0.036288
H96	H	1.402788	0.834684	0.463712
H97	H	1.328348	0.301596	0.260852
H98	H	1.828348	0.801596	0.760852
H99	H	0.927202	0.073305	0.172212
H100	H	1.427202	0.573305	0.672212
H101	H	0.958395	0.048020	-0.185616
H102	H	1.458395	0.548020	0.314384
H103	H	1.059781	0.259502	0.152100
H104	H	1.559781	0.759502	0.652100
H105	H	1.114969	-0.027355	0.002807
H106	H	1.614969	0.472645	0.502807
H107	H	1.527738	-0.176143	-0.176896
H108	H	2.027738	0.323857	0.323104
H109	H	1.486941	-0.345850	0.233153
H110	H	1.986941	0.154150	0.733153
H111	H	1.490253	-0.516423	0.143599
H112	H	1.990253	-0.016423	0.643599
H113	H	1.494136	-0.148678	0.211884
H114	H	1.994136	0.351322	0.711884
H115	H	1.639326	0.047036	0.288284
H116	H	2.139326	0.547036	0.788284
H117	H	1.709022	-0.010006	0.481416
H118	H	2.209022	0.489994	0.981416
H119	H	1.689657	0.005846	0.705859
H120	H	2.189657	0.505846	1.205859
