data_functionalizedCrystal
_audit_creation_method	'MofGen! by Chris Wilmer'
_symmetry_space_group_name_H-M	'P1'
_symmetry_Int_Tables_number	1
_symmetry_cell_setting	triclinic
loop_
_symmetry_equiv_pos_as_xyz
  x,y,z
_cell_length_a	14.853567
_cell_length_b	15.944551
_cell_length_c	13.330367
_cell_angle_alpha	89.994404
_cell_angle_beta	89.995418
_cell_angle_gamma	83.566834
loop_
_atom_site_label
_atom_site_type_symbol
_atom_site_fract_x
_atom_site_fract_y
_atom_site_fract_z
O1	O	1.196228	0.109665	-0.083357
O2	O	1.696228	0.609665	0.416643
O3	O	0.933752	0.122728	-0.083374
O4	O	1.433752	0.622728	0.416626
O5	O	1.072158	-0.006070	-0.083356
O6	O	1.572158	0.493930	0.416644
O7	O	1.057822	0.238463	-0.083375
O8	O	1.557822	0.738463	0.416625
O9	O	1.072137	-0.006073	0.083491
O10	O	1.572137	0.493927	0.583491
O11	O	0.933732	0.122725	0.083473
O12	O	1.433732	0.622725	0.583473
O13	O	1.196208	0.109662	0.083491
O14	O	1.696208	0.609662	0.583491
Cu15	Cu	1.064968	0.116193	0.098716
Cu16	Cu	1.564968	0.616193	0.598716
Cu17	Cu	1.064992	0.116197	-0.098600
Cu18	Cu	1.564992	0.616197	0.401400
O19	O	1.057802	0.238460	0.083472
O20	O	1.557802	0.738460	0.583472
C21	C	0.900154	0.122135	0.000047
C22	C	1.400154	0.622135	0.500047
C23	C	0.800072	0.120361	0.000041
C24	C	1.300072	0.620361	0.500041
C25	C	0.387646	0.036354	0.000070
C26	C	0.887646	0.536354	0.500070
C27	C	0.366169	0.189369	0.000057
C28	C	0.866169	0.689369	0.500057
C29	C	0.460201	0.191037	0.000054
C30	C	0.960201	0.691037	0.500054
C31	C	0.517960	0.115362	0.000057
C32	C	1.017960	0.615362	0.500057
C33	C	0.481687	0.038019	0.000064
C34	C	0.981687	0.538019	0.500064
C35	C	0.496480	0.268379	0.000037
C36	C	0.996480	0.768379	0.500037
C37	C	0.590517	0.270050	0.000033
C38	C	1.090517	0.770050	0.500033
C39	C	0.648278	0.194374	0.000043
C40	C	1.148278	0.694374	0.500043
C41	C	0.612000	0.117028	0.000051
C42	C	1.112000	0.617028	0.500051
C43	C	0.669759	0.041353	0.000054
C44	C	1.169759	0.541353	0.500054
C45	C	0.633483	-0.035994	0.000069
C46	C	1.133483	0.464006	0.500069
C47	C	0.539448	-0.037657	0.000074
C48	C	1.039448	0.462343	0.500074
C49	C	0.742313	0.196036	0.000038
C50	C	1.242313	0.696036	0.500038
C51	C	0.763800	0.043018	0.000048
C52	C	1.263800	0.543018	0.500048
C53	C	1.071552	-0.037367	0.000068
C54	C	1.571552	0.462633	0.500068
C55	C	1.069768	-0.130615	0.000068
C56	C	1.569768	0.369385	0.500068
C57	C	0.979713	-0.345572	0.000049
C58	C	1.479713	0.154428	0.500049
C59	C	1.021522	-0.406544	0.082317
C60	C	1.521522	0.093456	0.582317
C61	C	1.066541	-0.301344	0.000060
C62	C	1.566541	0.198656	0.500060
C63	C	1.021562	-0.406524	-0.082181
C64	C	1.521562	0.093476	0.417819
C65	C	1.063416	-0.466260	0.000048
C66	C	1.563416	0.033740	0.500048
C67	C	1.108373	-0.361088	0.082397
C68	C	1.608373	0.138912	0.582397
C69	C	1.108401	-0.361062	-0.082175
C70	C	1.608401	0.138938	0.417825
C71	C	1.150273	-0.422017	0.000113
C72	C	1.650273	0.077983	0.500113
C73	C	1.068338	-0.206340	0.000068
C74	C	1.568338	0.293660	0.500068
C75	C	1.061626	-0.561263	0.000048
C76	C	1.561626	-0.061263	0.500048
C77	C	1.229806	0.110255	0.000067
C78	C	1.729806	0.610255	0.500067
C79	C	1.329887	0.112029	0.000067
C80	C	1.829887	0.612029	0.500067
C81	C	1.058407	0.269756	0.000046
C82	C	1.558407	0.769756	0.500046
C83	C	1.060191	0.363004	0.000039
C84	C	1.560191	0.863004	0.500039
N85	N	1.064958	0.116190	0.237498
N86	N	1.564958	0.616190	0.737498
N87	N	1.065009	0.116193	-0.237381
N88	N	1.565009	0.616193	0.262619
C89	C	1.003703	0.173206	0.710113
C90	C	1.503703	0.673206	1.210113
C91	C	1.126305	0.059180	0.710097
C92	C	1.626305	0.559180	1.210097
C93	C	1.126295	0.059178	0.605078
C94	C	1.626295	0.559178	1.105078
C95	C	1.064989	0.116191	0.552572
C96	C	1.564989	0.616191	1.052572
C97	C	1.003693	0.173207	0.605085
C98	C	1.503693	0.673207	1.105085
C99	C	1.187595	0.002169	0.552558
C100	C	1.687595	0.502169	1.052558
C101	C	1.187588	0.002164	0.447534
C102	C	1.687588	0.502164	0.947534
C103	C	1.126277	0.059174	0.395026
C104	C	1.626277	0.559174	0.895026
C105	C	1.064978	0.116192	0.447544
C106	C	1.564978	0.616192	0.947544
C107	C	1.003672	0.173205	0.395038
C108	C	1.503672	0.673205	0.895038
C109	C	0.942368	0.230220	0.447555
C110	C	1.442368	0.730220	0.947555
C111	C	0.942382	0.230217	0.552577
C112	C	1.442382	0.730217	1.052577
C113	C	1.126264	0.059177	0.290004
C114	C	1.626264	0.559177	0.790004
C115	C	1.003662	0.173206	0.290010
C116	C	1.503662	0.673206	0.790010
H117	H	0.449447	0.329989	0.000024
H118	H	0.949447	0.829989	0.500024
H119	H	0.509903	-0.100629	0.000110
H120	H	1.009903	0.399371	0.500110
C121	C	1.157948	-0.333749	-0.176124
C122	C	1.657948	0.166251	0.323876
H123	H	1.209253	-0.307144	-0.156364
H124	H	1.709253	0.192856	0.343636
H125	H	1.118056	-0.295301	-0.214145
H126	H	1.618056	0.204699	0.285855
H127	H	1.177101	-0.381941	-0.215822
H128	H	1.677101	0.118059	0.284178
C129	C	1.247713	-0.466712	0.000181
C130	C	1.747713	0.033288	0.500181
H131	H	1.278400	-0.451166	0.058673
H132	H	1.778400	0.048834	0.558673
H133	H	1.278792	-0.450452	-0.057700
H134	H	1.778792	0.049548	0.442300
H135	H	1.246057	-0.526099	-0.000365
H136	H	1.746057	-0.026099	0.499635
H137	H	1.145058	-0.341058	0.152025
H138	H	1.645058	0.158942	0.652025
C139	C	0.971948	-0.433711	-0.176139
C140	C	1.471948	0.066289	0.323861
H141	H	0.911366	-0.407261	-0.176035
H142	H	1.411366	0.092739	0.323965
H143	H	0.971650	-0.493255	-0.175795
H144	H	1.471650	0.006745	0.324205
H145	H	1.002213	-0.417367	-0.234554
H146	H	1.502213	0.082633	0.265446
C147	C	0.347748	-0.048721	0.000082
C148	C	0.847748	0.451279	0.500082
H149	H	0.283472	-0.038880	0.000080
H150	H	0.783472	0.461120	0.500080
H151	H	0.367575	-0.079886	0.058265
H152	H	0.867575	0.420114	0.558265
H153	H	0.367572	-0.079879	-0.058109
H154	H	0.867572	0.420121	0.441891
C155	C	0.936226	0.235924	0.232261
C156	C	1.436226	0.735924	0.732261
H157	H	0.899725	0.269880	0.278581
H158	H	1.399725	0.769880	0.778581
H159	H	0.898697	0.205647	0.191298
H160	H	1.398697	0.705647	0.691298
H161	H	0.968658	0.270951	0.191288
H162	H	1.468658	0.770951	0.691288
C163	C	1.255010	-0.060554	0.389774
C164	C	1.755010	0.439446	0.889774
H165	H	1.291518	-0.094513	0.436088
H166	H	1.791518	0.405487	0.936088
H167	H	1.292533	-0.030280	0.348787
H168	H	1.792533	0.469720	0.848787
H169	H	1.222567	-0.095580	0.348824
H170	H	1.722567	0.404420	0.848824
H171	H	1.176181	0.012761	0.247250
H172	H	1.676181	0.512761	0.747250
C173	C	0.936276	0.235919	0.767874
C174	C	1.436276	0.735919	1.267874
H175	H	0.945062	0.227760	0.837942
H176	H	1.445062	0.727760	1.337942
H177	H	0.876110	0.226697	0.750672
H178	H	1.376110	0.726697	1.250672
H179	H	0.946074	0.291999	0.750654
H180	H	1.446074	0.791999	1.250654
C181	C	0.874937	0.292935	0.389796
C182	C	1.374937	0.792935	0.889796
H183	H	0.838432	0.326895	0.436108
H184	H	1.338432	0.826895	0.936108
H185	H	0.837413	0.262655	0.348830
H186	H	1.337413	0.762655	0.848830
H187	H	0.907374	0.327959	0.348824
H188	H	1.407374	0.827959	0.848824
H189	H	0.771845	0.259011	0.000027
H190	H	1.271845	0.759011	0.500027
H191	H	1.176223	0.012766	0.752851
H192	H	1.676223	0.512766	1.252851
H193	H	0.984789	-0.426694	0.151864
H194	H	1.484789	0.073306	0.651864
H195	H	0.907643	-0.312344	0.000126
H196	H	1.407643	0.187656	0.500126
H197	H	1.237513	-0.044246	0.595312
H198	H	1.737513	0.455754	1.095312
C199	C	0.827328	-0.040226	0.000046
C200	C	1.327328	0.459774	0.500046
H201	H	0.792253	-0.086525	0.000047
H202	H	1.292253	0.413475	0.500047
H203	H	0.864463	-0.042761	0.058222
H204	H	1.364463	0.457239	0.558222
H205	H	0.864452	-0.042755	-0.058152
H206	H	1.364452	0.457245	0.441848
C207	C	0.697019	-0.119234	0.000064
C208	C	1.197019	0.380766	0.500064
H209	H	0.661952	-0.165538	0.000066
H210	H	1.161952	0.334462	0.500066
H211	H	0.734157	-0.121765	0.058238
H212	H	1.234157	0.378235	0.558238
H213	H	0.734141	-0.121756	-0.058136
H214	H	1.234141	0.378244	0.441864
H215	H	0.892471	0.276637	0.595342
H216	H	1.392471	0.776637	1.095342
C217	C	0.302638	0.272605	0.000056
C218	C	0.802638	0.772605	0.500056
H219	H	0.241439	0.260535	0.000066
H220	H	0.741439	0.760535	0.500066
H221	H	0.313636	0.304319	-0.058127
H222	H	0.813636	0.804319	0.441873
H223	H	0.313633	0.304307	0.058247
H224	H	0.813633	0.804307	0.558247
C225	C	0.630414	0.355126	0.000030
C226	C	1.130414	0.855126	0.500030
H227	H	0.582546	0.399955	0.000036
H228	H	1.082546	0.899955	0.500036
H229	H	0.666657	0.358963	-0.058151
H230	H	1.166657	0.858963	0.441849
H231	H	0.666643	0.358951	0.058223
H232	H	1.166643	0.858951	0.558223
