data_functionalizedCrystal
_audit_creation_method	'MofGen! by Chris Wilmer'
_symmetry_space_group_name_H-M	'P1'
_symmetry_Int_Tables_number	1
_symmetry_cell_setting	triclinic
loop_
_symmetry_equiv_pos_as_xyz
  x,y,z
_cell_length_a	15.944486
_cell_length_b	22.010155
_cell_length_c	15.944551
_cell_angle_alpha	89.996699
_cell_angle_beta	96.514425
_cell_angle_gamma	89.988039
loop_
_atom_site_label
_atom_site_type_symbol
_atom_site_fract_x
_atom_site_fract_y
_atom_site_fract_z
O1	O	-1.114564	0.050576	0.108063
O2	O	-0.870007	0.050566	0.121475
O3	O	-0.998964	0.050566	-0.007507
O4	O	-0.985607	0.050576	0.237045
O5	O	-0.998940	-0.050485	-0.007488
O6	O	-0.869984	-0.050484	0.121495
O7	O	-1.114541	-0.050475	0.108082
Cu8	Cu	-0.992260	-0.059706	0.114790
Cu9	Cu	-0.992288	0.059798	0.114767
O10	O	-0.985584	-0.050474	0.237065
C11	C	-0.838700	0.000040	0.120938
C12	C	-0.745452	0.000036	0.119297
N13	N	-0.992247	-0.143759	0.114806
C14	C	-0.453914	0.000045	0.194243
C15	C	-0.514955	0.049868	0.155279
C16	C	-0.409813	0.000046	0.113336
C17	C	-0.514918	-0.049759	0.155276
C18	C	-0.574723	0.000040	0.116269
C19	C	-0.469626	0.049910	0.074350
C20	C	-0.469582	-0.049762	0.074359
C21	C	-0.530606	0.000073	0.035336
C22	C	-0.314812	0.000050	0.111649
C23	C	-0.669722	0.000041	0.117951
C24	C	-1.049393	-0.563538	0.057662
C25	C	-1.049397	-0.627146	0.057656
O26	O	-1.097951	-0.660037	0.009081
N27	N	-0.992287	-0.658966	0.114750
C28	C	-0.935164	-0.627175	0.171847
O29	O	-0.886587	-0.660081	0.220409
C30	C	-0.935157	-0.563568	0.171848
C31	C	-0.992276	-0.531752	0.114757
C32	C	-1.106507	-0.531722	0.000574
C33	C	-1.106504	-0.468118	0.000581
C34	C	-1.049387	-0.436332	0.057676
C35	C	-0.992273	-0.468148	0.114764
C36	C	-0.878030	-0.531778	0.228941
C37	C	-0.878028	-0.468168	0.228937
C38	C	-0.935147	-0.436351	0.171845
C39	C	-0.935153	-0.372759	0.171865
N40	N	-0.992263	-0.340939	0.114772
C41	C	-1.049380	-0.372725	0.057677
C42	C	-0.935183	-0.760752	0.171840
C43	C	-0.935193	-0.824358	0.171843
C44	C	-1.049425	-0.824324	0.057651
C45	C	-1.049418	-0.760718	0.057652
C46	C	-0.992292	-0.728933	0.114746
C47	C	-1.049369	-0.239154	0.057697
C48	C	-1.049364	-0.175545	0.057711
C49	C	-0.935129	-0.175584	0.171900
C50	C	-0.935137	-0.239187	0.171889
C51	C	-0.992261	-0.270971	0.114780
O52	O	-0.886621	-0.339827	0.220413
O53	O	-1.097941	-0.339812	0.009116
C54	C	-0.145846	0.000050	0.108631
C55	C	-0.239090	0.000049	0.110306
C56	C	-0.998398	0.000040	-0.038791
C57	C	-0.996735	0.000040	-0.132037
N58	N	-0.992308	0.143850	0.114745
C59	C	-0.912828	0.000045	-0.346874
C60	C	-0.951780	-0.049777	-0.407891
C61	C	-0.993728	0.000045	-0.302762
C62	C	-0.951823	0.049850	-0.407894
C63	C	-0.990817	0.000052	-0.467674
C64	C	-1.032702	-0.049819	-0.362551
C65	C	-1.032733	0.049854	-0.362547
C66	C	-1.071744	0.000019	-0.423546
C67	C	-0.995402	0.000040	-0.207760
C68	C	-0.989149	0.000052	-0.562675
C69	C	-0.986150	0.000052	0.268349
C70	C	-0.987812	0.000057	0.361595
H71	H	-0.535063	0.091990	0.189494
O72	O	-0.445426	-0.100093	0.033841
C73	C	-0.361101	-0.191224	0.043370
C74	C	-0.388389	-0.134194	0.089241
H75	H	-0.314996	-0.218817	0.088146
H76	H	-0.329163	-0.177045	-0.014016
H77	H	-0.419000	-0.220053	0.022030
H78	H	-0.330534	-0.105340	0.110636
H79	H	-0.420358	-0.148416	0.146588
H80	H	-0.534983	-0.091879	0.189518
H81	H	-0.845678	-0.000007	-0.313551
O82	O	-0.911033	-0.100093	-0.431780
C83	C	-0.906746	-0.209501	-0.434762
C84	C	-0.952967	-0.152574	-0.407647
H85	H	-0.940640	-0.251946	-0.415277
H86	H	-0.839010	-0.209491	-0.402926
H87	H	-0.906399	-0.209205	-0.506220
H88	H	-0.953378	-0.152833	-0.336200
H89	H	-1.020678	-0.152605	-0.439544
O90	O	-0.570334	0.000075	-0.044782
C91	C	-0.703347	-0.000346	-0.133186
C92	C	-0.658462	-0.000368	-0.042413
H93	H	-0.774606	-0.000692	-0.131301
H94	H	-0.683948	-0.042430	-0.167949
H95	H	-0.684706	0.042146	-0.167516
H96	H	-0.677079	-0.042832	-0.008012
H97	H	-0.677862	0.041744	-0.007714
H98	H	-0.420584	0.000096	0.261390
H99	H	-1.095880	-0.149642	0.011220
O100	O	-0.911126	0.100164	-0.431833
C101	C	-0.906801	0.209572	-0.434700
C102	C	-0.952989	0.152648	-0.407564
H103	H	-0.940618	0.252020	-0.415074
H104	H	-0.906491	0.209369	-0.506164
H105	H	-0.839055	0.209465	-0.402897
H106	H	-1.020754	0.152718	-0.439308
H107	H	-0.953230	0.152872	-0.336093
O108	O	-0.879664	-0.729973	0.227395
C109	C	-0.766335	-0.736732	0.340628
C110	C	-0.829176	-0.771661	0.277773
H111	H	-0.725487	-0.770422	0.381363
H112	H	-0.802551	-0.706966	0.382667
H113	H	-0.724402	-0.706942	0.304338
H114	H	-0.871124	-0.801483	0.313994
H115	H	-0.792907	-0.801388	0.235734
O116	O	-0.445662	0.100200	0.033610
C117	C	-0.330351	0.156602	-0.013713
C118	C	-0.357374	0.099632	0.032454
H119	H	-0.258970	0.156156	-0.014679
H120	H	-0.349358	0.199031	0.020537
H121	H	-0.362736	0.156775	-0.081237
H122	H	-0.325002	0.099400	0.099979
H123	H	-0.338381	0.057228	-0.001862
H124	H	-1.095884	-0.265025	0.011192
H125	H	-1.066881	-0.091986	-0.342560
O126	O	-1.104987	-0.855114	0.002151
C127	C	-1.218251	-0.848386	-0.111152
C128	C	-1.155391	-0.813440	-0.048337
H129	H	-1.259006	-0.814708	-0.151999
H130	H	-1.260270	-0.878145	-0.074914
H131	H	-1.181965	-0.878185	-0.153087
H132	H	-1.191608	-0.783608	-0.006386
H133	H	-1.113372	-0.783720	-0.084627
H134	H	-1.095929	-0.734817	0.011163
O135	O	-1.151935	-0.000116	-0.463093
C136	C	-1.285136	-0.052747	-0.484793
C137	C	-1.194338	-0.052673	-0.439967
H138	H	-1.319451	-0.095227	-0.466099
H139	H	-1.283339	-0.052383	-0.556066
H140	H	-1.319855	-0.010653	-0.465355
H141	H	-1.159566	-0.094759	-0.459336
H142	H	-1.196195	-0.053005	-0.368703
H143	H	-1.066931	0.091979	-0.342433
H144	H	-1.153013	-0.442217	-0.045910
H145	H	-0.888690	-0.850258	0.218341
H146	H	-1.153019	-0.557597	-0.045923
O147	O	-0.879730	-0.144726	0.227473
C148	C	-0.830462	-0.125295	0.373502
C149	C	-0.893266	-0.160270	0.310665
H150	H	-0.841372	-0.137859	0.440776
H151	H	-0.840275	-0.074363	0.363763
H152	H	-0.763196	-0.137803	0.362478
H153	H	-0.960557	-0.147813	0.321651
H154	H	-0.883380	-0.211194	0.320419
H155	H	-0.831518	-0.557675	0.275430
O156	O	-0.822504	-0.437386	0.284483
C157	C	-0.709164	-0.444138	0.397706
C158	C	-0.772007	-0.479071	0.334858
H159	H	-0.668309	-0.477825	0.438438
H160	H	-0.745379	-0.414374	0.439749
H161	H	-0.667239	-0.414347	0.361410
H162	H	-0.813948	-0.508896	0.371085
H163	H	-0.735740	-0.508797	0.292816
O164	O	-0.879540	-0.270073	0.227262
C165	C	-0.733486	-0.289532	0.276436
C166	C	-0.796366	-0.254532	0.213675
H167	H	-0.666226	-0.276970	0.265485
H168	H	-0.743221	-0.340461	0.266618
H169	H	-0.744468	-0.277044	0.343716
H170	H	-0.785421	-0.266969	0.146370
H171	H	-0.786615	-0.203612	0.223567
