data_functionalizedCrystal
_audit_creation_method	'MofGen! by Chris Wilmer'
_symmetry_space_group_name_H-M	'P1'
_symmetry_Int_Tables_number	1
_symmetry_cell_setting	triclinic
loop_
_symmetry_equiv_pos_as_xyz
  x,y,z
_cell_length_a	20.016444
_cell_length_b	12.970454
_cell_length_c	12.970454
_cell_angle_alpha	120.000713
_cell_angle_beta	89.999834
_cell_angle_gamma	60.002422
loop_
_atom_site_label
_atom_site_type_symbol
_atom_site_fract_x
_atom_site_fract_y
_atom_site_fract_z
Zr1	Zr	0.643582	1.128568	0.135306
O2	O	0.536913	1.343650	0.299931
O3	O	0.676282	0.913479	0.084839
O4	O	0.676286	1.128569	0.299930
O5	O	0.536907	1.128561	-0.084826
O6	O	0.786225	1.128577	0.299930
O7	O	0.536909	1.128560	0.084840
O8	O	0.786220	0.743821	-0.084828
O9	O	0.536913	1.513317	0.299932
O10	O	0.772275	1.001957	0.063317
O11	O	0.690227	1.001951	-0.063304
O12	O	0.690230	1.255192	0.189938
O13	O	0.608182	1.255186	0.063318
Zr14	Zr	0.818920	1.128582	-0.135292
Zr15	Zr	0.818924	1.128581	0.135307
Zr16	Zr	0.643578	1.128569	-0.135292
Zr17	Zr	0.643582	1.399168	0.135308
Zr18	Zr	0.818920	0.857982	-0.135293
O19	O	0.786220	1.343670	-0.084825
O20	O	0.786225	1.343668	0.299931
O21	O	0.536907	1.343652	-0.084825
O22	O	0.925590	0.913500	-0.299916
O23	O	0.925595	0.913498	0.084840
O24	O	0.676277	0.913482	-0.299917
O25	O	0.925595	1.128589	0.084841
O26	O	0.786217	1.128581	-0.299916
O27	O	0.676277	1.128573	-0.299916
O28	O	0.925593	1.128590	-0.084826
O29	O	0.676286	1.513327	0.299932
O30	O	0.786217	0.743822	-0.299918
O31	O	0.925590	0.743833	-0.299917
O32	O	0.925593	0.743831	-0.084828
O33	O	0.536909	1.513318	0.084842
O34	O	0.676282	1.513329	0.084842
O35	O	0.772272	1.001958	-0.189924
O36	O	0.854320	1.001963	-0.063303
O37	O	0.772275	1.255198	0.063318
O38	O	0.690227	1.255193	-0.063302
C39	C	0.731251	0.790096	0.000006
C40	C	0.731251	0.675219	0.000005
C41	C	0.511926	1.128559	0.000007
C42	C	0.437489	1.128553	0.000007
C43	C	0.309048	0.996384	-0.066091
C44	C	0.239103	0.996390	-0.066094
C45	C	0.153456	1.260776	0.066108
C46	C	0.223400	1.260768	0.066103
C47	C	0.301196	1.128568	0.000006
C48	C	0.161306	1.128582	0.000008
C49	C	0.085468	1.128589	0.000005
C50	C	0.377039	1.128560	0.000007
C51	C	0.950576	1.128591	0.000008
C52	C	1.025013	1.128597	0.000008
C53	C	0.731256	1.128573	0.338485
C54	C	0.731258	1.128572	0.453361
C55	C	0.731251	1.467054	0.000009
C56	C	0.731251	1.581931	0.000010
C57	C	0.731249	1.128577	0.661530
C58	C	0.731255	1.128577	0.546653
C59	C	0.950576	0.790112	0.000006
C60	C	1.025013	0.675241	0.000006
C61	C	0.731246	0.790098	-0.338472
C62	C	0.731244	0.675222	-0.453349
C63	C	0.950571	0.790114	-0.338471
C64	C	1.025007	0.675243	-0.453348
C65	C	0.511931	1.467036	0.338486
C66	C	0.437495	1.581907	0.453362
C67	C	0.511926	1.467038	0.000009
C68	C	0.437489	1.581909	0.000009
C69	C	0.731256	1.467052	0.338486
C70	C	0.731258	1.581928	0.453363
C71	C	1.017143	0.621292	0.066111
C72	C	1.087078	0.513373	0.066136
C73	C	1.164882	0.459398	0.000047
C74	C	1.172751	0.513357	-0.066060
C75	C	1.102817	0.621281	-0.066077
C76	C	1.102798	0.621302	-0.441201
C77	C	1.172745	0.513383	-0.549129
C78	C	1.164898	0.459402	-0.669204
C79	C	1.087098	0.513354	-0.681348
C80	C	1.017154	0.621277	-0.573421
C81	C	0.359704	1.635861	0.441215
C82	C	0.289757	1.743813	0.549144
C83	C	0.297604	1.797800	0.669218
C84	C	0.375404	1.743841	0.681363
C85	C	0.445349	1.635899	0.573436
C86	C	0.445359	1.635869	-0.066085
C87	C	0.375424	1.743817	-0.066080
C88	C	0.297620	1.797797	0.000012
C89	C	0.289751	1.743833	0.066115
C90	C	0.359685	1.635894	0.066116
H91	H	0.372390	0.888738	-0.119925
H92	H	0.217000	1.368415	0.119924
H93	H	0.381847	1.787737	-0.119914
C94	C	1.111450	0.680669	-0.309128
N95	N	1.117973	0.725386	-0.209654
C96	C	1.258343	0.453956	-0.138764
N97	N	1.322814	0.409205	-0.193531
H98	H	0.353266	1.591963	0.119935
C99	C	1.241848	0.340671	-0.787915
N100	N	1.299810	0.251238	-0.877325
C101	C	0.530937	1.576518	-0.138791
N102	N	0.595393	1.531830	-0.193549
H103	H	0.245504	0.888753	-0.119919
C104	C	0.067876	1.406188	0.138826
N105	N	0.003417	1.515716	0.193605
H106	H	1.236086	0.469466	-0.539218
H107	H	0.953797	0.665238	0.119944
H108	H	0.240682	1.885688	0.000001
C109	C	0.204159	1.803207	0.138791
N110	N	0.139688	1.847918	0.193519
H111	H	1.080722	0.469386	-0.779127
C112	C	1.241804	0.340667	0.000068
N113	N	1.299739	0.251234	0.000084
H114	H	1.109236	0.665192	-0.119915
C115	C	0.931584	0.680598	-0.586805
N116	N	0.867134	0.725276	-0.596895
H117	H	0.353299	1.591911	0.343454
H118	H	0.226416	1.787728	0.539230
H119	H	1.080655	0.469453	0.119968
H120	H	0.381783	1.787812	0.779140
C121	C	0.220654	1.916529	0.787930
N122	N	0.162692	2.005950	0.877339
C123	C	0.530918	1.576543	0.586819
N124	N	0.595368	1.531839	0.596909
