data_functionalizedCrystal
_audit_creation_method	'MofGen! by Chris Wilmer'
_symmetry_space_group_name_H-M	'P1'
_symmetry_Int_Tables_number	1
_symmetry_cell_setting	triclinic
loop_
_symmetry_equiv_pos_as_xyz
  x,y,z
_cell_length_a	19.077105
_cell_length_b	16.625546
_cell_length_c	19.077174
_cell_angle_alpha	92.270997
_cell_angle_beta	85.483752
_cell_angle_gamma	87.718759
loop_
_atom_site_label
_atom_site_type_symbol
_atom_site_fract_x
_atom_site_fract_y
_atom_site_fract_z
Zn1	Zn	1.093718	-0.391770	-0.441833
Zn2	Zn	1.593718	0.108230	0.058167
Zn3	Zn	1.088907	-0.520961	-0.323942
Zn4	Zn	1.588907	-0.020961	0.176058
Zn5	Zn	0.971103	-0.380499	-0.319231
Zn6	Zn	1.471103	0.119501	0.180769
Zn7	Zn	0.975801	-0.520909	-0.437060
Zn8	Zn	1.475801	-0.020909	0.062940
O9	O	1.032382	-0.453535	-0.380517
O10	O	1.532382	0.046465	0.119483
O11	O	1.191730	-0.413647	-0.430164
O12	O	1.691730	0.086353	0.069836
O13	O	1.069300	-0.497634	-0.224668
O14	O	1.569300	0.002366	0.275332
O15	O	0.987415	-0.269165	-0.335520
O16	O	1.487415	0.230835	0.164480
O17	O	1.188196	-0.508563	-0.343550
O18	O	1.688196	-0.008563	0.156450
O19	O	1.077500	-0.277446	-0.425596
O20	O	1.577500	0.222554	0.074404
O21	O	0.982750	-0.394436	-0.221206
O22	O	1.482750	0.105564	0.278794
O23	O	0.873076	-0.394385	-0.330892
O24	O	1.373076	0.105615	0.169108
O25	O	0.995423	-0.508473	-0.536343
O26	O	1.495423	-0.008473	-0.036343
O27	O	0.876527	-0.497544	-0.417460
O28	O	1.376527	0.002456	0.082540
O29	O	1.082056	-0.413595	-0.539850
O30	O	1.582056	0.086405	-0.039850
O31	O	1.073856	-0.633783	-0.338921
O32	O	1.573856	-0.133783	0.161079
O33	O	0.990757	-0.633745	-0.422029
O34	O	1.490757	-0.133745	0.077971
C35	C	0.849223	-0.444736	-0.373147
C36	C	1.349223	0.055264	0.126853
C37	C	0.770867	-0.440993	-0.370012
C38	C	1.270867	0.059007	0.129988
C39	C	0.735868	-0.493017	-0.413539
C40	C	1.235868	0.006983	0.086461
C41	C	0.662244	-0.489489	-0.410596
C42	C	1.162244	0.010511	0.089404
C43	C	0.623621	-0.433940	-0.364122
C44	C	1.123621	0.066060	0.135878
C45	C	0.658625	-0.381910	-0.320592
C46	C	1.158625	0.118090	0.179408
C47	C	0.732248	-0.385434	-0.323539
C48	C	1.232248	0.114566	0.176461
C49	C	0.403240	-0.417627	-0.350485
C50	C	0.903240	0.082373	0.149515
C51	C	0.329612	-0.414107	-0.347540
C52	C	0.829612	0.085893	0.152460
C53	C	0.333237	-0.521686	-0.437545
C54	C	0.833237	-0.021686	0.062455
C55	C	0.406860	-0.525210	-0.440485
C56	C	0.906860	-0.025210	0.059515
C57	C	0.441858	-0.473177	-0.396959
C58	C	0.941858	0.026823	0.103041
N59	N	0.548366	-0.430334	-0.361111
N60	N	1.048366	0.069666	0.138889
N61	N	0.517112	-0.476779	-0.399974
N62	N	1.017112	0.023221	0.100026
C63	C	1.032314	-0.663021	-0.380484
C64	C	1.532314	-0.163021	0.119516
C65	C	1.032351	-0.752644	-0.380497
C66	C	1.532351	-0.252644	0.119503
C67	C	1.032477	-1.080829	-0.380575
C68	C	1.532477	-0.580829	0.119425
C69	C	1.032439	-0.989518	-0.380555
C70	C	1.532439	-0.489518	0.119445
C71	C	1.032413	-0.916740	-0.380536
C72	C	1.532413	-0.416740	0.119464
C73	C	1.032377	-0.825423	-0.380516
C74	C	1.532377	-0.325423	0.119484
C75	C	1.216257	-0.462368	-0.387915
C76	C	1.716257	0.037632	0.112085
C77	C	1.294613	-0.466132	-0.391068
C78	C	1.794613	0.033868	0.108932
C79	C	1.039800	-0.462286	-0.564390
C80	C	1.539800	0.037714	-0.064390
C81	C	1.042961	-0.466015	-0.642746
C82	C	1.542961	0.033985	-0.142746
C83	C	1.032470	-0.243232	-0.380565
C84	C	1.532470	0.256768	0.119435
C85	C	1.032508	-0.153614	-0.380586
C86	C	1.532508	0.346386	0.119414
C87	C	0.999386	-0.414038	-0.677755
C88	C	1.499386	0.085962	-0.177755
C89	C	1.002353	-0.417549	-0.751379
C90	C	1.502353	0.082451	-0.251379
C91	C	1.048900	-0.473032	-0.789992
C92	C	1.548900	0.026968	-0.289992
C93	C	1.092477	-0.525014	-0.754978
C94	C	1.592477	-0.025014	-0.254978
C95	C	1.089505	-0.521507	-0.681355
C96	C	1.589505	-0.021507	-0.181355
C97	C	1.062615	-0.489286	-1.010373
C98	C	1.562615	0.010714	-0.510373
C99	C	1.065585	-0.492788	-1.084001
C100	C	1.565585	0.007212	-0.584001
C101	C	0.975460	-0.385323	-1.080397
C102	C	1.475460	0.114677	-0.580397
C103	C	0.972496	-0.381818	-1.006773
C104	C	1.472496	0.118182	-0.506773
C105	C	1.016070	-0.433802	-0.971765
C106	C	1.516070	0.066198	-0.471765
N107	N	1.051935	-0.476620	-0.865247
N108	N	1.551935	0.023380	-0.365247
N109	N	1.013030	-0.430218	-0.896511
N110	N	1.513030	0.069782	-0.396511
C111	C	1.025034	-0.444761	-0.197360
C112	C	1.525034	0.055239	0.302640
C113	C	1.022010	-0.440812	-0.119010
C114	C	1.522010	0.059188	0.380990
H115	H	0.767310	-0.538254	-0.451381
H116	H	1.267310	-0.038254	0.048619
C117	C	1.116203	-0.552910	-1.125970
C118	C	1.616203	-0.052910	-0.625970
C119	C	1.163126	-0.511445	-1.170055
C120	C	1.663126	-0.011445	-0.670055
C121	C	1.209767	-0.566798	-1.208722
C122	C	1.709767	-0.066798	-0.708722
H123	H	1.090455	-0.588125	-1.153657
H124	H	1.590455	-0.088125	-0.653657
H125	H	1.141771	-0.583363	-1.094605
H126	H	1.641771	-0.083363	-0.594605
H127	H	1.137561	-0.481006	-1.201417
H128	H	1.637561	0.018994	-0.701417
H129	H	1.188891	-0.476233	-1.142386
H130	H	1.688891	0.023767	-0.642386
H131	H	1.235335	-0.597251	-1.177357
H132	H	1.735335	-0.097251	-0.677357
H133	H	1.184012	-0.602011	-1.236405
H134	H	1.684012	-0.102011	-0.736405
H135	H	1.241613	-0.538672	-1.238633
H136	H	1.741613	-0.038672	-0.738633
C137	C	1.109964	-0.545584	-0.972279
C138	C	1.609964	-0.045584	-0.472279
C139	C	1.153447	-0.500087	-0.931826
C140	C	1.653447	-0.000087	-0.431826
C141	C	1.197070	-0.551922	-0.896711
C142	C	1.697070	-0.051922	-0.396711
H143	H	1.138178	-0.579146	-1.005740
H144	H	1.638178	-0.079146	-0.505740
H145	H	1.081841	-0.578039	-0.942426
H146	H	1.581841	-0.078039	-0.442426
H147	H	1.181567	-0.467646	-0.961676
H148	H	1.681567	0.032354	-0.461676
H149	H	1.125252	-0.466528	-0.898352
H150	H	1.625252	0.033472	-0.398352
H151	H	1.168947	-0.584377	-0.866858
H152	H	1.668947	-0.084377	-0.366858
H153	H	1.225279	-0.585481	-0.930178
H154	H	1.725279	-0.085481	-0.430178
H155	H	1.226574	-0.521060	-0.869255
H156	H	1.726574	-0.021060	-0.369255
C157	C	0.948731	-0.353895	-0.635867
C158	C	1.448731	0.146105	-0.135867
C159	C	0.879696	-0.368972	-0.650953
C160	C	1.379696	0.131028	-0.150953
C161	C	0.833010	-0.313593	-0.612374
C162	C	1.333010	0.186407	-0.112374
H163	H	0.959460	-0.300756	-0.648328
H164	H	1.459460	0.199244	-0.148328
H165	H	0.953153	-0.359253	-0.586997
H166	H	1.453153	0.140747	-0.086997
H167	H	0.875276	-0.363607	-0.699813
H168	H	1.375276	0.136393	-0.199813
H169	H	0.868944	-0.422100	-0.638490
H170	H	1.368944	0.077900	-0.138490
H171	H	0.837433	-0.318951	-0.563504
H172	H	1.337433	0.181049	-0.063504
H173	H	0.843746	-0.260457	-0.624838
H174	H	1.343746	0.239543	-0.124838
H175	H	0.786165	-0.323819	-0.622600
H176	H	1.286165	0.176181	-0.122600
H177	H	0.304734	-0.564048	-0.472983
H178	H	0.804734	-0.064048	0.027017
C179	C	0.287603	-0.353724	-0.297203
C180	C	0.787603	0.146276	0.202797
C181	C	0.246969	-0.302019	-0.335526
C182	C	0.746969	0.197981	0.164474
C183	C	0.208258	-0.246386	-0.289186
C184	C	0.708258	0.253614	0.210814
H185	H	0.318917	-0.323158	-0.271694
H186	H	0.818917	0.176842	0.228306
H187	H	0.257580	-0.381628	-0.265287
H188	H	0.757580	0.118372	0.234713
H189	H	0.276988	-0.274117	-0.367430
H190	H	0.776988	0.225883	0.132570
H191	H	0.215641	-0.332562	-0.361034
H192	H	0.715641	0.167438	0.138966
H193	H	0.178236	-0.274291	-0.257269
H194	H	0.678236	0.225709	0.242731
H195	H	0.239578	-0.215827	-0.263679
H196	H	0.739578	0.284173	0.236321
H197	H	0.180679	-0.211303	-0.315180
H198	H	0.680679	0.288697	0.184820
H199	H	1.130372	-0.570194	-0.786422
H200	H	1.630372	-0.070194	-0.286422
H201	H	1.124994	-0.563826	-0.652852
H202	H	1.624994	-0.063826	-0.152852
C203	C	0.441315	-0.361272	-0.303185
C204	C	0.941315	0.138728	0.196815
C205	C	0.481749	-0.406709	-0.259630
C206	C	0.981749	0.093291	0.240370
C207	C	0.516842	-0.354820	-0.216050
C208	C	1.016842	0.145180	0.283950
H209	H	0.407842	-0.327672	-0.275021
H210	H	0.907842	0.172328	0.224979
H211	H	0.471180	-0.328858	-0.331336
H212	H	0.971180	0.171142	0.168664
H213	H	0.451887	-0.439109	-0.231481
H214	H	0.951887	0.060891	0.268519
H215	H	0.515235	-0.440307	-0.287774
H216	H	1.015235	0.059693	0.212226
H217	H	0.546706	-0.322407	-0.244201
H218	H	1.046706	0.177593	0.255799
H219	H	0.483363	-0.321223	-0.187891
H220	H	0.983363	0.178777	0.312109
H221	H	0.544285	-0.385642	-0.186498
H222	H	1.044285	0.114358	0.313502
C223	C	0.921909	-0.321705	-0.964764
C224	C	1.421909	0.178295	-0.464764
C225	C	0.875010	-0.363172	-0.920656
C226	C	1.375010	0.136828	-0.420656
C227	C	0.828406	-0.307819	-0.881942
C228	C	1.328406	0.192181	-0.381942
H229	H	0.896312	-0.291229	-0.996079
H230	H	1.396312	0.208771	-0.496079
H231	H	0.947709	-0.286509	-0.937096
H232	H	1.447709	0.213491	-0.437096
H233	H	0.849212	-0.398353	-0.948321
H234	H	1.349212	0.101647	-0.448321
H235	H	0.900587	-0.393644	-0.889327
H236	H	1.400587	0.106356	-0.389327
H237	H	0.854206	-0.272624	-0.854274
H238	H	1.354206	0.227376	-0.354274
H239	H	0.802814	-0.277346	-0.913262
H240	H	1.302814	0.222654	-0.413262
H241	H	0.796584	-0.335946	-0.852005
H242	H	1.296584	0.164054	-0.352005
H243	H	0.633752	-0.531854	-0.446040
H244	H	1.133752	-0.031854	0.053960
C245	C	0.770119	-0.328914	-0.276194
C246	C	1.270119	0.171086	0.223806
C247	C	0.720538	-0.279528	-0.234847
C248	C	1.220538	0.220472	0.265153
C249	C	0.755398	-0.227457	-0.191217
C250	C	1.255398	0.272543	0.308783
H251	H	0.799945	-0.296416	-0.304285
H252	H	1.299945	0.203584	0.195715
H253	H	0.797565	-0.359596	-0.246541
H254	H	1.297565	0.140404	0.253459
H255	H	0.693104	-0.248849	-0.264496
H256	H	1.193104	0.251151	0.235504
H257	H	0.690709	-0.312004	-0.206740
H258	H	1.190709	0.187996	0.293260
H259	H	0.782844	-0.258139	-0.161564
H260	H	1.282844	0.241861	0.338436
H261	H	0.785223	-0.194965	-0.219314
H262	H	1.285223	0.305035	0.280686
H263	H	0.721762	-0.193948	-0.163153
H264	H	1.221762	0.306052	0.336847
C265	C	0.928179	-0.328988	-1.118534
C266	C	1.428179	0.171012	-0.618534
C267	C	0.940727	-0.343945	-1.191274
C268	C	1.440727	0.156055	-0.691274
C269	C	0.897174	-0.292072	-1.226427
C270	C	1.397174	0.207928	-0.726427
H271	H	0.937988	-0.274703	-1.106981
H272	H	1.437988	0.225297	-0.606981
H273	H	0.880309	-0.337950	-1.104599
H274	H	1.380309	0.162050	-0.604599
H275	H	0.988587	-0.334976	-1.205204
H276	H	1.488587	0.165024	-0.705204
H277	H	0.930914	-0.398220	-1.202847
H278	H	1.430914	0.101780	-0.702847
H279	H	0.849304	-0.301035	-1.212491
H280	H	1.349304	0.198965	-0.712491
H281	H	0.906987	-0.237791	-1.214868
H282	H	1.406987	0.262209	-0.714868
H283	H	0.905678	-0.302219	-1.275784
H284	H	1.405678	0.197781	-0.775784
H285	H	0.438302	-0.570446	-0.478328
H286	H	0.938302	-0.070446	0.021672
H287	H	0.627172	-0.336677	-0.282755
H288	H	1.127172	0.163323	0.217245
H289	H	0.966867	-0.375227	-0.779880
H290	H	1.466867	0.124773	-0.279880
