data_functionalizedCrystal
_audit_creation_method	'MofGen! by Chris Wilmer'
_symmetry_space_group_name_H-M	'P1'
_symmetry_Int_Tables_number	1
_symmetry_cell_setting	triclinic
loop_
_symmetry_equiv_pos_as_xyz
  x,y,z
_cell_length_a	27.732048
_cell_length_b	27.732048
_cell_length_c	26.809956
_cell_angle_alpha	90.000636
_cell_angle_beta	89.996742
_cell_angle_gamma	97.357345
loop_
_atom_site_label
_atom_site_type_symbol
_atom_site_fract_x
_atom_site_fract_y
_atom_site_fract_z
O1	O	0.640931	-0.057510	-0.041421
O2	O	0.500138	-0.066256	-0.041436
O3	O	0.574907	0.008514	-0.041419
O4	O	0.566162	-0.132280	-0.041439
O5	O	0.574893	0.008502	0.041541
O6	O	0.500123	-0.066267	0.041523
O7	O	0.640917	-0.057522	0.041539
Zn8	Zn	0.570518	-0.061896	0.054702
Zn9	Zn	0.570536	-0.061881	-0.054600
O10	O	0.566147	-0.132291	0.041521
C11	C	0.482124	-0.066078	0.000041
C12	C	0.428469	-0.065525	0.000036
C13	C	0.089654	-0.106229	0.000051
C14	C	-0.112006	-0.104178	0.000056
O15	O	-0.143262	-0.141398	0.000073
N16	N	-0.131130	-0.059843	0.000062
C17	C	-0.099835	-0.016017	0.000069
O18	O	-0.120728	0.021740	0.000079
C19	C	0.101824	-0.018068	0.000068
C20	C	0.120944	-0.062407	0.000057
C21	C	0.108775	-0.150563	0.000042
C22	C	0.159187	-0.151076	0.000038
C23	C	0.190477	-0.107253	0.000044
C24	C	0.171356	-0.062919	0.000054
C25	C	0.133117	0.025757	0.000079
C26	C	0.183535	0.025240	0.000080
C27	C	0.202655	-0.019098	0.000069
C28	C	0.253059	-0.019609	0.000056
N29	N	0.272183	-0.063944	0.000050
C30	C	0.240892	-0.107766	0.000044
C31	C	-0.205709	-0.014943	0.000069
C32	C	-0.256124	-0.014430	0.000068
C33	C	-0.268291	-0.102591	0.000056
C34	C	-0.217876	-0.103104	0.000053
C35	C	-0.186585	-0.059278	0.000063
C36	C	0.346761	-0.108839	0.000036
C37	C	0.397178	-0.109347	0.000030
C38	C	0.409341	-0.021186	0.000044
C39	C	0.358929	-0.020678	0.000048
C40	C	0.327639	-0.064508	0.000045
O41	O	0.284343	0.017592	0.000045
O42	O	0.261794	-0.145518	0.000045
C43	C	0.039242	-0.105716	0.000055
C44	C	0.020120	-0.061382	0.000065
C45	C	0.051411	-0.017560	0.000071
C46	C	-0.030294	-0.060869	0.000065
C47	C	-0.061585	-0.104691	0.000059
C48	C	-0.042461	-0.149026	0.000053
C49	C	0.007951	-0.149539	0.000049
C50	C	0.032287	0.026775	0.000077
C51	C	-0.018125	0.027284	0.000080
C52	C	-0.049416	-0.016538	0.000074
C53	C	0.574716	0.026515	0.000062
C54	C	0.574164	0.080170	0.000066
C55	C	0.658931	-0.057699	0.000060
C56	C	0.712586	-0.058252	0.000062
C57	C	0.566338	-0.150292	0.000039
C58	C	0.566891	-0.203947	0.000031
N59	N	0.570509	-0.061906	0.129298
C60	C	0.614867	0.418985	0.000045
C61	C	0.612816	0.620645	0.000038
O62	O	0.650037	0.651900	0.000021
N63	N	0.568481	0.639768	0.000034
C64	C	0.524656	0.608474	0.000028
O65	O	0.486899	0.629367	0.000019
C66	C	0.526707	0.406815	0.000031
C67	C	0.571045	0.387694	0.000041
C68	C	0.659202	0.399864	0.000054
C69	C	0.659714	0.349452	0.000059
C70	C	0.615892	0.318161	0.000054
C71	C	0.571557	0.337282	0.000045
C72	C	0.482882	0.375521	0.000022
C73	C	0.483399	0.325104	0.000021
C74	C	0.527737	0.305983	0.000031
C75	C	0.528247	0.255580	0.000045
N76	N	0.572583	0.236456	0.000050
C77	C	0.616405	0.267747	0.000054
C78	C	0.523582	0.714348	0.000027
C79	C	0.523069	0.764762	0.000027
C80	C	0.611230	0.776930	0.000036
C81	C	0.611742	0.726514	0.000040
C82	C	0.567917	0.695224	0.000031
C83	C	0.617477	0.161878	0.000064
C84	C	0.617986	0.111461	0.000071
C85	C	0.529825	0.099298	0.000059
C86	C	0.529316	0.149710	0.000055
C87	C	0.573147	0.180999	0.000056
O88	O	0.491047	0.224296	0.000057
O89	O	0.654156	0.246844	0.000053
C90	C	0.614355	0.469397	0.000041
C91	C	0.570021	0.488518	0.000032
C92	C	0.526198	0.457228	0.000027
C93	C	0.569508	0.538933	0.000032
C94	C	0.613330	0.570223	0.000036
C95	C	0.657665	0.551100	0.000041
C96	C	0.658177	0.500688	0.000045
C97	C	0.481863	0.476351	0.000023
C98	C	0.481355	0.526764	0.000019
C99	C	0.525177	0.558054	0.000023
N100	N	0.570549	-0.061867	-0.129196
C101	C	0.603640	-0.028781	0.473932
C102	C	0.603652	-0.028774	0.682810
O103	O	0.631801	-0.000613	0.709820
N104	N	0.570539	-0.061870	0.708925
C105	C	0.537419	-0.094969	0.682818
O106	O	0.509252	-0.123116	0.709824
C107	C	0.537406	-0.094974	0.473941
C108	C	0.570524	-0.061878	0.447829
C109	C	0.636755	0.004312	0.447819
C110	C	0.636754	0.004308	0.395603
C111	C	0.603637	-0.028789	0.369500
C112	C	0.570522	-0.061882	0.395612
C113	C	0.504284	-0.128070	0.447835
C114	C	0.504283	-0.128067	0.395613
C115	C	0.537401	-0.094972	0.369500
C116	C	0.537405	-0.094983	0.317293
N117	N	0.570517	-0.061887	0.291177
C118	C	0.603633	-0.028790	0.317281
C119	C	0.537429	-0.094965	0.792481
C120	C	0.537433	-0.094964	0.844700
C121	C	0.603665	-0.028768	0.844689
C122	C	0.603663	-0.028772	0.792469
C123	C	0.570542	-0.061868	0.766366
C124	C	0.603628	-0.028801	0.207623
C125	C	0.603625	-0.028809	0.155402
C126	C	0.537392	-0.095003	0.155418
C127	C	0.537396	-0.094997	0.207635
C128	C	0.570516	-0.061892	0.233735
O129	O	0.509266	-0.123126	0.290250
O130	O	0.631789	-0.000640	0.290266
C131	C	0.603642	-0.028777	0.526149
C132	C	0.570527	-0.061870	0.552261
C133	C	0.537410	-0.094968	0.526158
C134	C	0.570531	-0.061870	0.604480
C135	C	0.603647	-0.028773	0.630584
C136	C	0.636759	0.004324	0.604468
C137	C	0.636758	0.004320	0.552252
C138	C	0.504298	-0.128064	0.552273
C139	C	0.504303	-0.128058	0.604489
C140	C	0.537419	-0.094961	0.630593
H141	H	0.083302	-0.186251	0.000038
O142	O	0.668861	0.036523	0.629854
C143	C	0.643193	0.066154	0.660069
H144	H	0.605081	0.066706	0.644330
H145	H	0.640542	0.051005	0.699643
C146	C	0.717028	0.117563	0.680208
C147	C	0.670220	0.118244	0.660874
H148	H	0.733700	0.149694	0.680708
H149	H	0.734322	0.097599	0.659853
H150	H	0.714812	0.104936	0.713185
H151	H	0.672436	0.130865	0.627896
H152	H	0.652927	0.138212	0.681224
H153	H	0.694889	0.425336	0.000056
O154	O	0.505219	-0.127135	0.869986
C155	C	0.475999	-0.156352	0.835742
H156	H	0.475604	-0.136535	0.798520
H157	H	0.491422	-0.192155	0.830186
C158	C	0.424264	-0.191014	0.901840
C159	C	0.423776	-0.166672	0.856124
H160	H	0.392051	-0.197382	0.914413
H161	H	0.443951	-0.171331	0.924911
H162	H	0.437119	-0.220847	0.897203
H163	H	0.410927	-0.136838	0.860762
H164	H	0.404085	-0.186350	0.833054
H165	H	-0.293777	-0.138273	0.000051
H166	H	0.646911	0.802415	0.000040
O167	O	0.472065	-0.160237	0.473115
C168	C	0.442846	-0.189450	0.438868
H169	H	0.442456	-0.169631	0.401646
H170	H	0.458268	-0.225254	0.433311
C171	C	0.391104	-0.224112	0.504960
C172	C	0.390621	-0.199768	0.459245
H173	H	0.358890	-0.230479	0.517530
H174	H	0.410790	-0.204432	0.528034
H175	H	0.403958	-0.253946	0.500323
H176	H	0.377774	-0.169933	0.463883
H177	H	0.370932	-0.219444	0.436172
O178	O	0.177695	-0.194179	-0.000036
C179	C	0.161677	-0.220855	-0.043010
H180	H	0.126810	-0.207935	-0.057333
H181	H	0.190897	-0.215040	-0.073096
C182	C	0.194633	-0.291173	-0.012375
C183	C	0.151807	-0.275307	-0.029963
H184	H	0.188546	-0.324762	-0.004328
H185	H	0.205426	-0.273200	0.016577
H186	H	0.218979	-0.286323	-0.037449
H187	H	0.127464	-0.280152	-0.004887
H188	H	0.141009	-0.293282	-0.058911
O189	O	0.505323	-0.127142	0.767075
C190	C	0.530983	-0.156797	0.736879
H191	H	0.568948	-0.137280	0.729043
H192	H	0.534008	-0.192495	0.757010
C193	C	0.457015	-0.191301	0.696910
C194	C	0.503642	-0.167329	0.687282
H195	H	0.440150	-0.197801	0.666317
H196	H	0.439727	-0.171324	0.717255
H197	H	0.459542	-0.221047	0.713687
H198	H	0.501115	-0.137581	0.670510
H199	H	0.520930	-0.187302	0.666932
H200	H	0.486964	0.780325	0.000028
O201	O	0.062611	0.069391	0.000058
C202	C	0.034915	0.108627	0.000077
H203	H	-0.002806	0.096065	-0.015626
H204	H	0.031423	0.122231	0.039879
C205	C	0.106661	0.165507	-0.013168
C206	C	0.060333	0.150079	-0.032459
H207	H	0.122341	0.191078	-0.033236
H208	H	0.125321	0.139073	-0.013179
H209	H	0.103745	0.176841	0.019999
H210	H	0.063250	0.138740	-0.065623
H211	H	0.041674	0.176512	-0.032454
O212	O	0.480962	0.684024	0.000045
C213	C	0.441727	0.711721	0.000030
H214	H	0.454289	0.749441	0.015735
H215	H	0.428123	0.715213	-0.039770
C216	C	0.384846	0.639975	0.013274
C217	C	0.400274	0.686303	0.032567
H218	H	0.359274	0.624296	0.033342
H219	H	0.411279	0.621315	0.013282
H220	H	0.373513	0.642892	-0.019893
H221	H	0.411612	0.683385	0.065731
H222	H	0.373841	0.704962	0.032565
H223	H	0.477335	-0.155012	0.625747
H224	H	0.446177	0.450879	0.000018
O225	O	0.340408	0.022421	-0.000014
C226	C	0.356415	0.049112	-0.042984
H227	H	0.391289	0.036209	-0.057316
H228	H	0.327196	0.043293	-0.073066
C229	C	0.323433	0.119407	-0.012323
C230	C	0.366267	0.103562	-0.029923
H231	H	0.329508	0.152994	-0.004268
H232	H	0.312646	0.101424	0.016626
H233	H	0.299087	0.114554	-0.037395
H234	H	0.390609	0.108409	-0.004849
H235	H	0.377058	0.121547	-0.058867
O236	O	0.654854	0.708023	0.000022
C237	C	0.693419	0.746458	0.000040
H238	H	0.680129	0.780610	-0.015665
H239	H	0.706912	0.753689	0.039841
C240	C	0.751595	0.690592	-0.013203
C241	C	0.735273	0.732538	-0.032495
H242	H	0.777414	0.682006	-0.033270
H243	H	0.725614	0.664698	-0.013213
H244	H	0.762836	0.696624	0.019965
H245	H	0.724027	0.726504	-0.065659
H246	H	0.761254	0.758431	-0.032491
H247	H	0.654093	0.095896	0.000080
O248	O	0.472175	-0.160239	0.370202
C249	C	0.497833	-0.189897	0.340006
H250	H	0.535801	-0.170386	0.332176
H251	H	0.500848	-0.225599	0.360135
C252	C	0.423866	-0.224384	0.300025
C253	C	0.470497	-0.200419	0.290405
H254	H	0.407003	-0.230877	0.269429
H255	H	0.406579	-0.204405	0.320370
H256	H	0.426385	-0.254133	0.316800
H257	H	0.467978	-0.170668	0.273636
H258	H	0.487783	-0.220394	0.270056
H259	H	0.023514	-0.185643	0.000042
H260	H	0.446777	0.391080	0.000011
O261	O	-0.199384	-0.146216	0.000069
C262	C	-0.237819	-0.184781	0.000048
H263	H	-0.271972	-0.171491	0.015754
H264	H	-0.245048	-0.198273	-0.039754
C265	C	-0.181954	-0.242957	0.013286
C266	C	-0.223901	-0.226635	0.032580
H267	H	-0.173369	-0.268775	0.033351
H268	H	-0.156060	-0.216975	0.013298
H269	H	-0.187984	-0.254197	-0.019882
H270	H	-0.217869	-0.215389	0.065745
H271	H	-0.249794	-0.252615	0.032575
H272	H	0.477330	-0.155015	0.531024
H273	H	0.510433	-0.121951	0.228896
H274	H	0.630597	-0.001843	0.228868
H275	H	0.663725	0.031269	0.530995
O276	O	-0.175386	0.027676	0.000053
C277	C	-0.203082	0.066912	0.000069
H278	H	-0.240801	0.054350	-0.015638
H279	H	-0.206578	0.080516	0.039870
C280	C	-0.131335	0.123793	-0.013168
C281	C	-0.177661	0.108365	-0.032464
H282	H	-0.115654	0.149364	-0.033234
H283	H	-0.112675	0.097360	-0.013177
H284	H	-0.134255	0.135126	0.019999
H285	H	-0.174740	0.097027	-0.065628
H286	H	-0.196320	0.134798	-0.032462
H287	H	0.630595	-0.001859	0.134142
H288	H	0.663720	0.031258	0.374345
H289	H	-0.271687	0.021674	0.000069
O290	O	0.316440	-0.151459	0.000007
C291	C	0.344137	-0.190694	0.000009
H292	H	0.381857	-0.178127	-0.015694
H293	H	0.347627	-0.204311	0.039805
C294	C	0.272392	-0.247571	-0.013248
C295	C	0.318720	-0.232137	-0.032539
H296	H	0.256713	-0.273136	-0.033322
H297	H	0.253732	-0.221138	-0.013247
H298	H	0.275307	-0.258915	0.019916
H299	H	0.315804	-0.220788	-0.065699
H300	H	0.337379	-0.258569	-0.032546
H301	H	0.412743	-0.145454	0.000021
H302	H	0.653168	0.187348	0.000063
O303	O	0.440781	0.294778	0.000035
C304	C	0.401542	0.322470	0.000013
H305	H	0.414098	0.360191	0.015719
H306	H	0.387945	0.325961	-0.039790
C307	C	0.344665	0.250720	0.013248
C308	C	0.360086	0.297048	0.032543
H309	H	0.319092	0.235038	0.033312
H310	H	0.371101	0.232063	0.013261
H311	H	0.333337	0.253635	-0.019921
H312	H	0.371419	0.294132	0.065709
H313	H	0.333651	0.315705	0.032536
H314	H	0.117558	0.061861	0.000088
O315	O	-0.072842	-0.191609	-0.000041
C316	C	-0.064221	-0.218554	-0.043003
H317	H	-0.046798	-0.192903	-0.073032
H318	H	-0.038757	-0.246342	-0.033294
C319	C	-0.134137	-0.276604	-0.025602
C320	C	-0.112741	-0.245099	-0.062486
H321	H	-0.164066	-0.292980	-0.037620
H322	H	-0.139945	-0.258452	0.003343
H323	H	-0.112913	-0.299756	-0.017515
H324	H	-0.133963	-0.221943	-0.070569
H325	H	-0.106939	-0.263248	-0.091434
H326	H	0.209009	0.060929	0.000089
O327	O	0.701290	0.482198	0.000029
C328	C	0.739853	0.520634	0.000044
H329	H	0.726561	0.554784	-0.015664
H330	H	0.753346	0.527870	0.039845
C331	C	0.798033	0.464772	-0.013192
C332	C	0.781708	0.506714	-0.032489
H333	H	0.823852	0.456185	-0.033258
H334	H	0.772053	0.438876	-0.013200
H335	H	0.809273	0.470807	0.019975
H336	H	0.770463	0.500677	-0.065653
H337	H	0.807688	0.532609	-0.032487
H338	H	-0.033688	0.063392	0.000085
H339	H	0.493213	0.165279	0.000061
O340	O	0.668975	0.036482	0.473094
C341	C	0.698188	0.065695	0.438839
H342	H	0.698573	0.045874	0.401617
H343	H	0.682766	0.101498	0.433286
C344	C	0.749941	0.100359	0.504916
C345	C	0.750417	0.076013	0.459201
H346	H	0.782157	0.106726	0.517477
H347	H	0.730258	0.080680	0.527995
H348	H	0.737087	0.130193	0.500283
H349	H	0.763265	0.046178	0.463836
H350	H	0.770103	0.095688	0.436123
H351	H	0.445246	0.542327	0.000015
H352	H	0.434827	0.014492	0.000047
H353	H	0.630630	-0.001822	0.771211
O354	O	0.702827	0.330962	0.000042
C355	C	0.741390	0.369399	0.000057
H356	H	0.728098	0.403549	-0.015651
H357	H	0.754883	0.376634	0.039858
C358	C	0.799570	0.313536	-0.013181
C359	C	0.783245	0.355479	-0.032477
H360	H	0.825389	0.304950	-0.033248
H361	H	0.773589	0.287640	-0.013189
H362	H	0.810810	0.319571	0.019986
H363	H	0.771999	0.349442	-0.065641
H364	H	0.809224	0.381373	-0.032475
O365	O	0.505205	-0.127198	0.130133
C366	C	0.475965	-0.156402	0.164374
H367	H	0.495776	-0.156817	0.201597
H368	H	0.440177	-0.140949	0.169930
C369	C	0.441272	-0.208107	0.098272
C370	C	0.465606	-0.208620	0.143989
H371	H	0.434880	-0.240317	0.085698
H372	H	0.460970	-0.188432	0.075203
H373	H	0.411452	-0.195228	0.102909
H374	H	0.495428	-0.221493	0.139352
H375	H	0.445913	-0.228299	0.167058
H376	H	0.693347	0.576585	0.000047
H377	H	0.494146	0.073812	0.000057
H378	H	0.630630	-0.001820	0.865951
