data_functionalizedCrystal
_audit_creation_method	'MofGen! by Chris Wilmer'
_symmetry_space_group_name_H-M	'P1'
_symmetry_Int_Tables_number	1
_symmetry_cell_setting	triclinic
loop_
_symmetry_equiv_pos_as_xyz
  x,y,z
_cell_length_a	16.992694
_cell_length_b	12.837942
_cell_length_c	15.455313
_cell_angle_alpha	92.949088
_cell_angle_beta	87.142206
_cell_angle_gamma	92.748582
loop_
_atom_site_label
_atom_site_type_symbol
_atom_site_fract_x
_atom_site_fract_y
_atom_site_fract_z
O1	O	1.060029	0.216906	-0.072020
O2	O	1.560029	0.716906	0.427980
O3	O	0.831564	0.214478	-0.072045
O4	O	1.331564	0.714478	0.427955
O5	O	0.940730	0.064370	-0.072028
O6	O	1.440730	0.564370	0.427972
O7	O	0.950863	0.367014	-0.072037
O8	O	1.450863	0.867014	0.427963
O9	O	0.934485	0.072916	0.072233
O10	O	1.434485	0.572916	0.572233
O11	O	0.825318	0.223024	0.072216
O12	O	1.325318	0.723024	0.572216
O13	O	1.053784	0.225452	0.072241
O14	O	1.553784	0.725452	0.572241
Cu15	Cu	0.938981	0.225018	0.085401
Cu16	Cu	1.438981	0.725018	0.585401
Cu17	Cu	0.946367	0.214912	-0.085205
Cu18	Cu	1.446367	0.714912	0.414795
O19	O	0.944617	0.375560	0.072224
O20	O	1.444617	0.875560	0.572224
C21	C	0.798995	0.215629	0.000082
C22	C	1.298995	0.715629	0.500082
C23	C	0.711256	0.206315	0.000072
C24	C	1.211256	0.706315	0.500072
C25	C	0.667730	0.296178	0.000070
C26	C	1.167730	0.796178	0.500070
C27	C	0.585288	0.287422	0.000082
C28	C	1.085288	0.787422	0.500082
C29	C	0.546375	0.188801	0.000091
C30	C	1.046375	0.688801	0.500091
C31	C	0.589907	0.098931	0.000095
C32	C	1.089907	0.598931	0.500095
C33	C	0.672346	0.107689	0.000089
C34	C	1.172346	0.607689	0.500089
C35	C	0.300064	0.152503	0.000115
C36	C	0.800064	0.652503	0.500115
C37	C	0.217618	0.143751	0.000118
C38	C	0.717618	0.643751	0.500118
C39	C	0.213006	0.332243	0.000107
C40	C	0.713006	0.832243	0.500107
C41	C	0.295447	0.340992	0.000096
C42	C	0.795447	0.840992	0.500096
C43	C	0.338972	0.251123	0.000105
C44	C	0.838972	0.751123	0.500105
N45	N	0.462107	0.179848	0.000100
N46	N	0.962107	0.679848	0.500100
N47	N	0.423238	0.260077	0.000102
N48	N	0.923238	0.760077	0.500102
C49	C	0.934185	0.029739	0.000102
C50	C	1.434185	0.529739	0.500102
C51	C	0.923977	-0.086184	0.000099
C52	C	1.423977	0.413816	0.500099
C53	C	1.046699	-0.316976	0.000095
C54	C	1.546699	0.183024	0.500095
C55	C	1.037111	-0.425897	0.000093
C56	C	1.537111	0.074103	0.500093
C57	C	0.895215	-0.412947	0.000086
C58	C	1.395215	0.087053	0.500086
C59	C	0.904802	-0.304027	0.000088
C60	C	1.404802	0.195973	0.500088
C61	C	0.980547	-0.256046	0.000094
C62	C	1.480547	0.243954	0.500094
C63	C	0.990134	-0.147123	0.000103
C64	C	1.490134	0.352877	0.500103
C65	C	0.848238	-0.134176	0.000090
C66	C	1.348238	0.365824	0.500090
C67	C	0.838650	-0.243096	0.000087
C68	C	1.338650	0.256904	0.500087
C69	C	1.086352	0.224301	0.000112
C70	C	1.586352	0.724301	0.500112
C71	C	1.174092	0.233614	0.000116
C72	C	1.674092	0.733614	0.500116
C73	C	0.951163	0.410191	0.000092
C74	C	1.451163	0.910191	0.500092
C75	C	0.961371	0.526114	0.000089
C76	C	1.461371	1.026114	0.500089
N77	N	0.933792	0.232127	0.205396
N78	N	1.433792	0.732127	0.705396
N79	N	0.951562	0.207795	-0.205199
N80	N	1.451562	0.707795	0.294801
C81	C	0.980189	0.168382	0.250797
C82	C	1.480189	0.668382	0.750797
C83	C	0.976273	0.173768	0.341604
C84	C	1.476273	0.673768	0.841604
C85	C	0.925963	0.242905	0.387008
C86	C	1.425963	0.742905	0.887008
C87	C	0.879560	0.306652	0.341600
C88	C	1.379560	0.806652	0.841600
C89	C	0.883473	0.301260	0.250795
C90	C	1.383473	0.801260	0.750795
C91	C	0.909072	0.266151	0.658587
C92	C	1.409072	0.766151	1.158587
C93	C	0.905164	0.271540	0.749399
C94	C	1.405164	0.771540	1.249399
C95	C	1.001877	0.138654	0.749397
C96	C	1.501877	0.638654	1.249397
C97	C	1.005788	0.133273	0.658589
C98	C	1.505788	0.633273	1.158589
C99	C	0.959383	0.197016	0.613189
C100	C	1.459383	0.697016	1.113189
N101	N	0.921960	0.248414	0.479828
N102	N	1.421960	0.748414	0.979828
N103	N	0.963381	0.191501	0.520371
N104	N	1.463381	0.691501	1.020371
H105	H	0.335492	0.079324	0.000123
H106	H	0.835492	0.579324	0.500123
O107	O	1.063731	-0.100567	-0.000049
O108	O	1.563731	0.399433	0.499951
C109	C	1.107780	-0.135563	-0.074755
C110	C	1.607780	0.364437	0.425245
H111	H	1.065886	-0.164807	-0.126974
H112	H	1.565886	0.335193	0.373026
H113	H	1.147350	-0.068354	-0.099834
H114	H	1.647350	0.431646	0.400166
H115	H	1.145723	-0.201825	-0.057865
H116	H	1.645723	0.298175	0.442135
O117	O	1.021385	0.112005	0.385807
O118	O	1.521385	0.612005	0.885807
C119	C	1.071975	0.175065	0.438304
C120	C	1.571975	0.675065	0.938304
H121	H	1.046053	0.254864	0.451898
H122	H	1.546053	0.754864	0.951898
H123	H	1.078453	0.136366	0.502165
H124	H	1.578453	0.636366	1.002165
H125	H	1.132325	0.184955	0.403303
H126	H	1.632325	0.684955	0.903303
H127	H	0.871288	0.318055	0.621630
H128	H	1.371288	0.818055	1.121630
H129	H	1.090979	-0.475503	0.000090
H130	H	1.590979	0.024497	0.500090
O131	O	0.551986	0.003208	0.000066
O132	O	1.051986	0.503208	0.500066
C133	C	0.469888	0.014746	0.000091
C134	C	0.969888	0.514746	0.500091
H135	H	0.457822	0.092925	-0.027225
H136	H	0.957822	0.592925	0.472775
H137	H	0.441839	-0.051254	-0.041788
H138	H	0.941839	0.448746	0.458212
H139	H	0.443615	0.011896	0.069301
H140	H	0.943615	0.511896	0.569301
O141	O	1.029078	0.101132	0.206830
O142	O	1.529078	0.601132	0.706830
C143	C	1.069203	0.046042	0.266380
C144	C	1.569203	0.546042	0.766380
H145	H	1.033977	0.046005	0.331113
H146	H	1.533977	0.546005	0.831113
H147	H	1.076149	-0.037811	0.240154
H148	H	1.576149	0.462189	0.740154
H149	H	1.129927	0.085385	0.276025
H150	H	1.629927	0.585385	0.776025
H151	H	1.046755	0.076976	0.621623
H152	H	1.546755	0.576976	1.121623
O153	O	1.046903	0.076577	0.793406
O154	O	1.546903	0.576577	1.293406
C155	C	1.027300	-0.029067	0.771245
C156	C	1.527300	0.470933	1.271245
H157	H	0.999741	-0.035388	0.705317
H158	H	1.499741	0.464612	1.205317
H159	H	1.082900	-0.075671	0.768139
H160	H	1.582900	0.424329	1.268139
H161	H	0.983410	-0.061568	0.822358
H162	H	1.483410	0.438432	1.322358
H163	H	0.864193	0.327844	0.786363
H164	H	1.364193	0.827844	1.286363
H165	H	0.833547	-0.452034	0.000071
H166	H	1.333547	0.047966	0.500071
O167	O	0.765121	-0.289838	-0.000032
O168	O	1.265121	0.210162	0.499968
C169	C	0.758551	-0.356853	-0.074760
C170	C	1.258551	0.143147	0.425240
H171	H	0.819790	-0.380263	-0.099671
H172	H	1.319790	0.119737	0.400329
H173	H	0.721058	-0.429713	-0.057958
H174	H	1.221058	0.070287	0.442042
H175	H	0.729493	-0.314775	-0.127075
H176	H	1.229493	0.185225	0.372925
H177	H	0.327125	0.421299	0.000079
H178	H	0.827125	0.921299	0.500079
H179	H	0.177559	0.405409	0.000101
H180	H	0.677559	0.905409	0.500101
H181	H	0.838592	0.362941	0.378574
H182	H	1.338592	0.862941	0.878574
O183	O	0.838376	0.363291	0.206823
O184	O	1.338376	0.863291	0.706823
C185	C	0.793118	0.425452	0.266367
C186	C	1.293118	0.925452	0.766367
H187	H	0.822765	0.433181	0.331092
H188	H	1.322765	0.933181	0.831092
H189	H	0.788431	0.506189	0.240120
H190	H	1.288431	1.006189	0.740120
H191	H	0.731562	0.387255	0.276039
H192	H	1.231562	0.887255	0.776039
H193	H	0.707784	0.034513	0.000091
H194	H	1.207784	0.534513	0.500091
H195	H	0.699407	0.376486	0.000063
H196	H	1.199407	0.876486	0.500063
H197	H	0.794372	-0.084554	0.000096
H198	H	1.294372	0.415446	0.500096
H199	H	0.549853	0.360598	0.000080
H200	H	1.049853	0.860598	0.500080
O201	O	1.120250	-0.270305	0.000258
O202	O	1.620250	0.229695	0.500258
C203	C	1.126800	-0.203247	0.074963
C204	C	1.626800	0.296753	0.574963
H205	H	1.081389	-0.229306	0.127178
H206	H	1.581389	0.270694	0.627178
H207	H	1.188572	-0.206253	0.100049
H208	H	1.688572	0.293747	0.600049
H209	H	1.115738	-0.119959	0.058069
H210	H	1.615738	0.380041	0.558069
O211	O	0.179939	0.047867	0.000164
O212	O	0.679939	0.547867	0.500164
C213	C	0.236033	-0.029579	0.000148
C214	C	0.736033	0.470421	0.500148
H215	H	0.292943	0.005905	0.027461
H216	H	0.792943	0.505905	0.527461
H217	H	0.212013	-0.095539	0.042033
H218	H	0.712013	0.404461	0.542033
H219	H	0.248500	-0.061727	-0.069060
H220	H	0.748500	0.438273	0.430940
