data_functionalizedCrystal
_audit_creation_method	'MofGen! by Chris Wilmer'
_symmetry_space_group_name_H-M	'P1'
_symmetry_Int_Tables_number	1
_symmetry_cell_setting	triclinic
loop_
_symmetry_equiv_pos_as_xyz
  x,y,z
_cell_length_a	10.967874
_cell_length_b	14.519709
_cell_length_c	9.483290
_cell_angle_alpha	79.597082
_cell_angle_beta	91.580135
_cell_angle_gamma	84.205827
loop_
_atom_site_label
_atom_site_type_symbol
_atom_site_fract_x
_atom_site_fract_y
_atom_site_fract_z
O1	O	1.581277	0.074045	0.517006
O2	O	1.230697	0.095820	0.429187
O3	O	1.415284	-0.049505	0.475412
O4	O	1.396690	0.219369	0.470781
O5	O	1.448991	-0.024548	0.242083
O6	O	1.264404	0.120777	0.195858
O7	O	1.614985	0.099002	0.283676
Cu8	Cu	1.442772	0.112168	0.218462
Cu9	Cu	1.402909	0.082654	0.494402
O10	O	1.430397	0.244326	0.237451
C11	C	1.431271	-0.071367	0.358530
C12	C	1.428675	-0.173693	0.357879
C13	C	1.202683	0.108599	0.301283
C14	C	1.068992	0.109486	0.267794
C15	C	0.991928	0.096953	0.373735
C16	C	0.853751	0.097869	0.339125
C17	C	1.419112	-0.548387	0.355522
C18	C	1.421768	-0.444135	0.356176
C19	C	1.423893	-0.361043	0.356699
C20	C	1.426549	-0.256785	0.357356
C21	C	1.642998	0.086222	0.411583
C22	C	1.776687	0.085334	0.445082
C23	C	1.414410	0.266189	0.354337
C24	C	1.417004	0.368513	0.354997
N25	N	1.470818	0.132926	0.024384
C26	C	1.411167	0.088772	-0.062792
C27	C	1.434532	0.106049	-0.224343
N28	N	1.374872	0.061888	0.688483
H29	H	1.028245	0.085550	0.490058
H30	H	1.502897	0.156649	-0.269305
H31	H	1.306494	0.011298	-0.266561
O32	O	0.819783	0.071750	0.583945
C33	C	0.721302	0.060248	0.675727
H34	H	0.632163	0.094094	0.614903
H35	H	0.737299	0.095393	0.771862
H36	H	0.714809	-0.018041	0.714633
H37	H	0.817438	0.109283	0.222795
O38	O	1.025649	0.122926	0.129047
C39	C	0.967503	0.044128	0.106721
H40	H	1.004430	-0.019817	0.190700
H41	H	0.986726	0.029283	-0.005028
H42	H	0.864338	0.059198	0.116434
H43	H	1.342796	0.038183	-0.017826
O44	O	1.552531	0.193148	-0.029274
C45	C	1.646606	0.144178	-0.093764
H46	H	1.652735	0.065822	-0.046276
H47	H	1.737772	0.171835	-0.072781
H48	H	1.625384	0.155278	-0.214381
