data_functionalizedCrystal
_audit_creation_method	'MofGen! by Chris Wilmer'
_symmetry_space_group_name_H-M	'P1'
_symmetry_Int_Tables_number	1
_symmetry_cell_setting	triclinic
loop_
_symmetry_equiv_pos_as_xyz
  x,y,z
_cell_length_a	6.817900
_cell_length_b	16.418049
_cell_length_c	11.102228
_cell_angle_alpha	93.886846
_cell_angle_beta	108.604565
_cell_angle_gamma	103.389670
loop_
_atom_site_label
_atom_site_type_symbol
_atom_site_fract_x
_atom_site_fract_y
_atom_site_fract_z
V1	V	-4.085015	-0.115888	-0.396704
O2	O	-4.071823	0.005567	-0.388692
O3	O	-4.035746	-0.229784	-0.394434
O4	O	-4.062198	-0.114106	-0.569518
O5	O	-4.045188	-0.110912	-0.212395
V6	V	-4.565441	-0.101360	-0.374605
O7	O	-4.353068	-0.147755	-0.445179
O8	O	-4.747585	-0.069493	-0.326130
O9	O	-4.391503	0.012536	-0.376876
O10	O	-4.696030	-0.222815	-0.382617
O11	O	-4.722665	-0.106336	-0.558914
O12	O	-4.365052	-0.103142	-0.201791
C13	C	-3.879708	-0.257550	-0.388290
C14	C	-3.920882	-0.350662	-0.387585
C15	C	-4.198620	-0.569151	-0.392346
C16	C	-4.237297	-0.656640	-0.391696
C17	C	-3.871196	-0.648096	-0.378971
C18	C	-3.832526	-0.560609	-0.379631
C19	C	-3.996241	-0.521139	-0.386312
C20	C	-4.073589	-0.696115	-0.385002
C21	C	-4.115524	-0.790974	-0.384296
C22	C	-3.954306	-0.426273	-0.387020
C23	C	-3.913448	-0.109990	-0.611626
C24	C	-3.976070	-0.109286	-0.752905
C25	C	-4.048114	-0.185659	-0.837725
C26	C	-4.106966	-0.184997	-0.970472
C27	C	-4.021714	-0.031582	-0.933566
C28	C	-3.962877	-0.032245	-0.800822
C29	C	-4.356245	-0.278931	-1.178223
C30	C	-4.428258	-0.355307	-1.263047
C31	C	-4.329121	-0.420558	-1.232085
C32	C	-4.157923	-0.409436	-1.116300
C33	C	-4.085894	-0.333058	-1.031482
C34	C	-4.185079	-0.267811	-1.062445
C35	C	-3.713584	0.061684	-0.593069
C36	C	-3.641539	0.138063	-0.508248
C37	C	-3.740659	0.203322	-0.539205
C38	C	-3.911823	0.192208	-0.654991
C39	C	-3.983869	0.115829	-0.739812
C40	C	-3.884748	0.050570	-0.708846
C41	C	-4.210883	0.040297	-0.383016
C42	C	-4.148948	0.133408	-0.383729
C43	C	-4.177142	-0.107261	-0.159677
C44	C	-4.093759	-0.107960	-0.018396
H45	H	-3.667720	-0.521517	-0.374722
F46	F	-4.452695	-0.707736	-0.398121
F47	F	-4.372865	-0.527147	-0.399465
F48	F	-3.696970	-0.690111	-0.371855
F49	F	-4.461787	-0.209490	-1.211179
F50	F	-4.062163	-0.267653	-0.786733
F51	F	-3.608083	-0.007772	-0.560110
H52	H	-3.946501	-0.324000	-0.937216
H53	H	-4.387761	-0.482745	-1.301158
F54	F	-4.052395	-0.478883	-1.083365
F55	F	-4.610443	-0.367139	-1.386275
H56	H	-4.010976	0.031142	-0.972597
H57	H	-4.123245	0.106784	-0.834092
H58	H	-3.992533	0.245347	-0.680198
H59	H	-3.681931	0.265524	-0.470151
F60	F	-3.459348	0.149894	-0.385025
