data_functionalizedCrystal
_audit_creation_method	'MofGen! by Chris Wilmer'
_symmetry_space_group_name_H-M	'P1'
_symmetry_Int_Tables_number	1
_symmetry_cell_setting	triclinic
loop_
_symmetry_equiv_pos_as_xyz
  x,y,z
_cell_length_a	23.532355
_cell_length_b	23.532407
_cell_length_c	13.101039
_cell_angle_alpha	93.332685
_cell_angle_beta	86.670091
_cell_angle_gamma	82.838123
loop_
_atom_site_label
_atom_site_type_symbol
_atom_site_fract_x
_atom_site_fract_y
_atom_site_fract_z
O1	O	0.758425	0.065837	-0.085092
O2	O	0.592559	0.075870	-0.085128
O3	O	0.680493	-0.012078	-0.085080
O4	O	0.670491	0.153785	-0.085140
O5	O	0.674183	-0.005758	0.085346
O6	O	0.586250	0.082190	0.085299
O7	O	0.752116	0.072158	0.085334
Zn8	Zn	0.668181	0.078177	0.112375
Zn9	Zn	0.676494	0.069850	-0.112169
O10	O	0.664182	0.160105	0.085287
C11	C	0.677083	-0.030134	0.000138
C12	C	0.676317	-0.093350	0.000153
C13	C	0.568188	0.078779	0.000081
C14	C	0.504970	0.078025	0.000069
C15	C	0.621123	-0.359510	0.000078
C16	C	0.621834	-0.300110	0.000086
O17	O	0.578048	-0.263358	0.000044
N18	N	0.674110	-0.277492	0.000109
C19	C	0.725680	-0.314279	0.000113
O20	O	0.770211	-0.289587	0.000132
C21	C	0.724968	-0.373679	0.000098
C22	C	0.672688	-0.396292	0.000085
C23	C	0.568846	-0.382124	0.000064
C24	C	0.568135	-0.441520	0.000058
C25	C	0.619701	-0.478302	0.000066
C26	C	0.671977	-0.455688	0.000079
C27	C	0.776537	-0.410465	0.000095
C28	C	0.775821	-0.469868	0.000079
C29	C	0.723541	-0.492481	0.000066
C30	C	0.722831	-0.551867	0.000081
N31	N	0.670554	-0.574484	0.000058
C32	C	0.618989	-0.537702	0.000050
C33	C	0.727170	-0.189536	0.000144
C34	C	0.727882	-0.130137	0.000166
C35	C	0.624036	-0.115972	0.000137
C36	C	0.623324	-0.175371	0.000122
C37	C	0.674893	-0.212153	0.000121
C38	C	0.617500	-0.662439	0.000038
C39	C	0.616793	-0.721841	0.000036
C40	C	0.720639	-0.736001	0.000060
C41	C	0.721346	-0.676604	0.000068
C42	C	0.669772	-0.639824	0.000053
O43	O	0.766594	-0.588653	0.000118
O44	O	0.574466	-0.562403	0.000017
C45	C	0.109515	0.076733	0.093013
C46	C	0.050115	0.076016	0.093018
O47	O	0.016472	0.078556	0.172024
N48	N	0.023846	0.072215	0.000119
C49	C	0.056980	0.069125	-0.092791
O50	O	0.029182	0.065826	-0.171808
C51	C	0.116379	0.069839	-0.092794
C52	C	0.142645	0.073646	0.000111
C53	C	0.135781	0.080540	0.185911
C54	C	0.195176	0.081258	0.185906
C55	C	0.228306	0.078170	0.093004
C56	C	0.202040	0.074364	0.000107
C57	C	0.149513	0.066745	-0.185702
C58	C	0.208916	0.067458	-0.185697
C59	C	0.235181	0.071265	-0.092792
C60	C	0.294565	0.071994	-0.092800
N61	N	0.320834	0.075795	0.000099
C62	C	0.287705	0.078883	0.093001
C63	C	-0.067762	0.067627	-0.092777
C64	C	-0.127160	0.066918	-0.092775
C65	C	-0.134021	0.073807	0.093034
C66	C	-0.074622	0.074521	0.093031
C67	C	-0.041492	0.071428	0.000122
C68	C	0.412439	0.080392	0.092984
C69	C	0.471840	0.081112	0.092971
C70	C	0.478696	0.074220	-0.092836
C71	C	0.419300	0.073502	-0.092824
C72	C	0.386173	0.076587	0.000094
O73	O	0.328245	0.069454	-0.171766
O74	O	0.315512	0.082175	0.172005
C75	C	0.776487	0.069248	0.000123
C76	C	0.839705	0.070002	0.000128
C77	C	0.667592	0.178161	0.000066
C78	C	0.668359	0.241377	0.000044
N79	N	0.662512	0.083860	0.265621
N80	N	0.682167	0.064162	-0.265414
C81	C	0.654799	0.091598	0.474659
C82	C	0.689878	0.056427	0.525554
C83	C	0.685587	0.060732	0.641870
C84	C	0.659090	0.087293	0.358332
H85	H	0.574218	-0.740249	0.000031
O86	O	-0.166217	0.076696	0.183258
C87	C	-0.194054	0.027161	0.188809
H88	H	-0.169495	-0.009052	0.136095
H89	H	-0.195505	0.013635	0.270978
H90	H	-0.239671	0.036845	0.163844
O91	O	0.241134	0.064356	-0.275926
C92	C	0.282443	0.015243	-0.281463
H93	H	0.267307	-0.017497	-0.228725
H94	H	0.288409	-0.004356	-0.363624
H95	H	0.325017	0.027866	-0.256520
H96	H	0.723134	0.023084	0.481769
O97	O	0.615103	0.131303	0.526998
C98	C	0.577821	0.103316	0.589054
H99	H	0.600103	0.059179	0.605005
H100	H	0.565982	0.129893	0.664549
H101	H	0.537232	0.098245	0.547792
O102	O	0.567347	-0.626795	0.000073
C103	C	0.521061	-0.659504	0.000034
H104	H	0.534590	-0.702730	0.032295
H105	H	0.483119	-0.635565	0.049510
H106	H	0.508047	-0.666665	-0.081732
H107	H	0.397913	0.070411	-0.168475
H108	H	0.582048	-0.086012	0.000132
H109	H	0.525563	-0.459926	0.000039
H110	H	0.216556	0.084354	0.261559
O111	O	0.772182	-0.654731	0.000035
C112	C	0.817540	-0.699935	0.000069
H113	H	0.803002	-0.741394	-0.032190
H114	H	0.855890	-0.689561	-0.049413
H115	H	0.830408	-0.705404	0.081832
O116	O	0.518719	-0.346462	-0.000076
C117	C	0.490231	-0.359919	-0.088362
H118	H	0.505577	-0.406144	-0.117803
H119	H	0.441973	-0.354749	-0.068514
H120	H	0.500106	-0.329746	-0.150156
O121	O	0.572491	-0.197243	0.000055
C122	C	0.527134	-0.152032	0.000081
H123	H	0.544063	-0.112959	-0.032165
H124	H	0.492445	-0.166060	-0.049415
H125	H	0.508217	-0.140520	0.081841
O126	O	-0.152726	0.063152	-0.182958
C127	C	-0.180131	0.013193	-0.188517
H128	H	-0.189769	-0.000371	-0.107852
H129	H	-0.221960	0.022325	-0.227847
H130	H	-0.150826	-0.022773	-0.234349
O131	O	0.510935	0.071299	-0.183011
C132	C	0.538756	0.120842	-0.188600
H133	H	0.542420	0.140392	-0.107946
H134	H	0.583496	0.108790	-0.227901
H135	H	0.512849	0.153406	-0.234473
H136	H	0.385473	0.082909	0.168648
H137	H	0.770453	-0.111731	0.000193
H138	H	-0.040791	0.065113	-0.168439
H139	H	0.108812	0.083053	0.261567
H140	H	0.769166	-0.219481	0.000150
O141	O	0.827346	-0.388544	-0.000080
C142	C	0.862023	-0.410647	-0.088333
H143	H	0.833722	-0.425101	-0.150029
H144	H	0.887148	-0.375900	-0.117955
H145	H	0.893238	-0.448814	-0.068381
O146	O	0.825909	-0.505627	-0.000101
C147	C	0.831866	-0.543680	-0.088357
H148	H	0.804897	-0.524040	-0.150052
H149	H	0.878877	-0.551711	-0.117977
H150	H	0.816642	-0.586059	-0.068409
H151	H	0.762622	-0.765960	0.000071
H152	H	0.128139	0.063644	-0.261355
O153	O	0.497266	0.084786	0.183316
C154	C	0.455281	0.087369	0.265311
H155	H	0.416409	0.067815	0.238079
H156	H	0.473816	0.062332	0.330297
H157	H	0.441668	0.134047	0.293860
H158	H	-0.053241	0.077621	0.168682
