data_functionalizedCrystal
_audit_creation_method	'MofGen! by Chris Wilmer'
_symmetry_space_group_name_H-M	'P1'
_symmetry_Int_Tables_number	1
_symmetry_cell_setting	triclinic
loop_
_symmetry_equiv_pos_as_xyz
  x,y,z
_cell_length_a	18.760492
_cell_length_b	17.052862
_cell_length_c	17.052862
_cell_angle_alpha	92.606806
_cell_angle_beta	50.258256
_cell_angle_gamma	70.263479
loop_
_atom_site_label
_atom_site_type_symbol
_atom_site_fract_x
_atom_site_fract_y
_atom_site_fract_z
Zr1	Zr	0.539356	0.030274	0.908839
O2	O	0.688068	-0.097892	0.780672
O3	O	0.390644	0.069567	0.948134
O4	O	0.493443	-0.072038	0.973981
O5	O	0.621487	0.155410	0.734432
O6	O	0.457226	-0.051646	1.126461
O7	O	0.585269	0.043713	0.754825
O8	O	0.273338	0.201659	1.080226
O9	O	0.805375	-0.097896	0.780667
O10	O	0.424783	0.101539	1.078682
O11	O	0.478840	0.169680	0.949668
O12	O	0.599872	0.002958	0.980099
O13	O	0.653929	0.071099	0.851086
Zr14	Zr	0.539357	0.240940	1.119503
Zr15	Zr	0.481594	0.062796	1.152028
Zr16	Zr	0.597119	0.208418	0.876315
Zr17	Zr	0.726447	0.030269	0.908832
Zr18	Zr	0.352266	0.240945	1.119511
O19	O	0.688069	0.201647	1.080209
O20	O	0.605938	-0.051651	1.126455
O21	O	0.770199	0.155405	0.734426
O22	O	0.390645	0.369106	1.247671
O23	O	0.308514	0.115809	1.293917
O24	O	0.472775	0.322865	0.901888
O25	O	0.457226	0.115805	1.293911
O26	O	0.585270	0.343252	1.054362
O27	O	0.621487	0.322860	0.901882
O28	O	0.493443	0.227502	1.273518
O29	O	0.759461	-0.072045	0.973970
O30	O	0.319251	0.343259	1.054373
O31	O	0.273338	0.369110	1.247676
O32	O	0.227425	0.227509	1.273529
O33	O	0.851288	0.043705	0.754814
O34	O	0.805375	0.069555	0.948117
O35	O	0.478840	0.268256	1.048244
O36	O	0.424783	0.200115	1.177257
O37	O	0.599872	0.101534	1.078675
O38	O	0.653930	0.169675	0.949661
C39	C	0.305335	0.135614	1.014181
C40	C	0.225910	0.135616	1.014184
C41	C	-0.174521	0.208374	1.086935
C42	C	-0.045250	0.062827	0.941387
C43	C	0.029368	0.062828	0.941392
C44	C	0.002045	0.135605	1.014169
C45	C	-0.099897	0.208379	1.086941
C46	C	0.131317	-0.009941	0.868614
C47	C	0.205942	-0.009942	0.868616
C48	C	0.178617	0.062832	0.941399
C49	C	0.076668	0.135610	1.014174
C50	C	0.049345	0.208386	1.086951
C51	C	-0.052606	0.281161	1.159732
C52	C	-0.127222	0.281154	1.159724
C53	C	0.253233	0.062840	0.941408
C54	C	0.123968	0.208391	1.086956
C55	C	0.467104	-0.087224	1.054855
C56	C	0.442582	-0.162850	1.068662
C57	C	0.739050	-0.581870	0.901730
C58	C	0.762094	-0.510817	0.888751
C59	C	0.682218	-0.423822	0.933728
C60	C	0.579295	-0.407886	0.991686
C61	C	0.556250	-0.478947	1.004659
C62	C	0.499418	-0.320900	1.036657
C63	C	0.396494	-0.304963	1.094615
C64	C	0.373454	-0.376018	1.107587
C65	C	0.453330	-0.463013	1.062610
C66	C	0.522463	-0.249839	1.023684
C67	C	0.339662	-0.146916	1.126613
C68	C	0.316619	-0.217969	1.139592
C69	C	0.773378	0.135600	1.014162
C70	C	0.852803	0.135598	1.014158
C71	C	0.611608	0.094927	0.709980
C72	C	0.636130	0.081121	0.606740
C73	C	0.611609	0.358438	0.973488
C74	C	0.636130	0.434065	0.959681
C75	C	0.339663	0.248038	0.521565
C76	C	0.316619	0.261006	0.618567
C77	C	0.396494	0.216036	0.615616
C78	C	0.499418	0.158095	0.515652
C79	C	0.522463	0.145120	0.418641
C80	C	0.579294	0.113119	0.512691
C81	C	0.682218	0.055178	0.412727
C82	C	0.705259	0.042206	0.315728
C83	C	0.625383	0.087175	0.318679
C84	C	0.556250	0.126094	0.609702
C85	C	0.739050	0.023176	0.506778
C86	C	0.762094	0.010208	0.409776
C87	C	0.467105	0.176287	1.318363
C88	C	0.442583	0.190093	1.421603
C89	C	0.233083	0.176294	1.318373
C90	C	0.129137	0.190102	1.421616
C91	C	0.377587	0.358445	0.973498
C92	C	0.322684	0.434074	0.959694
C93	C	0.305335	0.399124	1.277690
C94	C	0.225910	0.488560	1.367125
C95	C	0.773378	-0.127910	0.750653
C96	C	0.852802	-0.217346	0.661218
C97	C	0.845630	0.094921	0.709970
C98	C	0.949576	0.081112	0.606727
C99	C	0.701126	-0.087231	1.054845
C100	C	0.756029	-0.162860	1.068649
C101	C	0.080320	0.145124	1.418647
C102	C	-0.017342	0.158080	1.515648
C103	C	-0.066188	0.216021	1.615618
C104	C	-0.017363	0.261000	1.618585
C105	C	0.080300	0.248038	1.521585
C106	C	0.296903	0.521053	1.004665
C107	C	0.245330	0.592121	0.991689
C108	C	0.219531	0.576208	0.933748
C109	C	0.245318	0.489219	0.888771
C110	C	0.296897	0.418153	0.901740
C111	C	0.160392	0.494992	1.476479
C112	C	0.085770	0.579021	1.560524
C113	C	0.076663	0.656615	1.535213
C114	C	0.142191	0.650180	1.425848
C115	C	0.216816	0.566152	1.341805
C116	C	0.918330	-0.223778	0.551864
C117	C	0.992975	-0.307806	0.467819
C118	C	1.002086	-0.385401	0.493130
C119	C	0.936553	-0.378966	0.602495
C120	C	0.861915	-0.294938	0.686538
C121	C	0.998398	0.126083	0.609698
C122	C	1.096074	0.113107	0.512700
C123	C	1.144922	0.055164	0.412731
C124	C	1.096095	0.010188	0.409763
C125	C	0.998424	0.023159	0.506761
C126	C	0.781810	-0.146919	1.126597
C127	C	0.833384	-0.217970	1.139589
C128	C	0.859183	-0.304963	1.094625
C129	C	0.833396	-0.320903	1.036675
C130	C	0.781816	-0.249851	1.023691
H131	H	0.101707	0.267653	1.146224
H132	H	0.760814	-0.076091	1.163214
F133	F	0.254664	0.295885	0.524696
H134	H	-0.057148	0.308175	1.699993
H135	H	0.910920	-0.160606	0.531234
H136	H	0.288947	-0.069202	0.809356
F137	F	1.248873	0.041367	0.309504
F138	F	0.754393	-0.266831	0.962004
H139	H	0.434573	-0.520874	1.073177
F140	F	0.132290	0.083452	1.312262
H141	H	0.120037	0.284672	1.524018
H142	H	0.032421	0.584245	1.649568
F143	F	0.324323	0.325584	0.853877
F144	F	0.914083	-0.380575	1.108450
H145	H	0.958678	-0.013461	0.504326
H146	H	-0.057083	0.121450	1.513211
H147	H	0.854377	-0.204976	1.186774
F148	F	0.814798	-0.019467	0.209341
H149	H	0.472450	0.173276	0.691084
H150	H	0.854410	-0.391741	1.000069
H151	H	-0.074841	0.340418	1.218982
H152	H	0.015894	0.725030	1.603656
F153	F	1.062706	-0.314637	0.351432
H154	H	0.606265	-0.262823	0.976491
H155	H	1.135815	0.149737	0.515137
H156	H	-0.210234	0.340403	1.218979
F157	F	0.792174	-0.288106	0.802920
F158	F	0.324347	0.538009	1.066339
H159	H	0.224339	0.662945	1.028321
F160	F	0.170072	0.412420	1.503442
H161	H	0.177532	0.634083	0.923195
F162	F	0.946430	0.187753	0.716083
H163	H	1.135882	-0.036990	0.328355
H164	H	-0.145713	0.226568	1.694593
H165	H	0.845895	-0.036969	0.328373
H166	H	0.289649	-0.363038	1.154771
H167	H	0.134764	0.713369	1.405254
H168	H	-0.257532	0.267624	1.146195
F169	F	0.824062	-0.024695	0.503630
F170	F	-0.016172	-0.014617	0.863928
F171	F	0.286537	0.559320	1.225423
H172	H	0.232814	0.308172	0.699954
H173	H	0.153558	-0.069187	0.809355
F174	F	0.706746	-0.348203	0.919915
H175	H	0.224305	0.476276	0.841594
F176	F	0.871635	-0.527785	0.827042
F177	F	0.361730	-0.014604	0.863949
F178	F	1.081527	-0.474826	0.403672
H179	H	0.804075	-0.652703	0.865110
F180	F	0.207083	-0.201020	1.201271
F181	F	0.946260	-0.461557	0.629417
H182	H	0.377726	0.226599	0.694602
F183	F	0.649906	0.073383	0.215439
F184	F	0.254648	-0.054332	1.174479
