data_functionalizedCrystal
_audit_creation_method	'MofGen! by Chris Wilmer'
_symmetry_space_group_name_H-M	'P1'
_symmetry_Int_Tables_number	1
_symmetry_cell_setting	triclinic
loop_
_symmetry_equiv_pos_as_xyz
  x,y,z
_cell_length_a	14.044220
_cell_length_b	11.792241
_cell_length_c	10.268362
_cell_angle_alpha	89.998512
_cell_angle_beta	90.000071
_cell_angle_gamma	88.691147
loop_
_atom_site_label
_atom_site_type_symbol
_atom_site_fract_x
_atom_site_fract_y
_atom_site_fract_z
O1	O	-1.259114	-0.273764	0.108163
O2	O	-0.759114	0.226236	0.608163
O3	O	-0.983094	-0.263885	0.108196
O4	O	-0.483094	0.236115	0.608196
O5	O	-1.127803	-0.104283	0.108169
O6	O	-0.627803	0.395717	0.608169
O7	O	-1.114406	-0.433366	0.108189
O8	O	-0.614406	0.066634	0.608189
O9	O	-1.127789	-0.104288	-0.108431
O10	O	-0.627789	0.395712	0.391569
O11	O	-0.983080	-0.263890	-0.108405
O12	O	-0.483080	0.236110	0.391595
O13	O	-1.259100	-0.273769	-0.108438
O14	O	-0.759100	0.226231	0.391562
Cu15	Cu	-1.121089	-0.268830	-0.128199
Cu16	Cu	-0.621089	0.231170	0.371801
Cu17	Cu	-1.121106	-0.268824	0.127957
Cu18	Cu	-0.621106	0.231176	0.627957
O19	O	-1.114392	-0.433371	-0.108411
O20	O	-0.614392	0.066629	0.391589
C21	C	-1.126954	-0.061915	-0.000130
C22	C	-0.626954	0.438085	0.499870
C23	C	-1.124435	0.064335	-0.000129
C24	C	-0.624435	0.564335	0.499871
C25	C	-0.947751	-0.259563	-0.000100
C26	C	-0.447751	0.240437	0.499900
C27	C	-0.842459	-0.246664	-0.000088
C28	C	-0.342459	0.253336	0.499912
C29	C	-1.294444	-0.278091	-0.000139
C30	C	-0.794444	0.221909	0.499861
C31	C	-1.399736	-0.290990	-0.000143
C32	C	-0.899736	0.209010	0.499857
C33	C	-0.649676	-0.223082	-0.000115
C34	C	-0.149676	0.276918	0.499885
C35	C	-0.592513	-0.314567	-0.000115
C36	C	-0.092513	0.185433	0.499885
C37	C	-0.485242	-0.301445	-0.000130
C38	C	0.014758	0.198555	0.499870
C39	C	-0.756957	-0.236202	-0.000100
C40	C	-0.256957	0.263798	0.499900
C41	C	-1.115241	-0.475739	-0.000109
C42	C	-0.615241	0.024261	0.499891
C43	C	-1.117759	-0.601989	-0.000102
C44	C	-0.617759	-0.101989	0.499898
N45	N	-1.121084	-0.268834	-0.308365
N46	N	-0.621084	0.231166	0.191635
C47	C	-1.119804	0.295482	-0.000107
C48	C	-0.619804	0.795482	0.499893
C49	C	-1.122377	0.166855	-0.000119
C50	C	-0.622377	0.666855	0.499881
C51	C	-1.121091	-0.268835	-0.426207
C52	C	-0.621091	0.231165	0.073793
C53	C	-1.121103	-0.268826	-0.574045
C54	C	-0.621103	0.231174	-0.074045
N55	N	-1.121118	-0.268812	0.308123
N56	N	-0.621118	0.231188	0.808123
H57	H	-0.624137	-0.402744	-0.000104
H58	H	-0.124137	0.097256	0.499896
O59	O	-0.611800	-0.117975	-0.000061
O60	O	-0.111800	0.382025	0.499939
C61	C	-0.468783	-0.008908	-0.000147
C62	C	0.031217	0.491092	0.499853
C63	C	-0.511566	-0.128004	-0.000185
C64	C	-0.011566	0.371996	0.499815
H65	H	-0.387738	-0.016976	-0.000275
H66	H	0.112262	0.483024	0.499725
H67	H	-0.493407	0.039224	0.090526
H68	H	0.006593	0.539224	0.590526
H69	H	-0.493543	0.039205	-0.090768
H70	H	0.006457	0.539205	0.409232
H71	H	-0.486826	-0.176211	0.090375
H72	H	0.013174	0.323789	0.590375
H73	H	-0.486946	-0.176050	-0.090918
H74	H	0.013054	0.323950	0.409082
