data_functionalizedCrystal
_audit_creation_method	'MofGen! by Chris Wilmer'
_symmetry_space_group_name_H-M	'P1'
_symmetry_Int_Tables_number	1
_symmetry_cell_setting	triclinic
loop_
_symmetry_equiv_pos_as_xyz
  x,y,z
_cell_length_a	11.026607
_cell_length_b	17.038272
_cell_length_c	9.482900
_cell_angle_alpha	100.012096
_cell_angle_beta	78.636152
_cell_angle_gamma	99.848786
loop_
_atom_site_label
_atom_site_type_symbol
_atom_site_fract_x
_atom_site_fract_y
_atom_site_fract_z
O1	O	1.662374	0.322506	-0.120910
O2	O	1.305163	0.284676	-0.120910
O3	O	1.481644	0.189477	-0.120899
O4	O	1.485893	0.417705	-0.120922
O5	O	1.445807	0.208914	0.120891
O6	O	1.269325	0.304112	0.120880
O7	O	1.626537	0.341943	0.120880
Cu8	Cu	1.444659	0.324802	0.142957
Cu9	Cu	1.487041	0.301816	-0.142988
O10	O	1.450056	0.437141	0.120868
C11	C	1.241313	0.287415	-0.000015
C12	C	1.104451	0.266610	-0.000015
C13	C	1.459863	0.169523	-0.000004
C14	C	1.448341	0.081107	-0.000004
C15	C	1.036577	0.324055	-0.000022
C16	C	0.895123	0.302554	-0.000021
C17	C	1.554125	0.045899	-0.000003
C18	C	1.543294	-0.037179	-0.000016
C19	C	1.426676	-0.085048	-0.000021
C20	C	1.320885	-0.049835	-0.000027
C21	C	1.331719	0.033241	-0.000024
C22	C	1.388403	-0.336201	-0.000041
C23	C	1.377576	-0.419281	-0.000040
C24	C	1.599987	-0.406621	-0.000032
C25	C	1.610809	-0.323543	-0.000020
C26	C	1.505019	-0.288338	-0.000034
C27	C	1.415602	-0.169967	-0.000031
C28	C	1.516096	-0.203421	-0.000034
C29	C	1.690388	0.339203	-0.000018
C30	C	1.827251	0.360008	-0.000028
C31	C	1.471837	0.457095	-0.000030
C32	C	1.483360	0.545511	-0.000039
N33	N	1.414859	0.340969	0.344075
N34	N	1.516850	0.285644	-0.344106
C35	C	1.478242	0.306580	0.416279
C36	C	1.453458	0.320039	0.583695
H37	H	0.848520	0.237447	-0.000052
C38	C	1.227441	0.416229	-0.000025
C39	C	1.099489	0.411940	-0.000027
H40	H	1.266277	0.470487	-0.000036
H41	H	1.238916	0.397339	0.084290
H42	H	1.263911	0.383779	-0.084346
H43	H	1.063018	0.444386	0.084300
H44	H	1.088006	0.430841	-0.084351
H45	H	0.873856	0.425112	-0.000025
C46	C	1.131345	0.129719	0.000003
C47	C	1.041540	0.178724	-0.000005
H48	H	1.092504	0.075462	0.000018
H49	H	1.193703	0.133446	-0.084311
H50	H	1.168717	0.147008	0.084325
H51	H	1.004174	0.161439	-0.084333
H52	H	0.979159	0.174994	0.084318
C53	C	1.734857	-0.199250	-0.000035
C54	C	1.644283	-0.150809	-0.000037
H55	H	1.813993	-0.166763	-0.000043
H56	H	1.713513	-0.225138	0.084278
H57	H	1.738502	-0.238695	-0.084357
H58	H	1.640631	-0.111367	0.084292
H59	H	1.665632	-0.124908	-0.084359
C60	C	1.542787	0.175501	0.369035
C61	C	1.576276	0.253395	0.332386
H62	H	1.603311	0.142671	0.317225
H63	H	1.539021	0.177556	0.470520
H64	H	1.463324	0.153447	0.344189
H65	H	1.655736	0.275452	0.357242
H66	H	1.580056	0.251343	0.230877
H67	H	1.649086	0.084868	0.000010
H68	H	1.629434	-0.065841	-0.000012
H69	H	1.342241	0.380373	0.406201
H70	H	1.705771	-0.284574	-0.000016
C71	C	1.682141	-0.528349	-0.000049
C72	C	1.716269	-0.445322	-0.000038
H73	H	1.753936	-0.552240	-0.000066
H74	H	1.622192	-0.537786	0.084266
H75	H	1.647169	-0.551330	-0.084370
H76	H	1.751233	-0.422340	0.084290
H77	H	1.776240	-0.435879	-0.084361
H78	H	1.282604	-0.458253	-0.000021
H79	H	1.302261	-0.307547	-0.000052
H80	H	1.225934	-0.088816	-0.000041
C81	C	1.731994	0.264834	0.608320
C82	C	1.614776	0.232407	0.571874
H83	H	1.792413	0.231954	0.556402
H84	H	1.754750	0.317674	0.583481
H85	H	1.728319	0.266852	0.709794
H86	H	1.618449	0.230394	0.470401
H87	H	1.592015	0.179552	0.596703
C88	C	1.163911	0.038042	-0.124320
C89	C	1.215438	0.071944	-0.000024
H90	H	1.092118	0.061933	-0.124317
H91	H	1.223875	0.047487	-0.208618
H92	H	1.140774	-0.018284	-0.124303
H93	H	1.238583	0.128270	-0.000046
H94	H	1.155461	0.062506	0.084297
C95	C	1.292826	-0.280729	-0.124316
C96	C	1.287417	-0.222589	-0.000021
H97	H	1.213692	-0.313221	-0.124304
H98	H	1.314150	-0.254830	-0.208616
H99	H	1.354293	-0.313577	-0.124308
H100	H	1.225955	-0.189738	-0.000034
H101	H	1.266077	-0.248491	0.084300
C102	C	1.238308	0.340708	0.630893
C103	C	1.355421	0.373237	0.667546
H104	H	1.177786	0.373548	0.682669
H105	H	1.242110	0.338650	0.529400
H106	H	1.215595	0.287868	0.655778
H107	H	1.378138	0.426075	0.642651
H108	H	1.351621	0.375304	0.769061
