data_functionalizedCrystal
_audit_creation_method	'MofGen! by Chris Wilmer'
_symmetry_space_group_name_H-M	'P1'
_symmetry_Int_Tables_number	1
_symmetry_cell_setting	triclinic
loop_
_symmetry_equiv_pos_as_xyz
  x,y,z
_cell_length_a	23.204064
_cell_length_b	23.204065
_cell_length_c	23.204104
_cell_angle_alpha	120.004528
_cell_angle_beta	89.996204
_cell_angle_gamma	120.000098
loop_
_atom_site_label
_atom_site_type_symbol
_atom_site_fract_x
_atom_site_fract_y
_atom_site_fract_z
O1	O	-0.491196	0.412487	0.017145
O2	O	-0.407391	0.294474	-0.017063
O3	O	-0.407391	0.412487	0.100950
O4	O	-0.491197	0.294473	-0.100868
O5	O	-0.311540	0.508339	0.100950
O6	O	-0.311540	0.390325	-0.017063
O7	O	-0.395345	0.508338	0.017145
Zn8	Zn	-0.338224	0.464550	0.000041
Zn9	Zn	-0.464512	0.338262	0.000041
O10	O	-0.395346	0.390324	-0.100868
C11	C	-0.554178	0.694409	0.035874
C12	C	-0.518615	0.765535	0.030981
C13	C	-0.519336	0.659893	0.036358
C14	C	-0.658538	0.590050	0.035874
C15	C	-0.734556	0.549595	0.030982
C16	C	-0.623537	0.555692	0.036358
C17	C	-0.554180	0.590046	0.035868
C18	C	-0.518619	0.549587	0.030970
C19	C	-0.623535	0.659897	0.036363
C20	C	-0.489890	0.516899	0.027012
C21	C	-0.489884	0.822997	0.027027
C22	C	-0.795972	0.516910	0.027028
C23	C	-0.453848	0.475891	0.022047
C24	C	-0.453839	0.895086	0.022067
C25	C	-0.873020	0.475906	0.022068
C26	C	-0.554193	0.212781	-0.341405
C27	C	-0.518628	0.253235	-0.265387
C28	C	-0.519350	0.247137	-0.376407
C29	C	-0.658555	0.108427	-0.445762
C30	C	-0.734576	0.037305	-0.481322
C31	C	-0.623554	0.142941	-0.480605
C32	C	-0.554195	0.212784	-0.445763
C33	C	-0.518632	0.253241	-0.481324
C34	C	-0.623552	0.142938	-0.376406
C35	C	-0.489902	0.285927	-0.510054
C36	C	-0.489896	0.285919	-0.203971
C37	C	-0.795993	-0.020153	-0.510050
C38	C	-0.453857	0.326933	-0.546097
C39	C	-0.453850	0.326922	-0.126923
C40	C	-0.873043	-0.092238	-0.546092
O41	O	-1.100891	0.390334	-0.017051
O42	O	-0.899075	0.508352	0.017164
O43	O	-1.017070	0.390330	-0.100852
O44	O	-0.982895	0.508355	0.100965
O45	O	-1.017069	0.294485	-0.100842
O46	O	-0.899074	0.412507	0.017174
O47	O	-1.100889	0.294489	-0.017041
Zn48	Zn	-0.999981	0.338280	0.000068
Zn49	Zn	-0.999983	0.464560	0.000055
O50	O	-0.982894	0.412510	0.100975
C51	C	-0.310651	0.181456	-0.024834
C52	C	-0.346213	0.110333	-0.019937
C53	C	-0.241293	0.215972	-0.025319
C54	C	-0.310654	0.285811	-0.024840
C55	C	-0.346218	0.326265	-0.019950
C56	C	-0.241295	0.320169	-0.025325
C57	C	-0.206292	0.285816	-0.024833
C58	C	-0.130272	0.326275	-0.019936
C59	C	-0.345496	0.215967	-0.025326
O60	O	-0.311536	1.083838	-0.017051
O61	O	-0.395337	0.916238	0.017165
O62	O	-0.395345	0.916216	-0.100851
O63	O	-0.311528	1.083860	0.100966
O64	O	-0.491194	0.916220	-0.100846
O65	O	-0.491186	0.916242	0.017171
O66	O	-0.407385	1.083842	-0.017045
Zn67	Zn	-0.464503	1.000043	0.000064
Zn68	Zn	-0.338218	1.000037	0.000056
O69	O	-0.407377	1.083865	0.100971
O70	O	-1.100912	-0.280998	-0.592545
O71	O	-0.899098	-0.113393	-0.508744
O72	O	-1.017094	-0.113376	-0.508725
O73	O	-0.982915	-0.281015	-0.592564
O74	O	-1.017095	-0.113372	-0.604574
O75	O	-0.899098	-0.113389	-0.604593
O76	O	-1.100912	-0.280994	-0.688394
Zn77	Zn	-1.000005	-0.197191	-0.661712
Zn78	Zn	-1.000005	-0.197196	-0.535427
O79	O	-0.982916	-0.281011	-0.688413
O80	O	-0.407399	0.412495	-0.688401
O81	O	-0.491207	0.294488	-0.604597
O82	O	-0.491198	0.412506	-0.604579
O83	O	-0.407408	0.294477	-0.688419
O84	O	-0.395343	0.508354	-0.508731
O85	O	-0.395352	0.390335	-0.508749
O86	O	-0.311544	0.508343	-0.592554
Zn87	Zn	-0.338229	0.464557	-0.535433
Zn88	Zn	-0.464522	0.338274	-0.661717
O89	O	-0.311553	0.390324	-0.592571
C90	C	-0.206301	0.621371	0.310715
C91	C	-0.130282	0.692498	0.346279
C92	C	-0.241304	0.586857	0.345559
C93	C	-0.310658	0.517008	0.206354
C94	C	-0.346219	0.476550	0.130333
C95	C	-0.345502	0.482653	0.241355
C96	C	-0.310661	0.517011	0.310714
C97	C	-0.346224	0.476555	0.346276
C98	C	-0.241301	0.586855	0.241357
C99	C	-0.975135	0.517045	0.310737
C100	C	-0.980032	0.476594	0.346305
C101	C	-0.974652	0.586890	0.345576
C102	C	-0.975124	0.517034	0.206373
C103	C	-0.980009	0.476571	0.130353
C104	C	-0.974641	0.586879	0.241370
C105	C	-0.975137	0.621398	0.310728
C106	C	-0.980036	0.692523	0.346285
C107	C	-0.974639	0.482684	0.241379
C108	C	-0.310626	1.285885	0.310728
C109	C	-0.346186	1.326348	0.346292
C110	C	-0.241266	1.320248	0.345566
C111	C	-0.310634	1.181504	0.206368
C112	C	-0.346203	1.110363	0.130351
C113	C	-0.241274	1.216025	0.241365
C114	C	-0.206267	1.285885	0.310720
C115	C	-0.130246	1.326348	0.346276
C116	C	-0.345475	1.216026	0.241372
C117	C	-1.035740	0.108401	-0.445744
C118	C	-1.030841	0.037276	-0.481302
C119	C	-1.036224	0.142910	-0.480592
C120	C	-1.035753	0.212765	-0.341389
C121	C	-1.030867	0.253227	-0.265369
C122	C	-1.036237	0.247115	-0.376395
C123	C	-1.035742	0.212755	-0.445753
C124	C	-1.030844	0.253206	-0.481320
C125	C	-1.036236	0.142920	-0.376387
C126	C	-1.026886	0.285888	-0.510054
C127	C	-1.026881	-0.020184	-0.510028
C128	C	-1.026919	0.285917	-0.203952
C129	C	-1.021921	0.326888	-0.546102
C130	C	-1.021915	-0.092272	-0.546067
C131	C	-1.021967	0.326928	-0.126903
O132	O	-1.017157	0.390383	0.491286
O133	O	-0.982929	0.508388	0.407476
O134	O	-1.100946	0.390379	0.407461
O135	O	-0.899140	0.508392	0.491301
O136	O	-1.100932	0.294524	0.311615
O137	O	-0.982916	0.412533	0.311630
O138	O	-1.017143	0.294528	0.395439
Zn139	Zn	-1.000027	0.338311	0.338317
Zn140	Zn	-1.000045	0.464604	0.464599
O141	O	-0.899126	0.412537	0.395454
C142	C	-0.658570	0.589960	-0.445736
C143	C	-0.734590	0.549501	-0.481293
C144	C	-0.623573	0.555593	-0.480581
C145	C	-0.554204	0.694337	-0.341383
C146	C	-0.518635	0.765479	-0.265366
C147	C	-0.519366	0.659812	-0.376386
C148	C	-0.554215	0.589952	-0.445741
C149	C	-0.518657	0.549485	-0.481304
C150	C	-0.623563	0.659819	-0.376381
C151	C	-0.489931	0.516791	-0.510035
C152	C	-0.796006	0.516813	-0.510020
C153	C	-0.489900	0.822953	-0.203951
C154	C	-0.453892	0.475775	-0.546080
C155	C	-0.873056	0.475805	-0.546059
C156	C	-0.453849	0.895057	-0.126903
H157	H	-0.651635	0.688784	0.037145
H158	H	-0.213175	1.187135	0.213257
F159	F	-0.204546	1.393692	0.420064
F160	F	-0.973610	0.409223	0.204654
F161	F	-0.444846	0.697657	0.037397
F162	F	-1.037257	0.105175	-0.339649
F163	F	-0.660288	0.105191	-0.555087
H164	H	-0.651680	0.499382	-0.537568
H165	H	-0.973884	0.615771	0.402560
H166	H	-0.462359	0.303333	-0.348306
F167	F	-0.660280	0.105178	-0.339678
F168	F	-0.973616	0.624626	0.204633
H169	H	-0.402463	1.187139	0.213277
F170	F	-0.419982	0.178211	-0.026351
H171	H	-0.213197	0.376371	-0.026110
H172	H	-0.213195	0.187082	-0.026105
F173	F	-1.037304	0.320551	-0.339682
F174	F	-0.419973	0.409161	0.204609
H175	H	-1.037004	0.114016	-0.537580
F176	F	-0.204579	0.624622	0.420049
F177	F	-0.204572	0.624614	0.204629
F178	F	-0.444874	0.697581	-0.339666
F179	F	-0.660290	0.697582	-0.339648
H180	H	-0.651644	0.499485	0.037136
