data_functionalizedCrystal
_audit_creation_method	'MofGen! by Chris Wilmer'
_symmetry_space_group_name_H-M	'P1'
_symmetry_Int_Tables_number	1
_symmetry_cell_setting	triclinic
loop_
_symmetry_equiv_pos_as_xyz
  x,y,z
_cell_length_a	18.101395
_cell_length_b	18.101398
_cell_length_c	19.805399
_cell_angle_alpha	90.023953
_cell_angle_beta	89.974882
_cell_angle_gamma	89.973629
loop_
_atom_site_label
_atom_site_type_symbol
_atom_site_fract_x
_atom_site_fract_y
_atom_site_fract_z
Zn1	Zn	-0.294940	-1.132118	-0.382810
Zn2	Zn	0.038393	-0.798785	-0.049477
Zn3	Zn	0.371726	-0.465452	0.283856
Zn4	Zn	-0.418784	-1.132015	-0.269627
Zn5	Zn	-0.085450	-0.798682	0.063706
Zn6	Zn	0.247883	-0.465348	0.397040
Zn7	Zn	-0.294950	-1.008278	-0.269626
Zn8	Zn	0.038383	-0.674945	0.063707
Zn9	Zn	0.371716	-0.341611	0.397040
Zn10	Zn	-0.418734	-1.008228	-0.382765
Zn11	Zn	-0.085401	-0.674895	-0.049432
Zn12	Zn	0.247932	-0.341561	0.283902
O13	O	-0.356852	-1.070160	-0.326207
O14	O	-0.023519	-0.736826	0.007126
O15	O	0.309814	-0.403493	0.340460
O16	O	-0.311385	-1.235737	-0.367815
O17	O	0.021948	-0.902404	-0.034482
O18	O	0.355282	-0.569071	0.298851
O19	O	-0.402382	-1.115579	-0.174910
O20	O	-0.069049	-0.782245	0.158423
O21	O	0.264285	-0.448912	0.491756
O22	O	-0.191316	-1.024770	-0.284659
O23	O	0.142017	-0.691437	0.048674
O24	O	0.475350	-0.358103	0.382008
O25	O	-0.402372	-1.235662	-0.284660
O26	O	-0.069039	-0.902328	0.048673
O27	O	0.264294	-0.568995	0.382007
O28	O	-0.191309	-1.115755	-0.367815
O29	O	0.142025	-0.782421	-0.034482
O30	O	0.475358	-0.449088	0.298852
O31	O	-0.311402	-1.024670	-0.174910
O32	O	0.021931	-0.691336	0.158424
O33	O	0.355264	-0.358003	0.491757
O34	O	-0.311354	-0.904638	-0.284615
O35	O	0.021979	-0.571305	0.048718
O36	O	0.355312	-0.237972	0.382052
O37	O	-0.402288	-1.024685	-0.477488
O38	O	-0.068954	-0.691351	-0.144154
O39	O	0.264379	-0.358018	0.189179
O40	O	-0.402298	-0.904602	-0.367738
O41	O	-0.068964	-0.571268	-0.034404
O42	O	0.264369	-0.237935	0.298929
O43	O	-0.311337	-1.115706	-0.477521
O44	O	0.021997	-0.782373	-0.144188
O45	O	0.355330	-0.449040	0.189146
O46	O	-0.522410	-1.115530	-0.284616
O47	O	-0.189077	-0.782197	0.048717
O48	O	0.144256	-0.448863	0.382050
O49	O	-0.522374	-1.024584	-0.367738
O50	O	-0.189040	-0.691251	-0.034405
O51	O	0.144293	-0.357918	0.298928
C52	C	-0.549263	-1.070061	-0.326187
C53	C	-0.215929	-0.736727	0.007146
C54	C	0.117404	-0.403394	0.340479
C55	C	-0.631577	-1.070086	-0.326201
C56	C	-0.298244	-0.736753	0.007132
C57	C	0.035090	-0.403419	0.340465
C58	C	-0.356822	-0.877749	-0.326172
C59	C	-0.023489	-0.544416	0.007162
C60	C	0.309845	-0.211083	0.340495
C61	C	-0.356827	-0.795435	-0.326173
C62	C	-0.023494	-0.462102	0.007161
C63	C	0.309840	-0.128769	0.340494
C64	C	-0.356806	-1.070201	-0.502750
C65	C	-0.023472	-0.736868	-0.169417
C66	C	0.309861	-0.403535	0.163917
C67	C	-0.356786	-1.070219	-0.577982
C68	C	-0.023452	-0.736886	-0.244649
C69	C	0.309881	-0.403552	0.088685
C70	C	-0.930668	-1.070249	-0.326238
C71	C	-0.597334	-0.736915	0.007096
C72	C	-0.264001	-0.403582	0.340429
C73	C	-0.899351	-1.013161	-0.378666
C74	C	-0.566017	-0.679827	-0.045332
C75	C	-0.232684	-0.346494	0.288001
C76	C	-0.813733	-1.012889	-0.378502
C77	C	-0.480399	-0.679556	-0.045168
C78	C	-0.147066	-0.346223	0.288165
C79	C	-0.782285	-1.070168	-0.326220
C80	C	-0.448952	-0.736835	0.007113
C81	C	-0.115619	-0.403501	0.340446
C82	C	-0.813432	-1.049039	-0.254884
C83	C	-0.480099	-0.715706	0.078449
C84	C	-0.146765	-0.382373	0.411783
C85	C	-0.899077	-1.048671	-0.255198
C86	C	-0.565744	-0.715338	0.078135
C87	C	-0.232410	-0.382005	0.411469
C88	C	-0.899019	-1.148590	-0.344518
C89	C	-0.565685	-0.815257	-0.011185
C90	C	-0.232352	-0.481923	0.322149
C91	C	-0.813368	-1.148129	-0.346082
C92	C	-0.480034	-0.814796	-0.012749
C93	C	-0.146701	-0.481463	0.320584
C94	C	-0.698426	-1.070124	-0.326206
C95	C	-0.365092	-0.736790	0.007127
C96	C	-0.031759	-0.403457	0.340461
C97	C	-1.014527	-1.070291	-0.326247
C98	C	-0.681194	-0.736958	0.007086
C99	C	-0.347861	-0.403624	0.340419
C100	C	-0.163690	-1.070279	-0.326242
C101	C	0.169643	-0.736946	0.007091
C102	C	0.502976	-0.403613	0.340425
C103	C	-0.081376	-1.070330	-0.326257
C104	C	0.251957	-0.736997	0.007077
C105	C	0.585291	-0.403664	0.340410
C106	C	-0.356883	-1.263322	-0.326243
C107	C	-0.023550	-0.929988	0.007090
C108	C	0.309784	-0.596655	0.340424
C109	C	-0.356896	-1.345636	-0.326258
C110	C	-0.023563	-1.012302	0.007075
C111	C	0.309771	-0.678969	0.340408
C112	C	-0.356873	-0.496344	-0.326230
C113	C	-0.023540	-0.163011	0.007104
C114	C	0.309793	0.170322	0.340437
C115	C	-0.299368	-0.527668	-0.274186
C116	C	0.033965	-0.194335	0.059147
C117	C	0.367298	0.138999	0.392480
C118	C	-0.299522	-0.613286	-0.273964
C119	C	0.033811	-0.279953	0.059369
C120	C	0.367144	0.053381	0.392702
C121	C	-0.356850	-0.644727	-0.326201
C122	C	-0.023516	-0.311393	0.007132
C123	C	0.309817	0.021940	0.340465
C124	C	-0.434861	-0.613609	-0.306714
C125	C	-0.101527	-0.280275	0.026620
C126	C	0.231806	0.053058	0.359953
C127	C	-0.434541	-0.527964	-0.306352
C128	C	-0.101208	-0.194630	0.026982
C129	C	0.232125	0.138703	0.360315
C130	C	-0.337046	-0.527958	-0.397883
C131	C	-0.003712	-0.194625	-0.064550
C132	C	0.329621	0.138708	0.268783
C133	C	-0.335308	-0.613609	-0.397492
C134	C	-0.001975	-0.280276	-0.064159
C135	C	0.331358	0.053058	0.269175
C136	C	-0.356841	-0.728586	-0.326187
C137	C	-0.023508	-0.395253	0.007147
C138	C	0.309825	-0.061920	0.340480
C139	C	-0.356887	-0.412485	-0.326243
C140	C	-0.023554	-0.079151	0.007091
C141	C	0.309780	0.254182	0.340424
C142	C	-0.309425	-1.117615	-0.613344
C143	C	0.023908	-0.784282	-0.280011
C144	C	0.357241	-0.450948	0.053322
C145	C	-0.309404	-1.117623	-0.684033
C146	C	0.023930	-0.784289	-0.350700
C147	C	0.357263	-0.450956	-0.017366
C148	C	-0.356747	-1.070237	-0.719358
C149	C	-0.023414	-0.736904	-0.386024
C150	C	0.309920	-0.403571	-0.052691
C151	C	-0.404110	-1.022836	-0.683990
C152	C	-0.070776	-0.689503	-0.350657
C153	C	0.262557	-0.356170	-0.017323
C154	C	-0.404127	-1.022825	-0.613303
C155	C	-0.070793	-0.689492	-0.279970
C156	C	0.262540	-0.356159	0.053364
C157	C	-0.404041	-1.022878	-0.969063
C158	C	-0.070707	-0.689545	-0.635730
C159	C	0.262626	-0.356211	-0.302397
C160	C	-0.404021	-1.022894	-1.039756
C161	C	-0.070688	-0.689561	-0.706422
C162	C	0.262645	-0.356227	-0.373089
C163	C	-0.309317	-1.117675	-1.039794
C164	C	0.024016	-0.784342	-0.706460
C165	C	0.357349	-0.451009	-0.373127
C166	C	-0.309335	-1.117665	-0.969106
C167	C	0.023999	-0.784331	-0.635773
C168	C	0.357332	-0.450998	-0.302440
C169	C	-0.356694	-1.070261	-0.933745
C170	C	-0.023361	-0.736928	-0.600412
C171	C	0.309973	-0.403594	-0.267078
C172	C	-0.356716	-1.070252	-0.857097
C173	C	-0.023383	-0.736919	-0.523763
C174	C	0.309951	-0.403585	-0.190430
C175	C	-0.356730	-1.070249	-0.796005
C176	C	-0.023396	-0.736916	-0.462671
C177	C	0.309937	-0.403583	-0.129338
C178	C	-0.356845	-1.070161	-0.150351
C179	C	-0.023512	-0.736828	0.182982
C180	C	0.309821	-0.403494	0.516316
C181	C	-0.356656	-1.070287	-0.075120
C182	C	-0.023323	-0.736954	0.258214
C183	C	0.310010	-0.403620	0.591547
H184	H	-0.792672	-1.026108	-0.431397
H185	H	-0.459338	-0.692775	-0.098063
H186	H	-0.126005	-0.359442	0.235270
H187	H	-0.241674	-0.634326	-0.286179
H188	H	0.091659	-0.300993	0.047154
H189	H	0.424993	0.032340	0.380487
H190	H	-0.281150	-0.506386	-0.415602
H191	H	0.052183	-0.173053	-0.082268
H192	H	0.385516	0.160280	0.251065
H193	H	-0.270840	-1.156219	-0.712822
H194	H	0.062494	-0.822886	-0.379489
H195	H	0.395827	-0.489552	-0.046155
H196	H	-0.793008	-1.164063	-0.398582
H197	H	-0.459675	-0.830729	-0.065248
H198	H	-0.126341	-0.497396	0.268085
H199	H	-0.451357	-0.507952	-0.253969
H200	H	-0.118023	-0.174619	0.079364
H201	H	0.215310	0.158714	0.412697
H202	H	-0.919796	-1.088448	-0.214803
H203	H	-0.586463	-0.755115	0.118531
H204	H	-0.253129	-0.421781	0.451864
H205	H	-0.919115	-0.991404	-0.239714
H206	H	-0.585781	-0.658071	0.093620
H207	H	-0.252448	-0.324737	0.426953
H208	H	-0.793063	-1.089311	-0.214756
H209	H	-0.459730	-0.755978	0.118577
H210	H	-0.126397	-0.422645	0.451911
H211	H	-0.919901	-1.026248	-0.431732
H212	H	-0.586568	-0.692915	-0.098398
H213	H	-0.253235	-0.359582	0.234935
H214	H	-0.442575	-0.984304	-1.068515
H215	H	-0.109242	-0.650971	-0.735182
H216	H	0.224091	-0.317637	-0.401848
H217	H	-0.241343	-0.507097	-0.286267
H218	H	0.091990	-0.173764	0.047066
H219	H	0.425324	0.159569	0.380400
H220	H	-0.920570	-1.167854	-0.395650
H221	H	-0.587237	-0.834520	-0.062317
H222	H	-0.253904	-0.501187	0.271017
H223	H	-0.793304	-0.954821	-0.366392
H224	H	-0.459971	-0.621487	-0.033059
H225	H	-0.126637	-0.288154	0.300274
H226	H	-0.920932	-0.955445	-0.366709
H227	H	-0.587598	-0.622112	-0.033376
H228	H	-0.254265	-0.288778	0.299958
H229	H	-0.277901	-0.633953	-0.412187
H230	H	0.055432	-0.300620	-0.078853
H231	H	0.388766	0.032714	0.254480
H232	H	-0.270785	-1.156253	-0.940349
H233	H	0.062548	-0.822920	-0.607015
H234	H	0.395881	-0.489586	-0.273682
H235	H	-0.451968	-0.635024	-0.254897
H236	H	-0.118634	-0.301691	0.078436
H237	H	0.214699	0.031643	0.411770
H238	H	-0.442614	-0.984290	-0.940281
H239	H	-0.109281	-0.650956	-0.606947
H240	H	0.224052	-0.317623	-0.273614
H241	H	-0.791957	-1.192913	-0.310680
H242	H	-0.458624	-0.859580	0.022653
H243	H	-0.125291	-0.526246	0.355986
H244	H	-0.442685	-0.984223	-0.584512
H245	H	-0.109352	-0.650890	-0.251178
H246	H	0.223982	-0.317556	0.082155
H247	H	-0.312328	-0.506119	-0.221401
H248	H	0.021006	-0.172786	0.111933
H249	H	0.354339	0.160548	0.445266
H250	H	-0.312630	-0.633740	-0.220869
H251	H	0.020703	-0.300407	0.112464
H252	H	0.354037	0.032927	0.445797
H253	H	-0.270752	-1.156271	-1.068593
H254	H	0.062581	-0.822938	-0.735260
H255	H	0.395914	-0.489604	-0.401927
H256	H	-0.442655	-0.984252	-0.712757
H257	H	-0.109321	-0.650918	-0.379424
H258	H	0.224012	-0.317585	-0.046090
H259	H	-0.478838	-0.507241	-0.342605
H260	H	-0.145504	-0.173908	-0.009271
H261	H	0.187829	0.159425	0.324062
H262	H	-0.919270	-1.191123	-0.306333
H263	H	-0.585937	-0.857789	0.027001
H264	H	-0.252604	-0.524456	0.360334
H265	H	-0.792042	-0.992379	-0.239122
H266	H	-0.458708	-0.659045	0.094211
H267	H	-0.125375	-0.325712	0.427544
H268	H	-0.478854	-0.633973	-0.343433
H269	H	-0.145521	-0.300640	-0.010100
H270	H	0.187812	0.032694	0.323234
H271	H	-0.374140	-0.635014	-0.438346
H272	H	-0.040807	-0.301681	-0.105013
H273	H	0.292527	0.031653	0.228321
H274	H	-0.378930	-0.507701	-0.436660
H275	H	-0.045597	-0.174368	-0.103327
H276	H	0.287736	0.158965	0.230006
H277	H	-0.270875	-1.156204	-0.584588
H278	H	0.062458	-0.822871	-0.251255
H279	H	0.395792	-0.489537	0.082078
