data_functionalizedCrystal
_audit_creation_method	'MofGen! by Chris Wilmer'
_symmetry_space_group_name_H-M	'P1'
_symmetry_Int_Tables_number	1
_symmetry_cell_setting	triclinic
loop_
_symmetry_equiv_pos_as_xyz
  x,y,z
_cell_length_a	16.120530
_cell_length_b	12.759400
_cell_length_c	12.759393
_cell_angle_alpha	90.031769
_cell_angle_beta	87.082105
_cell_angle_gamma	92.889638
loop_
_atom_site_label
_atom_site_type_symbol
_atom_site_fract_x
_atom_site_fract_y
_atom_site_fract_z
Zn1	Zn	1.274616	0.499752	-0.675425
Zn2	Zn	1.274534	0.675466	-0.499740
Zn3	Zn	1.135195	0.490887	-0.490856
Zn4	Zn	1.135184	0.666468	-0.666477
O5	O	1.204882	0.583143	-0.583125
O6	O	1.391272	0.530536	-0.659583
O7	O	1.256022	0.651037	-0.351539
O8	O	1.153728	0.345044	-0.515366
O9	O	1.391212	0.659633	-0.530508
O10	O	1.256160	0.351557	-0.650968
O11	O	1.153650	0.515427	-0.345012
O12	O	1.018527	0.506703	-0.506690
O13	O	1.153709	0.644298	-0.814687
O14	O	1.018518	0.635702	-0.635718
O15	O	1.256149	0.521812	-0.821261
O16	O	1.256010	0.821291	-0.521832
O17	O	1.153630	0.814681	-0.644333
C18	C	1.204833	0.856107	-0.583100
C19	C	1.204888	0.972888	-0.583129
C20	C	0.988272	0.569264	-0.569270
C21	C	0.895606	0.563352	-0.563367
C22	C	1.204936	0.583040	-0.857162
C23	C	1.204959	0.582996	-0.973940
C24	C	0.725942	0.552534	-0.552601
C25	C	0.684662	0.613830	-0.613726
C26	C	0.590256	0.607810	-0.607735
C27	C	0.820357	0.558552	-0.558590
C28	C	1.422338	0.597077	-0.597034
C29	C	1.515005	0.603015	-0.602962
C30	C	1.204955	0.309115	-0.583174
C31	C	1.204985	0.192340	-0.583195
C32	C	1.258257	1.031161	-0.519421
C33	C	1.258308	1.140888	-0.519456
C34	C	1.151614	1.134059	-0.646911
C35	C	1.151568	1.024334	-0.646880
C36	C	1.311576	0.979714	-0.455669
C37	C	1.364949	1.037987	-0.391955
C38	C	1.365000	1.147715	-0.391990
C39	C	1.311679	1.199169	-0.455741
C40	C	1.151677	0.512373	-1.025411
C41	C	1.151702	0.512343	-1.135136
C42	C	1.258300	0.653563	-1.141911
C43	C	1.258269	0.653596	-1.032187
C44	C	1.098367	0.441772	-0.967163
C45	C	1.045081	0.371143	-1.018634
C46	C	1.045106	0.371113	-1.128360
C47	C	1.098417	0.441713	-1.186615
C48	C	1.204876	0.583174	-0.310157
C49	C	1.205015	0.582932	-0.193390
H50	H	0.720223	0.670826	-0.670557
N51	N	0.681327	0.481038	-0.481318
N52	N	0.603588	0.476195	-0.476496
H53	H	0.572069	0.425704	-0.426152
N54	N	1.311530	0.867632	-0.455612
N55	N	1.359136	0.821707	-0.398687
H56	H	1.359101	0.742548	-0.398644
H57	H	1.408366	0.996088	-0.340058
H58	H	1.001672	0.313668	-0.971195
N59	N	1.419529	1.207225	-0.326918
N60	N	1.467132	1.161274	-0.270011
H61	H	1.505645	1.203300	-0.224048
N62	N	1.311745	1.311254	-0.455772
N63	N	1.359403	1.363274	-0.398886
H64	H	1.359448	1.442434	-0.398902
H65	H	1.108202	1.175962	-0.698812
N66	N	1.312776	0.725658	-1.201399
N67	N	1.360354	0.788702	-1.155429
H68	H	1.398835	0.839616	-1.197441
H69	H	1.108111	0.976888	-0.698758
H70	H	1.098342	0.441786	-0.877819
H71	H	1.001712	0.313610	-1.170264
N72	N	1.312696	0.725746	-0.979620
N73	N	1.360294	0.788772	-1.031636
H74	H	1.398732	0.839733	-0.994511
H75	H	1.098431	0.441685	-1.275961
