data_functionalizedCrystal
_audit_creation_method	'MofGen! by Chris Wilmer'
_symmetry_space_group_name_H-M	'P1'
_symmetry_Int_Tables_number	1
_symmetry_cell_setting	triclinic
loop_
_symmetry_equiv_pos_as_xyz
  x,y,z
_cell_length_a	10.868271
_cell_length_b	10.654550
_cell_length_c	11.792241
_cell_angle_alpha	95.660827
_cell_angle_beta	90.005281
_cell_angle_gamma	89.998935
loop_
_atom_site_label
_atom_site_type_symbol
_atom_site_fract_x
_atom_site_fract_y
_atom_site_fract_z
O1	O	0.102231	-1.667390	0.159421
O2	O	0.435564	-1.334057	0.492754
O3	O	0.768898	-1.000723	0.826087
O4	O	0.102254	-1.301868	0.174609
O5	O	0.435587	-0.968535	0.507943
O6	O	0.768920	-0.635202	0.841276
O7	O	0.102233	-1.493499	0.001865
O8	O	0.435566	-1.160166	0.335198
O9	O	0.768900	-0.826833	0.668532
O10	O	0.102251	-1.475759	0.332165
O11	O	0.435585	-1.142426	0.665498
O12	O	0.768918	-0.809092	0.998832
O13	O	-0.102412	-1.493483	0.001858
O14	O	0.230922	-1.160150	0.335191
O15	O	0.564255	-0.826817	0.668525
O16	O	-0.102391	-1.301853	0.174602
O17	O	0.230942	-0.968519	0.507936
O18	O	0.564276	-0.635186	0.841269
O19	O	-0.102414	-1.667374	0.159414
O20	O	0.230920	-1.334041	0.492747
O21	O	0.564253	-1.000707	0.826081
Zn22	Zn	-0.134894	-1.484611	0.167007
Zn23	Zn	0.198439	-1.151277	0.500340
Zn24	Zn	0.531773	-0.817944	0.833674
Zn25	Zn	0.134734	-1.484632	0.167016
Zn26	Zn	0.468067	-1.151298	0.500349
Zn27	Zn	0.801401	-0.817965	0.833683
O28	O	-0.102393	-1.475743	0.332158
O29	O	0.230940	-1.142410	0.665491
O30	O	0.564273	-0.809076	0.998825
C31	C	-0.000066	-1.255066	0.173491
C32	C	0.333267	-0.921732	0.506824
C33	C	0.666601	-0.588399	0.840157
C34	C	-0.000057	-1.115632	0.170154
C35	C	0.333276	-0.782299	0.503487
C36	C	0.666609	-0.448965	0.836821
N37	N	-0.318908	-1.484606	0.167000
N38	N	0.014425	-1.151272	0.500334
N39	N	0.347758	-0.817939	0.833667
C40	C	-0.000089	-1.492377	-0.040432
C41	C	0.333245	-1.159044	0.292901
C42	C	0.666578	-0.825710	0.626235
C43	C	-0.000087	-1.489042	-0.166453
C44	C	0.333246	-1.155708	0.166880
C45	C	0.666579	-0.822375	0.500213
C46	C	-0.569914	-1.484625	0.167014
C47	C	-0.236581	-1.151292	0.500347
C48	C	0.096752	-0.817958	0.833680
C49	C	-0.430237	-1.484610	0.167009
C50	C	-0.096903	-1.151277	0.500343
C51	C	0.236430	-0.817944	0.833676
N52	N	0.318748	-1.484647	0.167014
N53	N	0.652081	-1.151313	0.500347
N54	N	0.985415	-0.817980	0.833681
C55	C	-0.000091	-1.714177	0.160533
C56	C	0.333242	-1.380843	0.493866
C57	C	0.666575	-1.047510	0.827199
C58	C	-0.000092	-1.853611	0.163869
C59	C	0.333242	-1.520277	0.497202
C60	C	0.666575	-1.186944	0.830536
C61	C	-0.000055	-1.035859	0.271863
C62	C	0.333278	-0.702525	0.605196
C63	C	0.666611	-0.369192	0.938530
C64	C	-0.000077	-0.904847	0.268721
C65	C	0.333256	-0.571513	0.602055
C66	C	0.666590	-0.238180	0.935388
C67	C	-0.000098	-0.933394	0.062152
C68	C	0.333236	-0.600061	0.395486
C69	C	0.666569	-0.266727	0.728819
C70	C	-0.000085	-1.064403	0.065295
C71	C	0.333248	-0.731070	0.398629
C72	C	0.666582	-0.397737	0.731962
C73	C	-0.000066	-1.482908	-0.397180
C74	C	0.333267	-1.149575	-0.063846
C75	C	0.666600	-0.816242	0.269487
C76	C	-0.000078	-1.486316	-0.268787
C77	C	0.333256	-1.152983	0.064547
C78	C	0.666589	-0.819649	0.397880
C79	C	-0.000069	-1.476865	0.374455
C80	C	0.333265	-1.143532	0.707788
C81	C	0.666598	-0.810199	1.041122
C82	C	-0.000062	-1.480201	0.500477
C83	C	0.333271	-1.146867	0.833810
C84	C	0.666605	-0.813534	1.167143
H85	H	-0.000042	-1.077564	0.357246
H86	H	0.333291	-0.744231	0.690579
H87	H	0.666624	-0.410897	1.023912
H88	H	-0.000078	-0.839900	0.351543
H89	H	0.333256	-0.506566	0.684877
H90	H	0.666589	-0.173233	1.018210
H91	H	-0.000127	-0.891668	-0.023220
H92	H	0.333206	-0.558334	0.310113
H93	H	0.666539	-0.225001	0.643446
H94	H	-0.000090	-1.129359	-0.017534
H95	H	0.333243	-0.796025	0.315800
H96	H	0.666577	-0.462692	0.649133
