data_functionalizedCrystal
_audit_creation_method	'MofGen! by Chris Wilmer'
_symmetry_space_group_name_H-M	'P1'
_symmetry_Int_Tables_number	1
_symmetry_cell_setting	triclinic
loop_
_symmetry_equiv_pos_as_xyz
  x,y,z
_cell_length_a	12.594517
_cell_length_b	13.032721
_cell_length_c	13.032268
_cell_angle_alpha	103.289627
_cell_angle_beta	82.831030
_cell_angle_gamma	82.796342
loop_
_atom_site_label
_atom_site_type_symbol
_atom_site_fract_x
_atom_site_fract_y
_atom_site_fract_z
Zn1	Zn	1.478017	0.499064	0.654047
Zn2	Zn	1.978017	0.999064	1.154047
Zn3	Zn	1.477901	0.654149	0.498995
Zn4	Zn	1.977901	1.154149	0.998995
Zn5	Zn	1.325915	0.476561	0.476482
Zn6	Zn	1.825915	0.976561	0.976482
Zn7	Zn	1.274106	0.676625	0.676558
Zn8	Zn	1.774106	1.176625	1.176558
O9	O	1.388985	0.576600	0.576520
O10	O	1.888985	1.076600	1.076520
O11	O	1.626946	0.519648	0.633479
O12	O	2.126946	1.019648	1.133479
O13	O	1.479374	0.611767	0.347386
O14	O	1.979374	1.111767	0.847386
O15	O	1.367823	0.330915	0.481194
O16	O	1.867823	0.830915	0.981194
O17	O	1.626861	0.633588	0.519563
O18	O	2.126861	1.133588	1.019563
O19	O	1.479572	0.347448	0.611650
O20	O	1.979572	0.847448	1.111650
O21	O	1.367710	0.481294	0.330846
O22	O	1.867710	0.981294	0.830846
O23	O	1.170098	0.503089	0.503022
O24	O	1.670098	1.003089	1.003022
O25	O	1.279522	0.671895	0.822194
O26	O	1.779522	1.171895	1.322194
O27	O	1.132034	0.650075	0.650017
O28	O	1.632034	1.150075	1.150017
O29	O	1.429334	0.541442	0.805655
O30	O	1.929334	1.041442	1.305655
O31	O	1.429136	0.805761	0.541391
O32	O	1.929136	1.305761	1.041391
O33	O	1.279409	0.822274	0.671846
O34	O	1.779409	1.322274	1.171846
C35	C	1.112447	0.576579	0.576520
C36	C	1.612447	1.076579	1.076520
C37	C	0.994135	0.576600	0.576549
C38	C	1.494135	1.076600	1.076549
C39	C	0.833447	0.656657	0.656384
C40	C	1.333447	1.156657	1.156384
C41	C	0.914585	0.670201	0.562731
C42	C	1.414585	1.170201	1.062731
C43	C	0.914563	0.563102	0.670197
C44	C	1.414563	1.063102	1.170197
C45	C	0.864487	0.590218	0.482823
C46	C	1.364487	1.090218	0.982823
C47	C	0.864456	0.483081	0.590349
C48	C	1.364456	0.983081	1.090349
C49	C	0.945578	0.496580	0.496625
C50	C	1.445578	0.996580	0.996625
C51	C	1.348664	0.852559	0.611527
C52	C	1.848664	1.352559	1.111527
C53	C	1.331506	0.970620	0.626539
C54	C	1.831506	1.470620	1.126539
C55	C	1.348662	0.611686	0.853538
C56	C	1.848662	1.111686	1.353538
C57	C	1.331479	0.626638	0.971586
C58	C	1.831479	1.126638	1.471586
C59	C	1.666603	0.576621	0.576521
C60	C	2.166603	1.076621	1.076521
C61	C	1.784907	0.576630	0.576522
C62	C	2.284907	1.076630	1.076522
C63	C	1.429489	0.299566	0.541400
C64	C	1.929489	0.799566	1.041400
C65	C	1.446750	0.181511	0.526434
C66	C	1.946750	0.681511	1.026434
C67	C	1.397989	1.015056	0.568733
C68	C	1.897989	1.515056	1.068733
C69	C	1.380258	1.137078	0.584247
C70	C	1.880258	1.637078	1.084247
C71	C	1.429224	0.541573	0.300571
C72	C	1.929224	1.041573	0.800571
C73	C	1.446657	0.526322	0.182485
C74	C	1.946657	1.026322	0.682485
C75	C	1.397942	0.568758	1.016033
C76	C	1.897942	1.068758	1.516033
C77	C	1.380184	0.584210	1.138042
C78	C	1.880184	1.084210	1.638042
H79	H	0.993951	0.428882	0.429030
H80	H	1.493951	0.928882	0.929030
H81	H	1.467987	0.507762	0.963758
H82	H	1.967987	1.007762	1.463758
F83	F	0.769979	0.745176	0.744554
F84	F	1.269979	1.245176	1.244554
F85	F	1.538317	1.113172	0.446733
F86	F	2.038317	1.613172	0.946733
H87	H	1.310124	0.645200	1.190312
H88	H	1.810124	1.145200	1.690312
F89	F	1.239954	1.038965	0.706245
F90	F	1.739954	1.538965	1.206245
H91	H	1.516706	0.465320	1.130215
H92	H	2.016706	0.965320	1.630215
F93	F	1.239913	0.706356	1.039907
F94	F	1.739913	1.206356	1.539907
H95	H	0.936947	0.749299	0.551037
H96	H	1.436947	1.249299	1.051037
F97	F	0.835456	0.605280	0.379276
F98	F	1.335456	1.105280	0.879276
F99	F	0.835182	0.379730	0.605673
F100	F	1.335182	0.879730	1.105673
H101	H	0.936898	0.551670	0.749405
H102	H	1.436898	1.051670	1.249405
F103	F	1.489551	0.946712	0.489039
F104	F	1.989551	1.446712	0.989039
F105	F	1.288700	1.205420	0.663958
F106	F	1.788700	1.705420	1.163958
