data_functionalizedCrystal
_audit_creation_method	'MofGen! by Chris Wilmer'
_symmetry_space_group_name_H-M	'P1'
_symmetry_Int_Tables_number	1
_symmetry_cell_setting	triclinic
loop_
_symmetry_equiv_pos_as_xyz
  x,y,z
_cell_length_a	16.625548
_cell_length_b	12.759394
_cell_length_c	12.759387
_cell_angle_alpha	90.031660
_cell_angle_beta	89.977122
_cell_angle_gamma	89.984095
loop_
_atom_site_label
_atom_site_type_symbol
_atom_site_fract_x
_atom_site_fract_y
_atom_site_fract_z
Zn1	Zn	1.232742	0.418181	-0.594065
Zn2	Zn	1.232657	0.593898	-0.418383
Zn3	Zn	1.097898	0.418237	-0.418395
Zn4	Zn	1.097892	0.593822	-0.594015
O5	O	1.165297	0.506035	-0.506214
O6	O	1.345563	0.441499	-0.570777
O7	O	1.214749	0.570652	-0.271363
O8	O	1.115823	0.271208	-0.441724
O9	O	1.345501	0.570597	-0.441704
O10	O	1.214892	0.271167	-0.570788
O11	O	1.115741	0.441594	-0.271372
O12	O	0.985065	0.441520	-0.441675
O13	O	1.115813	0.570468	-0.741043
O14	O	0.985060	0.570522	-0.570702
O15	O	1.214886	0.441425	-0.741080
O16	O	1.214743	0.740909	-0.441655
O17	O	1.115731	0.740853	-0.570691
C18	C	1.165249	0.779002	-0.506189
C19	C	1.165302	0.895779	-0.506213
C20	C	0.955806	0.506020	-0.506185
C21	C	0.866185	0.506038	-0.506197
C22	C	1.165358	0.505932	-0.780248
C23	C	1.165384	0.505888	-0.897025
C24	C	0.538010	0.506045	-0.506242
C25	C	0.629318	0.506040	-0.506227
C26	C	0.702094	0.506042	-0.506219
C27	C	0.793409	0.506036	-0.506205
C28	C	1.375606	0.506050	-0.506245
C29	C	1.465227	0.506057	-0.506257
C30	C	1.165368	0.232001	-0.506263
C31	C	1.165398	0.115224	-0.506284
C32	C	1.268480	0.895784	-0.371949
C33	C	1.320090	0.950647	-0.304829
C34	C	1.320137	1.060368	-0.304858
C35	C	1.268571	1.115229	-0.372015
C36	C	1.216961	1.060366	-0.439135
C37	C	1.216917	0.950642	-0.439097
C38	C	1.113788	1.060361	-0.573403
C39	C	1.113735	0.950640	-0.573371
C40	C	1.062221	1.115222	-0.640561
C41	C	1.010606	1.060359	-0.707677
C42	C	1.010560	0.950631	-0.707645
C43	C	1.062125	0.895776	-0.640491
C44	C	1.268556	0.371524	-0.897083
C45	C	1.320154	0.304327	-0.951973
C46	C	1.320173	0.304289	-1.061695
C47	C	1.268588	0.371453	-1.116529
C48	C	1.216991	0.438650	-1.061639
C49	C	1.216979	0.438683	-0.951915
C50	C	1.113816	0.573007	-1.061581
C51	C	1.113799	0.573052	-0.951859
C52	C	1.062231	0.640171	-1.116415
C53	C	1.010636	0.707375	-1.061525
C54	C	1.010619	0.707411	-0.951797
C55	C	1.062202	0.640249	-0.896969
C56	C	1.165283	0.506061	-0.233247
C57	C	1.165413	0.505809	-0.116471
H58	H	1.362077	0.905970	-0.250151
H59	H	1.268436	0.806443	-0.371905
N60	N	1.375798	1.119559	-0.232471
H61	H	1.433397	1.100397	-0.248841
H62	H	1.363224	1.100524	-0.157412
H63	H	1.268621	1.204570	-0.372042
H64	H	1.362183	0.249564	-1.106386
N65	N	1.375801	0.231897	-0.892839
H66	H	1.433403	0.248233	-0.911961
H67	H	1.363243	0.156849	-0.911973
N68	N	1.268586	0.371387	-1.234871
H69	H	1.309093	0.318617	-1.261323
H70	H	1.283359	0.443481	-1.261229
N71	N	1.062272	1.233564	-0.640601
H72	H	1.102788	1.259997	-0.587889
H73	H	1.006947	1.259981	-0.621272
N74	N	0.954989	1.119530	-0.780096
H75	H	0.922282	1.068129	-0.822608
H76	H	0.987814	1.164974	-0.828769
N77	N	0.954898	0.891459	-0.780045
H78	H	0.922242	0.942866	-0.822590
H79	H	0.917575	0.846013	-0.737228
H80	H	1.062247	0.640131	-1.205756
N81	N	1.062075	0.777435	-0.640447
H82	H	1.117371	0.750931	-0.659807
H83	H	1.021521	0.751083	-0.693146
N84	N	1.268545	0.371580	-0.778741
H85	H	1.309053	0.318841	-0.752333
H86	H	1.213210	0.352297	-0.752377
H87	H	0.968636	0.762049	-1.106180
H88	H	0.968594	0.762120	-0.907112
N89	N	1.062171	0.640298	-0.778627
H90	H	1.117469	0.659632	-0.752196
H91	H	1.047333	0.568216	-0.752296
