data_functionalizedCrystal
_audit_creation_method	'MofGen! by Chris Wilmer'
_symmetry_space_group_name_H-M	'P1'
_symmetry_Int_Tables_number	1
_symmetry_cell_setting	triclinic
loop_
_symmetry_equiv_pos_as_xyz
  x,y,z
_cell_length_a	17.000371
_cell_length_b	14.519709
_cell_length_c	16.098662
_cell_angle_alpha	93.048458
_cell_angle_beta	93.244023
_cell_angle_gamma	79.639696
loop_
_atom_site_label
_atom_site_type_symbol
_atom_site_fract_x
_atom_site_fract_y
_atom_site_fract_z
O1	O	-1.059332	-0.036633	-0.069259
O2	O	-0.827647	-0.070101	-0.069261
O3	O	-0.949632	0.081382	-0.069253
O4	O	-0.937348	-0.188116	-0.069268
O5	O	-0.943257	0.088197	0.069258
O6	O	-0.821272	-0.063285	0.069250
O7	O	-1.052957	-0.029818	0.069252
Zn8	Zn	-0.936102	-0.045470	0.091242
Zn9	Zn	-0.944502	-0.054449	-0.091252
O10	O	-0.930972	-0.181301	0.069243
C11	C	-0.945872	0.119102	0.000003
C12	C	-0.944156	0.221340	0.000003
C13	C	-0.794809	-0.068491	-0.000005
C14	C	-0.706458	-0.073836	-0.000006
C15	C	-1.085796	-0.031428	-0.000006
C16	C	-1.174147	-0.026083	-0.000011
C17	C	-0.674315	0.008422	0.000000
C18	C	-0.591299	0.003393	-0.000006
C19	C	-0.540428	-0.083893	-0.000012
C20	C	-0.572576	-0.166157	-0.000021
C21	C	-0.655590	-0.161128	-0.000021
C22	C	-0.289310	-0.103318	-0.000019
C23	C	-0.206290	-0.108341	-0.000017
C24	C	-0.225019	0.061210	-0.000003
C25	C	-0.308034	0.066232	0.000002
C26	C	-0.340175	-0.016032	-0.000011
C27	C	-0.455572	-0.089035	-0.000016
C28	C	-0.425030	-0.010890	-0.000013
C29	C	-0.934733	-0.219020	-0.000014
C30	C	-0.936449	-0.321260	-0.000020
N31	N	-0.930376	-0.039341	0.215790
C32	C	-0.937841	0.595711	-0.000018
C33	C	-0.939595	0.491549	-0.000012
C34	C	-0.940998	0.408529	-0.000007
C35	C	-0.942753	0.304360	-0.000002
N36	N	-0.950235	-0.060571	-0.215799
C37	C	-0.903894	-0.010686	0.740602
C38	C	-0.907895	-0.015010	0.653414
C39	C	-0.958233	-0.069224	0.609827
C40	C	-1.004580	-0.119110	0.653432
C41	C	-1.000583	-0.114781	0.740618
C42	C	-0.972725	-0.084897	0.346581
C43	C	-0.976717	-0.089225	0.259389
C44	C	-0.880033	0.014877	0.259377
C45	C	-0.876036	0.019198	0.346565
C46	C	-0.922386	-0.030684	0.390162
C47	C	-0.962322	-0.073648	0.520707
C48	C	-0.918301	-0.026255	0.479281
H49	H	-0.715729	0.079500	0.000009
C50	C	-0.734815	-0.250330	0.071172
C51	C	-0.690928	-0.251546	-0.000027
H52	H	-0.756634	-0.306150	0.071160
H53	H	-0.700597	-0.246400	0.119466
H54	H	-0.776988	-0.197620	0.071166
H55	H	-0.648751	-0.304253	-0.000019
H56	H	-0.725149	-0.255485	-0.048334
H57	H	-0.414143	-0.160104	-0.000020
C58	C	-0.866413	0.147686	0.444590
C59	C	-0.820707	0.078792	0.394481
H60	H	-0.832251	0.184470	0.474175
H61	H	-0.904534	0.186726	0.410561
H62	H	-0.893439	0.118581	0.483026
H63	H	-0.793685	0.107898	0.356040
H64	H	-0.782571	0.039747	0.428513
C65	C	-0.777486	0.007173	0.161343
C66	C	-0.829094	0.069712	0.211452
H67	H	-0.746043	0.041033	0.131754
H68	H	-0.743375	-0.036184	0.195373
H69	H	-0.808045	-0.025730	0.122910
H70	H	-0.798535	0.102611	0.249889
H71	H	-0.863210	0.113087	0.177419
H72	H	-1.045570	-0.163248	0.617936
H73	H	-0.870162	0.025614	0.617920
H74	H	-0.466453	0.060178	-0.000013
H75	H	-0.349449	0.137310	0.000011
H76	H	-0.164871	-0.179424	-0.000018
C77	C	-0.562408	-0.333245	-0.000044
C78	C	-0.516661	-0.262106	-0.000033
H79	H	-0.527888	-0.392481	-0.000055
H80	H	-0.592950	-0.325385	0.048256
H81	H	-0.597402	-0.330124	-0.048349
H82	H	-0.481670	-0.265224	0.048275
H83	H	-0.486105	-0.269970	-0.048337
H84	H	-0.315469	-0.170304	-0.000035
H85	H	-0.877318	0.017889	0.514773
H86	H	-0.862899	0.033456	0.776084
C87	C	-0.618149	0.171491	0.000027
C88	C	-0.555968	0.093815	0.000011
H89	H	-0.596335	0.227314	0.000043
H90	H	-0.652360	0.167556	-0.048272
H91	H	-0.647915	0.172287	0.048332
H92	H	-0.526206	0.093015	-0.048298
H93	H	-0.521743	0.097750	0.048315
C94	C	-0.106082	0.128789	-0.000006
C95	C	-0.189688	0.151630	-0.000001
H96	H	-0.084273	0.184615	-0.000013
H97	H	-0.086411	0.095521	0.048292
H98	H	-0.090862	0.090753	-0.048312
H99	H	-0.204908	0.189661	0.048308
H100	H	-0.209366	0.184914	-0.048304
C101	C	-1.071897	-0.191685	0.268153
C102	C	-1.032055	-0.148819	0.211476
H103	H	-1.106060	-0.228470	0.238571
H104	H	-1.033769	-0.230725	0.302177
H105	H	-1.102892	-0.144928	0.302141
H106	H	-1.001055	-0.195576	0.177492
H107	H	-1.070188	-0.109776	0.177438
H108	H	-1.010465	-0.125515	0.382068
C109	C	-1.096546	-0.218121	0.731878
C110	C	-1.051520	-0.169618	0.788545
H111	H	-1.127991	-0.251978	0.761468
H112	H	-1.130656	-0.174754	0.697856
H113	H	-1.061523	-0.260540	0.697888
H114	H	-1.086544	-0.127194	0.822531
H115	H	-1.017407	-0.212990	0.822582
C116	C	-0.971939	-0.202139	0.422686
C117	C	-1.017649	-0.133247	0.472792
H118	H	-1.006097	-0.238934	0.393107
H119	H	-0.944920	-0.173040	0.384251
H120	H	-0.933810	-0.241178	0.456722
H121	H	-1.055775	-0.094204	0.438754
H122	H	-1.044682	-0.162348	0.511231
