data_functionalizedCrystal
_audit_creation_method	'MofGen! by Chris Wilmer'
_symmetry_space_group_name_H-M	'P1'
_symmetry_Int_Tables_number	1
_symmetry_cell_setting	triclinic
loop_
_symmetry_equiv_pos_as_xyz
  x,y,z
_cell_length_a	12.784890
_cell_length_b	12.811415
_cell_length_c	18.366186
_cell_angle_alpha	84.564038
_cell_angle_beta	90.008121
_cell_angle_gamma	101.399774
loop_
_atom_site_label
_atom_site_type_symbol
_atom_site_fract_x
_atom_site_fract_y
_atom_site_fract_z
O1	O	1.410355	-0.006563	0.060961
O2	O	1.101098	-0.051497	0.063933
O3	O	1.263505	0.124473	0.052308
O4	O	1.247948	-0.182532	0.072586
O5	O	1.263477	0.124475	-0.068792
O6	O	1.101070	-0.051495	-0.057166
O7	O	1.410326	-0.006561	-0.060139
Zn8	Zn	1.255694	-0.029028	-0.077880
Zn9	Zn	1.255731	-0.029030	0.081674
O10	O	1.247919	-0.182530	-0.048513
C11	C	1.061497	-0.054418	0.003577
C12	C	0.943542	-0.063114	0.004154
C13	C	0.765049	-0.172093	0.011353
C14	C	0.875878	-0.163930	0.010814
C15	C	0.900371	0.029545	-0.001965
C16	C	0.789542	0.021382	-0.001426
C17	C	0.721884	-0.079441	0.005232
C18	C	0.611054	-0.087603	0.005766
C19	C	0.635549	0.105871	-0.007008
C20	C	0.746378	0.114034	-0.007547
C21	C	1.262618	0.163498	-0.010818
C22	C	1.260006	0.279778	-0.018494
C23	C	1.449927	-0.003639	0.000219
C24	C	1.567882	0.005056	-0.000353
C25	C	1.248806	-0.221556	0.014614
C26	C	1.251418	-0.337836	0.022295
C27	C	1.255109	0.498265	0.099121
C28	C	1.252654	0.607520	0.091912
C29	C	1.252634	0.607544	-0.040119
C30	C	1.255089	0.498289	-0.032910
C31	C	1.256328	0.443654	0.036712
C32	C	1.258790	0.334398	0.043920
C33	C	1.258763	0.334422	-0.088110
C34	C	1.256308	0.443678	-0.095319
N35	N	1.255676	-0.029024	-0.186771
C36	C	1.320385	-0.086820	-0.221049
C37	C	1.320403	-0.086815	-0.297277
C38	C	1.255691	-0.029029	-0.339223
C39	C	1.190977	0.028778	-0.304937
C40	C	1.190970	0.028781	-0.228711
C41	C	1.159896	-0.034822	-0.459620
C42	C	1.159901	-0.034833	-0.535844
C43	C	1.255715	-0.029031	-0.574331
C44	C	1.351525	-0.023241	-0.536582
C45	C	1.351518	-0.023238	-0.460356
C46	C	1.255692	-0.029025	-0.421878
C47	C	1.320449	-0.086824	-0.691264
C48	C	1.320468	-0.086812	-0.767494
C49	C	1.191033	0.028775	-0.775152
C50	C	1.191023	0.028770	-0.698924
C51	C	1.255729	-0.029036	-0.656984
N52	N	1.255757	-0.029024	0.190565
H53	H	0.555968	-0.169698	0.011184
O54	O	1.260163	0.281305	0.111526
C55	C	1.353467	0.238344	0.118316
H56	H	1.416979	0.285450	0.077763
H57	H	1.334543	0.150966	0.106335
C58	C	1.317152	0.187964	0.246507
C59	C	1.395161	0.245826	0.196703
H60	H	1.342869	0.192573	0.294860
H61	H	1.254289	0.216903	0.241932
H62	H	1.301388	0.115153	0.236514
H63	H	1.410913	0.318636	0.206691
H64	H	1.458028	0.216899	0.201281
H65	H	0.600394	0.181316	-0.011934
O66	O	1.444609	-0.017413	-0.574001
C67	C	1.463170	0.074912	-0.624202
H68	H	1.417763	0.135913	-0.605269
H69	H	1.434542	0.052562	-0.680502
C70	C	1.639225	0.048628	-0.651815
C71	C	1.583462	0.123555	-0.628558
H72	H	1.713427	0.078632	-0.654506
H73	H	1.626719	-0.013575	-0.617996
H74	H	1.615356	0.030010	-0.698730
H75	H	1.607322	0.142162	-0.581641
H76	H	1.595975	0.185763	-0.662370
O77	O	0.699473	-0.270109	0.017856
C78	C	0.761337	-0.350139	0.023119
H79	H	0.843936	-0.315965	0.043789
H80	H	0.769346	-0.379008	-0.033073
C81	C	0.605072	-0.486695	0.051467
C82	C	0.706518	-0.444725	0.076860
H83	H	0.571256	-0.545044	0.084614
H84	H	0.563391	-0.432779	0.047918
H85	H	0.611759	-0.510745	0.004640
H86	H	0.699828	-0.420664	0.123682
H87	H	0.748196	-0.498640	0.080418
O88	O	1.254921	0.496669	-0.162958
C89	C	1.163628	0.449689	-0.200033
H90	H	1.100067	0.405473	-0.158495
H91	H	1.185831	0.390866	-0.237313
C92	C	1.197839	0.591866	-0.297299
C93	C	1.119769	0.537567	-0.246282
H94	H	1.170787	0.646072	-0.325830
H95	H	1.259348	0.623516	-0.272323
H96	H	1.216335	0.542836	-0.328358
H97	H	1.101284	0.586595	-0.215218
H98	H	1.058256	0.505928	-0.271254
H99	H	1.259759	0.289947	-0.138928
O100	O	0.917856	-0.253903	0.016888
C101	C	0.981262	-0.254956	0.079668
H102	H	0.954823	-0.202516	0.120038
H103	H	1.068546	-0.222786	0.063364
C104	C	1.000804	-0.434809	0.066154
C105	C	0.968325	-0.370408	0.115740
H106	H	0.992829	-0.506025	0.088404
H107	H	0.958089	-0.434099	0.023857
H108	H	1.073538	-0.407988	0.052572
H109	H	0.895589	-0.397222	0.129315
H110	H	1.011027	-0.371126	0.158041
H111	H	1.081886	-0.039553	-0.566573
H112	H	0.955476	0.111630	-0.007381
H113	H	1.138344	0.075827	-0.809304
O114	O	1.383407	-0.142984	-0.650630
C115	C	1.440515	-0.194010	-0.697234
H116	H	1.446535	-0.150011	-0.754477
H117	H	1.397110	-0.280335	-0.699645
C118	C	1.546007	-0.246611	-0.597253
C119	C	1.553408	-0.192565	-0.667558
H120	H	1.615642	-0.245725	-0.578946
H121	H	1.507530	-0.212238	-0.565854
H122	H	1.509832	-0.318544	-0.599271
H123	H	1.589570	-0.120631	-0.665538
H124	H	1.591894	-0.226927	-0.698956
H125	H	0.801479	0.196121	-0.012965
O126	O	1.383140	-0.142951	-0.180198
C127	C	1.369279	-0.130539	-0.105568
H128	H	1.288684	-0.107914	-0.096664
H129	H	1.435657	-0.064731	-0.088275
C130	C	1.472328	-0.264230	-0.070372
C131	C	1.373336	-0.236450	-0.059434
H132	H	1.474835	-0.329558	-0.041913
H133	H	1.481670	-0.272589	-0.120651
H134	H	1.527632	-0.209382	-0.055961
H135	H	1.318035	-0.291291	-0.073854
H136	H	1.363984	-0.228102	-0.009156
H137	H	1.256127	0.453782	0.155809
O138	O	1.383291	-0.143058	-0.330466
C139	C	1.440422	-0.194051	-0.277104
H140	H	1.396468	-0.204159	-0.222104
H141	H	1.523630	-0.143272	-0.272345
C142	C	1.503790	-0.292281	-0.367094
C143	C	1.449800	-0.304703	-0.299542
H144	H	1.509579	-0.360534	-0.380935
H145	H	1.465303	-0.257924	-0.403045
H146	H	1.573124	-0.249962	-0.363119
H147	H	1.380463	-0.347010	-0.303521
H148	H	1.488276	-0.339071	-0.263592
O149	O	1.251510	0.660416	0.152611
C150	C	1.253092	0.588752	0.215603
H151	H	1.288448	0.518293	0.200904
H152	H	1.168217	0.558338	0.237896
C153	C	1.278288	0.733274	0.292210
C154	C	1.321722	0.646738	0.274157
H155	H	1.320618	0.769042	0.328331
H156	H	1.277218	0.781556	0.249772
H157	H	1.207560	0.707916	0.310783
H158	H	1.392443	0.672098	0.255577
H159	H	1.322806	0.598462	0.316594
O160	O	1.444682	-0.017551	-0.423804
C161	C	1.529253	-0.012459	-0.474108
H162	H	1.505866	0.019461	-0.530562
H163	H	1.546833	-0.095886	-0.476694
C164	C	1.658206	0.023474	-0.379971
C165	C	1.629484	0.062688	-0.449306
H166	H	1.720035	0.069824	-0.364671
H167	H	1.601228	0.020039	-0.346079
H168	H	1.672848	-0.046048	-0.382134
H169	H	1.614830	0.132202	-0.447140
H170	H	1.686462	0.066135	-0.483198
O171	O	1.383457	-0.142787	-0.800836
C172	C	1.455666	-0.072243	-0.849589
H173	H	1.466709	0.012280	-0.832202
H174	H	1.422842	-0.073445	-0.907287
C175	C	1.550404	-0.211550	-0.869749
C176	C	1.563974	-0.107739	-0.848389
H177	H	1.617212	-0.233447	-0.869011
H178	H	1.501753	-0.259078	-0.836905
H179	H	1.523047	-0.212538	-0.917828
H180	H	1.591317	-0.106755	-0.800307
H181	H	1.612632	-0.060211	-0.881225
O182	O	1.128004	0.084940	-0.195524
C183	C	1.070913	0.135973	-0.248890
H184	H	1.064910	0.091981	-0.300322
H185	H	1.114322	0.222299	-0.262693
C186	C	0.965393	0.188565	-0.155894
C187	C	0.958012	0.134528	-0.219061
H188	H	0.895751	0.187679	-0.137494
H189	H	1.003858	0.154187	-0.119940
H190	H	1.001571	0.260499	-0.167405
H191	H	0.921846	0.062593	-0.207548
H192	H	0.919537	0.168894	-0.255013
H193	H	1.138325	0.075828	-0.671015
O194	O	1.251304	0.660726	-0.107699
C195	C	1.157971	0.703637	-0.114493
H196	H	1.126951	0.713209	-0.057812
H197	H	1.094564	0.647361	-0.143378
C198	C	1.221674	0.801847	-0.229081
C199	C	1.183580	0.813612	-0.159464
H200	H	1.237468	0.869682	-0.256824
H201	H	1.284553	0.772934	-0.224505
H202	H	1.168829	0.754946	-0.253142
H203	H	1.236430	0.860501	-0.135401
H204	H	1.120711	0.842535	-0.164037
H205	H	1.081866	-0.039554	-0.428290
H206	H	1.138290	0.075829	-0.339095
