data_functionalizedCrystal
_audit_creation_method	'MofGen! by Chris Wilmer'
_symmetry_space_group_name_H-M	'P1'
_symmetry_Int_Tables_number	1
_symmetry_cell_setting	triclinic
loop_
_symmetry_equiv_pos_as_xyz
  x,y,z
_cell_length_a	14.519731
_cell_length_b	14.519709
_cell_length_c	9.130313
_cell_angle_alpha	89.997798
_cell_angle_beta	89.999669
_cell_angle_gamma	83.684499
loop_
_atom_site_label
_atom_site_type_symbol
_atom_site_fract_x
_atom_site_fract_y
_atom_site_fract_z
O1	O	1.223850	0.120981	-0.121806
O2	O	0.955376	0.135197	-0.121808
O3	O	1.096731	-0.006149	-0.121794
O4	O	1.082495	0.262327	-0.121820
O5	O	1.096729	-0.006145	0.121805
O6	O	0.955374	0.135201	0.121791
O7	O	1.223848	0.120984	0.121793
Cu8	Cu	1.089611	0.128093	0.144034
Cu9	Cu	1.089613	0.128088	-0.144050
O10	O	1.082493	0.262330	0.121779
C11	C	0.921016	0.134532	-0.000009
C12	C	0.818635	0.132536	-0.000010
C13	C	1.096067	-0.040507	0.000006
C14	C	1.094079	-0.142889	0.000007
C15	C	0.735491	0.130915	-0.000015
C16	C	0.631182	0.128888	-0.000016
C17	C	0.548043	0.127280	-0.000016
C18	C	0.443728	0.125253	-0.000019
C19	C	1.086759	-0.517785	-0.000031
C20	C	1.088792	-0.413477	-0.000020
C21	C	1.090419	-0.330340	-0.000011
C22	C	1.092452	-0.226025	-0.000003
C23	C	1.258209	0.121649	-0.000009
C24	C	1.360589	0.123645	-0.000018
C25	C	1.083157	0.296688	-0.000024
C26	C	1.085146	0.399070	-0.000035
N27	N	1.089616	0.128095	0.346657
N28	N	1.089615	0.128078	-0.346672
C29	C	1.152224	0.065529	0.423315
C30	C	1.152222	0.065518	0.576652
C31	C	1.027000	0.190648	0.576659
C32	C	1.026999	0.190654	0.423325
C33	C	1.224523	-0.006712	0.423313
C34	C	1.224521	-0.006723	0.576650
H35	H	0.976011	0.241593	0.360911
C36	C	1.358110	-0.048760	0.272703
C37	C	1.314677	0.023008	0.359056
H38	H	1.413756	-0.030396	0.233018
H39	H	1.372127	-0.102549	0.331253
H40	H	1.317904	-0.061995	0.195259
H41	H	1.354880	0.036239	0.436508
H42	H	1.300663	0.076813	0.300503
C43	C	1.175527	-0.156207	0.526640
C44	C	1.194952	-0.096958	0.640861
H45	H	1.157288	-0.211917	0.566286
H46	H	1.126792	-0.126795	0.468112
H47	H	1.229336	-0.170102	0.468072
H48	H	1.141140	-0.083057	0.699423
H49	H	1.243691	-0.126375	0.699413
H50	H	1.295282	0.008584	0.618265
C51	C	0.903217	0.314327	0.561263
C52	C	0.958173	0.259410	0.660935
H53	H	0.860721	0.356773	0.613292
H54	H	0.941654	0.347597	0.501469
H55	H	0.869994	0.275851	0.501445
H56	H	0.991401	0.297886	0.720746
H57	H	0.919731	0.226138	0.720754
H58	H	1.209277	-0.077491	0.381700
