data_functionalizedCrystal
_audit_creation_method	'MofGen! by Chris Wilmer'
_symmetry_space_group_name_H-M	'P1'
_symmetry_Int_Tables_number	1
_symmetry_cell_setting	triclinic
loop_
_symmetry_equiv_pos_as_xyz
  x,y,z
_cell_length_a	30.700619
_cell_length_b	30.706268
_cell_length_c	30.706014
_cell_angle_alpha	89.987036
_cell_angle_beta	59.987590
_cell_angle_gamma	119.982934
loop_
_atom_site_label
_atom_site_type_symbol
_atom_site_fract_x
_atom_site_fract_y
_atom_site_fract_z
O1	O	0.384278	-0.298743	-0.012961
O2	O	0.295060	-0.235423	0.012895
O3	O	0.384284	-0.235400	-0.076303
O4	O	0.295054	-0.298766	0.076236
O5	O	0.311859	-0.307817	-0.076302
O6	O	0.222635	-0.307840	0.012895
O7	O	0.311853	-0.371160	-0.012960
Cu8	Cu	0.260631	-0.346112	-0.000033
Cu9	Cu	0.346282	-0.260471	-0.000033
O10	O	0.222629	-0.371183	0.076237
C11	C	0.071412	-0.110302	0.039194
C12	C	0.097359	-0.057899	0.039562
C13	C	-0.007464	-0.110304	0.039192
C14	C	0.018603	-0.057901	0.039560
C15	C	0.071384	-0.031454	0.039192
C16	C	0.018631	-0.136629	0.039562
C17	C	0.133910	-0.238016	0.024918
C18	C	0.162785	-0.263006	0.020882
C19	C	0.216750	-0.236062	0.018856
C20	C	0.248067	-0.263152	0.014470
C21	C	0.241835	-0.184127	0.020871
C22	C	0.212956	-0.159143	0.024914
C23	C	0.158991	-0.186089	0.026938
C24	C	0.213366	0.158694	0.024910
C25	C	0.242387	0.212541	0.020872
C26	C	0.217458	0.239555	0.018841
C27	C	0.248924	0.297941	0.014455
C28	C	0.163497	0.212714	0.020856
C29	C	0.134471	0.158867	0.024903
C30	C	0.159415	0.131860	0.026927
C31	C	-0.183342	-0.238024	0.024909
C32	C	-0.233154	-0.263014	0.020864
C33	C	-0.258158	-0.236071	0.018835
C34	C	-0.312166	-0.263164	0.014447
C35	C	-0.233344	-0.184139	0.020848
C36	C	-0.183531	-0.159150	0.024891
C37	C	-0.158537	-0.186100	0.026926
C38	C	0.127683	-0.158992	0.031317
C39	C	0.102725	-0.137395	0.034810
C40	C	-0.061473	-0.137399	0.034805
C41	C	-0.104524	-0.158998	0.031310
C42	C	0.102854	0.026932	0.034806
C43	C	0.127939	0.073471	0.031311
C44	C	0.535499	-0.110490	-0.425065
C45	C	0.509549	-0.136805	-0.451520
C46	C	0.614375	-0.031616	-0.503941
C47	C	0.588306	-0.058051	-0.530275
C48	C	0.535524	-0.110462	-0.503941
C49	C	0.588281	-0.058079	-0.451520
C50	C	0.473008	-0.158703	-0.234856
C51	C	0.444134	-0.183539	-0.180991
C52	C	0.390168	-0.235476	-0.153969
C53	C	0.358852	-0.262404	-0.095562
C54	C	0.365080	-0.262577	-0.180818
C55	C	0.393958	-0.237743	-0.234681
C56	C	0.447924	-0.185804	-0.261700
C57	C	0.393533	-0.238161	-0.552102
C58	C	0.364509	-0.263144	-0.576928
C59	C	0.389438	-0.236186	-0.628871
C60	C	0.357970	-0.263266	-0.655790
C61	C	0.443400	-0.184243	-0.655992
C62	C	0.472428	-0.159264	-0.631171
C63	C	0.447486	-0.186229	-0.579221
C64	C	0.790260	0.158539	-0.552103
C65	C	0.840074	0.212395	-0.576926
C66	C	0.865076	0.239424	-0.628872
C67	C	0.919086	0.297819	-0.655789
C68	C	0.840260	0.212598	-0.655990
C69	C	0.790446	0.158744	-0.631165
C70	C	0.765453	0.131717	-0.579221
C71	C	0.479231	-0.158878	-0.320105
C72	C	0.504188	-0.137415	-0.366660
C73	C	0.668385	0.026777	-0.530855
C74	C	0.711438	0.073322	-0.552309
C75	C	0.504051	-0.137546	-0.530855
C76	C	0.478963	-0.159137	-0.552309
O77	O	-0.456490	-0.371174	-0.012971
O78	O	-0.329838	-0.307856	0.012879
O79	O	-0.329797	-0.307834	-0.076316
O80	O	-0.456530	-0.371195	0.076223
O81	O	-0.329824	-0.235415	-0.076318
O82	O	-0.329864	-0.235436	0.012877
O83	O	-0.456516	-0.298754	-0.012973
Cu84	Cu	-0.393193	-0.260483	-0.000048
Cu85	Cu	-0.393161	-0.346127	-0.000046
O86	O	-0.456557	-0.298776	0.076221
C87	C	0.469728	-0.371836	-0.018852
C88	C	0.523476	-0.344971	-0.015155
C89	C	0.443658	-0.424239	-0.019222
C90	C	0.390852	-0.371831	-0.018848
C91	C	0.360265	-0.344961	-0.015146
C92	C	0.364901	-0.424234	-0.019217
C93	C	0.390875	-0.450682	-0.018852
C94	C	0.360313	-0.508118	-0.015154
C95	C	0.443634	-0.345508	-0.019218
O96	O	0.311900	0.469681	-0.012972
O97	O	0.222753	0.317194	0.012878
O98	O	0.311951	0.406376	-0.076317
O99	O	0.222702	0.380499	0.076223
O100	O	0.384397	0.406377	-0.076314
O101	O	0.295198	0.317195	0.012880
O102	O	0.384346	0.469682	-0.012969
Cu103	Cu	0.346387	0.393439	-0.000044
Cu104	Cu	0.260712	0.393437	-0.000047
O105	O	0.295147	0.380500	0.076225
O106	O	1.063416	0.469556	-0.692105
O107	O	0.936759	0.317059	-0.628769
O108	O	0.936723	0.406215	-0.628753
O109	O	1.063451	0.380400	-0.692121
O110	O	0.936748	0.406242	-0.701199
O111	O	0.936784	0.317086	-0.701215
O112	O	1.063440	0.469584	-0.764550
Cu113	Cu	1.000114	0.393337	-0.739497
Cu114	Cu	1.000085	0.393305	-0.653822
O115	O	1.063476	0.380427	-0.764567
O116	O	0.294984	-0.298821	-0.764549
O117	O	0.384139	-0.235521	-0.701214
O118	O	0.294940	-0.235523	-0.701198
O119	O	0.384183	-0.298820	-0.764566
O120	O	0.222495	-0.307965	-0.628752
O121	O	0.311694	-0.307964	-0.628768
O122	O	0.222539	-0.371264	-0.692104
Cu123	Cu	0.260502	-0.346228	-0.653821
Cu124	Cu	0.346176	-0.260557	-0.739496
O125	O	0.311738	-0.371262	-0.692120
C126	C	0.137162	-0.450749	0.234780
C127	C	0.083411	-0.508192	0.261658
C128	C	0.163230	-0.424314	0.261116
C129	C	0.216047	-0.371878	0.155902
C130	C	0.246640	-0.344990	0.098445
C131	C	0.241995	-0.345562	0.182359
C132	C	0.216015	-0.371905	0.234781
C133	C	0.246573	-0.345047	0.261661
C134	C	0.163262	-0.424287	0.182357
C135	C	-0.609261	-0.371909	0.234769
C136	C	-0.639861	-0.345049	0.261648
C137	C	-0.635219	-0.424319	0.261105
C138	C	-0.530348	-0.371886	0.155889
C139	C	-0.476574	-0.345000	0.098431
C140	C	-0.556426	-0.424295	0.182345
C141	C	-0.609230	-0.450756	0.234769
C142	C	-0.639798	-0.508199	0.261648
C143	C	-0.556456	-0.345569	0.182345
C144	C	0.216093	0.374595	0.234767
C145	C	0.246659	0.378289	0.261646
C146	C	0.163294	0.374224	0.261100
C147	C	0.216123	0.374607	0.155889
C148	C	0.246721	0.378313	0.098432
C149	C	0.163325	0.374236	0.182342
C150	C	0.137219	0.374597	0.234764
C151	C	0.083451	0.378291	0.261640
C152	C	0.242079	0.374235	0.182345
C153	C	0.071627	-0.031658	-0.503974
C154	C	0.097616	-0.058095	-0.530309
C155	C	-0.007255	-0.110528	-0.425094
C156	C	0.018853	-0.136845	-0.451549
C157	C	0.071658	-0.110505	-0.503973
C158	C	0.018823	-0.058118	-0.451550
C159	C	0.134022	0.158495	-0.552142
C160	C	0.162877	0.212348	-0.576970
C161	C	0.216865	0.239375	-0.628919
C162	C	0.248161	0.297768	-0.655838
C163	C	0.241993	0.212544	-0.656040
C164	C	0.213133	0.158693	-0.631214
C165	C	0.159146	0.131669	-0.579263
C166	C	0.213780	-0.158615	-0.631740
C167	C	0.242840	-0.183425	-0.656742
C168	C	0.217926	-0.235358	-0.629791
C169	C	0.249434	-0.262260	-0.656891
C170	C	0.163943	-0.262483	-0.577835
C171	C	0.134879	-0.237678	-0.552838
C172	C	0.159806	-0.185738	-0.579796
C173	C	-0.183254	-0.158729	-0.234878
C174	C	-0.233093	-0.183559	-0.181008
C175	C	-0.258080	-0.235494	-0.153985
C176	C	-0.312117	-0.262419	-0.095575
C177	C	-0.233224	-0.262595	-0.180832
C178	C	-0.183385	-0.237762	-0.234699
C179	C	-0.158407	-0.185829	-0.261720
C180	C	0.127859	0.073278	-0.552346
C181	C	0.102919	0.026733	-0.530891
C182	C	-0.061292	-0.137450	-0.366687
C183	C	-0.104366	-0.158910	-0.320130
C184	C	0.103170	-0.137403	-0.531078
C185	C	0.128289	-0.158843	-0.552685
O186	O	-0.704913	-0.682887	0.298785
O187	O	-0.615750	-0.530391	0.235437
O188	O	-0.704908	-0.619552	0.235437
O189	O	-0.615755	-0.593727	0.298785
O190	O	-0.777386	-0.619571	0.307884
O191	O	-0.688228	-0.530411	0.307884
O192	O	-0.777392	-0.682907	0.371233
Cu193	Cu	-0.739428	-0.606661	0.346174
Cu194	Cu	-0.653714	-0.606638	0.260496
O195	O	-0.688234	-0.593747	0.371233
C196	C	0.614568	0.432738	-0.503958
C197	C	0.588492	0.433109	-0.530294
C198	C	0.535662	0.432725	-0.425083
C199	C	0.509706	0.433097	-0.451539
C200	C	0.535692	0.432736	-0.503960
C201	C	0.588462	0.433099	-0.451536
C202	C	0.790520	0.418473	-0.552116
C203	C	0.840358	0.414441	-0.576941
C204	C	0.865373	0.412422	-0.628888
C205	C	0.919404	0.408040	-0.655804
C206	C	0.840549	0.414440	-0.656010
C207	C	0.790720	0.418478	-0.631187
C208	C	0.765705	0.420495	-0.579238
C209	C	0.473299	0.418476	-0.631726
C210	C	0.444445	0.414442	-0.656728
C211	C	0.390462	0.412409	-0.629779
C212	C	0.359168	0.408028	-0.656880
C213	C	0.365337	0.414416	-0.577826
C214	C	0.394195	0.418459	-0.552828
C215	C	0.448178	0.420486	-0.579784
C216	C	0.473150	0.418424	-0.234870
C217	C	0.444263	0.414373	-0.181002
C218	C	0.390279	0.412342	-0.153981
C219	C	0.358953	0.407947	-0.095573
C220	C	0.365184	0.414357	-0.180829
C221	C	0.394071	0.418406	-0.234695
C222	C	0.448059	0.420444	-0.261713
C223	C	0.711669	0.424869	-0.552325
C224	C	0.668599	0.428358	-0.530871
C225	C	0.504341	0.428333	-0.366677
C226	C	0.479376	0.424834	-0.320121
C227	C	0.504403	0.428355	-0.531065
C228	C	0.479463	0.424864	-0.552672
H229	H	-0.003242	-0.036674	0.040156
O230	O	0.137161	-0.449589	0.157062
C231	C	0.076177	-0.464387	0.185611
H232	H	0.071076	-0.437787	0.210862
H233	H	0.043051	-0.507774	0.212679
C234	C	0.067463	-0.490549	0.115106
C235	C	0.061200	-0.457874	0.146117
H236	H	0.058223	-0.486534	0.090745
H237	H	0.108549	-0.480581	0.095873
H238	H	0.039857	-0.526702	0.137668
H239	H	0.088810	-0.421722	0.123555
H240	H	0.020118	-0.467836	0.165345
O241	O	-0.530437	-0.449666	0.156995
C242	C	-0.573474	-0.495638	0.154357
H243	H	-0.609453	-0.490827	0.157792
H244	H	-0.597083	-0.531967	0.188490
C245	C	-0.495802	-0.509187	0.096506
C246	C	-0.539989	-0.503276	0.100721
H247	H	-0.475148	-0.513900	0.063422
H248	H	-0.466808	-0.478216	0.098285
H249	H	-0.515483	-0.539461	0.124954
H250	H	-0.520307	-0.472998	0.072277
H251	H	-0.568980	-0.534242	0.098936
O252	O	0.137389	0.373606	0.156927
C253	C	0.180439	0.419315	0.110958
H254	H	0.229070	0.435052	0.097724
H255	H	0.171954	0.451346	0.120376
C256	C	0.113504	0.385388	0.082155
C257	C	0.173233	0.404715	0.065898
H258	H	0.109058	0.376384	0.054361
H259	H	0.084499	0.354594	0.113126
H260	H	0.106440	0.412084	0.090004
H261	H	0.180293	0.378017	0.058057
H262	H	0.202239	0.435504	0.034925
H263	H	-0.677709	-0.445561	0.304178
H264	H	-0.534661	-0.302520	0.161093
H265	H	0.284470	-0.302501	0.161117
O266	O	0.766021	0.132237	-0.501678
C267	C	0.770891	0.088941	-0.501799
H268	H	0.809517	0.096749	-0.543490
H269	H	0.725545	0.050897	-0.489800
C270	C	0.737845	0.072899	-0.410618
C271	C	0.785290	0.082492	-0.461823
H272	H	0.746724	0.068919	-0.385957
H273	H	0.734562	0.102067	-0.410535
H274	H	0.700061	0.041197	-0.400627
H275	H	0.823070	0.114197	-0.471816
H276	H	0.788579	0.053329	-0.461906
O277	O	0.469666	-0.294167	-0.019849
C278	C	0.469890	-0.291267	0.025870
H279	H	0.467390	-0.326657	0.041607
H280	H	0.428411	-0.292228	0.057916
C281	C	0.532617	-0.195531	-0.008065
C282	C	0.529551	-0.238995	0.011261
H283	H	0.569416	-0.163286	-0.017075
H284	H	0.532464	-0.197484	-0.038866
H285	H	0.498047	-0.196338	0.018643
H286	H	0.564115	-0.238191	-0.015449
H287	H	0.529711	-0.237041	0.042058
O288	O	0.237485	0.132382	0.026959
C289	C	0.194058	0.089087	0.075138
H290	H	0.145795	0.077046	0.091015
H291	H	0.204396	0.101287	0.105680
C292	C	0.257128	0.056366	0.045559
C293	C	0.197850	0.041575	0.065057
H294	H	0.259468	0.027059	0.039342
H295	H	0.286387	0.085536	0.013101
H296	H	0.265736	0.066533	0.071014
H297	H	0.189245	0.031414	0.039600
H298	H	0.168589	0.012402	0.097511
O299	O	0.137315	0.373620	0.312448
C300	C	0.180366	0.419315	0.315351
H301	H	0.216345	0.451831	0.274544
H302	H	0.203973	0.408807	0.328090
C303	C	0.102713	0.399565	0.406552
C304	C	0.146899	0.439504	0.356435
H305	H	0.082069	0.412018	0.431896
H306	H	0.073709	0.368778	0.404598
H307	H	0.122392	0.390812	0.417161
H308	H	0.127219	0.448251	0.345823
H309	H	0.175899	0.470293	0.358388
H310	H	-0.003024	-0.036890	-0.430312
O311	O	0.292814	0.373605	0.157034
C312	C	0.341437	0.419308	0.154357
H313	H	0.321764	0.435038	0.187246
H314	H	0.372535	0.451347	0.113839
C315	C	0.403279	0.385384	0.121347
C316	C	0.379116	0.404702	0.161744
H317	H	0.426524	0.376376	0.125901
H318	H	0.370522	0.354594	0.123148
H319	H	0.429191	0.412086	0.087585
H320	H	0.353199	0.377997	0.195504
H321	H	0.411870	0.435487	0.159949
H322	H	0.141378	-0.445559	0.304192
O323	O	0.369276	-0.264298	-0.501610
C324	C	0.354715	-0.235372	-0.468034
H325	H	0.348078	-0.208749	-0.486167
H326	H	0.393866	-0.209646	-0.463651
C327	C	0.303039	-0.307186	-0.390510
C328	C	0.294882	-0.274491	-0.412780
H329	H	0.266133	-0.331316	-0.356426
H330	H	0.312851	-0.326674	-0.413131
H331	H	0.335667	-0.285742	-0.386863
H332	H	0.262260	-0.295935	-0.416433
H333	H	0.285063	-0.255008	-0.390158
H334	H	-0.002980	-0.179910	-0.430309
H335	H	0.860559	0.412789	-0.554852
O336	O	0.148327	-0.032666	-0.581685
C337	C	0.165745	0.019358	-0.599363
H338	H	0.147062	0.032376	-0.563488
H339	H	0.146124	0.019821	-0.622423
C340	C	0.259462	0.041985	-0.680048
C341	C	0.236519	0.057976	-0.635986
H342	H	0.303118	0.065807	-0.702640
H343	H	0.247726	0.006935	-0.668139
H344	H	0.243105	0.042371	-0.699258
H345	H	0.252870	0.057584	-0.616773
H346	H	0.248259	0.093027	-0.647892
H347	H	-0.253325	-0.161488	-0.159151
O348	O	0.766423	0.132762	-0.657587
C349	C	0.799155	0.168170	-0.708749
H350	H	0.846964	0.202088	-0.721026
H351	H	0.773267	0.185176	-0.707924
C352	C	0.746579	0.096402	-0.734089
C353	C	0.805301	0.138057	-0.749170
H354	H	0.750369	0.077827	-0.759023
H355	H	0.724525	0.072547	-0.699619
H356	H	0.725012	0.110580	-0.733401
H357	H	0.826865	0.123878	-0.749851
H358	H	0.827359	0.161909	-0.783641
H359	H	0.860923	0.412799	-0.698306
O360	O	-0.159040	-0.108268	-0.261037
C361	C	-0.191667	-0.089674	-0.225795
H362	H	-0.214904	-0.112808	-0.182932
H363	H	-0.228143	-0.095755	-0.231341
C364	C	-0.118107	-0.001487	-0.290350
C365	C	-0.146642	-0.029897	-0.237705
H366	H	-0.090335	0.035386	-0.297698
H367	H	-0.096126	-0.014014	-0.314095
H368	H	-0.148509	-0.006560	-0.294966
H369	H	-0.116241	-0.024829	-0.233092
H370	H	-0.168617	-0.017368	-0.213960
H371	H	0.286322	0.234391	0.019230
H372	H	0.143653	-0.304772	-0.555893
H373	H	-0.003183	-0.179686	0.040154
O374	O	0.081569	0.132320	-0.501686
C375	C	0.065587	0.167549	-0.483069
H376	H	0.087160	0.201528	-0.518515
H377	H	0.083336	0.184489	-0.457951
C378	C	-0.031485	0.095515	-0.405248
C379	C	-0.004993	0.137246	-0.448783
H380	H	-0.075022	0.076823	-0.384096
H381	H	-0.020718	0.071780	-0.417789
H382	H	-0.016688	0.109638	-0.384322
H383	H	-0.019785	0.123123	-0.469711
H384	H	-0.015765	0.160978	-0.436244
H385	H	0.142414	0.234189	-0.554885
O386	O	-0.159524	-0.108714	0.026869
C387	C	-0.192263	-0.090287	0.024200
H388	H	-0.240063	-0.125820	0.038073
H389	H	-0.166368	-0.065206	-0.018688
C390	C	-0.139728	-0.012397	0.043442
C391	C	-0.198439	-0.056039	0.060485
H392	H	-0.143536	0.008731	0.065822
H393	H	-0.117669	-0.024809	0.045238
H394	H	-0.118155	0.008498	0.007702
H395	H	-0.220008	-0.076937	0.096222
H396	H	-0.220502	-0.043629	0.058696
H397	H	0.285948	0.234552	-0.698337
H398	H	0.464698	0.412728	-0.159145
H399	H	0.233594	0.136851	-0.653300
H400	H	0.089970	-0.259962	0.026566
O401	O	0.238054	-0.108173	-0.658013
C402	C	0.291934	-0.089549	-0.709223
H403	H	0.290492	-0.124977	-0.721633
H404	H	0.333994	-0.064437	-0.708409
C405	C	0.297690	-0.011758	-0.734253
C406	C	0.295917	-0.055271	-0.749498
H407	H	0.300149	0.009389	-0.759096
H408	H	0.261391	-0.024303	-0.699751
H409	H	0.332740	0.009163	-0.733575
H410	H	0.260864	-0.076194	-0.750169
H411	H	0.332210	-0.042728	-0.784001
O412	O	0.295325	-0.157103	-0.707177
C413	C	0.343466	-0.152246	-0.707140
H414	H	0.323222	-0.184673	-0.671013
H415	H	0.372019	-0.111391	-0.705175
C416	C	0.409692	-0.118498	-0.802928
C417	C	0.384827	-0.158328	-0.758559
H418	H	0.435208	-0.122248	-0.834646
H419	H	0.377260	-0.121769	-0.802954
H420	H	0.433482	-0.084456	-0.801283
H421	H	0.361032	-0.192369	-0.760201
H422	H	0.417257	-0.155064	-0.758535
H423	H	0.516950	-0.116414	-0.256851
O424	O	-0.257491	-0.313073	-0.154661
C425	C	-0.279043	-0.347884	-0.179908
H426	H	-0.254069	-0.324230	-0.223091
H427	H	-0.330667	-0.368176	-0.158104
C428	C	-0.297256	-0.419504	-0.125567
C429	C	-0.266580	-0.390452	-0.178606
H430	H	-0.289571	-0.445764	-0.124762
H431	H	-0.282739	-0.396052	-0.108556
H432	H	-0.340275	-0.436409	-0.107403
H433	H	-0.223562	-0.373543	-0.196767
H434	H	-0.281090	-0.413903	-0.195620
O435	O	0.082464	-0.264092	-0.502362
C436	C	0.066691	-0.315255	-0.483936
H437	H	0.109560	-0.315200	-0.507162
H438	H	0.030812	-0.345642	-0.490067
C439	C	-0.012631	-0.330235	-0.395622
C440	C	0.040022	-0.330166	-0.424147
H441	H	-0.029084	-0.339435	-0.358741
H442	H	-0.002006	-0.295766	-0.408037
H443	H	-0.042524	-0.355558	-0.400738
H444	H	0.069917	-0.304839	-0.419037
H445	H	0.029403	-0.364631	-0.411730
O446	O	0.312599	-0.312988	-0.154520
C447	C	0.264536	-0.312882	-0.111201
H448	H	0.275401	-0.271206	-0.118996
H449	H	0.259829	-0.324890	-0.073149
C450	C	0.190373	-0.404030	-0.095182
C451	C	0.203716	-0.352844	-0.104757
H452	H	0.152855	-0.428682	-0.091205
H453	H	0.222754	-0.404103	-0.124365
H454	H	0.186454	-0.414029	-0.063472
H455	H	0.207642	-0.342843	-0.136470
H456	H	0.171334	-0.352771	-0.075579
H457	H	0.139827	-0.036670	0.040160
O458	O	0.468566	-0.157129	-0.154985
C459	C	0.522395	-0.105968	-0.190386
H460	H	0.520794	-0.093698	-0.224318
H461	H	0.564485	-0.106766	-0.207393
C462	C	0.528467	-0.080651	-0.118569
C463	C	0.526498	-0.065578	-0.160243
H464	H	0.531001	-0.055737	-0.099976
H465	H	0.492203	-0.115120	-0.094719
H466	H	0.563543	-0.081316	-0.132748
H467	H	0.491419	-0.064920	-0.146064
H468	H	0.562757	-0.031108	-0.184090
O469	O	-0.257709	-0.158010	0.018966
C470	C	-0.320237	-0.186948	0.062452
H471	H	-0.328743	-0.213583	0.095713
H472	H	-0.350345	-0.212662	0.049026
C473	C	-0.325930	-0.115131	0.042305
C474	C	-0.336376	-0.147841	0.083159
H475	H	-0.335887	-0.091008	0.055077
H476	H	-0.283804	-0.095635	0.013007
H477	H	-0.351021	-0.136564	0.031120
H478	H	-0.311279	-0.126408	0.094339
H479	H	-0.378498	-0.167333	0.112460
O480	O	-0.159154	-0.264033	-0.260776
C481	C	-0.096647	-0.235191	-0.279798
H482	H	-0.088088	-0.208482	-0.255127
H483	H	-0.066472	-0.209561	-0.323392
C484	C	-0.091203	-0.307193	-0.305318
C485	C	-0.080692	-0.274392	-0.275013
H486	H	-0.081359	-0.331373	-0.302369
H487	H	-0.133314	-0.326623	-0.292504
H488	H	-0.066056	-0.285828	-0.341643
H489	H	-0.105844	-0.295756	-0.238688
H490	H	-0.038584	-0.254966	-0.287821
H491	H	0.467216	0.433681	-0.430297
H492	H	0.610346	0.433714	-0.573368
H493	H	0.517112	0.420086	-0.256867
H494	H	0.465498	-0.445470	-0.019817
H495	H	0.770514	0.420123	-0.653274
O496	O	-0.257199	-0.313470	0.018937
C497	C	-0.224444	-0.331888	0.021585
H498	H	-0.201285	-0.308674	0.041219
H499	H	-0.187896	-0.325749	-0.020439
C500	C	-0.297764	-0.420171	0.030607
C501	C	-0.269324	-0.391662	0.054726
H502	H	-0.325446	-0.457042	0.051047
H503	H	-0.319831	-0.407762	0.028821
H504	H	-0.267301	-0.415049	-0.004412
H505	H	-0.299786	-0.396779	0.089742
H506	H	-0.247263	-0.404073	0.056519
O507	O	0.312963	0.412543	-0.551659
C508	C	0.324930	0.459338	-0.538392
H509	H	0.376262	0.492480	-0.566381
H510	H	0.310466	0.451316	-0.495474
C511	C	0.225154	0.435814	-0.509690
C512	C	0.288201	0.476522	-0.544070
H513	H	0.202496	0.446413	-0.513190
H514	H	0.217090	0.404287	-0.518626
H515	H	0.213110	0.429133	-0.473928
H516	H	0.300246	0.483197	-0.579832
H517	H	0.296266	0.508051	-0.535140
O518	O	0.864114	0.238370	-0.550513
C519	C	0.831356	0.202971	-0.499337
H520	H	0.808204	0.160177	-0.499392
H521	H	0.794802	0.208444	-0.468934
C522	C	0.904663	0.267276	-0.484366
C523	C	0.876231	0.214716	-0.484434
H524	H	0.932343	0.274522	-0.475170
H525	H	0.926732	0.291126	-0.518843
H526	H	0.874196	0.271830	-0.459029
H527	H	0.906697	0.210164	-0.509774
H528	H	0.854168	0.190865	-0.449960
O529	O	-0.158953	-0.264118	0.026815
C530	C	-0.096432	-0.235177	-0.016685
H531	H	-0.077818	-0.191575	-0.031365
H532	H	-0.091976	-0.252467	-0.050336
C533	C	-0.082163	-0.292656	0.019116
C534	C	-0.059300	-0.239103	0.001089
H535	H	-0.059258	-0.295079	0.030078
H536	H	-0.124285	-0.312156	0.048422
H537	H	-0.078449	-0.307058	-0.008929
H538	H	-0.063021	-0.224704	0.029136
H539	H	-0.017177	-0.219601	-0.028212
O540	O	0.614590	0.433828	-0.426281
C541	C	0.666872	0.434056	-0.460880
H542	H	0.684892	0.450429	-0.503981
H543	H	0.653790	0.391633	-0.452061
C544	C	0.695180	0.449387	-0.399430
C545	C	0.717316	0.469501	-0.452367
H546	H	0.726296	0.471248	-0.394178
H547	H	0.659955	0.449231	-0.376119
H548	H	0.684278	0.414034	-0.392088
H549	H	0.728210	0.504850	-0.459707
H550	H	0.752544	0.469664	-0.475679
O551	O	0.369493	-0.264133	-0.260673
C552	C	0.315679	-0.315303	-0.225280
H553	H	0.296079	-0.315270	-0.182467
H554	H	0.327318	-0.345688	-0.230781
C555	C	0.291719	-0.330235	-0.289604
C556	C	0.267644	-0.330194	-0.237020
H557	H	0.262090	-0.339422	-0.296847
H558	H	0.327976	-0.295761	-0.313450
H559	H	0.301418	-0.355556	-0.294182
H560	H	0.257953	-0.304869	-0.232445
H561	H	0.231384	-0.364663	-0.213173
O562	O	0.525750	0.420469	-0.657996
C563	C	0.541731	0.417821	-0.709204
H564	H	0.520159	0.431689	-0.721618
H565	H	0.523979	0.374952	-0.708385
C566	C	0.638802	0.437073	-0.734232
C567	C	0.612311	0.454110	-0.749480
H568	H	0.682338	0.459455	-0.759076
H569	H	0.628035	0.438854	-0.699731
H570	H	0.624002	0.401348	-0.733549
H571	H	0.627104	0.489831	-0.750156
H572	H	0.623082	0.452335	-0.783982
H573	H	0.322427	-0.445462	-0.019806
H574	H	0.142357	-0.305291	0.019241
O575	O	0.468882	0.412580	-0.707223
C576	C	0.483524	0.456055	-0.740896
H577	H	0.490038	0.489295	-0.722760
H578	H	0.444473	0.442632	-0.745430
C579	C	0.535473	0.435951	-0.818329
C580	C	0.543478	0.476779	-0.796056
H581	H	0.572453	0.448733	-0.852355
H582	H	0.525606	0.406659	-0.795643
H583	H	0.502928	0.424768	-0.822102
H584	H	0.576016	0.487956	-0.792277
H585	H	0.553351	0.506073	-0.818743
H586	H	0.143194	0.234708	0.019210
O587	O	0.369875	0.420515	-0.502404
C588	C	0.413192	0.468668	-0.502442
H589	H	0.447200	0.499475	-0.544145
H590	H	0.439133	0.461374	-0.490279
C591	C	0.337761	0.451666	-0.411360
C592	C	0.379527	0.489506	-0.462580
H593	H	0.316995	0.464520	-0.386770
H594	H	0.308578	0.419224	-0.411334
H595	H	0.359385	0.445592	-0.401231
H596	H	0.357902	0.495576	-0.472711
H597	H	0.408706	0.521951	-0.462607
H598	H	0.770159	0.420116	-0.509818
H599	H	0.090536	0.137016	0.026546
H600	H	0.373632	0.420044	-0.256550
H601	H	0.321224	0.412700	-0.158825
H602	H	0.233381	-0.116859	0.026557
O603	O	0.294191	-0.157969	0.019001
C604	C	0.282179	-0.144713	0.065814
H605	H	0.230843	-0.172698	0.098963
H606	H	0.296618	-0.101809	0.057794
C607	C	0.381950	-0.116016	0.042291
C608	C	0.318899	-0.150390	0.083006
H609	H	0.404603	-0.119515	0.052895
H610	H	0.390044	-0.124944	0.010751
H611	H	0.393974	-0.080266	0.035612
H612	H	0.306875	-0.186140	0.089680
H613	H	0.310804	-0.141468	0.114548
O614	O	0.614257	-0.032706	-0.581626
C615	C	0.571169	-0.030090	-0.584519
H616	H	0.535198	-0.033531	-0.543718
H617	H	0.547560	-0.064219	-0.597225
C618	C	0.648769	0.027745	-0.675744
C619	C	0.604591	0.023523	-0.625633
H620	H	0.669384	0.060815	-0.701107
H621	H	0.677797	0.025981	-0.673796
H622	H	0.629087	-0.000699	-0.686325
H623	H	0.624273	0.051963	-0.615050
H624	H	0.575566	0.025293	-0.627581
O625	O	0.458957	-0.188214	-0.426237
C626	C	0.472770	-0.220600	-0.454804
H627	H	0.524646	-0.200406	-0.480051
H628	H	0.456463	-0.226655	-0.481877
C629	C	0.376095	-0.299876	-0.384322
C630	C	0.439810	-0.275077	-0.415328
H631	H	0.355762	-0.333481	-0.359972
H632	H	0.366788	-0.278058	-0.365076
H633	H	0.362514	-0.304917	-0.406889
H634	H	0.453390	-0.270030	-0.392761
H635	H	0.449118	-0.296896	-0.434569
H636	H	0.463702	-0.162295	-0.698289
O637	O	0.614207	-0.032774	-0.426108
C638	C	0.571134	-0.030119	-0.380146
H639	H	0.522511	-0.063012	-0.366909
H640	H	0.579583	0.010377	-0.389574
C641	C	0.638071	0.002912	-0.351344
C642	C	0.578351	-0.037492	-0.335083
H643	H	0.642524	-0.001634	-0.323548
H644	H	0.667092	0.001125	-0.382311
H645	H	0.645104	0.036655	-0.359201
H646	H	0.571322	-0.071233	-0.327233
H647	H	0.549330	-0.035711	-0.304114
O648	O	0.312082	-0.313589	-0.550499
C649	C	0.296304	-0.332032	-0.499332
H650	H	0.317960	-0.296508	-0.487066
H651	H	0.314120	-0.357104	-0.500144
C652	C	0.199153	-0.409931	-0.473977
C653	C	0.225746	-0.366299	-0.458910
H654	H	0.155629	-0.431070	-0.449043
H655	H	0.209783	-0.397506	-0.508450
H656	H	0.214006	-0.430817	-0.474653
H657	H	0.210899	-0.345410	-0.458241
H658	H	0.215112	-0.378721	-0.424437
H659	H	0.516364	-0.116973	-0.653256
O660	O	0.864523	0.238922	-0.706417
C661	C	0.859607	0.282192	-0.706272
H662	H	0.855775	0.294223	-0.670058
H663	H	0.816835	0.269967	-0.704383
C664	C	0.921897	0.314943	-0.802060
C665	C	0.917196	0.329723	-0.757584
H666	H	0.957419	0.344262	-0.833713
H667	H	0.925207	0.285790	-0.802159
H668	H	0.886250	0.304755	-0.800479
H669	H	0.952838	0.339904	-0.759162
H670	H	0.913892	0.358879	-0.757487
