data_functionalizedCrystal
_audit_creation_method	'MofGen! by Chris Wilmer'
_symmetry_space_group_name_H-M	'P1'
_symmetry_Int_Tables_number	1
_symmetry_cell_setting	triclinic
loop_
_symmetry_equiv_pos_as_xyz
  x,y,z
_cell_length_a	18.266242
_cell_length_b	16.109301
_cell_length_c	16.109301
_cell_angle_alpha	83.461481
_cell_angle_beta	89.992231
_cell_angle_gamma	89.993683
loop_
_atom_site_label
_atom_site_type_symbol
_atom_site_fract_x
_atom_site_fract_y
_atom_site_fract_z
O1	O	0.060837	-1.103137	-0.106868
O2	O	0.560837	-0.603137	0.393132
O3	O	0.060849	-0.861075	-0.120168
O4	O	0.560849	-0.361075	0.379832
O5	O	0.060835	-0.988756	0.007513
O6	O	0.560835	-0.488756	0.507513
O7	O	0.060851	-0.975457	-0.234549
O8	O	0.560851	-0.475457	0.265451
O9	O	-0.060927	-0.988734	0.007519
O10	O	0.439073	-0.488734	0.507519
O11	O	-0.060913	-0.861054	-0.120161
O12	O	0.439087	-0.361054	0.379839
O13	O	-0.060925	-1.103116	-0.106862
O14	O	0.439075	-0.603116	0.393138
Zn15	Zn	-0.080251	-0.982081	-0.113510
Zn16	Zn	0.419749	-0.482081	0.386490
Zn17	Zn	0.080175	-0.982110	-0.113519
Zn18	Zn	0.580175	-0.482110	0.386481
O19	O	-0.060911	-0.975435	-0.234543
O20	O	0.439089	-0.475435	0.265457
C21	C	-0.000031	-0.830090	-0.119626
C22	C	0.499969	-0.330090	0.380374
C23	C	-0.000026	-0.737794	-0.118011
C24	C	0.499974	-0.237794	0.381989
C25	C	-0.000046	-0.988206	0.038491
C26	C	0.499954	-0.488206	0.538491
C27	C	-0.000047	-0.986591	0.130786
C28	C	0.499953	-0.486591	0.630786
N29	N	-0.189738	-0.982068	-0.113504
N30	N	0.310262	-0.482068	0.386496
C31	C	-0.228053	-1.038623	-0.056995
C32	C	0.271947	-0.538623	0.443005
C33	C	-0.304698	-1.038629	-0.056991
C34	C	0.195302	-0.538629	0.443009
C35	C	-0.343025	-0.982086	-0.113511
C36	C	0.156975	-0.482086	0.386489
C37	C	-0.304701	-0.925520	-0.170024
C38	C	0.195299	-0.425520	0.329976
C39	C	-0.228058	-0.925511	-0.170021
C40	C	0.271942	-0.425511	0.329979
N41	N	-0.463353	-0.971484	-0.187080
N42	N	0.036647	-0.471484	0.312920
N43	N	-0.536161	-0.971498	-0.187081
N44	N	-0.036161	-0.471498	0.312919
C45	C	-0.573948	-0.982110	-0.113523
C46	C	-0.073948	-0.482110	0.386477
N47	N	-0.536176	-0.992723	-0.039962
N48	N	-0.036176	-0.492723	0.460038
N49	N	-0.463361	-0.992714	-0.039962
N50	N	0.036639	-0.492714	0.460038
C51	C	-0.426132	-0.982090	-0.113520
C52	C	0.073868	-0.482090	0.386480
C53	C	-0.695370	-1.038674	-0.057005
C54	C	-0.195370	-0.538674	0.442995
C55	C	-0.772016	-1.038673	-0.057000
C56	C	-0.272016	-0.538673	0.443000
C57	C	-0.772017	-0.925569	-0.170040
C58	C	-0.272017	-0.425569	0.329960
C59	C	-0.695373	-0.925565	-0.170038
C60	C	-0.195373	-0.425565	0.329962
C61	C	-0.657053	-0.982122	-0.113521
C62	C	-0.157053	-0.482122	0.386479
N63	N	0.189662	-0.982130	-0.113519
N64	N	0.689662	-0.482130	0.386481
C65	C	-0.000044	-1.134101	-0.107404
C66	C	0.499956	-0.634101	0.392596
C67	C	-0.000043	-1.226397	-0.109019
C68	C	0.499957	-0.726397	0.390981
C69	C	-0.000030	-0.515522	-0.190018
C70	C	0.499970	-0.015522	0.309982
C71	C	-0.000035	-0.428801	-0.188494
C72	C	0.499965	0.071199	0.311506
C73	C	-0.000042	-0.448676	-0.037006
C74	C	0.499958	0.051324	0.462994
C75	C	-0.000042	-0.535394	-0.038530
C76	C	0.499958	-0.035394	0.461470
C77	C	-0.000033	-0.568815	-0.115039
C78	C	0.499967	-0.068815	0.384961
C79	C	-0.000037	-0.395376	-0.111990
C80	C	0.499963	0.104624	0.388010
C81	C	-0.000042	-0.301350	-0.110337
C82	C	0.499958	0.198650	0.389663
C83	C	-0.000029	-0.662847	-0.116693
C84	C	0.499971	-0.162847	0.383307
C85	C	-0.000028	-0.975984	-0.265521
C86	C	0.499972	-0.475984	0.234479
C87	C	-0.000023	-0.977600	-0.357816
C88	C	0.499977	-0.477600	0.142184
C89	C	-0.000039	-1.058599	0.353059
C90	C	0.499961	-0.558599	0.853059
C91	C	-0.000033	-1.057075	0.439779
C92	C	0.499967	-0.557075	0.939779
C93	C	-0.000028	-0.905586	0.419905
C94	C	0.499972	-0.405586	0.919905
C95	C	-0.000029	-0.907111	0.333186
C96	C	0.499971	-0.407111	0.833186
C97	C	-0.000038	-0.983620	0.299766
C98	C	0.499962	-0.483620	0.799766
C99	C	-0.000031	-0.980571	0.473205
C100	C	0.499969	-0.480571	0.973205
C101	C	-0.000025	-0.978918	0.567231
C102	C	0.499975	-0.478918	1.067231
C103	C	-0.000044	-0.985273	0.205734
C104	C	0.499956	-0.485273	0.705734
H105	H	-0.335900	-1.084684	-0.010973
H106	H	0.164100	-0.584684	0.489027
H107	H	-0.000034	-0.385413	-0.249550
H108	H	0.499966	0.114587	0.250450
C109	C	0.000088	-0.822584	0.456308
C110	C	0.500088	-0.322584	0.956308
C111	C	0.062721	-0.817300	0.505523
C112	C	0.562721	-0.317300	1.005523
C113	C	0.062845	-0.740854	0.539079
C114	C	0.562845	-0.240854	1.039079
H115	H	0.000127	-0.778074	0.412234
H116	H	0.500127	-0.278074	0.912234
H117	H	-0.042352	-0.818828	0.489776
H118	H	0.457648	-0.318828	0.989776
H119	H	0.105150	-0.821047	0.472057
H120	H	0.605150	-0.321047	0.972057
H121	H	0.062695	-0.861792	0.549611
H122	H	0.562695	-0.361792	1.049611
H123	H	0.020405	-0.737098	0.572547
H124	H	0.520405	-0.237098	1.072547
H125	H	0.062882	-0.696350	0.494999
H126	H	0.562882	-0.196350	0.994999
H127	H	0.105337	-0.737262	0.572481
H128	H	0.605337	-0.237262	1.072481
C129	C	0.000116	-1.138457	0.497680
C130	C	0.500116	-0.638457	0.997680
C131	C	0.062772	-1.142029	0.548017
C132	C	0.562772	-0.642029	1.048017
C133	C	0.062942	-1.216994	0.601356
C134	C	0.562942	-0.716994	1.101356
H135	H	-0.042293	-1.141086	0.532010
H136	H	0.457707	-0.641086	1.032010
H137	H	0.000151	-1.184260	0.465381
H138	H	0.500151	-0.684260	0.965381
H139	H	0.062731	-1.096238	0.580313
H140	H	0.562731	-0.596238	1.080313
H141	H	0.105192	-1.139414	0.513709
H142	H	0.605192	-0.639414	1.013709
H143	H	0.062977	-1.262797	0.569057
H144	H	0.562977	-0.762797	1.069057
H145	H	0.020530	-1.219616	0.635681
H146	H	0.520530	-0.719616	1.135681
H147	H	0.105456	-1.219431	0.635511
H148	H	0.605456	-0.719431	1.135511
H149	H	-0.000045	-1.120897	0.325851
H150	H	0.499955	-0.620897	0.825851
H151	H	-0.000026	-0.846050	0.289792
H152	H	0.499974	-0.346050	0.789792
H153	H	-0.196856	-1.084673	-0.010974
H154	H	0.303144	-0.584673	0.489026
C155	C	0.000072	-0.412501	0.046117
C156	C	0.500072	0.087499	0.546117
C157	C	0.062705	-0.439618	0.091443
C158	C	0.562705	0.060382	0.591443
C159	C	0.062833	-0.406321	0.168025
C160	C	0.562833	0.093679	0.668025
H161	H	0.000113	-0.353225	0.036406
H162	H	0.500113	0.146775	0.536406
H163	H	-0.042368	-0.430812	0.077040
H164	H	0.457632	0.069188	0.577040
H165	H	0.105134	-0.421302	0.060526
H166	H	0.605134	0.078698	0.560526
H167	H	0.062678	-0.498889	0.101177
H168	H	0.562678	0.001111	0.601177
H169	H	0.020393	-0.424632	0.198948
H170	H	0.520393	0.075368	0.698948
H171	H	0.062872	-0.347046	0.158305
H172	H	0.562872	0.152954	0.658305
H173	H	0.105325	-0.424721	0.198791
H174	H	0.605325	0.075279	0.698791
H175	H	-0.335911	-0.879481	-0.216042
H176	H	0.164089	-0.379481	0.283958
C177	C	0.000087	-0.551693	-0.273143
C178	C	0.500087	-0.051693	0.226857
C179	C	0.062721	-0.524590	-0.318485
C180	C	0.562721	-0.024590	0.181515
C181	C	0.062847	-0.557881	-0.395070
C182	C	0.562847	-0.057881	0.104930
H183	H	0.000125	-0.610969	-0.263436
H184	H	0.500125	-0.110969	0.236564
H185	H	-0.042352	-0.533368	-0.304053
H186	H	0.457648	-0.033368	0.195947
H187	H	0.105150	-0.542920	-0.287582
H188	H	0.605150	-0.042920	0.212418
H189	H	0.062696	-0.465318	-0.328215
H190	H	0.562696	0.034682	0.171785
H191	H	0.020408	-0.539556	-0.425980
H192	H	0.520408	-0.039556	0.074020
H193	H	0.062883	-0.617157	-0.385354
H194	H	0.562883	-0.117157	0.114646
H195	H	0.105340	-0.539491	-0.425847
H196	H	0.605340	-0.039491	0.074153
H197	H	-0.000046	-0.578788	0.022530
H198	H	0.499954	-0.078788	0.522530
H199	H	-0.196861	-0.879455	-0.216038
H200	H	0.303139	-0.379455	0.283962
H201	H	-0.803213	-1.084725	-0.010979
H202	H	-0.303213	-0.584725	0.489021
C203	C	-0.653892	-1.100105	0.004454
C204	C	-0.153892	-0.600105	0.504454
C205	C	-0.703856	-1.149617	0.053966
C206	C	-0.203856	-0.649617	0.553966
C207	C	-0.665676	-1.206208	0.110599
C208	C	-0.165676	-0.706208	0.610599
H209	H	-0.623981	-1.134781	-0.025366
H210	H	-0.123981	-0.634781	0.474634
H211	H	-0.624019	-1.070227	0.039118
H212	H	-0.124019	-0.570227	0.539118
H213	H	-0.733717	-1.179493	0.019306
H214	H	-0.233717	-0.679493	0.519306
H215	H	-0.733769	-1.114964	0.083805
H216	H	-0.233769	-0.614964	0.583805
H217	H	-0.635803	-1.176330	0.145263
H218	H	-0.135803	-0.676330	0.645263
H219	H	-0.635767	-1.240878	0.080771
H220	H	-0.135767	-0.740878	0.580771
H221	H	-0.699571	-1.239803	0.144204
H222	H	-0.199571	-0.739803	0.644204
H223	H	-0.803223	-0.879528	-0.216056
H224	H	-0.303223	-0.379528	0.283944
C225	C	-0.653901	-0.864131	-0.231493
C226	C	-0.153901	-0.364131	0.268507
C227	C	-0.703867	-0.814627	-0.281006
C228	C	-0.203867	-0.314627	0.218994
C229	C	-0.665691	-0.758028	-0.337636
C230	C	-0.165691	-0.258028	0.162364
H231	H	-0.624010	-0.829451	-0.201671
H232	H	-0.124010	-0.329451	0.298329
H233	H	-0.624007	-0.894003	-0.266157
H234	H	-0.124007	-0.394003	0.233843
H235	H	-0.733748	-0.784757	-0.246347
H236	H	-0.233748	-0.284757	0.253653
H237	H	-0.733759	-0.849285	-0.310847
H238	H	-0.233759	-0.349285	0.189153
H239	H	-0.635797	-0.787900	-0.372300
H240	H	-0.135797	-0.287900	0.127700
H241	H	-0.635801	-0.723353	-0.307806
H242	H	-0.135801	-0.223353	0.192194
H243	H	-0.699587	-0.724438	-0.371242
H244	H	-0.199587	-0.224438	0.128758
