data_functionalizedCrystal
_audit_creation_method	'MofGen! by Chris Wilmer'
_symmetry_space_group_name_H-M	'P1'
_symmetry_Int_Tables_number	1
_symmetry_cell_setting	triclinic
loop_
_symmetry_equiv_pos_as_xyz
  x,y,z
_cell_length_a	11.026607
_cell_length_b	27.732048
_cell_length_c	10.065875
_cell_angle_alpha	98.710990
_cell_angle_beta	79.302338
_cell_angle_gamma	95.614336
loop_
_atom_site_label
_atom_site_type_symbol
_atom_site_fract_x
_atom_site_fract_y
_atom_site_fract_z
O1	O	1.624242	0.196525	-0.113550
O2	O	1.271367	0.173515	-0.113545
O3	O	1.458760	0.115611	-0.113522
O4	O	1.436849	0.254429	-0.113573
O5	O	1.423025	0.126709	0.113462
O6	O	1.235632	0.184613	0.113439
O7	O	1.588508	0.207623	0.113434
Zn8	Zn	1.406396	0.197880	0.149475
Zn9	Zn	1.453478	0.183258	-0.149586
O10	O	1.401115	0.265527	0.113411
C11	C	1.208368	0.174819	-0.000052
C12	C	1.073891	0.162164	-0.000049
C13	C	0.999432	0.197105	-0.000063
C14	C	0.860443	0.184027	-0.000060
C15	C	1.440432	0.103112	-0.000026
C16	C	1.439045	0.049333	-0.000015
C17	C	1.541073	-0.280305	-0.000086
C18	C	1.535935	-0.482428	-0.000105
O19	O	1.629232	-0.505292	-0.000166
N20	N	1.424816	-0.511552	-0.000102
C21	C	1.314975	-0.490142	-0.000104
O22	O	1.220346	-0.519552	-0.000116
C23	C	1.320116	-0.288020	-0.000094
C24	C	1.431240	-0.258898	-0.000083
C25	C	1.652188	-0.251184	-0.000077
C26	C	1.653470	-0.200655	-0.000064
C27	C	1.543637	-0.179249	-0.000062
C28	C	1.432522	-0.208370	-0.000071
C29	C	1.210278	-0.266612	-0.000106
C30	C	1.211573	-0.216078	-0.000107
C31	C	1.322697	-0.186956	-0.000096
C32	C	1.323971	-0.136436	-0.000056
N33	N	1.435090	-0.107312	-0.000059
C34	C	1.544923	-0.128719	-0.000062
C35	C	1.312284	-0.596258	-0.000106
C36	C	1.310998	-0.646789	-0.000106
C37	C	1.531959	-0.639071	-0.000110
C38	C	1.533242	-0.588540	-0.000100
C39	C	1.423403	-0.567135	-0.000109
C40	C	1.547607	-0.022606	-0.000035
C41	C	1.548878	0.027926	-0.000017
C42	C	1.327919	0.020204	-0.000021
C43	C	1.326646	-0.030324	-0.000031
C44	C	1.436500	-0.051727	-0.000043
O45	O	1.230726	-0.113540	-0.000011
O46	O	1.639543	-0.099302	-0.000080
C47	C	1.539791	-0.330833	-0.000098
C48	C	1.428676	-0.359955	-0.000108
C49	C	1.318842	-0.338548	-0.000105
C50	C	1.427390	-0.410485	-0.000108
C51	C	1.537223	-0.431891	-0.000110
C52	C	1.648342	-0.402768	-0.000113
C53	C	1.649624	-0.352240	-0.000101
C54	C	1.207723	-0.367671	-0.000102
C55	C	1.206450	-0.418199	-0.000113
C56	C	1.316283	-0.439606	-0.000116
C57	C	1.651507	0.206319	-0.000062
C58	C	1.785985	0.218973	-0.000074
C59	C	1.419443	0.278026	-0.000088
C60	C	1.420832	0.331805	-0.000108
N61	N	1.374273	0.207860	0.353577
N62	N	1.485611	0.173275	-0.353688
C63	C	1.442294	0.186727	0.421364
C64	C	1.417580	0.194412	0.578528
H65	H	1.038582	0.236702	-0.000070
C66	C	0.807572	0.130532	-0.000048
H67	H	0.721094	0.128759	-0.000059
H68	H	0.822035	0.118785	0.079109
H69	H	0.846960	0.111050	-0.079210
C70	C	0.838855	0.272468	-0.000101
H71	H	0.925338	0.274241	-0.000112
H72	H	0.799470	0.291955	0.079042
H73	H	0.824394	0.284207	-0.079277
C74	C	1.021015	0.108672	-0.000037
H75	H	0.934536	0.106899	-0.000048
H76	H	1.035478	0.096925	0.079119
H77	H	1.060402	0.089190	-0.079199
C78	C	1.671116	0.059960	-0.000004
H79	H	1.656155	0.093121	0.000017
H80	H	1.728763	0.049399	-0.079158
H81	H	1.703828	0.057126	0.079161
H82	H	1.518821	0.162941	0.363050
H83	H	1.297738	0.231641	0.411893
H84	H	1.637062	-0.040027	-0.000050
H85	H	1.743960	-0.176949	-0.000061
C86	C	1.589033	0.141158	0.567551
H87	H	1.592096	0.140214	0.472252
H88	H	1.572635	0.108942	0.590901
H89	H	1.666191	0.154517	0.590897
H90	H	1.741634	-0.268607	-0.000084
H91	H	1.623729	-0.564832	-0.000092
H92	H	1.222834	-0.578836	-0.000112
C93	C	1.084209	-0.450230	-0.000126
H94	H	1.099162	-0.483391	-0.000127
H95	H	1.051497	-0.447394	-0.079282
H96	H	1.026560	-0.439669	0.079037
C97	C	1.090750	-0.192533	-0.000115
H98	H	1.107422	-0.158268	-0.000119
H99	H	1.032679	-0.198536	0.079033
H100	H	1.057620	-0.206266	-0.079286
H101	H	1.341040	0.218194	0.636840
C102	C	1.652776	-0.662626	-0.000134
H103	H	1.636087	-0.696891	-0.000150
H104	H	1.685943	-0.648899	0.079009
H105	H	1.710828	-0.656628	-0.079310
H106	H	1.236153	-0.054034	-0.000002
C107	C	1.188761	-0.678817	-0.000107
H108	H	1.123541	-0.658827	-0.000119
H109	H	1.171194	-0.694825	0.079043
H110	H	1.196130	-0.702553	-0.079275
H111	H	1.740113	-0.328533	-0.000092
C112	C	1.088041	-0.298636	-0.000129
H113	H	1.022827	-0.278643	-0.000146
H114	H	1.070464	-0.314645	0.079018
H115	H	1.095413	-0.322371	-0.079301
H116	H	1.238495	0.037643	-0.000014
C117	C	1.769159	-0.426319	-0.000118
H118	H	1.835529	-0.401742	-0.000106
H119	H	1.785702	-0.449737	-0.079276
H120	H	1.760782	-0.442006	0.079043
H121	H	1.118282	-0.350248	-0.000103
