data_functionalizedCrystal
_audit_creation_method	'MofGen! by Chris Wilmer'
_symmetry_space_group_name_H-M	'P1'
_symmetry_Int_Tables_number	1
_symmetry_cell_setting	triclinic
loop_
_symmetry_equiv_pos_as_xyz
  x,y,z
_cell_length_a	29.839134
_cell_length_b	11.169416
_cell_length_c	11.169409
_cell_angle_alpha	90.030874
_cell_angle_beta	89.967100
_cell_angle_gamma	89.994798
loop_
_atom_site_label
_atom_site_type_symbol
_atom_site_fract_x
_atom_site_fract_y
_atom_site_fract_z
Zn1	Zn	0.686865	0.477874	-0.678974
Zn2	Zn	0.686824	0.678615	-0.478296
Zn3	Zn	0.611734	0.477926	-0.478262
Zn4	Zn	0.611736	0.678496	-0.678895
O5	O	0.649290	0.578228	-0.578607
O6	O	0.749727	0.504531	-0.652400
O7	O	0.676844	0.652065	-0.310341
O8	O	0.621716	0.309970	-0.504906
O9	O	0.749696	0.652014	-0.504963
O10	O	0.676915	0.309931	-0.652368
O11	O	0.621676	0.504620	-0.310317
O12	O	0.548867	0.504504	-0.504830
O13	O	0.621721	0.651812	-0.846855
O14	O	0.548869	0.651862	-0.652233
O15	O	0.676918	0.504416	-0.846913
O16	O	0.676847	0.846549	-0.504887
O17	O	0.621681	0.846461	-0.652266
C18	C	0.649272	0.890053	-0.578597
C19	C	0.649305	1.023453	-0.578634
C20	C	0.532567	0.578177	-0.578520
C21	C	0.482633	0.578184	-0.578511
C22	C	0.649324	0.578095	-0.891649
C23	C	0.649339	0.578038	-1.025049
C24	C	0.173000	0.655071	-0.655266
C25	C	-0.014673	0.655104	-0.655319
O26	O	-0.038929	0.720419	-0.720527
N27	N	-0.038152	0.578272	-0.578697
C28	C	-0.014710	0.501420	-0.502062
O29	O	-0.038987	0.436061	-0.436900
C30	C	0.172962	0.501381	-0.502015
C31	C	0.196439	0.578227	-0.578634
C32	C	0.196477	0.731909	-0.731879
C33	C	0.243392	0.731905	-0.731860
C34	C	0.266831	0.655061	-0.655228
C35	C	0.243354	0.578222	-0.578615
C36	C	0.196403	0.424524	-0.425387
C37	C	0.243324	0.424519	-0.425384
C38	C	0.266801	0.501365	-0.502003
C39	C	0.313708	0.501374	-0.501964
N40	N	0.337187	0.578207	-0.578586
C41	C	0.313749	0.655050	-0.655218
C42	C	-0.113241	0.501447	-0.502090
C43	C	-0.160159	0.501458	-0.502100
C44	C	-0.160118	0.655142	-0.655359
C45	C	-0.113200	0.655136	-0.655342
C46	C	-0.089762	0.578280	-0.578712
C47	C	0.412274	0.655036	-0.655172
C48	C	0.459194	0.655028	-0.655143
C49	C	0.459149	0.501341	-0.501889
C50	C	0.412234	0.501352	-0.501913
C51	C	0.388798	0.578204	-0.578564
O52	O	0.337993	0.436084	-0.436800
O53	O	0.338033	0.720380	-0.720389
C54	C	0.126084	0.655075	-0.655284
C55	C	0.102608	0.578236	-0.578671
C56	C	0.126046	0.501393	-0.502039
C57	C	0.055690	0.578247	-0.578681
C58	C	0.032251	0.655091	-0.655313
C59	C	0.055730	0.731923	-0.731935
C60	C	0.102646	0.731919	-0.731916
C61	C	0.102567	0.424560	-0.425417
C62	C	0.055652	0.424572	-0.425441
C63	C	0.032213	0.501416	-0.502073
C64	C	0.766468	0.578280	-0.578694
C65	C	0.816402	0.578302	-0.578732
C66	C	0.649320	0.265186	-0.578642
C67	C	0.649333	0.131786	-0.578657
C68	C	0.649281	0.578274	-0.266782
C69	C	0.649354	0.577993	-0.133382
H70	H	0.478307	0.717609	-0.717536
H71	H	0.036541	0.361996	-0.363038
C72	C	-0.087773	0.417859	-0.419076
C73	C	-0.060829	0.340970	-0.487139
C74	C	-0.037369	0.263947	-0.410705
H75	H	-0.069448	0.463566	-0.366677
H76	H	-0.108465	0.372039	-0.373468
H77	H	-0.040140	0.386785	-0.532727
H78	H	-0.079144	0.295236	-0.539536
H79	H	-0.058061	0.218128	-0.365097
H80	H	-0.019046	0.309665	-0.358309
H81	H	-0.019088	0.211762	-0.456875
H82	H	0.121646	0.361984	-0.363013
C83	C	0.268933	0.815131	-0.815136
C84	C	0.295894	0.747254	-0.892151
C85	C	0.319429	0.823880	-0.968881
H86	H	0.248299	0.860912	-0.860888
H87	H	0.287251	0.867362	-0.769184
H88	H	0.277578	0.695044	-0.938099
H89	H	0.316536	0.701476	-0.846432
H90	H	0.337747	0.876112	-0.922929
H91	H	0.298792	0.869658	-1.014624
H92	H	0.337728	0.777838	-1.021137
C93	C	0.386915	0.738604	-0.738439
C94	C	0.417525	0.805907	-0.805501
C95	C	0.394180	0.882915	-0.882202
H96	H	0.368626	0.692894	-0.790928
H97	H	0.368609	0.790918	-0.692481
H98	H	0.435823	0.753599	-0.851455
H99	H	0.435814	0.851641	-0.753043
H100	H	0.375874	0.935230	-0.836244
H101	H	0.375892	0.837195	-0.934683
H102	H	0.414945	0.928597	-0.927705
H103	H	0.393118	0.438780	-0.439522
C104	C	0.170909	0.341309	-0.342004
C105	C	0.143973	0.409197	-0.264936
C106	C	0.120493	0.332587	-0.188071
H107	H	0.152576	0.289018	-0.387818
H108	H	0.191589	0.295593	-0.296308
H109	H	0.123296	0.454893	-0.310627
H110	H	0.162295	0.461485	-0.219096
H111	H	0.141173	0.286871	-0.142375
H112	H	0.102163	0.280300	-0.233895
H113	H	0.102217	0.378638	-0.135764
C114	C	0.171115	0.815484	-0.815129
C115	C	0.201726	0.882783	-0.882189
C116	C	0.178384	0.959809	-0.958877
H117	H	0.152823	0.769786	-0.867619
H118	H	0.152813	0.867800	-0.769161
H119	H	0.220021	0.830474	-0.928153
H120	H	0.220020	0.928506	-0.829730
H121	H	0.160081	1.012125	-0.912910
H122	H	0.160092	0.914101	-1.011360
H123	H	0.199150	1.005488	-1.004379
C124	C	0.030196	0.815221	-0.815094
C125	C	-0.015916	0.798745	-0.798720
C126	C	-0.039455	0.875436	-0.875316
H127	H	0.037821	0.895893	-0.797477
H128	H	0.037879	0.797731	-0.895787
H129	H	-0.023596	0.816244	-0.718045
H130	H	-0.023555	0.718089	-0.816345
H131	H	-0.031772	0.857946	-0.956009
H132	H	-0.031826	0.956103	-0.857693
H133	H	-0.070744	0.864260	-0.864225
H134	H	-0.094088	0.717709	-0.717734
H135	H	0.478242	0.438780	-0.439493
H136	H	-0.179210	0.717711	-0.717756
H137	H	0.262405	0.361925	-0.362988
C138	C	-0.185564	0.417903	-0.418857
C139	C	-0.154989	0.350587	-0.351774
C140	C	-0.178374	0.273584	-0.275093
H141	H	-0.203882	0.463619	-0.366381
H142	H	-0.203845	0.365597	-0.464831
H143	H	-0.136716	0.402886	-0.305803
H144	H	-0.136670	0.304847	-0.404219
H145	H	-0.196655	0.221278	-0.321067
H146	H	-0.196691	0.319309	-0.222625
H147	H	-0.157633	0.227893	-0.229576
H148	H	0.121756	0.794494	-0.794308
