data_functionalizedCrystal
_audit_creation_method	'MofGen! by Chris Wilmer'
_symmetry_space_group_name_H-M	'P1'
_symmetry_Int_Tables_number	1
_symmetry_cell_setting	triclinic
loop_
_symmetry_equiv_pos_as_xyz
  x,y,z
_cell_length_a	11.792241
_cell_length_b	13.339070
_cell_length_c	10.868271
_cell_angle_alpha	89.998695
_cell_angle_beta	90.000156
_cell_angle_gamma	99.911355
loop_
_atom_site_label
_atom_site_type_symbol
_atom_site_fract_x
_atom_site_fract_y
_atom_site_fract_z
O1	O	-1.549690	-0.138890	-0.102195
O2	O	-1.223758	-0.153205	-0.102223
O3	O	-1.349317	0.001421	-0.102208
O4	O	-1.424130	-0.293516	-0.102209
O5	O	-1.349303	0.001416	0.102436
O6	O	-1.223744	-0.153210	0.102422
O7	O	-1.549675	-0.138895	0.102450
Zn8	Zn	-1.386707	-0.146053	0.134928
Zn9	Zn	-1.386726	-0.146047	-0.134701
O10	O	-1.424116	-0.293521	0.102435
C11	C	-1.181183	-0.152308	0.000096
C12	C	-1.054340	-0.149617	0.000085
C13	C	-1.336673	0.039177	0.000111
C14	C	-1.299004	0.151686	0.000103
C15	C	-1.592250	-0.139792	0.000128
C16	C	-1.719093	-0.142483	0.000131
C17	C	-0.822104	-0.144668	0.000120
C18	C	-0.951336	-0.147418	0.000101
C19	C	-1.436760	-0.331277	0.000113
C20	C	-1.474429	-0.443786	0.000113
N21	N	-1.386703	-0.146057	0.318942
C22	C	-1.591898	0.514872	0.000129
C23	C	-1.627293	0.409165	0.000143
C24	C	-1.545224	0.344790	0.000133
C25	C	-1.427753	0.386132	0.000108
C26	C	-1.392354	0.491849	0.000104
C27	C	-1.345680	0.321768	0.000108
C28	C	-1.228209	0.363110	0.000083
C29	C	-1.192816	0.468817	0.000078
C30	C	-1.274886	0.533192	0.000088
C31	C	-1.381079	0.216050	0.000113
C32	C	-1.181535	0.193028	0.000087
C33	C	-1.146140	0.298735	0.000073
N34	N	-1.386737	-0.146035	-0.318715
C35	C	-1.386711	-0.146058	0.430279
C36	C	-1.386723	-0.146048	0.569957
H37	H	-1.574050	0.258720	0.000145
H38	H	-1.097164	0.502474	0.000067
H39	H	-1.114707	0.140613	0.000085
H40	H	-1.476724	0.182401	0.000133
H41	H	-1.246072	0.619268	0.000072
N42	N	-1.026155	0.340987	0.000043
N43	N	-0.994572	0.435374	0.000032
H44	H	-0.909832	0.465217	0.000010
H45	H	-1.722938	0.375512	0.000165
N46	N	-1.675703	0.580641	0.000156
N47	N	-1.644079	0.675023	0.000159
H48	H	-1.703272	0.721476	0.000181
