data_functionalizedCrystal
_audit_creation_method	'MofGen! by Chris Wilmer'
_symmetry_space_group_name_H-M	'P1'
_symmetry_Int_Tables_number	1
_symmetry_cell_setting	triclinic
loop_
_symmetry_equiv_pos_as_xyz
  x,y,z
_cell_length_a	13.635800
_cell_length_b	19.492437
_cell_length_c	19.453172
_cell_angle_alpha	83.808612
_cell_angle_beta	78.289512
_cell_angle_gamma	102.254873
loop_
_atom_site_label
_atom_site_type_symbol
_atom_site_fract_x
_atom_site_fract_y
_atom_site_fract_z
V1	V	2.002053	0.219331	-0.097918
O2	O	2.000536	0.214818	0.003949
O3	O	1.973550	0.218155	-0.193427
O4	O	1.974891	0.314840	-0.096743
O5	O	1.999186	0.117464	-0.093404
V6	V	2.244808	0.207107	-0.085694
O7	O	2.130502	0.246144	-0.124731
O8	O	2.341457	0.180294	-0.058880
O9	O	2.161707	0.208282	0.009815
O10	O	2.305023	0.211620	-0.187561
O11	O	2.306373	0.308974	-0.090208
O12	O	2.160366	0.111598	-0.086868
V13	V	2.502053	0.219331	-0.097918
O14	O	2.500536	0.214818	0.003949
O15	O	2.473550	0.218155	-0.193427
O16	O	2.474891	0.314840	-0.096743
O17	O	2.499186	0.117464	-0.093404
V18	V	2.744808	0.207107	-0.085694
O19	O	2.630502	0.246144	-0.124731
O20	O	2.841457	0.180294	-0.058880
O21	O	2.661707	0.208282	0.009815
O22	O	2.805023	0.211620	-0.187561
O23	O	2.806373	0.308974	-0.090208
O24	O	2.660366	0.111598	-0.086868
C25	C	1.895099	0.214779	-0.216700
C26	C	1.912418	0.214455	-0.294782
C27	C	1.896810	0.338109	-0.093369
C28	C	1.915216	0.416191	-0.093041
C29	C	2.126958	0.216326	-0.855856
C30	C	2.110693	0.216626	-0.782489
C31	C	2.011598	0.212599	-0.742105
C32	C	1.928757	0.208254	-0.775091
C33	C	1.945023	0.207947	-0.848456
N34	N	1.928776	0.250131	-0.630539
N35	N	1.913331	0.250424	-0.560846
C36	C	1.962585	0.213522	-0.521061
N37	N	2.027885	0.176326	-0.553604
N38	N	2.043335	0.176035	-0.623304
C39	C	1.993950	0.212931	-0.662553
C40	C	2.027784	0.218187	-0.408530
C41	C	2.011514	0.218482	-0.335161
C42	C	1.829578	0.210118	-0.327766
C43	C	1.845848	0.209816	-0.401132
C44	C	1.944954	0.213854	-0.441511
C45	C	2.137339	0.977153	-0.094208
C46	C	2.120055	0.903788	-0.094522
C47	C	2.020624	0.863510	-0.091158
C48	C	1.938476	0.896605	-0.087498
C49	C	1.955765	0.969970	-0.087192
N50	N	1.915361	0.739248	-0.048835
N51	N	1.898944	0.669554	-0.049125
C52	C	1.968530	0.642466	-0.092082
N53	N	2.055166	0.687703	-0.134730
N54	N	2.071587	0.757402	-0.134438
C55	C	2.001867	0.783958	-0.091490
C56	C	2.031933	0.529829	-0.096086
C57	C	2.014646	0.456463	-0.096404
C58	C	1.833064	0.449281	-0.089373
C59	C	1.850355	0.522647	-0.089063
C60	C	1.949791	0.562916	-0.092416
C61	C	2.071829	0.211657	0.033084
C62	C	2.044129	0.211985	0.111166
C63	C	2.073603	1.088324	-0.090239
C64	C	2.055200	1.010239	-0.090545
C65	C	2.395099	0.214779	-0.216700
C66	C	2.412418	0.214455	-0.294782
C67	C	2.396810	0.338109	-0.093369
C68	C	2.415216	0.416191	-0.093041
C69	C	2.571829	0.211657	0.033084
C70	C	2.544129	0.211985	0.111166
C71	C	2.570118	0.088325	-0.090245
C72	C	2.541332	0.010242	-0.090569
C73	C	2.511345	0.217824	-0.335043
C74	C	2.527635	0.217530	-0.408412
C75	C	2.444996	0.213862	-0.441517
C76	C	2.346062	0.210495	-0.401251
C77	C	2.329774	0.210794	-0.327884
C78	C	2.514652	0.456451	-0.096401
C79	C	2.531957	0.529816	-0.096083
C80	C	2.449827	0.562920	-0.092411
C81	C	2.350383	0.522654	-0.089049
C82	C	2.333077	0.449290	-0.089361
C83	C	2.617696	0.208618	0.151427
C84	C	2.591677	0.208915	0.224795
C85	C	2.492093	0.212585	0.257900
C86	C	2.418520	0.215951	0.217634
C87	C	2.444537	0.215648	0.144268
C88	C	2.441232	-0.022844	-0.094234
C89	C	2.414167	-0.096211	-0.094531
C90	C	2.487205	-0.136490	-0.091168
C91	C	2.587313	-0.103400	-0.087501
C92	C	2.614375	-0.030034	-0.087199
H93	H	2.207656	0.219612	-0.888727
H94	H	1.748892	0.206837	-0.294885
H95	H	2.178143	0.220156	-0.755632
H96	H	2.332650	-0.123143	-0.097516
H97	H	2.283518	0.549619	-0.086059
H98	H	2.186944	0.876843	-0.097506
H99	H	1.778399	0.206284	-0.427984
C100	C	2.105011	0.420069	-0.100432
N101	N	2.173074	0.392655	-0.103464
C102	C	2.246720	1.021444	-0.097897
N103	N	2.329107	1.054806	-0.100674
C104	C	2.457423	-0.217193	-0.091506
N105	N	2.434986	-0.277978	-0.091764
H106	H	2.252104	0.416515	-0.086627
C107	C	2.641356	0.574095	-0.099787
N108	N	2.723755	0.607445	-0.102577
H109	H	2.108481	0.221471	-0.441407
C110	C	2.255164	0.206447	-0.437676
N111	N	2.186698	0.203391	-0.465112
C112	C	2.727245	0.204575	0.115027
N113	N	2.809758	0.201525	0.087616
C114	C	1.829102	0.852298	-0.083798
N115	N	1.746718	0.818926	-0.081012
C116	C	2.672635	0.205242	0.269070
N117	N	2.733618	0.202486	0.302414
C118	C	2.724498	0.006353	-0.083174
N119	N	2.807446	0.033756	-0.080142
C120	C	2.636469	0.221227	-0.452691
N121	N	2.718442	0.224009	-0.486039
C122	C	2.462929	0.213529	-0.522223
N123	N	2.476441	0.213275	-0.583011
C124	C	2.141317	0.574130	-0.099787
N125	N	2.223706	0.607495	-0.102577
C126	C	2.308979	0.219987	0.254061
N127	N	2.226474	0.223030	0.281500
C128	C	2.363602	0.219363	0.099987
N129	N	2.302636	0.222161	0.066637
H130	H	2.463933	0.622659	-0.092157
C131	C	2.220940	0.207076	-0.283602
N132	N	2.138961	0.204273	-0.250252
H133	H	1.877570	0.204415	-0.875306
C134	C	1.723689	0.404980	-0.085674
N135	N	1.641305	0.371609	-0.082888
C136	C	2.602267	0.221864	-0.298643
N137	N	2.670758	0.224913	-0.271232
H138	H	1.888874	0.996908	-0.084209
H139	H	1.848072	0.204975	-0.742206
H140	H	2.078967	0.222013	-0.308311
H141	H	1.783467	0.549585	-0.086076
H142	H	2.581539	0.429508	-0.099393
H143	H	2.470922	0.212830	0.317640
H144	H	2.381746	0.009942	-0.096972
H145	H	2.646774	-0.136206	-0.084761
