data_functionalizedCrystal
_audit_creation_method	'MofGen! by Chris Wilmer'
_symmetry_space_group_name_H-M	'P1'
_symmetry_Int_Tables_number	1
_symmetry_cell_setting	triclinic
loop_
_symmetry_equiv_pos_as_xyz
  x,y,z
_cell_length_a	17.699083
_cell_length_b	19.188930
_cell_length_c	16.176319
_cell_angle_alpha	89.988074
_cell_angle_beta	89.998611
_cell_angle_gamma	83.213899
loop_
_atom_site_label
_atom_site_type_symbol
_atom_site_fract_x
_atom_site_fract_y
_atom_site_fract_z
O1	O	1.003963	0.088294	-0.068640
O2	O	1.503963	0.588294	0.431360
O3	O	0.783569	0.099782	-0.068668
O4	O	1.283569	0.599782	0.431332
O5	O	0.900126	-0.007610	-0.068637
O6	O	1.400126	0.492390	0.431363
O7	O	0.887406	0.195687	-0.068671
O8	O	1.387406	0.695687	0.431329
O9	O	0.900110	-0.007617	0.068856
O10	O	1.400110	0.492383	0.568856
O11	O	0.783553	0.099775	0.068825
O12	O	1.283553	0.599775	0.568825
O13	O	1.003947	0.088288	0.068853
O14	O	1.503947	0.588288	0.568853
Cu15	Cu	0.893748	0.094031	0.081393
Cu16	Cu	1.393748	0.594031	0.581393
Cu17	Cu	0.893767	0.094039	-0.081208
Cu18	Cu	1.393767	0.594039	0.418792
O19	O	0.887390	0.195680	0.068822
O20	O	1.387390	0.695680	0.568822
C21	C	0.755365	0.099367	0.000075
C22	C	1.255365	0.599367	0.500075
C23	C	0.671348	0.098132	0.000065
C24	C	1.171348	0.598132	0.500065
C25	C	0.622644	0.161169	0.000055
C26	C	1.122644	0.661169	0.500055
C27	C	0.543702	0.160004	0.000065
C28	C	1.043702	0.660004	0.500065
C29	C	0.513466	0.095802	0.000081
C30	C	1.013466	0.595802	0.500081
C31	C	0.562176	0.032761	0.000093
C32	C	1.062176	0.532761	0.500093
C33	C	0.641117	0.033926	0.000088
C34	C	1.141117	0.533926	0.500088
C35	C	0.243819	0.028060	0.000115
C36	C	0.743819	0.528060	0.500115
C37	C	0.164873	0.026900	0.000117
C38	C	0.664873	0.526900	0.500117
C39	C	0.146405	0.154139	0.000092
C40	C	0.646405	0.654139	0.500092
C41	C	0.225345	0.155304	0.000087
C42	C	0.725345	0.655304	0.500087
C43	C	0.274049	0.092263	0.000104
C44	C	0.774049	0.592263	0.500104
C45	C	0.359646	0.093526	0.000094
C46	C	0.859646	0.593526	0.500094
C47	C	0.427870	0.094538	0.000085
C48	C	0.927870	0.594538	0.500085
C49	C	0.899706	-0.033625	0.000112
C50	C	1.399706	0.466375	0.500112
C51	C	0.898469	-0.111131	0.000119
C52	C	1.398469	0.388869	0.500119
C53	C	0.966861	-0.155978	0.000131
C54	C	1.466861	0.344022	0.500131
C55	C	0.965699	-0.228804	0.000118
C56	C	1.465699	0.271196	0.500118
C57	C	0.896142	-0.256778	0.000108
C58	C	1.396142	0.243222	0.500108
C59	C	0.827741	-0.211921	0.000091
C60	C	1.327741	0.288079	0.500091
C61	C	0.828905	-0.139098	0.000096
C62	C	1.328905	0.360902	0.500096
N63	N	0.842968	-0.364845	0.046893
N64	N	1.342968	0.135155	0.546893
N65	N	0.841868	-0.434025	0.046890
N66	N	1.341868	0.065975	0.546890
C67	C	0.892632	-0.476191	0.000091
C68	C	1.392632	0.023809	0.500091
N69	N	0.944550	-0.446565	-0.046694
N70	N	1.444550	0.053435	0.453306
N71	N	0.945653	-0.377379	-0.046687
N72	N	1.445653	0.122621	0.453313
C73	C	0.894873	-0.335742	0.000102
C74	C	1.394873	0.164258	0.500102
C75	C	0.959769	-0.600004	0.000088
C76	C	1.459769	-0.100004	0.500088
C77	C	0.958604	-0.672830	0.000070
C78	C	1.458604	-0.172830	0.500070
C79	C	0.820644	-0.655946	0.000051
C80	C	1.320644	-0.155946	0.500051
C81	C	0.821811	-0.583121	0.000061
C82	C	1.321811	-0.083121	0.500061
C83	C	0.891375	-0.555155	0.000084
C84	C	1.391375	-0.055155	0.500084
C85	C	1.032151	0.088703	0.000108
C86	C	1.532151	0.588703	0.500108
C87	C	1.116167	0.089938	0.000113
C88	C	1.616167	0.589938	0.500113
C89	C	0.887810	0.221695	0.000071
C90	C	1.387810	0.721695	0.500071
C91	C	0.889046	0.299201	0.000059
C92	C	1.389046	0.799201	0.500059
N93	N	0.893741	0.094025	0.195758
N94	N	1.393741	0.594025	0.695758
N95	N	0.893781	0.094039	-0.195574
N96	N	1.393781	0.594039	0.304426
C97	C	0.945367	0.046491	0.239036
C98	C	1.445367	0.546491	0.739036
C99	C	0.945371	0.046490	0.325584
C100	C	1.445371	0.546490	0.825584
C101	C	0.893751	0.094027	0.368851
C102	C	1.393751	0.594027	0.868851
C103	C	0.842119	0.141563	0.325567
C104	C	1.342119	0.641563	0.825567
C105	C	0.842112	0.141560	0.239022
C106	C	1.342112	0.641560	0.739022
C107	C	0.842145	0.141576	0.674595
C108	C	1.342145	0.641576	1.174595
C109	C	0.842157	0.141577	0.761147
C110	C	1.342157	0.641577	1.261147
C111	C	0.945404	0.046506	0.761157
C112	C	1.445404	0.546506	1.261157
C113	C	0.945397	0.046503	0.674612
C114	C	1.445397	0.546503	1.174612
C115	C	0.893763	0.094036	0.631335
C116	C	1.393763	0.594036	1.131335
C117	C	0.893758	0.094036	0.537491
C118	C	1.393758	0.594036	1.037491
C119	C	0.893759	0.094031	0.462694
C120	C	1.393759	0.594031	0.962694
H121	H	0.106741	0.205470	0.000082
H122	H	0.606741	0.705470	0.500082
H123	H	1.023506	-0.133213	0.000147
H124	H	1.523506	0.366787	0.500147
H125	H	0.771107	-0.234702	0.000081
H126	H	1.271107	0.265298	0.500081
H127	H	0.773210	-0.102582	0.000086
H128	H	1.273210	0.397418	0.500086
H129	H	1.016412	-0.577233	0.000103
H130	H	1.516412	-0.077233	0.500103
N131	N	1.001096	-0.004764	0.807837
N132	N	1.501096	0.495236	1.307837
H133	H	0.972288	-0.035650	0.843756
H134	H	1.472288	0.464350	1.343756
H135	H	1.033784	-0.034827	0.767241
H136	H	1.533784	0.465173	1.267241
N137	N	1.032373	-0.721205	0.000080
N138	N	1.532373	-0.221205	0.500080
H139	H	1.076615	-0.692435	0.000098
H140	H	1.576615	-0.192435	0.500098
H141	H	1.034882	-0.751800	0.051048
H142	H	1.534882	-0.251800	0.551048
H143	H	0.766119	-0.546605	0.000056
H144	H	1.266119	-0.046605	0.500056
N145	N	0.296343	-0.039931	0.000139
N146	N	0.796343	0.460069	0.500139
H147	H	0.265208	-0.080777	0.000148
H148	H	0.765208	0.419223	0.500148
H149	H	0.329502	-0.042223	-0.050830
H150	H	0.829502	0.457777	0.449170
N151	N	0.257948	0.224555	0.000073
N152	N	0.757948	0.724555	0.500073
H153	H	0.290290	0.227871	0.051039
H154	H	0.790290	0.727871	0.551039
H155	H	0.290249	0.227838	-0.050932
H156	H	0.790249	0.727838	0.449068
N157	N	0.693651	-0.034064	0.000106
N158	N	1.193651	0.465936	0.500106
H159	H	0.662520	-0.074913	0.000116
H160	H	1.162520	0.425087	0.500116
H161	H	0.726808	-0.036352	-0.050864
H162	H	1.226808	0.463648	0.449136
H163	H	0.987405	0.007784	0.203814
H164	H	1.487405	0.507784	0.703814
N165	N	0.529569	-0.036488	0.000123
N166	N	1.029569	0.463512	0.500123
H167	H	0.472170	-0.027662	0.000124
H168	H	0.972170	0.472338	0.500124
H169	H	0.547399	-0.064069	-0.050840
H170	H	1.047399	0.435931	0.449160
H171	H	0.764009	-0.678722	0.000039
H172	H	1.264009	-0.178722	0.500039
N173	N	1.001080	-0.004755	0.372263
N174	N	1.501080	0.495245	0.872263
H175	H	1.033792	-0.034858	0.331721
H176	H	1.533792	0.465142	0.831721
H177	H	1.034436	0.021968	0.408143
H178	H	1.534436	0.521968	0.908143
N179	N	0.132258	-0.042350	0.000135
N180	N	0.632258	0.457650	0.500135
H181	H	0.175090	-0.082110	0.000147
H182	H	0.675090	0.417890	0.500147
H183	H	0.099906	-0.045600	0.051106
H184	H	0.599906	0.454400	0.551106
H185	H	0.987433	0.007796	0.639386
H186	H	1.487433	0.507796	1.139386
H187	H	1.021394	-0.265325	0.000125
H188	H	1.521394	0.234675	0.500125
N189	N	0.786475	0.192847	0.807817
N190	N	1.286475	0.692847	1.307817
H191	H	0.753760	0.222957	0.767270
H192	H	1.253760	0.722957	1.267270
H193	H	0.753118	0.166148	0.843738
H194	H	1.253118	0.666148	1.343738
H195	H	0.800104	0.180281	0.639366
H196	H	1.300104	0.680281	1.139366
H197	H	0.800071	0.180266	0.203785
H198	H	1.300071	0.680266	0.703785
N199	N	0.655245	0.230420	0.000039
N200	N	1.155245	0.730420	0.500039
H201	H	0.687588	0.233738	0.051004
H202	H	1.187588	0.733738	0.551004
H203	H	0.687545	0.233703	-0.050967
H204	H	1.187545	0.733703	0.449033
N205	N	0.491171	0.227994	0.000148
N206	N	0.991171	0.727994	0.500148
H207	H	0.522304	0.268842	0.000163
H208	H	1.022304	0.768842	0.500163
H209	H	0.457970	0.230336	-0.050789
H210	H	0.957970	0.730336	0.449211
N211	N	0.786437	0.192832	0.372229
N212	N	1.286437	0.692832	0.872229
H213	H	0.794275	0.185623	0.433623
H214	H	1.294275	0.685623	0.933623
H215	H	0.795009	0.242353	0.357084
H216	H	1.295009	0.742353	0.857084
