data_functionalizedCrystal
_audit_creation_method	'MofGen! by Chris Wilmer'
_symmetry_space_group_name_H-M	'P1'
_symmetry_Int_Tables_number	1
_symmetry_cell_setting	triclinic
loop_
_symmetry_equiv_pos_as_xyz
  x,y,z
_cell_length_a	6.817900
_cell_length_b	14.125469
_cell_length_c	10.992410
_cell_angle_alpha	94.598388
_cell_angle_beta	108.764651
_cell_angle_gamma	100.398878
loop_
_atom_site_label
_atom_site_type_symbol
_atom_site_fract_x
_atom_site_fract_y
_atom_site_fract_z
V1	V	-4.071585	-0.133114	-0.400097
O2	O	-4.074426	0.006397	-0.392991
O3	O	-4.007233	-0.263943	-0.396869
O4	O	-4.049833	-0.131066	-0.574817
O5	O	-4.031531	-0.127399	-0.213812
V6	V	-4.553827	-0.116427	-0.377875
O7	O	-4.335653	-0.169718	-0.448842
O8	O	-4.739956	-0.079822	-0.329131
O9	O	-4.394972	0.014402	-0.381103
O10	O	-4.668382	-0.255937	-0.384981
O11	O	-4.711278	-0.122141	-0.564160
O12	O	-4.352372	-0.118474	-0.203155
C13	C	-3.847491	-0.295836	-0.390431
C14	C	-3.876340	-0.402790	-0.388957
C15	C	-3.929229	-0.598615	-0.386276
C16	C	-4.115550	-0.650937	-0.391700
C17	C	-4.144980	-0.759901	-0.390209
C18	C	-3.899791	-0.489641	-0.387768
C19	C	-3.901831	-0.126338	-0.617419
C20	C	-3.965224	-0.125529	-0.760251
C21	C	-3.834708	-0.118163	-0.955401
C22	C	-3.768761	-0.119403	-0.806913
C23	C	-4.132836	-0.220392	-0.837001
C24	C	-4.197419	-0.219553	-0.985571
C25	C	-4.134058	-0.035864	-0.948224
C26	C	-4.063493	-0.035415	-0.799212
C27	C	-4.218055	0.046290	-0.387538
C28	C	-4.168446	0.153243	-0.389020
C29	C	-4.163715	-0.123206	-0.160546
C30	C	-4.079560	-0.124010	-0.017714
H31	H	-3.642167	-0.051192	-0.753827
N32	N	-3.715305	-0.032001	-0.979346
N33	N	-3.809263	0.026103	-1.042620
H34	H	-3.724938	0.086959	-1.059538
N35	N	-3.756875	-0.645089	-0.379050
N36	N	-3.781414	-0.734823	-0.377831
H37	H	-3.659695	-0.767657	-0.372725
N38	N	-3.777975	-0.197614	-1.015321
N39	N	-3.917089	-0.258524	-1.103716
H40	H	-3.877030	-0.314639	-1.146038
H41	H	-3.691000	-0.183615	-0.781859
H42	H	-4.280677	-0.228301	-0.808168
N43	N	-4.287950	-0.604491	-0.398904
N44	N	-4.463103	-0.653621	-0.403989
H45	H	-4.584853	-0.620815	-0.409071
H46	H	-4.160466	-0.286295	-1.031592
H47	H	-4.376777	-0.227802	-1.028171
H48	H	-4.311937	-0.039312	-0.989051
N49	N	-4.048517	-0.304320	-0.804556
N50	N	-3.865102	-0.294509	-0.724974
H51	H	-3.805539	-0.353781	-0.702059
H52	H	-4.054231	0.036172	-0.968851
N53	N	-3.911987	0.052615	-0.733852
N54	N	-3.732276	0.049074	-0.658835
H55	H	-3.625269	0.111244	-0.612661
H56	H	-4.205963	-0.034301	-0.766705
