data_functionalizedCrystal
_audit_creation_method	'MofGen! by Chris Wilmer'
_symmetry_space_group_name_H-M	'P1'
_symmetry_Int_Tables_number	1
_symmetry_cell_setting	triclinic
loop_
_symmetry_equiv_pos_as_xyz
  x,y,z
_cell_length_a	14.044220
_cell_length_b	10.723023
_cell_length_c	9.798715
_cell_angle_alpha	89.996770
_cell_angle_beta	90.001971
_cell_angle_gamma	91.171787
loop_
_atom_site_label
_atom_site_type_symbol
_atom_site_fract_x
_atom_site_fract_y
_atom_site_fract_z
O1	O	-0.133036	1.670498	-0.113474
O2	O	-0.145772	1.308619	-0.113480
O3	O	-0.001384	1.484127	-0.113471
O4	O	-0.277424	1.494990	-0.113483
O5	O	-0.001384	1.484112	0.113511
O6	O	-0.145771	1.308605	0.113503
O7	O	-0.133036	1.670483	0.113508
Zn8	Zn	-0.139403	1.489542	0.149544
Zn9	Zn	-0.139404	1.489561	-0.149515
O10	O	-0.277423	1.494976	0.113499
C11	C	-0.144845	1.262020	0.000011
C12	C	-0.142072	1.123188	0.000009
C13	C	-0.140836	1.061285	0.117591
C14	C	-0.137971	0.917795	0.117592
C15	C	-0.312769	1.499739	0.000007
C16	C	-0.418087	1.513923	0.000002
C17	C	-0.610917	1.539855	0.000008
C18	C	-0.667896	1.439253	0.000008
C19	C	-0.775193	1.453682	0.000012
C20	C	-0.503610	1.525428	0.000005
C21	C	0.033962	1.479364	0.000019
C22	C	0.139280	1.465180	0.000015
C23	C	-0.133963	1.717083	0.000015
C24	C	-0.136735	1.855915	0.000008
N25	N	-0.139403	1.489538	0.353643
N26	N	-0.139397	1.489574	-0.353615
C27	C	-0.078511	1.563202	0.421424
C28	C	-0.078508	1.563222	0.578587
H29	H	-0.136913	0.864560	0.218258
C30	C	-0.138170	0.927821	-0.135999
N31	N	-0.139249	0.981991	-0.238440
H32	H	-0.141007	1.069956	-0.100657
C33	C	-0.653877	1.670842	0.000033
N34	N	-0.686247	1.769500	0.000061
C35	C	-0.008068	1.648363	0.342639
N36	N	0.044996	1.712502	0.283300
H37	H	-0.636095	1.342289	0.000008
C38	C	-0.008077	1.648425	0.657329
N39	N	0.044974	1.712600	0.716642
C40	C	-0.209826	1.404350	0.432428
N41	N	-0.262871	1.340183	0.491767
C42	C	-0.142313	1.133191	0.253592
N43	N	-0.143441	1.187348	0.356032
H44	H	-0.191535	1.426508	0.588106
