data_functionalizedCrystal
_audit_creation_method	'MofGen! by Chris Wilmer'
_symmetry_space_group_name_H-M	'P1'
_symmetry_Int_Tables_number	1
_symmetry_cell_setting	triclinic
loop_
_symmetry_equiv_pos_as_xyz
  x,y,z
_cell_length_a	14.519709
_cell_length_b	16.109301
_cell_length_c	14.586319
_cell_angle_alpha	90.005214
_cell_angle_beta	89.997892
_cell_angle_gamma	83.570813
loop_
_atom_site_label
_atom_site_type_symbol
_atom_site_fract_x
_atom_site_fract_y
_atom_site_fract_z
O1	O	-1.223634	-0.108984	-0.076124
O2	O	-0.723634	0.391016	0.423876
O3	O	-0.955130	-0.121819	-0.076152
O4	O	-0.455130	0.378181	0.423848
O5	O	-1.096758	0.005617	-0.076128
O6	O	-0.596758	0.505617	0.423872
O7	O	-1.082006	-0.236420	-0.076148
O8	O	-0.582006	0.263580	0.423852
O9	O	-1.096748	0.005618	0.076353
O10	O	-0.596748	0.505618	0.576353
O11	O	-0.955120	-0.121817	0.076328
O12	O	-0.455120	0.378183	0.576328
O13	O	-1.223624	-0.108983	0.076357
O14	O	-0.723624	0.391017	0.576357
Cu15	Cu	-1.089371	-0.115400	0.090265
Cu16	Cu	-0.589371	0.384600	0.590265
Cu17	Cu	-1.089383	-0.115402	-0.090061
Cu18	Cu	-0.589383	0.384598	0.409939
O19	O	-1.081996	-0.236418	0.076333
O20	O	-0.581996	0.263582	0.576333
C21	C	-0.920766	-0.121220	0.000085
C22	C	-0.420766	0.378780	0.500085
C23	C	-0.818389	-0.119427	0.000074
C24	C	-0.318389	0.380573	0.500074
C25	C	-1.096156	0.036593	0.000113
C26	C	-0.596156	0.536593	0.500113
C27	C	-1.094364	0.128892	0.000114
C28	C	-0.594364	0.628892	0.500114
C29	C	-1.257988	-0.109582	0.000118
C30	C	-0.757988	0.390418	0.500118
C31	C	-1.360365	-0.111374	0.000122
C32	C	-0.860365	0.388626	0.500122
N33	N	-1.089370	-0.115397	0.217097
N34	N	-0.589370	0.384603	0.717097
C35	C	-0.443507	-0.112829	0.000116
C36	C	0.056493	0.387171	0.500116
C37	C	-0.547811	-0.114661	0.000104
C38	C	-0.047811	0.385339	0.500104
C39	C	-0.630945	-0.116128	0.000094
C40	C	-0.130945	0.383872	0.500094
C41	C	-0.735256	-0.117961	0.000084
C42	C	-0.235256	0.382039	0.500084
C43	C	-1.082599	-0.267395	0.000090
C44	C	-0.582599	0.232605	0.500090
C45	C	-1.084390	-0.359693	0.000083
C46	C	-0.584390	0.140307	0.500083
C47	C	-1.174238	0.351026	0.000108
C48	C	-0.674238	0.851026	0.500108
C49	C	-1.172547	0.437749	0.000100
C50	C	-0.672547	0.937749	0.500100
C51	C	-1.004510	0.418166	0.000086
C52	C	-0.504510	0.918166	0.500086
C53	C	-1.006202	0.331444	0.000087
C54	C	-0.506202	0.831444	0.500087
C55	C	-1.091068	0.297877	0.000103
C56	C	-0.591068	0.797877	0.500103
C57	C	-1.087686	0.471322	0.000094
C58	C	-0.587686	0.971322	0.500094
C59	C	-1.085852	0.565351	0.000085
C60	C	-0.585852	1.065351	0.500085
C61	C	-1.092902	0.203842	0.000109
C62	C	-0.592902	0.703842	0.500109
N63	N	-1.089392	-0.115397	-0.216893
N64	N	-0.589392	0.384603	0.283107
C65	C	-1.152104	-0.058988	0.452114
C66	C	-0.652104	0.441012	0.952114
C67	C	-1.152106	-0.058986	0.548096
C68	C	-0.652106	0.441014	1.048096
C69	C	-1.026651	-0.171809	0.548083
C70	C	-0.526651	0.328191	1.048083
C71	C	-1.026645	-0.171807	0.452104
C72	C	-0.526645	0.328193	0.952104
C73	C	-1.089376	-0.115397	0.404122
C74	C	-0.589376	0.384603	0.904122
C75	C	-1.089385	-0.115398	0.596083
C76	C	-0.589385	0.384602	1.096083
C77	C	-1.089388	-0.115396	0.700150
C78	C	-0.589388	0.384604	1.200150
C79	C	-1.089373	-0.115398	0.300048
C80	C	-0.589373	0.384602	0.800048
H81	H	-1.240272	0.481020	0.000102
H82	H	-0.740272	0.981020	0.500102
H83	H	-0.975560	-0.217742	0.413026
H84	H	-0.475560	0.282258	0.913026
N85	N	-1.219770	0.001847	0.599860
N86	N	-0.719770	0.501847	1.099860
H87	H	-1.260585	-0.030014	0.639677
H88	H	-0.760585	0.469986	1.139677
H89	H	-1.184483	0.038718	0.639635
H90	H	-0.684483	0.538718	1.139635
N91	N	-0.912978	0.454368	0.000086
N92	N	-0.412978	0.954368	0.500086
H93	H	-0.876540	0.434993	-0.056441
H94	H	-0.376540	0.934993	0.443559
H95	H	-0.924599	0.517365	0.000125
H96	H	-0.424599	1.017365	0.500125
H97	H	-1.203182	-0.013055	0.413050
H98	H	-0.703182	0.486945	0.913050
N99	N	-1.265767	0.314819	0.000123
N100	N	-0.765767	0.814819	0.500123
H101	H	-1.318198	0.361651	0.000124
H102	H	-0.818198	0.861651	0.500124
H103	H	-1.270131	0.279258	-0.056402
H104	H	-0.770131	0.779258	0.443598
H105	H	-0.938471	0.288168	0.000080
H106	H	-0.438471	0.788168	0.500080
N107	N	-0.958994	-0.232649	0.599836
N108	N	-0.458994	0.267351	1.099836
H109	H	-0.968517	-0.224094	0.667921
H110	H	-0.468517	0.275906	1.167921
H111	H	-0.969626	-0.291651	0.583049
H112	H	-0.469626	0.208349	1.083049
