data_functionalizedCrystal
_audit_creation_method	'MofGen! by Chris Wilmer'
_symmetry_space_group_name_H-M	'P1'
_symmetry_Int_Tables_number	1
_symmetry_cell_setting	triclinic
loop_
_symmetry_equiv_pos_as_xyz
  x,y,z
_cell_length_a	10.967953
_cell_length_b	16.974897
_cell_length_c	15.455313
_cell_angle_alpha	83.675220
_cell_angle_beta	104.803889
_cell_angle_gamma	84.839040
loop_
_atom_site_label
_atom_site_type_symbol
_atom_site_fract_x
_atom_site_fract_y
_atom_site_fract_z
O1	O	0.149750	1.055891	-0.123787
O2	O	0.171459	0.824871	-0.104343
O3	O	-0.023164	0.947022	-0.141997
O4	O	0.344373	0.933740	-0.086134
O5	O	-0.012081	0.940037	0.004412
O6	O	0.182543	0.817886	0.042065
O7	O	0.160833	1.048906	0.022622
Cu8	Cu	0.172700	0.932758	0.045712
Cu9	Cu	0.159592	0.941019	-0.127433
O10	O	0.355457	0.926755	0.060275
C11	C	0.176378	0.791822	-0.029160
C12	C	0.174506	0.703753	-0.023265
C13	C	0.167588	0.666178	-0.100295
C14	C	0.165851	0.583425	-0.094740
C15	C	0.171022	0.538250	-0.012155
C16	C	0.177944	0.575830	0.064882
C17	C	0.179690	0.658580	0.059328
C18	C	0.166455	0.290355	0.013017
C19	C	0.164704	0.207599	0.018566
C20	C	0.152613	0.215200	-0.141057
C21	C	0.154352	0.297952	-0.146606
C22	C	0.161281	0.335525	-0.069568
N23	N	0.169242	0.453664	-0.006475
N24	N	0.163070	0.420108	-0.075247
C25	C	-0.064640	0.943091	-0.075791
C26	C	-0.204736	0.941776	-0.096643
C27	C	-0.406250	0.936207	-0.051634
C28	C	-0.261454	0.937569	-0.030086
C29	C	0.396932	0.930685	-0.005933
C30	C	0.537028	0.932001	0.014913
C31	C	0.155914	1.081955	-0.052564
C32	C	0.157786	1.170024	-0.058465
N33	N	0.181919	0.926954	0.167492
N34	N	0.150364	0.946829	-0.249216
C35	C	0.099266	0.978866	0.196893
C36	C	0.106249	0.974484	0.289052
C37	C	0.195892	0.918192	0.351809
C38	C	0.278549	0.866275	0.322402
C39	C	0.271558	0.870654	0.230244
C40	C	0.226030	0.899291	0.629220
C41	C	0.233017	0.894917	0.721383
C42	C	0.060715	1.003126	0.688026
C43	C	0.053738	1.007503	0.595868
C44	C	0.136390	0.955582	0.566469
N45	N	0.203035	0.913713	0.446011
N46	N	0.129240	0.960058	0.472268
H47	H	0.163374	0.702954	-0.167546
H48	H	-0.263365	0.944372	-0.169575
Br49	Br	-0.005928	1.044934	0.328955
H50	H	-0.006578	1.045396	0.711972
Br51	Br	0.354691	0.818518	0.806551
H52	H	-0.019257	1.053340	0.544772
Br53	Br	0.338199	0.828831	0.589326
H54	H	-0.404339	0.929413	0.087839
Br55	Br	-0.022390	1.055271	0.111732
H56	H	0.351534	0.820437	0.373504
H57	H	0.168950	0.170817	0.085826
Br58	Br	0.156468	0.532433	-0.199286
Br59	Br	0.147321	0.359257	-0.258692
Br60	Br	-0.503968	0.940544	-0.173190
Br61	Br	-0.163745	0.933257	0.091472
Br62	Br	0.383727	0.800193	0.190343
Br63	Br	0.143191	0.164206	-0.245606
H64	H	0.182162	0.539041	0.132126
Br65	Br	0.175860	0.341336	0.117570
H66	H	0.185329	0.689172	0.122055
