data_functionalizedCrystal
_audit_creation_method	'MofGen! by Chris Wilmer'
_symmetry_space_group_name_H-M	'P1'
_symmetry_Int_Tables_number	1
_symmetry_cell_setting	triclinic
loop_
_symmetry_equiv_pos_as_xyz
  x,y,z
_cell_length_a	11.026607
_cell_length_b	10.489741
_cell_length_c	10.065875
_cell_angle_alpha	98.879541
_cell_angle_beta	79.302338
_cell_angle_gamma	96.562595
loop_
_atom_site_label
_atom_site_type_symbol
_atom_site_fract_x
_atom_site_fract_y
_atom_site_fract_z
O1	O	1.632468	0.520484	-0.113500
O2	O	1.278630	0.459543	-0.113501
O3	O	1.463599	0.306188	-0.113492
O4	O	1.447499	0.673839	-0.113509
O5	O	1.428329	0.335581	0.113495
O6	O	1.243360	0.488935	0.113486
O7	O	1.597198	0.549877	0.113487
Zn8	Zn	1.414679	0.524073	0.149526
Zn9	Zn	1.461149	0.485347	-0.149540
O10	O	1.412229	0.703232	0.113478
C11	C	1.215686	0.462996	-0.000008
C12	C	1.080679	0.429482	-0.000008
C13	C	1.007682	0.522021	-0.000013
C14	C	0.868146	0.487384	-0.000013
C15	C	1.444748	0.273085	0.000000
C16	C	1.441110	0.130655	-0.000002
C17	C	1.323420	0.036624	-0.000012
C18	C	1.361626	-0.028776	0.111904
C19	C	1.396427	-0.057724	-0.111887
C20	C	1.479350	0.067142	0.112007
C21	C	1.514151	0.038187	-0.111885
C22	C	1.552438	-0.027164	0.000059
C23	C	1.660143	0.546423	-0.000009
C24	C	1.795151	0.579937	-0.000018
C25	C	1.431080	0.736334	-0.000017
C26	C	1.434720	0.878763	-0.000024
N27	N	1.382974	0.550504	0.353630
N28	N	1.492864	0.458908	-0.353644
C29	C	1.450110	0.494533	0.421412
C30	C	1.425718	0.514887	0.578578
H31	H	0.827348	0.382504	-0.000043
C32	C	1.266318	0.647777	0.564567
C33	C	1.323734	0.599919	0.657292
H34	H	1.203354	0.700263	0.613166
H35	H	1.326070	0.698093	0.508828
H36	H	1.230574	0.577427	0.508838
H37	H	1.359486	0.670269	0.713014
H38	H	1.263972	0.549602	0.713055
H39	H	1.568400	0.395910	0.588039
H40	H	1.307434	0.613486	0.411952
H41	H	0.835951	0.684814	-0.000014
H42	H	1.297126	-0.058490	0.206521
H43	H	1.048490	0.626890	-0.000010
H44	H	1.525641	0.431539	0.363091
H45	H	1.361318	-0.111898	-0.206513
C46	C	0.898034	0.280997	-0.000014
C47	C	1.025603	0.287907	-0.000009
H48	H	0.864039	0.193590	-0.000024
H49	H	0.859473	0.332588	0.079137
H50	H	0.884076	0.312108	-0.079174
H51	H	1.039561	0.256804	0.079157
H52	H	1.064176	0.236296	-0.079168
H53	H	1.226637	0.065005	0.000100
H54	H	1.578609	0.067924	-0.206507
C55	C	1.634725	0.218823	0.200442
C56	C	1.526643	0.140088	0.239885
H57	H	1.663911	0.263864	0.279390
H58	H	1.696316	0.166564	0.148142
H59	H	1.617239	0.279456	0.147062
H60	H	1.544132	0.079450	0.293257
H61	H	1.465039	0.192352	0.292207
C62	C	1.763269	-0.029497	-0.115945
C63	C	1.683185	-0.065079	0.000138
H64	H	1.843990	-0.052886	-0.115883
H65	H	1.734036	-0.072929	-0.195486
H66	H	1.766109	0.061462	-0.115175
H67	H	1.680338	-0.156040	-0.000636
H68	H	1.712427	-0.021650	0.079700
