data_functionalizedCrystal
_audit_creation_method	'MofGen! by Chris Wilmer'
_symmetry_space_group_name_H-M	'P1'
_symmetry_Int_Tables_number	1
_symmetry_cell_setting	triclinic
loop_
_symmetry_equiv_pos_as_xyz
  x,y,z
_cell_length_a	10.686154
_cell_length_b	10.685741
_cell_length_c	10.686551
_cell_angle_alpha	89.636396
_cell_angle_beta	89.693980
_cell_angle_gamma	90.321389
loop_
_atom_site_label
_atom_site_type_symbol
_atom_site_fract_x
_atom_site_fract_y
_atom_site_fract_z
Zn1	Zn	-1.997321	-0.304149	-0.583886
Zn2	Zn	-1.999668	-0.529886	-0.390036
Zn3	Zn	-1.774064	-0.336043	-0.392444
Zn4	Zn	-1.805889	-0.527349	-0.615629
O5	O	-1.894235	-0.424357	-0.495499
O6	O	-2.172164	-0.321807	-0.543879
O7	O	-1.957404	-0.518581	-0.215825
O8	O	-1.789378	-0.157278	-0.405562
O9	O	-2.173888	-0.487655	-0.401459
O10	O	-1.953405	-0.133846	-0.546214
O11	O	-1.791654	-0.376166	-0.217594
O12	O	-1.603754	-0.373707	-0.436342
O13	O	-1.843620	-0.483332	-0.785948
O14	O	-1.627136	-0.514258	-0.600315
O15	O	-1.984264	-0.319348	-0.762627
O16	O	-1.988264	-0.704083	-0.432238
O17	O	-1.845895	-0.702220	-0.597980
C18	C	-1.570191	-0.447169	-0.522035
C19	C	-1.431568	-0.456956	-0.533419
C20	C	-1.920823	-0.748401	-0.518317
C21	C	-1.932315	-0.887017	-0.528111
C22	C	-1.917230	-0.397499	-0.820807
C23	C	-1.927029	-0.386055	-0.959434
C24	C	-1.219544	-0.401445	-0.468851
C25	C	-1.358167	-0.391652	-0.457472
C26	C	-1.867580	-0.099042	-0.472616
C27	C	-1.856220	0.039587	-0.462864
C28	C	-1.871395	-0.451015	-0.171444
C29	C	-1.861808	-0.462091	-0.032773
H30	H	-1.388354	-0.520364	-0.607149
O31	O	-2.020241	0.061372	-0.603806
C32	C	-1.961027	-0.012368	-0.695389
H33	H	-1.860156	0.020694	-0.708401
H34	H	-1.961995	-0.114545	-0.664034
C35	C	-2.155187	-0.040161	-0.804227
C36	C	-2.031299	0.000453	-0.820216
H37	H	-2.198536	-0.032259	-0.881225
H38	H	-2.195083	0.009515	-0.742524
H39	H	-2.155977	-0.125306	-0.778094
H40	H	-2.030511	0.085600	-0.846334
H41	H	-1.991405	-0.049209	-0.881927
H42	H	-1.782381	0.082811	-0.399535
O43	O	-1.786418	-0.550261	-0.981017
C44	C	-1.858772	-0.631982	-0.905533
H45	H	-1.948332	-0.582920	-0.875314
H46	H	-1.883550	-0.719357	-0.961046
C47	C	-1.673360	-0.729756	-0.826026
C48	C	-1.783353	-0.669493	-0.788902
H49	H	-1.626837	-0.752900	-0.754085
H50	H	-1.624612	-0.674703	-0.876885
H51	H	-1.694024	-0.802561	-0.872288
H52	H	-1.762688	-0.596682	-0.742655
H53	H	-1.832096	-0.724535	-0.738033
O54	O	-1.409852	-0.316183	-0.369450
C55	C	-1.485294	-0.388474	-0.287640
H56	H	-1.515563	-0.478087	-0.336558
H57	H	-1.429722	-0.413165	-0.200214
C58	C	-1.564704	-0.202970	-0.190207
C59	C	-1.601891	-0.313029	-0.250294
H60	H	-1.636624	-0.156432	-0.167165
H61	H	-1.513875	-0.154266	-0.245321
H62	H	-1.518393	-0.223562	-0.117360
H63	H	-1.648187	-0.292436	-0.323147
H64	H	-1.652731	-0.361729	-0.195191
H65	H	-1.990374	-0.312201	-1.002704
