data_functionalizedCrystal
_audit_creation_method	'MofGen! by Chris Wilmer'
_symmetry_space_group_name_H-M	'P1'
_symmetry_Int_Tables_number	1
_symmetry_cell_setting	triclinic
loop_
_symmetry_equiv_pos_as_xyz
  x,y,z
_cell_length_a	33.428889
_cell_length_b	33.428139
_cell_length_c	33.424847
_cell_angle_alpha	60.004234
_cell_angle_beta	60.008465
_cell_angle_gamma	59.994972
loop_
_atom_site_label
_atom_site_type_symbol
_atom_site_fract_x
_atom_site_fract_y
_atom_site_fract_z
O1	O	0.055565	-0.584504	0.488714
O2	O	0.555565	-0.084504	0.988714
O3	O	0.020982	-0.455083	0.393778
O4	O	0.520982	0.044917	0.893778
O5	O	0.102943	-0.536959	0.393689
O6	O	0.602943	-0.036959	0.893689
O7	O	-0.026396	-0.502628	0.488803
O8	O	0.473604	-0.002628	0.988803
O9	O	0.130140	-0.509767	0.420792
O10	O	0.630140	-0.009767	0.920792
O11	O	0.048179	-0.427891	0.420881
O12	O	0.548179	0.072109	0.920881
O13	O	0.082762	-0.557312	0.515817
O14	O	0.582762	-0.057312	1.015817
Cu15	Cu	0.067954	-0.490119	0.470823
Cu16	Cu	0.567954	0.009881	0.970823
Cu17	Cu	0.035790	-0.522276	0.438771
Cu18	Cu	0.535790	-0.022276	0.938771
O19	O	0.000801	-0.475436	0.515906
O20	O	0.500801	0.024564	1.015906
N21	N	0.090577	-0.467504	0.493370
N22	N	0.590577	0.032496	0.993370
N23	N	0.013171	-0.544895	0.416225
N24	N	0.513171	-0.044895	0.916225
C25	C	0.143377	-0.280390	0.546067
C26	C	0.643377	0.219610	1.046067
C27	C	0.143515	-0.414755	0.680369
C28	C	0.643515	0.085245	1.180369
C29	C	0.143392	-0.414735	0.546069
C30	C	0.643392	0.085265	1.046069
C31	C	0.277766	-0.414702	0.545966
C32	C	0.777766	0.085298	1.045966
C33	C	0.158177	-0.324719	0.560828
C34	C	0.658177	0.175281	1.060828
C35	C	0.158255	-0.399967	0.636038
C36	C	0.658255	0.100033	1.136038
C37	C	0.233434	-0.399936	0.560773
C38	C	0.733434	0.100064	1.060773
C39	C	0.158186	-0.399955	0.560829
C40	C	0.658186	0.100045	1.060829
C41	C	0.124540	-0.223964	0.527278
C42	C	0.624540	0.276036	1.027278
C43	C	0.124565	-0.433545	0.527281
C44	C	0.624565	0.066455	1.027281
C45	C	0.177014	-0.381145	0.579617
C46	C	0.677014	0.118855	1.079617
C47	C	0.359814	-0.400540	0.502735
C48	C	0.859814	0.099460	1.002735
C49	C	0.411105	-0.417624	0.485606
C50	C	0.911105	0.082376	0.985606
C51	C	0.411136	-0.500620	0.517255
C52	C	0.911136	-0.000620	1.017255
C53	C	0.359845	-0.483534	0.534385
C54	C	0.859845	0.016466	1.034385
C55	C	0.136887	-0.198305	0.476855
C56	C	0.636887	0.301695	0.976855
C57	C	0.119761	-0.147011	0.459777
C58	C	0.619761	0.352989	0.959777
C59	C	0.077945	-0.147038	0.543547
C60	C	0.577945	0.352962	1.043547
C61	C	0.095072	-0.198332	0.560625
C62	C	0.595072	0.301668	1.060625
C63	C	0.074134	-0.421169	0.539710
C64	C	0.574134	0.078831	1.039710
C65	C	0.057023	-0.438269	0.522625
C66	C	0.557023	0.061731	1.022625
C67	C	0.140770	-0.480120	0.480694
C68	C	0.640770	0.019880	0.980694
C69	C	0.157883	-0.463020	0.497773
C70	C	0.657883	0.036980	0.997773
C71	C	0.074339	-0.421208	0.762475
C72	C	0.574339	0.078792	1.262475
C73	C	0.057288	-0.438323	0.813768
C74	C	0.557288	0.061677	1.313768
C75	C	0.141075	-0.480183	0.813699
C76	C	0.641075	0.019817	1.313699
C77	C	0.158125	-0.463069	0.762404
C78	C	0.658125	0.036931	1.262404
C79	C	0.124756	-0.433580	0.736794
C80	C	0.624756	0.066420	1.236794
C81	C	0.334186	-0.433494	0.527123
C82	C	0.834186	0.066506	1.027123
C83	C	-0.173769	-0.597444	0.363037
C84	C	0.326231	-0.097444	0.863037
C85	C	-0.039302	-0.597595	0.228856
C86	C	0.460698	-0.097595	0.728856
C87	C	-0.039496	-0.597587	0.363300
C88	C	0.460504	-0.097587	0.863300
C89	C	-0.039512	-0.731889	0.363237
C90	C	0.460488	-0.231889	0.863237
C91	C	-0.129442	-0.612265	0.348329
C92	C	0.370558	-0.112265	0.848329
C93	C	-0.054138	-0.612351	0.273187
C94	C	0.445862	-0.112351	0.773187
C95	C	-0.054257	-0.687554	0.348440
C96	C	0.445743	-0.187554	0.848440
C97	C	-0.054247	-0.612346	0.348477
C98	C	0.445753	-0.112346	0.848477
C99	C	-0.230191	-0.578579	0.381758
C100	C	0.269809	-0.078579	0.881758
C101	C	-0.020722	-0.578803	0.382168
C102	C	0.479278	-0.078803	0.882168
C103	C	-0.073020	-0.631130	0.329609
C104	C	0.426980	-0.131130	0.829609
C105	C	-0.053713	-0.813916	0.406386
C106	C	0.446287	-0.313916	0.906386
C107	C	-0.036654	-0.865210	0.423504
C108	C	0.463346	-0.365210	0.923504
C109	C	0.046338	-0.865293	0.391984
C110	C	0.546338	-0.365293	0.891984
C111	C	0.029278	-0.813999	0.374865
C112	C	0.529278	-0.313999	0.874865
C113	C	-0.255900	-0.590938	0.432169
C114	C	0.244100	-0.090938	0.932169
C115	C	-0.307191	-0.573786	0.449185
C116	C	0.192809	-0.073786	0.949185
C117	C	-0.307060	-0.531922	0.365377
C118	C	0.192940	-0.031922	0.865377
C119	C	-0.255769	-0.549074	0.348360
C120	C	0.244231	-0.049074	0.848360
C121	C	-0.033081	-0.528377	0.369764
C122	C	0.466919	-0.028377	0.869764
C123	C	-0.016014	-0.511306	0.386922
C124	C	0.483986	-0.011306	0.886922
C125	C	0.025770	-0.595083	0.428877
C126	C	0.525770	-0.095083	0.928877
C127	C	0.008703	-0.612156	0.411725
C128	C	0.508703	-0.112156	0.911725
C129	C	-0.032755	-0.528393	0.146761
C130	C	0.467245	-0.028393	0.646761
C131	C	-0.015585	-0.511324	0.095468
C132	C	0.484415	-0.011324	0.595468
C133	C	0.026262	-0.595106	0.095516
C134	C	0.526262	-0.095106	0.595516
C135	C	0.009094	-0.612174	0.146811
C136	C	0.509094	-0.112174	0.646811
C137	C	-0.020417	-0.578816	0.172432
C138	C	0.479583	-0.078816	0.672432
C139	C	-0.020748	-0.788312	0.382068
C140	C	0.479252	-0.288312	0.882068
N141	N	0.436037	-0.467415	0.493101
N142	N	0.936037	0.032585	0.993101
O143	O	0.592642	-0.471896	0.376066
O144	O	1.092642	0.028104	0.876066
O145	O	0.592838	-0.567146	0.505347
O146	O	1.092838	-0.067146	1.005347
O147	O	0.592754	-0.566928	0.423360
O148	O	1.092754	-0.066928	0.923360
O149	O	0.592727	-0.472113	0.458053
O150	O	1.092727	0.027887	0.958053
O151	O	0.511269	-0.539835	0.450606
O152	O	1.011269	-0.039835	0.950606
O153	O	0.511353	-0.540052	0.532594
O154	O	1.011353	-0.040052	1.032594
O155	O	0.511157	-0.444802	0.403312
O156	O	1.011157	0.055198	0.903312
Cu157	Cu	0.503815	-0.489954	0.470441
Cu158	Cu	1.003815	0.010046	0.970441
Cu159	Cu	0.600180	-0.521995	0.438219
Cu160	Cu	1.100180	-0.021995	0.938219
O161	O	0.511242	-0.445020	0.485300
O162	O	1.011242	0.054980	0.985300
N163	N	0.667959	-0.544533	0.415554
N164	N	1.167959	-0.044533	0.915554
N165	N	0.090544	-0.122107	0.493359
N166	N	0.590544	0.377893	0.993359
O167	O	-0.026406	0.034587	0.488773
O168	O	0.473594	0.534587	0.988773
O169	O	0.102877	0.034627	0.393499
O170	O	0.602877	0.534627	0.893499
O171	O	0.020848	0.034591	0.393771
O172	O	0.520848	0.534591	0.893771
O173	O	0.055623	0.034623	0.488500
O174	O	0.555623	0.534623	0.988500
O175	O	0.048051	-0.046899	0.420925
O176	O	0.548051	0.453101	0.920925
O177	O	0.130080	-0.046864	0.420653
O178	O	0.630080	0.453136	0.920653
O179	O	0.000796	-0.046903	0.515927
O180	O	0.500796	0.453097	1.015927
Cu181	Cu	0.067922	-0.054324	0.470769
Cu182	Cu	0.567922	0.445676	0.970769
Cu183	Cu	0.035752	0.042048	0.438656
Cu184	Cu	0.535752	0.542048	0.938656
O185	O	0.082825	-0.046867	0.515655
O186	O	0.582825	0.453133	1.015655
N187	N	0.013123	0.109830	0.416068
N188	N	0.513123	0.609830	0.916068
N189	N	0.090892	-0.467554	0.838649
N190	N	0.590892	0.032446	1.338649
O191	O	0.086330	-0.584488	0.995334
O192	O	0.586330	-0.084488	1.495334
O193	O	-0.008902	-0.455160	0.995379
O194	O	0.491098	0.044840	1.495379
O195	O	-0.008679	-0.537172	0.995355
O196	O	0.491321	-0.037172	1.495355
O197	O	0.086107	-0.502475	0.995358
O198	O	0.586107	-0.002475	1.495358
O199	O	0.018452	-0.509990	0.913868
O200	O	0.518452	-0.009990	1.413868
O201	O	0.018230	-0.427978	0.913891
O202	O	0.518230	0.072022	1.413891
O203	O	0.113461	-0.557306	0.913847
O204	O	0.613461	-0.057306	1.413847
Cu205	Cu	0.068323	-0.490160	0.906429
Cu206	Cu	0.568323	0.009840	1.406429
Cu207	Cu	0.036237	-0.522306	1.002797
Cu208	Cu	0.536237	-0.022306	1.502797
O209	O	0.113239	-0.475293	0.913870
O210	O	0.613239	0.024707	1.413870
N211	N	0.013667	-0.544916	1.070577
N212	N	0.513667	-0.044916	1.570577
C213	C	0.031339	-0.425179	0.394250
C214	C	0.531339	0.074821	0.894250
C215	C	0.132837	-0.526572	0.394139
C216	C	0.632837	-0.026572	0.894139
C217	C	0.072405	-0.587216	0.515344
C218	C	0.572405	-0.087216	1.015344
C219	C	-0.029093	-0.485823	0.515455
C220	C	0.470907	0.014177	1.015455
C221	C	0.552119	-0.566716	0.535258
C222	C	1.052119	-0.066716	1.035258
C223	C	0.552016	-0.566447	0.433726
C224	C	1.052016	-0.066447	0.933726
C225	C	0.551873	-0.445232	0.373402
C226	C	1.051873	0.054768	0.873402
C227	C	0.551980	-0.445502	0.474933
C228	C	1.051980	0.054498	0.974933
C229	C	0.132731	-0.006013	0.393923
C230	C	0.632731	0.493987	0.893923
C231	C	0.031182	-0.006158	0.394293
C232	C	0.531182	0.493842	0.894293
C233	C	-0.029092	-0.006163	0.515469
C234	C	0.470908	0.493837	1.015469
C235	C	0.072491	-0.006119	0.515133
C236	C	0.572491	0.493881	1.015133
C237	C	-0.008451	-0.425276	0.954641
C238	C	0.491549	0.074724	1.454641
C239	C	-0.008170	-0.526833	0.954596
C240	C	0.491830	-0.026833	1.454596
C241	C	0.113010	-0.587190	0.954585
C242	C	0.613010	-0.087190	1.454585
C243	C	0.112735	-0.485627	0.954611
C244	C	0.612735	0.014373	1.454611
H245	H	0.047163	-0.397193	0.741627
H246	H	0.547163	0.102807	1.241627
O247	O	-0.044074	-0.380946	0.954678
O248	O	0.455926	0.119054	1.454678
C249	C	-0.026434	-0.350450	0.954672
C250	C	0.473566	0.149550	1.454672
H251	H	0.005027	-0.374009	0.970090
H252	H	0.505027	0.125991	1.470090
H253	H	-0.012844	-0.325700	0.915581
H254	H	0.487156	0.174300	1.415581
C255	C	-0.106662	-0.289810	0.967705
C256	C	0.393338	0.210190	1.467705
C257	C	-0.068024	-0.318745	0.986646
C258	C	0.431976	0.181255	1.486646
H259	H	-0.132316	-0.270251	0.987426
H260	H	0.367684	0.229749	1.487426
H261	H	-0.118547	-0.310355	0.967707
H262	H	0.381453	0.189645	1.467707
H263	H	-0.095331	-0.269189	0.935129
H264	H	0.404669	0.230811	1.435129
H265	H	-0.079354	-0.339369	1.019218
H266	H	0.420646	0.160631	1.519218
H267	H	-0.056142	-0.298203	0.986650
H268	H	0.443858	0.201797	1.486650
O269	O	-0.073387	-0.477049	0.551103
O270	O	0.426613	0.022951	1.051103
C271	C	-0.082154	-0.437387	0.562406
C272	C	0.417846	0.062613	1.062406
H273	H	-0.045773	-0.433444	0.551556
H274	H	0.454227	0.066556	1.051556
H275	H	-0.105808	-0.402266	0.541378
H276	H	0.394192	0.097734	1.041378
C277	C	-0.153605	-0.451678	0.631139
C278	C	0.346395	0.048322	1.131139
C279	C	-0.108921	-0.446837	0.617817
C280	C	0.391079	0.053163	1.117817
H281	H	-0.170118	-0.457505	0.665319
H282	H	0.329882	0.042495	1.165319
H283	H	-0.147700	-0.478397	0.623524
H284	H	0.352300	0.021603	1.123524
H285	H	-0.173310	-0.422408	0.613612
H286	H	0.326690	0.077592	1.113612
H287	H	-0.089214	-0.476108	0.635340
H288	H	0.410786	0.023892	1.135340
H289	H	-0.114823	-0.420122	0.625438
H290	H	0.385177	0.079878	1.125438
H291	H	-0.037935	-0.534246	0.954563
H292	H	0.462065	-0.034246	1.454563
H293	H	0.552170	-0.596617	0.572390
H294	H	1.052170	-0.096617	1.072390
H295	H	0.552029	-0.596233	0.426301
H296	H	1.052029	-0.096233	0.926301
H297	H	0.079796	-0.624394	0.545162
H298	H	0.579796	-0.124394	1.045162
O299	O	0.081424	-0.006204	0.550658
O300	O	0.581424	0.493796	1.050658
C301	C	0.121127	-0.048395	0.561879
C302	C	0.621127	0.451605	1.061879
H303	H	0.124980	-0.077893	0.551119
H304	H	0.624980	0.422107	1.051119
H305	H	0.156248	-0.038840	0.540724
H306	H	0.656248	0.461160	1.040724
C307	C	0.107115	-0.031309	0.630466
C308	C	0.607115	0.468691	1.130466
C309	C	0.111845	-0.067542	0.617254
C310	C	0.611845	0.432458	1.117254
H311	H	0.101392	-0.043120	0.664623
H312	H	0.601392	0.456880	1.164623
H313	H	0.080368	-0.002884	0.622905
H314	H	0.580368	0.497116	1.122905
H315	H	0.136385	-0.023351	0.612832
H316	H	0.636385	0.476649	1.112832
H317	H	0.082574	-0.075495	0.634883
H318	H	0.582574	0.424505	1.134883
H319	H	0.138588	-0.095969	0.624819
H320	H	0.638588	0.404031	1.124819
H321	H	0.169984	-0.533889	0.364272
H322	H	0.669984	-0.033889	0.864272
O323	O	0.148620	-0.631533	0.954588
O324	O	0.648620	-0.131533	1.454588
C325	C	0.130990	-0.662020	0.954566
C326	C	0.630990	-0.162020	1.454566
H327	H	0.089256	-0.648755	0.970004
H328	H	0.589256	-0.148755	1.470004
H329	H	0.143430	-0.660685	0.915468
H330	H	0.643430	-0.160685	1.415468
C331	C	0.202558	-0.731337	0.967544
C332	C	0.702558	-0.231337	1.467544
C333	C	0.151300	-0.715047	0.986508
C334	C	0.651300	-0.215047	1.486508
H335	H	0.215088	-0.764047	0.987245
H336	H	0.715088	-0.264047	1.487245
H337	H	0.214437	-0.710797	0.967557
H338	H	0.714437	-0.210797	1.467557
H339	H	0.212919	-0.730221	0.934962
H340	H	0.712919	-0.230221	1.434962
H341	H	0.140940	-0.716158	1.019086
H342	H	0.640940	-0.216158	1.519086
H343	H	0.139420	-0.735588	0.986501
H344	H	0.639420	-0.235588	1.486501
O345	O	0.148217	-0.476683	0.954583
O346	O	0.648217	0.023317	1.454583
C347	C	0.130364	-0.428523	0.954609
C348	C	0.630364	0.071477	1.454609
H349	H	0.098901	-0.405341	0.939195
H350	H	0.598901	0.094659	1.439195
H351	H	0.116713	-0.429249	0.993706
H352	H	0.616713	0.070751	1.493706
C353	C	0.210446	-0.434722	0.941580
C354	C	0.710446	0.065278	1.441580
C355	C	0.171806	-0.406248	0.922644
C356	C	0.671806	0.093752	1.422644
H357	H	0.236010	-0.420982	0.921865
H358	H	0.736010	0.079018	1.421865
H359	H	0.222474	-0.467169	0.941565
H360	H	0.722474	0.032831	1.441565
H361	H	0.199064	-0.435325	0.974160
H362	H	0.699064	0.064675	1.474160
H363	H	0.183187	-0.405651	0.890067
H364	H	0.683187	0.094349	1.390067
H365	H	0.159781	-0.373800	0.922654
H366	H	0.659781	0.126200	1.422654
H367	H	0.551974	-0.415718	0.482355
H368	H	1.051974	0.084282	0.982355
O369	O	0.551735	-0.409569	0.329113
O370	O	1.051735	0.090431	0.829113
C371	C	0.509504	-0.398215	0.320374
C372	C	1.009504	0.101785	0.820374
H373	H	0.495479	-0.430625	0.343238
H374	H	0.995479	0.069375	0.843238
H375	H	0.479937	-0.364638	0.330956
H376	H	0.979937	0.135362	0.830956
C377	C	0.539481	-0.347582	0.237567
C378	C	1.039481	0.152418	0.737567
C379	C	0.522259	-0.387390	0.265646
C380	C	1.022259	0.112610	0.765646
H381	H	0.547348	-0.340902	0.203808
H382	H	1.047348	0.159098	0.703808
H383	H	0.567933	-0.355229	0.243455
H384	H	1.067933	0.144771	0.743455
H385	H	0.514839	-0.319606	0.246391
H386	H	1.014839	0.180394	0.746391
H387	H	0.546902	-0.415367	0.256827
H388	H	1.046902	0.084633	0.756827
H389	H	0.493811	-0.379747	0.259756
H390	H	0.993811	0.120253	0.759756
O391	O	0.008295	-0.426231	0.838635
O392	O	0.508295	0.073769	1.338635
C393	C	-0.017496	-0.396542	0.805027
C394	C	0.482504	0.103458	1.305027
H395	H	0.006942	-0.377885	0.768455
H396	H	0.506942	0.122115	1.268455
H397	H	-0.028564	-0.420205	0.799581
H398	H	0.471436	0.079795	1.299581
C399	C	-0.093745	-0.380265	0.869994
C400	C	0.406255	0.119735	1.369994
C401	C	-0.063731	-0.357347	0.825077
C402	C	0.436269	0.142653	1.325077
H403	H	-0.122266	-0.356089	0.882362
H404	H	0.377734	0.143911	1.382362
H405	H	-0.076369	-0.400269	0.892637
H406	H	0.423631	0.099731	1.392637
H407	H	-0.102963	-0.399983	0.865450
H408	H	0.397037	0.100017	1.365450
H409	H	-0.054508	-0.337634	0.829623
H410	H	0.445492	0.162366	1.329623
H411	H	-0.081106	-0.337339	0.802435
H412	H	0.418894	0.162661	1.302435
H413	H	-0.057039	-0.501216	0.345698
H414	H	0.442961	-0.001216	0.845698
H415	H	0.168250	-0.504186	0.834549
H416	H	0.668250	-0.004186	1.334549
H417	H	0.199181	-0.473148	0.741498
H418	H	0.699181	0.026852	1.241498
O419	O	-0.073386	-0.006107	0.551170
O420	O	0.426614	0.493893	1.051170
C421	C	-0.095069	0.036107	0.564308
C422	C	0.404931	0.536107	1.064308
H423	H	-0.065355	0.050190	0.554352
H424	H	0.434645	0.550190	1.054352
H425	H	-0.121828	0.065651	0.543760
H426	H	0.378172	0.565651	1.043760
C427	C	-0.159241	0.005990	0.632096
C428	C	0.340759	0.505990	1.132096
C429	C	-0.122746	0.023284	0.619871
C430	C	0.377254	0.523284	1.119871
H431	H	-0.176315	-0.001919	0.666369
H432	H	0.323685	0.498081	1.166369
H433	H	-0.144634	-0.022450	0.623244
H434	H	0.355366	0.477550	1.123244
H435	H	-0.181535	0.030612	0.614968
H436	H	0.318465	0.530612	1.114968
H437	H	-0.100449	-0.001341	0.636994
H438	H	0.399551	0.498659	1.136994
H439	H	-0.137350	0.051720	0.628727
H440	H	0.362650	0.551720	1.128727
H441	H	0.047002	-0.397168	0.563734
H442	H	0.547002	0.102832	1.063734
H443	H	0.167905	-0.504126	0.456671
H444	H	0.667905	-0.004126	0.956671
O445	O	0.206888	-0.475097	0.485667
O446	O	0.706888	0.024903	0.985667
C447	C	0.232625	-0.504765	0.455945
C448	C	0.732625	-0.004765	0.955945
H449	H	0.208168	-0.523428	0.462513
H450	H	0.708168	-0.023428	0.962513
H451	H	0.243636	-0.481084	0.415771
H452	H	0.743636	0.018916	0.915771
C453	C	0.308939	-0.521029	0.460808
C454	C	0.808939	-0.021029	0.960808
C455	C	0.278902	-0.543954	0.468878
C456	C	0.778902	-0.043954	0.968878
H457	H	0.337486	-0.545201	0.468784
H458	H	0.837486	-0.045201	0.968784
H459	H	0.291600	-0.501039	0.480830
H460	H	0.791600	-0.001039	0.980830
H461	H	0.318110	-0.501295	0.427330
H462	H	0.818110	-0.001295	0.927330
H463	H	0.269727	-0.563682	0.502357
H464	H	0.769727	-0.063682	1.002357
H465	H	0.296241	-0.563948	0.448862
H466	H	0.796241	-0.063948	0.948862
H467	H	0.015959	-0.428182	0.532734
H468	H	0.515959	0.071818	1.032734
O469	O	-0.061353	-0.495967	0.171624
O470	O	0.438647	0.004033	0.671624
C471	C	-0.035452	-0.466336	0.159133
C472	C	0.464548	0.033664	0.659133
H473	H	0.005584	-0.486179	0.145098
H474	H	0.505584	0.013821	0.645098
H475	H	-0.046319	-0.430303	0.129326
H476	H	0.453681	0.069697	0.629326
C477	C	-0.098315	-0.431468	0.221950
C478	C	0.401685	0.068532	0.721950
C479	C	-0.047913	-0.455841	0.204715
C480	C	0.452087	0.044159	0.704715
H481	H	-0.106003	-0.424992	0.250066
H482	H	0.393997	0.075008	0.750066
H483	H	-0.115766	-0.451429	0.230364
H484	H	0.384234	0.048571	0.730364
H485	H	-0.107364	-0.401443	0.197107
H486	H	0.392636	0.098557	0.697107
H487	H	-0.038866	-0.485868	0.229556
H488	H	0.461134	0.014132	0.729556
H489	H	-0.030461	-0.435884	0.196306
H490	H	0.469539	0.064116	0.696306
O491	O	0.335028	-0.515611	0.558048
O492	O	0.835028	-0.015611	1.058048
C493	C	0.368679	-0.563442	0.560790
C494	C	0.868679	-0.063442	1.060790
H495	H	0.405224	-0.561478	0.530477
H496	H	0.905224	-0.061478	1.030477
H497	H	0.374170	-0.583023	0.597950
H498	H	0.874170	-0.083023	1.097950
C499	C	0.303770	-0.594302	0.591770
C500	C	0.803770	-0.094302	1.091770
C501	C	0.348653	-0.591890	0.554536
C502	C	0.848653	-0.091890	1.054536
H503	H	0.291417	-0.611852	0.587914
H504	H	0.791417	-0.111852	1.087914
H505	H	0.281098	-0.562079	0.589924
H506	H	0.781098	-0.062079	1.089924
H507	H	0.308352	-0.610619	0.622732
H508	H	0.808352	-0.110619	1.122732
H509	H	0.344070	-0.575568	0.523574
H510	H	0.844070	-0.075568	1.023574
H511	H	0.371324	-0.624112	0.556376
H512	H	0.871324	-0.124112	1.056376
O513	O	0.436137	-0.549210	0.524247
O514	O	0.936137	-0.049210	1.024247
C515	C	0.486904	-0.557224	0.503909
C516	C	0.986904	-0.057224	1.003909
H517	H	0.493882	-0.521918	0.474507
H518	H	0.993882	-0.021918	0.974507
H519	H	0.501490	-0.569044	0.533914
H520	H	1.001490	-0.069044	1.033914
C521	C	0.504657	-0.641067	0.516988
C522	C	1.004657	-0.141067	1.016988
C523	C	0.513228	-0.597704	0.480874
C524	C	1.013228	-0.097704	0.980874
H525	H	0.520896	-0.666038	0.502781
H526	H	1.020896	-0.166038	1.002781
H527	H	0.470455	-0.635668	0.530692
H528	H	0.970455	-0.135668	1.030692
H529	H	0.516812	-0.650910	0.541990
H530	H	1.016812	-0.150910	1.041990
H531	H	0.501067	-0.587858	0.455877
H532	H	1.001067	-0.087858	0.955877
H533	H	0.547429	-0.603102	0.467165
H534	H	1.047429	-0.103102	0.967165
H535	H	0.169783	-0.005775	0.363939
H536	H	0.669783	0.494225	0.863939
O537	O	0.022232	-0.006203	0.358852
O538	O	0.522232	0.493797	0.858852
C539	C	-0.025930	-0.006215	0.376721
C540	C	0.474070	0.493785	0.876721
H541	H	-0.038798	-0.021631	0.418456
H542	H	0.461202	0.478369	0.918456
H543	H	-0.051297	0.032871	0.364329
H544	H	0.448703	0.532871	0.864329
C545	C	-0.011087	-0.019270	0.305346
C546	C	0.488913	0.480730	0.805346
C547	C	-0.026890	-0.038208	0.356605
C548	C	0.473110	0.461792	0.856605
H549	H	-0.011680	-0.039003	0.292936
H550	H	0.488320	0.460997	0.792936
H551	H	0.021361	-0.019260	0.293306
H552	H	0.521361	0.480740	0.793306
H553	H	-0.032228	0.013301	0.295026
H554	H	0.467772	0.513301	0.795026
H555	H	-0.005745	-0.070776	0.366925
H556	H	0.494255	0.429224	0.866925
H557	H	-0.059334	-0.038224	0.368647
H558	H	0.440666	0.461776	0.868647
H559	H	0.085016	-0.219221	0.601683
H560	H	0.585016	0.280779	1.101683
H561	H	0.338923	-0.359792	0.496821
H562	H	0.838923	0.140208	0.996821
O563	O	0.435928	-0.385544	0.461903
O564	O	0.935928	0.114456	0.961903
C565	C	0.402283	-0.337714	0.459176
C566	C	0.902283	0.162286	0.959176
H567	H	0.365711	-0.335723	0.462566
H568	H	0.865711	0.164277	0.962566
H569	H	0.396857	-0.328139	0.490245
H570	H	0.896857	0.171861	0.990245
C571	C	0.467180	-0.303534	0.405486
C572	C	0.967180	0.196466	0.905486
C573	C	0.422264	-0.301088	0.409645
C574	C	0.922264	0.198912	0.909645
H575	H	0.479506	-0.280941	0.374934
H576	H	0.979506	0.219059	0.874934
H577	H	0.489848	-0.335758	0.407324
H578	H	0.989848	0.164242	0.907324
H579	H	0.462653	-0.295557	0.431379
H580	H	0.962653	0.204443	0.931379
H581	H	0.426793	-0.309071	0.383756
H582	H	0.926793	0.190929	0.883756
H583	H	0.399597	-0.268864	0.407801
H584	H	0.899597	0.231136	0.907801
H585	H	0.160882	-0.219171	0.449698
H586	H	0.660882	0.280829	0.949698
H587	H	0.053957	-0.126168	0.570702
H588	H	0.553957	0.373832	1.070702
O589	O	0.131814	-0.122157	0.410778
O590	O	0.631814	0.377843	0.910778
C591	C	0.161486	-0.155781	0.385008
C592	C	0.661486	0.344219	0.885008
H593	H	0.180167	-0.192344	0.409450
H594	H	0.680167	0.307656	0.909450
H595	H	0.137808	-0.161244	0.373974
H596	H	0.637808	0.338756	0.873974
C597	C	0.177705	-0.090829	0.308727
C598	C	0.677705	0.409171	0.808727
C599	C	0.200652	-0.135736	0.338746
C600	C	0.700652	0.364264	0.838746
H601	H	0.201863	-0.078464	0.280189
H602	H	0.701863	0.421536	0.780189
H603	H	0.157712	-0.068175	0.326088
H604	H	0.657712	0.431825	0.826088
H605	H	0.157974	-0.095388	0.299537
H606	H	0.657974	0.404612	0.799537
H607	H	0.220377	-0.131175	0.347940
H608	H	0.720377	0.368825	0.847940
H609	H	0.220649	-0.158388	0.321385
H610	H	0.720649	0.341612	0.821385
H611	H	-0.025639	-0.470264	0.074572
H612	H	0.474361	0.029736	0.574572
H613	H	0.050281	-0.622271	0.074658
H614	H	0.550281	-0.122271	0.574658
H615	H	0.019144	-0.653235	0.167709
H616	H	0.519144	-0.153235	0.667709
H617	H	0.049734	-0.622248	0.452940
H618	H	0.549734	-0.122248	0.952940
O619	O	-0.028033	-0.462306	0.374800
O620	O	0.471967	0.037694	0.874800
C621	C	-0.057664	-0.436527	0.345033
C622	C	0.442336	0.063473	0.845033
H623	H	-0.051105	-0.460997	0.326384
H624	H	0.448895	0.039003	0.826384
H625	H	-0.097857	-0.425407	0.368630
H626	H	0.402143	0.074593	0.868630
C627	C	-0.052653	-0.360279	0.328741
C628	C	0.447347	0.139721	0.828741
C629	C	-0.044594	-0.390332	0.305832
C630	C	0.455406	0.109668	0.805832
H631	H	-0.044593	-0.331782	0.304561
H632	H	0.455407	0.168218	0.804561
H633	H	-0.032692	-0.377646	0.348797
H634	H	0.467308	0.122354	0.848797
H635	H	-0.086148	-0.351017	0.348404
H636	H	0.413852	0.148983	0.848404
H637	H	-0.011099	-0.399598	0.286175
H638	H	0.488901	0.100402	0.786175
H639	H	-0.064550	-0.372965	0.285772
H640	H	0.435450	0.127035	0.785772
H641	H	0.018765	-0.653217	0.421828
H642	H	0.518765	-0.153217	0.921828
H643	H	0.056124	-0.793157	0.355062
H644	H	0.556124	-0.293157	0.855062
H645	H	0.087072	-0.886205	0.386121
H646	H	0.587072	-0.386205	0.886121
H647	H	-0.094449	-0.793002	0.412253
H648	H	0.405551	-0.293002	0.912253
O649	O	-0.068713	-0.890032	0.447063
O650	O	0.431287	-0.390032	0.947063
C651	C	-0.092672	-0.877493	0.415610
C652	C	0.407328	-0.377493	0.915610
H653	H	-0.091449	-0.840263	0.386411
H654	H	0.408551	-0.340263	0.886411
H655	H	-0.073502	-0.906373	0.397250
H656	H	0.426498	-0.406373	0.897250
C657	C	-0.147894	-0.920801	0.481357
C658	C	0.352106	-0.420801	0.981357
C659	C	-0.146396	-0.875073	0.445497
C660	C	0.353604	-0.375073	0.945497
H661	H	-0.181033	-0.919311	0.499792
H662	H	0.318967	-0.419311	0.999792
H663	H	-0.131752	-0.929251	0.502548
H664	H	0.368248	-0.429251	1.002548
H665	H	-0.131917	-0.944863	0.466052
H666	H	0.368083	-0.444863	0.966052
H667	H	-0.162368	-0.851013	0.460802
H668	H	0.337632	-0.351013	0.960802
H669	H	-0.162542	-0.866619	0.424309
H670	H	0.337458	-0.366619	0.924309
O671	O	-0.231130	-0.619575	0.464677
O672	O	0.268870	-0.119575	0.964677
C673	C	-0.264822	-0.626810	0.512822
C674	C	0.235178	-0.126810	1.012822
H675	H	-0.301362	-0.595856	0.512673
H676	H	0.198638	-0.095856	1.012673
H677	H	-0.270304	-0.663332	0.527505
H678	H	0.229696	-0.163332	1.027505
C679	C	-0.199980	-0.665211	0.545964
C680	C	0.300020	-0.165211	1.045964
C681	C	-0.244858	-0.627190	0.545781
C682	C	0.255142	-0.127190	1.045781
H683	H	-0.187666	-0.665447	0.566295
H684	H	0.312334	-0.165447	1.066295
H685	H	-0.177281	-0.660338	0.513528
H686	H	0.322719	-0.160338	1.013528
H687	H	-0.204555	-0.695641	0.558198
H688	H	0.295445	-0.195641	1.058198
H689	H	-0.240282	-0.596760	0.533541
H690	H	0.259718	-0.096760	1.033541
H691	H	-0.267557	-0.632057	0.578215
H692	H	0.232443	-0.132057	1.078215
H693	H	-0.327887	-0.507903	0.338181
H694	H	0.172113	-0.007903	0.838181
O695	O	-0.332188	-0.585709	0.498152
O696	O	0.167812	-0.085709	0.998152
C697	C	-0.361863	-0.542595	0.510521
C698	C	0.138137	-0.042595	1.010521
H699	H	-0.346366	-0.511807	0.481626
H700	H	0.153634	-0.011807	0.981626
H701	H	-0.400720	-0.531763	0.512160
H702	H	0.099280	-0.031763	1.012160
C703	C	-0.381755	-0.589538	0.596344
C704	C	0.118245	-0.089538	1.096344
C705	C	-0.362719	-0.551725	0.560856
C706	C	0.137281	-0.051725	1.060856
H707	H	-0.382285	-0.595170	0.627393
H708	H	0.117715	-0.095170	1.127393
H709	H	-0.361764	-0.618585	0.588010
H710	H	0.138236	-0.118585	1.088010
H711	H	-0.414134	-0.580506	0.597703
H712	H	0.085866	-0.080506	1.097703
H713	H	-0.330338	-0.560760	0.559493
H714	H	0.169662	-0.060760	1.059493
H715	H	-0.382704	-0.522680	0.569190
H716	H	0.117296	-0.022680	1.069190
O717	O	-0.230873	-0.537040	0.299375
O718	O	0.269127	-0.037040	0.799375
C719	C	-0.264450	-0.507308	0.273550
C720	C	0.235550	-0.007308	0.773550
H721	H	-0.301033	-0.513813	0.297958
H722	H	0.198967	-0.013813	0.797958
H723	H	-0.269880	-0.467139	0.262494
H724	H	0.230120	0.032861	0.762494
C725	C	-0.199444	-0.512314	0.197323
C726	C	0.300556	-0.012314	0.697323
C727	C	-0.244375	-0.520307	0.227301
C728	C	0.255625	-0.020307	0.727301
H729	H	-0.187060	-0.520331	0.168794
H730	H	0.312940	-0.020331	0.668794
H731	H	-0.176822	-0.532344	0.214722
H732	H	0.323178	-0.032344	0.714722
H733	H	-0.203975	-0.478840	0.188115
H734	H	0.296025	0.021160	0.688115
H735	H	-0.239842	-0.553782	0.236514
H736	H	0.260158	-0.053782	0.736514
H737	H	-0.266996	-0.500283	0.209903
H738	H	0.233004	-0.000283	0.709903
H739	H	0.023949	-0.388000	0.364433
H740	H	0.523949	0.112000	0.864433
