data_functionalizedCrystal
_audit_creation_method	'MofGen! by Chris Wilmer'
_symmetry_space_group_name_H-M	'P1'
_symmetry_Int_Tables_number	1
_symmetry_cell_setting	triclinic
loop_
_symmetry_equiv_pos_as_xyz
  x,y,z
_cell_length_a	11.792254
_cell_length_b	11.792254
_cell_length_c	12.376457
_cell_angle_alpha	101.355083
_cell_angle_beta	78.628102
_cell_angle_gamma	84.198598
loop_
_atom_site_label
_atom_site_type_symbol
_atom_site_fract_x
_atom_site_fract_y
_atom_site_fract_z
O1	O	1.528539	0.134015	-0.094004
O2	O	2.028539	0.634015	0.405996
O3	O	1.198201	0.150033	-0.094007
O4	O	1.698201	0.650033	0.405993
O5	O	1.371377	-0.023143	-0.093998
O6	O	1.871377	0.476857	0.406002
O7	O	1.355363	0.307191	-0.094014
O8	O	1.855363	0.807191	0.405986
O9	O	1.328098	0.020091	0.094012
O10	O	1.828098	0.520091	0.594012
O11	O	1.154922	0.193267	0.094003
O12	O	1.654922	0.693267	0.594003
O13	O	1.485260	0.177250	0.094005
O14	O	1.985260	0.677250	0.594005
Zn15	Zn	1.313220	0.192123	0.123855
Zn16	Zn	1.813220	0.692123	0.623855
Zn17	Zn	1.370242	0.135160	-0.123856
Zn18	Zn	1.870242	0.635160	0.376144
O19	O	1.312084	0.350426	0.093996
O20	O	1.812084	0.850426	0.593996
C21	C	1.134271	0.170641	-0.000002
C22	C	1.634271	0.670641	0.499998
C23	C	1.008258	0.167621	-0.000003
C24	C	1.508258	0.667621	0.499997
C25	C	0.905922	0.165166	-0.000008
C26	C	1.405922	0.665166	0.499992
C27	C	0.777536	0.162097	-0.000008
C28	C	1.277536	0.662097	0.499992
C29	C	1.348729	-0.043817	0.000007
C30	C	1.848729	0.456183	0.500007
C31	C	1.345709	-0.169830	0.000006
C32	C	1.845709	0.330170	0.500006
C33	C	1.343256	-0.272168	0.000002
C34	C	1.843256	0.227832	0.500002
C35	C	1.340190	-0.400557	-0.000009
C36	C	1.840190	0.099443	0.499991
C37	C	1.549191	0.156641	-0.000002
C38	C	2.049191	0.656641	0.499998
C39	C	1.675206	0.159660	-0.000008
C40	C	2.175206	0.659660	0.499992
C41	C	1.334733	0.371099	-0.000011
C42	C	1.834733	0.871099	0.499989
C43	C	1.337755	0.497111	-0.000017
C44	C	1.837755	0.997111	0.499983
N45	N	1.274312	0.230999	0.292911
N46	N	1.774312	0.730999	0.792911
N47	N	1.409158	0.096275	-0.292912
N48	N	1.909158	0.596275	0.207088
C49	C	1.499475	0.006010	0.647908
C50	C	1.999475	0.506010	1.147908
C51	C	1.526700	-0.021199	0.529570
C52	C	2.026700	0.478801	1.029570
C53	C	1.463605	0.041848	0.470399
C54	C	1.963605	0.541848	0.970399
C55	C	1.373281	0.132109	0.529579
C56	C	1.873281	0.632109	1.029579
C57	C	1.346059	0.159327	0.647929
C58	C	1.846059	0.659327	1.147929
C59	C	1.310189	0.195165	0.470420
C60	C	1.810189	0.695165	0.970420
C61	C	1.219865	0.285426	0.529599
C62	C	1.719865	0.785426	1.029599
C63	C	1.192648	0.312639	0.647938
C64	C	1.692648	0.812639	1.147938
C65	C	1.255742	0.249592	0.707108
C66	C	1.755742	0.749592	1.207108
C67	C	1.337411	0.167947	0.352070
C68	C	1.837411	0.667947	0.852070
C69	C	1.183995	0.321264	0.352090
C70	C	1.683995	0.821264	0.852090
C71	C	1.156770	0.348473	0.470429
C72	C	1.656770	0.848473	0.970429
H73	H	1.410953	0.094456	0.303896
H74	H	1.910953	0.594456	0.803896
H75	H	1.119109	0.386143	0.696122
H76	H	1.619109	0.886143	1.196122
H77	H	1.600242	-0.094688	0.481390
H78	H	2.100242	0.405312	0.981390
H79	H	1.233573	0.271742	0.803469
H80	H	1.733573	0.771742	1.303469
H81	H	1.550845	-0.045309	0.696092
H82	H	2.050845	0.454691	1.196092
Br83	Br	1.500553	0.004920	0.309794
Br84	Br	2.000553	0.504920	0.809794
H85	H	1.083227	0.421966	0.518627
H86	H	1.583227	0.921966	1.018627
H87	H	1.132620	0.372604	0.303915
H88	H	1.632620	0.872604	0.803915
