data_functionalizedCrystal
_audit_creation_method	'MofGen! by Chris Wilmer'
_symmetry_space_group_name_H-M	'P1'
_symmetry_Int_Tables_number	1
_symmetry_cell_setting	triclinic
loop_
_symmetry_equiv_pos_as_xyz
  x,y,z
_cell_length_a	13.032831
_cell_length_b	12.759394
_cell_length_c	13.032268
_cell_angle_alpha	97.151248
_cell_angle_beta	90.886977
_cell_angle_gamma	82.818938
loop_
_atom_site_label
_atom_site_type_symbol
_atom_site_fract_x
_atom_site_fract_y
_atom_site_fract_z
Zn1	Zn	1.498525	-0.709535	-0.780858
Zn2	Zn	1.998525	-0.209535	-0.280858
Zn3	Zn	1.520277	-0.866071	-0.608883
Zn4	Zn	2.020277	-0.366071	-0.108883
Zn5	Zn	1.348381	-0.665645	-0.587097
Zn6	Zn	1.848381	-0.165645	-0.087097
Zn7	Zn	1.326525	-0.860390	-0.759008
Zn8	Zn	1.826525	-0.360390	-0.259008
O9	O	1.423427	-0.775411	-0.683961
O10	O	1.923427	-0.275411	-0.183961
O11	O	1.645332	-0.751045	-0.776306
O12	O	2.145332	-0.251045	-0.276306
O13	O	1.515725	-0.823493	-0.462075
O14	O	2.015725	-0.323493	0.037925
O15	O	1.368341	-0.524455	-0.612827
O16	O	1.868341	-0.024455	-0.112827
O17	O	1.661314	-0.866051	-0.649957
O18	O	2.161314	-0.366051	-0.149957
O19	O	1.478651	-0.556701	-0.755182
O20	O	1.978651	-0.056701	-0.255182
O21	O	1.389433	-0.676242	-0.446070
O22	O	1.889433	-0.176242	0.053930
O23	O	1.201559	-0.670733	-0.591640
O24	O	1.701559	-0.170733	-0.091640
O25	O	1.331091	-0.856370	-0.905823
O26	O	1.831091	-0.356370	-0.405823
O27	O	1.185502	-0.813812	-0.717942
O28	O	1.685502	-0.313812	-0.217942
O29	O	1.457459	-0.745537	-0.921876
O30	O	1.957459	-0.245537	-0.421876
O31	O	1.494533	-1.012330	-0.628770
O32	O	1.994533	-0.512330	-0.128770
O33	O	1.352184	-1.008156	-0.739066
O34	O	1.852184	-0.508156	-0.239066
C35	C	1.156213	-0.736894	-0.650056
C36	C	1.656213	-0.236894	-0.150056
C37	C	1.041895	-0.720445	-0.635576
C38	C	1.541895	-0.220445	-0.135576
C39	C	0.983023	-0.783996	-0.691518
C40	C	1.483023	-0.283996	-0.191518
C41	C	0.864869	-0.766996	-0.676554
C42	C	1.364869	-0.266996	-0.176554
C43	C	1.423372	-1.048368	-0.683937
C44	C	1.923372	-0.548368	-0.183937
C45	C	1.423438	-1.165158	-0.683973
C46	C	1.923438	-0.665158	-0.183973
C47	C	1.538194	-1.198574	-0.832293
C48	C	2.038194	-0.698574	-0.332293
C49	C	1.595603	-1.270148	-0.906465
C50	C	2.095603	-0.770148	-0.406465
C51	C	1.595661	-1.379881	-0.906495
C52	C	2.095661	-0.879881	-0.406495
C53	C	1.538301	-1.418040	-0.832347
C54	C	2.038301	-0.918040	-0.332347
C55	C	1.480892	-1.346466	-0.758175
C56	C	1.980892	-0.846466	-0.258175
C57	C	1.480843	-1.236732	-0.758151
C58	C	1.980843	-0.736732	-0.258151
C59	C	1.366133	-1.313050	-0.609861
C60	C	1.866133	-0.813050	-0.109861
C61	C	1.366079	-1.203317	-0.609825
C62	C	1.866079	-0.703317	-0.109825
C63	C	1.308773	-1.351209	-0.535713
C64	C	1.808773	-0.851209	-0.035713
C65	C	1.251369	-1.279635	-0.461534
C66	C	1.751369	-0.779635	0.038466
C67	C	1.251314	-1.169896	-0.461507
C68	C	1.751314	-0.669896	0.038493
C69	C	1.308670	-1.131743	-0.535653
C70	C	1.808670	-0.631743	-0.035653
C71	C	1.691684	-0.814078	-0.717999
C72	C	2.191684	-0.314078	-0.217999
C73	C	1.805999	-0.830556	-0.732504
C74	C	2.305999	-0.330556	-0.232504
C75	C	1.389411	-0.805216	-0.952209
C76	C	1.889411	-0.305216	-0.452209
C77	C	1.374915	-0.817917	-1.066521
C78	C	1.874915	-0.317917	-0.566521
C79	C	1.423507	-0.501394	-0.684012
C80	C	1.923507	-0.001394	-0.184012
C81	C	1.423542	-0.384624	-0.684033
C82	C	1.923542	0.115376	-0.184033
C83	C	1.430977	-0.768742	-1.125427
C84	C	1.930977	-0.268742	-0.625427
C85	C	1.415996	-0.781868	-1.243574
C86	C	1.915996	-0.281868	-0.743574
C87	C	1.457370	-0.745654	-0.416764
C88	C	1.957370	-0.245654	0.083236
C89	C	1.472065	-0.732686	-0.302479
C90	C	1.972065	-0.232686	0.197521
H91	H	1.538163	-1.109225	-0.832268
H92	H	2.038163	-0.609225	-0.332268
H93	H	1.642302	-1.239069	-0.966838
H94	H	2.142302	-0.739069	-0.466838
H95	H	1.004824	-0.653448	-0.576607
H96	H	1.504824	-0.153448	-0.076607
H97	H	1.642396	-1.438157	-0.966902
H98	H	2.142396	-0.938157	-0.466902
C99	C	1.188161	-1.091167	-0.379921
C100	C	1.688161	-0.591167	0.120079
H101	H	1.196334	-1.020347	-0.390523
H102	H	1.696334	-0.520347	0.109477
H103	H	1.212026	-1.103663	-0.312751
H104	H	1.712026	-0.603663	0.187249
H105	H	1.117151	-1.100913	-0.386171
H106	H	1.617151	-0.600913	0.113829
C107	C	0.814805	-0.676484	-0.596885
C108	C	1.314805	-0.176484	-0.096885
H109	H	0.741960	-0.676934	-0.597275
H110	H	1.241960	-0.176934	-0.097275
H111	H	0.830450	-0.610113	-0.614263
H112	H	1.330450	-0.110113	-0.114263
H113	H	0.841107	-0.686578	-0.529959
H114	H	1.341107	-0.186578	-0.029959
C115	C	1.308606	-1.011041	-0.535631
C116	C	1.808606	-0.511041	-0.035631
H117	H	1.350980	-0.998570	-0.590418
H118	H	1.850980	-0.498570	-0.090418
H119	H	1.334834	-0.981411	-0.471536
H120	H	1.834834	-0.481411	0.028464
H121	H	1.239956	-0.978680	-0.544951
H122	H	1.739956	-0.478680	-0.044951
H123	H	1.308820	-1.440560	-0.535746
H124	H	1.808820	-0.940560	-0.035746
H125	H	0.843063	-0.897549	-0.791488
H126	H	1.343063	-0.397549	-0.291488
H127	H	1.531151	-0.680857	-1.265448
H128	H	2.031151	-0.180857	-0.765448
H129	H	1.538344	-1.507391	-0.832386
H130	H	2.038344	-1.007391	-0.332386
H131	H	1.490060	-0.716919	-1.088391
H132	H	1.990060	-0.216919	-0.588391
H133	H	1.204666	-1.310714	-0.401173
H134	H	1.704666	-0.810714	0.098827
H135	H	1.315821	-0.869727	-1.103556
H136	H	1.815821	-0.369727	-0.603556
C137	C	1.033092	-0.874499	-0.771189
C138	C	1.533092	-0.374499	-0.271189
H139	H	1.105937	-0.874056	-0.770790
H140	H	1.605937	-0.374056	-0.270790
H141	H	1.006785	-0.864410	-0.838108
H142	H	1.506785	-0.364410	-0.338108
H143	H	1.017452	-0.940875	-0.753804
H144	H	1.517452	-0.440875	-0.253804
C145	C	1.336173	-0.851880	-1.293592
C146	C	1.836173	-0.351880	-0.793592
H147	H	1.336583	-0.851526	-1.366439
H148	H	1.836583	-0.351526	-0.866439
H149	H	1.269283	-0.824616	-1.267273
H150	H	1.769283	-0.324616	-0.767273
H151	H	1.353427	-0.922704	-1.277934
H152	H	1.853427	-0.422704	-0.777934
