data_functionalizedCrystal
_audit_creation_method	'MofGen! by Chris Wilmer'
_symmetry_space_group_name_H-M	'P1'
_symmetry_Int_Tables_number	1
_symmetry_cell_setting	triclinic
loop_
_symmetry_equiv_pos_as_xyz
  x,y,z
_cell_length_a	15.995292
_cell_length_b	14.472311
_cell_length_c	15.995292
_cell_angle_alpha	90.006466
_cell_angle_beta	83.468616
_cell_angle_gamma	90.005304
loop_
_atom_site_label
_atom_site_type_symbol
_atom_site_fract_x
_atom_site_fract_y
_atom_site_fract_z
O1	O	1.110992	0.076859	0.107704
O2	O	0.867208	0.076855	0.121083
O3	O	0.995789	0.076859	-0.007499
O4	O	0.982411	0.076856	0.236286
O5	O	0.995780	-0.076823	-0.007515
O6	O	0.867199	-0.076827	0.121066
O7	O	1.110983	-0.076823	0.107688
Cu8	Cu	0.989090	-0.090857	0.114376
Cu9	Cu	0.989101	0.090889	0.114395
O10	O	0.982402	-0.076826	0.236269
C11	C	0.836008	0.000013	0.120530
C12	C	0.743055	0.000012	0.118898
N13	N	0.989089	-0.218688	0.114362
C14	C	0.989102	-0.592779	0.114388
C15	C	1.058126	-0.553583	0.045817
C16	C	1.057946	-0.446495	0.045564
C17	C	0.989096	-0.407188	0.114375
C18	C	0.901741	-0.446081	0.095312
C19	C	0.902149	-0.553202	0.094827
C20	C	1.006645	-0.553285	0.202226
C21	C	1.008629	-0.446156	0.201637
C22	C	0.989087	-0.302300	0.114369
C23	C	0.989104	-0.697668	0.114393
C24	C	0.405318	0.000022	0.112896
C25	C	0.428611	0.000364	0.205703
C26	C	0.525286	0.000014	0.207467
C27	C	0.572873	0.000018	0.115874
C28	C	0.543776	-0.087738	0.069466
C29	C	0.446986	-0.087808	0.068349
C30	C	0.447141	0.086957	0.066472
C31	C	0.543633	0.088113	0.069911
C32	C	0.667569	0.000012	0.117552
C33	C	0.310622	0.000022	0.111215
C34	C	1.142183	0.000021	0.108240
C35	C	1.235136	0.000028	0.109873
C36	C	0.995240	0.000020	-0.038703
C37	C	0.993608	0.000027	-0.131655
N38	N	0.989109	0.218720	0.114402
C39	C	0.987607	0.000018	-0.469393
C40	C	1.080413	-0.000323	-0.446100
C41	C	1.082177	0.000026	-0.349424
C42	C	0.990584	0.000022	-0.301837
C43	C	0.944190	0.087778	-0.330919
C44	C	0.943073	0.087848	-0.427710
C45	C	0.941168	-0.086917	-0.427585
C46	C	0.944607	-0.088073	-0.331093
C47	C	0.992263	0.000027	-0.207141
C48	C	0.985926	0.000019	-0.564088
C49	C	0.982951	0.000014	0.267473
C50	C	0.984583	0.000013	0.360426
H51	H	1.122882	-0.420198	0.056913
Br52	Br	0.399932	0.197821	0.114839
Br53	Br	0.814064	-0.403652	0.176338
Br54	Br	0.875326	-0.401384	-0.010240
Br55	Br	1.039255	-0.403788	-0.063080
Br56	Br	1.110550	-0.598289	0.232767
Br57	Br	0.827310	-0.087910	-0.450878
H58	H	1.123280	-0.579336	0.056982
H59	H	1.047083	-0.580513	-0.018999
Br60	Br	0.577188	-0.196598	0.123155
Br61	Br	0.596901	-0.093171	-0.042879
Br62	Br	1.115732	-0.403781	0.225758
H63	H	0.433162	0.087553	-0.001840
Br64	Br	0.876372	-0.594867	-0.011940
H65	H	0.961611	-0.419398	0.255054
Br66	Br	1.139717	0.103982	-0.494464
Br67	Br	0.813971	-0.596427	0.174903
Br68	Br	0.574618	0.196325	0.126200
H69	H	0.956311	-0.578638	0.253255
H70	H	0.544309	0.062923	0.243807
Br71	Br	1.143105	0.105063	-0.318742
H72	H	0.576617	0.093416	0.003058
Br73	Br	0.381944	0.105261	0.265343
Br74	Br	0.989551	-0.197781	-0.474775
Br75	Br	0.380224	-0.103937	0.264991
Br76	Br	0.402266	-0.197147	0.121898
Br77	Br	0.555949	-0.105020	0.268382
Br78	Br	1.142713	-0.104838	-0.317730
Br79	Br	0.422751	-0.094506	-0.045060
H80	H	1.116182	-0.063257	-0.474111
H81	H	0.975211	0.153451	-0.454526
H82	H	0.875027	0.091821	-0.442245
H83	H	0.876790	0.091038	-0.299037
H84	H	0.976415	0.153089	-0.310859
Br85	Br	1.000904	-0.196285	-0.300167
H86	H	0.877753	-0.093376	-0.298110
