data_functionalizedCrystal
_audit_creation_method	'MofGen! by Chris Wilmer'
_symmetry_space_group_name_H-M	'P1'
_symmetry_Int_Tables_number	1
_symmetry_cell_setting	triclinic
loop_
_symmetry_equiv_pos_as_xyz
  x,y,z
_cell_length_a	18.215405
_cell_length_b	18.215407
_cell_length_c	18.215399
_cell_angle_alpha	89.986109
_cell_angle_beta	89.967040
_cell_angle_gamma	90.022344
loop_
_atom_site_label
_atom_site_type_symbol
_atom_site_fract_x
_atom_site_fract_y
_atom_site_fract_z
Zn1	Zn	-0.293024	1.125050	-0.416045
Zn2	Zn	-0.416101	1.124965	-0.292973
Zn3	Zn	-0.293047	1.001989	-0.292999
Zn4	Zn	-0.416048	1.001949	-0.416004
O5	O	-0.354555	1.063488	-0.354505
O6	O	-0.309363	1.228023	-0.399726
O7	O	-0.399809	1.108633	-0.189992
O8	O	-0.190060	1.018366	-0.309349
O9	O	-0.399787	1.227960	-0.309305
O10	O	-0.190043	1.108778	-0.399750
O11	O	-0.309402	1.018283	-0.190011
O12	O	-0.309351	0.898999	-0.309309
O13	O	-0.399697	1.018297	-0.518994
O14	O	-0.399719	0.898970	-0.399681
O15	O	-0.309312	1.108739	-0.519024
O16	O	-0.519078	1.108594	-0.309266
O17	O	-0.519039	1.018214	-0.399656
C18	C	-0.354532	0.872282	-0.354494
C19	C	-0.354541	0.790483	-0.354507
C20	C	-0.401687	0.525429	-0.401497
C21	C	-0.401681	0.602288	-0.401494
C22	C	-0.307439	0.602288	-0.307526
C23	C	-0.307450	0.525431	-0.307527
C24	C	-0.354573	0.487003	-0.354516
C25	C	-0.354556	0.640720	-0.354512
C26	C	-0.354549	0.724053	-0.354508
C27	C	-0.354581	0.403664	-0.354520
C28	C	-0.545761	1.063410	-0.354470
C29	C	-0.627560	1.063445	-0.354479
C30	C	-0.815750	1.110616	-0.307500
C31	C	-0.892609	1.110649	-0.307517
C32	C	-0.892608	1.016455	-0.401564
C33	C	-0.815751	1.016426	-0.401549
C34	C	-0.777324	1.063505	-0.354513
C35	C	-0.931040	1.063567	-0.354545
C36	C	-1.014373	1.063602	-0.354565
C37	C	-0.693985	1.063471	-0.354494
C38	C	-0.162602	1.063586	-0.354557
C39	C	-0.080803	1.063628	-0.354579
C40	C	-0.354496	1.063523	-0.546458
C41	C	-0.354471	1.063538	-0.628257
C42	C	-0.354578	1.255441	-0.354517
C43	C	-0.354588	1.337240	-0.354522
C44	C	-0.307365	1.016532	-0.816462
C45	C	-0.307350	1.016545	-0.893321
C46	C	-0.401490	1.110631	-0.893290
C47	C	-0.401508	1.110614	-0.816433
C48	C	-0.354441	1.063566	-0.778021
C49	C	-0.354408	1.063596	-0.931737
C50	C	-0.354393	1.063610	-1.015071
C51	C	-0.354458	1.063550	-0.694682
C52	C	-0.354561	1.063496	-0.163299
C53	C	-0.354378	1.063624	-0.081500
H54	H	-0.440047	0.633571	-0.439749
H55	H	-0.784464	1.148952	-0.269201
H56	H	-0.923905	0.978123	-0.439858
F57	F	-0.451619	1.160674	-0.775519
H58	H	-0.784462	0.978063	-0.439837
F59	F	-0.451578	1.160702	-0.934178
F60	F	-0.257274	0.966458	-0.775583
F61	F	-0.257288	0.643192	-0.257522
F62	F	-0.933501	1.160792	-0.257481
H63	H	-0.269083	0.494144	-0.269266
F64	F	-0.451841	0.484534	-0.451506
F65	F	-0.257252	0.966478	-0.934229
