data_functionalizedCrystal
_audit_creation_method	'MofGen! by Chris Wilmer'
_symmetry_space_group_name_H-M	'P1'
_symmetry_Int_Tables_number	1
_symmetry_cell_setting	triclinic
loop_
_symmetry_equiv_pos_as_xyz
  x,y,z
_cell_length_a	12.759401
_cell_length_b	21.295417
_cell_length_c	12.759393
_cell_angle_alpha	90.037048
_cell_angle_beta	90.020938
_cell_angle_gamma	90.031227
loop_
_atom_site_label
_atom_site_type_symbol
_atom_site_fract_x
_atom_site_fract_y
_atom_site_fract_z
Zn1	Zn	1.606157	-0.250553	0.593972
Zn2	Zn	1.606002	-0.355835	0.418272
Zn3	Zn	1.430456	-0.250587	0.418307
Zn4	Zn	1.430401	-0.355791	0.593909
O5	O	1.518254	-0.303192	0.506115
O6	O	1.753157	-0.264523	0.570677
O7	O	1.582673	-0.341906	0.271256
O8	O	1.453850	-0.162493	0.441651
O9	O	1.753043	-0.341874	0.441591
O10	O	1.582937	-0.162468	0.570711
O11	O	1.453700	-0.264581	0.271282
O12	O	1.283427	-0.264538	0.441590
O13	O	1.453758	-0.341799	0.740939
O14	O	1.283388	-0.341831	0.570604
O15	O	1.582885	-0.264481	0.740985
O16	O	1.582621	-0.443919	0.441530
O17	O	1.453608	-0.443886	0.570570
C18	C	1.245287	-0.303184	0.506095
C19	C	1.128510	-0.303196	0.506111
C20	C	1.073655	-0.343504	0.573182
C21	C	0.963931	-0.343506	0.573203
C22	C	0.963927	-0.262891	0.439071
C23	C	1.073649	-0.262886	0.439057
C24	C	0.814025	-0.366093	0.697059
C25	C	0.759166	-0.406411	0.764122
C26	C	0.794737	-0.467844	0.780058
C27	C	0.885165	-0.488971	0.728916
C28	C	0.940018	-0.448657	0.661846
C29	C	0.904449	-0.387215	0.645930
C30	C	1.223557	-0.240305	0.315199
C31	C	1.278412	-0.199993	0.248122
C32	C	1.242843	-0.138559	0.232176
C33	C	1.152412	-0.117434	0.283299
C34	C	1.097556	-0.157746	0.350375
C35	C	1.133133	-0.219179	0.366324
C36	C	1.518120	-0.466743	0.506062
C37	C	1.518159	-0.536711	0.506075
C38	C	1.585336	-0.569508	0.573324
C39	C	1.585373	-0.635250	0.573350
C40	C	1.518244	-0.668194	0.506108
C41	C	1.451054	-0.635389	0.438853
C42	C	1.451011	-0.569648	0.438837
N43	N	1.510303	-0.771462	0.414161
N44	N	1.510350	-0.833913	0.414180
C45	C	1.518367	-0.866268	0.506155
N46	N	1.526356	-0.833813	0.598113
N47	N	1.526315	-0.771356	0.598093
C48	C	1.518282	-0.739479	0.506119
C49	C	1.585588	-0.970351	0.573439
C50	C	1.585617	-1.036094	0.573466
C51	C	1.451304	-1.036232	0.438960
C52	C	1.451269	-0.970489	0.438942
C53	C	1.518416	-0.937553	0.506180
C54	C	1.792287	-0.303200	0.506137
C55	C	1.909064	-0.303203	0.506146
C56	C	1.518333	-0.303131	0.780149
C57	C	1.518366	-0.303105	0.896926
C58	C	1.518417	-0.139001	0.506192
C59	C	1.518486	-0.069033	0.506224
C60	C	1.518236	-0.303206	0.233148
C61	C	1.518406	-0.303055	0.116372
C62	C	1.585607	-0.262839	0.951813
C63	C	1.585625	-0.262812	1.061537
C64	C	1.451157	-0.343322	1.061477
C65	C	1.451135	-0.343346	0.951754
C66	C	1.623270	-0.188542	1.211530
C67	C	1.690527	-0.148282	1.266421
C68	C	1.793044	-0.138629	1.230832
C69	C	1.828325	-0.169246	1.140352
C70	C	1.761072	-0.209511	1.085467
C71	C	1.658541	-0.219152	1.121055
C72	C	1.413501	-0.417617	0.801760
C73	C	1.346254	-0.457885	0.746872
C74	C	1.243735	-0.467545	0.782460
C75	C	1.208459	-0.436939	0.872942
C76	C	1.275706	-0.396670	0.927830
C77	C	1.378224	-0.387010	0.892235
H78	H	0.685540	-0.389203	0.805763
H79	H	0.785061	-0.316068	0.684101
H80	H	1.023927	-0.140539	0.392010
H81	H	1.640321	-1.062796	0.628234
Cl82	Cl	1.107685	-0.040203	0.263245
Cl83	Cl	1.366552	-0.528416	0.354288
Cl84	Cl	1.669743	-0.528105	0.657859
Cl85	Cl	1.669995	-0.928942	0.657969
H86	H	1.188987	-0.500341	0.737765
Cl87	Cl	1.268182	-0.317572	0.335110
Cl88	Cl	1.366657	-0.676803	0.354326
Cl89	Cl	1.366909	-1.077640	0.354428
H90	H	1.396571	-0.943785	0.384176
H91	H	1.374989	-0.482812	0.673203
Cl92	Cl	1.311797	-0.087886	0.147834
H93	H	1.640348	-0.230071	0.907175
Cl94	Cl	1.494380	-0.200666	1.256269
Cl95	Cl	1.805415	-0.247999	0.971729
Cl96	Cl	1.669838	-0.676489	0.657892
Cl97	Cl	1.957217	-0.157117	1.095627
H98	H	0.914113	-0.538998	0.741888
Cl99	Cl	1.392088	-0.226555	0.183836
Cl100	Cl	1.877595	-0.088017	1.299842
H101	H	1.661793	-0.123354	1.340090
Cl102	Cl	1.366649	-0.393911	1.130412
Cl103	Cl	1.542375	-0.405456	0.756991
H104	H	0.750063	-0.500671	0.834663
H105	H	1.246976	-0.371750	1.001506
H106	H	1.118320	-0.376325	0.627785
Cl107	Cl	1.053690	-0.475211	0.597555
H108	H	1.124981	-0.444806	0.901922
H109	H	0.919245	-0.230073	0.384477
