data_functionalizedCrystal
_audit_creation_method	'MofGen! by Chris Wilmer'
_symmetry_space_group_name_H-M	'P1'
_symmetry_Int_Tables_number	1
_symmetry_cell_setting	triclinic
loop_
_symmetry_equiv_pos_as_xyz
  x,y,z
_cell_length_a	11.169417
_cell_length_b	21.295417
_cell_length_c	11.169409
_cell_angle_alpha	89.959648
_cell_angle_beta	89.980176
_cell_angle_gamma	90.030581
loop_
_atom_site_label
_atom_site_type_symbol
_atom_site_fract_x
_atom_site_fract_y
_atom_site_fract_z
Zn1	Zn	1.834801	-0.250543	-0.678476
Zn2	Zn	1.834622	-0.355832	-0.477765
Zn3	Zn	1.634087	-0.250582	-0.477810
Zn4	Zn	1.634026	-0.355780	-0.678410
O5	O	1.734384	-0.303184	-0.578115
O6	O	2.002727	-0.264516	-0.651860
O7	O	1.807971	-0.341908	-0.309821
O8	O	1.660812	-0.162487	-0.504476
O9	O	2.002596	-0.341870	-0.504398
O10	O	1.808276	-0.162459	-0.651904
O11	O	1.660639	-0.264581	-0.309854
O12	O	1.466129	-0.264531	-0.504411
O13	O	1.660709	-0.341783	-0.846368
O14	O	1.466085	-0.341820	-0.651791
O15	O	1.808217	-0.264466	-0.846417
O16	O	1.807913	-0.443914	-0.504334
O17	O	1.660536	-0.443877	-0.651747
C18	C	1.422559	-0.303175	-0.578100
C19	C	1.289159	-0.303186	-0.578122
C20	C	1.734231	-0.466736	-0.578054
C21	C	1.734276	-0.536704	-0.578068
C22	C	1.811016	-0.569499	-0.654889
C23	C	1.811058	-0.635241	-0.654919
C24	C	1.734373	-0.668187	-0.578106
C25	C	1.657617	-0.635384	-0.501280
C26	C	1.657569	-0.569643	-0.501261
N27	N	1.725301	-0.771458	-0.473071
N28	N	1.725354	-0.833909	-0.473093
C29	C	1.734513	-0.866261	-0.578160
N30	N	1.743640	-0.833802	-0.683209
N31	N	1.743593	-0.771345	-0.683186
C32	C	1.734417	-0.739472	-0.578119
C33	C	1.811303	-0.970342	-0.655020
C34	C	1.811337	-1.036085	-0.655051
C35	C	1.657903	-1.036226	-0.501402
C36	C	1.657863	-0.970484	-0.501381
C37	C	1.734569	-0.937545	-0.578188
C38	C	2.047426	-0.303194	-0.578131
C39	C	2.180826	-0.303199	-0.578138
C40	C	1.734476	-0.303114	-0.891158
C41	C	1.734516	-0.303085	-1.024558
C42	C	1.734570	-0.138994	-0.578202
C43	C	1.734650	-0.069026	-0.578240
C44	C	1.734361	-0.303209	-0.266290
C45	C	1.734555	-0.303061	-0.132891
H46	H	1.873472	-0.542682	-0.717433
H47	H	1.595456	-1.063050	-0.438867
C48	C	1.573157	-0.533565	-0.416745
C49	C	1.625184	-0.488389	-0.322549
C50	C	1.540774	-0.452310	-0.238029
C51	C	1.404337	-0.461407	-0.247704
C52	C	1.352302	-0.506585	-0.341903
C53	C	1.436712	-0.542664	-0.426424
H54	H	1.726190	-0.481653	-0.315384
H55	H	1.579294	-0.418867	-0.168297
H56	H	1.341851	-0.434699	-0.185137
H57	H	1.251296	-0.513320	-0.349069
H58	H	1.398192	-0.576107	-0.496156
C59	C	1.895482	-0.671328	-0.739419
C60	C	2.031918	-0.662231	-0.729723
C61	C	2.116342	-0.698316	-0.814220
C62	C	2.064329	-0.743498	-0.908414
C63	C	1.927886	-0.752597	-0.918114
C64	C	1.843462	-0.716511	-0.833616
H65	H	2.070427	-0.628783	-0.659992
H66	H	2.217346	-0.691581	-0.807039
H67	H	2.126825	-0.770210	-0.970964
H68	H	1.889377	-0.786045	-0.987845
H69	H	1.742458	-0.723247	-0.840797
H70	H	1.595177	-0.662212	-0.438742
H71	H	1.873828	-1.062786	-0.717614
C72	C	1.895671	-0.934104	-0.739509
C73	C	1.980079	-0.970181	-0.824025
C74	C	2.064449	-0.933946	-0.908512
C75	C	2.064412	-0.861633	-0.908484
C76	C	1.980001	-0.825552	-0.823965
C77	C	1.895631	-0.861787	-0.739478
H78	H	1.980109	-1.023715	-0.824049
H79	H	2.126936	-0.960656	-0.971078
H80	H	2.126868	-0.834809	-0.971026
H81	H	1.979971	-0.772018	-0.823941
H82	H	1.833145	-0.835077	-0.676911
H83	H	1.595378	-0.943781	-0.438821
