data_functionalizedCrystal
_audit_creation_method	'MofGen! by Chris Wilmer'
_symmetry_space_group_name_H-M	'P1'
_symmetry_Int_Tables_number	1
_symmetry_cell_setting	triclinic
loop_
_symmetry_equiv_pos_as_xyz
  x,y,z
_cell_length_a	14.908520
_cell_length_b	13.033293
_cell_length_c	13.032268
_cell_angle_alpha	89.079182
_cell_angle_beta	99.985811
_cell_angle_gamma	100.871251
loop_
_atom_site_label
_atom_site_type_symbol
_atom_site_fract_x
_atom_site_fract_y
_atom_site_fract_z
Zn1	Zn	-0.284778	1.477323	-0.797811
Zn2	Zn	-0.416320	1.489301	-0.633380
Zn3	Zn	-0.279945	1.327542	-0.603709
Zn4	Zn	-0.454477	1.292719	-0.785607
O5	O	-0.358880	1.396721	-0.705127
O6	O	-0.288281	1.623866	-0.793523
O7	O	-0.380237	1.487430	-0.484504
O8	O	-0.152493	1.356971	-0.622147
O9	O	-0.384924	1.632666	-0.672716
O10	O	-0.156044	1.467014	-0.764752
O11	O	-0.280043	1.368586	-0.462705
O12	O	-0.317043	1.177969	-0.610314
O13	O	-0.449959	1.297621	-0.932166
O14	O	-0.445272	1.152385	-0.743954
O15	O	-0.325281	1.433248	-0.941132
O16	O	-0.549474	1.453664	-0.660883
O17	O	-0.577509	1.309236	-0.772724
C18	C	-0.384774	1.127592	-0.672591
C19	C	-0.395877	1.012452	-0.658698
C20	C	-0.353108	0.956745	-0.712379
C21	C	-0.364583	0.837742	-0.698021
C22	C	-0.596705	1.378996	-0.718725
C23	C	-0.698442	1.371503	-0.724589
C24	C	-0.860365	1.507938	-0.619270
C25	C	-0.955956	1.500902	-0.624776
C26	C	-0.985216	1.350400	-0.741113
C27	C	-0.889626	1.357436	-0.735607
C28	C	-0.827203	1.436207	-0.674682
C29	C	-0.731610	1.443238	-0.669170
C30	C	-0.760873	1.292741	-0.785512
C31	C	-0.856463	1.285705	-0.791019
C32	C	-0.120127	1.414541	-0.691501
C33	C	-0.018384	1.422134	-0.685695
C34	C	-0.392416	1.360214	-0.975281
C35	C	-0.406707	1.344657	-1.090405
C36	C	-0.332885	1.666902	-0.737790
C37	C	-0.321808	1.782037	-0.751709
C38	C	-0.351390	1.404827	-1.146167
C39	C	-0.366159	1.388749	-1.265153
C40	C	-0.325403	1.433151	-0.436027
C41	C	-0.310835	1.448928	-0.320913
H42	H	-0.680785	1.507374	-0.619559
H43	H	-0.982951	1.559314	-0.579657
O44	O	-0.449819	0.964353	-0.591258
C45	C	-0.602379	0.926229	-0.545643
C46	C	-0.541389	0.980765	-0.622083
H47	H	-0.676430	0.939461	-0.570549
H48	H	-0.573871	0.959927	-0.463758
H49	H	-0.601994	0.838852	-0.546071
H50	H	-0.541749	1.068146	-0.621746
H51	H	-0.569918	0.946983	-0.703931
H52	H	-0.424450	1.325322	-1.305497
O53	O	-1.045831	1.273989	-0.800456
C54	C	-1.101758	1.197579	-0.972177
C55	C	-1.033076	1.284178	-0.905096
H56	H	-1.091456	1.205774	-1.056788
H57	H	-1.175794	1.204877	-0.966684
H58	H	-1.088826	1.117921	-0.942697
H59	H	-1.045924	1.363876	-0.934530
H60	H	-0.959064	1.276788	-0.910592
H61	H	-0.809539	1.572070	-0.569655
H62	H	-0.293095	1.468240	-1.105817
H63	H	-0.907301	1.221575	-0.840625
H64	H	-0.252534	1.512343	-1.280568
O65	O	-0.728504	1.223169	-0.839316
C66	C	-0.594210	1.167261	-0.882335
C67	C	-0.630742	1.246133	-0.821377
H68	H	-0.515165	1.185786	-0.867836
H69	H	-0.621521	1.172712	-0.969158
H70	H	-0.618908	1.084838	-0.855079
H71	H	-0.606058	1.328592	-0.848543
H72	H	-0.603438	1.240591	-0.734564
O73	O	-0.476235	1.269081	-1.138702
C74	C	-0.554294	1.184083	-1.301316
C75	C	-0.475528	1.269727	-1.246760
H76	H	-0.553736	1.184562	-1.388687
H77	H	-0.623767	1.199606	-1.286597
H78	H	-0.543649	1.104619	-1.269033
H79	H	-0.486083	1.349225	-1.279009
H80	H	-0.406083	1.254113	-1.261475
O81	O	-0.268127	0.830247	-0.819350
C82	C	-0.261643	0.934619	-0.973136
C83	C	-0.322545	0.880050	-0.896628
H84	H	-0.305611	0.974917	-1.035622
H85	H	-0.231250	0.874200	-1.011402
H86	H	-0.202957	0.995205	-0.928972
H87	H	-0.381277	0.819470	-0.940716
H88	H	-0.352868	0.940531	-0.858362
O89	O	-0.299356	1.005100	-0.779880
C90	C	-0.238834	1.167811	-0.855657
C91	C	-0.299754	1.113182	-0.779194
H92	H	-0.239119	1.255208	-0.855111
H93	H	-0.267412	1.134207	-0.937564
H94	H	-0.164808	1.154461	-0.830845
H95	H	-0.373792	1.126511	-0.803909
H96	H	-0.271099	1.146795	-0.697304
H97	H	-0.409694	0.797338	-0.641427
