data_functionalizedCrystal
_audit_creation_method	'MofGen! by Chris Wilmer'
_symmetry_space_group_name_H-M	'P1'
_symmetry_Int_Tables_number	1
_symmetry_cell_setting	triclinic
loop_
_symmetry_equiv_pos_as_xyz
  x,y,z
_cell_length_a	17.699083
_cell_length_b	10.489741
_cell_length_c	16.176319
_cell_angle_alpha	89.993511
_cell_angle_beta	89.998611
_cell_angle_gamma	83.911094
loop_
_atom_site_label
_atom_site_type_symbol
_atom_site_fract_x
_atom_site_fract_y
_atom_site_fract_z
O1	O	1.005134	0.161296	-0.068630
O2	O	1.505134	0.661296	0.431370
O3	O	0.784893	0.182281	-0.068657
O4	O	1.284893	0.682281	0.431343
O5	O	0.900025	-0.013903	-0.068638
O6	O	1.400025	0.486097	0.431362
O7	O	0.890002	0.357479	-0.068649
O8	O	1.390002	0.857479	0.431351
O9	O	0.900009	-0.013915	0.068855
O10	O	1.400009	0.486085	0.568855
O11	O	0.784877	0.182268	0.068836
O12	O	1.284877	0.682268	0.568836
O13	O	1.005118	0.161283	0.068863
O14	O	1.505118	0.661283	0.568863
Cu15	Cu	0.894996	0.171775	0.081404
Cu16	Cu	1.394996	0.671775	0.581404
Cu17	Cu	0.895015	0.171789	-0.081198
Cu18	Cu	1.395015	0.671789	0.418802
O19	O	0.889986	0.357467	0.068844
O20	O	1.389986	0.857467	0.568844
C21	C	0.756683	0.181523	0.000086
C22	C	1.256683	0.681523	0.500086
C23	C	0.672650	0.179267	0.000076
C24	C	1.172650	0.679267	0.500076
C25	C	0.899260	-0.061427	0.000108
C26	C	1.399260	0.438573	0.500108
C27	C	0.896995	-0.203014	0.000106
C28	C	1.396995	0.296986	0.500106
C29	C	0.624782	0.294422	0.000073
C30	C	1.124782	0.794422	0.500073
C31	C	0.545825	0.292295	0.000083
C32	C	1.045825	0.792295	0.500083
C33	C	0.514737	0.175011	0.000091
C34	C	1.014737	0.675011	0.500091
C35	C	0.562611	0.059847	0.000097
C36	C	1.062611	0.559847	0.500097
C37	C	0.641567	0.061975	0.000092
C38	C	1.141567	0.561975	0.500092
C39	C	0.244192	0.051260	0.000118
C40	C	0.744192	0.551260	0.500118
C41	C	0.165230	0.049140	0.000120
C42	C	0.665230	0.549140	0.500120
C43	C	0.148450	0.281580	0.000109
C44	C	0.648450	0.781580	0.500109
C45	C	0.227406	0.283709	0.000104
C46	C	0.727406	0.783709	0.500104
C47	C	0.275273	0.168545	0.000114
C48	C	0.775273	0.668545	0.500114
C49	C	0.360887	0.170853	0.000104
C50	C	0.860887	0.670853	0.500104
C51	C	0.429124	0.172702	0.000096
C52	C	0.929124	0.672702	0.500096
C53	C	0.823740	-0.269793	0.000091
C54	C	1.323740	0.230207	0.500091
C55	C	0.858337	-0.362565	0.067887
C56	C	1.358337	0.137435	0.567887
C57	C	0.858370	-0.362527	-0.067671
C58	C	1.358370	0.137473	0.432329
C59	C	0.931622	-0.293921	0.067958
C60	C	1.431622	0.206079	0.567958
C61	C	0.931645	-0.293874	-0.067661
C62	C	1.431645	0.206126	0.432339
C63	C	0.966296	-0.386619	0.000151
C64	C	1.466296	0.113381	0.500151
C65	C	1.033328	0.162042	0.000118
C66	C	1.533328	0.662042	0.500118
C67	C	1.117361	0.164297	0.000123
C68	C	1.617361	0.664297	0.500123
C69	C	0.890751	0.404991	0.000096
C70	C	1.390751	0.904991	0.500096
C71	C	0.893016	0.546578	0.000093
C72	C	1.393016	1.046578	0.500093
N73	N	0.894988	0.171764	0.195769
N74	N	1.394988	0.671764	0.695769
N75	N	0.895029	0.171790	-0.195563
N76	N	1.395029	0.671790	0.304437
C77	C	0.945984	0.084929	0.239042
C78	C	1.445984	0.584929	0.739042
C79	C	0.945988	0.084928	0.325589
C80	C	1.445988	0.584928	0.825589
C81	C	0.894999	0.171768	0.368862
C82	C	1.394999	0.671768	0.868862
C83	C	0.843997	0.258607	0.325583
C84	C	1.343997	0.758607	0.825583
C85	C	0.843990	0.258601	0.239037
C86	C	1.343990	0.758601	0.739037
C87	C	0.844023	0.258631	0.674611
C88	C	1.344023	0.758631	1.174611
C89	C	0.844036	0.258632	0.761163
C90	C	1.344036	0.758632	1.261163
C91	C	0.946021	0.084957	0.761162
C92	C	1.446021	0.584957	1.261162
C93	C	0.946014	0.084951	0.674617
C94	C	1.446014	0.584951	1.174617
C95	C	0.895010	0.171785	0.631346
C96	C	1.395010	0.671785	1.131346
C97	C	0.895006	0.171784	0.537502
C98	C	1.395006	0.671784	1.037502
C99	C	0.895006	0.171776	0.462704
C100	C	1.395006	0.671776	0.962704
H101	H	0.506854	0.386067	0.000080
H102	H	1.006854	0.886067	0.500080
H103	H	1.026580	-0.437163	0.000196
H104	H	1.526580	0.062837	0.500196
H105	H	0.537293	-0.035648	0.000115
H106	H	1.037293	0.464352	0.500115
O107	O	0.972680	-0.253573	-0.143593
O108	O	1.472680	0.246427	0.356407
H109	H	1.031496	-0.302285	-0.144090
H110	H	1.531496	0.197715	0.355910
H111	H	0.109467	0.375352	0.000105
H112	H	0.609467	0.875352	0.500105
O113	O	0.260939	0.410206	0.000108
O114	O	0.760939	0.910206	0.500108
H115	H	0.214388	0.489926	0.000119
H116	H	0.714388	0.989926	0.500119
O117	O	0.817274	-0.402884	0.143801
O118	O	1.317274	0.097116	0.643801
H119	H	0.816446	-0.508537	0.143406
H120	H	1.316446	-0.008537	0.643406
O121	O	0.743964	-0.202523	0.000166
O122	O	1.243964	0.297477	0.500166
H123	H	0.713732	-0.229838	0.056523
H124	H	1.213732	0.270162	0.556523
H125	H	0.987509	0.014219	0.203815
H126	H	1.487509	0.514219	0.703815
H127	H	0.680540	-0.031796	0.000094
H128	H	1.180540	0.468204	0.500094
H129	H	0.987512	0.014220	0.360821
H130	H	1.487512	0.514220	0.860821
H131	H	0.987537	0.014242	0.639387
H132	H	1.487537	0.514242	1.139387
H133	H	0.987549	0.014248	0.796403
H134	H	1.487549	0.514248	1.296403
O135	O	0.817314	-0.402796	-0.143596
O136	O	1.317314	0.097204	0.356404
H137	H	0.758157	-0.355529	-0.143454
H138	H	1.258157	0.144471	0.356546
O139	O	0.131694	-0.077364	0.000143
O140	O	0.631694	0.422636	0.500143
H141	H	0.178243	-0.157088	0.000160
H142	H	0.678243	0.342912	0.500160
H143	H	0.283156	-0.042514	0.000127
H144	H	0.783156	0.457486	0.500127
H145	H	0.802477	0.329310	0.360821
H146	H	1.302477	0.829310	0.860821
O147	O	0.789049	0.352318	0.807841
O148	O	1.289049	0.852318	1.307841
H149	H	0.753582	0.412700	0.763213
H150	H	1.253582	0.912700	1.263213
O151	O	0.972632	-0.253867	0.143970
O152	O	1.472632	0.246133	0.643970
H153	H	0.973965	-0.148320	0.143396
H154	H	1.473965	0.351680	0.643396
O155	O	0.789019	0.352291	0.627946
O156	O	1.289019	0.852291	1.127946
H157	H	0.799210	0.451701	0.644542
H158	H	1.299210	0.951701	1.144542
O159	O	0.658313	0.420922	0.000072
O160	O	1.158313	0.920922	0.500072
H161	H	0.611759	0.500639	0.000083
H162	H	1.111759	1.000639	0.500083
O163	O	0.788991	0.352263	0.192358
O164	O	1.288991	0.852263	0.692358
H165	H	0.753541	0.412660	0.236986
H166	H	1.253541	0.912660	0.736986
