data_functionalizedCrystal
_audit_creation_method	'MofGen! by Chris Wilmer'
_symmetry_space_group_name_H-M	'P1'
_symmetry_Int_Tables_number	1
_symmetry_cell_setting	triclinic
loop_
_symmetry_equiv_pos_as_xyz
  x,y,z
_cell_length_a	27.731993
_cell_length_b	27.732064
_cell_length_c	12.996460
_cell_angle_alpha	89.997944
_cell_angle_beta	90.005946
_cell_angle_gamma	82.634907
loop_
_atom_site_label
_atom_site_type_symbol
_atom_site_fract_x
_atom_site_fract_y
_atom_site_fract_z
O1	O	0.640949	0.057392	-0.085282
O2	O	0.500152	0.066165	-0.085343
O3	O	0.574919	-0.008619	-0.085314
O4	O	0.566182	0.132175	-0.085310
O5	O	0.574911	-0.008623	0.085819
O6	O	0.500144	0.066161	0.085791
O7	O	0.640941	0.057388	0.085852
Cu8	Cu	0.570542	0.061774	0.101447
Cu9	Cu	0.570551	0.061779	-0.100938
O10	O	0.566174	0.132171	0.085824
C11	C	0.482141	0.065983	0.000216
C12	C	0.428484	0.065441	0.000192
C13	C	0.045328	0.061512	-0.093043
C14	C	0.246986	0.063579	-0.093071
O15	O	0.273062	0.063829	-0.172408
N16	N	0.272202	0.063836	0.000212
C17	C	0.247001	0.063572	0.093508
O18	O	0.273076	0.063832	0.172851
C19	C	0.045345	0.061501	0.093535
C20	C	0.020130	0.061250	0.000246
C21	C	0.020114	0.061260	-0.186325
C22	C	-0.030298	0.060746	-0.186317
C23	C	-0.055495	0.060484	-0.093027
C24	C	-0.030281	0.060736	0.000254
C25	C	0.020145	0.061234	0.186831
C26	C	-0.030272	0.060716	0.186829
C27	C	-0.055486	0.060464	0.093540
C28	C	-0.105891	0.059960	0.093551
N29	N	-0.131107	0.059703	0.000268
C30	C	-0.105909	0.059965	-0.093021
C31	C	0.352873	0.064660	0.093488
C32	C	0.403287	0.065178	0.093481
C33	C	0.403268	0.065185	-0.093099
C34	C	0.352853	0.064670	-0.093091
C35	C	0.327657	0.064404	0.000205
C36	C	-0.211777	0.058886	-0.092997
C37	C	-0.262194	0.058374	-0.092981
C38	C	-0.262171	0.058365	0.093598
C39	C	-0.211759	0.058880	0.093582
C40	C	-0.186563	0.059139	0.000276
O41	O	-0.131998	0.059704	0.172847
O42	O	-0.131992	0.059694	-0.172351
C43	C	0.095740	0.062026	-0.093051
C44	C	0.120954	0.062278	0.000230
C45	C	0.095756	0.062016	0.093520
C46	C	0.171368	0.062797	0.000224
C47	C	0.196565	0.063059	-0.093066
C48	C	0.171349	0.062802	-0.186348
C49	C	0.120937	0.062288	-0.186341
C50	C	0.120972	0.062273	0.186803
C51	C	0.171384	0.062787	0.186787
C52	C	0.196582	0.063049	0.093498
C53	C	0.574730	-0.026627	0.000249
C54	C	0.574174	-0.080282	0.000239
C55	C	0.526206	-0.457345	0.000214
C56	C	0.528252	-0.255685	0.000214
O57	O	0.491030	-0.224425	0.000157
N58	N	0.572588	-0.236566	0.000233
C59	C	0.616415	-0.267866	0.000246
O60	O	0.654172	-0.246977	0.000251
C61	C	0.614368	-0.469525	0.000239
C62	C	0.570030	-0.488641	0.000230
C63	C	0.481871	-0.476461	0.000204
C64	C	0.481360	-0.526873	0.000210
C65	C	0.525184	-0.558169	0.000226
C66	C	0.569518	-0.539053	0.000236
C67	C	0.658194	-0.500824	0.000244
C68	C	0.657679	-0.551241	0.000240
C69	C	0.613340	-0.570357	0.000231
C70	C	0.612831	-0.620761	0.000257
N71	N	0.568496	-0.639879	0.000238
C72	C	0.524672	-0.608584	0.000222
C73	C	0.617486	-0.161992	0.000251
C74	C	0.617998	-0.111577	0.000255
C75	C	0.529835	-0.099400	0.000221
C76	C	0.529324	-0.149815	0.000225
C77	C	0.573151	-0.181111	0.000232
C78	C	0.523602	-0.714453	0.000235
C79	C	0.523095	-0.764870	0.000245
C80	C	0.611257	-0.777043	0.000273
C81	C	0.611765	-0.726630	0.000269
C82	C	0.567933	-0.695336	0.000246
O83	O	0.650033	-0.652049	0.000303
O84	O	0.486920	-0.629482	0.000194
C85	C	0.526717	-0.406933	0.000209
C86	C	0.571052	-0.387817	0.000219
C87	C	0.614875	-0.419112	0.000234
C88	C	0.571564	-0.337402	0.000222
C89	C	0.527740	-0.306107	0.000206
C90	C	0.483404	-0.325225	0.000187
C91	C	0.482893	-0.375637	0.000193
C92	C	0.659211	-0.399994	0.000253
C93	C	0.659718	-0.349581	0.000249
C94	C	0.615895	-0.318285	0.000233
C95	C	0.658952	0.057570	0.000291
C96	C	0.712608	0.058112	0.000308
C97	C	0.566362	0.150180	0.000258
C98	C	0.566918	0.203834	0.000261
N99	N	0.570539	0.061770	0.243794
N100	N	0.570558	0.061779	-0.243285
C101	C	0.570550	0.061779	0.663609
C102	C	0.570546	0.061778	0.546804
C103	C	0.570545	0.061775	0.453705
C104	C	0.570540	0.061773	0.336893
H105	H	-0.282696	0.058154	0.169552
N106	N	0.704949	-0.584997	0.000261
H107	H	0.706705	-0.606187	-0.063175
H108	H	0.733085	-0.565202	0.000308
N109	N	0.476331	-0.680699	0.000219
H110	H	0.456969	-0.686811	-0.063222
H111	H	0.457012	-0.686829	0.063699
H112	H	0.445255	-0.542432	0.000194
H113	H	0.446183	-0.450985	0.000188
H114	H	-0.191269	0.059098	-0.168976
H115	H	0.494152	-0.073910	0.000213
H116	H	0.493220	-0.165376	0.000222
N117	N	0.093799	0.061989	0.287427
H118	H	0.117471	0.061904	0.346511
H119	H	0.068960	0.091917	0.291798
H120	H	0.694299	-0.485269	0.000250
N121	N	0.325700	0.064373	0.194120
H122	H	0.349372	0.064290	0.253203
H123	H	0.300859	0.094300	0.198493
N124	N	0.093750	0.062011	-0.286964
H125	H	0.076979	0.031820	-0.291126
H126	H	0.068714	0.091792	-0.291071
H127	H	0.654103	-0.096018	0.000278
N128	N	0.198531	0.063087	-0.286970
H129	H	0.234293	0.063451	-0.272808
H130	H	0.193862	0.033020	-0.327707
H131	H	0.332327	0.064465	-0.169055
H132	H	-0.050822	0.060539	-0.262282
H133	H	0.446789	-0.391196	0.000187
N134	N	0.707546	-0.328970	0.000267
H135	H	0.726726	-0.340410	-0.063168
H136	H	0.701186	-0.292287	0.000299
N137	N	-0.057446	0.060426	0.287459
H138	H	-0.033775	0.060342	0.346545
H139	H	-0.082289	0.090351	0.291834
H140	H	0.647868	-0.711066	0.000291
N141	N	0.706480	-0.433745	0.000274
H142	H	0.734641	-0.413979	0.000287
H143	H	0.708186	-0.454924	0.063722
N144	N	0.430474	0.065460	0.194104
H145	H	0.425847	0.035391	0.234885
H146	H	0.466224	0.065847	0.179874
N147	N	0.664759	-0.195743	0.000266
H148	H	0.692919	-0.175977	0.000284
H149	H	0.666466	-0.216926	0.063710
N150	N	-0.184560	0.059155	0.194197
H151	H	-0.167785	0.089344	0.198356
H152	H	-0.208203	0.058895	0.253236
N153	N	0.658522	-0.810802	0.000300
H154	H	0.651467	-0.845639	0.000299
H155	H	0.677863	-0.804652	-0.063137
N156	N	0.198576	0.063064	0.287413
H157	H	0.174959	0.062820	0.346507
H158	H	0.223636	0.033300	0.291474
N159	N	0.436137	-0.291466	0.000189
H160	H	0.443193	-0.256629	0.000192
H161	H	0.416795	-0.297613	-0.063256
H162	H	-0.282721	0.058171	-0.168952
N163	N	0.430450	0.065468	-0.193720
H164	H	0.466212	0.065834	-0.179560
H165	H	0.425782	0.035399	-0.234453
N166	N	0.047332	0.061508	0.287451
H167	H	0.023713	0.061261	0.346540
H168	H	0.072393	0.031745	0.291514
H169	H	0.486988	-0.780431	0.000243
H170	H	0.040625	0.061472	-0.262296
