data_functionalizedCrystal
_audit_creation_method	'MofGen! by Chris Wilmer'
_symmetry_space_group_name_H-M	'P1'
_symmetry_Int_Tables_number	1
_symmetry_cell_setting	triclinic
loop_
_symmetry_equiv_pos_as_xyz
  x,y,z
_cell_length_a	19.188930
_cell_length_b	17.666332
_cell_length_c	19.188930
_cell_angle_alpha	89.989658
_cell_angle_beta	96.855221
_cell_angle_gamma	90.023133
loop_
_atom_site_label
_atom_site_type_symbol
_atom_site_fract_x
_atom_site_fract_y
_atom_site_fract_z
O1	O	0.926150	0.063200	-0.087168
O2	O	1.426150	0.563200	0.412832
O3	O	0.722838	0.063149	-0.098902
O4	O	1.222838	0.563149	0.401098
O5	O	0.830361	0.063161	0.008621
O6	O	1.330361	0.563161	0.508621
O7	O	0.818627	0.063188	-0.194690
O8	O	1.318627	0.563188	0.305310
O9	O	0.830342	-0.062735	0.008624
O10	O	1.330342	0.437265	0.508624
O11	O	0.722819	-0.062747	-0.098899
O12	O	1.222819	0.437253	0.401101
O13	O	0.926131	-0.062697	-0.087164
O14	O	1.426131	0.437303	0.412836
Cu15	Cu	0.824473	-0.074217	-0.093031
Cu16	Cu	1.324473	0.425783	0.406969
Cu17	Cu	0.824496	0.074670	-0.093035
Cu18	Cu	1.324496	0.574670	0.406965
O19	O	0.818608	-0.062709	-0.194687
O20	O	1.318608	0.437291	0.305313
C21	C	0.696818	0.000194	-0.098520
C22	C	1.196818	0.500194	0.401480
C23	C	0.619313	0.000174	-0.097380
C24	C	1.119313	0.500174	0.402620
N25	N	0.824463	-0.178937	-0.093028
N26	N	1.324463	0.321063	0.406972
C27	C	0.574389	0.000194	-0.160470
C28	C	1.074389	0.500194	0.339530
C29	C	0.501566	0.000203	-0.159399
C30	C	1.001566	0.500203	0.340601
C31	C	0.473669	0.000206	-0.095233
C32	C	0.973669	0.500206	0.404767
C33	C	0.518603	0.000181	-0.032133
C34	C	1.018603	0.500181	0.467867
C35	C	0.591425	0.000166	-0.033207
C36	C	1.091425	0.500166	0.466793
N37	N	0.365695	0.043078	-0.046187
N38	N	0.865695	0.543078	0.453813
N39	N	0.296517	0.043095	-0.045171
N40	N	0.796517	0.543095	0.454829
C41	C	0.254260	0.000252	-0.091994
C42	C	0.754260	0.500252	0.408006
N43	N	0.283795	-0.042599	-0.139882
N44	N	0.783795	0.457401	0.360118
N45	N	0.352979	-0.042612	-0.140900
N46	N	0.852979	0.457388	0.359100
C47	C	0.394707	0.000222	-0.094062
C48	C	0.894707	0.500222	0.405938
C49	C	0.130372	0.000280	-0.153928
C50	C	0.630372	0.500280	0.346072
C51	C	0.057547	0.000283	-0.152853
C52	C	0.557547	0.500283	0.347147
C53	C	0.074586	0.000270	-0.025586
C54	C	0.574586	0.500270	0.474414
C55	C	0.147409	0.000258	-0.026662
C56	C	0.647409	0.500258	0.473338
C57	C	0.175298	0.000267	-0.090835
C58	C	0.675298	0.500267	0.409165
C59	C	0.866672	-0.218523	-0.135274
C60	C	1.366672	0.281477	0.364726
C61	C	0.866683	-0.297771	-0.135272
C62	C	1.366683	0.202229	0.364728
C63	C	0.824472	-0.337429	-0.093032
C64	C	1.324472	0.162571	0.406968
C65	C	0.782261	-0.297833	-0.050778
C66	C	1.282261	0.202167	0.449222
C67	C	0.782256	-0.218587	-0.050776
C68	C	1.282256	0.281413	0.449224
N69	N	0.763324	-0.461884	-0.091312
N70	N	1.263324	0.038116	0.408688
N71	N	0.763330	-0.537165	-0.091318
N72	N	1.263330	-0.037165	0.408682
C73	C	0.824485	-0.576193	-0.093035
C74	C	1.324485	-0.076193	0.406965
N75	N	0.885634	-0.537097	-0.094759
N76	N	1.385634	-0.037097	0.405241
N77	N	0.885627	-0.461809	-0.094757
N78	N	1.385627	0.038191	0.405243
C79	C	0.824473	-0.423358	-0.093029
C80	C	1.324473	0.076642	0.406971
C81	C	0.866710	-0.701709	-0.135280
C82	C	1.366710	-0.201709	0.364720
C83	C	0.866722	-0.780958	-0.135273
C84	C	1.366722	-0.280958	0.364727
C85	C	0.782293	-0.781018	-0.050784
C86	C	1.282293	-0.281018	0.449216
C87	C	0.782287	-0.701771	-0.050787
C88	C	1.282287	-0.201771	0.449213
C89	C	0.824494	-0.662121	-0.093039
C90	C	1.324494	-0.162121	0.406961
C91	C	0.952151	0.000260	-0.087546
C92	C	1.452151	0.500260	0.412454
C93	C	1.029656	0.000285	-0.088687
C94	C	1.529656	0.500285	0.411313
C95	C	0.829972	0.000211	0.034634
C96	C	1.329972	0.500211	0.534634
C97	C	0.828831	0.000204	0.112138
C98	C	1.328831	0.500204	0.612138
N99	N	0.824512	0.179390	-0.093032
N100	N	1.324512	0.679390	0.406968
C101	C	0.818997	0.000244	-0.220700
C102	C	1.318997	0.500244	0.279300
C103	C	0.820138	0.000255	-0.298204
C104	C	1.320138	0.500255	0.201796
C105	C	0.891922	0.000216	0.157062
C106	C	1.391922	0.500216	0.657062
C107	C	0.890850	0.000228	0.229886
C108	C	1.390850	0.500228	0.729886
C109	C	0.826684	0.000212	0.257782
C110	C	1.326684	0.500212	0.757782
C111	C	0.763585	0.000205	0.212849
C112	C	1.263585	0.500205	0.712849
C113	C	0.764658	0.000200	0.140026
C114	C	1.264658	0.500200	0.640026
N115	N	0.777630	-0.042645	0.365788
N116	N	1.277630	0.457355	0.865788
N117	N	0.776615	-0.042642	0.434967
N118	N	1.276615	0.457358	0.934967
C119	C	0.823446	0.000227	0.477191
C120	C	1.323446	0.500227	0.977191
N121	N	0.871341	0.043084	0.447624
N122	N	1.371341	0.543084	0.947624
N123	N	0.872359	0.043079	0.378440
N124	N	1.372359	0.543079	0.878440
C125	C	0.825513	0.000218	0.336745
C126	C	1.325513	0.500218	0.836745
C127	C	0.885379	0.000253	0.601079
C128	C	1.385379	0.500253	1.101079
C129	C	0.884305	0.000270	0.673904
C130	C	1.384305	0.500270	1.173904
C131	C	0.757038	0.000239	0.656865
C132	C	1.257038	0.500239	1.156865
C133	C	0.758114	0.000230	0.584042
C134	C	1.258114	0.500230	1.084042
C135	C	0.822287	0.000233	0.556154
C136	C	1.322287	0.500233	1.056154
H137	H	0.597091	0.000203	-0.212725
H138	H	1.097091	0.500203	0.287275
H139	H	0.747883	-0.186356	-0.016374
H140	H	1.247883	0.313644	0.483626
C141	C	0.649979	0.064914	0.547092
C142	C	1.149979	0.564914	1.047092
C143	C	0.688760	0.000205	0.534659
C144	C	1.188760	0.500205	1.034659
H145	H	0.607159	0.064896	0.516607
H146	H	1.107159	0.564896	1.016607
H147	H	0.676305	0.108814	0.538642
H148	H	1.176305	0.608814	1.038642
H149	H	0.640164	0.064907	0.594456
H150	H	1.140164	0.564907	1.094456
H151	H	0.698580	0.000215	0.487295
H152	H	1.198580	0.500215	0.987295
H153	H	0.662429	-0.043707	0.543103
H154	H	1.162429	0.456293	1.043103
H155	H	0.183988	0.000246	0.024713
H156	H	0.683988	0.500246	0.524713
H157	H	0.495885	0.000194	0.020111
H158	H	0.995885	0.500194	0.520111
H159	H	0.711340	0.000194	0.235567
H160	H	1.211340	0.500194	0.735567
H161	H	0.901077	-0.669424	-0.169684
H162	H	1.401077	-0.169424	0.330316
H163	H	0.704792	0.000230	0.679578
H164	H	1.204792	0.500230	1.179578
C165	C	0.960417	-0.064457	0.529090
C166	C	1.460417	0.435543	1.029090
C167	C	0.955917	0.000267	0.570422
C168	C	1.455917	0.500267	1.070422
H169	H	1.003967	-0.064448	0.510170
H170	H	1.503967	0.435552	1.010170
H171	H	0.923001	-0.064465	0.491911
H172	H	1.423001	0.435535	0.991911
H173	H	0.957346	-0.108352	0.557163
H174	H	1.457346	0.391648	1.057163
H175	H	0.958983	0.044162	0.542347
H176	H	1.458983	0.544162	1.042347
H177	H	0.993343	0.000283	0.607605
H178	H	1.493343	0.500283	1.107605
C179	C	0.492031	0.000242	-0.285304
C180	C	0.992031	0.500242	0.214696
C181	C	0.452173	0.000235	-0.228753
C182	C	0.952173	0.500235	0.271247
H183	H	0.461538	0.000269	-0.328119
H184	H	0.961538	0.500269	0.171881
H185	H	0.520758	-0.043668	-0.283085
H186	H	1.020758	0.456332	0.216915
H187	H	0.520819	0.044138	-0.283066
H188	H	1.020819	0.544138	0.216934
H189	H	0.423388	-0.043664	-0.230988
H190	H	0.923388	0.456336	0.269012
H191	H	0.423434	0.044150	-0.230973
H192	H	0.923434	0.544150	0.269027
C193	C	0.992467	0.065004	0.710822
C194	C	1.492467	0.565004	1.210822
C195	C	0.953662	0.000284	0.723286
C196	C	1.453662	0.500284	1.223286
H197	H	1.035287	0.065008	0.741306
H198	H	1.535287	0.565008	1.241306
H199	H	0.966158	0.108896	0.719251
H200	H	1.466158	0.608896	1.219251
H201	H	1.002281	0.064990	0.663457
H202	H	1.502281	0.564990	1.163457
H203	H	0.943843	0.000300	0.770649
H204	H	1.443843	0.500300	1.270649
H205	H	0.979976	-0.043620	0.714862
H206	H	1.479976	0.456380	1.214862
C207	C	0.600951	0.000156	0.092697
C208	C	1.100951	0.500156	0.592697
C209	C	0.640811	0.000152	0.036148
C210	C	1.140811	0.500152	0.536148
H211	H	0.631442	0.000154	0.135513
H212	H	1.131442	0.500154	0.635513
H213	H	0.572174	-0.043740	0.090473
H214	H	1.072174	0.456260	0.590473
H215	H	0.572212	0.044066	0.090463
H216	H	1.072212	0.544066	0.590463
H217	H	0.669546	-0.043761	0.038380
H218	H	1.169546	0.456239	0.538380
H219	H	0.669599	0.044053	0.038374
H220	H	1.169599	0.544053	0.538374
H221	H	0.747893	-0.330128	-0.016386
H222	H	1.247893	0.169872	0.483614
H223	H	0.944176	0.000222	0.134360
H224	H	1.444176	0.500222	0.634360
H225	H	0.747925	-0.813307	-0.016391
H226	H	1.247925	-0.313307	0.483609
H227	H	0.153080	0.000276	-0.206181
H228	H	0.653080	0.500276	0.293819
H229	H	0.901099	-0.813188	-0.169672
H230	H	1.401099	-0.313188	0.330328
H231	H	0.942228	0.000241	0.266470
H232	H	1.442228	0.500241	0.766470
C233	C	-0.034196	0.065032	-0.225470
C234	C	0.465804	0.565032	0.274530
C235	C	0.008163	0.000307	-0.222208
C236	C	0.508163	0.500307	0.277792
H237	H	-0.064687	0.065044	-0.268287
H238	H	0.435313	0.565044	0.231713
H239	H	-0.005410	0.108921	-0.223243
H240	H	0.494590	0.608921	0.276757
H241	H	-0.061228	0.065019	-0.187099
H242	H	0.438772	0.565019	0.312901
H243	H	0.035198	0.000322	-0.260578
H244	H	0.535198	0.500322	0.239422
H245	H	-0.020627	-0.043593	-0.224443
H246	H	0.479373	0.456407	0.275557
H247	H	0.051874	0.000319	0.026659
H248	H	0.551874	0.500319	0.526659
H249	H	0.747913	-0.669539	-0.016389
H250	H	1.247913	-0.169539	0.483611
H251	H	0.901043	-0.186245	-0.169676
H252	H	1.401043	0.313755	0.330324
H253	H	0.901055	-0.330008	-0.169675
H254	H	1.401055	0.169992	0.330325
C255	C	0.709798	0.000183	0.020832
C256	C	1.209798	0.500183	0.520832
C257	C	0.695304	0.000185	0.090640
C258	C	1.195304	0.500185	0.590640
H259	H	0.666980	0.000177	-0.009657
H260	H	1.166980	0.500177	0.490343
H261	H	0.736105	-0.043714	0.012412
H262	H	1.236105	0.456286	0.512412
H263	H	0.736128	0.044092	0.012395
H264	H	1.236128	0.544092	0.512395
H265	H	0.668978	-0.043728	0.099078
H266	H	1.168978	0.456272	0.599078
H267	H	0.668986	0.044086	0.099063
H268	H	1.168986	0.544086	0.599063
