data_functionalizedCrystal
_audit_creation_method	'MofGen! by Chris Wilmer'
_symmetry_space_group_name_H-M	'P1'
_symmetry_Int_Tables_number	1
_symmetry_cell_setting	triclinic
loop_
_symmetry_equiv_pos_as_xyz
  x,y,z
_cell_length_a	23.196402
_cell_length_b	14.560438
_cell_length_c	14.560438
_cell_angle_alpha	59.995857
_cell_angle_beta	89.997611
_cell_angle_gamma	59.999449
loop_
_atom_site_label
_atom_site_type_symbol
_atom_site_fract_x
_atom_site_fract_y
_atom_site_fract_z
Zr1	Zr	0.555378	1.005293	-0.120610
O2	O	0.463326	1.196908	-0.267268
O3	O	0.583596	0.813683	-0.075643
O4	O	0.583597	1.005295	-0.267259
O5	O	0.463326	1.005294	0.075490
O6	O	0.678468	1.005291	-0.267263
O7	O	0.463326	1.005296	-0.075651
O8	O	0.678467	0.662533	0.075505
O9	O	0.463327	1.348052	-0.267277
O10	O	0.666433	0.892491	-0.056478
O11	O	0.595631	0.892492	0.056320
O12	O	0.595632	1.118089	-0.169284
O13	O	0.524831	1.118090	-0.056487
Zr14	Zr	0.706688	1.005283	0.120437
Zr15	Zr	0.706687	1.005287	-0.120615
Zr16	Zr	0.555378	1.005289	0.120443
Zr17	Zr	0.555379	1.246350	-0.120625
Zr18	Zr	0.706687	0.764226	0.120453
O19	O	0.678470	1.196893	0.075470
O20	O	0.678469	1.196899	-0.267275
O21	O	0.463327	1.196902	0.075478
O22	O	0.798739	0.813668	0.267095
O23	O	0.798739	0.813674	-0.075650
O24	O	0.583596	0.813677	0.267103
O25	O	0.798740	1.005282	-0.075662
O26	O	0.678469	1.005281	0.267087
O27	O	0.583597	1.005285	0.267090
O28	O	0.798740	1.005280	0.075479
O29	O	0.583598	1.348047	-0.267281
O30	O	0.678467	0.662529	0.267109
O31	O	0.798738	0.662524	0.267105
O32	O	0.798738	0.662528	0.075501
O33	O	0.463327	1.348048	-0.075673
O34	O	0.583598	1.348043	-0.075677
O35	O	0.666433	0.892487	0.169112
O36	O	0.737235	0.892486	0.056315
O37	O	0.666434	1.118085	-0.056492
O38	O	0.595632	1.118085	0.056305
C39	C	0.631031	0.703763	-0.000067
C40	C	0.631031	0.601428	-0.000060
C41	C	0.578764	0.636645	-0.083341
C42	C	0.578767	0.540505	-0.083370
C43	C	0.683307	0.373931	0.083173
C44	C	0.683306	0.470070	0.083196
C45	C	0.441767	1.005296	-0.000080
C46	C	0.377532	1.005298	-0.000078
C47	C	0.347360	1.005309	-0.083348
C48	C	0.287009	1.005298	-0.083347
C49	C	0.256824	1.005301	-0.000086
C50	C	0.287006	1.005283	0.083199
C51	C	0.347360	1.005281	0.083203
C52	C	0.137450	1.080987	0.025855
C53	C	0.077094	1.080997	0.025843
C54	C	0.070674	1.005300	-0.000092
C55	C	0.124611	0.929610	-0.026039
C56	C	0.184966	0.929608	-0.026035
C57	C	0.191381	1.005302	-0.000080
C58	C	-0.024937	1.005296	-0.083366
C59	C	-0.085287	1.005276	-0.083359
C60	C	-0.085293	1.005275	0.083184
C61	C	-0.024940	1.005281	0.083180
C62	C	0.005232	1.005298	-0.000100
C63	C	0.820298	1.005280	-0.000093
C64	C	0.884533	1.005278	-0.000095
C65	C	0.631032	1.005293	-0.301606
C66	C	0.631032	1.005295	-0.403939
C67	C	0.631034	1.306814	-0.000106
C68	C	0.631035	1.409149	-0.000112
C69	C	0.683298	1.005294	-0.452016
C70	C	0.683300	1.005282	-0.548162
C71	C	0.578765	1.005278	-0.548147
C72	C	0.578766	1.005280	-0.451998
C73	C	0.631033	1.005283	0.301433
C74	C	0.631033	1.005281	0.403766
C75	C	0.820297	0.703755	-0.000073
C76	C	0.884531	0.601417	-0.000069
C77	C	0.631032	0.703757	0.301453
C78	C	0.631031	0.601420	0.403792
C79	C	0.820297	0.703749	0.301446
C80	C	0.884532	0.601410	0.403784
C81	C	0.441769	1.306827	-0.301619
C82	C	0.377534	1.409166	-0.403956
C83	C	0.441769	1.306821	-0.000099
C84	C	0.377534	1.409159	-0.000103
C85	C	0.631034	1.306819	-0.301625
C86	C	0.631034	1.409156	-0.403965
C87	C	0.877738	0.553361	-0.058953
C88	C	0.938088	0.457217	-0.058972
C89	C	1.005229	0.409125	-0.000098
C90	C	1.012020	0.457191	0.058788
C91	C	0.951672	0.553339	0.058799
C92	C	0.951661	0.553350	0.392963
C93	C	1.012022	0.457204	0.489111
C94	C	1.005252	0.409114	0.596078
C95	C	0.938115	0.457184	0.606896
C96	C	0.877756	0.553334	0.510749
C97	C	0.310405	1.457238	-0.393136
C98	C	0.250044	1.553413	-0.489283
C99	C	0.256814	1.601508	-0.596250
C100	C	0.323950	1.553432	-0.607068
C101	C	0.384309	1.457265	-0.510922
C102	C	0.384327	1.457225	0.058771
C103	C	0.323978	1.553396	0.058763
C104	C	0.256836	1.601491	-0.000114
C105	C	0.250045	1.553421	-0.058996
C106	C	0.310394	1.457259	-0.058993
C107	C	0.667988	0.553338	0.510748
C108	C	0.667980	0.457191	0.606903
C109	C	0.594056	0.457213	0.489133
C110	C	0.594061	0.553365	0.392980
H111	H	0.371926	1.005319	-0.151157
O112	O	0.191705	1.705246	-0.699943
H113	H	0.159833	1.668345	-0.699874
H114	H	0.698089	0.592466	0.519558
O115	O	0.930817	0.405293	0.722270
H116	H	0.984071	0.330346	0.787298
O117	O	0.739664	1.005305	-0.600034
H118	H	0.776000	1.005331	-0.550466
H119	H	0.438991	1.418073	0.106723
H120	H	0.536207	0.569192	-0.151186
H121	H	0.698073	0.418048	0.693988
O122	O	0.191751	1.705206	-0.000103
H123	H	0.143918	1.730589	-0.050939
H124	H	0.957212	0.592454	0.106756
H125	H	0.957186	0.592491	0.305874
O126	O	0.007601	1.005284	0.172989
H127	H	0.062730	0.917225	0.221007
H128	H	0.725867	0.266971	0.150958
H129	H	0.536205	1.005277	-0.412849
O130	O	0.805356	0.605138	0.522442
H131	H	0.776076	0.711207	0.481466
H132	H	0.563958	0.418073	0.480344
O133	O	0.177640	1.605241	-0.477593
H134	H	0.136800	1.680206	-0.562414
H135	H	1.054363	0.330833	-0.000116
O136	O	1.084428	0.405353	0.477432
H137	H	1.078989	0.454932	0.386896
H138	H	0.119386	0.867975	-0.047164
O139	O	0.522386	1.005284	-0.599992
H140	H	0.531159	1.005299	-0.674937
O141	O	0.303094	1.405381	-0.277770
H142	H	0.246270	1.454990	-0.286418
O143	O	1.084439	0.405304	0.122297
H144	H	1.125255	0.330362	0.112401
O145	O	1.070357	0.305395	0.699777
H146	H	1.118171	0.280050	0.674271
O147	O	0.331248	1.605302	-0.722442
H148	H	0.277995	1.680235	-0.787471
H149	H	0.438968	1.418126	-0.519745
H150	H	0.329521	1.592518	0.106716
H151	H	0.195371	1.592595	-0.106931
H152	H	0.725872	0.441383	0.151016
O153	O	0.018913	1.162597	0.053839
H154	H	0.011460	1.098719	0.128812
H155	H	0.304853	1.418126	-0.106933
H156	H	0.262438	1.005306	-0.151158
O157	O	0.554303	0.605071	0.277607
H158	H	0.528641	0.555430	0.286241
H159	H	0.228881	0.867976	-0.047159
O160	O	0.522393	0.778323	-0.173147
H161	H	0.486055	0.786655	-0.231070
H162	H	-0.109851	1.005277	-0.151165
O163	O	0.007618	1.005303	-0.173176
H164	H	0.023681	0.917243	-0.169069
O165	O	-0.117832	1.005268	0.173001
H166	H	-0.172963	1.093323	0.132965
O167	O	0.144374	1.162636	0.053828
H168	H	0.100234	1.266388	-0.007492
O169	O	0.254454	1.005292	0.173004
H170	H	0.207411	1.005310	0.159005
H171	H	0.371927	1.005272	0.151013
H172	H	0.823074	0.592517	-0.106909
H173	H	0.932544	0.418094	-0.106924
H174	H	0.725857	1.005303	-0.412887
