data_functionalizedCrystal
_audit_creation_method	'MofGen! by Chris Wilmer'
_symmetry_space_group_name_H-M	'P1'
_symmetry_Int_Tables_number	1
_symmetry_cell_setting	triclinic
loop_
_symmetry_equiv_pos_as_xyz
  x,y,z
_cell_length_a	13.897449
_cell_length_b	12.645330
_cell_length_c	13.897441
_cell_angle_alpha	89.970564
_cell_angle_beta	89.979267
_cell_angle_gamma	90.013926
loop_
_atom_site_label
_atom_site_type_symbol
_atom_site_fract_x
_atom_site_fract_y
_atom_site_fract_z
Zn1	Zn	1.474736	-0.421969	-0.545389
Zn2	Zn	1.974736	0.078031	-0.045389
Zn3	Zn	1.474645	-0.599265	-0.384094
Zn4	Zn	1.974645	-0.099265	0.115906
Zn5	Zn	1.313426	-0.422020	-0.384107
Zn6	Zn	1.813426	0.077980	0.115893
Zn7	Zn	1.313421	-0.599195	-0.545346
Zn8	Zn	1.813421	-0.099195	-0.045346
O9	O	1.394057	-0.510612	-0.464734
O10	O	1.894057	-0.010612	0.035266
O11	O	1.609706	-0.445496	-0.524005
O12	O	2.109706	0.054504	-0.024005
O13	O	1.453222	-0.575803	-0.249114
O14	O	1.953222	-0.075803	0.250886
O15	O	1.334864	-0.273666	-0.405525
O16	O	1.834864	0.226334	0.094475
O17	O	1.609638	-0.575754	-0.405502
O18	O	2.109638	-0.075754	0.094498
O19	O	1.453378	-0.273629	-0.524018
O20	O	1.953378	0.226371	-0.024018
O21	O	1.334775	-0.445582	-0.249124
O22	O	1.834775	0.054418	0.250876
O23	O	1.178443	-0.445514	-0.405484
O24	O	1.678443	0.054486	0.094516
O25	O	1.334857	-0.575635	-0.680334
O26	O	1.834857	-0.075635	-0.180334
O27	O	1.178440	-0.575684	-0.523945
O28	O	1.678440	-0.075684	-0.023945
O29	O	1.453374	-0.445428	-0.680365
O30	O	1.953374	0.054572	-0.180365
O31	O	1.453218	-0.747603	-0.405461
O32	O	1.953218	-0.247603	0.094539
O33	O	1.334768	-0.747552	-0.523932
O34	O	1.834768	-0.247552	-0.023932
C35	C	1.143443	-0.510598	-0.464712
C36	C	1.643443	-0.010598	0.035288
C37	C	1.036229	-0.510618	-0.464726
C38	C	1.536229	-0.010618	0.035274
C39	C	1.394009	-0.786042	-0.464711
C40	C	1.894009	-0.286042	0.035289
C41	C	1.394076	-0.903872	-0.464734
C42	C	1.894076	-0.403872	0.035266
C43	C	0.839934	-0.510621	-0.464751
C44	C	1.339934	-0.010621	0.035249
C45	C	0.949166	-0.510616	-0.464734
C46	C	1.449166	-0.010616	0.035266
C47	C	1.468474	-1.071424	-0.390052
C48	C	1.968474	-0.571424	0.109948
C49	C	1.468716	-0.948864	-0.390235
C50	C	1.968716	-0.448864	0.109765
C51	C	1.421645	-0.948249	-0.566410
C52	C	1.921645	-0.448249	-0.066410
C53	C	1.422236	-1.070847	-0.566014
C54	C	1.922236	-0.570847	-0.066014
C55	C	1.292081	-1.071203	-0.438741
C56	C	1.792081	-0.571203	0.061259
C57	C	1.292570	-0.948599	-0.436461
C58	C	1.792570	-0.448599	0.063539
C59	C	1.645650	-0.510627	-0.464757
C60	C	2.145650	-0.010627	0.035243
C61	C	1.752864	-0.510634	-0.464766
C62	C	2.252864	-0.010634	0.035234
C63	C	1.394125	-0.510519	-0.716327
C64	C	1.894125	-0.010519	-0.216327
C65	C	1.394155	-0.510479	-0.823541
C66	C	1.894155	-0.010479	-0.323541
C67	C	1.394132	-0.234107	-0.464778
C68	C	1.894132	0.265893	0.035222
C69	C	1.394164	-0.116277	-0.464797
C70	C	1.894164	0.383723	0.035203
C71	C	1.394181	-0.510407	-1.019836
C72	C	1.894181	-0.010407	-0.519836
C73	C	1.394163	-0.510450	-0.910604
C74	C	1.894163	-0.010450	-0.410604
C75	C	1.394044	-0.510629	-0.214120
C76	C	1.894044	-0.010629	0.285880
C77	C	1.394202	-0.510370	-0.106906
C78	C	1.894202	-0.010370	0.393094
H79	H	1.451467	-0.918865	-0.314843
H80	H	1.951467	-0.418865	0.185157
C81	C	1.445640	-1.110986	-0.289306
C82	C	1.945640	-0.610986	0.210694
C83	C	1.364393	-1.176377	-0.292541
C84	C	1.864393	-0.676377	0.207459
C85	C	1.343332	-1.212851	-0.199751
C86	C	1.843332	-0.712851	0.300249
H87	H	1.433232	-1.052456	-0.248326
H88	H	1.933232	-0.552456	0.251674
H89	H	1.498876	-1.149919	-0.265152
H90	H	1.998876	-0.649919	0.234848
H91	H	1.311169	-1.137444	-0.316682
H92	H	1.811169	-0.637444	0.183318
H93	H	1.376779	-1.234923	-0.333503
H94	H	1.876779	-0.734923	0.166497
H95	H	1.396567	-1.251785	-0.175598
H96	H	1.896567	-0.751785	0.324402
H97	H	1.330928	-1.154316	-0.158778
H98	H	1.830928	-0.654316	0.341222
H99	H	1.288210	-1.257231	-0.201935
H100	H	1.788210	-0.757231	0.298065
C101	C	1.264945	-0.910186	-0.336585
C102	C	1.764945	-0.410186	0.163415
C103	C	1.251285	-0.997321	-0.275895
C104	C	1.751285	-0.497321	0.224105
C105	C	1.225882	-0.961988	-0.183865
C106	C	1.725882	-0.461988	0.316135
H107	H	1.207044	-0.870486	-0.340224
H108	H	1.707044	-0.370486	0.159776
H109	H	1.314896	-0.866820	-0.311678
H110	H	1.814896	-0.366820	0.188322
H111	H	1.201337	-1.040669	-0.300795
H112	H	1.701337	-0.540669	0.199205
H113	H	1.309174	-1.037030	-0.272227
H114	H	1.809174	-0.537030	0.227773
H115	H	1.275834	-0.918622	-0.158958
H116	H	1.775834	-0.418622	0.341042
H117	H	1.167983	-0.922287	-0.187514
H118	H	1.667983	-0.422287	0.312486
H119	H	1.216619	-1.021102	-0.142673
H120	H	1.716619	-0.521102	0.357327
H121	H	1.267011	-1.102216	-0.365890
H122	H	1.767011	-0.602216	0.134110
H123	H	1.234216	-0.917984	-0.486910
H124	H	1.734216	-0.417984	0.013090
C125	C	1.519931	-0.907068	-0.596468
C126	C	2.019931	-0.407068	-0.096468
C127	C	1.511100	-0.849310	-0.681989
C128	C	2.011100	-0.349310	-0.181989
C129	C	1.601621	-0.811350	-0.709694
C130	C	2.101621	-0.311350	-0.209694
H131	H	1.562367	-0.964927	-0.606366
H132	H	2.062367	-0.464927	-0.106366
H133	H	1.544883	-0.862618	-0.547351
H134	H	2.044883	-0.362618	-0.047351
H135	H	1.486162	-0.893758	-0.731095
H136	H	1.986162	-0.393758	-0.231095
H137	H	1.468682	-0.791436	-0.672114
H138	H	1.968682	-0.291436	-0.172114
H139	H	1.626573	-0.766900	-0.660577
H140	H	2.126573	-0.266900	-0.160577
H141	H	1.644049	-0.869216	-0.719587
H142	H	2.144049	-0.369216	-0.219587
H143	H	1.595640	-0.772149	-0.767717
H144	H	2.095640	-0.272149	-0.267717
H145	H	1.543677	-1.102152	-0.407093
H146	H	2.043677	-0.602152	0.092907
H147	H	1.369169	-0.919102	-0.623593
H148	H	1.869169	-0.419102	-0.123593
H149	H	1.370483	-1.100513	-0.623623
H150	H	1.870483	-0.600513	-0.123623
C151	C	1.569581	-0.909845	-0.413288
C152	C	2.069581	-0.409845	0.086712
C153	C	1.630543	-0.996659	-0.427105
C154	C	2.130543	-0.496659	0.072895
C155	C	1.723467	-0.960757	-0.448362
C156	C	2.223467	-0.460757	0.051638
H157	H	1.592838	-0.868183	-0.361411
H158	H	2.092838	-0.368183	0.138589
H159	H	1.568005	-0.868276	-0.470230
H160	H	2.068005	-0.368276	0.029770
H161	H	1.632123	-1.038211	-0.370170
H162	H	2.132123	-0.538211	0.129830
H163	H	1.607317	-1.038330	-0.478985
H164	H	2.107317	-0.538330	0.021015
H165	H	1.721891	-0.919188	-0.505304
H166	H	2.221891	-0.419188	-0.005304
H167	H	1.746714	-0.919095	-0.396481
H168	H	2.246714	-0.419095	0.103519
H169	H	1.764839	-1.019654	-0.457748
H170	H	2.264839	-0.519654	0.042252
H171	H	1.496853	-1.099357	-0.588085
H172	H	1.996853	-0.599357	-0.088085
H173	H	1.236714	-1.100210	-0.493181
H174	H	1.736714	-0.600210	0.006819
