data_functionalizedCrystal
_audit_creation_method	'MofGen! by Chris Wilmer'
_symmetry_space_group_name_H-M	'P1'
_symmetry_Int_Tables_number	1
_symmetry_cell_setting	triclinic
loop_
_symmetry_equiv_pos_as_xyz
  x,y,z
_cell_length_a	10.654550
_cell_length_b	11.026607
_cell_length_c	9.130313
_cell_angle_alpha	90.000037
_cell_angle_beta	89.996220
_cell_angle_gamma	96.535460
loop_
_atom_site_label
_atom_site_type_symbol
_atom_site_fract_x
_atom_site_fract_y
_atom_site_fract_z
O1	O	1.704901	0.170762	-0.121918
O2	O	1.342954	0.187032	-0.121895
O3	O	1.493930	0.001991	-0.121899
O4	O	1.553926	0.355802	-0.121914
O5	O	1.493929	0.001996	0.121700
O6	O	1.342953	0.187037	0.121704
O7	O	1.704900	0.170767	0.121681
Cu8	Cu	1.523927	0.178902	0.143935
Cu9	Cu	1.523928	0.178896	-0.144149
O10	O	1.553924	0.355807	0.121685
C11	C	1.295897	0.185839	-0.000092
C12	C	1.155677	0.182265	-0.000083
C13	C	1.482861	-0.043310	-0.000101
C14	C	1.449867	-0.178302	-0.000104
C15	C	1.099841	0.291214	-0.000109
C16	C	0.968090	0.287849	-0.000134
C17	C	0.948022	0.066576	-0.000114
C18	C	1.079771	0.069943	-0.000078
C19	C	1.111426	0.418964	-0.000127
C20	C	0.979675	0.415599	-0.000152
C21	C	1.540970	-0.251341	-0.000112
C22	C	1.506871	-0.390862	-0.000115
C23	C	1.751958	0.171959	-0.000125
C24	C	1.892177	0.175533	-0.000144
C25	C	1.564993	0.401109	-0.000116
C26	C	1.597988	0.536100	-0.000123
N27	N	1.523934	0.178906	0.346558
N28	N	1.523928	0.178883	-0.346771
C29	C	1.590814	0.096998	0.423208
C30	C	1.590808	0.096983	0.576544
C31	C	1.457040	0.260795	0.576568
C32	C	1.457040	0.260803	0.423234
C33	C	1.668049	0.002426	0.423195
C34	C	1.668043	0.002411	0.576532
H35	H	1.125227	-0.018774	-0.000036
O36	O	0.866153	-0.054570	-0.000115
H37	H	0.765158	-0.038610	-0.000149
O38	O	1.801865	0.030030	0.631657
H39	H	1.801774	0.029997	0.753224
O40	O	1.384898	0.349139	0.340554
H41	H	1.338395	0.406090	0.419636
O42	O	1.313109	-0.232286	-0.000088
H43	H	1.265616	-0.201528	-0.099374
O44	O	1.384909	0.349144	0.659260
H45	H	1.312185	0.297420	0.729131
O46	O	0.938217	0.479358	-0.135190
H47	H	1.022406	0.513227	-0.201291
H48	H	1.626321	-0.091025	0.381581
H49	H	1.151603	0.468929	0.101823
H50	H	1.403623	-0.431617	-0.000118
O51	O	1.797349	0.041638	0.360189
H52	H	1.793591	0.124368	0.291800
O53	O	1.170377	0.472846	-0.139428
H54	H	1.146770	0.567729	-0.152479
H55	H	1.644212	-0.210581	-0.000109
H56	H	1.701236	-0.423147	-0.000240
O57	O	0.930259	0.466742	0.139141
H58	H	1.010607	0.496586	0.213009
O59	O	1.602290	-0.114581	0.639544
H60	H	1.567433	-0.176597	0.548948
