data_functionalizedCrystal
_audit_creation_method	'MofGen! by Chris Wilmer'
_symmetry_space_group_name_H-M	'P1'
_symmetry_Int_Tables_number	1
_symmetry_cell_setting	triclinic
loop_
_symmetry_equiv_pos_as_xyz
  x,y,z
_cell_length_a	19.121321
_cell_length_b	19.120786
_cell_length_c	12.759393
_cell_angle_alpha	87.524000
_cell_angle_beta	92.418264
_cell_angle_gamma	90.133760
loop_
_atom_site_label
_atom_site_type_symbol
_atom_site_fract_x
_atom_site_fract_y
_atom_site_fract_z
Zn1	Zn	1.059842	-0.324746	-0.505615
Zn2	Zn	1.054745	-0.442003	-0.322760
Zn3	Zn	0.942602	-0.319786	-0.337749
Zn4	Zn	0.937576	-0.436959	-0.506197
O5	O	0.998691	-0.380873	-0.418081
O6	O	1.157267	-0.344487	-0.474843
O7	O	1.039839	-0.425825	-0.177727
O8	O	0.962390	-0.222333	-0.366047
O9	O	1.153522	-0.430635	-0.340500
O10	O	1.048526	-0.225977	-0.489377
O11	O	0.957448	-0.336033	-0.188740
O12	O	0.843834	-0.331142	-0.366611
O13	O	0.953824	-0.422039	-0.653141
O14	O	0.840141	-0.417230	-0.490368
O15	O	1.043653	-0.339596	-0.652714
O16	O	1.034966	-0.539444	-0.341064
O17	O	0.948882	-0.535739	-0.475834
C18	C	0.816551	-0.373101	-0.430180
C19	C	0.738630	-0.369793	-0.435380
C20	C	0.298024	-0.348780	-0.468356
C21	C	0.371239	-0.351902	-0.463464
C22	C	0.405891	-0.398242	-0.390968
C23	C	0.367324	-0.441468	-0.323367
C24	C	0.294110	-0.438350	-0.328266
C25	C	0.626850	-0.409901	-0.372678
C26	C	0.700068	-0.413014	-0.367782
C27	C	0.703978	-0.323449	-0.507880
C28	C	0.630764	-0.320332	-0.512768
C29	C	0.592203	-0.363560	-0.445172
C30	C	0.480728	-0.401432	-0.385963
C31	C	0.517367	-0.360373	-0.450183
C32	C	0.990844	-0.563031	-0.406907
C33	C	0.987552	-0.640962	-0.402158
C34	C	1.030818	-0.679409	-0.464195
C35	C	1.027721	-0.752633	-0.459735
C36	C	0.981361	-0.787409	-0.393231
C37	C	0.938091	-0.748956	-0.331192
C38	C	0.941184	-0.675733	-0.335658
C39	C	0.969775	-1.008402	-0.376535
C40	C	0.966686	-1.081630	-0.372071
C41	C	1.056316	-1.085302	-0.500616
C42	C	1.059409	-1.012078	-0.505072
C43	C	1.016135	-0.973632	-0.443037
C44	C	0.978196	-0.862255	-0.388668
C45	C	1.019297	-0.898786	-0.447606
C46	C	1.181542	-0.388677	-0.405935
C47	C	1.259463	-0.392002	-0.400759
C48	C	0.998746	-0.380808	-0.692115
C49	C	0.998770	-0.380781	-0.808892
C50	C	1.006587	-0.198005	-0.429319
C51	C	1.009952	-0.120078	-0.434108
C52	C	1.045547	-0.337845	-0.863533
C53	C	1.045560	-0.337816	-0.973258
C54	C	0.952017	-0.423662	-0.973691
C55	C	0.952001	-0.423688	-0.863968
C56	C	0.998678	-0.380889	-0.145113
C57	C	0.998799	-0.380725	-0.028340
H58	H	0.489150	-0.322646	-0.509212
C59	C	1.081805	-0.641162	-0.537364
H60	H	1.107121	-0.674550	-0.573682
H61	H	1.113575	-0.613888	-0.496940
H62	H	1.056166	-0.611462	-0.586633
C63	C	0.915683	-1.119882	-0.298923
H64	H	0.890349	-1.086498	-0.262624
H65	H	0.941306	-1.149588	-0.249651
H66	H	0.883920	-1.147151	-0.339377
H67	H	0.395543	-0.479202	-0.264344
H68	H	0.913940	-0.458597	-1.018547
H69	H	0.913904	-0.458650	-0.819478
C70	C	0.259914	-0.297809	-0.548106
H71	H	0.293368	-0.272521	-0.587671
H72	H	0.232653	-0.266009	-0.511790
H73	H	0.230217	-0.323458	-0.594080
C74	C	0.413654	-0.304352	-0.537813
H75	H	0.382531	-0.276300	-0.581679
H76	H	0.441077	-0.332421	-0.579968
H77	H	0.443514	-0.274987	-0.497654
H78	H	1.083628	-0.302906	-0.818693
H79	H	1.057041	-0.870470	-0.501758
H80	H	1.083650	-0.302852	-1.017743
C81	C	0.592648	-0.269364	-0.592520
H82	H	0.543522	-0.273694	-0.585750
H83	H	0.604231	-0.280197	-0.661645
H84	H	0.606669	-0.222752	-0.579348
H85	H	0.508949	-0.439159	-0.326933
C86	C	0.251692	-0.485892	-0.253907
H87	H	0.282814	-0.513932	-0.210023
H88	H	0.221831	-0.515256	-0.294053
H89	H	0.224271	-0.457813	-0.211753
H90	H	1.097158	-0.983766	-0.559225
C91	C	0.746396	-0.275909	-0.582239
H92	H	0.794962	-0.284405	-0.568949
H93	H	0.736422	-0.228277	-0.570683
H94	H	0.733978	-0.285727	-0.652973
H95	H	1.091546	-1.116613	-0.551123
C96	C	0.738184	-0.464001	-0.288049
H97	H	0.704733	-0.489308	-0.248502
H98	H	0.767886	-0.438368	-0.242072
H99	H	0.765439	-0.495795	-0.324398
H100	H	0.595462	-0.445099	-0.317633
H101	H	0.934542	-0.977105	-0.326021
C102	C	1.075316	-0.794923	-0.527973
H103	H	1.103375	-0.763725	-0.568210
H104	H	1.047279	-0.822344	-0.573761
H105	H	1.104669	-0.824782	-0.484041
H106	H	0.905952	-0.644430	-0.285142
C107	C	0.887098	-0.787207	-0.258037
H108	H	0.891457	-0.836323	-0.264252
H109	H	0.840495	-0.773235	-0.277210
H110	H	0.897895	-0.775667	-0.187503
H111	H	0.940452	-0.890578	-0.334518
