data_functionalizedCrystal
_audit_creation_method	'MofGen! by Chris Wilmer'
_symmetry_space_group_name_H-M	'P1'
_symmetry_Int_Tables_number	1
_symmetry_cell_setting	triclinic
loop_
_symmetry_equiv_pos_as_xyz
  x,y,z
_cell_length_a	19.288840
_cell_length_b	8.559649
_cell_length_c	18.366186
_cell_angle_alpha	89.994914
_cell_angle_beta	89.983729
_cell_angle_gamma	76.452340
loop_
_atom_site_label
_atom_site_type_symbol
_atom_site_fract_x
_atom_site_fract_y
_atom_site_fract_z
O1	O	0.911008	0.199216	-0.060666
O2	O	0.707344	0.226157	-0.060641
O3	O	0.827119	-0.020048	-0.060655
O4	O	0.791233	0.445421	-0.060652
O5	O	0.827101	-0.020060	0.060444
O6	O	0.707327	0.226145	0.060459
O7	O	0.910990	0.199204	0.060433
Zn8	Zn	0.809156	0.212673	0.079673
Zn9	Zn	0.809179	0.212689	-0.079881
O10	O	0.791216	0.445409	0.060447
C11	C	0.681503	0.225291	-0.000088
C12	C	0.604533	0.222709	-0.000078
C13	C	0.568404	0.221475	-0.066091
C14	C	0.496084	0.219031	-0.066100
C15	C	0.459900	0.217789	-0.000092
C16	C	0.496037	0.219032	0.065930
C17	C	0.568354	0.221492	0.065937
C18	C	0.355634	0.120259	0.050468
C19	C	0.283320	0.117789	0.050459
C20	C	0.236850	0.210208	-0.000111
C21	C	0.262706	0.305077	-0.050683
C22	C	0.335022	0.307537	-0.050676
C23	C	0.381484	0.215122	-0.000092
C24	C	0.122303	0.206326	-0.066139
C25	C	0.049981	0.203892	-0.066145
C26	C	0.049937	0.203877	0.065887
C27	C	0.122256	0.206327	0.065891
C28	C	0.158436	0.207544	-0.000124
C29	C	0.829830	-0.079604	-0.000107
C30	C	0.837925	-0.257044	-0.000112
C31	C	0.936831	0.200070	-0.000122
C32	C	1.013801	0.202652	-0.000136
C33	C	0.788505	0.504965	-0.000102
C34	C	0.780410	0.682405	-0.000102
N35	N	0.809145	0.212661	0.188564
N36	N	0.809196	0.212688	-0.188772
C37	C	0.862194	0.103694	0.226658
C38	C	0.862199	0.103687	0.302886
C39	C	0.809160	0.212674	0.341017
C40	C	0.756102	0.321649	0.302914
C41	C	0.756094	0.321642	0.226687
C42	C	0.792290	0.358322	0.461779
C43	C	0.792302	0.358330	0.538004
C44	C	0.809179	0.212694	0.576124
C45	C	0.826058	0.067043	0.538011
C46	C	0.826050	0.067036	0.461784
C47	C	0.809162	0.212693	0.423672
C48	C	0.862236	0.103711	0.696873
C49	C	0.862236	0.103702	0.773103
C50	C	0.756141	0.321677	0.773129
C51	C	0.756139	0.321672	0.696901
C52	C	0.809189	0.212691	0.658778
H53	H	0.466571	0.218024	0.119674
H54	H	0.724976	-0.233687	-0.000093
F55	F	0.918652	-0.012297	0.186086
H56	H	0.597770	0.222498	0.119694
F57	F	0.910387	-0.366722	-0.000113
H58	H	0.466661	0.218029	-0.119858
F59	F	0.160710	0.207632	0.136153
H60	H	0.356070	0.384786	-0.091852
H61	H	0.905399	0.014950	0.333908
H62	H	0.839792	-0.051558	0.430755
H63	H	0.839800	-0.051549	0.569047
F64	F	0.918695	-0.012283	0.656299
H65	H	0.905433	0.014959	0.804119
F66	F	0.699689	0.437659	0.813707
F67	F	0.774377	0.513342	0.421215
H68	H	0.712943	0.410409	0.665883
H69	H	0.778563	0.476928	0.569030
F70	F	0.213253	0.403450	-0.104506
H71	H	0.712915	0.410385	0.333964
F72	F	0.699630	0.437624	0.186143
H73	H	0.597856	0.222466	-0.119846
F74	F	0.011528	0.202591	-0.136409
F75	F	0.255806	0.016851	0.104292
F76	F	0.011431	0.202568	0.136138
F77	F	0.405085	0.021889	0.104297
F78	F	0.160809	0.207633	-0.136396
