data_functionalizedCrystal
_audit_creation_method	'MofGen! by Chris Wilmer'
_symmetry_space_group_name_H-M	'P1'
_symmetry_Int_Tables_number	1
_symmetry_cell_setting	triclinic
loop_
_symmetry_equiv_pos_as_xyz
  x,y,z
_cell_length_a	15.995350
_cell_length_b	9.065218
_cell_length_c	8.140239
_cell_angle_alpha	90.002802
_cell_angle_beta	89.998714
_cell_angle_gamma	95.745870
loop_
_atom_site_label
_atom_site_type_symbol
_atom_site_fract_x
_atom_site_fract_y
_atom_site_fract_z
O1	O	0.122770	-1.957507	-0.136609
O2	O	0.622770	-1.457507	0.363391
O3	O	0.132840	-1.527985	-0.136610
O4	O	0.632840	-1.027985	0.363390
O5	O	0.006007	-1.754487	-0.136608
O6	O	0.506007	-1.254487	0.363392
O7	O	0.249604	-1.731005	-0.136611
O8	O	0.749604	-1.231005	0.363389
O9	O	0.006005	-1.754475	0.136619
O10	O	0.506005	-1.254475	0.636619
O11	O	0.132839	-1.527973	0.136617
O12	O	0.632839	-1.027973	0.636617
O13	O	0.122769	-1.957495	0.136619
O14	O	0.622769	-1.457495	0.636619
Zn15	Zn	0.127803	-1.742732	0.179998
Zn16	Zn	0.627803	-1.242732	0.679998
Zn17	Zn	0.127806	-1.742748	-0.179990
Zn18	Zn	0.627806	-1.242748	0.320010
O19	O	0.249602	-1.730992	0.136616
O20	O	0.749602	-1.230992	0.636616
C21	C	0.131872	-1.473015	0.000003
C22	C	0.631872	-0.973015	0.500003
C23	C	0.128978	-1.309240	0.000002
C24	C	0.628978	-0.809240	0.500002
C25	C	-0.025196	-1.753510	0.000003
C26	C	0.474804	-1.253510	0.500003
C27	C	-0.118169	-1.750600	-0.000007
C28	C	0.381831	-1.250600	0.499993
N29	N	0.127802	-1.742731	0.425681
N30	N	0.627802	-1.242731	0.925681
C31	C	-0.455995	-1.740148	-0.000001
C32	C	0.044005	-1.240148	0.499999
C33	C	-0.409785	-1.578837	-0.000615
C34	C	0.090215	-1.078837	0.499385
C35	C	-0.313072	-1.581748	0.000001
C36	C	0.186928	-1.081748	0.500001
C37	C	-0.288396	-1.745332	-0.000005
C38	C	0.211604	-1.245332	0.499995
C39	C	-0.328871	-1.824889	0.156019
C40	C	0.171129	-1.324889	0.656019
C41	C	-0.425537	-1.820837	0.156149
C42	C	0.074463	-1.320837	0.656149
C43	C	-0.425868	-1.824183	-0.154561
C44	C	0.074132	-1.324183	0.345439
C45	C	-0.328923	-1.824145	-0.156623
C46	C	0.171077	-1.324145	0.343377
C47	C	-0.193676	-1.748271	-0.000001
C48	C	0.306324	-1.248271	0.499999
C49	C	-0.550716	-1.737214	0.000006
C50	C	-0.050716	-1.237214	0.500006
C51	C	0.280805	-1.731969	0.000002
C52	C	0.780805	-1.231969	0.500002
C53	C	0.373778	-1.734880	0.000001
C54	C	0.873778	-1.234880	0.500001
C55	C	0.123737	-2.012465	0.000002
C56	C	0.623737	-1.512465	0.500002
C57	C	0.126631	-2.176239	-0.000008
C58	C	0.626631	-1.676239	0.499992
N59	N	0.127801	-1.742760	-0.425673
N60	N	0.627801	-1.242760	0.074327
H61	H	-0.285124	-1.519210	-0.111842
H62	H	0.214876	-1.019210	0.388158
Br63	Br	-0.301806	-2.022975	-0.172350
Br64	Br	0.198194	-1.522975	0.327650
Br65	Br	-0.460755	-1.736275	-0.351666
Br66	Br	0.039245	-1.236275	0.148334
H67	H	-0.456727	-1.943117	-0.155614
H68	H	0.043273	-1.443117	0.344386
H69	H	-0.428805	-1.514368	-0.112502
H70	H	0.071195	-1.014368	0.387498
H71	H	-0.429866	-1.514644	0.110649
H72	H	0.070134	-1.014644	0.610649
Br73	Br	-0.267418	-1.476787	0.186726
Br74	Br	0.232582	-0.976787	0.686726
Br75	Br	-0.456780	-1.724123	0.350543
Br76	Br	0.043220	-1.224123	0.850543
H77	H	-0.456887	-1.939269	0.163224
H78	H	0.043113	-1.439269	0.663224
H79	H	-0.313833	-1.945070	0.161817
H80	H	0.186167	-1.445070	0.661817
Br81	Br	-0.282270	-1.732780	0.349552
Br82	Br	0.217730	-1.232780	0.849552
Br83	Br	-0.283696	-1.728011	-0.349035
Br84	Br	0.216304	-1.228011	0.150965
