data_functionalizedCrystal
_audit_creation_method	'MofGen! by Chris Wilmer'
_symmetry_space_group_name_H-M	'P1'
_symmetry_Int_Tables_number	1
_symmetry_cell_setting	triclinic
loop_
_symmetry_equiv_pos_as_xyz
  x,y,z
_cell_length_a	27.732048
_cell_length_b	14.472311
_cell_length_c	15.995350
_cell_angle_alpha	89.990778
_cell_angle_beta	96.932485
_cell_angle_gamma	89.988354
loop_
_atom_site_label
_atom_site_type_symbol
_atom_site_fract_x
_atom_site_fract_y
_atom_site_fract_z
O1	O	0.641349	0.076718	-0.099638
O2	O	0.500621	0.076745	-0.114786
O3	O	0.574831	0.076730	0.014726
O4	O	0.567138	0.076733	-0.229149
O5	O	0.574841	-0.076952	0.014749
O6	O	0.500630	-0.076937	-0.114763
O7	O	0.641359	-0.076964	-0.099614
Cu8	Cu	0.570995	-0.090983	-0.107186
Cu9	Cu	0.570984	0.090764	-0.107214
O10	O	0.567148	-0.076949	-0.229126
C11	C	0.482617	-0.000092	-0.114456
C12	C	0.428958	-0.000082	-0.113499
N13	N	0.570976	0.218595	-0.107227
C14	C	0.574518	-0.000109	0.045928
C15	C	0.573565	-0.000104	0.138866
C16	C	0.090447	-0.000121	-0.184004
C17	C	-0.111228	-0.000129	-0.180451
O18	O	-0.142205	-0.000168	-0.244923
N19	N	-0.130683	-0.000128	-0.103656
C20	C	-0.099715	-0.000132	-0.027744
O21	O	-0.120891	-0.000141	0.037657
C22	C	0.101959	-0.000130	-0.031297
C23	C	0.121410	-0.000121	-0.108097
C24	C	0.109900	-0.000113	-0.260797
C25	C	0.160315	-0.000106	-0.261685
C26	C	0.191279	-0.000107	-0.185778
C27	C	0.171826	-0.000114	-0.108985
C28	C	0.132925	-0.000140	0.044614
C29	C	0.183346	-0.000142	0.043719
C30	C	0.202798	-0.000133	-0.033081
C31	C	0.253205	-0.000108	-0.033965
N32	N	0.272660	-0.000108	-0.110760
C33	C	0.241697	-0.000108	-0.186667
C34	C	-0.205598	-0.000131	-0.025883
C35	C	-0.256016	-0.000130	-0.024995
C36	C	-0.267525	-0.000129	-0.177703
C37	C	-0.217106	-0.000123	-0.178590
C38	C	-0.186143	-0.000132	-0.102679
C39	C	0.347574	-0.000092	-0.188525
C40	C	0.397995	-0.000081	-0.189405
C41	C	0.409499	-0.000087	-0.036698
C42	C	0.359083	-0.000093	-0.035817
C43	C	0.328121	-0.000099	-0.111737
O44	O	0.284211	-0.000079	0.030472
O45	O	0.262881	-0.000119	-0.252058
C46	C	0.040031	-0.000128	-0.183116
C47	C	0.020579	-0.000136	-0.106323
C48	C	0.051542	-0.000136	-0.030416
C49	C	-0.029839	-0.000134	-0.105434
C50	C	-0.060803	-0.000134	-0.181340
C51	C	-0.041348	-0.000134	-0.258135
C52	C	0.009068	-0.000127	-0.259023
C53	C	0.032087	-0.000136	0.046379
C54	C	-0.018329	-0.000142	0.047260
C55	C	-0.049292	-0.000141	-0.028646
C56	C	0.659362	-0.000125	-0.099944
C57	C	0.713021	-0.000129	-0.100901
N58	N	0.571007	-0.218814	-0.107166
C59	C	0.570997	0.592686	-0.107186
C60	C	0.531330	0.553528	-0.176559
C61	C	0.531183	0.446440	-0.176396
C62	C	0.570986	0.407095	-0.107207
C63	C	0.560103	0.445950	-0.019912
C64	C	0.559824	0.553071	-0.020308
C65	C	0.621664	0.553190	-0.124326
C66	C	0.621320	0.446062	-0.126328
C67	C	0.570981	0.302207	-0.107214
C68	C	0.571000	0.697574	-0.107174
C69	C	0.567461	-0.000108	-0.260328
C70	C	0.568414	-0.000107	-0.353266
C71	C	0.570140	-0.000106	0.476569
C72	C	0.517288	0.000249	0.428451
C73	C	0.518242	-0.000098	0.331773
C74	C	0.571839	-0.000105	0.309031
C75	C	0.597913	-0.087868	0.350459
C76	C	0.596585	-0.087941	0.447077
C77	C	0.597666	0.086824	0.447423
C78	C	0.597653	0.087984	0.350477
C79	C	0.572802	-0.000107	0.214346
C80	C	0.569179	-0.000110	0.571255
H81	H	0.413829	-0.000073	-0.251948
H82	H	0.587623	0.578972	0.032843
H83	H	0.322370	-0.000100	-0.250346
H84	H	0.522877	0.578066	-0.005138
H85	H	0.523578	0.419124	-0.004362
H86	H	0.578590	0.152909	0.322972
H87	H	0.497617	-0.063110	0.303651
H88	H	-0.292744	-0.000128	-0.239509
H89	H	-0.271849	-0.000122	0.037543
H90	H	0.632155	0.580221	-0.186591
H91	H	-0.066567	-0.000130	-0.319941
H92	H	0.636738	0.093278	0.335620
H93	H	0.636633	0.087409	0.479688
H94	H	0.496160	0.063186	0.446700
H95	H	-0.180391	-0.000138	0.035937
H96	H	0.577580	-0.153541	0.465143
H97	H	0.637289	-0.091136	0.336843
H98	H	0.537646	0.420172	-0.241299
H99	H	0.580382	0.153343	0.467729
H100	H	0.176148	-0.000099	-0.324223
H101	H	0.434719	-0.000084	0.025103
H102	H	0.208554	-0.000149	0.105537
H103	H	0.117096	-0.000148	0.107153
H104	H	0.579811	-0.153174	0.321853
H105	H	0.629577	0.420684	-0.190550
H106	H	-0.034161	-0.000141	0.109804
H107	H	0.588229	0.420461	0.032929
H108	H	0.652209	0.419277	-0.079049
H109	H	0.635388	-0.091928	0.479828
H110	H	0.057293	-0.000138	0.108193
H111	H	0.496262	-0.062330	0.447783
H112	H	0.084694	-0.000116	-0.322613
H113	H	0.024901	-0.000122	-0.321561
H114	H	0.343245	-0.000087	0.026720
H115	H	0.537688	0.579306	-0.241675
H116	H	-0.201272	-0.000121	-0.241128
H117	H	0.493580	0.420825	-0.165495
H118	H	0.493940	0.580457	-0.165813
H119	H	0.651181	0.578515	-0.073733
H120	H	0.497747	0.062815	0.303077
