data_functionalizedCrystal
_audit_creation_method	'MofGen! by Chris Wilmer'
_symmetry_space_group_name_H-M	'P1'
_symmetry_Int_Tables_number	1
_symmetry_cell_setting	triclinic
loop_
_symmetry_equiv_pos_as_xyz
  x,y,z
_cell_length_a	11.169417
_cell_length_b	18.050589
_cell_length_c	11.169409
_cell_angle_alpha	89.967150
_cell_angle_beta	89.980176
_cell_angle_gamma	90.029099
loop_
_atom_site_label
_atom_site_type_symbol
_atom_site_fract_x
_atom_site_fract_y
_atom_site_fract_z
Zn1	Zn	1.834813	-0.295582	-0.678538
Zn2	Zn	2.334813	0.204418	-0.178538
Zn3	Zn	1.834640	-0.419797	-0.477854
Zn4	Zn	2.334640	0.080203	0.022146
Zn5	Zn	1.634099	-0.295627	-0.477873
Zn6	Zn	2.134099	0.204373	0.022127
Zn7	Zn	1.634044	-0.419737	-0.678498
Zn8	Zn	2.134044	0.080263	-0.178498
O9	O	1.734399	-0.357686	-0.578191
O10	O	2.234399	0.142314	-0.078191
O11	O	2.002740	-0.312066	-0.651926
O12	O	2.502740	0.187934	-0.151926
O13	O	1.807988	-0.403370	-0.309906
O14	O	2.307988	0.096630	0.190094
O15	O	1.660820	-0.191697	-0.504516
O16	O	2.160820	0.308303	-0.004516
O17	O	2.002613	-0.403326	-0.504483
O18	O	2.502613	0.096674	-0.004483
O19	O	1.808284	-0.191663	-0.651945
O20	O	2.308284	0.308337	-0.151945
O21	O	1.660652	-0.312143	-0.309920
O22	O	2.160652	0.187857	0.190080
O23	O	1.466142	-0.312084	-0.504478
O24	O	1.966142	0.187916	-0.004478
O25	O	1.660726	-0.403223	-0.846454
O26	O	2.160726	0.096777	-0.346454
O27	O	1.466102	-0.403267	-0.651876
O28	O	1.966102	0.096733	-0.151876
O29	O	1.808230	-0.312007	-0.846483
O30	O	2.308230	0.187993	-0.346483
O31	O	1.807935	-0.523714	-0.504445
O32	O	2.307935	-0.023714	-0.004445
O33	O	1.660558	-0.523669	-0.651858
O34	O	2.160558	-0.023669	-0.151858
C35	C	1.422574	-0.357674	-0.578175
C36	C	1.922574	0.142326	-0.078175
C37	C	1.289174	-0.357687	-0.578197
C38	C	1.789174	0.142313	-0.078197
C39	C	1.734254	-0.550638	-0.578171
C40	C	2.234254	-0.050638	-0.078171
C41	C	1.734302	-0.633184	-0.578202
C42	C	2.234302	-0.133184	-0.078202
C43	C	1.654237	-0.832637	-0.658338
C44	C	2.154237	-0.332637	-0.158338
C45	C	1.624974	-0.882089	-0.548822
C46	C	2.124974	-0.382089	-0.048822
C47	C	1.734420	-0.784314	-0.578218
C48	C	2.234420	-0.284314	-0.078218
C49	C	1.763742	-0.881944	-0.687746
C50	C	2.263742	-0.381944	-0.187746
C51	C	1.734532	-0.930299	-0.578243
C52	C	2.234532	-0.430299	-0.078243
C53	C	1.705099	-0.832678	-0.468645
C54	C	2.205099	-0.332678	0.031355
C55	C	1.843918	-0.832529	-0.607642
C56	C	2.343918	-0.332529	-0.107642
C57	C	1.814697	-0.881959	-0.498052
C58	C	2.314697	-0.381959	0.001948
C59	C	1.734353	-0.700216	-0.578205
C60	C	2.234353	-0.200216	-0.078205
C61	C	1.734599	-1.014395	-0.578243
C62	C	2.234599	-0.514395	-0.078243
C63	C	2.047441	-0.357697	-0.578207
C64	C	2.547441	0.142303	-0.078207
C65	C	2.180841	-0.357703	-0.578214
C66	C	2.680841	0.142297	-0.078214
C67	C	1.734491	-0.357603	-0.891233
C68	C	2.234491	0.142397	-0.391233
C69	C	1.734531	-0.357568	-1.024633
C70	C	2.234531	0.142432	-0.524633
C71	C	1.734577	-0.163980	-0.578237
C72	C	2.234577	0.336020	-0.078237
C73	C	1.734653	-0.081434	-0.578257
C74	C	2.234653	0.418566	-0.078257
C75	C	1.734376	-0.357714	-0.266366
C76	C	2.234376	0.142286	0.233634
C77	C	1.734570	-0.357540	-0.132967
C78	C	2.234570	0.142460	0.367033
H79	H	1.586330	-0.810980	-0.725996
H80	H	2.086330	-0.310980	-0.225996
H81	H	1.532427	-0.903874	-0.523958
H82	H	2.032427	-0.403874	-0.023958
C83	C	1.671498	-0.803570	-0.343497
C84	C	2.171498	-0.303570	0.156503
H85	H	1.671619	-0.750940	-0.344263
H86	H	2.171619	-0.250940	0.155737
H87	H	1.728134	-0.820851	-0.286544
H88	H	2.228134	-0.320851	0.213456
H89	H	1.593989	-0.820953	-0.322488
H90	H	2.093989	-0.320953	0.177512
H91	H	1.882552	-0.903478	-0.430230
H92	H	2.382552	-0.403478	0.069770
H93	H	1.936444	-0.810746	-0.632559
H94	H	2.436444	-0.310746	-0.132559
H95	H	1.788498	-0.903585	-0.780363
H96	H	2.288498	-0.403585	-0.280363
