data_functionalizedCrystal
_audit_creation_method	'MofGen! by Chris Wilmer'
_symmetry_space_group_name_H-M	'P1'
_symmetry_Int_Tables_number	1
_symmetry_cell_setting	triclinic
loop_
_symmetry_equiv_pos_as_xyz
  x,y,z
_cell_length_a	21.295420
_cell_length_b	21.295417
_cell_length_c	16.625539
_cell_angle_alpha	89.967674
_cell_angle_beta	89.979260
_cell_angle_gamma	90.027953
loop_
_atom_site_label
_atom_site_type_symbol
_atom_site_fract_x
_atom_site_fract_y
_atom_site_fract_z
Zn1	Zn	0.962334	-0.250637	-0.455890
Zn2	Zn	0.962245	-0.355911	-0.321048
Zn3	Zn	0.857065	-0.250656	-0.321071
Zn4	Zn	0.857028	-0.355870	-0.455838
O5	O	0.909668	-0.303269	-0.388462
O6	O	1.050412	-0.264612	-0.438016
O7	O	0.948271	-0.341974	-0.208219
O8	O	0.871081	-0.162564	-0.338986
O9	O	1.050347	-0.341956	-0.338948
O10	O	0.948423	-0.162551	-0.438038
O11	O	0.870995	-0.264644	-0.208235
O12	O	0.768971	-0.264604	-0.338935
O13	O	0.871019	-0.341885	-0.568677
O14	O	0.768944	-0.341903	-0.437948
O15	O	0.948387	-0.264572	-0.568716
O16	O	0.948236	-0.443995	-0.338897
O17	O	0.870933	-0.443964	-0.437926
C18	C	0.746117	-0.303251	-0.388439
C19	C	0.676149	-0.303259	-0.388448
C20	C	0.909588	-0.466820	-0.388421
C21	C	0.909611	-0.536788	-0.388430
C22	C	0.176693	-0.343593	-0.439968
C23	C	0.242436	-0.343593	-0.439959
C24	C	0.275309	-0.303283	-0.388487
C25	C	0.242435	-0.262981	-0.337005
C26	C	0.176693	-0.262986	-0.337009
N27	N	0.378549	-0.248166	-0.382424
N28	N	0.441001	-0.248163	-0.382425
C29	C	0.473384	-0.303265	-0.388470
N30	N	0.440956	-0.358372	-0.394530
N31	N	0.378499	-0.358374	-0.394534
C32	C	0.346594	-0.303273	-0.388476
C33	C	0.577536	-0.343568	-0.439936
C34	C	0.643280	-0.343569	-0.439921
C35	C	0.643277	-0.262952	-0.336971
C36	C	0.577535	-0.262956	-0.336981
C37	C	0.544668	-0.303263	-0.388468
C38	C	0.949860	-0.569591	-0.440043
C39	C	0.949882	-0.635333	-0.440063
C40	C	0.909662	-0.668271	-0.388456
C41	C	0.869406	-0.635461	-0.336839
C42	C	0.869381	-0.569719	-0.336826
N43	N	0.904907	-0.771534	-0.317890
N44	N	0.904935	-0.833986	-0.317905
C45	C	0.909736	-0.866345	-0.388492
N46	N	0.914520	-0.833895	-0.459066
N47	N	0.914496	-0.771437	-0.459051
C48	C	0.909685	-0.739556	-0.388464
C49	C	0.950011	-0.970433	-0.440131
C50	C	0.950028	-1.036177	-0.440152
C51	C	0.869556	-1.036303	-0.336921
C52	C	0.869535	-0.970561	-0.336907
C53	C	0.909765	-0.937630	-0.388511
C54	C	1.073858	-0.303286	-0.388485
C55	C	1.143827	-0.303294	-0.388496
C56	C	0.909709	-0.303222	-0.598771
C57	C	0.909727	-0.303202	-0.688392
C58	C	0.909766	-0.139078	-0.388520
C59	C	0.909808	-0.069110	-0.388545
C60	C	0.909756	-0.303131	-1.016568
C61	C	0.909746	-0.303153	-0.925259
C62	C	0.909741	-0.303167	-0.852483
C63	C	0.909731	-0.303188	-0.761168
C64	C	0.909664	-0.303270	-0.178971
C65	C	0.909768	-0.303112	-0.089350
H66	H	0.149937	-0.376416	-0.481889
O67	O	0.675105	-0.223773	-0.286895
C68	C	0.631994	-0.188189	-0.241483
H69	H	0.585120	-0.213973	-0.238636
H70	H	0.625033	-0.140409	-0.271121
C71	C	0.715198	-0.147363	-0.159183
C72	C	0.657628	-0.179034	-0.155680
H73	H	0.731011	-0.141712	-0.106257
H74	H	0.744244	-0.171334	-0.189780
H75	H	0.709389	-0.107550	-0.183885
H76	H	0.663439	-0.218849	-0.130988
H77	H	0.628584	-0.155069	-0.125077
H78	H	0.550775	-0.230138	-0.295070
O79	O	0.274274	-0.382757	-0.490042
C80	C	0.231168	-0.418346	-0.535470
H81	H	0.184314	-0.392573	-0.538318
H82	H	0.224152	-0.466131	-0.505845
C83	C	0.314396	-0.459139	-0.617767
C84	C	0.256851	-0.427482	-0.621271
H85	H	0.330240	-0.464777	-0.670692
H86	H	0.343439	-0.435164	-0.587160
H87	H	0.308542	-0.498957	-0.593076
H88	H	0.262708	-0.387661	-0.645952
H89	H	0.227810	-0.451450	-0.651884
H90	H	0.670039	-0.376390	-0.481834
H91	H	0.149934	-0.230168	-0.295094
H92	H	0.982767	-0.943620	-0.482153
H93	H	0.836658	-0.662283	-0.294822
H94	H	0.269204	-0.230161	-0.295095
O95	O	0.830263	-0.537949	-0.286608
C96	C	0.794753	-0.581115	-0.241078
H97	H	0.820554	-0.627958	-0.238326
H98	H	0.746935	-0.588128	-0.270552
C99	C	0.754020	-0.497980	-0.158627
C100	C	0.785711	-0.555512	-0.155241
H101	H	0.748439	-0.482187	-0.105680
H102	H	0.777941	-0.468898	-0.189303
H103	H	0.714174	-0.503833	-0.183192
H104	H	0.825558	-0.549657	-0.130686
H105	H	0.761795	-0.584593	-0.124559
H106	H	0.982803	-1.062883	-0.482186
H107	H	0.836804	-1.063120	-0.294906
H108	H	0.550774	-0.376389	-0.481858
H109	H	0.982652	-0.662046	-0.482102
O110	O	0.988956	-0.537700	-0.490249
C111	C	1.024498	-0.580755	-0.535793
H112	H	0.998730	-0.627638	-0.538565
H113	H	1.072320	-0.587722	-0.506320
C114	C	1.065177	-0.497461	-0.618210
C115	C	1.033526	-0.555042	-0.621620
H116	H	1.070749	-0.481600	-0.671151
H117	H	1.041234	-0.468453	-0.587525
H118	H	1.105026	-0.503275	-0.593646
H119	H	0.993675	-0.549227	-0.646175
H120	H	1.057462	-0.584049	-0.652312
O121	O	0.830423	-0.938790	-0.286686
C122	C	0.794917	-0.981957	-0.241152
H123	H	0.820719	-1.028799	-0.238402
H124	H	0.747097	-0.988972	-0.270622
C125	C	0.754184	-0.898823	-0.158698
C126	C	0.785877	-0.956354	-0.155315
H127	H	0.748605	-0.883030	-0.105751
H128	H	0.778103	-0.869740	-0.189377
H129	H	0.714338	-0.904677	-0.183260
H130	H	0.825726	-0.950498	-0.130763
H131	H	0.761965	-0.985435	-0.124630
