data_functionalizedCrystal
_audit_creation_method	'MofGen! by Chris Wilmer'
_symmetry_space_group_name_H-M	'P1'
_symmetry_Int_Tables_number	1
_symmetry_cell_setting	triclinic
loop_
_symmetry_equiv_pos_as_xyz
  x,y,z
_cell_length_a	16.625548
_cell_length_b	16.959454
_cell_length_c	16.959447
_cell_angle_alpha	89.973264
_cell_angle_beta	90.015428
_cell_angle_gamma	89.978857
loop_
_atom_site_label
_atom_site_type_symbol
_atom_site_fract_x
_atom_site_fract_y
_atom_site_fract_z
Zn1	Zn	1.232653	0.314643	0.446952
Zn2	Zn	1.232574	0.446836	0.314781
Zn3	Zn	1.097827	0.314678	0.314787
Zn4	Zn	1.097791	0.446786	0.446917
O5	O	1.165211	0.380736	0.380859
O6	O	1.345475	0.332185	0.429431
O7	O	1.214681	0.429340	0.204171
O8	O	1.115760	0.204062	0.332335
O9	O	1.345417	0.429307	0.332326
O10	O	1.214816	0.204037	0.429436
O11	O	1.115683	0.332244	0.204175
O12	O	0.984990	0.332196	0.332302
O13	O	1.115699	0.429222	0.557533
O14	O	0.984963	0.429255	0.429378
O15	O	1.214781	0.332137	0.557558
O16	O	1.214646	0.557440	0.332293
O17	O	1.115622	0.557404	0.429373
C18	C	0.955720	0.380725	0.380837
C19	C	0.866099	0.380739	0.380847
C20	C	1.165144	0.586102	0.380846
C21	C	1.165188	0.673959	0.380867
C22	C	1.165245	0.380670	0.587028
C23	C	1.165259	0.380643	0.674884
C24	C	0.537924	0.380744	0.380880
C25	C	0.629232	0.380740	0.380868
C26	C	0.702008	0.380742	0.380863
C27	C	0.793323	0.380737	0.380852
C28	C	1.375520	0.380748	0.380882
C29	C	1.465141	0.380753	0.380892
C30	C	1.165301	0.174568	0.380890
C31	C	1.165339	0.086711	0.380903
C32	C	1.113724	1.045445	0.431403
C33	C	1.216923	1.045423	0.330396
C34	C	1.216895	0.962877	0.330389
C35	C	1.165280	0.921612	0.380889
C36	C	1.113692	0.962892	0.431396
C37	C	1.268475	0.921591	0.279876
C38	C	1.268449	0.839040	0.279867
C39	C	1.216837	0.797773	0.330371
C40	C	1.165248	0.839058	0.380881
C41	C	1.113633	0.797792	0.431381
C42	C	1.062048	0.839076	0.481896
C43	C	1.062081	0.921624	0.481901
C44	C	1.216804	0.715224	0.330367
C45	C	1.113601	0.715239	0.431374
C46	C	1.165224	0.380744	0.175493
C47	C	1.165366	0.380549	0.087637
C48	C	1.113768	0.431107	1.046349
C49	C	1.216943	0.330012	1.046371
C50	C	1.216922	0.330028	0.963825
C51	C	1.165323	0.380586	0.922537
C52	C	1.113746	0.431127	0.963796
C53	C	1.268504	0.279494	0.922560
C54	C	1.268485	0.279509	0.840009
C55	C	1.216882	0.330064	0.798720
C56	C	1.165302	0.380606	0.839984
C57	C	1.113703	0.431163	0.798696
C58	C	1.062119	0.481702	0.839958
C59	C	1.062143	0.481681	0.922507
C60	C	1.216858	0.330085	0.716172
C61	C	1.113682	0.431183	0.716143
H62	H	1.071573	0.681645	0.472500
H63	H	1.071727	1.079062	0.472533
O64	O	1.324158	0.224959	0.967075
H65	H	1.310350	0.162932	0.951224
O66	O	1.272452	0.670701	0.275903
H67	H	1.263763	0.606366	0.284385
H68	H	1.258941	1.079027	0.289276
H69	H	1.020111	0.522870	0.806331
H70	H	1.071656	0.472347	0.682532
H71	H	1.020018	0.805468	0.523010
O72	O	1.324095	0.794516	0.225397
H73	H	1.310324	0.810403	0.163348
H74	H	1.310492	0.955196	0.238756
H75	H	1.020082	0.955245	0.523026
H76	H	1.071767	0.472252	1.079949
H77	H	1.020148	0.522829	0.956110
H78	H	1.258957	0.288854	1.079992
H79	H	1.310488	0.238357	0.806421
H80	H	1.258859	0.288939	0.682580
