data_functionalizedCrystal
_audit_creation_method	'MofGen! by Chris Wilmer'
_symmetry_space_group_name_H-M	'P1'
_symmetry_Int_Tables_number	1
_symmetry_cell_setting	triclinic
loop_
_symmetry_equiv_pos_as_xyz
  x,y,z
_cell_length_a	11.792254
_cell_length_b	10.540539
_cell_length_c	10.868271
_cell_angle_alpha	89.997005
_cell_angle_beta	89.995741
_cell_angle_gamma	84.362045
loop_
_atom_site_label
_atom_site_type_symbol
_atom_site_fract_x
_atom_site_fract_y
_atom_site_fract_z
O1	O	1.507353	0.174069	-0.102315
O2	O	1.177060	0.191983	-0.102317
O3	O	1.349742	-0.001705	-0.102314
O4	O	1.334671	0.367757	-0.102318
O5	O	1.349728	-0.001712	0.102330
O6	O	1.177046	0.191976	0.102328
O7	O	1.507339	0.174061	0.102330
Zn8	Zn	1.342190	0.183017	0.134820
Zn9	Zn	1.342209	0.183027	-0.134808
O10	O	1.334657	0.367749	0.102327
C11	C	1.134760	0.190851	0.000005
C12	C	1.008738	0.187473	0.000004
C13	C	0.906394	0.184729	-0.000001
C14	C	0.777999	0.181297	-0.000002
C15	C	1.348605	-0.049008	0.000006
C16	C	1.345223	-0.189945	-0.000001
C17	C	1.215653	-0.372957	-0.000461
C18	C	1.219081	-0.226349	-0.000000
C19	C	1.405921	-0.251802	0.116862
C20	C	1.401616	-0.398332	0.116960
C21	C	1.404198	-0.398850	-0.115759
C22	C	1.405359	-0.251872	-0.117304
C23	C	1.549639	0.175193	0.000005
C24	C	1.675661	0.178571	-0.000002
C25	C	1.335794	0.415052	0.000004
C26	C	1.339176	0.555989	0.000003
N27	N	1.342185	0.183009	0.318834
N28	N	1.342223	0.183025	-0.318822
C29	C	1.342203	0.183024	0.569840
C30	C	1.342190	0.183020	0.430163
H31	H	1.165829	-0.401394	-0.084265
O32	O	1.355772	-0.200717	0.220651
C33	C	1.379858	-0.084607	0.408303
C34	C	1.436796	-0.142371	0.290803
H35	H	1.445347	-0.037443	0.465066
H36	H	1.306972	-0.010397	0.382085
H37	H	1.345112	-0.163309	0.464790
H38	H	1.471611	-0.063757	0.234262
H39	H	1.509628	-0.216611	0.317106
O40	O	1.352563	-0.203029	-0.220573
C41	C	1.347379	-0.203691	-0.442215
C42	C	1.407257	-0.259147	-0.325368
H43	H	1.391589	-0.249019	-0.526972
H44	H	1.254383	-0.224738	-0.441435
H45	H	1.351880	-0.096177	-0.444737
H46	H	1.402843	-0.366668	-0.322771
H47	H	1.500225	-0.237999	-0.326195
O48	O	1.156506	-0.409020	0.098917
C49	C	1.082184	-0.582332	0.207280
C50	C	1.149202	-0.541666	0.094692
H51	H	1.076237	-0.689574	0.203887
H52	H	1.127849	-0.557264	0.295141
H53	H	0.992772	-0.530233	0.206117
H54	H	1.238619	-0.593742	0.095736
H55	H	1.103448	-0.566709	0.006880
O56	O	1.348009	-0.431591	0.221202
C57	C	1.255154	-0.359378	0.409592
C58	C	1.315824	-0.321543	0.291575
H59	H	1.229137	-0.270430	0.466534
H60	H	1.176041	-0.407652	0.384043
H61	H	1.315450	-0.428090	0.465614
H62	H	1.255619	-0.252794	0.235499
H63	H	1.394953	-0.273340	0.317209
O64	O	1.515008	-0.223078	-0.125665
C65	C	1.641051	-0.057292	-0.142495
C66	C	1.516824	-0.089740	-0.133030
H67	H	1.642559	0.050509	-0.148479
H68	H	1.690442	-0.094707	-0.057665
H69	H	1.682119	-0.103677	-0.228446
H70	H	1.475656	-0.043366	-0.047131
H71	H	1.467515	-0.052350	-0.217922
O72	O	1.162012	-0.175529	-0.099963
C73	C	1.055178	-0.216037	-0.282390
C74	C	1.119763	-0.273748	-0.169219
H75	H	1.021023	-0.295423	-0.338428
H76	H	0.981142	-0.145855	-0.250896
H77	H	1.115634	-0.164103	-0.341675
H78	H	1.059397	-0.325747	-0.109885
H79	H	1.193813	-0.343863	-0.200797
O80	O	1.161708	-0.176560	0.100201
C81	C	1.054267	-0.218924	0.281703
C82	C	1.119226	-0.275479	0.168280
H83	H	1.019882	-0.298870	0.336762
H84	H	1.114414	-0.167515	0.341853
H85	H	0.980341	-0.148492	0.250408
H86	H	1.193152	-0.345963	0.199465
H87	H	1.059003	-0.326810	0.108155
O88	O	1.512821	-0.455743	-0.116772
C89	C	1.634057	-0.653493	-0.122220
C90	C	1.510992	-0.589219	-0.121120
H91	H	1.632619	-0.761418	-0.125709
H92	H	1.680729	-0.620411	-0.206429
H93	H	1.679935	-0.626220	-0.035239
H94	H	1.465017	-0.616461	-0.208042
H95	H	1.464406	-0.622301	-0.036853
O96	O	1.509907	-0.455711	0.123359
C97	C	1.709883	-0.427127	0.134694
C98	C	1.587305	-0.361990	0.127471
H99	H	1.772494	-0.351384	0.137994
H100	H	1.719780	-0.488400	0.221194
H101	H	1.728121	-0.489835	0.050144
H102	H	1.568984	-0.299219	0.211957
H103	H	1.577469	-0.300794	0.040917
H104	H	1.498556	-0.229745	0.121207
H105	H	1.363378	-0.430269	-0.204334
