data_functionalizedCrystal
_audit_creation_method	'MofGen! by Chris Wilmer'
_symmetry_space_group_name_H-M	'P1'
_symmetry_Int_Tables_number	1
_symmetry_cell_setting	triclinic
loop_
_symmetry_equiv_pos_as_xyz
  x,y,z
_cell_length_a	14.519709
_cell_length_b	23.532357
_cell_length_c	12.996460
_cell_angle_alpha	89.988323
_cell_angle_beta	90.000034
_cell_angle_gamma	83.254219
loop_
_atom_site_label
_atom_site_type_symbol
_atom_site_fract_x
_atom_site_fract_y
_atom_site_fract_z
O1	O	1.222964	0.074656	-0.085446
O2	O	1.722964	0.574656	0.414554
O3	O	0.954380	0.083447	-0.085479
O4	O	1.454380	0.583447	0.414521
O5	O	1.096795	-0.003846	-0.085440
O6	O	1.596795	0.496154	0.414560
O7	O	1.080549	0.161949	-0.085485
O8	O	1.580549	0.661949	0.414515
O9	O	1.096781	-0.003850	0.085694
O10	O	1.596781	0.496150	0.585694
O11	O	0.954366	0.083442	0.085655
O12	O	1.454366	0.583442	0.585655
O13	O	1.222949	0.074651	0.085688
O14	O	1.722949	0.574651	0.585688
Cu15	Cu	1.088656	0.079046	0.101297
Cu16	Cu	1.588656	0.579046	0.601297
Cu17	Cu	1.088673	0.079052	-0.101088
Cu18	Cu	1.588673	0.579052	0.398912
O19	O	1.080534	0.161944	0.085649
O20	O	1.580534	0.661944	0.585649
C21	C	0.920018	0.083035	0.000084
C22	C	1.420018	0.583035	0.500084
C23	C	0.817652	0.081807	0.000072
C24	C	1.317652	0.581807	0.500072
C25	C	0.442811	0.077287	0.000120
C26	C	0.942811	0.577287	0.500120
C27	C	0.547104	0.078543	0.000107
C28	C	1.047104	0.578543	0.500107
C29	C	0.630228	0.079547	0.000095
C30	C	1.130228	0.579547	0.500095
C31	C	0.734527	0.080803	0.000084
C32	C	1.234527	0.580803	0.500084
C33	C	1.096382	-0.025066	0.000130
C34	C	1.596382	0.474934	0.500130
C35	C	1.095160	-0.088290	0.000139
C36	C	1.595160	0.411710	0.500139
C37	C	1.087498	-0.480334	-0.093202
C38	C	1.587498	0.019666	0.406798
C39	C	1.086336	-0.539738	-0.093208
C40	C	1.586336	-0.039738	0.406792
O41	O	1.085711	-0.570455	-0.172544
O42	O	1.585711	-0.070455	0.327456
N43	N	1.085752	-0.569455	0.000075
N44	N	1.585752	-0.069455	0.500075
C45	C	1.086320	-0.539763	0.093371
C46	C	1.586320	-0.039763	0.593371
O47	O	1.085716	-0.570494	0.172716
O48	O	1.585716	-0.070494	0.672716
C49	C	1.087475	-0.480359	0.093376
C50	C	1.587475	0.019641	0.593376
C51	C	1.088068	-0.450646	0.000086
C52	C	1.588068	0.049354	0.500086
C53	C	1.088090	-0.450621	-0.186484
C54	C	1.588090	0.049379	0.313516
C55	C	1.089253	-0.391221	-0.186478
C56	C	1.589253	0.108779	0.313522
C57	C	1.089824	-0.361533	-0.093189
C58	C	1.589824	0.138467	0.406811
C59	C	1.089232	-0.391246	0.000093
C60	C	1.589232	0.108754	0.500093
C61	C	1.088037	-0.450667	0.186671
C62	C	1.588037	0.049333	0.686671
C63	C	1.089191	-0.391259	0.186668
C64	C	1.589191	0.108741	0.686668
C65	C	1.089784	-0.361546	0.093378
C66	C	1.589784	0.138454	0.593378
C67	C	1.090965	-0.302157	0.093388
C68	C	1.590965	0.197843	0.593388
N69	N	1.091549	-0.272441	0.000104
N70	N	1.591549	0.227559	0.500104
C71	C	1.090979	-0.302129	-0.093185
C72	C	1.590979	0.197871	0.406815
C73	C	1.083894	-0.664515	0.093354
C74	C	1.583894	-0.164515	0.593354
C75	C	1.082746	-0.723919	0.093350
C76	C	1.582746	-0.223919	0.593350
C77	C	1.082760	-0.723890	-0.093230
C78	C	1.582760	-0.223890	0.406770
C79	C	1.083914	-0.664486	-0.093225
C80	C	1.583914	-0.164486	0.406775
C81	C	1.084478	-0.634799	0.000070
C82	C	1.584478	-0.134799	0.500070
C83	C	1.093422	-0.177384	-0.093164
C84	C	1.593422	0.322616	0.406836
C85	C	1.094589	-0.117978	-0.093149
C86	C	1.594589	0.382022	0.406851
C87	C	1.094570	-0.118012	0.093430
C88	C	1.594570	0.381988	0.593430
C89	C	1.093408	-0.177412	0.093416
C90	C	1.593408	0.322588	0.593416
C91	C	1.092831	-0.207096	0.000111
C92	C	1.592831	0.292904	0.500111
O93	O	1.091587	-0.271402	0.172683
O94	O	1.591587	0.228598	0.672683
O95	O	1.091571	-0.271390	-0.172516
O96	O	1.591571	0.228610	0.327484
C97	C	1.257311	0.075063	0.000123
C98	C	1.757311	0.575063	0.500123
C99	C	1.359678	0.076291	0.000127
C100	C	1.859678	0.576291	0.500127
C101	C	1.080948	0.183165	0.000077
C102	C	1.580948	0.683165	0.500077
C103	C	1.082170	0.246389	0.000061
C104	C	1.582170	0.746389	0.500061
N105	N	1.088651	0.079042	0.243644
N106	N	1.588651	0.579042	0.743644
N107	N	1.088686	0.079052	-0.243435
N108	N	1.588686	0.579052	0.256565
C109	C	1.088672	0.079053	0.663459
C110	C	1.588672	0.579053	1.163459
C111	C	1.088663	0.079051	0.546654
C112	C	1.588663	0.579051	1.046654
C113	C	1.088662	0.079048	0.453555
C114	C	1.588662	0.579048	0.953555
C115	C	1.088652	0.079046	0.336743
C116	C	1.588652	0.579046	0.836743
H117	H	1.095074	-0.093789	-0.169120
H118	H	1.595074	0.406211	0.330880
H119	H	1.092947	-0.201545	-0.169142
H120	H	1.592947	0.298455	0.330858
H121	H	1.095039	-0.093829	0.169383
H122	H	1.595039	0.406171	0.669383
H123	H	1.089733	-0.367034	-0.262444
H124	H	1.589733	0.132966	0.237556
H125	H	1.087555	-0.474849	0.262638
H126	H	1.587555	0.025151	0.762638
H127	H	1.087622	-0.474786	-0.262455
H128	H	1.587622	0.025214	0.237545
C129	C	1.171401	-0.250555	0.201667
C130	C	1.671401	0.249445	0.701667
C131	C	1.092780	-0.210073	0.195965
C132	C	1.592780	0.289927	0.695965
H133	H	1.171012	-0.270710	0.264983
H134	H	1.671012	0.229290	0.764983
H135	H	1.170878	-0.276740	0.146122
H136	H	1.670878	0.223260	0.646122
H137	H	1.225633	-0.231666	0.197781
H138	H	1.725633	0.268334	0.697781
H139	H	1.038547	-0.228962	0.199844
H140	H	1.538547	0.271038	0.699844
H141	H	1.093294	-0.183884	0.251526
H142	H	1.593294	0.316116	0.751526
C143	C	1.011185	-0.318144	0.294904
C144	C	1.511185	0.181856	0.794904
C145	C	1.089808	-0.358625	0.289221
C146	C	1.589808	0.141375	0.789221
H147	H	1.011566	-0.298001	0.358218
H148	H	1.511566	0.201999	0.858218
H149	H	1.011713	-0.291949	0.239356
H150	H	1.511713	0.208051	0.739356
H151	H	0.956954	-0.337033	0.291010
H152	H	1.456954	0.162967	0.791010
H153	H	1.144039	-0.339736	0.293107
H154	H	1.644039	0.160264	0.793107
H155	H	1.089289	-0.384824	0.344784
H156	H	1.589289	0.115176	0.844784
H157	H	1.084396	-0.640298	-0.169190
H158	H	1.584396	-0.140298	0.330810
H159	H	1.082276	-0.748107	0.169316
H160	H	1.582276	-0.248107	0.669316
C161	C	1.080973	-0.814944	-0.176071
C162	C	1.580973	-0.314944	0.323929
C163	C	1.082120	-0.756530	-0.195778
C164	C	1.582120	-0.256530	0.304222
H165	H	1.080573	-0.835093	-0.239376
H166	H	1.580573	-0.335093	0.260624
H167	H	1.134565	-0.828971	-0.137745
H168	H	1.634565	-0.328971	0.362255
H169	H	1.026993	-0.820382	-0.137739
H170	H	1.526993	-0.320382	0.362261
H171	H	1.136104	-0.751091	-0.234103
H172	H	1.636104	-0.251091	0.265897
H173	H	1.028523	-0.742499	-0.234120
H174	H	1.528523	-0.242499	0.265880
C175	C	1.083773	-0.670521	0.277781
C176	C	1.583773	-0.170521	0.777781
C177	C	1.084526	-0.631887	0.195914
C178	C	1.584526	-0.131887	0.695914
H179	H	1.084167	-0.650378	0.341095
H180	H	1.584167	-0.150378	0.841095
H181	H	1.029539	-0.689397	0.273887
H182	H	1.529539	-0.189397	0.773887
H183	H	1.137112	-0.697982	0.273889
H184	H	1.637112	-0.197982	0.773889
H185	H	1.031184	-0.604428	0.199801
H186	H	1.531184	-0.104428	0.699801
H187	H	1.138765	-0.613001	0.199810
H188	H	1.638765	-0.113001	0.699810
