data_functionalizedCrystal
_audit_creation_method	'MofGen! by Chris Wilmer'
_symmetry_space_group_name_H-M	'P1'
_symmetry_Int_Tables_number	1
_symmetry_cell_setting	triclinic
loop_
_symmetry_equiv_pos_as_xyz
  x,y,z
_cell_length_a	16.120530
_cell_length_b	16.120484
_cell_length_c	16.120297
_cell_angle_alpha	95.614431
_cell_angle_beta	90.128140
_cell_angle_gamma	90.167327
loop_
_atom_site_label
_atom_site_type_symbol
_atom_site_fract_x
_atom_site_fract_y
_atom_site_fract_z
Zn1	Zn	1.224987	-0.422264	-0.554813
Zn2	Zn	1.558320	-0.088931	-0.221480
Zn3	Zn	1.891654	0.244402	0.111853
Zn4	Zn	1.224883	-0.554948	-0.422118
Zn5	Zn	1.558216	-0.221615	-0.088785
Zn6	Zn	1.891549	0.111718	0.244548
Zn7	Zn	1.093726	-0.408180	-0.408056
Zn8	Zn	1.427060	-0.074847	-0.074723
Zn9	Zn	1.760393	0.258487	0.258611
Zn10	Zn	1.078880	-0.554181	-0.554051
Zn11	Zn	1.412213	-0.220848	-0.220717
Zn12	Zn	1.745547	0.112486	0.112616
O13	O	1.155619	-0.484893	-0.484760
O14	O	1.488952	-0.151560	-0.151426
O15	O	1.822286	0.181773	0.181907
O16	O	1.341009	-0.446081	-0.543415
O17	O	1.674342	-0.112747	-0.210082
O18	O	2.007676	0.220586	0.123251
O19	O	1.213654	-0.529906	-0.303620
O20	O	1.546987	-0.196573	0.029713
O21	O	1.880321	0.136760	0.363047
O22	O	1.117395	-0.293418	-0.421958
O23	O	1.450729	0.039916	-0.088624
O24	O	1.784062	0.373249	0.244709
O25	O	1.340932	-0.543563	-0.445925
O26	O	1.674266	-0.210230	-0.112591
O27	O	2.007599	0.123104	0.220742
O28	O	1.213832	-0.303765	-0.529780
O29	O	1.547166	0.029568	-0.196446
O30	O	1.880499	0.362901	0.136887
O31	O	1.117294	-0.422076	-0.293289
O32	O	1.450627	-0.088743	0.040045
O33	O	1.783961	0.244591	0.373378
O34	O	0.975721	-0.421332	-0.421218
O35	O	1.309055	-0.087998	-0.087885
O36	O	1.642388	0.245335	0.245448
O37	O	1.092092	-0.542255	-0.670785
O38	O	1.425425	-0.208922	-0.337451
O39	O	1.758758	0.124412	-0.004118
O40	O	0.964814	-0.528598	-0.528480
O41	O	1.298147	-0.195265	-0.195147
O42	O	1.631480	0.138069	0.138187
O43	O	1.199436	-0.445336	-0.671345
O44	O	1.532769	-0.112003	-0.338011
O45	O	1.866103	0.221330	-0.004678
O46	O	1.199258	-0.671477	-0.445185
O47	O	1.532591	-0.338144	-0.111852
O48	O	1.865925	-0.004811	0.221481
O49	O	1.091990	-0.670913	-0.542116
O50	O	1.425324	-0.337580	-0.208782
O51	O	1.758657	-0.004247	0.124551
C52	C	0.940181	-0.473354	-0.473241
C53	C	1.273514	-0.140021	-0.139908
C54	C	1.606847	0.193313	0.193426
C55	C	0.848013	-0.468438	-0.468334
C56	C	1.181346	-0.135105	-0.135001
C57	C	1.514680	0.198228	0.198333
C58	C	0.679262	-0.459445	-0.459381
C59	C	1.012595	-0.126111	-0.126048
C60	C	1.345928	0.207222	0.207285
C61	C	0.632810	-0.510407	-0.510202
C62	C	0.966144	-0.177073	-0.176868
C63	C	1.299477	0.156260	0.156465
C64	C	0.538911	-0.505403	-0.505220
C65	C	0.872245	-0.172069	-0.171887
C66	C	1.205578	0.161264	0.161446
C67	C	0.773169	-0.464448	-0.464361
C68	C	1.106503	-0.131114	-0.131028
C69	C	1.439836	0.202219	0.202305
C70	C	1.144023	-0.701438	-0.495113
C71	C	1.477357	-0.368105	-0.161780
C72	C	1.810690	-0.034772	0.171554
C73	C	1.139137	-0.794083	-0.499574
C74	C	1.472470	-0.460749	-0.166241
C75	C	1.805804	-0.127416	0.167093
C76	C	1.130220	-0.963706	-0.507736
C77	C	1.463553	-0.630372	-0.174403
C78	C	1.796887	-0.297039	0.158930
C79	C	1.181166	-1.005249	-0.461804
C80	C	1.514499	-0.671916	-0.128471
C81	C	1.847833	-0.338583	0.204862
C82	C	1.176204	-1.099633	-0.466346
C83	C	1.509538	-0.766300	-0.133012
C84	C	1.842871	-0.432967	0.200321
C85	C	1.135180	-0.869313	-0.503196
C86	C	1.468514	-0.535980	-0.169863
C87	C	1.801847	-0.202646	0.163471
C88	C	1.371899	-0.496479	-0.496324
C89	C	1.705232	-0.163145	-0.162990
C90	C	2.038565	0.170188	0.170343
C91	C	1.464064	-0.501416	-0.501252
C92	C	1.797398	-0.168082	-0.167918
C93	C	2.130731	0.165251	0.165415
C94	C	1.144119	-0.495281	-0.702152
C95	C	1.477453	-0.161948	-0.368818
C96	C	1.810786	0.171386	-0.035485
C97	C	1.139219	-0.499708	-0.794791
C98	C	1.472552	-0.166374	-0.461458
C99	C	1.805886	0.166959	-0.128125
C100	C	1.167282	-0.267505	-0.474385
C101	C	1.500615	0.065828	-0.141052
C102	C	1.833948	0.399162	0.192282
C103	C	1.172251	-0.174867	-0.469964
C104	C	1.505585	0.158466	-0.136631
C105	C	1.838918	0.491800	0.196703
C106	C	1.130243	-0.507770	-0.964403
C107	C	1.463576	-0.174436	-0.631069
C108	C	1.796909	0.158897	-0.297736
C109	C	1.181172	-0.461776	-1.005965
C110	C	1.514505	-0.128443	-0.672632
C111	C	1.847839	0.204890	-0.339298
C112	C	1.176177	-0.466262	-1.100342
C113	C	1.509511	-0.132929	-0.767009
C114	C	1.842844	0.200405	-0.433676
C115	C	1.135236	-0.503285	-0.870017
C116	C	1.468569	-0.169952	-0.536683
C117	C	1.801903	0.163382	-0.203350
C118	C	1.167125	-0.474489	-0.268213
C119	C	1.500458	-0.141155	0.065121
C120	C	1.833791	0.192178	0.398454
C121	C	1.172198	-0.469836	-0.175571
C122	C	1.505532	-0.136502	0.157763
C123	C	1.838865	0.196831	0.491096
H124	H	1.228508	-0.969931	-0.419069
H125	H	1.561841	-0.636597	-0.085736
H126	H	1.895175	-0.303264	0.247598
C127	C	1.067064	-1.010643	-0.564794
C128	C	1.400397	-0.677310	-0.231461
C129	C	1.733730	-0.343977	0.101873
C130	C	1.021042	-0.953770	-0.606296
C131	C	1.354376	-0.620436	-0.272963
C132	C	1.687709	-0.287103	0.060370
C133	C	0.962863	-0.996989	-0.658869
C134	C	1.296196	-0.663655	-0.325536
C135	C	1.629529	-0.330322	0.007797
H136	H	1.030822	-1.041200	-0.532639
H137	H	1.364156	-0.707867	-0.199306
H138	H	1.697489	-0.374534	0.134027
H139	H	1.095063	-1.047976	-0.604473
H140	H	1.428396	-0.714643	-0.271139
H141	H	1.761730	-0.381310	0.062194
H142	H	0.993044	-0.916451	-0.566623
H143	H	1.326378	-0.583118	-0.233290
H144	H	1.659711	-0.249784	0.100044
H145	H	1.057261	-0.923210	-0.638467
H146	H	1.390594	-0.589877	-0.305133
H147	H	1.723928	-0.256544	0.028200
H148	H	0.990862	-1.034322	-0.698548
H149	H	1.324195	-0.700989	-0.365215
H150	H	1.657529	-0.367655	-0.031881
H151	H	0.926627	-1.027544	-0.626708
H152	H	1.259960	-0.694211	-0.293375
H153	H	1.593294	-0.360878	0.039958
H154	H	0.931635	-0.958407	-0.687041
H155	H	1.264969	-0.625074	-0.353707
H156	H	1.598302	-0.291741	-0.020374
H157	H	1.228524	-0.419031	-0.970668
H158	H	1.561857	-0.085697	-0.637334
H159	H	1.895191	0.247636	-0.304001
H160	H	0.663563	-0.557794	-0.557453
H161	H	0.996896	-0.224461	-0.224119
H162	H	1.330230	0.108873	0.109214
C163	C	1.067241	-0.564881	-1.011518
C164	C	1.400574	-0.231548	-0.678184
C165	C	1.733908	0.101786	-0.344851
C166	C	1.108745	-0.623151	-1.066552
C167	C	1.442078	-0.289818	-0.733219
C168	C	1.775412	0.043516	-0.399885
C169	C	1.050740	-0.675783	-1.109971
C170	C	1.384073	-0.342450	-0.776638
C171	C	1.717406	-0.009117	-0.443304
H172	H	1.031035	-0.532747	-1.042089
H173	H	1.364369	-0.199414	-0.708756
H174	H	1.697702	0.133919	-0.375423
H175	H	1.035953	-0.593204	-0.973062
H176	H	1.369286	-0.259871	-0.639729
H177	H	1.702619	0.073462	-0.306395
H178	H	1.140019	-0.594830	-1.105003
H179	H	1.473353	-0.261497	-0.771669
H180	H	1.806686	0.071837	-0.438336
H181	H	1.144946	-0.655304	-1.036002
H182	H	1.478280	-0.321970	-0.702669
H183	H	1.811613	0.011363	-0.369335
H184	H	1.019451	-0.704107	-1.071515
H185	H	1.352785	-0.370773	-0.738182
H186	H	1.686118	-0.037440	-0.404849
H187	H	1.014537	-0.643643	-1.140538
H188	H	1.347871	-0.310310	-0.807204
H189	H	1.681204	0.023024	-0.473871
H190	H	1.078892	-0.715330	-1.147311
H191	H	1.412225	-0.381997	-0.813978
H192	H	1.745558	-0.048664	-0.480644
C193	C	0.638108	-0.396348	-0.396406
C194	C	0.971441	-0.063015	-0.063073
C195	C	1.304774	0.270319	0.270261
C196	C	0.551805	-0.403893	-0.403907
C197	C	0.885139	-0.070559	-0.070574
C198	C	1.218472	0.262774	0.262759
C199	C	0.513857	-0.345793	-0.345901
C200	C	0.847190	-0.012459	-0.012567
C201	C	1.180523	0.320874	0.320766
H202	H	0.654504	-0.341649	-0.406688
H203	H	0.987837	-0.008316	-0.073355
H204	H	1.321170	0.325018	0.259978
H205	H	0.654503	-0.406529	-0.341680
H206	H	0.987836	-0.073195	-0.008347
H207	H	1.321170	0.260138	0.324987
H208	H	0.535417	-0.393706	-0.458620
H209	H	0.868750	-0.060372	-0.125287
H210	H	1.202083	0.272961	0.208046
H211	H	0.535386	-0.458579	-0.393617
H212	H	0.868719	-0.125246	-0.060284
H213	H	1.202052	0.208088	0.273050
H214	H	0.530252	-0.355973	-0.291174
H215	H	0.863585	-0.022640	0.042159
H216	H	1.196919	0.310693	0.375492
H217	H	0.530259	-0.291098	-0.356188
H218	H	0.863592	0.042236	-0.022855
H219	H	1.196926	0.375569	0.310479
H220	H	0.455297	-0.350909	-0.350977
H221	H	0.788630	-0.017576	-0.017644
H222	H	1.121964	0.315758	0.315690
