data_functionalizedCrystal
_audit_creation_method	'MofGen! by Chris Wilmer'
_symmetry_space_group_name_H-M	'P1'
_symmetry_Int_Tables_number	1
_symmetry_cell_setting	triclinic
loop_
_symmetry_equiv_pos_as_xyz
  x,y,z
_cell_length_a	18.215407
_cell_length_b	18.050590
_cell_length_c	18.215399
_cell_angle_alpha	89.968856
_cell_angle_beta	89.986109
_cell_angle_gamma	90.016012
loop_
_atom_site_label
_atom_site_type_symbol
_atom_site_fract_x
_atom_site_fract_y
_atom_site_fract_z
Zn1	Zn	1.125082	-0.295700	-0.416054
Zn2	Zn	1.625082	0.204300	0.083946
Zn3	Zn	1.125011	-0.419900	-0.292986
Zn4	Zn	1.625011	0.080100	0.207014
Zn5	Zn	1.002021	-0.295723	-0.293008
Zn6	Zn	1.502021	0.204277	0.206992
Zn7	Zn	1.001995	-0.419847	-0.416017
Zn8	Zn	1.501995	0.080153	0.083983
O9	O	1.063527	-0.357792	-0.354516
O10	O	1.563527	0.142208	0.145484
O11	O	1.228057	-0.312188	-0.399735
O12	O	1.728057	0.187812	0.100265
O13	O	1.108677	-0.403459	-0.190005
O14	O	1.608677	0.096541	0.309995
O15	O	1.018387	-0.191795	-0.309355
O16	O	1.518387	0.308205	0.190645
O17	O	1.228005	-0.403437	-0.309318
O18	O	1.728005	0.096563	0.190682
O19	O	1.108799	-0.191778	-0.399756
O20	O	1.608799	0.308222	0.100244
O21	O	1.018318	-0.312227	-0.190021
O22	O	1.518318	0.187773	0.309979
O23	O	0.899034	-0.312176	-0.309319
O24	O	1.399034	0.187824	0.190681
O25	O	1.018341	-0.403347	-0.519007
O26	O	1.518341	0.096653	-0.019007
O27	O	0.899014	-0.403369	-0.399694
O28	O	1.399014	0.096631	0.100306
O29	O	1.108773	-0.312136	-0.519034
O30	O	1.608773	0.187864	-0.019034
O31	O	1.108651	-0.523818	-0.309282
O32	O	1.608651	-0.023818	0.190718
O33	O	1.018272	-0.523779	-0.399673
O34	O	1.518272	-0.023779	0.100327
C35	C	0.872321	-0.357770	-0.354505
C36	C	1.372321	0.142230	0.145495
C37	C	0.790522	-0.357778	-0.354518
C38	C	1.290522	0.142222	0.145482
C39	C	0.525474	-0.405355	-0.401510
C40	C	1.025474	0.094645	0.098490
C41	C	0.602332	-0.405348	-0.401506
C42	C	1.102332	0.094652	0.098494
C43	C	0.602322	-0.310247	-0.307536
C44	C	1.102322	0.189753	0.192464
C45	C	0.525465	-0.310257	-0.307536
C46	C	1.025465	0.189743	0.192464
C47	C	0.487043	-0.357810	-0.354527
C48	C	0.987043	0.142190	0.145473
C49	C	0.640759	-0.357793	-0.354524
C50	C	1.140759	0.142207	0.145476
C51	C	0.724092	-0.357786	-0.354519
C52	C	1.224092	0.142214	0.145481
C53	C	0.403704	-0.357819	-0.354531
C54	C	0.903704	0.142181	0.145469
C55	C	1.063471	-0.550745	-0.354487
C56	C	1.563471	-0.050745	0.145513
C57	C	1.063514	-0.633290	-0.354499
C58	C	1.563514	-0.133290	0.145501
C59	C	1.112765	-0.832735	-0.305413
C60	C	1.612765	-0.332735	0.194587
C61	C	1.130738	-0.882065	-0.372579
C62	C	1.630738	-0.382065	0.127421
C63	C	1.063556	-0.784421	-0.354529
C64	C	1.563556	-0.284421	0.145471
C65	C	1.045657	-0.882172	-0.287393
C66	C	1.545657	-0.382172	0.212607
C67	C	1.063597	-0.930406	-0.354551
C68	C	1.563597	-0.430406	0.145449
C69	C	1.081564	-0.832664	-0.421730
C70	C	1.581564	-0.332664	0.078270
C71	C	0.996451	-0.832766	-0.336498
C72	C	1.496451	-0.332766	0.163502
C73	C	1.014399	-0.882074	-0.403710
C74	C	1.514399	-0.382074	0.096290
C75	C	1.063533	-0.700322	-0.354515
C76	C	1.563533	-0.200322	0.145485
C77	C	1.063619	-1.014502	-0.354572
C78	C	1.563619	-0.514502	0.145428
C79	C	1.255480	-0.357816	-0.354528
C80	C	1.755480	0.142184	0.145472
C81	C	1.337279	-0.357826	-0.354533
C82	C	1.837279	0.142174	0.145467
C83	C	1.063562	-0.357733	-0.546469
C84	C	1.563562	0.142267	-0.046469
C85	C	1.063577	-0.357708	-0.628268
C86	C	1.563577	0.142292	-0.128268
C87	C	1.063604	-0.164087	-0.354562
C88	C	1.563604	0.335913	0.145438
C89	C	1.063637	-0.081541	-0.354581
C90	C	1.563637	0.418459	0.145419
C91	C	1.016566	-0.310171	-0.816472
C92	C	1.516566	0.189829	-0.316472
C93	C	1.016579	-0.310156	-0.893330
C94	C	1.516579	0.189844	-0.393330
C95	C	1.110675	-0.405156	-0.893303
C96	C	1.610675	0.094844	-0.393303
C97	C	1.110658	-0.405174	-0.816446
C98	C	1.610658	0.094826	-0.316446
C99	C	1.063605	-0.357677	-0.778032
C100	C	1.563605	0.142323	-0.278032
C101	C	1.063635	-0.357644	-0.931748
C102	C	1.563635	0.142356	-0.431748
C103	C	1.063649	-0.357628	-1.015082
C104	C	1.563649	0.142372	-0.515082
C105	C	1.063590	-0.357694	-0.694693
C106	C	1.563590	0.142306	-0.194693
C107	C	1.063535	-0.357798	-0.163310
C108	C	1.563535	0.142202	0.336690
C109	C	1.063663	-0.357614	-0.081512
C110	C	1.563663	0.142386	0.418488
H111	H	0.494174	-0.271540	-0.269274
H112	H	0.994174	0.228460	0.230726
N113	N	1.161420	-0.456380	-0.934743
N114	N	1.661420	0.043620	-0.434743
H115	H	1.195543	-0.426195	-0.966641
H116	H	1.695543	0.073805	-0.466641
H117	H	1.191167	-0.486473	-0.898685
H118	H	1.691167	0.013527	-0.398685
N119	N	1.205925	-0.910765	-0.392801
N120	N	1.705925	-0.410765	0.107199
H121	H	1.219846	-0.891982	-0.443156
H122	H	1.719846	-0.391982	0.056844
H123	H	1.242998	-0.892818	-0.355619
H124	H	1.742998	-0.392818	0.144381
H125	H	1.096663	-0.811009	-0.478564
H126	H	1.596663	-0.311009	0.021436
N127	N	0.643760	-0.258953	-0.256858
N128	N	1.143760	0.241047	0.243142
H129	H	0.675637	-0.289086	-0.222702
H130	H	1.175637	0.210914	0.277298
H131	H	0.675616	-0.224576	-0.286877
H132	H	1.175616	0.275424	0.213123
H133	H	0.972803	-0.903601	-0.445303
H134	H	1.472803	-0.403601	0.054697
H135	H	0.978275	-0.271472	-0.924625
H136	H	1.478275	0.228528	-0.424625
N137	N	1.161391	-0.456420	-0.774980
N138	N	1.661391	0.043580	-0.274980
H139	H	1.191205	-0.486502	-0.810976
H140	H	1.691205	0.013498	-0.310976
H141	H	1.195452	-0.426202	-0.743099
H142	H	1.695452	0.073798	-0.243099
N143	N	0.484037	-0.456652	-0.452185
N144	N	0.984037	0.043348	0.047815
H145	H	0.452136	-0.491034	-0.422216
H146	H	0.952136	0.008966	0.077784
H147	H	0.452203	-0.426468	-0.486335
H148	H	0.952203	0.073532	0.013665
H149	H	0.633619	-0.444065	-0.439763
H150	H	1.133619	0.055935	0.060237
H151	H	1.154393	-0.811070	-0.263921
H152	H	1.654393	-0.311070	0.236079
N153	N	0.921279	-0.804053	-0.316257
N154	N	1.421279	-0.304053	0.183743
H155	H	0.907786	-0.822031	-0.265499
H156	H	1.407786	-0.322031	0.234501
H157	H	0.921762	-0.748107	-0.316917
H158	H	1.421762	-0.248107	0.183083
N159	N	1.025577	-0.910981	-0.212179
N160	N	1.525577	-0.410981	0.287821
H161	H	1.062769	-0.893034	-0.175114
H162	H	1.562769	-0.393034	0.324886
H163	H	0.975223	-0.892272	-0.198233
H164	H	1.475223	-0.392272	0.301767
N165	N	0.965820	-0.258944	-0.775038
N166	N	1.465820	0.241056	-0.275038
H167	H	0.936024	-0.228847	-0.811055
H168	H	1.436024	0.271153	-0.311055
H169	H	0.931744	-0.289175	-0.743137
H170	H	1.431744	0.210825	-0.243137
