data_functionalizedCrystal
_audit_creation_method	'MofGen! by Chris Wilmer'
_symmetry_space_group_name_H-M	'P1'
_symmetry_Int_Tables_number	1
_symmetry_cell_setting	triclinic
loop_
_symmetry_equiv_pos_as_xyz
  x,y,z
_cell_length_a	17.699077
_cell_length_b	11.026607
_cell_length_c	16.176319
_cell_angle_alpha	90.000905
_cell_angle_beta	90.005422
_cell_angle_gamma	95.933297
loop_
_atom_site_label
_atom_site_type_symbol
_atom_site_fract_x
_atom_site_fract_y
_atom_site_fract_z
O1	O	1.025151	0.153358	0.068733
O2	O	0.807515	0.173323	0.068737
O3	O	0.898296	-0.013259	0.068732
O4	O	0.934370	0.339940	0.068738
O5	O	0.898282	-0.013259	-0.068761
O6	O	0.807501	0.173323	-0.068756
O7	O	1.025137	0.153358	-0.068760
Cu8	Cu	0.916318	0.163340	-0.081312
Cu9	Cu	0.916334	0.163341	0.081289
O10	O	0.934357	0.339940	-0.068756
C11	C	0.779213	0.172609	-0.000009
C12	C	0.694900	0.170466	-0.000008
C13	C	0.655287	0.169457	-0.074956
C14	C	0.576065	0.167424	-0.074957
C15	C	0.536459	0.166410	-0.000009
C16	C	0.576078	0.167416	0.074945
C17	C	0.655297	0.169440	0.074946
C18	C	0.256593	0.159253	0.074947
C19	C	0.177368	0.157233	0.074941
C20	C	0.177360	0.157237	-0.074956
C21	C	0.256580	0.159261	-0.074956
C22	C	0.296192	0.160261	-0.000002
C23	C	0.382093	0.162462	-0.000002
C24	C	0.450559	0.164217	-0.000008
C25	C	0.891634	-0.058450	-0.000013
C26	C	0.871794	-0.193105	-0.000010
C27	C	0.926574	-0.267074	-0.000010
C28	C	0.906070	-0.406247	-0.000006
C29	C	1.053439	0.154072	-0.000012
C30	C	1.137752	0.156215	-0.000008
C31	C	0.941019	0.385131	-0.000008
C32	C	0.960858	0.519786	-0.000006
N33	N	0.916312	0.163339	-0.195678
C34	C	0.972223	0.236819	-0.238938
C35	C	0.972230	0.236814	-0.325485
C36	C	0.916323	0.163335	-0.368770
C37	C	0.860410	0.089847	-0.325504
C38	C	0.860406	0.089846	-0.238958
C39	C	0.860424	0.089849	-0.674532
C40	C	0.860430	0.089858	-0.761084
C41	C	0.972248	0.236817	-0.761059
C42	C	0.972244	0.236815	-0.674513
C43	C	0.916334	0.163323	-0.631255
C44	C	0.916327	0.163327	-0.537410
C45	C	0.916326	0.163337	-0.462613
N46	N	0.916345	0.163332	0.195654
H47	H	0.687529	0.170292	-0.135988
C48	C	1.033757	0.317649	-0.808651
N49	N	1.080084	0.378532	-0.844496
C50	C	1.010441	-0.213439	-0.000017
N51	N	1.073612	-0.173043	-0.000026
C52	C	0.822199	-0.459876	-0.000006
N53	N	0.759029	-0.500272	-0.000008
C54	C	1.044730	-0.426588	-0.000009
N55	N	1.107901	-0.386195	-0.000012
H56	H	1.017767	0.296654	-0.639275
H57	H	0.288835	0.160064	0.135979
H58	H	0.543814	0.166582	-0.135988
H59	H	0.543823	0.166582	0.135970
C60	C	0.787927	-0.246740	-0.000010
N61	N	0.724756	-0.287135	-0.000012
H62	H	1.017745	0.296661	-0.203701
H63	H	1.017759	0.296646	-0.360704
C64	C	0.798928	0.009017	-0.808696
N65	N	0.752607	-0.051870	-0.844557
C66	C	0.300142	0.160373	-0.157405
N67	N	0.332952	0.161205	-0.219507
H68	H	0.145099	0.156418	-0.135987
C69	C	0.798915	0.009016	-0.626959
N70	N	0.752582	-0.051868	-0.591124
H71	H	0.814892	0.030014	-0.360754
H72	H	0.145122	0.156406	0.135977
C73	C	0.698872	0.170554	0.157395
N74	N	0.731691	0.171389	0.219498
C75	C	0.798898	0.009016	-0.191373
N76	N	0.752570	-0.051870	-0.155532
