data_functionalizedCrystal
_audit_creation_method	'MofGen! by Chris Wilmer'
_symmetry_space_group_name_H-M	'P1'
_symmetry_Int_Tables_number	1
_symmetry_cell_setting	triclinic
loop_
_symmetry_equiv_pos_as_xyz
  x,y,z
_cell_length_a	10.489741
_cell_length_b	14.971486
_cell_length_c	9.565339
_cell_angle_alpha	90.006492
_cell_angle_beta	90.001147
_cell_angle_gamma	95.923349
loop_
_atom_site_label
_atom_site_type_symbol
_atom_site_fract_x
_atom_site_fract_y
_atom_site_fract_z
O1	O	-1.692593	0.126188	-0.116155
O2	O	-1.321260	0.138034	-0.116175
O3	O	-1.516879	0.001968	-0.116174
O4	O	-1.496974	0.262254	-0.116155
O5	O	-1.516863	0.001978	0.116346
O6	O	-1.321244	0.138044	0.116345
O7	O	-1.692576	0.126199	0.116365
Zn8	Zn	-1.506907	0.132123	0.153273
Zn9	Zn	-1.506929	0.132109	-0.153082
O10	O	-1.496957	0.262265	0.116365
C11	C	-1.515981	-0.031357	0.000080
C12	C	-1.513313	-0.130669	0.000063
C13	C	-1.273731	0.137144	0.000083
C14	C	-1.132132	0.134468	0.000074
C15	C	-1.740106	0.127088	0.000105
C16	C	-1.881704	0.129765	0.000104
C17	C	-1.064994	0.047893	0.000081
C18	C	-0.972402	0.088785	-0.114558
C19	C	-0.972419	0.088816	0.114689
C20	C	-1.041405	0.175395	-0.114659
C21	C	-1.041432	0.175414	0.114690
C22	C	-0.948867	0.216369	0.000024
C23	C	-1.497856	0.295589	0.000108
C24	C	-1.500523	0.394902	0.000116
N25	N	-1.506902	0.132132	0.362352
C26	C	-1.385603	0.451473	0.000108
C27	C	-1.388117	0.544787	0.000089
C28	C	-1.505553	0.581527	0.000088
C29	C	-1.620483	0.524949	0.000091
C30	C	-1.617967	0.431637	0.000100
C31	C	-1.625718	0.719441	0.000077
C32	C	-1.628234	0.812759	0.000071
C33	C	-1.395867	0.832591	0.000066
C34	C	-1.393352	0.739279	0.000074
C35	C	-1.508282	0.682707	0.000080
N36	N	-1.506945	0.132093	-0.362162
C37	C	-1.417175	0.195549	0.546725
C38	C	-1.391254	0.114809	0.453491
C39	C	-1.532766	0.212865	0.453517
C40	C	-1.480967	0.051312	0.546656
C41	C	-1.622529	0.149422	0.546690
C42	C	-1.596656	0.068624	0.453498
H43	H	-1.115507	-0.023277	-0.000068
C44	C	-1.261704	0.607011	0.000097
H45	H	-1.191404	0.571766	0.000119
H46	H	-1.257847	0.643818	-0.080990
H47	H	-1.257860	0.643831	0.081190
C48	C	-1.757410	0.853173	0.000063
H49	H	-1.825499	0.806118	0.000050
H50	H	-1.763219	0.889170	0.081147
H51	H	-1.763215	0.889155	-0.081033
H52	H	-1.458994	-0.016995	0.587398
C53	C	-0.931073	0.039295	-0.245488
H54	H	-0.971227	-0.020561	-0.245357
H55	H	-0.955843	0.069472	-0.326901
H56	H	-0.840646	0.038425	-0.244961
C57	C	-1.269443	0.894812	0.000057
H58	H	-1.199143	0.859566	0.000078
H59	H	-1.265589	0.931617	-0.081031
H60	H	-1.265596	0.931633	0.081149
H61	H	-1.297725	0.709368	0.000082
C62	C	-1.749664	0.565357	0.000093
H63	H	-1.817746	0.518298	0.000087
H64	H	-1.755469	0.601354	0.081176
H65	H	-1.755481	0.601337	-0.081004
C66	C	-1.259190	0.095022	0.398174
H67	H	-1.195515	0.140148	0.430086
H68	H	-1.240213	0.038093	0.431434
H69	H	-1.260363	0.094641	0.298866
H70	H	-1.719307	0.673382	0.000070
H71	H	-1.672557	0.014919	0.412824
H72	H	-1.711548	0.385577	0.000100
H73	H	-1.720262	0.164095	0.587663
C74	C	-1.082472	0.224832	-0.245742
H75	H	-1.009020	0.243788	-0.300412
H76	H	-1.140176	0.185497	-0.299339
H77	H	-1.123540	0.275722	-0.218339
H78	H	-1.289972	0.421567	0.000125
C79	C	-0.880972	0.312609	-0.000051
H80	H	-0.904575	0.343209	-0.081562
H81	H	-0.905651	0.343598	0.080617
H82	H	-0.790792	0.310390	0.000715
H83	H	-1.072048	0.212020	0.211621
H84	H	-1.554641	0.281160	0.412631
C85	C	-0.931137	0.039321	0.245620
H86	H	-0.971315	-0.020529	0.245462
H87	H	-0.840717	0.038447	0.245141
H88	H	-0.955940	0.069501	0.327035
C89	C	-1.314585	0.267934	0.602035
H90	H	-1.232495	0.255483	0.570122
H91	H	-1.332137	0.325183	0.568776
H92	H	-1.315818	0.267775	0.701343
