data_functionalizedCrystal
_audit_creation_method	'MofGen! by Chris Wilmer'
_symmetry_space_group_name_H-M	'P1'
_symmetry_Int_Tables_number	1
_symmetry_cell_setting	triclinic
loop_
_symmetry_equiv_pos_as_xyz
  x,y,z
_cell_length_a	14.853558
_cell_length_b	15.944545
_cell_length_c	13.330367
_cell_angle_alpha	89.993254
_cell_angle_beta	89.992972
_cell_angle_gamma	83.563653
loop_
_atom_site_label
_atom_site_type_symbol
_atom_site_fract_x
_atom_site_fract_y
_atom_site_fract_z
O1	O	1.196231	0.109628	-0.083416
O2	O	0.933753	0.122700	-0.083421
O3	O	1.072162	-0.006104	-0.083407
O4	O	1.057821	0.238431	-0.083431
O5	O	1.072142	-0.006107	0.083441
O6	O	0.933733	0.122697	0.083426
O7	O	1.196211	0.109625	0.083431
Cu8	Cu	1.064970	0.116160	0.098663
Cu9	Cu	1.064994	0.116164	-0.098653
O10	O	1.057801	0.238428	0.083416
C11	C	0.900155	0.122107	0.000002
C12	C	0.800073	0.120337	0.000000
C13	C	0.753065	0.119508	-0.090952
C14	C	0.753041	0.119495	0.090951
C15	C	0.659010	0.117826	0.090953
C16	C	0.612002	0.116998	0.000001
C17	C	0.659025	0.117837	-0.090953
C18	C	0.611981	0.116978	0.181905
C19	C	0.517944	0.115309	0.181911
C20	C	0.470933	0.114486	0.090958
C21	C	0.517962	0.115327	-0.000000
C22	C	0.470954	0.114498	-0.090952
C23	C	0.517980	0.115344	-0.181911
C24	C	0.612014	0.117014	-0.181906
C25	C	0.376899	0.112817	0.090953
C26	C	0.376914	0.112827	-0.090953
C27	C	1.071558	-0.037400	0.000018
C28	C	1.069776	-0.130648	0.000021
C29	C	0.978659	-0.401380	-0.000001
C30	C	1.022598	-0.350745	-0.082265
C31	C	1.063421	-0.466299	-0.000008
C32	C	1.022601	-0.350775	0.082233
C33	C	1.066539	-0.301382	0.000008
C34	C	1.107338	-0.416893	-0.082340
C35	C	1.107328	-0.416926	0.082232
C36	C	1.151330	-0.366324	-0.000052
C37	C	1.061623	-0.561303	-0.000018
C38	C	1.068344	-0.206381	0.000010
C39	C	1.229809	0.110217	0.000006
C40	C	1.329890	0.111988	0.000001
C41	C	1.058405	0.269724	-0.000010
C42	C	1.060187	0.362973	-0.000020
N43	N	1.064960	0.116158	0.237444
N44	N	1.065011	0.116160	-0.237435
C45	C	1.003703	0.173176	0.710061
C46	C	1.126308	0.059146	0.710042
C47	C	1.126298	0.059143	0.605023
C48	C	1.064990	0.116158	0.552519
C49	C	1.003693	0.173176	0.605033
C50	C	1.187600	0.002132	0.552502
C51	C	1.187593	0.002128	0.447477
C52	C	1.126281	0.059140	0.394971
C53	C	1.064980	0.116159	0.447491
C54	C	1.003673	0.173175	0.394986
C55	C	0.942367	0.230191	0.447505
C56	C	0.942380	0.230189	0.552526
C57	C	1.126267	0.059142	0.289949
C58	C	1.003662	0.173176	0.289958
H59	H	0.479694	0.114665	-0.255964
C60	C	0.804794	0.120436	-0.191002
N61	N	0.843758	0.121132	-0.266360
C62	C	0.974249	-0.311704	-0.176222
N63	N	0.937827	-0.282300	-0.246988
H64	H	0.986781	-0.321901	0.151779
C65	C	0.466221	0.114396	0.281966
N66	N	0.427261	0.113715	0.357329
C67	C	1.155669	-0.455751	-0.176404
N68	N	1.192067	-0.485020	-0.247255
H69	H	1.224385	-0.350754	-0.000097
C70	C	0.936240	0.235920	0.232212
N71	N	0.885467	0.283188	0.188717
H72	H	0.338613	0.112135	0.165010
H73	H	0.338646	0.112157	-0.165018
H74	H	0.791322	0.120163	0.165000
H75	H	0.892453	0.276617	0.404743
C76	C	1.193743	-0.003567	0.767800
N77	N	1.244535	-0.050807	0.811308
C78	C	0.880044	-0.422639	-0.000113
N79	N	0.805769	-0.438654	-0.000202
H80	H	0.650312	0.117702	-0.255960
H81	H	1.143086	-0.445838	0.151785
C82	C	0.663685	0.117958	0.281945
N83	N	0.702630	0.118723	0.357299
C84	C	1.255023	-0.060598	0.389717
N85	N	1.305809	-0.107846	0.346210
H86	H	0.892468	0.276610	0.595293
C87	C	0.936264	0.235885	0.767831
N88	N	0.885467	0.283117	0.811345
C89	C	1.193700	-0.003571	0.232184
N90	N	1.244492	-0.050812	0.188676
H91	H	1.237520	-0.044285	0.595254
