data_functionalizedCrystal
_audit_creation_method	'MofGen! by Chris Wilmer'
_symmetry_space_group_name_H-M	'P1'
_symmetry_Int_Tables_number	1
_symmetry_cell_setting	triclinic
loop_
_symmetry_equiv_pos_as_xyz
  x,y,z
_cell_length_a	18.215407
_cell_length_b	21.295417
_cell_length_c	18.215399
_cell_angle_alpha	89.966485
_cell_angle_beta	89.983176
_cell_angle_gamma	90.030150
loop_
_atom_site_label
_atom_site_type_symbol
_atom_site_fract_x
_atom_site_fract_y
_atom_site_fract_z
Zn1	Zn	1.125025	-0.250593	-0.416100
Zn2	Zn	1.124930	-0.355869	-0.293027
Zn3	Zn	1.001964	-0.250618	-0.293047
Zn4	Zn	1.001914	-0.355829	-0.416052
O5	O	1.063458	-0.303227	-0.354556
O6	O	1.227997	-0.264564	-0.399785
O7	O	1.108600	-0.341934	-0.190045
O8	O	1.018350	-0.162525	-0.309399
O9	O	1.227927	-0.341910	-0.309364
O10	O	1.108762	-0.162507	-0.399805
O11	O	1.018257	-0.264607	-0.190060
O12	O	0.898973	-0.264569	-0.309352
O13	O	1.018263	-0.341843	-0.519042
O14	O	0.898936	-0.341867	-0.399723
O15	O	1.108713	-0.264526	-0.519078
O16	O	1.108550	-0.443953	-0.309317
O17	O	1.018171	-0.443924	-0.399703
C18	C	0.872252	-0.303217	-0.354535
C19	C	0.790453	-0.303227	-0.354544
C20	C	0.602259	-0.343540	-0.401541
C21	C	0.525400	-0.343542	-0.401550
C22	C	0.525410	-0.262927	-0.307588
C23	C	0.602267	-0.262922	-0.307583
C24	C	0.640690	-0.303232	-0.354558
C25	C	0.486974	-0.303239	-0.354572
C26	C	0.403640	-0.303240	-0.354582
C27	C	0.724029	-0.303229	-0.354550
C28	C	1.063365	-0.466779	-0.354519
C29	C	1.063392	-0.536747	-0.354528
C30	C	1.110443	-0.569547	-0.401636
C31	C	1.110469	-0.635289	-0.401654
C32	C	1.063451	-0.668230	-0.354551
C33	C	1.016392	-0.635422	-0.307439
C34	C	1.016362	-0.569680	-0.307428
N35	N	1.057896	-0.771494	-0.290145
N36	N	1.057929	-0.833946	-0.290158
C37	C	1.063537	-0.866304	-0.354584
N38	N	1.069127	-0.833852	-0.418998
N39	N	1.069098	-0.771395	-0.418984
C40	C	1.063478	-0.739515	-0.354559
C41	C	1.110619	-0.970390	-0.401716
C42	C	1.110640	-1.036133	-0.401735
C43	C	1.016567	-1.036264	-0.307514
C44	C	1.016542	-0.970522	-0.307501
C45	C	1.063572	-0.937589	-0.354601
C46	C	1.255411	-0.303239	-0.354578
C47	C	1.337210	-0.303243	-0.354587
C48	C	1.063493	-0.303177	-0.546509
C49	C	1.063508	-0.303156	-0.628308
C50	C	1.063573	-0.139037	-0.354610
C51	C	1.063621	-0.069069	-0.354633
C52	C	1.016507	-0.262864	-0.816511
C53	C	1.016519	-0.262852	-0.893370
C54	C	1.110597	-0.343372	-0.893343
C55	C	1.110580	-0.343387	-0.816486
C56	C	1.063536	-0.303130	-0.778072
C57	C	1.063566	-0.303102	-0.931788
C58	C	1.063580	-0.303088	-1.015122
C59	C	1.063521	-0.303144	-0.694733
C60	C	1.063466	-0.303232	-0.163350
C61	C	1.063594	-0.303076	-0.081552
H62	H	1.148735	-0.542735	-0.439989
H63	H	0.978200	-0.230084	-0.785236
H64	H	0.978232	-0.943814	-0.269138
O65	O	1.156376	-0.382382	-0.930694
C66	C	1.255719	-0.390836	-1.017506
C67	C	1.203931	-0.346586	-0.975241
H68	H	1.294170	-0.361913	-1.053544
H69	H	1.289383	-0.419609	-0.976862
H70	H	1.221903	-0.423755	-1.053441
H71	H	1.237691	-0.313629	-0.939305
H72	H	1.170264	-0.317857	-1.015925
O73	O	0.488119	-0.223684	-0.262032
C74	C	0.464686	-0.116573	-0.226502
C75	C	0.506946	-0.160942	-0.278154
H76	H	0.479903	-0.065838	-0.239508
H77	H	0.403143	-0.123444	-0.234574
H78	H	0.479765	-0.127599	-0.167142
H79	H	0.491928	-0.149944	-0.337534
H80	H	0.568478	-0.154063	-0.270019
O81	O	0.639636	-0.223699	-0.262046
C82	C	0.726490	-0.138723	-0.252320
C83	C	0.684202	-0.183092	-0.303969
H84	H	0.762543	-0.105890	-0.286194
H85	H	0.685861	-0.109870	-0.218755
H86	H	0.762412	-0.167596	-0.213764
H87	H	0.648279	-0.154268	-0.342570
H88	H	0.724871	-0.211947	-0.337483
H89	H	0.978108	-0.662246	-0.269089
H90	H	1.148879	-0.376179	-0.785188
H91	H	0.633541	-0.376361	-0.439793
O92	O	0.970732	-0.223767	-0.930626
C93	C	0.845570	-0.193225	-0.954165
C94	C	0.897346	-0.237519	-0.911917
H95	H	0.786226	-0.204336	-0.939067
H96	H	0.858466	-0.142459	-0.939061
H97	H	0.853694	-0.200116	-1.015694
H98	H	0.889251	-0.230684	-0.850379
H99	H	0.884438	-0.288268	-0.927082
O100	O	0.488183	-0.382757	-0.447210
C101	C	0.496290	-0.462690	-0.540436
C102	C	0.538529	-0.418321	-0.488747
H103	H	0.536976	-0.491446	-0.574043
H104	H	0.460295	-0.495614	-0.506618
H105	H	0.460319	-0.433822	-0.578951
H106	H	0.574540	-0.447139	-0.450222
H107	H	0.574477	-0.385396	-0.522611
H108	H	0.978046	-0.542974	-0.269066
O109	O	1.156238	-0.667063	-0.447448
C110	C	1.249499	-0.660000	-0.540941
C111	C	1.197721	-0.623941	-0.489101
H112	H	1.283041	-0.625152	-0.574643
H113	H	1.288064	-0.690757	-0.507236
H114	H	1.215680	-0.690793	-0.579361
H115	H	1.231481	-0.593114	-0.450671
H116	H	1.159154	-0.593224	-0.522852
O117	O	1.156314	-0.938491	-0.447546
C118	C	1.249641	-0.945298	-0.540982
C119	C	1.197921	-0.981499	-0.489126
H120	H	1.283304	-0.980054	-0.574602
H121	H	1.215845	-0.914539	-0.579470
H122	H	1.288103	-0.914493	-0.507218
H123	H	1.159449	-1.012337	-0.522831
H124	H	1.231763	-1.012217	-0.450636
H125	H	1.148954	-1.062838	-0.440100
H126	H	0.978280	-1.063084	-0.269166
