data_functionalizedCrystal
_audit_creation_method	'MofGen! by Chris Wilmer'
_symmetry_space_group_name_H-M	'P1'
_symmetry_Int_Tables_number	1
_symmetry_cell_setting	triclinic
loop_
_symmetry_equiv_pos_as_xyz
  x,y,z
_cell_length_a	15.944551
_cell_length_b	11.792241
_cell_length_c	10.268362
_cell_angle_alpha	90.000374
_cell_angle_beta	89.993764
_cell_angle_gamma	96.153923
loop_
_atom_site_label
_atom_site_type_symbol
_atom_site_fract_x
_atom_site_fract_y
_atom_site_fract_z
O1	O	0.115128	-1.505960	-0.108177
O2	O	0.126993	-1.175521	-0.108207
O3	O	-0.001173	-1.349764	-0.108180
O4	O	0.243295	-1.331717	-0.108205
O5	O	-0.001179	-1.349749	0.108421
O6	O	0.126988	-1.175506	0.108393
O7	O	0.115123	-1.505945	0.108424
Cu8	Cu	0.121055	-1.340724	0.128186
Cu9	Cu	0.121061	-1.340742	-0.127970
O10	O	0.243290	-1.331702	0.108396
C11	C	0.126245	-1.133229	0.000089
C12	C	0.124015	-1.007234	0.000078
C13	C	-0.032473	-1.349008	0.000121
C14	C	-0.125729	-1.346761	0.000121
C15	C	0.115871	-1.548237	0.000124
C16	C	0.118102	-1.674233	0.000127
C17	C	-0.341098	-1.233389	0.000093
C18	C	-0.401880	-1.286028	0.106895
C19	C	-0.296474	-1.342698	0.000111
C20	C	-0.401858	-1.286069	-0.106656
C21	C	-0.461404	-1.338765	0.000095
C22	C	-0.356028	-1.395367	0.107001
C23	C	-0.355999	-1.395392	-0.106646
C24	C	-0.416764	-1.448111	0.000182
C25	C	-0.201461	-1.344961	0.000121
C26	C	-0.556415	-1.336511	0.000095
C27	C	0.274590	-1.332459	0.000093
C28	C	0.367846	-1.334705	0.000084
N29	N	0.121050	-1.340720	0.308352
C30	C	0.119913	-0.776555	0.000116
C31	C	0.122192	-0.904922	0.000095
N32	N	0.121060	-1.340756	-0.308135
C33	C	0.121060	-1.340736	0.574022
C34	C	0.121057	-1.340724	0.426184
H35	H	-0.308200	-1.142657	0.000191
O36	O	-0.426209	-1.230896	-0.214278
C37	C	-0.514601	-1.230472	-0.213417
H38	H	-0.538938	-1.241723	-0.109322
H39	H	-0.544667	-1.303451	-0.276354
C40	C	-0.507772	-1.102410	-0.395924
C41	C	-0.537663	-1.116218	-0.268071
H42	H	-0.522000	-1.031936	-0.429642
H43	H	-0.448222	-1.102698	-0.396508
H44	H	-0.532831	-1.163233	-0.448355
H45	H	-0.512597	-1.055404	-0.215639
H46	H	-0.597211	-1.115917	-0.267480
O47	O	-0.331793	-1.450393	0.214802
C48	C	-0.243489	-1.451825	0.213520
H49	H	-0.213620	-1.378972	0.150219
H50	H	-0.227352	-1.536572	0.172240
C51	C	-0.245863	-1.526800	0.431135
C52	C	-0.209177	-1.437315	0.353397
H53	H	-0.224697	-1.517855	0.517418
H54	H	-0.305356	-1.525840	0.431998
H55	H	-0.232413	-1.597414	0.396720
H56	H	-0.222636	-1.366704	0.387803
H57	H	-0.149686	-1.438263	0.352543
O58	O	-0.426071	-1.230687	0.214507
C59	C	-0.387161	-1.117532	0.214137
H60	H	-0.369031	-1.091198	0.110208
H61	H	-0.328113	-1.111582	0.277429
C62	C	-0.471183	-1.069881	0.396274
C63	C	-0.448921	-1.037535	0.268625
H64	H	-0.509277	-1.020535	0.429890
H65	H	-0.497395	-1.146117	0.396527
H66	H	-0.421970	-1.064922	0.449002
H67	H	-0.498132	-1.042508	0.215897
H68	H	-0.422719	-0.961297	0.268364
O69	O	-0.455803	-1.556463	0.000489
C70	C	-0.432417	-1.613653	0.113224
H71	H	-0.410808	-1.548488	0.191562
H72	H	-0.378690	-1.666502	0.088768
C73	C	-0.535179	-1.772798	0.067367
C74	C	-0.508644	-1.692762	0.163587
H75	H	-0.582197	-1.821600	0.098431
H76	H	-0.550933	-1.734271	-0.008588
H77	H	-0.490400	-1.816827	0.046996
H78	H	-0.553419	-1.648726	0.183945
H79	H	-0.492900	-1.731284	0.239547
H80	H	-0.335658	-1.441593	-0.196935
