data_functionalizedCrystal
_audit_creation_method	'MofGen! by Chris Wilmer'
_symmetry_space_group_name_H-M	'P1'
_symmetry_Int_Tables_number	1
_symmetry_cell_setting	triclinic
loop_
_symmetry_equiv_pos_as_xyz
  x,y,z
_cell_length_a	16.120530
_cell_length_b	16.625546
_cell_length_c	16.625539
_cell_angle_alpha	90.030397
_cell_angle_beta	87.082392
_cell_angle_gamma	92.882099
loop_
_atom_site_label
_atom_site_type_symbol
_atom_site_fract_x
_atom_site_fract_y
_atom_site_fract_z
Zn1	Zn	1.274562	0.383590	-0.518326
Zn2	Zn	1.524562	0.633590	-0.268326
Zn3	Zn	1.774562	0.883590	-0.018326
Zn4	Zn	2.024562	1.133590	0.231674
Zn5	Zn	1.274462	0.518428	-0.383484
Zn6	Zn	1.524462	0.768428	-0.133484
Zn7	Zn	1.774462	1.018428	0.116516
Zn8	Zn	2.024462	1.268428	0.366516
Zn9	Zn	1.135142	0.376772	-0.376678
Zn10	Zn	1.385142	0.626772	-0.126678
Zn11	Zn	1.635142	0.876772	0.123322
Zn12	Zn	1.885142	1.126772	0.373322
Zn13	Zn	1.135112	0.511536	-0.511448
Zn14	Zn	1.385112	0.761536	-0.261448
Zn15	Zn	1.635112	1.011536	-0.011448
Zn16	Zn	1.885112	1.261536	0.238552
O17	O	1.204819	0.447581	-0.447484
O18	O	1.454819	0.697581	-0.197484
O19	O	1.704819	0.947581	0.052516
O20	O	1.954819	1.197581	0.302516
O21	O	1.391215	0.407214	-0.506166
O22	O	1.641215	0.657214	-0.256166
O23	O	1.891215	0.907214	-0.006166
O24	O	2.141215	1.157214	0.243834
O25	O	1.255952	0.499668	-0.269747
O26	O	1.505952	0.749668	-0.019747
O27	O	1.755952	0.999668	0.230253
O28	O	2.005952	1.249668	0.480253
O29	O	1.153691	0.264846	-0.395498
O30	O	1.403691	0.514846	-0.145498
O31	O	1.653691	0.764846	0.104502
O32	O	1.903691	1.014846	0.354502
O33	O	1.391141	0.506279	-0.407098
O34	O	1.641141	0.756279	-0.157098
O35	O	1.891141	1.006279	0.092902
O36	O	2.141141	1.256279	0.342902
O37	O	1.256122	0.269856	-0.499567
O38	O	1.506122	0.519856	-0.249567
O39	O	1.756122	0.769856	0.000433
O40	O	2.006122	1.019856	0.250433
O41	O	1.153594	0.395593	-0.264747
O42	O	1.403594	0.645593	-0.014747
O43	O	1.653594	0.895593	0.235253
O44	O	1.903594	1.145593	0.485253
O45	O	1.018472	0.388911	-0.388829
O46	O	1.268472	0.638911	-0.138829
O47	O	1.518472	0.888911	0.111171
O48	O	1.768472	1.138911	0.361171
O49	O	1.153639	0.494533	-0.625194
O50	O	1.403639	0.744533	-0.375194
O51	O	1.653639	0.994533	-0.125194
O52	O	1.903639	1.244533	0.124806
O53	O	1.018450	0.487922	-0.487844
O54	O	1.268450	0.737922	-0.237844
O55	O	1.518450	0.987922	0.012156
O56	O	1.768450	1.237922	0.262156
O57	O	1.256093	0.400531	-0.630248
O58	O	1.506093	0.650531	-0.380248
O59	O	1.756093	0.900531	-0.130248
O60	O	2.006093	1.150531	0.119752
O61	O	1.255922	0.630344	-0.400428
O62	O	1.505922	0.880344	-0.150428
O63	O	1.755922	1.130344	0.099572
O64	O	2.005922	1.380344	0.349572
O65	O	1.153542	0.625280	-0.494443
O66	O	1.403542	0.875280	-0.244443
O67	O	1.653542	1.125280	0.005557
O68	O	1.903542	1.375280	0.255557
C69	C	1.204741	0.657068	-0.447446
C70	C	1.454741	0.907068	-0.197446
C71	C	1.704741	1.157068	0.052554
C72	C	1.954741	1.407068	0.302554
C73	C	1.204783	0.746692	-0.447461
C74	C	1.454783	0.996692	-0.197461
C75	C	1.704783	1.246692	0.052539
C76	C	1.954783	1.496692	0.302539
C77	C	0.988211	0.436929	-0.436852
C78	C	1.238211	0.686929	-0.186852
C79	C	1.488211	0.936929	0.063148
C80	C	1.738211	1.186929	0.313148
C81	C	0.895545	0.432391	-0.432323
C82	C	1.145545	0.682391	-0.182323
C83	C	1.395545	0.932391	0.067677
C84	C	1.645545	1.182391	0.317677
C85	C	1.204874	0.447524	-0.657796
C86	C	1.454874	0.697524	-0.407796
C87	C	1.704874	0.947524	-0.157796
C88	C	1.954874	1.197524	0.092204
C89	C	1.204897	0.447500	-0.747418
C90	C	1.454897	0.697500	-0.497418
C91	C	1.704897	0.947500	-0.247418
C92	C	1.954897	1.197500	0.002582
C93	C	0.725883	0.424088	-0.424060
C94	C	0.975883	0.674088	-0.174060
C95	C	1.225883	0.924088	0.075940
C96	C	1.475883	1.174088	0.325940
C97	C	0.684596	0.471135	-0.470967
C98	C	0.934596	0.721135	-0.220967
C99	C	1.184596	0.971135	0.029033
C100	C	1.434596	1.221135	0.279033
C101	C	0.590191	0.466514	-0.466370
C102	C	0.840191	0.716514	-0.216370
C103	C	1.090191	0.966514	0.033630
C104	C	1.340191	1.216514	0.283630
C105	C	0.820297	0.428707	-0.428656
C106	C	1.070297	0.678707	-0.178656
C107	C	1.320297	0.928707	0.071344
C108	C	1.570297	1.178707	0.321344
C109	C	1.422274	0.458276	-0.458158
C110	C	1.672274	0.708276	-0.208158
C111	C	1.922274	0.958276	0.041842
C112	C	2.172274	1.208276	0.291842
C113	C	1.514940	0.462833	-0.462707
C114	C	1.764940	0.712833	-0.212707
C115	C	2.014940	0.962833	0.037293
C116	C	2.264940	1.212833	0.287293
C117	C	1.204921	0.237278	-0.447541
C118	C	1.454921	0.487278	-0.197541
C119	C	1.704921	0.737278	0.052459
C120	C	1.954921	0.987278	0.302459
C121	C	1.204965	0.147659	-0.447565
C122	C	1.454965	0.397659	-0.197565
C123	C	1.704965	0.647659	0.052435
C124	C	1.954965	0.897659	0.302435
C125	C	1.204929	1.074874	-0.447552
C126	C	1.454929	1.324874	-0.197552
C127	C	1.704929	1.574874	0.052448
C128	C	1.954929	1.824874	0.302448
C129	C	1.204885	0.983564	-0.447529
C130	C	1.454885	1.233564	-0.197529
C131	C	1.704885	1.483564	0.052471
C132	C	1.954885	1.733564	0.302471
C133	C	1.204855	0.910786	-0.447506
C134	C	1.454855	1.160786	-0.197506
C135	C	1.704855	1.410786	0.052494
C136	C	1.954855	1.660786	0.302494
C137	C	1.204813	0.819470	-0.447484
C138	C	1.454813	1.069470	-0.197484
C139	C	1.704813	1.319470	0.052516
C140	C	1.954813	1.569470	0.302516
C141	C	1.204935	0.447411	-1.075596
C142	C	1.454935	0.697411	-0.825596
C143	C	1.704935	0.947411	-0.575596
C144	C	1.954935	1.197411	-0.325596
C145	C	1.204922	0.447438	-0.984287
C146	C	1.454922	0.697438	-0.734287
C147	C	1.704922	0.947438	-0.484287
C148	C	1.954922	1.197438	-0.234287
C149	C	1.204916	0.447456	-0.911510
C150	C	1.454916	0.697456	-0.661510
C151	C	1.704916	0.947456	-0.411510
C152	C	1.954916	1.197456	-0.161510
C153	C	1.204903	0.447482	-0.820195
C154	C	1.454903	0.697482	-0.570195
C155	C	1.704903	0.947482	-0.320195
C156	C	1.954903	1.197482	-0.070195
C157	C	1.204813	0.447583	-0.237993
C158	C	1.454813	0.697583	0.012007
C159	C	1.704813	0.947583	0.262007
C160	C	1.954813	1.197583	0.512007
C161	C	1.204952	0.447388	-0.148379
C162	C	1.454952	0.697388	0.101621
C163	C	1.704952	0.947388	0.351621
C164	C	1.954952	1.197388	0.601621
H165	H	0.720151	0.514881	-0.514579
H166	H	0.970151	0.764881	-0.264579
H167	H	1.220151	1.014881	-0.014579
H168	H	1.470151	1.264881	0.235421
H169	H	0.690331	0.380344	-0.380452
H170	H	0.940331	0.630344	-0.130452
H171	H	1.190331	0.880344	0.119548
H172	H	1.440331	1.130344	0.369548
