data_functionalizedCrystal
_audit_creation_method	'MofGen! by Chris Wilmer'
_symmetry_space_group_name_H-M	'P1'
_symmetry_Int_Tables_number	1
_symmetry_cell_setting	triclinic
loop_
_symmetry_equiv_pos_as_xyz
  x,y,z
_cell_length_a	19.288840
_cell_length_b	14.044220
_cell_length_c	18.366186
_cell_angle_alpha	90.002290
_cell_angle_beta	90.013590
_cell_angle_gamma	88.157446
loop_
_atom_site_label
_atom_site_type_symbol
_atom_site_fract_x
_atom_site_fract_y
_atom_site_fract_z
O1	O	0.928950	0.118094	0.060674
O2	O	1.428950	0.618094	0.560674
O3	O	0.727713	0.134066	0.060649
O4	O	1.227713	0.634066	0.560649
O5	O	0.825311	-0.011891	0.060654
O6	O	1.325311	0.488109	0.560654
O7	O	0.831352	0.264051	0.060669
O8	O	1.331352	0.764051	0.560669
O9	O	0.825297	-0.011886	-0.060445
O10	O	1.325297	0.488114	0.439555
O11	O	0.727699	0.134071	-0.060450
O12	O	1.227699	0.634071	0.439550
O13	O	0.928936	0.118099	-0.060425
O14	O	1.428936	0.618099	0.439575
Zn15	Zn	0.828315	0.126086	-0.079665
Zn16	Zn	1.328315	0.626086	0.420335
Zn17	Zn	0.828333	0.126079	0.079889
Zn18	Zn	1.328333	0.626079	0.579889
O19	O	0.831338	0.264057	-0.060430
O20	O	1.331338	0.764057	0.439570
C21	C	0.701796	0.133559	0.000096
C22	C	1.201796	0.633559	0.500096
C23	C	0.624594	0.132028	0.000087
C24	C	1.124594	0.632028	0.500087
C25	C	0.588350	0.131290	0.066100
C26	C	1.088350	0.631290	0.566100
C27	C	0.515810	0.129841	0.066109
C28	C	1.015810	0.629841	0.566109
C29	C	0.479517	0.129111	0.000101
C30	C	0.979517	0.629111	0.500101
C31	C	0.515769	0.129854	-0.065921
C32	C	1.015769	0.629854	0.434079
C33	C	0.588307	0.131313	-0.065928
C34	C	1.088307	0.631313	0.434072
C35	C	0.366469	0.071298	-0.050464
C36	C	0.866469	0.571298	0.449536
C37	C	0.293932	0.069833	-0.050454
C38	C	0.793932	0.569833	0.449546
C39	C	0.255785	0.124617	0.000119
C40	C	0.755785	0.624617	0.500119
C41	C	0.290183	0.180852	0.050695
C42	C	0.790183	0.680852	0.550695
C43	C	0.362721	0.182311	0.050688
C44	C	0.862721	0.682311	0.550688
C45	C	0.400861	0.127530	0.000101
C46	C	0.900861	0.627530	0.500101
C47	C	0.140885	0.122309	0.066147
C48	C	0.640885	0.622309	0.566147
C49	C	0.068343	0.120866	0.066153
C50	C	0.568343	0.620866	0.566153
C51	C	0.068304	0.120870	-0.065879
C52	C	0.568304	0.620870	0.434121
C53	C	0.140844	0.122323	-0.065883
C54	C	0.640844	0.622323	0.434117
C55	C	0.177130	0.123037	0.000132
C56	C	0.677130	0.623037	0.500132
C57	C	0.822659	-0.047191	0.000104
C58	C	1.322659	0.452809	0.500104
C59	C	0.814772	-0.152383	0.000102
C60	C	1.314772	0.347617	0.500102
C61	C	0.800351	-0.344981	0.000111
C62	C	1.300351	0.155019	0.500111
C63	C	0.856295	-0.402860	0.000120
C64	C	1.356295	0.097140	0.500120
C65	C	0.848271	-0.510028	0.000125
C66	C	1.348271	-0.010028	0.500125
C67	C	0.808374	-0.237802	0.000106
C68	C	1.308374	0.262198	0.500106
C69	C	0.954852	0.118607	0.000129
C70	C	1.454852	0.618607	0.500129
C71	C	1.032055	0.120138	0.000144
C72	C	1.532055	0.620138	0.500144
N73	N	0.828308	0.126090	-0.188556
N74	N	1.328308	0.626090	0.311444
C75	C	0.833989	0.299357	0.000122
C76	C	1.333989	0.799357	0.500122
C77	C	0.841877	0.404548	0.000129
C78	C	1.341877	0.904548	0.500129
C79	C	0.874021	0.183382	-0.773097
C80	C	1.374021	0.683382	-0.273097
C81	C	0.874014	0.183391	-0.696869
C82	C	1.374014	0.683391	-0.196869
C83	C	0.828339	0.126069	-0.658767
C84	C	1.328339	0.626069	-0.158767
C85	C	0.782655	0.068751	-0.696900
C86	C	1.282655	0.568751	-0.196900
C87	C	0.782658	0.068751	-0.773126
C88	C	1.282658	0.568751	-0.273126
C89	C	0.821123	0.040631	-0.538006
C90	C	1.321123	0.540631	-0.038006
C91	C	0.821124	0.040630	-0.461781
C92	C	1.321124	0.540630	0.038219
C93	C	0.828325	0.126071	-0.423660
C94	C	1.328325	0.626071	0.076340
C95	C	0.835539	0.211516	-0.461772
C96	C	1.335539	0.711516	0.038228
C97	C	0.835543	0.211515	-0.537999
C98	C	1.335543	0.711515	-0.037999
C99	C	0.828330	0.126063	-0.576112
C100	C	1.328330	0.626063	-0.076112
C101	C	0.873996	0.183400	-0.302881
C102	C	1.373996	0.683400	0.197119
C103	C	0.873985	0.183411	-0.226652
C104	C	1.373985	0.683411	0.273348
C105	C	0.782629	0.068763	-0.226684
C106	C	1.282629	0.568763	0.273316
C107	C	0.782637	0.068761	-0.302912
C108	C	1.282637	0.568761	0.197088
C109	C	0.828324	0.126078	-0.341006
C110	C	1.328324	0.626078	0.158994
N111	N	0.828345	0.126068	0.188780
N112	N	1.328345	0.626068	0.688780
H113	H	0.486295	0.129241	0.119866
H114	H	0.986295	0.629241	0.619866
N115	N	0.843298	0.303697	-0.420689
N116	N	1.343298	0.803697	0.079311
H117	H	0.886098	0.298930	-0.389043
H118	H	1.386098	0.798930	0.110957
H119	H	0.801095	0.316069	-0.389126
H120	H	1.301095	0.816069	0.110874
N121	N	0.927720	-0.361891	0.000111
N122	N	1.427720	0.138109	0.500111
H123	H	0.963938	-0.415451	0.000114
H124	H	1.463938	0.084549	0.500114
H125	H	0.933487	-0.321363	0.044999
H126	H	1.433487	0.178637	0.544999
N127	N	0.843308	0.303668	-0.579105
N128	N	1.343308	0.803668	-0.079105
H129	H	0.842215	0.290699	-0.633177
H130	H	1.342215	0.790699	-0.133177
H131	H	0.888938	0.332384	-0.565771
H132	H	1.388938	0.832384	-0.065771
N133	N	0.728928	-0.385941	0.000099
N134	N	1.228928	0.114059	0.500099
H135	H	0.723112	-0.426444	0.044989
H136	H	1.223112	0.073556	0.544989
H137	H	0.723157	-0.426404	-0.044824
H138	H	1.223157	0.073596	0.455176
H139	H	0.911222	0.230056	-0.804108
H140	H	1.411222	0.730056	-0.304108
H141	H	0.911209	0.230067	-0.665823
H142	H	1.411209	0.730067	-0.165823
H143	H	0.911195	0.230076	-0.333899
H144	H	1.411195	0.730076	0.166101
H145	H	0.390726	0.228102	0.091868
H146	H	0.890726	0.728102	0.591868
H147	H	0.911179	0.230089	-0.195614
H148	H	1.411179	0.730089	0.304386
H149	H	0.745435	0.022096	-0.195663
H150	H	1.245435	0.522096	0.304337
N151	N	0.733397	0.006917	-0.655807
N152	N	1.233397	0.506917	-0.155807
H153	H	0.704461	-0.029393	-0.691528
H154	H	1.204461	0.470607	-0.191528
H155	H	0.702009	0.048357	-0.624185
H156	H	1.202009	0.548357	-0.124185
N157	N	0.733385	0.006923	-0.344037
N158	N	1.233385	0.506923	0.155963
H159	H	0.704452	-0.029396	-0.308335
H160	H	1.204452	0.470604	0.191665
H161	H	0.760806	-0.039509	-0.375650
H162	H	1.260806	0.460491	0.124350
H163	H	0.259125	0.225466	0.091875
H164	H	0.759125	0.725466	0.591875
H165	H	0.486214	0.129262	-0.119665
H166	H	0.986214	0.629262	0.380335
H167	H	0.265931	0.024038	-0.091633
H168	H	0.765931	0.524038	0.408367
N169	N	0.179933	0.123104	-0.137088
N170	N	0.679933	0.623104	0.362912
H171	H	0.212028	0.064978	-0.140037
H172	H	0.712028	0.564978	0.359963
H173	H	0.207987	0.182477	-0.139992
H174	H	0.707987	0.682477	0.360008
H175	H	0.617890	0.131872	0.119854
H176	H	1.117890	0.631872	0.619854
N177	N	0.733400	0.006918	-0.814249
N178	N	1.233400	0.506918	-0.314249
H179	H	0.701968	0.048293	-0.845887
H180	H	1.201968	0.548293	-0.345887
H181	H	0.704510	-0.029385	-0.778500
H182	H	1.204510	0.470615	-0.278500
N183	N	0.813322	-0.051519	-0.420680
N184	N	1.313322	0.448481	0.079320
H185	H	0.814411	-0.038555	-0.366607
H186	H	1.314411	0.461445	0.133393
H187	H	0.852650	-0.097456	-0.433988
H188	H	1.352650	0.402544	0.066012
N189	N	0.180029	0.123084	0.137343
N190	N	0.680029	0.623084	0.637343
H191	H	0.146058	0.122405	0.179165
H192	H	0.646058	0.622405	0.679165
H193	H	0.208129	0.182419	0.140218
H194	H	0.708129	0.682419	0.640218
N195	N	0.029248	0.120072	0.137356
N196	N	0.529248	0.620072	0.637356
H197	H	0.063246	0.120743	0.179172
H198	H	0.563246	0.620743	0.679172
H199	H	0.001151	0.060735	0.140225
H200	H	0.501151	0.560735	0.640225
H201	H	0.815252	-0.028949	-0.569039
H202	H	1.315252	0.471051	-0.069039
H203	H	0.038755	0.120282	-0.119624
H204	H	0.538755	0.620282	0.380376
H205	H	0.397523	0.026684	-0.091650
H206	H	0.897523	0.526684	0.408350
H207	H	0.617816	0.131915	-0.119686
H208	H	1.117816	0.631915	0.380314
