data_functionalizedCrystal
_audit_creation_method	'MofGen! by Chris Wilmer'
_symmetry_space_group_name_H-M	'P1'
_symmetry_Int_Tables_number	1
_symmetry_cell_setting	triclinic
loop_
_symmetry_equiv_pos_as_xyz
  x,y,z
_cell_length_a	15.944499
_cell_length_b	14.586319
_cell_length_c	16.109301
_cell_angle_alpha	90.003802
_cell_angle_beta	96.530404
_cell_angle_gamma	89.993903
loop_
_atom_site_label
_atom_site_type_symbol
_atom_site_fract_x
_atom_site_fract_y
_atom_site_fract_z
O1	O	1.114515	-0.076295	-0.107022
O2	O	1.614515	0.423705	0.392978
O3	O	0.869955	-0.076285	-0.120287
O4	O	1.369955	0.423715	0.379713
O5	O	0.998953	-0.076284	0.007375
O6	O	1.498953	0.423716	0.507375
O7	O	0.985517	-0.076296	-0.234685
O8	O	1.485517	0.423704	0.265315
O9	O	0.998944	0.076196	0.007377
O10	O	1.498944	0.576196	0.507377
O11	O	0.869946	0.076196	-0.120286
O12	O	1.369946	0.576196	0.379714
O13	O	1.114506	0.076185	-0.107020
O14	O	1.614506	0.576185	0.392980
Cu15	Cu	0.992225	0.090113	-0.113653
Cu16	Cu	1.492225	0.590113	0.386347
Cu17	Cu	0.992236	-0.090213	-0.113655
Cu18	Cu	1.492236	0.409787	0.386345
O19	O	0.985508	0.076185	-0.234683
O20	O	1.485508	0.576185	0.265317
C21	C	0.838656	-0.000043	-0.119743
C22	C	1.338656	0.499957	0.380257
C23	C	0.745408	-0.000039	-0.118115
C24	C	1.245408	0.499961	0.381885
C25	C	0.453848	-0.000057	-0.192284
C26	C	0.953848	0.499943	0.307716
C27	C	0.514894	-0.075237	-0.153730
C28	C	1.014894	0.424763	0.346270
C29	C	0.409773	-0.000060	-0.112200
C30	C	0.909773	0.499940	0.387800
C31	C	0.514871	0.075097	-0.153707
C32	C	1.014871	0.575097	0.346293
C33	C	0.574681	-0.000048	-0.115111
C34	C	1.074681	0.499952	0.384889
C35	C	0.469592	-0.075303	-0.073624
C36	C	0.969592	0.424697	0.426376
C37	C	0.469562	0.075099	-0.073612
C38	C	0.969562	0.575099	0.426388
C39	C	0.530591	-0.000101	-0.035000
C40	C	1.030591	0.499899	0.465000
C41	C	0.314774	-0.000068	-0.110525
C42	C	0.814774	0.499932	0.389475
C43	C	0.669680	-0.000047	-0.116779
C44	C	1.169680	0.499953	0.383221
C45	C	0.998404	-0.000044	0.038351
C46	C	1.498404	0.499956	0.538351
C47	C	0.996772	-0.000046	0.130647
C48	C	1.496772	0.499954	0.630647
C49	C	1.145805	-0.000058	-0.107564
C50	C	1.645805	0.499942	0.392436
C51	C	1.239053	-0.000068	-0.109193
C52	C	1.739053	0.499932	0.390807
N53	N	0.992224	0.216945	-0.113651
N54	N	1.492224	0.716945	0.386349
N55	N	0.992244	-0.217045	-0.113651
N56	N	1.492244	0.282955	0.386349
C57	C	1.049363	0.451952	-0.057141
C58	C	1.549363	0.951952	0.442859
C59	C	1.049365	0.547933	-0.057139
C60	C	1.549365	1.047933	0.442861
C61	C	0.935098	0.547942	-0.170163
C62	C	1.435098	1.047942	0.329837
C63	C	0.935093	0.451962	-0.170161
C64	C	1.435093	0.951962	0.329839
C65	C	0.992230	0.403970	-0.113650
C66	C	1.492230	0.903970	0.386350
C67	C	0.992238	0.595931	-0.113651
C68	C	1.492238	1.095931	0.386349
C69	C	0.992240	0.699998	-0.113649
C70	C	1.492240	1.199998	0.386351
C71	C	0.992227	0.299896	-0.113651
C72	C	1.492227	0.799896	0.386349
C73	C	0.986056	-0.000057	-0.265659
C74	C	1.486056	0.499943	0.234341
C75	C	0.987688	-0.000062	-0.357954
C76	C	1.487688	0.499938	0.142046
C77	C	1.067983	-0.000064	0.439635
C78	C	1.567983	0.499936	0.939635
C79	C	1.069524	-0.000059	0.352914
C80	C	1.569524	0.499941	0.852914
C81	C	0.916472	-0.000041	0.333063
C82	C	1.416472	0.499959	0.833063
C83	C	0.914932	-0.000039	0.419782
C84	C	1.414932	0.499961	0.919782
C85	C	0.990690	-0.000056	0.473066
C86	C	1.490690	0.499944	0.973066
C87	C	0.993771	-0.000052	0.299626
C88	C	1.493771	0.499948	0.799626
C89	C	0.995441	-0.000046	0.205600
C90	C	1.495441	0.499954	0.705600
C91	C	0.989020	-0.000060	0.567098
C92	C	1.489020	0.499940	1.067098
H93	H	0.534985	-0.138796	-0.187606
H94	H	1.034985	0.361204	0.312394
O95	O	0.414147	-0.000023	-0.271606
O96	O	0.914147	0.499977	0.228394
C97	C	0.393075	0.078439	-0.403968
C98	C	0.893075	0.578439	0.096032
C99	C	0.438107	0.078510	-0.314169
C100	C	0.938107	0.578510	0.185831
H101	H	0.412416	0.141936	-0.438401
H102	H	0.912416	0.641936	0.061599
H103	H	0.411575	0.014306	-0.438020
H104	H	0.911575	0.514306	0.061980
H105	H	0.321839	0.079049	-0.401942
H106	H	0.821839	0.579049	0.098058
H107	H	0.509350	0.077933	-0.316118
H108	H	1.009350	0.577933	0.183882
H109	H	0.419538	0.142638	-0.280154
H110	H	0.919538	0.642638	0.219846
H111	H	0.449628	-0.138934	-0.039784
H112	H	0.949628	0.361066	0.460216
O113	O	1.104832	0.594441	-0.002133
O114	O	1.604832	1.094441	0.497867
C115	C	1.154066	0.623850	0.142413
C116	C	1.654066	1.123850	0.642413
C117	C	1.091215	0.571108	0.080208
C118	C	1.591215	1.071108	0.580208
H119	H	1.143067	0.605019	0.209000
H120	H	1.643067	1.105019	0.709000
H121	H	1.221354	0.604949	0.131618
H122	H	1.721354	1.104949	0.631618
H123	H	1.144268	0.700689	0.132667
H124	H	1.644268	1.200689	0.632667
H125	H	1.100935	0.494257	0.089917
H126	H	1.600935	0.994257	0.589917
H127	H	1.023949	0.590085	0.091019
H128	H	1.523949	1.090085	0.591019
O129	O	0.570250	0.000018	0.044338
O130	O	1.070250	0.500018	0.544338
C131	C	0.665546	0.079294	0.146938
C132	C	1.165546	0.579294	0.646938
C133	C	0.620669	0.079291	0.057077
C134	C	1.120669	0.579291	0.557077
H135	H	0.706334	0.143369	0.157260
H136	H	1.206334	0.643369	0.657260
H137	H	0.616468	0.078717	0.193171
H138	H	1.116468	0.578717	0.693171
H139	H	0.707108	0.015750	0.156891
H140	H	1.207108	0.515750	0.656891
H141	H	0.579110	0.142824	0.047043
H142	H	1.079110	0.642824	0.547043
H143	H	0.669792	0.079820	0.010890
H144	H	1.169792	0.579820	0.510890
O145	O	0.879569	0.594667	-0.224944
O146	O	1.379569	1.094667	0.275056
C147	C	0.764830	0.703014	-0.242598
C148	C	1.264830	1.203014	0.257402
C149	C	0.827680	0.650173	-0.180464
C150	C	1.327680	1.150173	0.319536
H151	H	0.722849	0.747889	-0.206660
H152	H	1.222849	1.247889	0.293340
H153	H	0.801041	0.747998	-0.284136
H154	H	1.301041	1.247998	0.215864
H155	H	0.724029	0.652215	-0.283003
H156	H	1.224029	1.152215	0.216997
H157	H	0.868497	0.700906	-0.140004
H158	H	1.368497	1.200906	0.359996
H159	H	0.791417	0.605175	-0.138983
H160	H	1.291417	1.105175	0.361017
H161	H	0.854793	-0.000029	0.289668
H162	H	1.354793	0.499971	0.789668
O163	O	0.445588	0.151021	-0.033355
O164	O	0.945588	0.651021	0.466645
C165	C	0.441244	0.316102	-0.030026
C166	C	0.941244	0.816102	0.469974
C167	C	0.468426	0.230187	-0.075700
C168	C	0.968426	0.730187	0.424300
H169	H	0.459713	0.380129	-0.064233
H170	H	0.959713	0.880129	0.435767
H171	H	0.369922	0.315068	-0.028647
H172	H	0.869922	0.815068	0.471353
H173	H	0.474028	0.316706	0.036660
H174	H	0.974028	0.816706	0.536660
H175	H	0.435701	0.229527	-0.142405
H176	H	0.935701	0.729527	0.357595
H177	H	0.539756	0.231254	-0.077011
H178	H	1.039756	0.731254	0.422989
H179	H	1.132464	-0.000065	0.325700
H180	H	1.632464	0.499935	0.825700
O181	O	0.879559	0.405489	-0.225139
O182	O	1.379559	0.905489	0.274861
C183	C	0.766187	0.415618	-0.337210
C184	C	1.266187	0.915618	0.162790
C185	C	0.829045	0.468363	-0.275013
C186	C	1.329045	0.968363	0.224987
H187	H	0.725318	0.466429	-0.377537
H188	H	1.225318	0.966429	0.122463
H189	H	0.802392	0.370694	-0.378814
H190	H	1.302392	0.870694	0.121186
H191	H	0.724274	0.370671	-0.301275
H192	H	1.224274	0.870671	0.198725
H193	H	0.870973	0.513360	-0.310879
H194	H	1.370973	1.013360	0.189121
H195	H	0.792787	0.513229	-0.233409
H196	H	1.292787	1.013229	0.266591
H197	H	1.095886	0.412878	-0.011125
H198	H	1.595886	0.912878	0.488875
H199	H	0.534931	0.138654	-0.187592
H200	H	1.034931	0.638654	0.312408
H201	H	1.129670	-0.000078	0.483017
H202	H	1.629670	0.499922	0.983017
H203	H	0.851987	-0.000028	0.447000
H204	H	1.351987	0.499972	0.947000
