data_functionalizedCrystal
_audit_creation_method	'MofGen! by Chris Wilmer'
_symmetry_space_group_name_H-M	'P1'
_symmetry_Int_Tables_number	1
_symmetry_cell_setting	triclinic
loop_
_symmetry_equiv_pos_as_xyz
  x,y,z
_cell_length_a	11.792241
_cell_length_b	12.503552
_cell_length_c	14.044190
_cell_angle_alpha	86.163821
_cell_angle_beta	88.692597
_cell_angle_gamma	93.543175
loop_
_atom_site_label
_atom_site_type_symbol
_atom_site_fract_x
_atom_site_fract_y
_atom_site_fract_z
O1	O	1.525110	0.089228	0.124544
O2	O	1.858443	0.422561	0.457877
O3	O	2.191776	0.755895	0.791210
O4	O	1.196029	0.089254	0.137939
O5	O	1.529362	0.422588	0.471272
O6	O	1.862695	0.755921	0.804605
O7	O	1.355624	0.089220	-0.006768
O8	O	1.688957	0.422554	0.326566
O9	O	2.022291	0.755887	0.659899
O10	O	1.365514	0.089262	0.269250
O11	O	1.698848	0.422595	0.602583
O12	O	2.032181	0.755928	0.935917
O13	O	1.343607	-0.089420	0.004125
O14	O	1.676941	0.243914	0.337458
O15	O	2.010274	0.577247	0.670791
O16	O	1.184012	-0.089386	0.148831
O17	O	1.517345	0.243948	0.482164
O18	O	1.850679	0.577281	0.815498
O19	O	1.513093	-0.089412	0.135436
O20	O	1.846426	0.243921	0.468769
O21	O	2.179760	0.577255	0.802103
Cu22	Cu	1.347455	-0.105710	0.143128
Cu23	Cu	1.680789	0.227623	0.476461
Cu24	Cu	2.014122	0.560957	0.809795
Cu25	Cu	1.361666	0.105552	0.130247
Cu26	Cu	1.695000	0.438886	0.463580
Cu27	Cu	2.028333	0.772219	0.796913
O28	O	1.353498	-0.089378	0.280142
O29	O	1.686831	0.243955	0.613476
O30	O	2.020164	0.577289	0.946809
C31	C	1.147650	-0.000063	0.142543
C32	C	1.480984	0.333271	0.475876
C33	C	1.814317	0.666604	0.809210
C34	C	1.021401	-0.000054	0.140024
C35	C	1.354734	0.333280	0.473357
C36	C	1.688067	0.666613	0.806690
C37	C	0.790252	-0.000085	0.135394
C38	C	1.123585	0.333248	0.468728
C39	C	1.456918	0.666582	0.802061
C40	C	0.918880	-0.000068	0.137967
C41	C	1.252213	0.333266	0.471300
C42	C	1.585546	0.666599	0.804633
N43	N	1.337468	-0.254301	0.152188
N44	N	1.670802	0.079033	0.485521
N45	N	2.004135	0.412366	0.818854
C46	C	1.386347	-0.526744	0.107850
C47	C	1.719680	-0.193411	0.441183
C48	C	2.053014	0.139922	0.774516
C49	C	1.322786	-0.473407	0.165514
C50	C	1.656120	-0.140073	0.498848
C51	C	1.989453	0.193260	0.832181
C52	C	1.330957	-0.351485	0.158097
C53	C	1.664291	-0.018151	0.491431
C54	C	1.997624	0.315182	0.824764
C55	C	1.378177	-0.648677	0.115265
C56	C	1.711511	-0.315344	0.448599
C57	C	2.044844	0.017990	0.781932
C58	C	1.561471	-0.000093	0.130831
C59	C	1.894805	0.333241	0.464165
C60	C	2.228138	0.666574	0.797498
C61	C	1.687721	-0.000095	0.133350
C62	C	2.021055	0.333238	0.466684
C63	C	2.354388	0.666572	0.800017
C64	C	1.345290	-0.000102	-0.036658
C65	C	1.678623	0.333231	0.296675
C66	C	2.011957	0.666564	0.630009
C67	C	1.332387	-0.000111	-0.141950
C68	C	1.665721	0.333223	0.191383
C69	C	1.999054	0.666556	0.524717
N70	N	1.371662	0.254143	0.121180
N71	N	1.704995	0.587476	0.454513
N72	N	2.038328	0.920810	0.787846
C73	C	1.400307	-0.000074	-0.391890
C74	C	1.733640	0.333259	-0.058556
C75	C	2.066974	0.666593	0.274777
C76	C	1.308820	-0.000074	-0.334731
C77	C	1.642154	0.333259	-0.001397
C78	C	1.975487	0.666592	0.331936
C79	C	1.321936	-0.000095	-0.227458
C80	C	1.655269	0.333239	0.105876
C81	C	1.988603	0.666572	0.439209
C82	C	1.387193	-0.000054	-0.499173
C83	C	1.720526	0.333280	-0.165839
C84	C	2.053860	0.666613	0.167494
C85	C	1.363832	-0.000053	0.310033
C86	C	1.697165	0.333280	0.643366
C87	C	2.030498	0.666614	0.976699
C88	C	1.376735	-0.000038	0.415324
C89	C	1.710068	0.333296	0.748657
C90	C	2.043402	0.666629	1.081991
H91	H	1.446896	-0.480847	0.052915
H92	H	1.780230	-0.147513	0.386248
H93	H	2.113563	0.185820	0.719582
H94	H	1.220645	-0.000061	-0.366360
H95	H	1.553979	0.333272	-0.033027
H96	H	1.887312	0.666606	0.300307
O97	O	1.505443	0.000043	-0.354059
O98	O	1.838776	0.333376	-0.020726
O99	O	2.172110	0.666710	0.312607
C100	C	1.643930	0.092574	-0.260332
C101	C	1.977263	0.425907	0.073002
C102	C	2.310596	0.759241	0.406335
C103	C	1.524833	0.092568	-0.303117
C104	C	1.858166	0.425901	0.030216
C105	C	2.191500	0.759235	0.363549
H106	H	1.659653	0.167384	-0.219152
H107	H	1.992987	0.500717	0.114181
H108	H	2.326320	0.834050	0.447514
H109	H	1.649611	0.017852	-0.209938
H110	H	1.982944	0.351186	0.123395
H111	H	2.316278	0.684519	0.456728
H112	H	1.710731	0.092520	-0.320297
H113	H	2.044065	0.425854	0.013036
H114	H	2.377398	0.759187	0.346370
H115	H	1.457962	0.092659	-0.243216
H116	H	1.791295	0.425993	0.090118
H117	H	2.124628	0.759326	0.423451
H118	H	1.519248	0.167283	-0.353535
H119	H	1.852581	0.500616	-0.020202
H120	H	2.185915	0.833950	0.313132
O121	O	1.250646	-0.528325	0.231037
O122	O	1.583979	-0.194992	0.564370
O123	O	1.917312	0.138341	0.897704
C124	C	1.176547	-0.701685	0.298203
C125	C	1.509881	-0.368352	0.631536
C126	C	1.843214	-0.035019	0.964869
C127	C	1.258304	-0.639619	0.223973
C128	C	1.591638	-0.306286	0.557306
C129	C	1.924971	0.027048	0.890639
H130	H	1.182694	-0.791677	0.292503
H131	H	1.516027	-0.458344	0.625836
H132	H	1.849361	-0.125010	0.959169
H133	H	1.200550	-0.679721	0.372937
H134	H	1.533883	-0.346387	0.706271
H135	H	1.867217	-0.013054	1.039604
H136	H	1.085801	-0.679595	0.284076
H137	H	1.419135	-0.346262	0.617409
H138	H	1.752468	-0.012928	0.950742
H139	H	1.349076	-0.661676	0.238010
H140	H	1.682409	-0.328343	0.571344
H141	H	2.015743	0.004991	0.904677
H142	H	1.234204	-0.661589	0.149263
H143	H	1.567537	-0.328256	0.482596
H144	H	1.900871	0.005078	0.815929
