data_functionalizedCrystal
_audit_creation_method	'MofGen! by Chris Wilmer'
_symmetry_space_group_name_H-M	'P1'
_symmetry_Int_Tables_number	1
_symmetry_cell_setting	triclinic
loop_
_symmetry_equiv_pos_as_xyz
  x,y,z
_cell_length_a	9.065215
_cell_length_b	14.519731
_cell_length_c	8.140239
_cell_angle_alpha	89.995496
_cell_angle_beta	89.997810
_cell_angle_gamma	84.351775
loop_
_atom_site_label
_atom_site_type_symbol
_atom_site_fract_x
_atom_site_fract_y
_atom_site_fract_z
O1	O	1.957883	0.135211	-0.136599
O2	O	2.291216	0.468545	0.196735
O3	O	2.624550	0.801878	0.530068
O4	O	1.528391	0.146306	-0.136607
O5	O	1.861724	0.479639	0.196727
O6	O	2.195058	0.812972	0.530060
O7	O	1.754508	0.006605	-0.136588
O8	O	2.087841	0.339938	0.196746
O9	O	2.421175	0.673271	0.530079
O10	O	1.731766	0.274912	-0.136618
O11	O	2.065099	0.608246	0.196716
O12	O	2.398433	0.941579	0.530049
O13	O	1.754495	0.006603	0.136640
O14	O	2.087829	0.339936	0.469973
O15	O	2.421162	0.673270	0.803306
O16	O	1.528379	0.146304	0.136621
O17	O	1.861712	0.479637	0.469954
O18	O	2.195045	0.812971	0.803287
O19	O	1.957870	0.135210	0.136628
O20	O	2.291204	0.468543	0.469962
O21	O	2.624537	0.801876	0.803295
Zn22	Zn	1.743123	0.140757	0.180005
Zn23	Zn	2.076456	0.474090	0.513338
Zn24	Zn	2.409789	0.807423	0.846672
Zn25	Zn	1.743139	0.140759	-0.179983
Zn26	Zn	2.076472	0.474092	0.153350
Zn27	Zn	2.409806	0.807425	0.486683
O28	O	1.731754	0.274911	0.136609
O29	O	2.065087	0.608244	0.469943
O30	O	2.398420	0.941577	0.803276
C31	C	1.473418	0.145239	0.000006
C32	C	1.806751	0.478573	0.333339
C33	C	2.140085	0.811906	0.666673
C34	C	1.309634	0.142053	0.000004
C35	C	1.642967	0.475386	0.333337
C36	C	1.976301	0.808720	0.666670
C37	C	1.753436	-0.027764	0.000026
C38	C	2.086769	0.305570	0.333360
C39	C	2.420103	0.638903	0.666693
C40	C	1.750243	-0.130167	0.000027
C41	C	2.083576	0.203166	0.333361
C42	C	2.416910	0.536500	0.666694
C43	C	1.747648	-0.213330	0.000023
C44	C	2.080982	0.120003	0.333357
C45	C	2.414315	0.453336	0.666690
C46	C	1.744406	-0.317663	0.000011
C47	C	2.077740	0.015671	0.333344
C48	C	2.411073	0.349004	0.666678
C49	C	1.741833	-0.400821	0.000000
C50	C	2.075167	-0.067487	0.333334
C51	C	2.408500	0.265846	0.666667
C52	C	1.738592	-0.505160	-0.000009
C53	C	2.071925	-0.171826	0.333324
C54	C	2.405258	0.161507	0.666657
C55	C	2.012844	0.136276	0.000012
C56	C	2.346177	0.469609	0.333345
C57	C	2.679510	0.802943	0.666679
C58	C	2.176627	0.139462	0.000004
C59	C	2.509961	0.472796	0.333337
C60	C	2.843294	0.806129	0.666670
C61	C	1.732825	0.309279	-0.000008
C62	C	2.066159	0.642612	0.333325
C63	C	2.399492	0.975946	0.666658
C64	C	1.736018	0.411682	-0.000020
C65	C	2.069352	0.745016	0.333313
C66	C	2.402685	1.078349	0.666647
N67	N	1.743122	0.140755	0.425688
N68	N	2.076455	0.474088	0.759021
N69	N	2.409789	0.807421	1.092354
N70	N	1.743151	0.140754	-0.425666
N71	N	2.076484	0.474087	-0.092333
N72	N	2.409818	0.807420	0.241001
