data_functionalizedCrystal
_audit_creation_method	'MofGen! by Chris Wilmer'
_symmetry_space_group_name_H-M	'P1'
_symmetry_Int_Tables_number	1
_symmetry_cell_setting	triclinic
loop_
_symmetry_equiv_pos_as_xyz
  x,y,z
_cell_length_a	21.395362
_cell_length_b	17.640280
_cell_length_c	21.395355
_cell_angle_alpha	78.784922
_cell_angle_beta	89.956060
_cell_angle_gamma	78.812025
loop_
_atom_site_label
_atom_site_type_symbol
_atom_site_fract_x
_atom_site_fract_y
_atom_site_fract_z
Zn1	Zn	1.008318	-0.314390	-0.304290
Zn2	Zn	1.029429	-0.446530	-0.178373
Zn3	Zn	0.903539	-0.314427	-0.199486
Zn4	Zn	0.924713	-0.446546	-0.283075
O5	O	0.966500	-0.380473	-0.241306
O6	O	1.098793	-0.331896	-0.287630
O7	O	1.012702	-0.429015	-0.093494
O8	O	0.899742	-0.203828	-0.231102
O9	O	1.114303	-0.428979	-0.195119
O10	O	0.976723	-0.203801	-0.308102
O11	O	0.920212	-0.331959	-0.109006
O12	O	0.818673	-0.331975	-0.210531
O13	O	0.935830	-0.429007	-0.373569
O14	O	0.834230	-0.429043	-0.271944
O15	O	0.997254	-0.331912	-0.389155
O16	O	1.033234	-0.557126	-0.174548
O17	O	0.956300	-0.557138	-0.251472
C18	C	0.803719	-0.380515	-0.241227
C19	C	0.734083	-0.380552	-0.241204
C20	C	0.709497	-0.431162	-0.273111
C21	C	0.644059	-0.431143	-0.273143
C22	C	0.603210	-0.380521	-0.241254
C23	C	0.627802	-0.329901	-0.209346
C24	C	0.693239	-0.329917	-0.209321
C25	C	0.498463	-0.374155	-0.185867
C26	C	0.433029	-0.374145	-0.185890
C27	C	0.401381	-0.380470	-0.241331
C28	C	0.435178	-0.386821	-0.296749
C29	C	0.500615	-0.386836	-0.296724
C30	C	0.532254	-0.380499	-0.241278
C31	C	0.305840	-0.431062	-0.273275
C32	C	0.240399	-0.431037	-0.273308
C33	C	0.224144	-0.329800	-0.209505
C34	C	0.289583	-0.329820	-0.209478
C35	C	0.330428	-0.380456	-0.241362
C36	C	0.999372	-0.585808	-0.208431
C37	C	1.013493	-0.673651	-0.194387
C38	C	0.859485	-0.962724	-0.348219
C39	C	0.872755	-1.045266	-0.335003
C40	C	0.952916	-1.045188	-0.254983
C41	C	0.939655	-0.962645	-0.268194
C42	C	0.892939	-0.921419	-0.314813
C43	C	0.973109	-0.921340	-0.234788
C44	C	0.959847	-0.838803	-0.247996
C45	C	0.913131	-0.797572	-0.294610
C46	C	0.879677	-0.838883	-0.328021
C47	C	1.019822	-0.962567	-0.188167
C48	C	1.053276	-0.921262	-0.154760
C49	C	1.040017	-0.838724	-0.167971
C50	C	0.993301	-0.797492	-0.214586
C51	C	1.073472	-0.797413	-0.134561
C52	C	1.060209	-0.714877	-0.147769
C53	C	0.980039	-0.714956	-0.227794
C54	C	1.129916	-0.380432	-0.241386
C55	C	1.199555	-0.380414	-0.241420
C56	C	0.966549	-0.380457	-0.404732
C57	C	0.966570	-0.380450	-0.474374
C58	C	0.933515	-0.174337	-0.274324
C59	C	0.919460	-0.086494	-0.288394
C60	C	0.998552	-0.329891	-0.515205
C61	C	0.998545	-0.329857	-0.580646
C62	C	0.966566	-0.380397	-0.605251
C63	C	0.934577	-0.430960	-0.564412
C64	C	0.934579	-0.430986	-0.498974
C65	C	0.973012	-0.451559	-0.697531
C66	C	0.973014	-0.451533	-0.762968
C67	C	0.966557	-0.380313	-0.807086
C68	C	0.960109	-0.309116	-0.785758
C69	C	0.960111	-0.309143	-0.720320
C70	C	0.966560	-0.380373	-0.676208
C71	C	0.998533	-0.329712	-0.918875
C72	C	0.998522	-0.329677	-0.984317
C73	C	0.934559	-0.430787	-0.968082
C74	C	0.934565	-0.430815	-0.902642
C75	C	0.966556	-0.380279	-0.878042
C76	C	0.966477	-0.380432	-0.078525
C77	C	0.966542	-0.380216	-0.008919
H78	H	0.742749	-0.472392	-0.299075
Cl79	Cl	0.894372	-0.494492	-0.595345
Cl80	Cl	1.102260	-0.662946	-0.105766
Cl81	Cl	0.172797	-0.266156	-0.169421
H82	H	0.908533	-0.472157	-0.465729
Cl83	Cl	0.981126	-0.541036	-0.789773
H84	H	0.942002	-0.681389	-0.265760
Cl85	Cl	0.951993	-0.219576	-0.841214
Cl86	Cl	0.357189	-0.494711	-0.313361
Cl87	Cl	1.038743	-0.266123	-1.035647
H88	H	0.990951	-1.078765	-0.217025
Cl89	Cl	0.538243	-0.366206	-0.116162
H90	H	0.954860	-0.251173	-0.702958
Cl91	Cl	0.613143	-0.494772	-0.313257
H92	H	0.908527	-0.471991	-0.869396
H93	H	0.713255	-0.288701	-0.183339
Cl94	Cl	0.543100	-0.394815	-0.366389
Cl95	Cl	0.395399	-0.394768	-0.366453
H96	H	0.220383	-0.472248	-0.299295
Cl97	Cl	0.896602	-0.693811	-0.311361
Cl98	Cl	0.830686	-1.097190	-0.376999
H99	H	0.309601	-0.288612	-0.183492
Cl100	Cl	0.820952	-0.787050	-0.386633
H101	H	0.978100	-0.509540	-0.661617
H102	H	0.405517	-0.368979	-0.140765
Cl103	Cl	1.036517	-1.066328	-0.171585
Cl104	Cl	1.038745	-0.266179	-0.887947
H105	H	0.594538	-0.288684	-0.183383
Cl106	Cl	0.800760	-0.910892	-0.406832
Cl107	Cl	1.112005	-0.973096	-0.096159
Cl108	Cl	1.038764	-0.266355	-0.484283
Cl109	Cl	1.132194	-0.849249	-0.075954
H110	H	1.024587	-0.288681	-0.613897
H111	H	0.908513	-0.471929	-0.988116
