data_functionalizedCrystal
_audit_creation_method	'MofGen! by Chris Wilmer'
_symmetry_space_group_name_H-M	'P1'
_symmetry_Int_Tables_number	1
_symmetry_cell_setting	triclinic
loop_
_symmetry_equiv_pos_as_xyz
  x,y,z
_cell_length_a	13.897449
_cell_length_b	16.120444
_cell_length_c	13.897441
_cell_angle_alpha	92.867240
_cell_angle_beta	89.978743
_cell_angle_gamma	92.927498
loop_
_atom_site_label
_atom_site_type_symbol
_atom_site_fract_x
_atom_site_fract_y
_atom_site_fract_z
Zn1	Zn	1.455153	-0.331871	-0.564897
Zn2	Zn	1.788486	0.001462	-0.231564
Zn3	Zn	2.121820	0.334795	0.101769
Zn4	Zn	1.446848	-0.471301	-0.411769
Zn5	Zn	1.780181	-0.137968	-0.078436
Zn6	Zn	2.113515	0.195365	0.254898
Zn7	Zn	1.293846	-0.331908	-0.403610
Zn8	Zn	1.627179	0.001426	-0.070277
Zn9	Zn	1.960513	0.334759	0.263056
Zn10	Zn	1.285622	-0.471248	-0.573011
Zn11	Zn	1.618955	-0.137914	-0.239678
Zn12	Zn	1.952289	0.195419	0.093656
O13	O	1.370367	-0.401582	-0.488322
O14	O	1.703701	-0.068249	-0.154989
O15	O	2.037034	0.265085	0.178345
O16	O	1.589033	-0.350374	-0.544603
O17	O	1.922366	-0.017041	-0.211270
O18	O	2.255699	0.316292	0.122063
O19	O	1.426518	-0.452848	-0.275707
O20	O	1.759852	-0.119515	0.057626
O21	O	2.093185	0.213819	0.390959
O22	O	1.322161	-0.215237	-0.418195
O23	O	1.655494	0.118097	-0.084862
O24	O	1.988828	0.451430	0.248472
O25	O	1.582931	-0.452813	-0.432101
O26	O	1.916264	-0.119479	-0.098767
O27	O	2.249598	0.213854	0.234566
O28	O	1.440673	-0.215210	-0.536692
O29	O	1.774006	0.118123	-0.203359
O30	O	2.107339	0.451457	0.129975
O31	O	1.314108	-0.350436	-0.269713
O32	O	1.647442	-0.017103	0.063620
O33	O	1.980775	0.316231	0.396954
O34	O	1.157774	-0.350384	-0.426063
O35	O	1.491107	-0.017051	-0.092729
O36	O	1.824441	0.316283	0.240604
O37	O	1.308145	-0.452722	-0.706914
O38	O	1.641478	-0.119388	-0.373581
O39	O	1.974811	0.213945	-0.040248
O40	O	1.151732	-0.452757	-0.550521
O41	O	1.485065	-0.119423	-0.217188
O42	O	1.818399	0.213910	0.116146
O43	O	1.432698	-0.350322	-0.700953
O44	O	1.766032	-0.016989	-0.367620
O45	O	2.099365	0.316344	-0.034286
O46	O	1.418544	-0.587960	-0.439968
O47	O	1.751877	-0.254627	-0.106635
O48	O	2.085211	0.078706	0.226698
O49	O	1.300092	-0.587921	-0.558432
O50	O	1.633425	-0.254588	-0.225099
O51	O	1.966758	0.078746	0.108234
C52	C	1.119754	-0.401569	-0.488288
C53	C	1.453087	-0.068236	-0.154954
C54	C	1.786420	0.265098	0.178379
C55	C	1.012539	-0.401584	-0.488297
C56	C	1.345872	-0.068250	-0.154964
C57	C	1.679206	0.265083	0.178370
C58	C	0.925469	-0.401586	-0.488313
C59	C	1.258802	-0.068253	-0.154980
C60	C	1.592136	0.265080	0.178354
C61	C	0.816236	-0.401592	-0.488343
C62	C	1.149570	-0.068259	-0.155009
C63	C	1.482903	0.265074	0.178324
C64	C	1.357550	-0.618191	-0.500987
C65	C	1.690884	-0.284857	-0.167654
C66	C	2.024217	0.048476	0.165679
C67	C	1.352156	-0.710857	-0.506438
C68	C	1.685489	-0.377524	-0.173104
C69	C	2.018822	-0.044190	0.160229
C70	C	1.398590	-0.921799	-0.460255
C71	C	1.731923	-0.588466	-0.126921
C72	C	2.065256	-0.255132	0.206412
C73	C	1.342324	-0.880514	-0.516399
C74	C	1.675657	-0.547180	-0.183066
C75	C	2.008990	-0.213847	0.150267
C76	C	1.347796	-0.786108	-0.510855
C77	C	1.681129	-0.452775	-0.177522
C78	C	2.014462	-0.119441	0.155812
C79	C	1.393119	-1.016213	-0.465798
C80	C	1.726452	-0.682880	-0.132464
C81	C	2.059786	-0.349547	0.200869
C82	C	1.621959	-0.401595	-0.488357
C83	C	1.955293	-0.068262	-0.155024
C84	C	2.288626	0.265071	0.178310
C85	C	1.729173	-0.401601	-0.488372
C86	C	2.062506	-0.068268	-0.155039
C87	C	2.395840	0.265065	0.178295
C88	C	1.370431	-0.401512	-0.739911
C89	C	1.703764	-0.068179	-0.406578
C90	C	2.037097	0.265155	-0.073244
C91	C	1.370457	-0.401482	-0.847123
C92	C	1.703791	-0.068149	-0.513790
C93	C	2.037124	0.265185	-0.180457
C94	C	1.383261	-0.184127	-0.475628
C95	C	1.716594	0.149206	-0.142295
C96	C	2.049927	0.482539	0.191038
C97	C	1.388755	-0.091461	-0.470219
C98	C	1.722088	0.241872	-0.136886
C99	C	2.055422	0.575206	0.196448
C100	C	1.370479	-0.401459	-0.934192
C101	C	1.703812	-0.068125	-0.600858
C102	C	2.037145	0.265208	-0.267525
C103	C	1.370508	-0.401421	-1.043422
C104	C	1.703842	-0.068088	-0.710089
C105	C	2.037175	0.265246	-0.376755
C106	C	1.370363	-0.401592	-0.237708
C107	C	1.703697	-0.068258	0.095625
C108	C	2.037030	0.265075	0.428958
C109	C	1.370537	-0.401386	-0.130483
C110	C	1.703871	-0.068053	0.202851
C111	C	2.037204	0.265280	0.536184
H112	H	1.290043	-0.916069	-0.568630
H113	H	1.623376	-0.582736	-0.235296
H114	H	1.956709	-0.249403	0.098037
H115	H	1.450866	-0.886247	-0.408027
H116	H	1.784200	-0.552914	-0.074693
H117	H	2.117533	-0.219581	0.258640
