data_functionalizedCrystal
_audit_creation_method	'MofGen! by Chris Wilmer'
_symmetry_space_group_name_H-M	'P1'
_symmetry_Int_Tables_number	1
_symmetry_cell_setting	triclinic
loop_
_symmetry_equiv_pos_as_xyz
  x,y,z
_cell_length_a	23.532355
_cell_length_b	23.532353
_cell_length_c	16.098538
_cell_angle_alpha	87.300796
_cell_angle_beta	92.717066
_cell_angle_gamma	82.826995
loop_
_atom_site_label
_atom_site_type_symbol
_atom_site_fract_x
_atom_site_fract_y
_atom_site_fract_z
O1	O	-0.757828	-0.066438	-0.069191
O2	O	-0.257828	0.433562	0.430809
O3	O	-0.591959	-0.076472	-0.069211
O4	O	-0.091959	0.423528	0.430789
O5	O	-0.679911	0.011479	-0.069182
O6	O	-0.179911	0.511479	0.430818
O7	O	-0.669876	-0.154389	-0.069219
O8	O	-0.169876	0.345611	0.430781
O9	O	-0.674773	0.006362	0.069329
O10	O	-0.174773	0.506362	0.569329
O11	O	-0.586821	-0.081589	0.069301
O12	O	-0.086821	0.418411	0.569301
O13	O	-0.752690	-0.071556	0.069320
O14	O	-0.252690	0.428444	0.569320
Zn15	Zn	-0.668940	-0.077385	0.091302
Zn16	Zn	-0.168940	0.422615	0.591302
Zn17	Zn	-0.675709	-0.070642	-0.091192
Zn18	Zn	-0.175709	0.429358	0.408808
O19	O	-0.664739	-0.159507	0.069292
O20	O	-0.164739	0.340493	0.569292
C21	C	-0.568174	-0.078780	0.000043
C22	C	-0.068174	0.421220	0.500043
C23	C	-0.504956	-0.078025	0.000036
C24	C	-0.004956	0.421975	0.500036
C25	C	-0.677091	0.030137	0.000076
C26	C	-0.177091	0.530137	0.500076
C27	C	-0.676337	0.093355	0.000084
C28	C	-0.176337	0.593355	0.500084
N29	N	-0.664325	-0.081986	0.215850
N30	N	-0.164325	0.418014	0.715850
C31	C	-0.234512	-0.071938	-0.075458
C32	C	0.265488	0.428062	0.424542
C33	C	-0.293912	-0.072651	-0.075460
C34	C	0.206088	0.427349	0.424540
O35	O	-0.327019	-0.070628	-0.139671
O36	O	0.172981	0.429372	0.360329
N37	N	-0.320817	-0.075802	0.000042
N38	N	0.179183	0.424198	0.500042
C39	C	-0.288320	-0.078233	0.075552
C40	C	0.211680	0.421767	0.575552
O41	O	-0.316659	-0.080977	0.139773
O42	O	0.183341	0.419023	0.639773
C43	C	-0.228922	-0.077515	0.075554
C44	C	0.271078	0.422485	0.575554
C45	C	-0.202019	-0.074370	0.000047
C46	C	0.297981	0.425630	0.500047
C47	C	-0.207609	-0.068793	-0.150959
C48	C	0.292391	0.431207	0.349041
C49	C	-0.148213	-0.068080	-0.150956
C50	C	0.351787	0.431920	0.349044
C51	C	-0.115720	-0.070513	-0.075451
C52	C	0.384280	0.429487	0.424549
C53	C	-0.142623	-0.073658	0.000050
C54	C	0.357377	0.426342	0.500050
C55	C	-0.196426	-0.079941	0.151063
C56	C	0.303574	0.420059	0.651063
C57	C	-0.137024	-0.079223	0.151059
C58	C	0.362976	0.420777	0.651059
C59	C	-0.110121	-0.076078	0.075552
C60	C	0.389879	0.423922	0.575552
C61	C	-0.050734	-0.075377	0.075558
C62	C	0.449266	0.424623	0.575558
N63	N	-0.023829	-0.072227	0.000055
N64	N	0.476171	0.427773	0.500055
C65	C	-0.056322	-0.069795	-0.075449
C66	C	0.443678	0.430205	0.424551
C67	C	-0.413060	-0.079739	0.075542
C68	C	0.086940	0.420261	0.575542
C69	C	-0.472457	-0.080461	0.075541
C70	C	0.027543	0.419539	0.575541
C71	C	-0.478045	-0.074879	-0.075472
C72	C	0.021955	0.425121	0.424528
C73	C	-0.418647	-0.074161	-0.075470
C74	C	0.081353	0.425839	0.424530
C75	C	-0.386155	-0.076589	0.000040
C76	C	0.113845	0.423411	0.500040
C77	C	0.068414	-0.068299	-0.075437
C78	C	0.568414	0.431701	0.424563
C79	C	0.127816	-0.067589	-0.075427
C80	C	0.627816	0.432411	0.424573
C81	C	0.133398	-0.073168	0.075585
C82	C	0.633398	0.426832	0.575585
C83	C	0.074002	-0.073881	0.075576
C84	C	0.574002	0.426119	0.575576
C85	C	0.041511	-0.071444	0.000058
C86	C	0.541511	0.428556	0.500058
O87	O	-0.017590	-0.077396	0.139736
O88	O	0.482410	0.422604	0.639736
O89	O	-0.027976	-0.067043	-0.139659
O90	O	0.472024	0.432957	0.360341
C91	C	0.223525	-0.069253	0.000068
C92	C	0.723525	0.430747	0.500068
C93	C	0.160309	-0.070021	0.000077
C94	C	0.660309	0.429979	0.500077
C95	C	-0.674409	0.488158	-0.075461
C96	C	-0.174409	0.988158	0.424539
C97	C	-0.673693	0.547557	-0.075465
C98	C	-0.173693	1.047557	0.424535
O99	O	-0.675684	0.580646	-0.139677
O100	O	-0.175684	1.080646	0.360323
N101	N	-0.670537	0.574479	0.000036
N102	N	-0.170537	1.074479	0.500036
C103	C	-0.668091	0.541997	0.075547
C104	C	-0.168091	1.041997	0.575547
O105	O	-0.665341	0.570350	0.139767
O106	O	-0.165341	1.070350	0.639767
C107	C	-0.668803	0.482598	0.075551
C108	C	-0.168803	0.982598	0.575551
C109	C	-0.671965	0.455680	0.000044
C110	C	-0.171965	0.955680	0.500044
C111	C	-0.677569	0.461240	-0.150961
C112	C	-0.177569	0.961240	0.349039
C113	C	-0.678287	0.401844	-0.150957
C114	C	-0.178287	0.901844	0.349043
C115	C	-0.675843	0.369367	-0.075451
C116	C	-0.175843	0.869367	0.424549
C117	C	-0.672682	0.396285	0.000049
C118	C	-0.172682	0.896285	0.500049
C119	C	-0.666354	0.450116	0.151061
C120	C	-0.166354	0.950116	0.651061
C121	C	-0.667066	0.390713	0.151058
C122	C	-0.167066	0.890713	0.651058
C123	C	-0.670227	0.363796	0.075551
C124	C	-0.170227	0.863796	0.575551
C125	C	-0.670956	0.304412	0.075559
C126	C	-0.170956	0.804412	0.575559
N127	N	-0.674112	0.277490	0.000057
N128	N	-0.174112	0.777490	0.500057
C129	C	-0.676555	0.309968	-0.075448
C130	C	-0.176555	0.809968	0.424552
C131	C	-0.666595	0.666739	0.075534
C132	C	-0.166595	1.166739	0.575534
C133	C	-0.665887	0.726137	0.075532
C134	C	-0.165887	1.226137	0.575532
C135	C	-0.671487	0.731694	-0.075481
C136	C	-0.171487	1.231694	0.424519
C137	C	-0.672199	0.672295	-0.075478
C138	C	-0.172199	1.172295	0.424522
C139	C	-0.669751	0.639817	0.000033
C140	C	-0.169751	1.139817	0.500033
C141	C	-0.678062	0.185233	-0.075432
C142	C	-0.178062	0.685233	0.424568
C143	C	-0.678781	0.125833	-0.075421
C144	C	-0.178781	0.625833	0.424579
C145	C	-0.673178	0.120281	0.075591
C146	C	-0.173178	0.620281	0.575591
C147	C	-0.672461	0.179677	0.075581
C148	C	-0.172461	0.679677	0.575581
C149	C	-0.674902	0.212151	0.000062
C150	C	-0.174902	0.712151	0.500062
O151	O	-0.668963	0.271286	0.139738
O152	O	-0.168963	0.771286	0.639738
O153	O	-0.679298	0.281606	-0.139657
O154	O	-0.179298	0.781606	0.360343
C155	C	-0.667562	0.821836	0.000034
C156	C	-0.167562	1.321836	0.500034
C157	C	-0.668328	0.758620	0.000026
C158	C	-0.168328	1.258620	0.500026
N159	N	-0.680329	-0.066036	-0.215740
N160	N	-0.180329	0.433964	0.284260
C161	C	-0.701668	-0.044670	0.259447
C162	C	-0.201668	0.455330	0.759447
C163	C	-0.698445	-0.047894	0.346635
C164	C	-0.198445	0.452106	0.846635
C165	C	-0.657880	-0.088438	0.390224
C166	C	-0.157880	0.411562	0.890224
C167	C	-0.620532	-0.125756	0.346621
C168	C	-0.120532	0.374244	0.846621
C169	C	-0.623754	-0.122529	0.259435
C170	C	-0.123754	0.377471	0.759435
C171	C	-0.646203	-0.100128	0.653470
C172	C	-0.146203	0.399872	1.153470
C173	C	-0.642986	-0.103353	0.740663
C174	C	-0.142986	0.396647	1.240663
C175	C	-0.720898	-0.025489	0.740671
C176	C	-0.220898	0.474511	1.240671
C177	C	-0.724118	-0.022268	0.653483
C178	C	-0.224118	0.477732	1.153483
C179	C	-0.686768	-0.059584	0.609887
C180	C	-0.186768	0.440416	1.109887
C181	C	-0.654585	-0.091736	0.479344
C182	C	-0.154585	0.408264	0.979344
C183	C	-0.690060	-0.056284	0.520769
C184	C	-0.190060	0.443716	1.020769
H185	H	0.149717	-0.065030	-0.136917
H186	H	0.649717	0.434970	0.363083
H187	H	-0.234059	-0.066810	-0.212447
H188	H	0.265941	0.433190	0.287553
H189	H	-0.615792	-0.130513	0.617982
H190	H	-0.115792	0.369487	1.117982
F191	F	-0.664459	0.356152	0.231429
F192	F	-0.164459	0.856152	0.731429
F193	F	-0.662986	0.478751	0.231427
F194	F	-0.162986	0.978751	0.731427
H195	H	0.041967	-0.066316	-0.136931
H196	H	0.541967	0.433684	0.363069
F197	F	0.167990	-0.075759	0.155938
F198	F	0.667990	0.424241	0.655938
H199	H	-0.757149	0.010746	0.617994
H200	H	-0.257149	0.510746	1.117994
H201	H	-0.751305	0.004892	0.776174
H202	H	-0.251305	0.504892	1.276174
H203	H	-0.593344	-0.152916	0.223939
H204	H	-0.093344	0.347084	0.723939
F205	F	-0.599809	-0.146510	0.787049
F206	F	-0.099809	0.353490	1.287049
F207	F	-0.225045	-0.083288	0.231430
F208	F	0.274955	0.416712	0.731430
F209	F	-0.670578	0.085706	0.155945
F210	F	-0.170578	0.585706	0.655945
F211	F	-0.390020	-0.070813	-0.155834
F212	F	0.109980	0.429187	0.344166
F213	F	-0.744846	-0.001519	0.213064
F214	F	-0.244846	0.498481	0.713064
F215	F	-0.682148	0.097189	-0.155789
F216	F	-0.182148	0.597189	0.344211
H217	H	-0.110572	-0.081205	0.212550
H218	H	0.389428	0.418795	0.712550
H219	H	-0.680046	0.211667	-0.136927
H220	H	-0.180046	0.711667	0.363073
F221	F	0.045370	-0.077236	0.155939
F222	F	0.545370	0.422764	0.655939
H223	H	-0.587501	-0.158767	0.382117
H224	H	-0.087501	0.341233	0.882117
H225	H	-0.386608	-0.081723	0.137035
H226	H	0.113392	0.418277	0.637035
F227	F	-0.611414	-0.134887	0.525740
F228	F	-0.111414	0.365113	1.025740
F229	F	-0.669107	0.208327	0.155942
F230	F	-0.169107	0.708327	0.655942
F231	F	-0.119589	-0.064729	-0.231322
F232	F	0.380411	0.435271	0.268678
F233	F	-0.681648	0.373204	-0.231322
F234	F	-0.181648	0.873204	0.268678
F235	F	-0.662532	0.754780	0.155896
F236	F	-0.162532	1.254780	0.655896
F237	F	-0.512637	-0.072291	-0.155831
F238	F	-0.012637	0.427709	0.344169
H239	H	-0.723086	-0.023270	0.485276
H240	H	-0.223086	0.476730	0.985276
H241	H	-0.494355	-0.083031	0.137027
H242	H	0.005645	0.416969	0.637027
F243	F	-0.680170	0.495796	-0.231331
F244	F	-0.180170	0.995796	0.268669
H245	H	-0.674773	0.650382	-0.136962
H246	H	-0.174773	1.150382	0.363038
F247	F	-0.674084	0.766268	-0.155841
F248	F	-0.174084	1.266268	0.344159
H249	H	-0.664603	0.640299	0.137028
H250	H	-0.164603	1.140299	0.637028
H251	H	-0.728853	-0.017507	0.382131
H252	H	-0.228853	0.482493	0.882131
