data_functionalizedCrystal
_audit_creation_method	'MofGen! by Chris Wilmer'
_symmetry_space_group_name_H-M	'P1'
_symmetry_Int_Tables_number	1
_symmetry_cell_setting	triclinic
loop_
_symmetry_equiv_pos_as_xyz
  x,y,z
_cell_length_a	15.944499
_cell_length_b	15.944493
_cell_length_c	8.965430
_cell_angle_alpha	90.006207
_cell_angle_beta	90.001821
_cell_angle_gamma	83.476327
loop_
_atom_site_label
_atom_site_type_symbol
_atom_site_fract_x
_atom_site_fract_y
_atom_site_fract_z
O1	O	1.114518	0.108123	-0.124109
O2	O	0.869960	0.121525	-0.124090
O3	O	0.998943	-0.007455	-0.124112
O4	O	0.985536	0.237104	-0.124087
O5	O	0.998952	-0.007449	0.123966
O6	O	0.869969	0.121531	0.123989
O7	O	1.114528	0.108129	0.123970
Cu8	Cu	0.992250	0.114831	0.146631
Cu9	Cu	0.992238	0.114824	-0.146751
O10	O	0.985545	0.237110	0.123992
C11	C	0.838670	0.120979	-0.000048
C12	C	0.745422	0.119334	-0.000042
C13	C	0.453871	0.194269	-0.000056
C14	C	0.514903	0.155313	-0.122379
C15	C	0.409787	0.113358	-0.000077
C16	C	0.514898	0.155297	0.122207
C17	C	0.574695	0.116299	-0.000058
C18	C	0.469591	0.074380	-0.122501
C19	C	0.469580	0.074375	0.122195
C20	C	0.530595	0.035361	-0.000157
C21	C	0.314787	0.111666	-0.000090
C22	C	0.669694	0.117984	-0.000056
C23	C	0.998400	-0.038747	-0.000079
C24	C	0.996757	-0.131995	-0.000098
C25	C	1.072679	-0.367769	-0.000076
C26	C	1.031732	-0.418333	-0.122388
C27	C	0.993713	-0.302716	-0.000080
C28	C	1.031723	-0.418303	0.122199
C29	C	0.990778	-0.467625	-0.000055
C30	C	0.952787	-0.352051	-0.122493
C31	C	0.952790	-0.352018	0.122204
C32	C	0.911785	-0.402548	-0.000138
C33	C	0.995405	-0.207716	-0.000095
C34	C	0.989079	-0.562622	-0.000051
C35	C	1.145818	0.108675	-0.000075
C36	C	1.239066	0.110320	-0.000091
C37	C	0.986088	0.268401	-0.000044
C38	C	0.987731	0.361650	-0.000035
N39	N	0.992263	0.114835	0.352980
C40	C	1.051934	0.055191	0.450236
C41	C	0.976034	0.038886	0.549644
C42	C	1.068139	0.131088	0.549699
C43	C	0.916325	0.098493	0.450199
C44	C	1.008480	0.190728	0.450246
C45	C	0.932524	0.174456	0.549609
N46	N	0.992245	0.114821	0.646900
H47	H	0.534971	0.189535	0.225618
H48	H	1.102346	0.004725	0.406602
Cl49	Cl	0.954828	-0.060212	0.617043
Cl50	Cl	1.083239	-0.462974	0.281841
Cl51	Cl	0.438534	0.021586	0.281854
Cl52	Cl	1.029715	0.289795	0.382772
H53	H	0.882000	0.224892	0.592967
H54	H	0.449616	0.040187	-0.226032
H55	H	0.852136	0.084668	0.406677
H56	H	1.132313	0.144841	0.593405
H57	H	0.534990	0.189535	-0.225780
Cl58	Cl	0.402386	0.297937	-0.000223
Cl59	Cl	0.581851	-0.068398	-0.000269
H60	H	0.843713	-0.418002	-0.000200
H61	H	1.140699	-0.352153	-0.000204
Cl62	Cl	1.083212	-0.463040	-0.282046
Cl63	Cl	0.901370	-0.307268	0.281873
H64	H	0.919454	-0.323227	-0.226008
