data_functionalizedCrystal
_audit_creation_method	'MofGen! by Chris Wilmer'
_symmetry_space_group_name_H-M	'P1'
_symmetry_Int_Tables_number	1
_symmetry_cell_setting	triclinic
loop_
_symmetry_equiv_pos_as_xyz
  x,y,z
_cell_length_a	18.215407
_cell_length_b	18.215404
_cell_length_c	18.215399
_cell_angle_alpha	89.972485
_cell_angle_beta	89.982223
_cell_angle_gamma	90.019443
loop_
_atom_site_label
_atom_site_type_symbol
_atom_site_fract_x
_atom_site_fract_y
_atom_site_fract_z
Zn1	Zn	-1.125077	0.293078	0.416078
Zn2	Zn	-0.625077	0.793078	0.916078
Zn3	Zn	-1.124988	0.416149	0.293012
Zn4	Zn	-0.624988	0.916149	0.793012
Zn5	Zn	-1.002010	0.293092	0.293029
Zn6	Zn	-0.502010	0.793092	0.793029
Zn7	Zn	-1.001978	0.416098	0.416042
Zn8	Zn	-0.501978	0.916098	0.916042
O9	O	-1.063513	0.354604	0.354540
O10	O	-0.563513	0.854604	0.854540
O11	O	-1.228050	0.309419	0.399761
O12	O	-0.728050	0.809419	0.899761
O13	O	-1.108651	0.399852	0.190030
O14	O	-0.608651	0.899852	0.690030
O15	O	-1.018386	0.190105	0.309374
O16	O	-0.518386	0.690105	0.809374
O17	O	-1.227984	0.399839	0.309345
O18	O	-0.727984	0.899839	0.809345
O19	O	-1.108803	0.190095	0.399777
O20	O	-0.608803	0.690095	0.899777
O21	O	-1.018299	0.309443	0.190043
O22	O	-0.518299	0.809443	0.690043
O23	O	-0.899021	0.309393	0.309339
O24	O	-0.399021	0.809393	0.809339
O25	O	-1.018332	0.399752	0.519031
O26	O	-0.518332	0.899752	1.019031
O27	O	-0.898998	0.399765	0.399716
O28	O	-0.398998	0.899765	0.899716
O29	O	-1.108772	0.309369	0.519057
O30	O	-0.608772	0.809369	1.019057
O31	O	-1.108620	0.519127	0.309310
O32	O	-0.608620	1.019127	0.809310
O33	O	-1.018245	0.519089	0.399699
O34	O	-0.518245	1.019089	0.899699
C35	C	-0.872307	0.354575	0.354526
C36	C	-0.372307	0.854575	0.854526
C37	C	-0.790508	0.354581	0.354537
C38	C	-0.290508	0.854581	0.854537
C39	C	-0.602347	0.307590	0.401690
C40	C	-0.102347	0.807590	0.901690
C41	C	-0.525489	0.307594	0.401692
C42	C	-0.025489	0.807594	0.901692
C43	C	-0.525431	0.401607	0.307397
C44	C	-0.025431	0.901607	0.807397
C45	C	-0.602289	0.401599	0.307391
C46	C	-0.102289	0.901599	0.807391
C47	C	-0.640745	0.354591	0.354542
C48	C	-0.140745	0.854591	0.854542
C49	C	-0.487029	0.354603	0.354549
C50	C	0.012971	0.854603	0.854549
C51	C	-0.403695	0.354608	0.354551
C52	C	0.096305	0.854608	0.854551
C53	C	-0.724084	0.354586	0.354540
C54	C	-0.224084	0.854586	0.854540
C55	C	-1.063439	0.545810	0.354515
C56	C	-0.563439	1.045810	0.854515
C57	C	-1.063475	0.627609	0.354529
C58	C	-0.563475	1.127609	0.854529
C59	C	-1.063558	0.354553	0.546493
C60	C	-0.563558	0.854553	1.046493
C61	C	-1.063577	0.354532	0.628292
C62	C	-0.563577	0.854532	1.128292
C63	C	-0.255466	0.354625	0.354553
C64	C	0.244534	0.854625	0.854553
C65	C	-0.337265	0.354614	0.354554
C66	C	0.162735	0.854614	0.854554
C67	C	-1.110647	0.815798	0.307560
C68	C	-0.610647	1.315798	0.807560
C69	C	-1.110681	0.892657	0.307582
C70	C	-0.610681	1.392657	0.807582
C71	C	-1.016492	0.892658	0.401627
C72	C	-0.516492	1.392658	0.901627
C73	C	-1.016462	0.815800	0.401608
C74	C	-0.516462	1.315800	0.901608
C75	C	-1.063539	0.777373	0.354570
C76	C	-0.563539	1.277373	0.854570
C77	C	-1.063603	0.931089	0.354611
C78	C	-0.563603	1.431089	0.854611
C79	C	-1.063640	1.014422	0.354635
C80	C	-0.563640	1.514422	0.854635
C81	C	-1.063503	0.694034	0.354547
C82	C	-0.563503	1.194034	0.854547
C83	C	-1.063613	1.162651	0.354595
C84	C	-0.563613	1.662651	0.854595
C85	C	-1.063667	1.080852	0.354652
C86	C	-0.563667	1.580852	0.854652
C87	C	-1.063511	0.354602	0.163334
C88	C	-0.563511	0.854602	0.663334
C89	C	-1.063635	0.354416	0.081536
C90	C	-0.563635	0.854416	0.581536
C91	C	-1.110687	0.307426	0.816501
C92	C	-0.610687	0.807426	1.316501
C93	C	-1.110695	0.307404	0.893360
C94	C	-0.610695	0.807404	1.393360
C95	C	-1.016520	0.401524	0.893321
C96	C	-0.516520	0.901524	1.393321
C97	C	-1.016508	0.401541	0.816464
C98	C	-0.516508	0.901541	1.316464
C99	C	-1.063596	0.354493	0.778056
C100	C	-0.563596	0.854493	1.278056
C101	C	-1.063616	0.354454	0.931772
C102	C	-0.563616	0.854454	1.431772
C103	C	-1.063625	0.354432	1.015106
C104	C	-0.563625	0.854432	1.515106
C105	C	-1.063586	0.354515	0.694717
C106	C	-0.563586	0.854515	1.194717
H107	H	-0.494111	0.439879	0.269009
H108	H	0.005889	0.939879	0.769009
H109	H	-1.149040	0.269076	0.924659
H110	H	-0.649040	0.769076	1.424659
C111	C	-0.483255	0.255891	0.453560
C112	C	0.016745	0.755891	0.953560
N113	N	-0.451445	0.216946	0.492630
N114	N	0.048555	0.716946	0.992630
H115	H	-0.978101	0.784512	0.439893
H116	H	-0.478101	1.284512	0.939893
H117	H	-0.633553	0.439874	0.268994
H118	H	-0.133553	0.939874	0.768994
C119	C	-0.964725	0.453273	0.935577
C120	C	-0.464725	0.953273	1.435577
N121	N	-0.925712	0.492251	0.967404
N122	N	-0.425712	0.992251	1.467404
H123	H	-1.149026	0.269114	0.785232
H124	H	-0.649026	0.769114	1.285232
H125	H	-0.978156	0.439868	0.785161
H126	H	-0.478156	0.939868	1.285161
C127	C	-1.162436	0.773531	0.255821
C128	C	-0.662436	1.273531	0.755821
N129	N	-1.201447	0.741697	0.216852
N130	N	-0.701447	1.241697	0.716852
H131	H	-0.633656	0.269311	0.440081
H132	H	-0.133656	0.769311	0.940081
C133	C	-1.162501	0.934922	0.255863
C134	C	-0.662501	1.434922	0.755863
N135	N	-1.201534	0.966755	0.216906
N136	N	-0.701534	1.466755	0.716906
H137	H	-0.978164	0.923955	0.439922
H138	H	-0.478164	1.423955	0.939922
