data_functionalizedCrystal
_audit_creation_method	'MofGen! by Chris Wilmer'
_symmetry_space_group_name_H-M	'P1'
_symmetry_Int_Tables_number	1
_symmetry_cell_setting	triclinic
loop_
_symmetry_equiv_pos_as_xyz
  x,y,z
_cell_length_a	14.044220
_cell_length_b	10.723024
_cell_length_c	13.101018
_cell_angle_alpha	93.392007
_cell_angle_beta	86.335703
_cell_angle_gamma	88.828374
loop_
_atom_site_label
_atom_site_type_symbol
_atom_site_fract_x
_atom_site_fract_y
_atom_site_fract_z
O1	O	-1.264837	-0.294756	0.085101
O2	O	-0.764837	0.205244	0.585101
O3	O	-0.988799	-0.283890	0.085127
O4	O	-0.488799	0.216110	0.585127
O5	O	-1.133185	-0.108384	0.085109
O6	O	-0.633185	0.391616	0.585109
O7	O	-1.120451	-0.470262	0.085118
O8	O	-0.620451	0.029738	0.585118
O9	O	-1.122813	-0.120987	-0.085320
O10	O	-0.622813	0.379013	0.414680
O11	O	-0.978427	-0.296493	-0.085302
O12	O	-0.478427	0.203507	0.414698
O13	O	-1.254465	-0.307359	-0.085328
O14	O	-0.754465	0.192641	0.414672
Zn15	Zn	-1.114799	-0.303927	-0.112375
Zn16	Zn	-0.614799	0.196073	0.387625
Zn17	Zn	-1.128464	-0.287322	0.112173
Zn18	Zn	-0.628464	0.212678	0.612173
O19	O	-1.110079	-0.482865	-0.085311
O20	O	-0.610079	0.017135	0.414689
C21	C	-0.948268	-0.285436	-0.000084
C22	C	-0.448268	0.214564	0.499916
C23	C	-0.842950	-0.271251	-0.000074
C24	C	-0.342950	0.228749	0.499926
C25	C	-1.127072	-0.068093	-0.000104
C26	C	-0.627072	0.431907	0.499896
C27	C	-1.124300	0.070739	-0.000100
C28	C	-0.624300	0.570739	0.499900
C29	C	-1.294996	-0.305813	-0.000115
C30	C	-0.794996	0.194187	0.499885
C31	C	-1.400314	-0.319997	-0.000118
C32	C	-0.900314	0.180003	0.499882
C33	C	-0.650119	-0.245320	-0.000095
C34	C	-0.150119	0.254680	0.499905
C35	C	-0.593140	-0.345922	-0.000097
C36	C	-0.093140	0.154078	0.499903
C37	C	-0.485842	-0.331494	-0.000109
C38	C	0.014158	0.168506	0.499891
C39	C	-0.757427	-0.259747	-0.000084
C40	C	-0.257427	0.240253	0.499916
C41	C	-1.116192	-0.523156	-0.000095
C42	C	-0.616192	-0.023156	0.499905
C43	C	-1.118965	-0.661987	-0.000093
C44	C	-0.618965	-0.161987	0.499907
N45	N	-1.105480	-0.315260	-0.265623
N46	N	-0.605480	0.184740	0.234377
C47	C	-1.205091	0.137638	-0.000106
C48	C	-0.705091	0.637638	0.499894
C49	C	-1.202227	0.281128	-0.000102
C50	C	-0.702227	0.781128	0.499898
C51	C	-1.150465	-0.260557	-0.525537
C52	C	-0.650465	0.239443	-0.025537
C53	C	-1.092810	-0.330680	-0.474658
C54	C	-0.592810	0.169320	0.025342
C55	C	-1.099862	-0.322098	-0.358340
C56	C	-0.599862	0.177902	0.141660
C57	C	-1.143414	-0.269137	-0.641866
C58	C	-0.643414	0.230863	-0.141866
N59	N	-1.137791	-0.275980	0.265421
N60	N	-0.637791	0.224020	0.765421
H61	H	-0.624942	-0.442886	-0.000090
H62	H	-0.124942	0.057114	0.499910
N63	N	-1.289007	0.353245	-0.000120
N64	N	-0.789007	0.853245	0.499880
N65	N	-1.342732	0.336984	-0.071967
N66	N	-0.842732	0.836984	0.428033
H67	H	-1.404024	0.387917	-0.071981
H68	H	-0.904024	0.887917	0.428019
H69	H	-1.038154	-0.397160	-0.518456
H70	H	-0.538154	0.102840	-0.018456
H71	H	-1.049797	0.280508	-0.000094
H72	H	-0.549797	0.780508	0.499906
N73	N	-1.034855	0.132118	-0.000104
N74	N	-0.534855	0.632118	0.499896
N75	N	-0.958897	0.069295	-0.000105
N76	N	-0.458897	0.569295	0.499895
H77	H	-0.895722	0.112640	-0.000110
H78	H	-0.395722	0.612640	0.499890
N79	N	-1.218977	-0.177141	-0.470547
N80	N	-0.718977	0.322859	0.029453
N81	N	-1.191843	-0.091984	-0.410653
N82	N	-0.691843	0.408016	0.089347
H83	H	-1.240215	-0.033069	-0.371784
H84	H	-0.740215	0.466931	0.128216
N85	N	-0.610216	-0.123695	-0.000106
N86	N	-0.110216	0.376305	0.499894
N87	N	-0.521844	-0.112002	-0.000114
N88	N	-0.021844	0.387998	0.499886
H89	H	-0.493652	-0.026104	-0.000119
H90	H	0.006348	0.473896	0.499881
N91	N	-1.294519	0.076219	-0.000104
N92	N	-0.794519	0.576219	0.499896
N93	N	-1.296719	-0.040256	-0.000101
N94	N	-0.796719	0.459744	0.499899
H95	H	-1.359880	-0.083633	-0.000098
H96	H	-0.859880	0.416367	0.499902
