data_functionalizedCrystal
_audit_creation_method	'MofGen! by Chris Wilmer'
_symmetry_space_group_name_H-M	'P1'
_symmetry_Int_Tables_number	1
_symmetry_cell_setting	triclinic
loop_
_symmetry_equiv_pos_as_xyz
  x,y,z
_cell_length_a	10.654558
_cell_length_b	17.038272
_cell_length_c	9.730223
_cell_angle_alpha	89.998176
_cell_angle_beta	90.000400
_cell_angle_gamma	87.799936
loop_
_atom_site_label
_atom_site_type_symbol
_atom_site_fract_x
_atom_site_fract_y
_atom_site_fract_z
O1	O	1.678033	0.109906	-0.114272
O2	O	1.313527	0.120367	-0.114279
O3	O	1.493614	0.001309	-0.114265
O4	O	1.497947	0.228964	-0.114287
O5	O	1.493612	0.001312	0.114315
O6	O	1.313525	0.120371	0.114300
O7	O	1.678031	0.109909	0.114308
Zn8	Zn	1.495778	0.115140	0.150596
Zn9	Zn	1.495781	0.115136	-0.150568
O10	O	1.497945	0.228967	0.114293
C11	C	1.266657	0.119599	0.000010
C12	C	1.127001	0.117297	0.000007
C13	C	1.489672	-0.027840	0.000025
C14	C	1.477915	-0.114698	0.000024
C15	C	0.930163	0.114059	-0.124592
C16	C	1.061386	0.116216	-0.124593
C17	C	1.061387	0.116215	0.124617
C18	C	0.930167	0.114053	0.124617
C19	C	0.864554	0.112986	-0.249200
C20	C	0.930158	0.114067	-0.373811
C21	C	1.061381	0.116223	-0.373812
C22	C	1.126999	0.117298	-0.249203
C23	C	1.585859	-0.164208	0.000028
C24	C	1.574805	-0.245820	0.000014
C25	C	1.455805	-0.277922	0.000007
C26	C	1.347853	-0.228406	-0.000000
C27	C	1.358909	-0.146795	0.000003
C28	C	1.416747	-0.523899	-0.000012
C29	C	1.405699	-0.605516	-0.000012
C30	C	1.632652	-0.622924	0.000001
C31	C	1.643698	-0.541311	0.000012
C32	C	1.535746	-0.491803	-0.000003
C33	C	1.444503	-0.361343	-0.000002
C34	C	1.547049	-0.408383	-0.000003
C35	C	1.724901	0.110677	0.000015
C36	C	1.864558	0.112979	0.000009
C37	C	1.501886	0.258116	0.000000
C38	C	1.513643	0.344975	-0.000008
N39	N	1.495785	0.115142	0.356132
N40	N	1.495782	0.115128	-0.356104
C41	C	1.575551	0.062441	0.428065
C42	C	1.575547	0.062432	0.571948
C43	C	1.416008	0.167831	0.571953
C44	C	1.416006	0.167836	0.428073
C45	C	1.655330	0.009747	0.356124
C46	C	1.735104	-0.042957	0.428057
C47	C	1.735100	-0.042967	0.571940
C48	C	1.655322	0.009728	0.643890
H49	H	0.757705	0.111232	-0.249213
H50	H	1.655316	0.009711	0.761050
F51	F	0.860323	0.112907	-0.506420
F52	F	1.301853	-0.471218	-0.000032
F53	F	1.673693	-0.374217	-0.000004
F54	F	1.331111	0.223911	0.648531
H55	H	1.114794	0.117096	-0.475276
H56	H	1.114823	0.117092	0.226068
F57	F	1.712516	-0.130051	0.000048
F58	F	1.244019	-0.094104	-0.000005
H59	H	1.662704	-0.286128	0.000020
H60	H	1.233850	0.119050	-0.249214
F61	F	0.860343	0.112894	0.257231
F62	F	1.770353	-0.507153	-0.000015
F63	F	1.747534	-0.675620	0.000014
H64	H	1.800049	-0.085865	0.369467
F65	F	1.279038	-0.639678	-0.000012
F66	F	1.221204	-0.262573	-0.000023
F67	F	1.317857	-0.395515	-0.000015
H68	H	1.655344	0.009752	0.238968
F69	F	1.819989	-0.099064	0.648494
H70	H	1.351052	0.210750	0.369505
