data_functionalizedCrystal
_audit_creation_method	'MofGen! by Chris Wilmer'
_symmetry_space_group_name_H-M	'P1'
_symmetry_Int_Tables_number	1
_symmetry_cell_setting	triclinic
loop_
_symmetry_equiv_pos_as_xyz
  x,y,z
_cell_length_a	27.440280
_cell_length_b	27.440280
_cell_length_c	14.560438
_cell_angle_alpha	60.010073
_cell_angle_beta	90.005593
_cell_angle_gamma	59.999523
loop_
_atom_site_label
_atom_site_type_symbol
_atom_site_fract_x
_atom_site_fract_y
_atom_site_fract_z
Zr1	Zr	-0.063989	0.533412	0.884898
O2	O	-0.141809	0.635068	0.738277
O3	O	-0.040127	0.431750	0.929825
O4	O	-0.141798	0.533404	0.929850
O5	O	0.040056	0.533423	0.738254
O6	O	-0.141797	0.533405	1.080989
O7	O	-0.040137	0.533414	0.738252
O8	O	0.040075	0.351565	1.080944
O9	O	-0.141816	0.715263	0.738299
O10	O	-0.029956	0.473569	1.061802
O11	O	0.029890	0.473575	0.949011
O12	O	-0.089815	0.593259	0.949041
O13	O	-0.029969	0.593265	0.836250
Zr14	Zr	0.063912	0.533429	1.125949
Zr15	Zr	-0.063987	0.533414	1.125946
Zr16	Zr	0.063910	0.533427	0.884901
Zr17	Zr	-0.064000	0.661315	0.884933
Zr18	Zr	0.063924	0.405526	1.125914
O19	O	0.040050	0.635092	1.081022
O20	O	-0.141806	0.635071	1.081017
O21	O	0.040047	0.635089	0.738282
O22	O	0.141732	0.431774	1.272569
O23	O	-0.040124	0.431753	1.272564
O24	O	0.141730	0.431771	0.929830
O25	O	-0.040133	0.533419	1.272592
O26	O	0.141722	0.533438	1.080996
O27	O	0.141721	0.533437	0.929858
O28	O	0.040061	0.533428	1.272595
O29	O	-0.141814	0.715265	0.929900
O30	O	0.141738	0.351577	1.080946
O31	O	0.141739	0.351578	1.272547
O32	O	0.040077	0.351566	1.272545
O33	O	-0.040153	0.715275	0.738302
O34	O	-0.040152	0.715277	0.929903
O35	O	0.089739	0.473583	1.061806
O36	O	0.029892	0.473577	1.174597
O37	O	-0.029967	0.593267	1.061835
O38	O	0.029880	0.593273	0.949044
C39	C	-0.000024	0.373434	1.005379
C40	C	-0.000019	0.319136	1.005364
C41	C	0.044148	0.040258	1.088687
C42	C	0.044150	0.091280	1.088676
O43	O	0.081715	0.080108	1.159495
N44	N	-0.000031	0.160965	1.005412
C45	C	-0.044222	0.179629	0.922160
O46	O	-0.081802	0.243586	0.851337
C47	C	-0.044226	0.128607	0.922176
C48	C	-0.000038	0.058922	1.005439
C49	C	0.088332	-0.029424	1.171944
C50	C	0.088330	-0.080442	1.171952
C51	C	0.044144	-0.061778	1.088704
C52	C	-0.000040	0.007903	1.005447
C53	C	-0.088418	0.147271	0.838929
C54	C	-0.088419	0.096242	0.838952
C55	C	-0.044231	0.026557	0.922215
C56	C	-0.044228	-0.024451	0.922208
N57	N	-0.000046	-0.094136	1.005472
C58	C	0.044140	-0.112800	1.088720
C59	C	-0.044210	0.286774	0.922134
C60	C	-0.044204	0.337795	0.922112
C61	C	0.044168	0.249443	1.088631
C62	C	0.044164	0.198421	1.088646
C63	C	-0.000028	0.217089	1.005398
C64	C	0.044133	-0.219939	1.088732
C65	C	0.044129	-0.270957	1.088730
C66	C	-0.044244	-0.182601	0.922216
C67	C	-0.044238	-0.131586	0.922213
C68	C	-0.000047	-0.150260	1.005481
O69	O	-0.081775	-0.013331	0.851429
O70	O	0.081710	-0.176757	1.159540
C71	C	-0.160021	0.533402	1.005419
C72	C	-0.214317	0.533396	1.005418
C73	C	-0.582297	0.595909	0.946573
C74	C	-0.633319	0.595913	0.946576
O75	O	-0.686281	0.649048	0.896552
N76	N	-0.627591	0.533437	1.005434
C77	C	-0.570836	0.470952	1.064303
O78	O	-0.570648	0.417812	1.114367
C79	C	-0.519815	0.470949	1.064305
C80	C	-0.525548	0.533430	1.005434
C81	C	-0.588028	0.658385	0.887708
C82	C	-0.537009	0.658381	0.887703
C83	C	-0.480259	0.595901	0.946564
C84	C	-0.474529	0.533426	1.005429
C85	C	-0.463061	0.408466	1.123179
C86	C	-0.412039	0.408468	1.123177
C87	C	-0.417772	0.470949	1.064306
C88	C	-0.366761	0.470942	1.064285
N89	N	-0.372489	0.533419	1.005427
C90	C	-0.429238	0.595898	0.946566
C91	C	-0.677986	0.470964	1.064294
C92	C	-0.729005	0.470966	1.064286
C93	C	-0.791486	0.595927	0.946561
C94	C	-0.740465	0.595924	0.946563
C95	C	-0.683714	0.533440	1.005436
C96	C	-0.322093	0.595885	0.946560
C97	C	-0.271066	0.595875	0.946557
C98	C	-0.208591	0.470915	1.064286
C99	C	-0.259612	0.470924	1.064285
C100	C	-0.316365	0.533415	1.005420
O101	O	-0.313781	0.417835	1.114287
O102	O	-0.429415	0.649030	0.896522
C103	C	0.159944	0.533440	1.005428
C104	C	0.214241	0.533446	1.005429
C105	C	-0.000041	0.533418	0.703909
C106	C	-0.000042	0.533417	0.601578
C107	C	-0.000052	0.693408	1.005467
C108	C	-0.000057	0.747706	1.005482
C109	C	0.031204	0.470941	0.612360
C110	C	0.031209	0.470945	0.516205
C111	C	-0.031281	0.595905	0.398489
C112	C	-0.031283	0.595901	0.494643
C113	C	0.062445	0.408457	0.719294
C114	C	0.093693	0.345976	0.730081
C115	C	0.093698	0.345979	0.633926
C116	C	0.062456	0.408464	0.526984
C117	C	-0.000036	0.533424	1.306938
C118	C	-0.000035	0.533425	1.409269
C119	C	-0.000022	0.373436	1.306894
C120	C	-0.000016	0.319139	1.409210
C121	C	0.159958	0.373452	1.005384
C122	C	0.214260	0.319161	1.005370
C123	C	0.159961	0.373455	1.306898
C124	C	0.214263	0.319164	1.409216
C125	C	-0.160037	0.693386	0.703949
C126	C	-0.214339	0.747677	0.601631
C127	C	-0.000055	0.693405	0.703953
C128	C	-0.000060	0.747702	0.601637
C129	C	-0.160035	0.693389	1.005463
C130	C	-0.214336	0.747681	1.005476
C131	C	-0.031259	0.293636	1.398381
C132	C	-0.031266	0.242626	1.494509
C133	C	-0.000025	0.217115	1.601464
C134	C	0.031218	0.242623	1.612291
C135	C	0.031221	0.293636	1.516164
C136	C	0.271006	0.293669	1.064241
C137	C	0.322032	0.242663	1.064224
C138	C	0.316312	0.217147	1.005342
C139	C	0.259560	0.242643	0.946464
C140	C	0.208534	0.293652	0.946475
C141	C	0.208525	0.293666	1.516151
C142	C	0.259542	0.242661	1.612299
C143	C	0.316298	0.217152	1.601509
C144	C	0.322035	0.242656	1.494562
C145	C	0.271018	0.293663	1.398417
C146	C	-0.208601	0.773182	0.494695
C147	C	-0.259619	0.824203	0.398548
C148	C	-0.316374	0.849714	0.409338
C149	C	-0.322112	0.824207	0.516285
C150	C	-0.271094	0.773191	0.612430
C151	C	0.031177	0.773211	0.612465
C152	C	0.031170	0.824236	0.516338
C153	C	-0.000072	0.849748	0.409382
C154	C	-0.031314	0.824238	0.398556
C155	C	-0.031309	0.773217	0.494682
C156	C	-0.208596	0.773181	1.064370
C157	C	-0.259613	0.824187	1.064405
C158	C	-0.316369	0.849696	1.005538
C159	C	-0.322108	0.824190	0.946643
C160	C	-0.271092	0.773182	0.946616
H161	H	0.124315	-0.044632	1.239740
F162	F	0.370624	0.162858	1.005341
H163	H	0.275675	0.314439	1.112191
F164	F	0.148142	0.320774	0.883818
H165	H	0.254860	0.221901	1.699371
H166	H	-0.162392	0.752414	0.485888
F167	F	-0.253493	0.851326	1.127086
H168	H	-0.368326	0.844967	0.898716
F169	F	-0.148197	0.746042	1.127029
F170	F	-0.543119	0.724882	0.825028
F171	F	0.382444	0.215500	1.483096
H172	H	0.275699	0.314418	1.311349
H173	H	0.080147	0.234254	1.156416
F174	F	0.062439	0.408449	0.821635
H175	H	-0.275773	0.752425	0.898653
H176	H	-0.254936	0.844962	0.311477
H177	H	-0.056706	0.314407	1.311301
H178	H	0.080118	-0.235153	1.156536
H179	H	-0.357911	0.891255	0.331041
H180	H	-0.357905	0.891231	1.005570
F181	F	-0.064536	0.662395	0.483169
F182	F	-0.648422	0.724890	0.825055
F183	F	0.064466	0.215463	1.726130
H184	H	0.056666	0.314394	1.524997
F185	F	0.370591	0.162864	1.703846
H186	H	-0.368328	0.844986	0.525057
F187	F	-0.851892	0.662424	0.883920
F188	F	0.091163	-0.345124	1.177352
H189	H	-0.056750	0.845018	0.311460
H190	H	0.124311	-0.137180	1.239757
H191	H	-0.000032	0.175576	1.679728
F192	F	0.064430	0.746069	0.726287
F193	F	-0.000071	0.904049	0.307084
H194	H	0.254911	0.221860	0.898524
F195	F	0.091193	0.124259	1.177267
F196	F	-0.277211	0.746048	0.726236
H197	H	0.162316	0.314427	1.524958
H198	H	-0.056745	0.752450	0.485850
F199	F	-0.091228	0.411956	0.833480
H200	H	0.119133	0.295104	0.817156
H201	H	0.056613	0.844997	0.525175
H202	H	-0.080196	0.301984	0.854334
F203	F	-0.722896	0.404466	1.126927
F204	F	-0.456946	0.341964	1.185839
F205	F	0.062468	0.408464	0.424649
F206	F	-0.135450	0.221428	0.750306
H207	H	0.368237	0.221910	1.112174
F208	F	0.126960	0.279483	0.645408
H209	H	-0.080205	-0.074844	0.854387
F210	F	-0.135457	0.116116	0.750348
H211	H	-0.275741	0.646757	0.898612
F212	F	-0.091266	-0.162750	0.833618
F213	F	-0.746572	0.662423	0.883909
F214	F	-0.382487	0.662394	0.883910
H215	H	-0.631777	0.420079	1.112230
H216	H	-0.365831	0.357585	1.171120
H217	H	-0.162377	0.420045	1.112205
F218	F	-0.064530	0.662401	0.284676
F219	F	-0.253511	0.404426	1.126930
F220	F	-0.064519	0.215485	1.482963
