data_functionalizedCrystal
_audit_creation_method	'MofGen! by Chris Wilmer'
_symmetry_space_group_name_H-M	'P1'
_symmetry_Int_Tables_number	1
_symmetry_cell_setting	triclinic
loop_
_symmetry_equiv_pos_as_xyz
  x,y,z
_cell_length_a	8.497374
_cell_length_b	8.497365
_cell_length_c	22.394823
_cell_angle_alpha	90.038771
_cell_angle_beta	89.994641
_cell_angle_gamma	90.037770
loop_
_atom_site_label
_atom_site_type_symbol
_atom_site_fract_x
_atom_site_fract_y
_atom_site_fract_z
Zn1	Zn	0.627931	-0.892369	-0.915292
Zn2	Zn	0.891875	-0.628634	-0.915234
Zn3	Zn	0.628073	-0.628567	-0.815166
Zn4	Zn	0.891634	-0.892337	-0.815206
O5	O	0.759878	-0.760477	-0.865225
O6	O	0.662986	-0.857425	-0.999049
O7	O	0.857041	-0.407863	-0.901918
O8	O	0.407292	-0.663546	-0.828456
O9	O	0.856904	-0.663660	-0.999006
O10	O	0.407188	-0.857360	-0.902018
O11	O	0.663227	-0.407814	-0.828400
O12	O	0.662993	-0.663516	-0.731407
O13	O	0.856493	-1.113104	-0.828524
O14	O	0.856630	-0.857307	-0.731436
O15	O	0.662752	-1.113127	-0.902057
O16	O	1.112605	-0.663630	-0.901957
O17	O	1.112428	-0.857371	-0.828467
C18	C	0.759802	-0.760401	-0.709702
C19	C	0.759807	-0.760407	-0.643169
C20	C	0.759769	-0.760417	-0.521355
C21	C	0.759786	-0.760407	-0.589141
C22	C	1.169758	-0.760500	-0.865217
C23	C	1.348402	-0.760474	-0.865233
C24	C	0.759766	-0.760441	-0.400789
C25	C	0.759769	-0.760429	-0.467322
C26	C	0.760050	-0.350597	-0.865181
C27	C	0.759726	-0.171953	-0.865267
C28	C	0.759951	-0.760564	-1.021354
C29	C	0.759982	-0.760595	-1.089138
Zn30	Zn	0.891479	-0.628281	-0.195203
Zn31	Zn	0.628354	-0.892833	-0.195254
Zn32	Zn	0.627652	-0.629027	-0.295242
Zn33	Zn	0.892029	-0.891978	-0.295368
O34	O	0.759878	-0.760530	-0.245267
O35	O	0.856639	-0.663420	-0.111445
O36	O	0.407499	-0.858508	-0.208485
O37	O	0.662125	-0.408166	-0.281897
O38	O	0.663322	-0.857785	-0.111482
O39	O	0.855958	-0.407619	-0.208399
O40	O	0.406983	-0.664691	-0.281946
O41	O	0.662658	-0.663862	-0.379023
O42	O	1.112718	-0.856328	-0.282113
O43	O	0.856895	-0.857051	-0.379116
O44	O	1.112314	-0.662592	-0.208522
O45	O	0.663855	-1.113481	-0.208608
O46	O	0.857576	-1.112853	-0.282162
C47	C	0.761201	-1.349048	-0.245447
C48	C	0.760840	-1.170404	-0.245407
C49	C	1.171358	-0.759268	-0.245325
C50	C	1.350001	-0.758722	-0.245352
