data_functionalizedCrystal
_audit_creation_method	'MofGen! by Chris Wilmer'
_symmetry_space_group_name_H-M	'P1'
_symmetry_Int_Tables_number	1
_symmetry_cell_setting	triclinic
loop_
_symmetry_equiv_pos_as_xyz
  x,y,z
_cell_length_a	16.625546
_cell_length_b	15.297475
_cell_length_c	15.296720
_cell_angle_alpha	91.617114
_cell_angle_beta	80.357530
_cell_angle_gamma	99.675296
loop_
_atom_site_label
_atom_site_type_symbol
_atom_site_fract_x
_atom_site_fract_y
_atom_site_fract_z
Zn1	Zn	-0.627523	-1.253404	0.726565
Zn2	Zn	-0.127523	-0.753404	1.226565
Zn3	Zn	-0.743625	-1.278668	0.580074
Zn4	Zn	-0.243625	-0.778668	1.080074
Zn5	Zn	-0.582227	-1.132282	0.554808
Zn6	Zn	-0.082227	-0.632282	1.054808
Zn7	Zn	-0.735700	-1.106894	0.701203
Zn8	Zn	-0.235700	-0.606894	1.201203
O9	O	-0.672269	-1.192812	0.640662
O10	O	-0.172269	-0.692812	1.140662
O11	O	-0.665198	-1.379334	0.728320
O12	O	-0.165198	-0.879334	1.228320
O13	O	-0.706576	-1.280447	0.454149
O14	O	-0.206576	-0.780447	0.954149
O15	O	-0.475417	-1.148401	0.577632
O16	O	0.024583	-0.648401	1.077632
O17	O	-0.750498	-1.397894	0.620694
O18	O	-0.250498	-0.897894	1.120694
O19	O	-0.508696	-1.237389	0.703821
O20	O	-0.008696	-0.737389	1.203821
O21	O	-0.587997	-1.172898	0.435586
O22	O	-0.087997	-0.672898	0.935586
O23	O	-0.580312	-1.006336	0.553039
O24	O	-0.080312	-0.506336	1.053039
O25	O	-0.736989	-1.105131	0.827141
O26	O	-0.236989	-0.605131	1.327141
O27	O	-0.693068	-0.987683	0.660595
O28	O	-0.193068	-0.487683	1.160595
O29	O	-0.657513	-1.212772	0.845774
O30	O	-0.157513	-0.712772	1.345774
O31	O	-0.855392	-1.255829	0.596102
O32	O	-0.355392	-0.755829	1.096102
O33	O	-0.849569	-1.129628	0.685095
O34	O	-0.349569	-0.629628	1.185095
C35	C	-0.630915	-0.965226	0.601324
C36	C	-0.130915	-0.465226	1.101324
C37	C	-0.613246	-0.867861	0.584516
C38	C	-0.113246	-0.367861	1.084516
C39	C	-0.881740	-1.192735	0.640611
C40	C	-0.381740	-0.692735	1.140611
C41	C	-0.971371	-1.192778	0.640633
C42	C	-0.471371	-0.692778	1.140633
C43	C	-0.701420	-1.153301	0.869128
C44	C	-0.201420	-0.653301	1.369128
C45	C	-0.713842	-1.136464	0.966487
C46	C	-0.213842	-0.636464	1.466487
C47	C	-1.299586	-1.192915	0.640750
C48	C	-0.799586	-0.692915	1.140750
C49	C	-1.208266	-1.192873	0.640720
C50	C	-0.708266	-0.692873	1.140720
C51	C	-1.135481	-1.192845	0.640691
C52	C	-0.635481	-0.692845	1.140691
C53	C	-1.044156	-1.192805	0.640661
C54	C	-0.544156	-0.692805	1.140661
C55	C	-0.461986	-1.192909	0.640737
C56	C	0.038014	-0.692909	1.140737
C57	C	-0.372377	-1.192951	0.640769
C58	C	0.127623	-0.692951	1.140769
C59	C	-0.713785	-1.421286	0.680155
C60	C	-0.213785	-0.921286	1.180155
C61	C	-0.731476	-1.518648	0.696984
C62	C	-0.231476	-1.018648	1.196984
C63	C	-0.798559	-0.554716	0.760796
C64	C	-0.298559	-0.054716	1.260796
C65	C	-0.815166	-0.646196	0.776586
C66	C	-0.315166	-0.146196	1.276586
C67	C	-0.764687	-0.701616	0.728570
C68	C	-0.264687	-0.201616	1.228570
C69	C	-0.697599	-0.665548	0.664761
C70	C	-0.197599	-0.165548	1.164761
C71	C	-0.680995	-0.574060	0.648965
C72	C	-0.180995	-0.074060	1.148965
C73	C	-0.647123	-0.720961	0.616739
C74	C	-0.147123	-0.220961	1.116739
C75	C	-0.580034	-0.684892	0.552930
C76	C	-0.080034	-0.184892	1.052930
C77	C	-0.563433	-0.593412	0.537137
C78	C	-0.063433	-0.093412	1.037137
C79	C	-0.613911	-0.537992	0.585153
C80	C	-0.113911	-0.037992	1.085153
C81	C	-0.663727	-0.812449	0.632535
C82	C	-0.163727	-0.312449	1.132535
C83	C	-0.546163	-0.831793	0.520704
C84	C	-0.046163	-0.331793	1.020704
C85	C	-0.529556	-0.740313	0.504914
C86	C	-0.029556	-0.240313	1.004914
C87	C	-0.643182	-1.232219	0.413094
C88	C	-0.143182	-0.732219	0.913094
C89	C	-0.630564	-1.249226	0.315765
C90	C	-0.130564	-0.749226	0.815765
C91	C	-0.583349	-1.313182	1.279731
C92	C	-0.083349	-0.813182	1.779731
C93	C	-0.571680	-1.329006	1.188259
C94	C	-0.071680	-0.829006	1.688259
C95	C	-0.607219	-1.280872	1.132811
C96	C	-0.107219	-0.780872	1.632811
C97	C	-0.654430	-1.216911	1.168845
C98	C	-0.154430	-0.716911	1.668845
C99	C	-0.666105	-1.201089	1.260327
C100	C	-0.166105	-0.701089	1.760327
C101	C	-0.689976	-1.168779	1.113407
C102	C	-0.189976	-0.668779	1.613407
C103	C	-0.737187	-1.104818	1.149441
C104	C	-0.237187	-0.604818	1.649441
C105	C	-0.748860	-1.088999	1.240914
C106	C	-0.248860	-0.588999	1.740914
C107	C	-0.713320	-1.137133	1.296362
C108	C	-0.213320	-0.637133	1.796362
C109	C	-0.678300	-1.184601	1.021925
C110	C	-0.178300	-0.684601	1.521925
C111	C	-0.761057	-1.072508	1.002521
C112	C	-0.261057	-0.572508	1.502521
C113	C	-0.772726	-1.056684	1.093994
C114	C	-0.272726	-0.556684	1.593994
H115	H	-0.718351	-0.841806	0.684489
H116	H	-0.218351	-0.341806	1.184489
Br117	Br	-0.906213	-0.695141	0.863176
Br118	Br	-0.406213	-0.195141	1.363176
Br119	Br	-0.438509	-0.691351	0.418321
Br120	Br	0.061491	-0.191351	0.918321
Br121	Br	-0.591369	-0.413833	0.563734
Br122	Br	-0.091369	0.086167	1.063734
Br123	Br	-0.867076	-0.479505	0.825929
Br124	Br	-0.367076	0.020495	1.325929
H125	H	-0.597715	-1.293761	1.058331
H126	H	-0.097715	-0.793761	1.558331
H127	H	-0.639860	-1.236678	0.992596
H128	H	-0.139860	-0.736678	1.492596
H129	H	-0.533243	-1.381086	1.158927
H130	H	-0.033243	-0.881086	1.658927
H131	H	-0.554423	-1.352371	1.324884
H132	H	-0.054423	-0.852371	1.824884
Br133	Br	-0.787225	-0.825770	0.750001
Br134	Br	-0.287225	-0.325770	1.250001
Br135	Br	-0.472392	-0.544465	0.450530
Br136	Br	0.027608	-0.044465	0.950530
Br137	Br	-0.477657	-0.907000	0.455528
Br138	Br	0.022343	-0.407000	0.955528
Br139	Br	-0.729159	-1.115662	1.420509
Br140	Br	-0.229159	-0.615662	1.920509
Br141	Br	-0.812952	-1.002212	1.289819
Br142	Br	-0.312952	-0.502212	1.789819
H143	H	-0.811165	-1.004605	1.123345
H144	H	-0.311165	-0.504605	1.623345
Br145	Br	-0.809300	-1.007187	0.927280
Br146	Br	-0.309300	-0.507187	1.427280
