data_functionalizedCrystal
_audit_creation_method	'MofGen! by Chris Wilmer'
_symmetry_space_group_name_H-M	'P1'
_symmetry_Int_Tables_number	1
_symmetry_cell_setting	triclinic
loop_
_symmetry_equiv_pos_as_xyz
  x,y,z
_cell_length_a	12.759401
_cell_length_b	16.120484
_cell_length_c	16.120256
_cell_angle_alpha	84.383827
_cell_angle_beta	87.118528
_cell_angle_gamma	92.925560
loop_
_atom_site_label
_atom_site_type_symbol
_atom_site_fract_x
_atom_site_fract_y
_atom_site_fract_z
Zn1	Zn	1.552086	-0.356756	0.489390
Zn2	Zn	1.551954	-0.489442	0.356699
Zn3	Zn	1.385776	-0.349689	0.349642
Zn4	Zn	1.366964	-0.496488	0.496431
O5	O	1.464195	-0.423094	0.423040
O6	O	1.699088	-0.374366	0.471795
O7	O	1.537727	-0.464997	0.238800
O8	O	1.415765	-0.233661	0.362280
O9	O	1.698991	-0.471850	0.374308
O10	O	1.537952	-0.238853	0.464952
O11	O	1.415637	-0.362321	0.233615
O12	O	1.236260	-0.369153	0.369107
O13	O	1.383704	-0.483859	0.612459
O14	O	1.222440	-0.477006	0.476952
O15	O	1.519712	-0.381199	0.607286
O16	O	1.519487	-0.607342	0.381135
O17	O	1.383576	-0.612519	0.483795
C18	C	1.191229	-0.423078	0.423028
C19	C	1.074451	-0.423092	0.423044
C20	C	1.012420	-0.479332	0.479115
C21	C	0.902695	-0.479343	0.479124
C22	C	0.917041	-0.366871	0.366985
C23	C	1.026764	-0.366857	0.366980
C24	C	1.004136	-0.544269	0.543855
C25	C	0.894411	-0.544280	0.543865
C26	C	1.449503	-0.640259	0.434013
C27	C	1.443312	-0.733165	0.438735
C28	C	1.432013	-0.903265	0.447374
C29	C	1.496563	-0.942082	0.398720
C30	C	1.490277	-1.036732	0.403527
C31	C	1.438298	-0.808607	0.442569
C32	C	1.738226	-0.423110	0.423053
C33	C	1.855002	-0.423117	0.423058
C34	C	1.449624	-0.434103	0.641048
C35	C	1.443415	-0.438795	0.733950
C36	C	1.478972	-0.205081	0.412043
C37	C	1.485269	-0.112177	0.407357
C38	C	1.478773	-0.412067	0.205878
C39	C	1.485202	-0.407140	0.112964
C40	C	1.496575	-0.398606	0.942874
C41	C	1.432046	-0.447326	0.904035
C42	C	1.438373	-0.442578	0.809391
C43	C	1.490248	-0.403353	1.037526
H44	H	1.556547	-0.904230	0.353457
H45	H	1.372043	-0.492597	0.941865
H46	H	1.035575	-0.604544	0.523668
C47	C	1.093932	-0.305750	0.306019
C48	C	1.028682	-0.256522	0.256911
C49	C	1.090519	-0.200224	0.200737
H50	H	1.137064	-0.270920	0.336123
H51	H	1.136999	-0.335791	0.271107
H52	H	0.985633	-0.226484	0.291818
H53	H	0.985550	-0.291329	0.226788
H54	H	1.133586	-0.230265	0.165826
H55	H	1.133649	-0.165400	0.230848
H56	H	1.046257	-0.166822	0.167405
C57	C	0.865066	-0.305920	0.306146
C58	C	0.755698	-0.317982	0.318136
C59	C	0.707788	-0.261857	0.262096
H60	H	0.885894	-0.250361	0.315574
H61	H	0.885917	-0.315237	0.250564
H62	H	0.734856	-0.308658	0.373705
H63	H	0.734840	-0.373529	0.308702
H64	H	0.728638	-0.271175	0.206513
H65	H	0.728624	-0.206302	0.271528
H66	H	0.633577	-0.270039	0.270218
C67	C	1.039437	-0.525588	0.629083
C68	C	0.951335	-0.514175	0.681223
C69	C	0.983814	-0.496953	0.759735
H70	H	1.076347	-0.570966	0.652863
H71	H	1.084311	-0.476254	0.623193
H72	H	0.906477	-0.563503	0.687116
H73	H	0.914414	-0.468794	0.657471
H74	H	1.028688	-0.447619	0.753844
H75	H	1.020724	-0.542334	0.783506
H76	H	0.924043	-0.489200	0.795119
C77	C	0.850627	-0.629429	0.524909
C78	C	0.933541	-0.681502	0.513304
C79	C	0.893249	-0.759940	0.495831
H80	H	0.804880	-0.653355	0.570234
H81	H	0.812811	-0.623388	0.475589
H82	H	0.971339	-0.687546	0.562618
H83	H	0.979295	-0.657604	0.467978
H84	H	0.855433	-0.753899	0.446512
H85	H	0.847502	-0.783857	0.541159
H86	H	0.949499	-0.795279	0.487948
H87	H	0.857835	-0.524305	0.604234
C88	C	1.352063	-0.953875	0.507636
C89	C	1.361623	-1.039049	0.500453
C90	C	1.287979	-1.085705	0.555941
H91	H	1.364471	-0.942526	0.563136
H92	H	1.283207	-0.939103	0.494635
H93	H	1.430463	-1.053816	0.513459
H94	H	1.349205	-1.050423	0.444966
H95	H	1.219123	-1.070933	0.542940
H96	H	1.300393	-1.074350	0.611437
H97	H	1.294449	-1.143500	0.551070
H98	H	1.556568	-0.353334	0.905046
