data_functionalizedCrystal
_audit_creation_method	'MofGen! by Chris Wilmer'
_symmetry_space_group_name_H-M	'P1'
_symmetry_Int_Tables_number	1
_symmetry_cell_setting	triclinic
loop_
_symmetry_equiv_pos_as_xyz
  x,y,z
_cell_length_a	9.065215
_cell_length_b	14.044220
_cell_length_c	8.140239
_cell_angle_alpha	89.995422
_cell_angle_beta	89.997810
_cell_angle_gamma	89.101787
loop_
_atom_site_label
_atom_site_type_symbol
_atom_site_fract_x
_atom_site_fract_y
_atom_site_fract_z
O1	O	1.975819	0.139128	-0.136600
O2	O	1.547799	0.150544	-0.136608
O3	O	1.755384	0.006796	-0.136588
O4	O	1.768233	0.282875	-0.136620
O5	O	1.755371	0.006794	0.136640
O6	O	1.547786	0.150542	0.136619
O7	O	1.975806	0.139126	0.136627
Zn8	Zn	1.761794	0.144834	0.180004
Zn9	Zn	1.761811	0.144836	-0.179984
O10	O	1.768221	0.282874	0.136607
C11	C	1.492684	0.149446	0.000005
C12	C	1.328478	0.146168	0.000003
C13	C	1.749753	-0.028568	0.000027
C14	C	1.732976	-0.133937	0.000028
C15	C	1.702304	-0.326862	0.000004
C16	C	1.821294	-0.383474	0.000001
C17	C	1.804227	-0.490824	-0.000012
C18	C	1.719368	-0.219502	0.000018
C19	C	2.030921	0.140223	0.000011
C20	C	2.195127	0.143502	0.000003
C21	C	1.773851	0.318237	-0.000010
C22	C	1.790628	0.423607	-0.000023
N23	N	1.761793	0.144832	0.425687
N24	N	1.761822	0.144831	-0.425667
H25	H	1.935981	-0.351319	-0.000107
N26	N	1.550394	-0.369444	-0.000001
H27	H	1.559585	-0.441208	-0.000005
H28	H	1.494995	-0.347769	0.101295
