data_functionalizedCrystal
_audit_creation_method	'MofGen! by Chris Wilmer'
_symmetry_space_group_name_H-M	'P1'
_symmetry_Int_Tables_number	1
_symmetry_cell_setting	triclinic
loop_
_symmetry_equiv_pos_as_xyz
  x,y,z
_cell_length_a	17.699097
_cell_length_b	10.268362
_cell_length_c	17.699083
_cell_angle_alpha	89.997763
_cell_angle_beta	96.714278
_cell_angle_gamma	90.008200
loop_
_atom_site_label
_atom_site_type_symbol
_atom_site_fract_x
_atom_site_fract_y
_atom_site_fract_z
O1	O	1.004070	0.108411	-0.095755
O2	O	0.783693	0.108390	-0.108197
O3	O	0.900108	0.108390	0.008213
O4	O	0.887655	0.108411	-0.212165
O5	O	0.900097	-0.108211	0.008209
O6	O	0.783682	-0.108210	-0.108201
O7	O	1.004059	-0.108190	-0.095759
Cu8	Cu	0.893869	-0.127977	-0.101981
Cu9	Cu	0.893883	0.128178	-0.101976
O10	O	0.887644	-0.108189	-0.212169
C11	C	0.755491	0.000087	-0.107752
C12	C	0.671473	0.000079	-0.106409
C13	C	0.155761	0.118200	-0.098177
C14	C	0.234705	0.118193	-0.099434
C15	C	0.274165	0.000119	-0.100065
C16	C	0.234678	-0.117957	-0.099433
C17	C	0.155736	-0.117949	-0.098171
C18	C	0.553042	-0.117990	-0.104520
C19	C	0.631989	-0.117989	-0.105784
C20	C	0.632011	0.118152	-0.105783
C21	C	0.553069	0.118159	-0.104521
C22	C	0.513589	0.000085	-0.103885
C23	C	0.427989	0.000093	-0.102521
C24	C	0.359763	0.000109	-0.101434
N25	N	0.893866	-0.308143	-0.101983
C26	C	0.893871	-0.425986	-0.101984
C27	C	0.893881	-0.573824	-0.101977
C28	C	1.032261	0.000116	-0.096205
C29	C	1.116279	0.000133	-0.097547
C30	C	0.899656	0.000089	0.036408
C31	C	0.898317	0.000088	0.120426
N32	N	0.893892	0.308344	-0.101967
C33	C	0.888096	0.000114	-0.240364
C34	C	0.889435	0.000123	-0.324382
C35	C	0.966650	0.000093	0.169044
C36	C	0.965388	0.000104	0.247987
C37	C	0.895792	0.000102	0.278311
C38	C	0.827454	0.000101	0.229687
C39	C	0.828717	0.000099	0.150745
C40	C	0.822359	0.000111	0.548050
C41	C	0.821101	0.000110	0.626998
C42	C	0.959030	0.000117	0.645292
C43	C	0.960293	0.000115	0.566350
C44	C	0.891955	0.000121	0.517733
C45	C	0.893325	0.000111	0.432134
C46	C	0.894422	0.000102	0.363909
H47	H	0.520944	0.214308	-0.104011
N48	N	0.758924	0.000105	0.101068
N49	N	0.744252	0.091409	0.054976
H50	H	0.694960	0.091420	0.019890
N51	N	0.750013	0.000104	0.657988
N52	N	0.733917	-0.091201	0.700000
H53	H	0.683715	-0.091208	0.721889
N54	N	0.512733	-0.238608	-0.103868
N55	N	0.547977	-0.344018	-0.104433
H56	H	0.519506	-0.429211	-0.103973
H57	H	1.021032	0.000105	0.287569
N58	N	1.037736	0.000110	0.138060
N59	N	1.038857	0.000111	0.067576
H60	H	1.089063	0.000127	0.045694
N61	N	0.672298	-0.238604	-0.106443
N62	N	0.656401	-0.317659	-0.159633
H63	H	0.684870	-0.402838	-0.160102
N64	N	0.756356	0.000075	0.260647
N65	N	0.695349	0.000061	0.217227
H66	H	0.645133	0.000033	0.239090
H67	H	0.766714	0.000116	0.508475
H68	H	0.266848	0.214335	-0.099942
H69	H	0.266813	-0.214095	-0.099942
H70	H	1.016965	0.000110	0.541665
N71	N	1.028838	0.000096	0.694954
N72	N	1.043515	-0.091208	0.741047
H73	H	1.092816	-0.091229	0.776119
N74	N	0.115468	0.238824	-0.097539
N75	N	0.150733	0.344231	-0.098101
H76	H	0.122279	0.429427	-0.097648
N77	N	0.115414	-0.238564	-0.097538
N78	N	0.117148	-0.317619	-0.151010
H79	H	0.088673	-0.402808	-0.150560
N80	N	0.672352	0.238755	-0.106431
N81	N	0.742835	0.238741	-0.107555
H82	H	0.771326	0.323914	-0.108014
