data_functionalizedCrystal
_audit_creation_method	'MofGen! by Chris Wilmer'
_symmetry_space_group_name_H-M	'P1'
_symmetry_Int_Tables_number	1
_symmetry_cell_setting	triclinic
loop_
_symmetry_equiv_pos_as_xyz
  x,y,z
_cell_length_a	11.169417
_cell_length_b	12.827892
_cell_length_c	11.169409
_cell_angle_alpha	89.966972
_cell_angle_beta	89.979436
_cell_angle_gamma	90.016270
loop_
_atom_site_label
_atom_site_type_symbol
_atom_site_fract_x
_atom_site_fract_y
_atom_site_fract_z
Zn1	Zn	1.834929	-0.415925	-0.678536
Zn2	Zn	2.168262	-0.082591	-0.345203
Zn3	Zn	2.501596	0.250742	-0.011870
Zn4	Zn	1.834798	-0.590712	-0.477851
Zn5	Zn	2.168131	-0.257378	-0.144517
Zn6	Zn	2.501465	0.075955	0.188816
Zn7	Zn	1.634212	-0.415988	-0.477871
Zn8	Zn	1.967546	-0.082655	-0.144538
Zn9	Zn	2.300879	0.250679	0.188796
Zn10	Zn	1.634205	-0.590627	-0.678496
Zn11	Zn	1.967538	-0.257294	-0.345162
Zn12	Zn	2.300871	0.076040	-0.011829
O13	O	1.734536	-0.503313	-0.578188
O14	O	2.067869	-0.169979	-0.244855
O15	O	2.401203	0.163354	0.088478
O16	O	2.002861	-0.439119	-0.651924
O17	O	2.336195	-0.105786	-0.318590
O18	O	2.669528	0.227547	0.014743
O19	O	1.808138	-0.567596	-0.309904
O20	O	2.141472	-0.234263	0.023430
O21	O	2.474805	0.099070	0.356763
O22	O	1.660896	-0.269744	-0.504515
O23	O	1.994229	0.063590	-0.171182
O24	O	2.327562	0.396923	0.162152
O25	O	2.002765	-0.567535	-0.504481
O26	O	2.336098	-0.234201	-0.171148
O27	O	2.669432	0.099132	0.162186
O28	O	1.808361	-0.269697	-0.651943
O29	O	2.141695	0.063636	-0.318610
O30	O	2.475028	0.396970	0.014723
O31	O	1.660769	-0.439228	-0.309918
O32	O	1.994102	-0.105894	0.023415
O33	O	2.327435	0.227439	0.356748
O34	O	1.466262	-0.439145	-0.504475
O35	O	1.799595	-0.105812	-0.171142
O36	O	2.132928	0.227521	0.162191
O37	O	1.660883	-0.567390	-0.846451
O38	O	1.994216	-0.234057	-0.513118
O39	O	2.327549	0.099277	-0.179784
O40	O	1.466256	-0.567452	-0.651874
O41	O	1.799589	-0.234118	-0.318540
O42	O	2.132923	0.099215	0.014793
O43	O	1.808354	-0.439037	-0.846481
O44	O	2.141687	-0.105704	-0.513148
O45	O	2.475021	0.227630	-0.179814
O46	O	1.808131	-0.736937	-0.504441
O47	O	2.141464	-0.403603	-0.171108
O48	O	2.474798	-0.070270	0.162225
O49	O	1.660756	-0.736874	-0.651854
O50	O	1.994089	-0.403541	-0.318521
O51	O	2.327422	-0.070208	0.014812
C52	C	1.422711	-0.503297	-0.578173
C53	C	1.756045	-0.169964	-0.244840
C54	C	2.089378	0.163370	0.088494
C55	C	1.289311	-0.503315	-0.578195
C56	C	1.622645	-0.169982	-0.244862
C57	C	1.955978	0.163351	0.088472
C58	C	1.734461	-0.774823	-0.578167
C59	C	2.067794	-0.441489	-0.244834
C60	C	2.401128	-0.108156	0.088499
C61	C	1.734539	-0.890976	-0.578198
C62	C	2.067872	-0.557642	-0.244865
C63	C	2.401205	-0.224309	0.088468
C64	C	1.807551	-0.942757	-0.505335
C65	C	2.140884	-0.609423	-0.172001
C66	C	2.474218	-0.276090	0.161332
C67	C	1.807633	-1.062807	-0.505365
C68	C	2.140966	-0.729474	-0.172032
C69	C	2.474300	-0.396140	0.161301
C70	C	2.047578	-0.503329	-0.578205
C71	C	2.380912	-0.169996	-0.244871
C72	C	2.714245	0.163337	0.088462
C73	C	2.180978	-0.503337	-0.578212
C74	C	2.514312	-0.170003	-0.244878
C75	C	2.847645	0.163330	0.088455
C76	C	1.734632	-0.503197	-0.891231
C77	C	2.067965	-0.169864	-0.557898
C78	C	2.401299	0.163470	-0.224564
C79	C	1.734673	-0.503148	-1.024631
C80	C	2.068006	-0.169814	-0.691298
C81	C	2.401340	0.163519	-0.357964
C82	C	1.734644	-0.230743	-0.578236
C83	C	2.067977	0.102591	-0.244903
C84	C	2.401311	0.435924	0.088431
C85	C	1.734690	-0.114589	-0.578256
C86	C	2.068023	0.218744	-0.244923
C87	C	2.401357	0.552077	0.088410
C88	C	1.734509	-0.503353	-0.266364
C89	C	2.067843	-0.170019	0.066970
C90	C	2.401176	0.163314	0.400303
C91	C	1.734701	-0.503108	-0.132964
C92	C	2.068034	-0.169774	0.200369
C93	C	2.401367	0.163559	0.533702
H94	H	1.870005	-0.898214	-0.442935
H95	H	2.203338	-0.564881	-0.109601
H96	H	2.536671	-0.231547	0.223732
Br97	Br	1.911815	-1.137020	-0.401376
Br98	Br	2.245148	-0.803687	-0.068042
Br99	Br	2.578482	-0.470353	0.265291
Br100	Br	1.630458	-0.965209	-0.682225
Br101	Br	1.963791	-0.631876	-0.348892
Br102	Br	2.297125	-0.298543	-0.015559
H103	H	1.672173	-1.070067	-0.640637
H104	H	2.005506	-0.736733	-0.307303
H105	H	2.338840	-0.403400	0.026030
