data_functionalizedCrystal
_audit_creation_method	'MofGen! by Chris Wilmer'
_symmetry_space_group_name_H-M	'P1'
_symmetry_Int_Tables_number	1
_symmetry_cell_setting	triclinic
loop_
_symmetry_equiv_pos_as_xyz
  x,y,z
_cell_length_a	16.120530
_cell_length_b	12.827892
_cell_length_c	12.827885
_cell_angle_alpha	90.029976
_cell_angle_beta	92.918515
_cell_angle_gamma	87.111094
loop_
_atom_site_label
_atom_site_type_symbol
_atom_site_fract_x
_atom_site_fract_y
_atom_site_fract_z
Zn1	Zn	1.274617	-0.497098	0.671823
Zn2	Zn	1.774617	0.002902	1.171823
Zn3	Zn	1.274533	-0.671870	0.497078
Zn4	Zn	1.774533	-0.171870	0.997078
Zn5	Zn	1.135195	-0.488277	0.488240
Zn6	Zn	1.635195	0.011723	0.988240
Zn7	Zn	1.135183	-0.662925	0.662925
Zn8	Zn	1.635183	-0.162925	1.162925
O9	O	1.204882	-0.580043	0.580016
O10	O	1.704882	-0.080043	1.080016
O11	O	1.391273	-0.527718	0.656066
O12	O	1.891273	-0.027718	1.156066
O13	O	1.256019	-0.647568	0.349667
O14	O	1.756019	-0.147568	0.849667
O15	O	1.153730	-0.343213	0.512618
O16	O	1.653730	0.156787	1.012618
O17	O	1.391211	-0.656122	0.527681
O18	O	1.891211	-0.156122	1.027681
O19	O	1.256163	-0.349695	0.647496
O20	O	1.756163	0.150305	1.147496
O21	O	1.153648	-0.512683	0.343174
O22	O	1.653648	-0.012683	0.843174
O23	O	1.018527	-0.504008	0.503989
O24	O	1.518527	-0.004008	1.003989
O25	O	1.153710	-0.640876	0.810343
O26	O	1.653710	-0.140876	1.310343
O27	O	1.018518	-0.632321	0.632330
O28	O	1.518518	-0.132321	1.132330
O29	O	1.256151	-0.519044	0.816881
O30	O	1.756151	-0.019044	1.316881
O31	O	1.256007	-0.816917	0.519052
O32	O	1.756007	-0.316917	1.019052
O33	O	1.153628	-0.810345	0.640900
O34	O	1.653628	-0.310345	1.140900
C35	C	0.988272	-0.566238	0.566235
C36	C	1.488272	-0.066238	1.066235
C37	C	0.895605	-0.560357	0.560364
C38	C	1.395605	-0.060357	1.060364
C39	C	1.204830	-0.851549	0.579994
C40	C	1.704830	-0.351549	1.079994
C41	C	1.204884	-0.967706	0.580024
C42	C	1.704884	-0.467706	1.080024
C43	C	1.154325	-1.136419	0.513286
C44	C	1.654325	-0.636419	1.013286
C45	C	1.154268	-1.016365	0.513253
C46	C	1.654268	-0.516365	1.013253
C47	C	0.725942	-0.549596	0.549655
C48	C	1.225942	-0.049596	1.049655
C49	C	0.684662	-0.610566	0.610454
C50	C	1.184662	-0.110566	1.110454
C51	C	0.590256	-0.604579	0.604495
C52	C	1.090256	-0.104579	1.104495
C53	C	0.820357	-0.555582	0.555612
C54	C	1.320357	-0.055582	1.055612
C55	C	1.422338	-0.593902	0.593852
C56	C	1.922338	-0.093902	1.093852
C57	C	1.515005	-0.599808	0.599748
C58	C	2.015005	-0.099808	1.099748
C59	C	1.204939	-0.579946	0.852590
C60	C	1.704939	-0.079946	1.352590
C61	C	1.204963	-0.579905	0.968745
C62	C	1.704963	-0.079905	1.468745
C63	C	1.204957	-0.307477	0.580063
C64	C	1.704957	0.192523	1.080063
C65	C	1.204989	-0.191326	0.580084
C66	C	1.704989	0.308674	1.080084
C67	C	1.204873	-0.580067	0.308506
C68	C	1.704873	-0.080067	0.808506
C69	C	1.205011	-0.579824	0.192362
C70	C	1.705011	-0.079824	0.692362
C71	C	1.255660	-0.519606	1.023765
C72	C	1.755660	-0.019606	1.523765
C73	C	1.255686	-0.519562	1.143817
C74	C	1.755686	-0.019562	1.643817
H75	H	1.110988	-1.178290	0.456126
H76	H	1.610988	-0.678290	0.956126
F77	F	1.261627	-1.136602	0.654809
F78	F	1.761627	-0.636602	1.154809
H79	H	0.720223	-0.667260	0.666983
H80	H	1.220223	-0.167260	1.166983
F81	F	0.679465	-0.475497	0.475774
F82	F	1.179465	0.024503	0.975774
H83	H	1.299041	-0.468011	0.981992
H84	H	1.799041	0.031989	1.481992
F85	F	1.097575	-0.954666	0.438496
F86	F	1.597575	-0.454666	0.938496
H87	H	1.161574	-0.631488	1.010518
H88	H	1.661574	-0.131488	1.510518
H89	H	1.299092	-0.467942	1.191121
H90	H	1.799092	0.032058	1.691121
F91	F	1.261588	-1.029398	0.654774
F92	F	1.761588	-0.529398	1.154774
F93	F	1.148279	-0.647311	1.130543
F94	F	1.648279	-0.147311	1.630543
