data_functionalizedCrystal
_audit_creation_method	'MofGen! by Chris Wilmer'
_symmetry_space_group_name_H-M	'P1'
_symmetry_Int_Tables_number	1
_symmetry_cell_setting	triclinic
loop_
_symmetry_equiv_pos_as_xyz
  x,y,z
_cell_length_a	17.038272
_cell_length_b	15.538191
_cell_length_c	14.750779
_cell_angle_alpha	97.572172
_cell_angle_beta	76.426773
_cell_angle_gamma	69.191825
loop_
_atom_site_label
_atom_site_type_symbol
_atom_site_fract_x
_atom_site_fract_y
_atom_site_fract_z
O1	O	-0.226027	1.211348	-0.079834
O2	O	-0.137757	0.944163	-0.079834
O3	O	-0.295259	1.076169	-0.079826
O4	O	-0.068524	1.079341	-0.079842
O5	O	-0.339779	1.113486	0.079826
O6	O	-0.182277	0.981480	0.079818
O7	O	-0.270547	1.248665	0.079819
Zn8	Zn	-0.233481	1.120997	0.105167
Zn9	Zn	-0.174823	1.071830	-0.105182
O10	O	-0.113045	1.116658	0.079811
C11	C	-0.150782	0.928466	-0.000008
C12	C	-0.123272	0.826097	-0.000008
C13	C	-0.345828	1.091939	-0.000000
C14	C	-0.430177	1.083321	-0.000001
C15	C	-0.396569	0.516405	-0.000005
C16	C	-0.370700	0.420212	-0.000007
C17	C	-0.225194	0.409427	-0.000017
C18	C	-0.251052	0.505622	-0.000010
C19	C	-0.336740	0.559104	-0.000005
C20	C	-0.191224	0.548321	-0.000010
C21	C	-0.217079	0.644507	-0.000007
C22	C	-0.302762	0.697994	-0.000005
C23	C	-0.362595	0.655290	-0.000003
C24	C	-0.105535	0.494837	-0.000021
C25	C	-0.045706	0.537536	-0.000021
C26	C	-0.071563	0.633725	-0.000012
C27	C	-0.157246	0.687212	-0.000010
C28	C	-0.011730	0.676429	-0.000015
C29	C	-0.037585	0.772615	-0.000013
C30	C	-0.183101	0.783398	-0.000008
C31	C	-0.502729	1.162445	0.000001
C32	C	-0.581979	1.154339	-0.000008
C33	C	-0.588678	1.067111	-0.000012
C34	C	-0.516117	0.987981	-0.000016
C35	C	-0.436867	0.996085	-0.000014
C36	C	-0.826313	1.038479	-0.000025
C37	C	-0.905573	1.030381	-0.000025
C38	C	-0.971428	1.196740	-0.000019
C39	C	-0.892175	1.204838	-0.000011
C40	C	-0.819621	1.125706	-0.000020
C41	C	-0.669684	1.058825	-0.000018
C42	C	-0.738614	1.133992	-0.000020
C43	C	-0.062475	1.100888	-0.000017
C44	C	0.021876	1.109505	-0.000023
C45	C	-0.257522	1.264361	-0.000009
C46	C	-0.285029	1.366729	-0.000016
N47	N	-0.273515	1.154558	0.248725
N48	N	-0.134797	1.038276	-0.248740
C49	C	-0.023020	0.944540	0.600530
C50	C	-0.051070	0.968065	0.701031
C51	C	-0.190507	1.084986	0.701000
C52	C	-0.162470	1.061467	0.600498
C53	C	-0.078725	0.991244	0.550271
C54	C	-0.218176	1.108172	0.550238
C55	C	-0.190139	1.084658	0.449744
C56	C	-0.106396	1.014440	0.399510
C57	C	-0.050688	0.967731	0.449777
C58	C	-0.301918	1.178399	0.600467
C59	C	-0.357624	1.225103	0.550208
C60	C	-0.329589	1.201585	0.449712
C61	C	-0.245847	1.131367	0.399478
C62	C	-0.385297	1.248294	0.399446
C63	C	-0.357260	1.224781	0.298952
C64	C	-0.217810	1.107854	0.298984
H65	H	-0.323808	0.776312	-0.000017
H66	H	-0.377793	0.931654	-0.000015
H67	H	-0.149620	1.050665	0.258087
O68	O	-0.332155	1.203765	0.708858
H69	H	-0.399739	1.260451	0.735341
O70	O	-0.495513	1.256531	0.000005
H71	H	-0.428219	1.248879	0.000015
O72	O	-0.132781	0.351735	-0.000014
H73	H	-0.084703	0.352394	-0.065087
H74	H	-0.641051	1.218771	-0.000005
H75	H	-0.402621	1.262814	0.258030
O76	O	-0.076156	0.989068	0.291119
H77	H	-0.076027	1.052646	0.264596
O78	O	-0.475613	1.324041	0.453630
H79	H	-0.509637	1.352575	0.401797
H80	H	0.017502	0.910542	0.408880
H81	H	-0.258692	1.142164	0.741907
O82	O	0.067306	0.868798	0.546342
H83	H	0.101337	0.840270	0.598172
H84	H	-0.252878	0.826947	0.000001
O85	O	0.009012	0.917683	0.755244
H86	H	0.071951	0.864900	0.703431
H87	H	-0.675148	0.987804	-0.000019
O88	O	-0.077650	0.391094	-0.000018
H89	H	-0.008014	0.361075	-0.000033
H90	H	0.024062	0.493977	-0.000029
H91	H	-0.425809	1.282282	0.591114
O92	O	-0.884962	1.298925	-0.000016
H93	H	-0.868591	1.321815	0.065062
H94	H	-0.432372	0.698839	0.000007
O95	O	-0.731396	1.228073	-0.000021
H96	H	-0.715017	1.250952	0.065055
O97	O	-0.748075	0.953128	-0.000022
H98	H	-0.692243	0.937616	-0.065098
O99	O	-0.435235	0.374155	0.000002
H100	H	-0.499162	0.427509	0.000013
O101	O	-0.488990	0.574102	0.000003
H102	H	-0.526253	0.528253	-0.000000
O103	O	0.080687	0.618745	-0.000016
H104	H	0.088612	0.544688	-0.000013
H105	H	0.011131	0.807383	-0.000004
O106	O	-1.049679	1.282086	-0.000015
H107	H	-1.105912	1.261799	-0.000024
H108	H	-0.911023	0.959349	-0.000012
H109	H	-0.521575	0.916956	-0.000025
