data_functionalizedCrystal
_audit_creation_method	'MofGen! by Chris Wilmer'
_symmetry_space_group_name_H-M	'P1'
_symmetry_Int_Tables_number	1
_symmetry_cell_setting	triclinic
loop_
_symmetry_equiv_pos_as_xyz
  x,y,z
_cell_length_a	10.654550
_cell_length_b	9.482900
_cell_length_c	10.654551
_cell_angle_alpha	80.573021
_cell_angle_beta	84.485180
_cell_angle_gamma	99.377450
loop_
_atom_site_label
_atom_site_type_symbol
_atom_site_fract_x
_atom_site_fract_y
_atom_site_fract_z
O1	O	1.687227	0.120780	0.156923
O2	O	1.321753	0.120806	0.173725
O3	O	1.512891	0.120789	-0.017414
O4	O	1.496088	0.120797	0.348063
O5	O	1.474068	-0.121000	0.021568
O6	O	1.282929	-0.120983	0.212707
O7	O	1.648404	-0.121009	0.195905
Cu8	Cu	1.462122	-0.143073	0.207866
Cu9	Cu	1.508035	0.142870	0.161765
O10	O	1.457265	-0.120992	0.387045
C11	C	1.255544	-0.000085	0.191982
C12	C	1.116102	-0.000075	0.188288
N13	N	1.429838	-0.344191	0.240290
C14	C	1.036617	-0.000077	0.300830
C15	C	0.905592	-0.000102	0.297358
C16	C	0.933551	-0.000118	0.068791
C17	C	1.064572	-0.000103	0.072266
C18	C	1.498504	-0.416396	0.171322
C19	C	1.471652	-0.583811	0.198309
C20	C	1.714613	-0.000115	0.177648
C21	C	1.854056	-0.000116	0.181340
C22	C	1.492246	-0.000103	-0.044722
C23	C	1.488555	-0.000096	-0.184166
N24	N	1.540328	0.343987	0.129331
C25	C	1.507984	0.131705	-0.270919
C26	C	1.504504	0.131706	-0.401940
C27	C	1.462169	-0.131906	-0.359441
C28	C	1.465640	-0.131905	-0.228422
C29	C	1.477911	-0.000097	0.414352
C30	C	1.481604	-0.000095	0.553794
H31	H	1.078566	-0.000065	0.395304
H32	H	0.840878	-0.000107	0.389001
H33	H	1.526639	0.239032	-0.234890
H34	H	1.618994	-0.593895	0.050296
C35	C	1.323568	-0.428102	0.347049
H36	H	1.319468	-0.529616	0.351188
H37	H	1.243537	-0.403243	0.328888
H38	H	1.342153	-0.403226	0.426948
H39	H	0.891578	-0.000149	-0.025669
H40	H	1.443515	-0.239220	-0.395492
C41	C	1.444270	-0.276893	-0.132988
H42	H	1.430144	-0.355394	-0.178110
H43	H	1.371637	-0.282363	-0.072054
H44	H	1.517862	-0.282374	-0.089937
H45	H	1.392977	-0.645929	0.277335
H46	H	1.577165	-0.354275	0.092292
C47	C	1.152013	-0.000095	-0.051537
H48	H	1.102564	-0.000092	-0.121136
H49	H	1.190180	-0.084405	-0.041336
H50	H	1.217231	0.084240	-0.068524
H51	H	1.520324	0.239032	-0.472570
