data_functionalizedCrystal
_audit_creation_method	'MofGen! by Chris Wilmer'
_symmetry_space_group_name_H-M	'P1'
_symmetry_Int_Tables_number	1
_symmetry_cell_setting	triclinic
loop_
_symmetry_equiv_pos_as_xyz
  x,y,z
_cell_length_a	29.019771
_cell_length_b	29.019011
_cell_length_c	29.015668
_cell_angle_alpha	60.004890
_cell_angle_beta	60.009825
_cell_angle_gamma	59.993818
loop_
_atom_site_label
_atom_site_type_symbol
_atom_site_fract_x
_atom_site_fract_y
_atom_site_fract_z
O1	O	0.063866	-0.673289	0.563007
O2	O	0.563866	-0.173289	1.063007
O3	O	0.024059	-0.524205	0.453633
O4	O	0.524059	-0.024205	0.953633
O5	O	0.118464	-0.618532	0.453552
O6	O	0.618464	-0.118532	0.953552
O7	O	-0.030540	-0.578962	0.563088
O8	O	0.469460	-0.078962	1.063088
O9	O	0.149785	-0.587215	0.484789
O10	O	0.649785	-0.087215	0.984789
O11	O	0.055379	-0.492888	0.484869
O12	O	0.555379	0.007112	0.984869
O13	O	0.095186	-0.641972	0.594244
O14	O	0.595186	-0.141972	1.094244
Cu15	Cu	0.078143	-0.564571	0.542409
Cu16	Cu	0.578143	-0.064571	1.042409
Cu17	Cu	0.041102	-0.601606	0.505468
Cu18	Cu	0.541102	-0.101606	1.005468
O19	O	0.000781	-0.547645	0.594325
O20	O	0.500781	-0.047645	1.094325
N21	N	0.104196	-0.538525	0.568394
N22	N	0.604196	-0.038525	1.068394
N23	N	0.015054	-0.627656	0.479483
N24	N	0.515054	-0.127656	0.979483
C25	C	0.143783	-0.499167	0.850823
C26	C	0.643783	0.000833	1.350823
C27	C	0.386758	-0.499111	0.607645
C28	C	0.886758	0.000889	1.107645
C29	C	0.143618	-0.499136	0.607763
C30	C	0.643618	0.000864	1.107763
C31	C	0.143598	-0.256029	0.607770
C32	C	0.643598	0.243971	1.107770
C33	C	0.182748	-0.373362	0.646852
C34	C	0.682748	0.126638	1.146852
C35	C	0.182758	-0.460025	0.646847
C36	C	0.682758	0.039975	1.146847
C37	C	0.204440	-0.438361	0.668500
C38	C	0.704440	0.061639	1.168500
C39	C	0.298958	-0.422064	0.618723
C40	C	0.798958	0.077936	1.118723
C41	C	0.358043	-0.441753	0.599006
C42	C	0.858043	0.058247	1.099006
C43	C	0.358069	-0.537354	0.635461
C44	C	0.858069	-0.037354	1.135461
C45	C	0.298985	-0.517664	0.655180
C46	C	0.798985	-0.017664	1.155180
C47	C	0.196983	-0.343808	0.588767
C48	C	0.696983	0.156192	1.088767
C49	C	0.177262	-0.284720	0.569090
C50	C	0.677262	0.215280	1.069090
C51	C	0.129075	-0.284743	0.665586
C52	C	0.629075	0.215257	1.165586
C53	C	0.148797	-0.343831	0.685263
C54	C	0.648797	0.156169	1.185263
C55	C	0.124666	-0.445760	0.661149
C56	C	0.624666	0.054240	1.161149
C57	C	0.104961	-0.465454	0.641458
C58	C	0.604961	0.034546	1.141458
C59	C	0.201435	-0.513678	0.593176
C60	C	0.701435	-0.013678	1.093176
C61	C	0.221143	-0.493984	0.612860
C62	C	0.721143	0.006016	1.112860
C63	C	0.124738	-0.445777	0.763064
C64	C	0.624738	0.054223	1.263064
C65	C	0.105085	-0.465488	0.822151
C66	C	0.605085	0.034512	1.322151
C67	C	0.201594	-0.513722	0.822097
C68	C	0.701594	-0.013722	1.322097
C69	C	0.221247	-0.494012	0.763009
C70	C	0.721247	0.005988	1.263009
C71	C	0.182817	-0.460038	0.733494
C72	C	0.682817	0.039962	1.233494
C73	C	0.269432	-0.460018	0.646809
C74	C	0.769432	0.039982	1.146809
C75	C	0.121399	-0.520450	0.915812
C76	C	0.621399	-0.020450	1.415812
C77	C	0.451745	-0.520012	0.585655
C78	C	0.951745	-0.020012	1.085655
C79	C	0.121177	-0.520429	0.586502
C80	C	0.621177	-0.020429	1.086502
C81	C	0.121544	-0.191035	0.586883
C82	C	0.621544	0.308965	1.086883
C83	C	-0.110592	-0.666601	0.440035
C84	C	0.389408	-0.166601	0.940035
C85	C	-0.023978	-0.666709	0.440231
C86	C	0.476022	-0.166709	0.940231
C87	C	-0.045598	-0.688342	0.418486
C88	C	0.454402	-0.188342	0.918486
C89	C	-0.061967	-0.782825	0.468184
C90	C	0.438033	-0.282825	0.968184
C91	C	-0.042323	-0.841914	0.487907
C92	C	0.457677	-0.341914	0.987907
C93	C	0.053280	-0.842025	0.451623
C94	C	0.553280	-0.342025	0.951623
C95	C	0.033634	-0.782937	0.431899
C96	C	0.533634	-0.282937	0.931899
C97	C	-0.140218	-0.680832	0.498102
C98	C	0.359782	-0.180832	0.998102
C99	C	-0.199302	-0.661065	0.517690
C100	C	0.300698	-0.161065	1.017690
C101	C	-0.199129	-0.612843	0.421140
C102	C	0.300871	-0.112843	0.921140
C103	C	-0.140045	-0.632610	0.401552
C104	C	0.359955	-0.132610	0.901552
C105	C	-0.038209	-0.608622	0.425941
C106	C	0.461791	-0.108622	0.925941
C107	C	-0.018555	-0.588961	0.445716
C108	C	0.481445	-0.088961	0.945716
C109	C	0.029562	-0.685470	0.494059
C110	C	0.529562	-0.185470	0.994059
C111	C	0.009908	-0.705133	0.474291
C112	C	0.509908	-0.205133	0.974291
C113	C	-0.038037	-0.608631	0.323917
C114	C	0.461963	-0.108631	0.823917
C115	C	-0.018247	-0.588973	0.264830
C116	C	0.481753	-0.088973	0.764830
C117	C	0.029955	-0.685489	0.264893
C118	C	0.529955	-0.185489	0.764893
C119	C	0.010165	-0.705145	0.323981
C120	C	0.510165	-0.205145	0.823981
C121	C	-0.023833	-0.666715	0.353492
C122	C	0.476167	-0.166715	0.853492
C123	C	-0.023990	-0.753339	0.440182
C124	C	0.476010	-0.253339	0.940182
N125	N	0.504925	-0.538487	0.568205
N126	N	1.004925	-0.038487	1.068205
O127	O	0.685342	-0.543679	0.433426
O128	O	1.185342	-0.043679	0.933426
O129	O	0.685533	-0.653395	0.582361
O130	O	1.185533	-0.153395	1.082361
O131	O	0.685457	-0.653145	0.487904
O132	O	1.185457	-0.153145	0.987904
O133	O	0.685418	-0.543929	0.527882
O134	O	1.185418	-0.043929	1.027882
O135	O	0.591592	-0.621921	0.519268
O136	O	1.091592	-0.121921	1.019268
O137	O	0.591667	-0.622171	0.613725
O138	O	1.091667	-0.122171	1.113725
O139	O	0.591477	-0.512455	0.464790
O140	O	1.091477	-0.012455	0.964790
Cu141	Cu	0.583001	-0.564462	0.542121
Cu142	Cu	1.083001	-0.064462	1.042121
Cu143	Cu	0.694008	-0.601388	0.505029
Cu144	Cu	1.194008	-0.101388	1.005029
O145	O	0.591553	-0.512705	0.559246
O146	O	1.091553	-0.012705	1.059246
N147	N	0.772084	-0.627363	0.478939
N148	N	1.272084	-0.127363	0.978939
N149	N	0.104168	-0.137853	0.568408
N150	N	0.604168	0.362147	1.068408
O151	O	-0.030538	0.042663	0.563097
O152	O	0.469462	0.542663	1.063097
O153	O	0.118403	0.042683	0.453379
O154	O	0.618403	0.542683	0.953379
O155	O	0.023918	0.042657	0.453664
O156	O	0.523918	0.542657	0.953664
O157	O	0.063947	0.042689	0.562813
O158	O	0.563947	0.542689	1.062813
O159	O	0.055242	-0.051215	0.484950
O160	O	0.555242	0.448785	0.984950
O161	O	0.149727	-0.051189	0.484666
O162	O	0.649727	0.448811	0.984666
O163	O	0.000787	-0.051210	0.594384
O164	O	0.500787	0.448790	1.094384
Cu165	Cu	0.078117	-0.059771	0.542381
Cu166	Cu	0.578117	0.440229	1.042381
Cu167	Cu	0.041072	0.051244	0.505382
Cu168	Cu	0.541072	0.551244	1.005382
O169	O	0.095272	-0.051184	0.594099
O170	O	0.595272	0.448816	1.094099
N171	N	0.015015	0.129326	0.479356
N172	N	0.515015	0.629326	0.979356
N173	N	0.104469	-0.538576	0.968995
N174	N	0.604469	-0.038576	1.468995
O175	O	0.099171	-0.673268	1.149499
O176	O	0.599171	-0.173268	1.649499
O177	O	-0.010519	-0.524279	1.149527
O178	O	0.489481	-0.024279	1.649527
O179	O	-0.010265	-0.618748	1.149494
O180	O	0.489735	-0.118748	1.649494
O181	O	0.098916	-0.578799	1.149533
O182	O	0.598916	-0.078799	1.649533
O183	O	0.021008	-0.587443	1.055625
O184	O	0.521008	-0.087443	1.555625
O185	O	0.020753	-0.492974	1.055659
O186	O	0.520753	0.007026	1.555659
O187	O	0.130444	-0.641963	1.055630
O188	O	0.630444	-0.141963	1.555630
Cu189	Cu	0.078454	-0.564610	1.047074
Cu190	Cu	0.578454	-0.064610	1.547074
Cu191	Cu	0.041470	-0.601632	1.158084
Cu192	Cu	0.541470	-0.101632	1.658084
O193	O	0.130189	-0.547494	1.055664
O194	O	0.630189	-0.047494	1.555664
N195	N	0.015455	-0.627672	1.236163
N196	N	0.515455	-0.127672	1.736163
C197	C	0.035988	-0.489761	0.454182
C198	C	0.535988	0.010239	0.954182
C199	C	0.152897	-0.606574	0.454082
C200	C	0.652897	-0.106574	0.954082
C201	C	0.083257	-0.676417	0.593694
C202	C	0.583257	-0.176417	1.093694
C203	C	-0.033653	-0.559604	0.593794
C204	C	0.466347	-0.059604	1.093794
C205	C	0.638623	-0.652892	0.616806
C206	C	1.138623	-0.152892	1.116806
C207	C	0.638531	-0.652583	0.499833
C208	C	1.138531	-0.152583	0.999833
C209	C	0.638384	-0.512957	0.430345
C210	C	1.138384	-0.012957	0.930345
C211	C	0.638480	-0.513267	0.547317
C212	C	1.138480	-0.013267	1.047317
C213	C	0.152789	-0.004135	0.453875
C214	C	0.652789	0.495865	0.953875
C215	C	0.035820	-0.004282	0.454266
C216	C	0.535820	0.495718	0.954266
C217	C	-0.033639	-0.004275	0.593849
C218	C	0.466361	0.495725	1.093849
C219	C	0.083370	-0.004245	0.593498
C220	C	0.583370	0.495755	1.093498
C221	C	-0.009989	-0.489856	1.102597
C222	C	0.490011	0.010144	1.602597
C223	C	-0.009667	-0.606839	1.102536
C224	C	0.490333	-0.106839	1.602536
C225	C	0.129914	-0.676386	1.102561
C226	C	0.629914	-0.176386	1.602561
C227	C	0.129599	-0.559396	1.102601
C228	C	0.629599	-0.059396	1.602601
H229	H	0.057789	-0.453866	0.846219
H230	H	0.557789	0.046134	1.346219
O231	O	0.170468	-0.549101	1.102581
O232	O	0.670468	-0.049101	1.602581
C233	C	0.149905	-0.493623	1.102609
C234	C	0.649905	0.006377	1.602609
H235	H	0.113669	-0.466914	1.084841
H236	H	0.613669	0.033086	1.584841
H237	H	0.134171	-0.494457	1.147647
H238	H	0.634171	0.005543	1.647647
C239	C	0.242152	-0.500779	1.087627
C240	C	0.742152	-0.000779	1.587627
C241	C	0.197649	-0.467973	1.065799
C242	C	0.697649	0.032027	1.565799
H243	H	0.271602	-0.484957	1.064923
H244	H	0.771602	0.015043	1.564923
H245	H	0.256005	-0.538156	1.087610
H246	H	0.756005	-0.038156	1.587610
H247	H	0.229033	-0.501471	1.125158
H248	H	0.729033	-0.001471	1.625158
H249	H	0.210767	-0.467287	1.028272
H250	H	0.710767	0.032713	1.528272
H251	H	0.183799	-0.430594	1.065809
H252	H	0.683799	0.069406	1.565809
O253	O	0.638572	-0.693587	0.489716
O254	O	1.138572	-0.193587	0.989716
C255	C	0.638626	-0.742301	0.538173
C256	C	1.138626	-0.242301	1.038173
H257	H	0.656420	-0.741811	0.565108
H258	H	1.156420	-0.241811	1.065108
H259	H	0.593612	-0.743008	0.563675
H260	H	1.093612	-0.243008	1.063675
C261	C	0.653602	-0.795824	0.487189
C262	C	1.153602	-0.295824	0.987189
C263	C	0.675461	-0.795224	0.520269
C264	C	1.175461	-0.295224	1.020269
H265	H	0.676321	-0.828470	0.476146
H266	H	1.176321	-0.328470	0.976146
H267	H	0.653563	-0.763004	0.454543
H268	H	1.153563	-0.263004	0.954543
H269	H	0.616090	-0.796411	0.508445
H270	H	1.116090	-0.296411	1.008445
H271	H	0.712969	-0.794629	0.499011
H272	H	1.212969	-0.294629	0.999011
H273	H	0.675507	-0.828045	0.552911
H274	H	1.175507	-0.328045	1.052911
H275	H	0.638322	-0.478510	0.387573
H276	H	1.138322	0.021490	0.887573
H277	H	-0.043953	-0.615372	1.102487
H278	H	0.456047	-0.115372	1.602487
O279	O	0.171052	-0.727389	1.102451
O280	O	0.671052	-0.227389	1.602451
C281	C	0.218607	-0.719947	1.053847
C282	C	0.718607	-0.219947	1.553847
H283	H	0.204998	-0.678614	1.019874
H284	H	0.704998	-0.178614	1.519874
H285	H	0.250463	-0.718651	1.064849
H286	H	0.750463	-0.218651	1.564849
C287	C	0.262619	-0.820167	1.073512
C288	C	0.762619	-0.320167	1.573512
C289	C	0.245903	-0.769404	1.031784
C290	C	0.745903	-0.269404	1.531784
H291	H	0.279458	-0.850675	1.059904
H292	H	0.779458	-0.350675	1.559904
H293	H	0.230581	-0.825182	1.106259
H294	H	0.730581	-0.325182	1.606259
H295	H	0.289162	-0.819080	1.082677
H296	H	0.789162	-0.319080	1.582677
H297	H	0.219355	-0.770489	1.022625
H298	H	0.719355	-0.270489	1.522625
H299	H	0.277937	-0.764391	0.999035
H300	H	0.777937	-0.264391	1.499035
H301	H	0.638471	-0.478960	0.555871
H302	H	1.138471	0.021040	1.055871
O303	O	0.203761	-0.003892	0.412749
O304	O	0.703761	0.496108	0.912749
C305	C	0.246523	-0.052402	0.431810
C306	C	0.746523	0.447598	0.931810
H307	H	0.231157	-0.068793	0.479917
H308	H	0.731157	0.431207	0.979917
H309	H	0.257216	-0.086393	0.415655
H310	H	0.757216	0.413607	0.915655
C311	C	0.318418	-0.017201	0.350383
C312	C	0.818418	0.482799	0.850383
C313	C	0.299547	-0.037330	0.409469
C314	C	0.799547	0.462670	0.909469
H315	H	0.351126	-0.007906	0.336600
H316	H	0.851126	0.492094	0.836600
H317	H	0.289609	0.015480	0.337539
H318	H	0.789609	0.515480	0.837539
H319	H	0.327324	-0.045530	0.336928
H320	H	0.827324	0.454470	0.836928
H321	H	0.290634	-0.008999	0.422922
H322	H	0.790634	0.491001	0.922922
H323	H	0.328356	-0.070006	0.422314
H324	H	0.828356	0.429994	0.922314
O325	O	0.087329	-0.412800	0.734481
O326	O	0.587329	0.087200	1.234481
C327	C	0.031851	-0.404425	0.773250
C328	C	0.531851	0.095575	1.273250
H329	H	0.031988	-0.440053	0.815361
H330	H	0.531988	0.059947	1.315361
H331	H	0.014923	-0.362335	0.779543
H332	H	0.514923	0.137665	1.279543
C333	C	-0.006236	-0.360245	0.698495
C334	C	0.493764	0.139755	1.198495
C335	C	-0.006068	-0.404007	0.750214
C336	C	0.493932	0.095993	1.250214
H337	H	-0.029628	-0.359985	0.684285
H338	H	0.470372	0.140015	1.184285
H339	H	0.031140	-0.365886	0.672375
H340	H	0.531140	0.134114	1.172375
H341	H	-0.020341	-0.325174	0.703746
H342	H	0.479659	0.174826	1.203746
H343	H	0.008044	-0.439077	0.744962
H344	H	0.508044	0.060923	1.244962
H345	H	-0.043443	-0.398373	0.776333
H346	H	0.456557	0.101627	1.276333
H347	H	0.027485	-0.446933	0.419832
H348	H	0.527485	0.053067	0.919832
H349	H	0.027247	-0.004286	0.419974
H350	H	0.527247	0.495714	0.919974
O351	O	-0.071142	-0.571220	0.392886
O352	O	0.428858	-0.071220	0.892886
C353	C	-0.079479	-0.515735	0.384507
C354	C	0.420521	-0.015735	0.884507
H355	H	-0.072943	-0.515847	0.420179
H356	H	0.427057	-0.015847	0.920179
H357	H	-0.047975	-0.498852	0.342458
H358	H	0.452025	0.001148	0.842458
C359	C	-0.148000	-0.477643	0.340158
C360	C	0.352000	0.022357	0.840158
C361	C	-0.139977	-0.477780	0.383973
C362	C	0.360023	0.022220	0.883973
H363	H	-0.185317	-0.454230	0.339825
H364	H	0.314683	0.045770	0.839825
H365	H	-0.142382	-0.515024	0.345800
H366	H	0.357618	-0.015024	0.845800
H367	H	-0.121742	-0.463575	0.305121
H368	H	0.378258	0.036425	0.805121
H369	H	-0.166229	-0.491855	0.419009
H370	H	0.333771	0.008145	0.919009
H371	H	-0.145601	-0.440401	0.378336
H372	H	0.354399	0.059599	0.878336
O373	O	-0.084709	-0.004247	0.634871
O374	O	0.415291	0.495753	1.134871
C375	C	-0.119846	-0.004270	0.614574
C376	C	0.380154	0.495730	1.114574
H377	H	-0.104577	0.013490	0.566497
H378	H	0.395423	0.513490	1.066497
H379	H	-0.118320	-0.049307	0.628936
H380	H	0.381680	0.450693	1.128936
C381	C	-0.199669	0.010738	0.696997
C382	C	0.300331	0.510738	1.196997
C383	C	-0.180918	0.032556	0.637948
C384	C	0.319082	0.532556	1.137948
H385	H	-0.237341	0.033451	0.711416
H386	H	0.262659	0.533451	1.211416
H387	H	-0.175997	0.010752	0.710672
H388	H	0.324003	0.510752	1.210672
H389	H	-0.198393	-0.026792	0.708957
H390	H	0.301607	0.473208	1.208957
H391	H	-0.182188	0.070082	0.625989
H392	H	0.317812	0.570082	1.125989
H393	H	-0.204592	0.032549	0.624271
H394	H	0.295408	0.532549	1.124271
H395	H	0.195693	-0.615009	0.419684
H396	H	0.695693	-0.115009	0.919684
H397	H	-0.030145	-0.541661	0.434082
H398	H	0.469855	-0.041661	0.934082
H399	H	0.091761	-0.719242	0.628046
H400	H	0.591761	-0.219242	1.128046
H401	H	-0.076451	-0.551170	0.628189
H402	H	0.423549	-0.051170	1.128189
H403	H	0.091941	-0.004235	0.627787
H404	H	0.591941	0.495765	1.127787
O405	O	-0.051006	-0.438762	1.102531
O406	O	0.448994	0.061238	1.602531
C407	C	-0.031722	-0.396213	1.053918
C408	C	0.468278	0.103787	1.553918
H409	H	0.016385	-0.411743	1.037711
H410	H	0.516385	0.088257	1.537711
H411	H	-0.047734	-0.385657	1.019870
H412	H	0.452266	0.114343	1.519870
C413	C	-0.113101	-0.323942	1.088607
C414	C	0.386899	0.176058	1.588607
C415	C	-0.054014	-0.343015	1.068704
C416	C	0.445986	0.156985	1.568704
H417	H	-0.126854	-0.291126	1.097726
H418	H	0.373146	0.208874	1.597726
H419	H	-0.126094	-0.352608	1.121357
H420	H	0.373906	0.147392	1.621357
H421	H	-0.126437	-0.315150	1.060230
H422	H	0.373563	0.184850	1.560230
H423	H	-0.040680	-0.351814	1.097083
H424	H	0.459320	0.148186	1.597083
H425	H	-0.041019	-0.314349	1.035959
H426	H	0.458981	0.185651	1.535959
O427	O	0.238948	-0.546794	0.850738
O428	O	0.738948	-0.046794	1.350738
C429	C	0.273125	-0.596337	0.836269
C430	C	0.773125	-0.096337	1.336269
H431	H	0.250298	-0.604559	0.820044
H432	H	0.750298	-0.104559	1.320044
H433	H	0.314616	-0.590953	0.801952
H434	H	0.814616	-0.090953	1.301952
C435	C	0.313282	-0.636520	0.908663
C436	C	0.813282	-0.136520	1.408663
C437	C	0.285243	-0.646622	0.888740
C438	C	0.785243	-0.146622	1.388740
H439	H	0.320760	-0.667539	0.941029
H440	H	0.820760	-0.167539	1.441029
H441	H	0.290258	-0.603142	0.918410
H442	H	0.790258	-0.103142	1.418410
H443	H	0.347855	-0.632033	0.880061
H444	H	0.847855	-0.132033	1.380061
H445	H	0.250668	-0.651102	0.917340
H446	H	0.750668	-0.151102	1.417340
H447	H	0.308261	-0.680003	0.878999
H448	H	0.808261	-0.180003	1.378999
O449	O	0.048544	-0.451702	0.655371
O450	O	0.548544	0.048298	1.155371
C451	C	0.034294	-0.501356	0.685121
C452	C	0.534294	-0.001356	1.185121
H453	H	0.073237	-0.538475	0.674441
H454	H	0.573237	-0.038475	1.174441
H455	H	0.018103	-0.509670	0.732412
H456	H	0.518103	-0.009670	1.232412
C457	C	-0.059840	-0.448635	0.681281
C458	C	0.440160	0.051365	1.181281
C459	C	-0.012010	-0.494224	0.668159
C460	C	0.487990	0.005776	1.168159
H461	H	-0.088404	-0.444235	0.670820
H462	H	0.411596	0.055765	1.170820
H463	H	-0.050240	-0.415181	0.661239
H464	H	0.449760	0.084819	1.161239
H465	H	-0.073325	-0.455569	0.720690
H466	H	0.426675	0.044431	1.220690
H467	H	0.001479	-0.487286	0.628750
H468	H	0.501479	0.012714	1.128750
H469	H	-0.021608	-0.527676	0.688194
H470	H	0.478392	-0.027676	1.188194
H471	H	0.268542	-0.505632	0.738936
H472	H	0.768542	-0.005632	1.238936
H473	H	0.188851	-0.260656	0.521790
H474	H	0.688851	0.239344	1.021790
O475	O	0.238753	-0.546579	0.560082
O476	O	0.738753	-0.046579	1.060082
C477	C	0.272889	-0.516728	0.510535
C478	C	0.772889	-0.016728	1.010535
H479	H	0.250050	-0.469457	0.502340
H480	H	0.750050	0.030543	1.002340
H481	H	0.314406	-0.529298	0.515891
H482	H	0.814406	-0.029298	1.015891
C483	C	0.312997	-0.589051	0.470315
C484	C	0.812997	-0.089051	0.970315
C485	C	0.284944	-0.530992	0.460246
C486	C	0.784944	-0.030992	0.960246
H487	H	0.320435	-0.597851	0.439294
H488	H	0.820435	-0.097851	0.939294
H489	H	0.290000	-0.609164	0.503696
H490	H	0.790000	-0.109164	1.003696
H491	H	0.347591	-0.599519	0.474779
H492	H	0.847591	-0.099519	0.974779
H493	H	0.250347	-0.520526	0.455790
H494	H	0.750347	-0.020526	0.955790
H495	H	0.307934	-0.510878	0.426863
H496	H	0.807934	-0.010878	0.926863
O497	O	0.270328	-0.554544	0.682370
O498	O	0.770328	-0.054544	1.182370
C499	C	0.284756	-0.582219	0.646213
C500	C	0.784756	-0.082219	1.146213
H501	H	0.300969	-0.555312	0.600472
H502	H	0.800969	-0.055312	1.100472
H503	H	0.319067	-0.624860	0.655724
H504	H	0.819067	-0.124860	1.155724
C505	C	0.212352	-0.624243	0.711839
C506	C	0.712352	-0.124243	1.211839
C507	C	0.232261	-0.591193	0.655659
C508	C	0.732261	-0.091193	1.155659
H509	H	0.179972	-0.629782	0.717667
H510	H	0.679972	-0.129782	1.217667
H511	H	0.202633	-0.605600	0.736200
H512	H	0.702633	-0.105600	1.236200
H513	H	0.240950	-0.659774	0.719758
H514	H	0.740950	-0.159774	1.219758
H515	H	0.203666	-0.555661	0.647743
H516	H	0.703666	-0.055661	1.147743
H517	H	0.241975	-0.609831	0.631297
H518	H	0.741975	-0.109831	1.131297
O519	O	0.386868	-0.593331	0.643521
O520	O	0.886868	-0.093331	1.143521
C521	C	0.445349	-0.602572	0.620107
C522	C	0.945349	-0.102572	1.120107
H523	H	0.453395	-0.561906	0.586238
H524	H	0.953395	-0.061906	1.086238
H525	H	0.462141	-0.616189	0.654680
H526	H	0.962141	-0.116189	1.154680
C527	C	0.465793	-0.699154	0.635178
C528	C	0.965793	-0.199154	1.135178
C529	C	0.475676	-0.649208	0.593577
C530	C	0.975676	-0.149208	1.093577
H531	H	0.484502	-0.727923	0.618815
H532	H	0.984502	-0.227923	1.118815
H533	H	0.426394	-0.692929	0.650954
H534	H	0.926394	-0.192929	1.150954
H535	H	0.479787	-0.710493	0.663985
H536	H	0.979787	-0.210493	1.163985
H537	H	0.461676	-0.637866	0.564774
H538	H	0.961676	-0.137866	1.064774
H539	H	0.515074	-0.655432	0.577795
H540	H	1.015074	-0.155432	1.077795
O541	O	0.386699	-0.404848	0.571637
O542	O	0.886699	0.095152	1.071637
C543	C	0.372215	-0.364729	0.522943
C544	C	0.872215	0.135271	1.022943
H545	H	0.355962	-0.382937	0.509375
H546	H	0.855962	0.117063	1.009375
H547	H	0.337916	-0.324901	0.532615
H548	H	0.837916	0.175099	1.032615
C549	C	0.444642	-0.327745	0.491683
C550	C	0.944642	0.172255	0.991683
C551	C	0.424684	-0.350111	0.475015
C552	C	0.924684	0.149889	0.975015
H553	H	0.477006	-0.318725	0.462119
H554	H	0.977006	0.181275	0.962119
H555	H	0.454399	-0.354772	0.524490
H556	H	0.954399	0.145228	1.024490
H557	H	0.416055	-0.294557	0.499742
H558	H	0.916055	0.205443	0.999742
H559	H	0.453268	-0.383301	0.466963
H560	H	0.953268	0.116699	0.966963
H561	H	0.414932	-0.323088	0.442205
H562	H	0.914932	0.176912	0.942205
O563	O	0.229934	-0.372409	0.551381
O564	O	0.729934	0.127591	1.051381
C565	C	0.238274	-0.333651	0.495892
C566	C	0.738274	0.166349	0.995892
H567	H	0.202642	-0.291536	0.496019
H568	H	0.702642	0.208464	0.996019
H569	H	0.280361	-0.327358	0.478942
H570	H	0.780361	0.172642	0.978942
C571	C	0.282427	-0.408431	0.457852
C572	C	0.782427	0.091569	0.957852
C573	C	0.238661	-0.356706	0.458006
C574	C	0.738661	0.143294	0.958006
H575	H	0.282669	-0.422653	0.434481
H576	H	0.782669	0.077347	0.934481
H577	H	0.276811	-0.434544	0.495236
H578	H	0.776811	0.065456	0.995236
H579	H	0.317495	-0.403180	0.443728
H580	H	0.817495	0.096820	0.943728
H581	H	0.203594	-0.361959	0.472137
H582	H	0.703594	0.138041	0.972137
H583	H	0.244272	-0.330595	0.420624
H584	H	0.744272	0.169405	0.920624
H585	H	0.638671	-0.687334	0.659583
H586	H	1.138671	-0.187334	1.159583
H587	H	0.268446	-0.505593	0.601208
H588	H	0.768446	-0.005593	1.101208
O589	O	0.096163	-0.256111	0.702947
O590	O	0.596163	0.243889	1.202947
C591	C	0.126033	-0.270530	0.737072
C592	C	0.626033	0.229470	1.237072
H593	H	0.160437	-0.313427	0.737639
H594	H	0.660437	0.186573	1.237639
H595	H	0.146073	-0.237265	0.719286
H596	H	0.646073	0.262735	1.219286
C597	C	0.042858	-0.220581	0.796914
C598	C	0.542858	0.279419	1.296914
C599	C	0.085112	-0.273270	0.797614
C600	C	0.585112	0.226730	1.297614
H601	H	0.017616	-0.222269	0.834258
H602	H	0.517616	0.277731	1.334258
H603	H	0.022734	-0.210865	0.773922
H604	H	0.522734	0.289135	1.273922
H605	H	0.059565	-0.192866	0.782089
H606	H	0.559565	0.307134	1.282089
H607	H	0.068405	-0.300983	0.812432
H608	H	0.568405	0.199017	1.312432
H609	H	0.105232	-0.282991	0.820610
H610	H	0.605232	0.217009	1.320610
O611	O	0.062985	-0.722897	0.236319
O612	O	0.562985	-0.222897	0.736319
C613	C	0.071262	-0.778378	0.275096
C614	C	0.571262	-0.278378	0.775096
H615	H	0.064594	-0.778260	0.317236
H616	H	0.564594	-0.278260	0.817236
H617	H	0.039813	-0.795257	0.281308
H618	H	0.539813	-0.295257	0.781308
C619	C	0.139980	-0.816487	0.200379
C620	C	0.639980	-0.316487	0.700379
C621	C	0.131796	-0.816343	0.252136
C622	C	0.631796	-0.316343	0.752136
H623	H	0.177320	-0.839907	0.186216
H624	H	0.677320	-0.339907	0.686216
H625	H	0.134403	-0.779109	0.174254
H626	H	0.634403	-0.279109	0.674254
H627	H	0.113769	-0.830552	0.205563
H628	H	0.613769	-0.330552	0.705563
H629	H	0.158002	-0.802272	0.246950
H630	H	0.658002	-0.302272	0.746950
H631	H	0.137379	-0.853720	0.278260
H632	H	0.637379	-0.353720	0.778260
O633	O	-0.031960	-0.532552	0.236080
O634	O	0.468040	-0.032552	0.736080
C635	C	0.017711	-0.518333	0.201976
C636	C	0.517711	-0.018333	0.701976
H637	H	0.053157	-0.551667	0.219859
H638	H	0.553157	-0.051667	0.719859
H639	H	0.030213	-0.516391	0.157185
H640	H	0.530213	-0.016391	0.657185
C641	C	-0.036336	-0.419453	0.179105
C642	C	0.463664	0.080547	0.679105
C643	C	0.007198	-0.460392	0.201073
C644	C	0.507198	0.039608	0.701073
H645	H	-0.042821	-0.383711	0.178546
H646	H	0.457179	0.116289	0.678546
H647	H	-0.069801	-0.429032	0.202080
H648	H	0.430199	0.070968	0.702080
H649	H	-0.025912	-0.417841	0.141782
H650	H	0.474088	0.082159	0.641782
H651	H	-0.003230	-0.462008	0.238398
H652	H	0.496770	0.037992	0.738398
H653	H	0.040661	-0.450811	0.178104
H654	H	0.540661	0.049189	0.678104
H655	H	0.093408	-0.418110	0.688821
H656	H	0.593408	0.081890	1.188821
H657	H	0.274901	-0.375125	0.611905
H658	H	0.774901	0.124875	1.111905
H659	H	0.137197	-0.367895	0.732563
H660	H	0.637197	0.132105	1.232563
H661	H	-0.065723	-0.577332	0.347941
H662	H	0.434277	-0.077332	0.847941
H663	H	0.057158	-0.716762	0.521784
H664	H	0.557158	-0.216762	1.021784
O665	O	0.023805	-0.761578	0.488199
O666	O	0.523805	-0.261578	0.988199
C667	C	0.057917	-0.791278	0.522511
C668	C	0.557917	-0.291278	1.022511
H669	H	0.079401	-0.763135	0.515032
H670	H	0.579401	-0.263135	1.015032
H671	H	0.030593	-0.803980	0.568766
H672	H	0.530593	-0.303980	1.068766
C673	C	0.076682	-0.879145	0.516798
C674	C	0.576682	-0.379145	1.016798
C675	C	0.103073	-0.844581	0.507608
C676	C	0.603073	-0.344581	1.007608
H677	H	0.104534	-0.912026	0.507607
H678	H	0.604534	-0.412026	1.007607
H679	H	0.053698	-0.859136	0.493683
H680	H	0.553698	-0.359136	0.993683
H681	H	0.053912	-0.889724	0.555344
H682	H	0.553912	-0.389724	1.055344
H683	H	0.125836	-0.833997	0.469062
H684	H	0.625836	-0.333997	0.969062
H685	H	0.126061	-0.864589	0.530716
H686	H	0.626061	-0.364589	1.030716
H687	H	0.064563	-0.758931	0.409098
H688	H	0.564563	-0.258931	0.909098
O689	O	-0.079289	-0.870468	0.515082
O690	O	0.420711	-0.370468	1.015082
C691	C	-0.106927	-0.856025	0.478884
C692	C	0.393073	-0.356025	0.978884
H693	H	-0.105478	-0.813167	0.445206
H694	H	0.394522	-0.313167	0.945206
H695	H	-0.084905	-0.889327	0.457787
H696	H	0.415095	-0.389327	0.957787
C697	C	-0.170606	-0.905799	0.554699
C698	C	0.329394	-0.405799	1.054699
C699	C	-0.168830	-0.853157	0.513338
C700	C	0.331170	-0.353157	1.013338
H701	H	-0.208790	-0.904032	0.575952
H702	H	0.291210	-0.404032	1.075952
H703	H	-0.151985	-0.915532	0.579086
H704	H	0.348015	-0.415532	1.079086
H705	H	-0.152251	-0.933545	0.537111
H706	H	0.347749	-0.433545	1.037111
H707	H	-0.187178	-0.825414	0.530926
H708	H	0.312822	-0.325414	1.030926
H709	H	-0.187456	-0.843420	0.488955
H710	H	0.312544	-0.343420	0.988955
O711	O	-0.111693	-0.713824	0.535558
O712	O	0.388307	-0.213824	1.035558
C713	C	-0.150514	-0.722151	0.591012
C714	C	0.349486	-0.222151	1.091012
H715	H	-0.192602	-0.686488	0.590830
H716	H	0.307398	-0.186488	1.090830
H717	H	-0.156833	-0.764218	0.607922
H718	H	0.343167	-0.264218	1.107922
C719	C	-0.075835	-0.766398	0.629215
C720	C	0.424165	-0.266398	1.129215
C721	C	-0.127527	-0.722593	0.628991
C722	C	0.372473	-0.222593	1.128991
H723	H	-0.061656	-0.766673	0.652643
H724	H	0.438344	-0.266673	1.152643
H725	H	-0.049680	-0.760790	0.591854
H726	H	0.450320	-0.260790	1.091854
H727	H	-0.081109	-0.801449	0.643305
H728	H	0.418891	-0.301449	1.143305
H729	H	-0.122252	-0.687542	0.614895
H730	H	0.377748	-0.187542	1.114895
H731	H	-0.153681	-0.728195	0.666350
H732	H	0.346319	-0.228195	1.166350
O733	O	0.109275	-0.870757	0.443480
O734	O	0.609275	-0.370757	0.943480
C735	C	0.139840	-0.856352	0.385163
C736	C	0.639840	-0.356352	0.885163
H737	H	0.110863	-0.840079	0.360677
H738	H	0.610863	-0.340079	0.860677
H739	H	0.156825	-0.822089	0.372003
H740	H	0.656825	-0.322089	0.872003
C741	C	0.225020	-0.928869	0.402388
C742	C	0.725020	-0.428869	0.902388
C743	C	0.189430	-0.908886	0.372314
C744	C	0.689430	-0.408886	0.872314
H745	H	0.255611	-0.961273	0.394462
H746	H	0.755611	-0.461273	0.894462
H747	H	0.204429	-0.938573	0.441678
H748	H	0.704429	-0.438573	0.941678
H749	H	0.239168	-0.900312	0.391418
H750	H	0.739168	-0.400312	0.891418
H751	H	0.175278	-0.937441	0.383290
H752	H	0.675278	-0.437441	0.883290
H753	H	0.210021	-0.899188	0.333026
H754	H	0.710021	-0.399188	0.833026
H755	H	0.021738	-0.752445	0.348058
H756	H	0.521738	-0.252445	0.848058
H757	H	-0.108889	-0.758731	0.474933
H758	H	0.391111	-0.258731	0.974933
H759	H	-0.223425	-0.672650	0.564976
H760	H	0.276575	-0.172650	1.064976
H761	H	-0.223112	-0.585171	0.389803
H762	H	0.276888	-0.085171	0.889803
H763	H	-0.115923	-0.621016	0.354266
H764	H	0.384077	-0.121016	0.854266
