data_functionalizedCrystal
_audit_creation_method	'MofGen! by Chris Wilmer'
_symmetry_space_group_name_H-M	'P1'
_symmetry_Int_Tables_number	1
_symmetry_cell_setting	triclinic
loop_
_symmetry_equiv_pos_as_xyz
  x,y,z
_cell_length_a	21.395364
_cell_length_b	21.395362
_cell_length_c	21.395355
_cell_angle_alpha	89.980094
_cell_angle_beta	90.025600
_cell_angle_gamma	89.975000
loop_
_atom_site_label
_atom_site_type_symbol
_atom_site_fract_x
_atom_site_fract_y
_atom_site_fract_z
Zn1	Zn	-0.957873	-0.249553	-0.354273
Zn2	Zn	-0.957781	-0.354313	-0.249493
Zn3	Zn	-0.853088	-0.249548	-0.249508
Zn4	Zn	-0.853063	-0.354292	-0.354231
O5	O	-0.905451	-0.301926	-0.301876
O6	O	-1.045539	-0.263460	-0.340385
O7	O	-0.943866	-0.340422	-0.161817
O8	O	-0.867037	-0.161871	-0.263429
O9	O	-1.045471	-0.340427	-0.263403
O10	O	-0.944022	-0.161874	-0.340399
O11	O	-0.866948	-0.263452	-0.161828
O12	O	-0.765407	-0.263432	-0.263388
O13	O	-0.866994	-0.340391	-0.441915
O14	O	-0.765388	-0.340387	-0.340328
O15	O	-0.943998	-0.263440	-0.441945
O16	O	-0.943841	-0.441988	-0.263363
O17	O	-0.866905	-0.441973	-0.340314
C18	C	-0.742664	-0.301907	-0.301856
C19	C	-0.673022	-0.301914	-0.301862
C20	C	-0.171233	-0.342059	-0.341889
C21	C	-0.236669	-0.342061	-0.341883
C22	C	-0.269384	-0.301931	-0.301886
C23	C	-0.236659	-0.261809	-0.261881
C24	C	-0.171225	-0.261813	-0.261883
C25	C	-0.373070	-0.245467	-0.297038
C26	C	-0.438503	-0.245462	-0.297040
C27	C	-0.471205	-0.301917	-0.301876
C28	C	-0.438466	-0.358380	-0.306722
C29	C	-0.373032	-0.358385	-0.306724
C30	C	-0.340337	-0.301922	-0.301879
C31	C	-0.574875	-0.342041	-0.341870
C32	C	-0.640311	-0.342044	-0.341860
C33	C	-0.640301	-0.261786	-0.261860
C34	C	-0.574865	-0.261790	-0.261867
C35	C	-0.542156	-0.301916	-0.301875
C36	C	-0.905378	-0.464714	-0.301846
C37	C	-0.905404	-0.534355	-0.301854
C38	C	-0.068875	-0.301942	-0.301893
C39	C	-0.138516	-0.301940	-0.301891
C40	C	-0.945663	-1.036139	-0.261910
C41	C	-0.945639	-0.970703	-0.261895
C42	C	-0.905540	-0.937994	-0.301921
C43	C	-0.865451	-0.970725	-0.341953
C44	C	-0.865471	-1.036159	-0.341962
C45	C	-0.900532	-0.834303	-0.358351
C46	C	-0.900516	-0.768870	-0.358343
C47	C	-0.905474	-0.736173	-0.301893
C48	C	-0.910460	-0.768917	-0.245448
C49	C	-0.910480	-0.834351	-0.245457
C50	C	-0.905513	-0.867041	-0.301915
C51	C	-0.945532	-0.632497	-0.261844
C52	C	-0.945504	-0.567060	-0.261828
C53	C	-0.865318	-0.567083	-0.341892
C54	C	-0.865343	-0.632519	-0.341902
C55	C	-0.905453	-0.665222	-0.301879
C56	C	-0.905503	-0.301914	-0.465299
C57	C	-0.905526	-0.301908	-0.534941
C58	C	-0.905542	-0.138503	-0.301920
C59	C	-0.905581	-0.068862	-0.301939
C60	C	-0.945619	-0.261838	-0.567671
C61	C	-0.945619	-0.261811	-0.633106
C62	C	-0.905530	-0.301866	-0.665809
C63	C	-0.865429	-0.341939	-0.633071
C64	C	-0.865426	-0.341960	-0.567637
C65	C	-0.900558	-0.358281	-0.769473
C66	C	-0.900564	-0.358261	-0.834906
C67	C	-0.905534	-0.301799	-0.867630
C68	C	-0.910510	-0.245357	-0.834913
C69	C	-0.910508	-0.245378	-0.769479
C70	C	-0.905528	-0.301847	-0.736762
C71	C	-0.945629	-0.261697	-0.971313
C72	C	-0.945624	-0.261669	-1.036749
C73	C	-0.865438	-0.341802	-1.036713
C74	C	-0.865439	-0.341824	-0.971278
C75	C	-0.905539	-0.301772	-0.938581
C76	C	-0.905436	-0.301894	-0.139089
C77	C	-0.905535	-0.301723	-0.069448
H78	H	-0.465091	-0.404352	-0.310664
F79	F	-0.895274	-0.418331	-0.869720
H80	H	-0.978267	-0.229178	-0.659760
F81	F	-0.988216	-0.667304	-0.219245
H82	H	-0.914498	-0.742296	-0.199481
H83	H	-0.832706	-0.659162	-0.374500
F84	F	-0.915801	-0.185310	-0.734661
F85	F	-0.988350	-1.070940	-0.219311
F86	F	-0.822810	-1.070987	-0.384570
F87	F	-0.822635	-0.532276	-0.384485
F88	F	-0.822751	-0.384610	-0.532802
H89	H	-0.548226	-0.229118	-0.229298
H90	H	-0.978271	-0.229224	-0.541054
F91	F	-0.136426	-0.384769	-0.384466
H92	H	-0.978141	-0.540417	-0.229228
H93	H	-0.914558	-0.199381	-0.861555
H94	H	-0.832800	-0.944090	-0.374542
F95	F	-0.895214	-0.734027	-0.418416
H96	H	-0.896609	-0.860919	-0.404333
H97	H	-0.832791	-0.374409	-1.063339
H98	H	-0.978277	-0.229081	-0.944690
H99	H	-0.263312	-0.374731	-0.374456
F100	F	-0.988307	-0.219025	-1.071583
H101	H	-0.832794	-0.374458	-0.944628
F102	F	-0.895282	-0.418380	-0.734652
F103	F	-0.473340	-0.185369	-0.291890
H104	H	-0.346379	-0.404359	-0.310669
F105	F	-0.540061	-0.384750	-0.384447
H106	H	-0.666949	-0.374718	-0.374429
F107	F	-0.675114	-0.219082	-0.219287
H108	H	-0.346449	-0.199492	-0.293090
F109	F	-0.271478	-0.219102	-0.219311
F110	F	-0.136404	-0.219110	-0.219310
H111	H	-0.978279	-0.944055	-0.229297
H112	H	-0.832787	-0.374549	-0.659702
H113	H	-0.914539	-0.861009	-0.199498
