data_functionalizedCrystal
_audit_creation_method	'MofGen! by Chris Wilmer'
_symmetry_space_group_name_H-M	'P1'
_symmetry_Int_Tables_number	1
_symmetry_cell_setting	triclinic
loop_
_symmetry_equiv_pos_as_xyz
  x,y,z
_cell_length_a	14.044220
_cell_length_b	14.044220
_cell_length_c	16.776229
_cell_angle_alpha	89.992645
_cell_angle_beta	90.002022
_cell_angle_gamma	86.811122
loop_
_atom_site_label
_atom_site_type_symbol
_atom_site_fract_x
_atom_site_fract_y
_atom_site_fract_z
O1	O	1.277172	-0.230170	0.066207
O2	O	1.777172	0.269830	0.566207
O3	O	1.000500	-0.221864	0.066227
O4	O	1.500500	0.278136	0.566227
O5	O	1.134683	-0.087681	0.066209
O6	O	1.634683	0.412319	0.566209
O7	O	1.142989	-0.364353	0.066224
O8	O	1.642989	0.135647	0.566224
O9	O	1.134663	-0.087671	-0.066367
O10	O	1.634663	0.412329	0.433633
O11	O	1.000480	-0.221854	-0.066350
O12	O	1.500480	0.278146	0.433650
O13	O	1.277151	-0.230159	-0.066370
O14	O	1.777151	0.269841	0.433630
Zn15	Zn	1.138812	-0.226005	-0.087409
Zn16	Zn	1.638812	0.273995	0.412591
Zn17	Zn	1.138839	-0.226019	0.087266
Zn18	Zn	1.638839	0.273981	0.587266
O19	O	1.142968	-0.364342	-0.066352
O20	O	1.642968	0.135658	0.433648
C21	C	0.964868	-0.218223	-0.000059
C22	C	1.464868	0.281777	0.499941
C23	C	0.858725	-0.207379	-0.000052
C24	C	1.358725	0.292621	0.499948
C25	C	1.131037	-0.052054	-0.000079
C26	C	1.631037	0.447946	0.499921
C27	C	1.120193	0.054088	-0.000079
C28	C	1.620193	0.554088	0.499921
N29	N	1.138801	-0.225995	-0.206620
N30	N	1.638801	0.274005	0.293380
C31	C	0.664388	-0.187553	-0.000069
C32	C	1.164388	0.312447	0.499931
C33	C	0.613258	-0.264467	-0.000068
C34	C	1.113258	0.235533	0.499932
C35	C	0.505122	-0.253435	-0.000077
C36	C	1.005122	0.246565	0.499923
C37	C	0.772534	-0.198583	-0.000059
C38	C	1.272534	0.301417	0.499941
C39	C	1.312783	-0.233800	-0.000082
C40	C	1.812783	0.266200	0.499918
C41	C	1.418926	-0.244645	-0.000085
C42	C	1.918926	0.255355	0.499915
C43	C	1.146614	-0.399969	-0.000062
C44	C	1.646614	0.100031	0.499938
C45	C	1.157459	-0.506112	-0.000057
C46	C	1.657459	-0.006112	0.499943
C47	C	1.100366	0.248426	-0.000067
C48	C	1.600366	0.748426	0.499933
C49	C	1.177281	0.299556	-0.000070
C50	C	1.677281	0.799556	0.499930
C51	C	1.166249	0.407692	-0.000063
C52	C	1.666249	0.907692	0.499937
C53	C	1.111397	0.140280	-0.000074
C54	C	1.611397	0.640280	0.499926
C55	C	1.198239	-0.166607	-0.248345
C56	C	1.698239	0.333393	0.251655
C57	C	1.198245	-0.166607	-0.331798
C58	C	1.698245	0.333393	0.168202
C59	C	1.138816	-0.226000	-0.373523
C60	C	1.638816	0.274000	0.126477
C61	C	1.079371	-0.285391	-0.331793
C62	C	1.579371	0.214609	0.168207
C63	C	1.079361	-0.285385	-0.248342
C64	C	1.579361	0.214615	0.251658
C65	C	1.079407	-0.285412	-0.668340
C66	C	1.579407	0.214588	-0.168340
C67	C	1.079423	-0.285415	-0.751796
C68	C	1.579423	0.214585	-0.251796
C69	C	1.198290	-0.166634	-0.751795
C70	C	1.698290	0.333366	-0.251795
C71	C	1.198281	-0.166629	-0.668345
C72	C	1.698281	0.333371	-0.168345
C73	C	1.138833	-0.226015	-0.626621
C74	C	1.638833	0.273985	-0.126621
C75	C	1.138826	-0.226013	-0.536133
C76	C	1.638826	0.273987	-0.036133
C77	C	1.138826	-0.226007	-0.464010
C78	C	1.638826	0.273993	0.035990
N79	N	1.138857	-0.226022	0.206477
N80	N	1.638857	0.273978	0.706477
H81	H	0.650697	-0.338600	-0.000060
H82	H	1.150697	0.161400	0.499940
C83	C	1.263624	-0.101281	-0.377695
C84	C	1.763624	0.398719	0.122305
H85	H	1.255111	-0.109779	-0.433371
H86	H	1.755111	0.390221	0.066629
H87	H	1.328215	-0.117073	-0.364013
H88	H	1.828215	0.382927	0.135987
H89	H	1.247864	-0.036677	-0.364026
H90	H	1.747864	0.463323	0.135974
H91	H	1.251414	0.262117	-0.000022
H92	H	1.751414	0.762117	0.499978
C93	C	1.013984	-0.350716	-0.202445
C94	C	1.513984	0.149284	0.297555
H95	H	0.978598	-0.386096	-0.239245
H96	H	1.478598	0.113904	0.260755
H97	H	0.971337	-0.312988	-0.169900
H98	H	1.471337	0.187012	0.330100
H99	H	1.051688	-0.393384	-0.169881
H100	H	1.551688	0.106616	0.330119
C101	C	1.014030	-0.350732	-0.797694
C102	C	1.514030	0.149268	-0.297694
H103	H	0.978612	-0.386089	-0.760893
H104	H	1.478612	0.113911	-0.260893
H105	H	1.051721	-0.393406	-0.830242
H106	H	1.551721	0.106594	-0.330242
H107	H	0.971397	-0.312982	-0.830253
H108	H	1.471397	0.187018	-0.330253
H109	H	1.026239	0.285863	-0.000059
H110	H	1.526239	0.785863	0.499941
H111	H	0.626951	-0.113425	-0.000077
H112	H	1.126951	0.386575	0.499923
C113	C	1.263610	-0.101272	-0.202454
C114	C	1.763610	0.398728	0.297546
H115	H	1.299003	-0.065897	-0.239259
H116	H	1.799003	0.434103	0.260741
H117	H	1.306252	-0.138994	-0.169889
H118	H	1.806252	0.361006	0.330111
H119	H	1.225898	-0.058600	-0.169913
H120	H	1.725898	0.441400	0.330087
H121	H	1.246676	-0.118269	-0.634374
H122	H	1.746676	0.381731	-0.134374
C123	C	1.263673	-0.101299	-0.797693
C124	C	1.763673	0.398701	-0.297693
H125	H	1.255162	-0.109797	-0.853370
H126	H	1.755162	0.390203	-0.353370
H127	H	1.328263	-0.117091	-0.784009
H128	H	1.828263	0.382909	-0.284009
H129	H	1.247913	-0.036695	-0.784024
H130	H	1.747913	0.463305	-0.284024
C131	C	1.014026	-0.350743	-0.622454
C132	C	1.514026	0.149257	-0.122454
H133	H	0.978644	-0.386123	-0.659259
H134	H	1.478644	0.113877	-0.159259
H135	H	0.971375	-0.313019	-0.589910
H136	H	1.471375	0.186981	-0.089910
H137	H	1.051729	-0.393412	-0.589891
H138	H	1.551729	0.106588	-0.089891
H139	H	1.030978	-0.333746	-0.365771
H140	H	1.530978	0.166254	0.134229
