data_functionalizedCrystal
_audit_creation_method	'MofGen! by Chris Wilmer'
_symmetry_space_group_name_H-M	'P1'
_symmetry_Int_Tables_number	1
_symmetry_cell_setting	triclinic
loop_
_symmetry_equiv_pos_as_xyz
  x,y,z
_cell_length_a	10.654550
_cell_length_b	27.732048
_cell_length_c	9.730223
_cell_angle_alpha	89.993758
_cell_angle_beta	89.996251
_cell_angle_gamma	83.563778
loop_
_atom_site_label
_atom_site_type_symbol
_atom_site_fract_x
_atom_site_fract_y
_atom_site_fract_z
O1	O	1.664980	0.067884	-0.114419
O2	O	1.299230	0.074351	-0.114399
O3	O	1.493465	0.000792	-0.114384
O4	O	1.470746	0.141444	-0.114435
O5	O	1.493462	0.000793	0.114196
O6	O	1.299228	0.074353	0.114181
O7	O	1.664978	0.067886	0.114161
Zn8	Zn	1.482102	0.071120	0.150463
Zn9	Zn	1.482105	0.071117	-0.150701
O10	O	1.470743	0.141445	0.114145
C11	C	1.252451	0.073878	-0.000106
C12	C	1.113067	0.072457	-0.000097
C13	C	1.492987	-0.017217	-0.000090
C14	C	1.491551	-0.070881	-0.000078
C15	C	1.031761	0.115768	-0.000133
C16	C	0.900796	0.114430	-0.000156
C17	C	0.932457	0.026466	-0.000114
C18	C	1.063419	0.027805	-0.000080
C19	C	1.013480	0.166553	-0.000163
C20	C	0.882516	0.165215	-0.000187
C21	C	1.597290	-0.409038	-0.000155
C22	C	1.591962	-0.610731	-0.000174
O23	O	1.688653	-0.641384	-0.000239
N24	N	1.476789	-0.630572	-0.000166
C25	C	1.362940	-0.599986	-0.000163
O26	O	1.264856	-0.621490	-0.000171
C27	C	1.368269	-0.398294	-0.000154
C28	C	1.483449	-0.378456	-0.000147
C29	C	1.712461	-0.389199	-0.000150
C30	C	1.713792	-0.338779	-0.000138
C31	C	1.599951	-0.308197	-0.000131
C32	C	1.484780	-0.328036	-0.000135
C33	C	1.254421	-0.367709	-0.000160
C34	C	1.255764	-0.317284	-0.000161
C35	C	1.370944	-0.297446	-0.000155
C36	C	1.372271	-0.247034	-0.000115
N37	N	1.487444	-0.227193	-0.000123
C38	C	1.601284	-0.257775	-0.000131
C39	C	1.360150	-0.705877	-0.000165
C40	C	1.358817	-0.756300	-0.000164
C41	C	1.587840	-0.767041	-0.000178
C42	C	1.589171	-0.716618	-0.000169
C43	C	1.475323	-0.686036	-0.000172
C44	C	1.604070	-0.151888	-0.000104
C45	C	1.605391	-0.101463	-0.000086
C46	C	1.376369	-0.090726	-0.000080
C47	C	1.375047	-0.141147	-0.000090
C48	C	1.488908	-0.171727	-0.000107
O49	O	1.275631	-0.216352	-0.000065
O50	O	1.699354	-0.236261	-0.000153
C51	C	1.595959	-0.459458	-0.000167
C52	C	1.480788	-0.479296	-0.000172
C53	C	1.366948	-0.448715	-0.000164
C54	C	1.479455	-0.529719	-0.000172
C55	C	1.593296	-0.560301	-0.000179
C56	C	1.708469	-0.540460	-0.000187
C57	C	1.709800	-0.490040	-0.000175
C58	C	1.251774	-0.468556	-0.000157
C59	C	1.250453	-0.518976	-0.000167
C60	C	1.364293	-0.549558	-0.000175
C61	C	1.711757	0.068360	-0.000135
C62	C	1.851141	0.069780	-0.000153
C63	C	1.471221	0.159454	-0.000152
C64	C	1.472657	0.213118	-0.000172
N65	N	1.482110	0.071121	0.355999
N66	N	1.482108	0.071112	-0.356238
C67	C	1.568138	0.038560	0.427932
C68	C	1.568135	0.038554	0.571815
C69	C	1.396071	0.103675	0.571820
C70	C	1.396069	0.103678	0.427939
C71	C	1.667482	0.000964	0.427930
C72	C	1.667479	0.000959	0.571813
H73	H	1.129616	-0.007463	-0.000032
H74	H	1.283683	-0.065818	-0.000069
C75	C	1.060742	0.188389	-0.133503
N76	N	1.096341	0.204831	-0.233942
H77	H	1.801162	-0.565369	-0.000187
C78	C	1.628236	-0.046465	0.632114
N79	N	1.598670	-0.082182	0.677534
C80	C	1.234899	-0.672244	-0.000168
N81	N	1.140558	-0.646913	-0.000166
C82	C	1.126533	-0.434922	-0.000151
N83	N	1.032194	-0.409591	-0.000141
C84	C	1.797356	0.012183	0.624563
N85	N	1.895164	0.020651	0.664294
C86	C	0.877832	-0.022649	-0.000103
N87	N	0.836689	-0.059643	-0.000098
H88	H	1.156652	-0.535123	-0.000160
H89	H	0.836198	0.180563	0.098492
H90	H	1.041976	0.186415	0.095495
C91	C	1.232110	-0.778116	-0.000154
N92	N	1.136669	-0.794545	-0.000155
H93	H	0.839980	0.184349	-0.095861
C94	C	1.301526	0.139535	0.348818
N95	N	1.230351	0.166559	0.289225
C96	C	1.840501	-0.316964	-0.000146
N97	N	1.935944	-0.300537	-0.000158
C98	C	1.729323	-0.185519	-0.000110
N99	N	1.823664	-0.210850	-0.000103
C100	C	1.130518	-0.283647	-0.000161
N101	N	1.036183	-0.258313	-0.000155
H102	H	1.699189	-0.085314	-0.000077
C103	C	1.301429	0.139485	0.650967
N104	N	1.230143	0.166457	0.710580
H105	H	1.805169	-0.414094	-0.000162
H106	H	1.160629	-0.383852	-0.000173
C107	C	1.715877	-0.694801	-0.000174
N108	N	1.811318	-0.678371	-0.000183
C109	C	1.640615	-0.049221	0.375184
N110	N	1.620375	-0.087020	0.335456
C111	C	1.248344	-0.162969	-0.000088
N112	N	1.152908	-0.179402	-0.000101
C113	C	1.836508	-0.468225	-0.000177
N114	N	1.931952	-0.451797	-0.000182
C115	C	1.790001	0.016864	0.367622
N116	N	1.882283	0.028840	0.322197
H117	H	1.680533	-0.791950	-0.000184
