data_functionalizedCrystal
_audit_creation_method	'MofGen! by Chris Wilmer'
_symmetry_space_group_name_H-M	'P1'
_symmetry_Int_Tables_number	1
_symmetry_cell_setting	triclinic
loop_
_symmetry_equiv_pos_as_xyz
  x,y,z
_cell_length_a	10.654541
_cell_length_b	14.044190
_cell_length_c	9.730217
_cell_angle_alpha	89.991715
_cell_angle_beta	89.999932
_cell_angle_gamma	88.837853
loop_
_atom_site_label
_atom_site_type_symbol
_atom_site_fract_x
_atom_site_fract_y
_atom_site_fract_z
O1	O	1.681230	0.133219	-0.114265
O2	O	2.181230	0.633219	0.385735
O3	O	1.317027	0.145915	-0.114278
O4	O	1.817027	0.645915	0.385722
O5	O	1.493657	0.001546	-0.114245
O6	O	1.993657	0.501546	0.385755
O7	O	1.504600	0.277588	-0.114298
O8	O	2.004600	0.777588	0.385702
O9	O	1.493651	0.001545	0.114335
O10	O	1.993651	0.501545	0.614335
O11	O	1.317021	0.145914	0.114302
O12	O	1.817021	0.645914	0.614302
O13	O	1.681224	0.133218	0.114315
O14	O	2.181224	0.633218	0.614315
Zn15	Zn	1.499122	0.139566	0.150600
Zn16	Zn	1.999122	0.639566	0.650600
Zn17	Zn	1.499130	0.139567	-0.150564
Zn18	Zn	1.999130	0.639567	0.349436
O19	O	1.504594	0.277587	0.114282
O20	O	2.004594	0.777587	0.614282
C21	C	1.270133	0.144983	0.000010
C22	C	1.770133	0.644983	0.500010
C23	C	1.130409	0.142195	0.000006
C24	C	1.630409	0.642195	0.500006
C25	C	1.488867	-0.033800	0.000049
C26	C	1.988867	0.466200	0.500049
C27	C	1.474588	-0.139120	0.000061
C28	C	1.974588	0.360880	0.500061
C29	C	1.119792	0.314827	-0.000044
C30	C	1.619792	0.814827	0.499956
C31	C	1.048842	0.399829	-0.000075
C32	C	1.548842	0.899829	0.499925
C33	C	0.917560	0.397205	-0.000076
C34	C	1.417560	0.897205	0.499924
C35	C	0.857225	0.309568	-0.000042
C36	C	1.357225	0.809568	0.499958
C37	C	0.928175	0.224565	-0.000011
C38	C	1.428175	0.724565	0.499989
C39	C	1.059459	0.227200	-0.000015
C40	C	1.559459	0.727200	0.499985
C41	C	0.938792	0.051935	0.000049
C42	C	1.438792	0.551935	0.500049
C43	C	1.070074	0.054558	0.000040
C44	C	1.570074	0.554558	0.500040
C45	C	0.878457	-0.035701	0.000083
C46	C	1.378457	0.464299	0.500083
C47	C	0.949407	-0.120706	0.000104
C48	C	1.449407	0.379294	0.500104
C49	C	1.080697	-0.118077	0.000103
C50	C	1.580697	0.381923	0.500103
C51	C	1.141024	-0.030444	0.000071
C52	C	1.641024	0.469556	0.500071
C53	C	1.549754	-0.388913	0.000010
C54	C	2.049754	0.111087	0.500010
C55	C	1.448503	-0.331949	0.000015
C56	C	1.948503	0.168051	0.500015
C57	C	1.463021	-0.224649	0.000041
C58	C	1.963021	0.275351	0.500041
C59	C	1.535239	-0.496222	-0.000016
C60	C	2.035239	0.003778	0.499984
C61	C	1.728119	0.134150	0.000024
C62	C	2.228119	0.634150	0.500024
C63	C	1.867843	0.136938	0.000019
C64	C	2.367843	0.636938	0.500019
C65	C	1.509384	0.312933	-0.000015
C66	C	2.009384	0.812933	0.499985
C67	C	1.523663	0.418253	-0.000036
C68	C	2.023663	0.918253	0.499964
N69	N	1.499125	0.139564	0.356137
N70	N	1.999125	0.639564	0.856137
N71	N	1.499135	0.139562	-0.356100
N72	N	1.999135	0.639562	0.143900
C73	C	1.655605	0.011763	0.356157
C74	C	2.155605	0.511763	0.856157
C75	C	1.733853	-0.052135	0.428108
C76	C	2.233853	0.447865	0.928108
C77	C	1.733866	-0.052135	0.571987
C78	C	2.233866	0.447865	1.071987
C79	C	1.655619	0.011767	0.643920
C80	C	2.155619	0.511767	1.143920
C81	C	1.577371	0.075665	0.571970
C82	C	2.077371	0.575665	1.071970
C83	C	1.577369	0.075660	0.428087
C84	C	2.077369	0.575660	0.928087
C85	C	1.420887	0.203459	0.571950
C86	C	1.920887	0.703459	1.071950
C87	C	1.420879	0.203466	0.428070
C88	C	1.920879	0.703466	0.928070
C89	C	1.342640	0.267361	0.643883
C90	C	1.842640	0.767361	1.143883
C91	C	1.264396	0.331265	0.571933
C92	C	1.764396	0.831265	1.071933
C93	C	1.264388	0.331264	0.428044
C94	C	1.764388	0.831264	0.928044
C95	C	1.342630	0.267364	0.356120
C96	C	1.842630	0.767364	0.856120
H97	H	1.226688	0.316973	-0.000074
H98	H	1.726688	0.816973	0.499926
H99	H	1.342648	0.267354	0.761037
H100	H	1.842648	0.767354	1.261037
H101	H	1.097981	0.471182	-0.000099
H102	H	1.597981	0.971182	0.499901
H103	H	1.647332	-0.357098	0.000027
H104	H	2.147332	0.142902	0.500027
H105	H	1.200687	0.383286	0.630509
H106	H	1.700687	0.883286	1.130509
H107	H	1.200663	0.383293	0.369470
H108	H	1.700663	0.883293	0.869470
H109	H	1.655614	0.011765	0.239003
H110	H	2.155614	0.511765	0.739003
H111	H	0.859793	0.466421	-0.000091
H112	H	1.359793	0.966421	0.499909
H113	H	1.342635	0.267360	0.238965
H114	H	1.842635	0.767360	0.738965
H115	H	0.750328	0.307438	-0.000026
H116	H	1.250328	0.807438	0.499974
H117	H	1.350917	-0.363765	0.000004
H118	H	1.850917	0.136235	0.500004
H119	H	1.247920	-0.028295	0.000054
H120	H	1.747920	0.471705	0.500054
H121	H	0.771560	-0.037833	0.000090
H122	H	1.271560	0.462167	0.500090
H123	H	1.797578	-0.104169	0.630569
H124	H	2.297578	0.395831	1.130569
H125	H	0.900272	-0.192053	0.000131
H126	H	1.400272	0.307947	0.500131
H127	H	1.138457	-0.187297	0.000134
H128	H	1.638457	0.312703	0.500134
H129	H	1.797559	-0.104165	0.369527
H130	H	2.297559	0.395835	0.869527
H131	H	1.655623	0.011755	0.761075
H132	H	2.155623	0.511755	1.261075
