data_functionalizedCrystal
_audit_creation_method	'MofGen! by Chris Wilmer'
_symmetry_space_group_name_H-M	'P1'
_symmetry_Int_Tables_number	1
_symmetry_cell_setting	triclinic
loop_
_symmetry_equiv_pos_as_xyz
  x,y,z
_cell_length_a	18.760492
_cell_length_b	21.606444
_cell_length_c	21.606444
_cell_angle_alpha	90.000308
_cell_angle_beta	59.999773
_cell_angle_gamma	60.000838
loop_
_atom_site_label
_atom_site_type_symbol
_atom_site_fract_x
_atom_site_fract_y
_atom_site_fract_z
Zr1	Zr	0.780278	-0.081266	0.596197
O2	O	0.928981	-0.180090	0.497370
O3	O	0.631569	-0.050968	0.626496
O4	O	0.780275	-0.180090	0.626492
O5	O	0.780280	0.050882	0.497374
O6	O	0.780280	-0.180093	0.728341
O7	O	0.780275	-0.050968	0.497374
O8	O	0.514272	0.050882	0.728349
O9	O	1.046288	-0.180094	0.497366
O10	O	0.692741	-0.038053	0.715424
O11	O	0.692741	0.037959	0.639414
O12	O	0.867824	-0.114065	0.639409
O13	O	0.867824	-0.038053	0.563400
Zr14	Zr	0.780294	0.081167	0.758635
Zr15	Zr	0.780286	-0.081272	0.758636
Zr16	Zr	0.780286	0.081173	0.596197
Zr17	Zr	0.967369	-0.081272	0.596191
Zr18	Zr	0.593203	0.081173	0.758641
O19	O	0.929004	0.050869	0.728336
O20	O	0.928992	-0.180098	0.728337
O21	O	0.928992	0.050877	0.497370
O22	O	0.631592	0.179990	0.857462
O23	O	0.631580	-0.050976	0.857463
O24	O	0.631580	0.179999	0.626496
O25	O	0.780293	-0.050981	0.857458
O26	O	0.780298	0.179990	0.728341
O27	O	0.780293	0.179994	0.626491
O28	O	0.780298	0.050869	0.857458
O29	O	1.046294	-0.180098	0.626483
O30	O	0.514278	0.179999	0.728349
O31	O	0.514285	0.179994	0.857466
O32	O	0.514278	0.050877	0.857466
O33	O	1.046294	-0.050977	0.497366
O34	O	1.046301	-0.050981	0.626483
O35	O	0.692749	0.113966	0.715423
O36	O	0.692749	0.037954	0.791433
O37	O	0.867831	-0.038059	0.715418
O38	O	0.867831	0.037954	0.639409
C39	C	0.546264	-0.000042	0.677423
C40	C	0.466839	-0.000040	0.677426
C41	C	0.780276	-0.000042	0.474230
C42	C	0.780273	-0.000040	0.405271
C43	C	0.780296	0.203136	0.677416
C44	C	0.780300	0.272096	0.677416
C45	C	0.131044	0.039621	0.637730
C46	C	0.131049	-0.039737	0.717085
C47	C	0.205664	-0.039732	0.717091
C48	C	0.242974	-0.000052	0.677415
C49	C	0.205669	0.039625	0.637733
C50	C	0.242982	-0.079415	0.756766
C51	C	0.317603	-0.079412	0.756773
C52	C	0.354909	-0.039727	0.717100
C53	C	0.317599	-0.000048	0.677418
C54	C	0.354909	0.039633	0.637741
C55	C	0.317594	0.079317	0.598062
C56	C	0.242975	0.079311	0.598061
C57	C	0.429529	-0.039721	0.717102
C58	C	0.429533	0.039637	0.637744
C59	C	1.014309	-0.000057	0.677409
C60	C	1.093734	-0.000060	0.677406
C61	C	0.780276	-0.203236	0.677416
C62	C	0.780273	-0.272195	0.677417
C63	C	0.871690	0.264817	0.637738
C64	C	0.871687	0.329615	0.637735
C65	C	0.780293	0.401690	0.677414
C66	C	0.688896	0.408966	0.717093
C67	C	0.688899	0.344170	0.717091
C68	C	0.688878	0.670285	0.717099
C69	C	0.688881	0.735083	0.717099
C70	C	0.871666	0.655729	0.637742
C71	C	0.871670	0.590933	0.637741
C72	C	0.780273	0.598215	0.677416
C73	C	0.780277	0.527954	0.677418
C74	C	0.780288	0.471950	0.677417
C75	C	0.688882	0.039635	0.412550
C76	C	0.688885	0.039636	0.347753
C77	C	0.780279	-0.000043	0.275677
C78	C	0.871677	-0.039719	0.268399
C79	C	0.871673	-0.039715	0.333195
C80	C	0.871695	-0.039736	0.007081
C81	C	0.871691	-0.039739	-0.057717
C82	C	0.688907	0.039615	0.021638
C83	C	0.688903	0.039619	0.086435
C84	C	0.780300	-0.000054	0.079151
C85	C	0.780295	-0.000053	0.149413
C86	C	0.780285	-0.000049	0.205417
C87	C	0.780296	-0.000057	0.880602
C88	C	0.780300	-0.000060	0.949561
C89	C	0.546274	-0.000049	0.880609
C90	C	0.466852	-0.000049	0.949571
C91	C	0.546274	0.203144	0.677423
C92	C	0.466852	0.272106	0.677426
C93	C	0.546284	0.203136	0.880609
C94	C	0.466866	0.272096	0.949571
C95	C	1.014289	-0.203236	0.474223
C96	C	1.093707	-0.272195	0.405262
C97	C	1.014299	-0.000050	0.474223
C98	C	1.093721	-0.000050	0.405261
C99	C	1.014299	-0.203243	0.677409
C100	C	1.093721	-0.272205	0.677407
C101	C	0.429551	-0.039731	0.942280
C102	C	0.354936	-0.039746	1.007071
C103	C	0.317619	-0.000075	1.079152
C104	C	0.354927	0.039608	1.086441
C105	C	0.429546	0.039618	1.021651
C106	C	0.429559	0.344172	0.717103
C107	C	0.354944	0.408976	0.717102
C108	C	0.317619	0.401711	0.677428
C109	C	0.354920	0.329636	0.637746
C110	C	0.429538	0.264835	0.637743
C111	C	0.429570	0.264802	1.021639
C112	C	0.354958	0.329591	1.086442
C113	C	0.317639	0.401672	1.079175
C114	C	0.354942	0.408964	1.007100
C115	C	0.429557	0.344176	0.942298
C116	C	1.131012	-0.264902	0.333193
C117	C	1.205646	-0.329690	0.268390
C118	C	1.242970	-0.401772	0.275657
C119	C	1.205662	-0.409064	0.347733
C120	C	1.131034	-0.344276	0.412534
C121	C	1.131030	0.039625	0.412552
C122	C	1.205665	0.039622	0.347761
C123	C	1.242985	-0.000051	0.275680
C124	C	1.205673	-0.039731	0.268391
C125	C	1.131044	-0.039732	0.333181
C126	C	1.131022	-0.264916	0.717088
C127	C	1.205637	-0.329707	0.717101
C128	C	1.242955	-0.401786	0.677427
C129	C	1.205646	-0.409074	0.637744
C130	C	1.131027	-0.344284	0.637737
H131	H	0.459904	0.071952	0.605436
H132	H	1.236032	0.071937	0.353711
C133	C	1.246674	-0.321681	0.760746
H134	H	1.296452	-0.370587	0.755080
H135	H	1.275789	-0.294761	0.741143
H136	H	1.193092	-0.294750	0.812948
H137	H	0.946116	-0.072054	0.001140
H138	H	0.256882	0.454421	1.131947
C139	C	0.201937	0.122949	0.554411
H140	H	0.152163	0.117255	0.560085
H141	H	0.172818	0.175151	0.574002
H142	H	0.255519	0.103349	0.502208
C143	C	1.246721	-0.083363	0.189102
H144	H	1.213821	-0.106999	0.194031
H145	H	1.234490	-0.049106	0.162185
H146	H	1.317179	-0.120912	0.162176
C147	C	0.588356	0.083271	0.355763
H148	H	0.533925	0.106894	0.407969
H149	H	0.584549	0.120819	0.332137
H150	H	0.584565	0.049014	0.332135
C151	C	0.470610	0.352175	0.760743
H152	H	0.520388	0.303264	0.755069
H153	H	0.499728	0.379093	0.741143
H154	H	0.417034	0.379101	0.812947
C155	C	0.313844	0.321655	0.594119
H156	H	0.264054	0.370573	0.599817
H157	H	0.367398	0.294734	0.541915
H158	H	0.284713	0.294743	0.613727
C159	C	0.090006	0.083267	0.594084
H160	H	0.040224	0.077581	0.599760
H161	H	0.060895	0.135467	0.613677
H162	H	0.143585	0.063667	0.541881
C163	C	1.246717	-0.488355	0.355716
H164	H	1.296495	-0.525889	0.306797
H165	H	1.275834	-0.494055	0.382637
H166	H	1.193141	-0.494042	0.382629
H167	H	1.236010	-0.323738	0.209710
C168	C	1.089967	-0.352304	0.491807
H169	H	1.040170	-0.303399	0.529366
H170	H	1.060868	-0.379231	0.497456
H171	H	1.143528	-0.379229	0.497507
C172	C	1.246760	-0.488362	0.594053
H173	H	1.213876	-0.483432	0.570403
H174	H	1.317210	-0.515240	0.556521
H175	H	1.234561	-0.515325	0.628270
H176	H	0.256860	0.454483	0.677437
C177	C	0.972209	-0.083367	0.189118
H178	H	0.959124	-0.077695	0.151569
H179	H	1.009766	-0.063776	0.183429
H180	H	1.009754	-0.135570	0.183441
H181	H	1.100664	-0.350230	0.605420
C182	C	0.313918	0.488247	0.760762
H183	H	0.346825	0.483287	0.784398
H184	H	0.326154	0.515180	0.726523
H185	H	0.243460	0.515174	0.798313
H186	H	1.303715	-0.454536	0.677439
C187	C	0.358644	0.122959	0.554417
H188	H	0.408428	0.117276	0.560105
H189	H	0.387756	0.103368	0.502217
H190	H	0.305072	0.175164	0.574017
H191	H	0.212607	-0.111726	0.789065
C192	C	0.090013	-0.083385	0.760723
H193	H	0.040226	-0.077702	0.755040
H194	H	0.143586	-0.135583	0.741131
H195	H	0.060888	-0.063784	0.812928
H196	H	0.347979	-0.111724	0.789082
C197	C	1.325072	-0.000042	0.204418
H198	H	1.341935	0.029277	0.219090
H199	H	1.383300	-0.050590	0.175100
H200	H	1.300609	0.021212	0.175107
H201	H	0.459893	0.206157	0.605436
C202	C	0.313886	0.488254	0.999112
H203	H	0.346786	0.483326	0.946910
H204	H	0.243431	0.515177	1.022750
H205	H	0.326131	0.515171	1.022741
H206	H	1.100649	0.071937	0.471238
H207	H	1.100669	-0.072038	0.327234
C208	C	0.313899	-0.083390	0.999044
H209	H	0.264121	-0.077726	1.047950
H210	H	0.284783	-0.063786	0.972125
H211	H	0.367480	-0.135591	0.972111
H212	H	1.100650	-0.206231	0.749395
C213	C	0.972214	0.321610	0.594096
H214	H	0.959126	0.370522	0.599772
H215	H	1.009763	0.294691	0.613693
H216	H	1.009769	0.294687	0.541892
H217	H	0.614457	0.676224	0.749407
C218	C	0.470615	0.185520	1.029643
H219	H	0.520391	0.147972	0.980732
H220	H	0.499733	0.179836	1.056561
H221	H	0.417036	0.179838	1.056571
C222	C	0.470578	-0.083368	0.760739
H223	H	0.520366	-0.077686	0.755056
H224	H	0.417008	-0.063782	0.812939
H225	H	0.499703	-0.135572	0.741133
C226	C	0.972226	0.185540	0.594088
H227	H	1.026653	0.190488	0.570451
H228	H	0.976034	0.158609	0.628330
H229	H	0.976021	0.158618	0.556538
H230	H	0.459907	0.071936	1.027598
C231	C	0.972203	0.511654	0.594091
H232	H	1.026633	0.516599	0.570453
H233	H	0.976010	0.484723	0.628334
H234	H	0.975996	0.484733	0.556542
H235	H	0.614481	0.467656	0.749396
H236	H	0.946093	-0.072013	0.327264
C237	C	1.089970	-0.185619	0.325189
H238	H	1.040174	-0.148071	0.374100
H239	H	1.143544	-0.179937	0.298270
H240	H	1.060858	-0.179936	0.298263
C241	C	0.313863	0.083249	1.165732
H242	H	0.264073	0.077563	1.203269
H243	H	0.367422	0.063666	1.171430
H244	H	0.284735	0.135455	1.171420
C245	C	0.972205	0.647717	0.594095
H246	H	1.026635	0.595511	0.570473
H247	H	0.976012	0.671341	0.556547
H248	H	0.975999	0.671345	0.628350
C249	C	0.470592	-0.083377	0.863000
H250	H	0.437690	-0.107016	0.867948
H251	H	0.458361	-0.049135	0.836070
H252	H	0.541050	-0.120926	0.836076
H253	H	0.614453	0.793771	0.749411
H254	H	0.459914	0.350125	0.883620
H255	H	1.303737	-0.454520	0.222885
C256	C	0.588370	0.352176	0.760729
H257	H	0.533938	0.404380	0.784364
H258	H	0.584580	0.328548	0.726475
H259	H	0.584565	0.328549	0.798280
C260	C	0.313929	0.321556	1.165715
H261	H	0.346832	0.269347	1.160756
H262	H	0.326167	0.345170	1.192648
H263	H	0.243470	0.345185	1.192643
H264	H	0.614480	0.071927	0.145120
C265	C	0.588347	0.083287	0.491829
H266	H	0.533919	0.106922	0.486882
H267	H	0.584537	0.049047	0.518763
H268	H	0.584553	0.120838	0.518749
H269	H	0.614487	0.071920	0.027563
H270	H	0.946120	-0.072052	-0.116407
H271	H	0.256859	-0.000089	1.131902
