data_functionalizedCrystal
_audit_creation_method	'MofGen! by Chris Wilmer'
_symmetry_space_group_name_H-M	'P1'
_symmetry_Int_Tables_number	1
_symmetry_cell_setting	triclinic
loop_
_symmetry_equiv_pos_as_xyz
  x,y,z
_cell_length_a	27.732048
_cell_length_b	27.731993
_cell_length_c	11.892095
_cell_angle_alpha	86.145793
_cell_angle_beta	86.135552
_cell_angle_gamma	97.368478
loop_
_atom_site_label
_atom_site_type_symbol
_atom_site_fract_x
_atom_site_fract_y
_atom_site_fract_z
O1	O	-0.054288	0.644048	-0.093681
O2	O	-0.063059	0.503253	-0.093747
O3	O	0.011725	0.578023	-0.093727
O4	O	-0.129072	0.569277	-0.093701
O5	O	0.005499	0.571789	0.094279
O6	O	-0.069285	0.497018	0.094259
O7	O	-0.060514	0.637814	0.094325
Zn8	Zn	-0.065888	0.566426	0.124142
Zn9	Zn	-0.057685	0.574640	-0.123564
O10	O	-0.135297	0.563043	0.094305
C11	C	-0.065992	0.482128	0.000247
C12	C	-0.065448	0.428473	0.000221
C13	C	-0.058126	0.048709	-0.102207
C14	C	-0.060192	0.250368	-0.102237
O15	O	-0.057553	0.279331	-0.189396
N16	N	-0.063844	0.272190	0.000242
C17	C	-0.066977	0.243594	0.102737
O18	O	-0.070126	0.266783	0.189901
C19	C	-0.064907	0.041937	0.102766
C20	C	-0.061260	0.020117	0.000280
C21	C	-0.054478	0.026889	-0.204685
C22	C	-0.053964	-0.023523	-0.204677
C23	C	-0.057098	-0.052115	-0.102190
C24	C	-0.060746	-0.030294	0.000288
C25	C	-0.068037	0.013344	0.205259
C26	C	-0.067518	-0.037073	0.205257
C27	C	-0.063870	-0.058893	0.102771
C28	C	-0.063366	-0.109298	0.102783
N29	N	-0.059714	-0.131120	0.000304
C30	C	-0.056580	-0.102529	-0.102183
C31	C	-0.068064	0.349467	0.102714
C32	C	-0.068582	0.399881	0.102707
C33	C	-0.061796	0.406651	-0.102267
C34	C	-0.061282	0.356236	-0.102259
C35	C	-0.064412	0.327645	0.000235
C36	C	-0.055502	-0.208398	-0.102157
C37	C	-0.054990	-0.258815	-0.102139
C38	C	-0.061774	-0.265580	0.102834
C39	C	-0.062288	-0.215168	0.102818
C40	C	-0.059150	-0.186577	0.000313
O41	O	-0.065997	-0.138290	0.189897
O42	O	-0.053421	-0.125725	-0.189335
C43	C	-0.058640	0.099121	-0.102216
C44	C	-0.062287	0.120941	0.000262
C45	C	-0.065421	0.092350	0.102749
C46	C	-0.062806	0.171355	0.000255
C47	C	-0.059672	0.199947	-0.102231
C48	C	-0.056019	0.178125	-0.204711
C49	C	-0.055506	0.127713	-0.204702
C50	C	-0.069074	0.114172	0.205229
C51	C	-0.069588	0.164584	0.205212
C52	C	-0.066454	0.193176	0.102725
C53	C	-0.150191	0.566343	0.000306
C54	C	-0.203847	0.566896	0.000317
C55	C	-0.542667	0.526193	0.000243
C56	C	-0.744326	0.528245	0.000231
O57	O	-0.775587	0.491025	0.000164
N58	N	-0.763442	0.572580	0.000253
C59	C	-0.732139	0.616407	0.000272
O60	O	-0.753025	0.654164	0.000279
C61	C	-0.530481	0.614355	0.000276
C62	C	-0.511369	0.570016	0.000265
C63	C	-0.523554	0.481858	0.000231
C64	C	-0.473143	0.481345	0.000240
C65	C	-0.441844	0.525168	0.000262
C66	C	-0.460957	0.569503	0.000274
C67	C	-0.499179	0.658181	0.000286
C68	C	-0.448762	0.657664	0.000284
C69	C	-0.429649	0.613325	0.000273
C70	C	-0.379247	0.612813	0.000305
N71	N	-0.360131	0.568478	0.000283
C72	C	-0.391430	0.524655	0.000261
C73	C	-0.838013	0.617481	0.000271
C74	C	-0.888427	0.617994	0.000272
C75	C	-0.900611	0.529832	0.000230
C76	C	-0.850196	0.529319	0.000237
C77	C	-0.818897	0.573145	0.000249
C78	C	-0.285561	0.523582	0.000282
C79	C	-0.235145	0.523073	0.000296
C80	C	-0.222966	0.611235	0.000332
C81	C	-0.273378	0.611744	0.000324
C82	C	-0.304675	0.567913	0.000295
O83	O	-0.347958	0.650013	0.000359
O84	O	-0.370534	0.486904	0.000229
C85	C	-0.593079	0.526706	0.000234
C86	C	-0.612192	0.571041	0.000246
C87	C	-0.580893	0.614864	0.000268
C88	C	-0.662606	0.571554	0.000247
C89	C	-0.693905	0.527731	0.000226
C90	C	-0.674789	0.483396	0.000203
C91	C	-0.624377	0.482883	0.000212
C92	C	-0.600009	0.659199	0.000290
C93	C	-0.650421	0.659708	0.000282
C94	C	-0.681720	0.615886	0.000261
C95	C	0.026619	0.574723	0.000270
C96	C	0.080274	0.574171	0.000251
C97	C	-0.057581	0.658938	0.000328
C98	C	-0.058124	0.712594	0.000347
N99	N	-0.071486	0.560824	0.293194
N100	N	-0.052083	0.580246	-0.292617
C101	C	-0.013103	0.619229	0.529858
C102	C	-0.017020	0.615316	0.648199
C103	C	-0.083232	0.549085	0.648219
C104	C	-0.079316	0.552997	0.529878
C105	C	-0.044251	0.588071	0.470702
C106	C	-0.040337	0.591985	0.352359
C107	C	-0.106547	0.525752	0.352381
C108	C	-0.110463	0.521839	0.470722
H109	H	-0.051924	0.050164	-0.288147
H110	H	-0.514731	0.694286	0.000294
H111	H	-0.011787	0.620545	0.304178
H112	H	-0.050992	-0.041284	-0.288132
H113	H	-0.131910	0.500382	0.304203
H114	H	-0.070612	0.326193	0.186182
H115	H	-0.052021	-0.276578	-0.185600
O116	O	-0.073113	0.185702	0.304876
C117	C	-0.079808	0.173649	0.508182
C118	C	-0.075812	0.149674	0.395400
H119	H	-0.082002	0.144531	0.581399
H120	H	-0.046369	0.201745	0.513371
H121	H	-0.114049	0.192421	0.513264
H122	H	-0.041591	0.130876	0.390242
H123	H	-0.109276	0.121604	0.390258
O124	O	0.021015	0.653250	0.472405
C125	C	0.106462	0.683434	0.436176
C126	C	0.067878	0.644867	0.501298
H127	H	0.144359	0.676676	0.459531
H128	H	0.103945	0.680873	0.341424
H129	H	0.099639	0.721329	0.459424
H130	H	0.074676	0.606955	0.478145
H131	H	0.070404	0.647471	0.596035
O132	O	-0.053043	0.205946	-0.304196
C133	C	-0.091591	0.260989	-0.423163
C134	C	-0.095022	0.229507	-0.310455
H135	H	-0.125532	0.280038	-0.428271
H136	H	-0.057844	0.289470	-0.428302
H137	H	-0.088870	0.236732	-0.496400
H138	H	-0.097763	0.253724	-0.237154
H139	H	-0.128764	0.201022	-0.305415
H140	H	-0.059246	0.429939	-0.185716
H141	H	-0.423280	0.693354	0.000288
H142	H	0.008344	0.640688	0.696361
H143	H	-0.071623	0.090897	0.288687
O144	O	-0.070585	-0.064777	0.304925
C145	C	-0.077334	-0.066162	0.508229
C146	C	-0.073874	-0.034733	0.395441
H147	H	-0.079984	-0.041883	0.581441
H148	H	-0.111115	-0.094605	0.513452
H149	H	-0.043426	-0.085266	0.513286
H150	H	-0.107756	-0.015597	0.390308
H151	H	-0.040071	-0.006319	0.390266
O152	O	-0.117236	0.514949	0.705669
C153	C	-0.147362	0.429489	0.741855
C154	C	-0.108819	0.468098	0.676739
H155	H	-0.140577	0.391601	0.718471
H156	H	-0.144804	0.432004	0.836608
H157	H	-0.185266	0.436285	0.718631
H158	H	-0.070898	0.461327	0.699867
H159	H	-0.111420	0.465573	0.582001
O160	O	-0.144473	0.487706	0.528163
C161	C	-0.174615	0.402249	0.564333
C162	C	-0.136062	0.440853	0.499233
H163	H	-0.167834	0.364360	0.540950
H164	H	-0.172063	0.404762	0.659089
H165	H	-0.212514	0.409053	0.541094
H166	H	-0.098145	0.434074	0.522378
H167	H	-0.138656	0.438331	0.404493
O168	O	-0.065814	-0.194044	0.202471
C169	C	-0.072512	-0.206089	0.405778
C170	C	-0.068517	-0.230068	0.293001
H171	H	-0.074709	-0.235205	0.479001
H172	H	-0.039072	-0.177994	0.410964
H173	H	-0.106752	-0.187314	0.410852
H174	H	-0.034298	-0.248870	0.287851
H175	H	-0.101982	-0.258137	0.287862
H176	H	-0.457586	0.445240	0.000222
O177	O	-0.553899	0.439258	0.000064
C178	C	-0.576517	0.367299	-0.097386
C179	C	-0.542116	0.415529	-0.097335
H180	H	-0.567009	0.348105	-0.176136
H181	H	-0.572203	0.342825	-0.018765
H182	H	-0.615833	0.375280	-0.097324
H183	H	-0.502785	0.407592	-0.097437
H184	H	-0.546472	0.439987	-0.175949
O185	O	-0.052475	-0.180705	-0.201830
C186	C	-0.045674	-0.179322	-0.405133
C187	C	-0.049103	-0.210742	-0.292338
H188	H	-0.042936	-0.203592	-0.478338
H189	H	-0.079594	-0.160244	-0.410330
H190	H	-0.011914	-0.150858	-0.410227
H191	H	-0.082842	-0.239231	-0.287168
H192	H	-0.015159	-0.229784	-0.287188
H193	H	-0.064327	-0.288869	0.186277
H194	H	-0.058312	0.338474	-0.185713
O195	O	-0.216659	0.479959	0.000230
C196	C	-0.234075	0.392567	0.000253
C197	C	-0.255072	0.441357	0.000304
H198	H	-0.265123	0.361344	0.000337
H199	H	-0.208184	0.392698	-0.078442
H200	H	-0.213371	0.387539	0.078918
H201	H	-0.275800	0.446417	-0.078308
H202	H	-0.280938	0.441204	0.079051
O203	O	-0.291865	0.654858	0.000286
C204	C	-0.274455	0.742246	0.000371
C205	C	-0.253459	0.693454	0.000408
H206	H	-0.243415	0.773464	0.000494
H207	H	-0.295118	0.747330	-0.078340
H208	H	-0.300385	0.742061	0.079020
H209	H	-0.227510	0.693605	-0.078188
H210	H	-0.232825	0.688390	0.079171
H211	H	-0.071560	0.417641	0.186162
H212	H	-0.071005	0.031101	0.288715
O213	O	-0.192531	0.653796	0.000151
C214	C	-0.125283	0.707584	-0.097204
C215	C	-0.159729	0.659376	-0.097141
H216	H	-0.098748	0.712106	-0.175844
H217	H	-0.147572	0.739386	-0.097271
H218	H	-0.104008	0.706931	-0.018487
H219	H	-0.181012	0.659981	-0.175845
H220	H	-0.137413	0.627594	-0.097016
H221	H	-0.574530	0.694886	0.000307
H222	H	-0.608821	0.446778	0.000204
O223	O	-0.705210	0.440845	-0.000021
C224	C	-0.765997	0.393514	-0.097430
C225	C	-0.731557	0.441716	-0.097321
H226	H	-0.787315	0.394206	-0.176076
H227	H	-0.743703	0.361717	-0.097516
H228	H	-0.792495	0.388949	-0.018720
H229	H	-0.705053	0.446329	-0.176017
H230	H	-0.753882	0.473489	-0.097176
H231	H	-0.052535	0.109952	-0.288157
H232	H	-0.311038	0.487891	0.000257
H233	H	-0.665977	0.695817	0.000300
H234	H	-0.834638	0.493214	0.000232
O235	O	-0.930964	0.487235	0.000051
C236	C	-0.953602	0.415295	-0.097449
C237	C	-0.919185	0.463512	-0.097362
H238	H	-0.944098	0.396106	-0.176210
H239	H	-0.949302	0.390809	-0.018839
H240	H	-0.992914	0.423292	-0.097393
H241	H	-0.879860	0.455561	-0.097458
H242	H	-0.923528	0.487984	-0.175964
O243	O	-0.906908	0.661108	0.000245
C244	C	-0.889491	0.748496	0.000347
C245	C	-0.868499	0.699702	0.000360
H246	H	-0.858449	0.779711	0.000464
H247	H	-0.910161	0.753585	-0.078352
H248	H	-0.915414	0.748309	0.079008
H249	H	-0.842557	0.699854	-0.078248
H250	H	-0.847859	0.694632	0.079111
H251	H	-0.812534	0.653171	0.000283
