data_functionalizedCrystal
_audit_creation_method	'MofGen! by Chris Wilmer'
_symmetry_space_group_name_H-M	'P1'
_symmetry_Int_Tables_number	1
_symmetry_cell_setting	triclinic
loop_
_symmetry_equiv_pos_as_xyz
  x,y,z
_cell_length_a	17.699077
_cell_length_b	23.532357
_cell_length_c	16.176319
_cell_angle_alpha	89.987656
_cell_angle_beta	89.993140
_cell_angle_gamma	83.054434
loop_
_atom_site_label
_atom_site_type_symbol
_atom_site_fract_x
_atom_site_fract_y
_atom_site_fract_z
O1	O	1.003699	0.072006	-0.068746
O2	O	0.783270	0.081379	-0.068751
O3	O	0.900151	-0.006222	-0.068731
O4	O	0.886818	0.159607	-0.068765
O5	O	0.900135	-0.006228	0.068762
O6	O	0.783254	0.081374	0.068742
O7	O	1.003683	0.072000	0.068748
Cu8	Cu	0.893467	0.076686	0.081299
Cu9	Cu	0.893486	0.076693	-0.081303
O10	O	0.886802	0.159601	0.068728
C11	C	0.755067	0.081041	-0.000005
C12	C	0.671054	0.080035	-0.000006
C13	C	0.631580	0.079558	0.074942
C14	C	0.552643	0.078604	0.074943
C15	C	0.513180	0.078131	-0.000005
C16	C	0.552659	0.078606	-0.074959
C17	C	0.631596	0.079556	-0.074959
C18	C	0.234316	0.074774	-0.074960
C19	C	0.155374	0.073825	-0.074954
C20	C	0.155363	0.073821	0.074943
C21	C	0.234300	0.074771	0.074943
C22	C	0.273773	0.075244	-0.000011
C23	C	0.359366	0.076277	-0.000011
C24	C	0.427587	0.077101	-0.000005
C25	C	0.899810	-0.027443	0.000018
C26	C	0.898807	-0.090664	0.000026
C27	C	0.892521	-0.482690	-0.074967
C28	C	0.891568	-0.542092	-0.074971
O29	O	0.891057	-0.572808	-0.138711
N30	N	0.891086	-0.571808	-0.000025
C31	C	0.891551	-0.542118	0.074931
O32	O	0.891053	-0.572847	0.138679
C33	C	0.892498	-0.482716	0.074935
C34	C	0.892987	-0.453004	-0.000016
C35	C	0.893009	-0.452978	-0.149912
C36	C	0.893964	-0.393581	-0.149907
C37	C	0.894430	-0.363894	-0.074956
C38	C	0.893942	-0.393606	-0.000011
C39	C	0.892957	-0.453026	0.149890
C40	C	0.893904	-0.393620	0.149888
C41	C	0.894393	-0.363909	0.074936
C42	C	0.895363	-0.304522	0.074944
N43	N	0.895844	-0.274807	-0.000002
C44	C	0.895378	-0.304493	-0.074953
C45	C	0.889559	-0.666865	0.074917
C46	C	0.888617	-0.726266	0.074914
C47	C	0.888633	-0.726237	-0.074989
C48	C	0.889580	-0.666835	-0.074985
C49	C	0.890040	-0.637149	-0.000029
C50	C	0.897383	-0.179753	-0.074936
C51	C	0.898341	-0.120350	-0.074925
C52	C	0.898321	-0.120384	0.074978
C53	C	0.897367	-0.179782	0.074967
C54	C	0.896896	-0.209465	0.000003
O55	O	0.895872	-0.273769	0.138652
O56	O	0.895866	-0.273755	-0.138689
C57	C	1.031886	0.072338	-0.000000
C58	C	1.115899	0.073344	-0.000005
C59	C	0.887143	0.180822	-0.000023
C60	C	0.888146	0.244043	-0.000036
N61	N	0.893460	0.076681	0.195664
N62	N	0.893500	0.076693	-0.195668
C63	C	0.945230	0.037907	0.238937
C64	C	0.945234	0.037907	0.325484
C65	C	0.893470	0.076683	0.368757
C66	C	0.841694	0.115459	0.325478
C67	C	0.841688	0.115457	0.238932
C68	C	0.841720	0.115470	0.674506
C69	C	0.841733	0.115471	0.761058
C70	C	0.945266	0.037920	0.761058
C71	C	0.945260	0.037917	0.674513
C72	C	0.893481	0.076691	0.631241
C73	C	0.893477	0.076690	0.537397
C74	C	0.893478	0.076687	0.462599
H75	H	0.123245	0.073439	-0.135990
H76	H	0.520523	0.078217	-0.135983
H77	H	0.888250	-0.750417	-0.136017
C78	C	0.509160	0.078425	0.157383
H79	H	0.456478	0.077889	0.146651
H80	H	0.516209	0.111885	0.187848
H81	H	0.527941	0.045482	0.188506
H82	H	0.987413	0.006344	0.639283
C83	C	1.002215	-0.004737	0.808659
H84	H	0.994802	0.000811	0.866400
H85	H	1.052675	0.001400	0.794462
H86	H	0.994287	-0.042741	0.794488
C87	C	0.894487	-0.360904	-0.232354
H88	H	0.894064	-0.387097	-0.276986
H89	H	0.938997	-0.342135	-0.235481
H90	H	0.850707	-0.333326	-0.235468
H91	H	0.888230	-0.750453	0.135947
H92	H	0.123215	0.073434	0.135974
H93	H	0.266427	0.075159	0.135973
H94	H	0.663734	0.079946	-0.135990
H95	H	0.799544	0.147030	0.360715
H96	H	0.898704	-0.096204	0.136000
C97	C	0.784788	0.158123	0.808660
H98	H	0.792216	0.152574	0.866401
H99	H	0.734325	0.151984	0.794496
H100	H	0.792708	0.196129	0.794460
H101	H	0.266446	0.075156	-0.135992
C102	C	1.002170	-0.004749	0.191345
H103	H	1.032997	-0.027845	0.229515
H104	H	1.033512	0.015705	0.157567
H105	H	0.975121	-0.028434	0.157601
H106	H	0.898741	-0.096162	-0.135962
H107	H	0.889936	-0.642699	0.135959
H108	H	0.896995	-0.203913	-0.135979
C109	C	0.892500	-0.485627	-0.232362
H110	H	0.891861	-0.525261	-0.221645
H111	H	0.936802	-0.480288	-0.263150
H112	H	0.848512	-0.471476	-0.263158
C113	C	0.784743	0.158110	0.191332
H114	H	0.753920	0.181209	0.229497
H115	H	0.753397	0.137653	0.157585
H116	H	0.811785	0.181793	0.157557
H117	H	0.799562	0.147042	0.639281
C118	C	0.674987	0.080080	0.157385
H119	H	0.727651	0.080719	0.146653
H120	H	0.668079	0.046725	0.188188
H121	H	0.656012	0.113126	0.188171
H122	H	0.889977	-0.642647	-0.136017
H123	H	0.892560	-0.477207	0.210924
H124	H	0.896976	-0.203976	0.135998
C125	C	0.894411	-0.360967	0.232339
H126	H	0.895042	-0.321333	0.221613
H127	H	0.938391	-0.375117	0.263140
H128	H	0.850100	-0.366299	0.263125
C129	C	1.002188	-0.004740	0.373081
H130	H	1.033023	-0.027828	0.334914
H131	H	0.975160	-0.028425	0.406860
H132	H	1.033533	0.015727	0.406825
