data_functionalizedCrystal
_audit_creation_method	'MofGen! by Chris Wilmer'
_symmetry_space_group_name_H-M	'P1'
_symmetry_Int_Tables_number	1
_symmetry_cell_setting	triclinic
loop_
_symmetry_equiv_pos_as_xyz
  x,y,z
_cell_length_a	6.394989
_cell_length_b	16.109301
_cell_length_c	14.586319
_cell_angle_alpha	89.999213
_cell_angle_beta	90.000822
_cell_angle_gamma	95.020404
loop_
_atom_site_label
_atom_site_type_symbol
_atom_site_fract_x
_atom_site_fract_y
_atom_site_fract_z
O1	O	-0.268480	1.105973	-0.076176
O2	O	-0.301892	0.864265	-0.076190
O3	O	0.018881	0.988550	-0.076184
O4	O	-0.589253	0.981688	-0.076183
O5	O	0.018885	0.988541	0.076297
O6	O	-0.301887	0.864256	0.076291
O7	O	-0.268475	1.105964	0.076305
Cu8	Cu	-0.285181	0.985109	0.090220
Cu9	Cu	-0.285186	0.985120	-0.090106
O10	O	-0.589248	0.981679	0.076298
C11	C	-0.300536	0.833271	0.000048
C12	C	-0.296479	0.740933	0.000043
C13	C	-0.477384	0.520575	0.000054
C14	C	-0.473555	0.433814	0.000060
C15	C	-0.092969	0.449660	0.000055
C16	C	-0.096800	0.536419	0.000056
C17	C	-0.289014	0.571874	0.000051
C18	C	-0.281354	0.398354	0.000056
C19	C	-0.277201	0.304284	0.000062
C20	C	-0.293168	0.665950	0.000046
C21	C	0.096703	0.987189	0.000053
C22	C	0.332935	0.983042	0.000052
C23	C	-0.269831	1.136958	0.000064
C24	C	-0.273889	1.229296	0.000063
N25	N	-0.285176	0.985108	0.217052
N26	N	-0.285175	0.985127	-0.216938
C27	C	-0.143185	1.040160	0.452061
C28	C	-0.143180	1.040163	0.548043
C29	C	-0.427172	0.930069	0.548046
C30	C	-0.427166	0.930063	0.452067
C31	C	-0.285175	0.985113	0.404077
C32	C	-0.285176	0.985122	0.596038
C33	C	-0.285172	0.985124	0.700105
C34	C	-0.285176	0.985110	0.300003
H35	H	0.056603	0.578189	0.000056
Br36	Br	0.049521	1.114870	0.386935
Br37	Br	-0.729212	0.364197	0.000069
Br38	Br	-0.619872	0.855362	0.613179
Br39	Br	0.049537	1.114868	0.613163
Br40	Br	-0.619863	0.855345	0.386937
H41	H	0.063525	0.420781	0.000065
H42	H	-0.633896	0.549440	0.000056
