data_functionalizedCrystal
_audit_creation_method	'MofGen! by Chris Wilmer'
_symmetry_space_group_name_H-M	'P1'
_symmetry_Int_Tables_number	1
_symmetry_cell_setting	triclinic
loop_
_symmetry_equiv_pos_as_xyz
  x,y,z
_cell_length_a	26.374263
_cell_length_b	26.373608
_cell_length_c	26.370205
_cell_angle_alpha	60.005297
_cell_angle_beta	60.010839
_cell_angle_gamma	59.993700
loop_
_atom_site_label
_atom_site_type_symbol
_atom_site_fract_x
_atom_site_fract_y
_atom_site_fract_z
O1	O	0.070152	-0.740800	0.619517
O2	O	0.026377	-0.576764	0.499159
O3	O	0.130245	-0.680560	0.499088
O4	O	-0.033715	-0.637003	0.619589
O5	O	0.164701	-0.646107	0.533470
O6	O	0.060833	-0.542310	0.533541
O7	O	0.104608	-0.706346	0.653899
Cu8	Cu	0.085867	-0.621182	0.596859
Cu9	Cu	0.045119	-0.661927	0.556199
O10	O	0.000741	-0.602549	0.653971
N11	N	0.114528	-0.592529	0.625461
N12	N	0.016463	-0.690587	0.527598
C13	C	0.181428	-0.355400	0.692330
C14	C	0.181530	-0.525690	0.862573
C15	C	0.181440	-0.525667	0.692313
C16	C	0.351736	-0.525673	0.692271
C17	C	0.200174	-0.411588	0.711047
C18	C	0.200232	-0.506954	0.806384
C19	C	0.295546	-0.506943	0.711016
C20	C	0.200182	-0.506940	0.711037
C21	C	0.157567	-0.283881	0.668507
C22	C	0.157587	-0.549500	0.668479
C23	C	0.224035	-0.483107	0.734871
C24	C	0.455739	-0.507754	0.637520
C25	C	0.520749	-0.529425	0.615835
C26	C	0.520768	-0.634611	0.655947
C27	C	0.455759	-0.612939	0.677633
C28	C	0.173240	-0.251367	0.604595
C29	C	0.151546	-0.186351	0.582941
C30	C	0.098512	-0.186369	0.689113
C31	C	0.120206	-0.251385	0.710768
C32	C	0.093669	-0.533798	0.684205
C33	C	0.071992	-0.555464	0.662532
C34	C	0.178144	-0.608536	0.609422
C35	C	0.199825	-0.586869	0.631088
C36	C	0.093821	-0.533842	0.966616
C37	C	0.072187	-0.555526	1.031630
C38	C	0.178370	-0.608608	1.031591
C39	C	0.200004	-0.586926	0.966576
C40	C	0.157728	-0.549541	0.934090
C41	C	0.423247	-0.549509	0.668416
C42	C	-0.097522	-0.709158	0.508557
C43	C	-0.002050	-0.709295	0.413344
C44	C	-0.002241	-0.804604	0.508735
C45	C	-0.002225	-0.709288	0.508793
C46	C	-0.026009	-0.733087	0.484858
N47	N	0.552340	-0.592538	0.625346
O48	O	0.750867	-0.598274	0.477076
O49	O	0.751048	-0.718989	0.640960
O50	O	0.750981	-0.718715	0.537020
O51	O	0.750934	-0.598547	0.581017
O52	O	0.647701	-0.684348	0.571512
O53	O	0.647768	-0.684622	0.675452
O54	O	0.647587	-0.563907	0.511569
Cu55	Cu	0.638247	-0.621127	0.596660
Cu56	Cu	0.760388	-0.661769	0.555869
O57	O	0.647654	-0.564181	0.615509
N58	N	0.846295	-0.690358	0.527176
N59	N	0.114503	-0.154778	0.625499
O60	O	-0.033701	0.043855	0.619632
O61	O	0.130190	0.043858	0.498933
O62	O	0.026233	0.043841	0.499224
O63	O	0.070257	0.043872	0.619341
O64	O	0.060690	-0.059448	0.533654
O65	O	0.164647	-0.059431	0.533363
O66	O	0.000756	-0.059434	0.654062
Cu67	Cu	0.085848	-0.068863	0.596857
Cu68	Cu	0.045099	0.053287	0.556138
O69	O	0.104714	-0.059417	0.653771
N70	N	0.016435	0.139202	0.527497
N71	N	0.114760	-0.592585	1.063190
O72	O	0.108896	-0.740779	1.261808
O73	O	-0.011787	-0.576838	1.261822
O74	O	-0.011509	-0.680779	1.261780
O75	O	0.108618	-0.636838	1.261850
O76	O	0.022916	-0.646341	1.158496
O77	O	0.022638	-0.542399	1.158538
O78	O	0.143321	-0.706341	1.158524
Cu79	Cu	0.086123	-0.621225	1.149100
Cu80	Cu	0.045411	-0.661953	1.271246
O81	O	0.143044	-0.602399	1.158566
N82	N	0.016774	-0.690600	1.357156
C83	C	0.039504	-0.538867	0.499769
C84	C	0.168130	-0.667407	0.499680
C85	C	0.091482	-0.744243	0.653289
C86	C	-0.037145	-0.615703	0.653378
C87	C	0.699429	-0.718429	0.678853
C88	C	0.699348	-0.718091	0.550135
C89	C	0.699202	-0.564465	0.473677
C90	C	0.699287	-0.564805	0.602393
C91	C	0.168023	-0.007659	0.499484
C92	C	0.039327	-0.007807	0.499887
C93	C	-0.037119	-0.007789	0.653468
C94	C	0.091620	-0.007770	0.653109
C95	C	-0.011194	-0.538964	1.210181
C96	C	-0.010843	-0.667676	1.210109
C97	C	0.142729	-0.744214	1.210165
C98	C	0.142386	-0.615494	1.210214
H99	H	0.020147	-0.542732	1.058106
C100	C	0.027120	-0.476009	0.449380
C101	C	0.069448	-0.448662	0.432825
C102	C	0.058053	-0.390754	0.386415
H103	H	0.031775	-0.481315	0.414034
H104	H	-0.013979	-0.449965	0.464481
H105	H	0.110537	-0.474699	0.417722
H106	H	0.064800	-0.443340	0.468157
H107	H	0.016955	-0.364710	0.401516
H108	H	0.062708	-0.396066	0.351073
H109	H	0.086767	-0.372189	0.375181
C110	C	0.103147	-0.286573	0.780183
C111	C	0.065796	-0.244195	0.812555
C112	C	0.050075	-0.276588	0.876503
H113	H	0.081064	-0.311939	0.790928
H114	H	0.139908	-0.311921	0.790860
H115	H	0.029041	-0.218857	0.801883
H116	H	0.087867	-0.218827	0.801828
H117	H	0.086836	-0.301937	0.887180
H118	H	0.027993	-0.301954	0.887242
H119	H	0.024735	-0.247840	0.898475
C120	C	0.230971	-0.679892	0.449309
C121	C	0.269247	-0.740496	0.471667
C122	C	0.327143	-0.752017	0.425286
H123	H	0.225637	-0.675272	0.413993
H124	H	0.249621	-0.651221	0.438003
H125	H	0.250602	-0.769159	0.482965
H126	H	0.274600	-0.745131	0.506977
H127	H	0.345793	-0.723345	0.413980
H128	H	0.321802	-0.747393	0.389974
H129	H	0.353122	-0.793134	0.440452
H130	H	0.429307	-0.646943	0.702793
H131	H	-0.084239	-0.606419	0.691217
H132	H	0.699474	-0.756325	0.725922
H133	H	0.100832	-0.791364	0.691090
C134	C	0.699337	-0.768339	0.537477
C135	C	0.699268	-0.745813	0.476861
C136	C	0.699249	-0.792080	0.465181
H137	H	0.735367	-0.803670	0.542033
H138	H	0.663330	-0.779665	0.566112
H139	H	0.735271	-0.734495	0.448233
H140	H	0.663240	-0.710487	0.472290
H141	H	0.663242	-0.803407	0.493817
H142	H	0.735280	-0.827409	0.469740
H143	H	0.699197	-0.776801	0.424055
C144	C	0.699155	-0.514016	0.410872
C145	C	0.699157	-0.536280	0.372534
C146	C	0.699120	-0.489825	0.314672
H147	H	0.663129	-0.478713	0.416253
H148	H	0.735166	-0.502710	0.392241
H149	H	0.663150	-0.547576	0.391161
H150	H	0.735180	-0.571576	0.367135
H151	H	0.735131	-0.478520	0.296041
H152	H	0.663093	-0.454526	0.320060
H153	H	0.699127	-0.504926	0.288651
C154	C	0.026894	-0.007920	0.449539
C155	C	0.069210	-0.061057	0.432986
C156	C	0.057786	-0.061180	0.386600
H157	H	-0.014197	-0.007956	0.464644
H158	H	0.031543	0.028077	0.414190
H159	H	0.064556	-0.097044	0.468328
H160	H	0.110305	-0.061031	0.417870
H161	H	0.062435	-0.025183	0.351251
H162	H	0.016694	-0.061215	0.401710
H163	H	0.086499	-0.097229	0.375359
C164	C	0.699237	-0.514537	0.615072
C165	C	0.699276	-0.537053	0.675698
C166	C	0.699221	-0.490761	0.687402
H167	H	0.735218	-0.503170	0.586466
H168	H	0.663181	-0.479229	0.610504
H169	H	0.735328	-0.572350	0.680261
H170	H	0.663297	-0.548416	0.704317
H171	H	0.663165	-0.455453	0.682834
H172	H	0.735203	-0.479397	0.658792
H173	H	0.699242	-0.506030	0.728539
H174	H	0.214995	-0.007372	0.461496
C175	C	-0.061807	-0.476245	1.210279
C176	C	-0.113745	-0.484428	1.263397
C177	C	-0.160384	-0.426666	1.263504
H178	H	-0.046901	-0.450105	1.210327
H179	H	-0.073127	-0.457656	1.174273
H180	H	-0.102425	-0.503008	1.299394
H181	H	-0.128669	-0.510557	1.263360
H182	H	-0.171704	-0.408076	1.227497
H183	H	-0.145472	-0.400530	1.263550
H184	H	-0.195631	-0.432210	1.299540
C185	C	0.192781	-0.603095	1.210262
C186	C	0.245964	-0.656097	1.210275
C187	C	0.292398	-0.644700	1.210327
H188	H	0.202518	-0.569249	1.174260
H189	H	0.178468	-0.593267	1.246300
H190	H	0.260275	-0.665917	1.174241
H191	H	0.236247	-0.689949	1.246274
H192	H	0.278085	-0.634872	1.246365
H193	H	0.302129	-0.610853	1.174325
H194	H	0.328486	-0.680661	1.210342
C195	C	-0.099933	-0.007744	0.703904
C196	C	-0.138284	-0.007734	0.681651
C197	C	-0.196157	-0.007679	0.728090
H198	H	-0.094576	-0.043745	0.739229
H199	H	-0.118538	0.028297	0.715167
H200	H	-0.119683	-0.043772	0.670397
H201	H	-0.143659	0.028264	0.646332
H202	H	-0.214762	0.028363	0.739353
H203	H	-0.190794	-0.043680	0.763412
H204	H	-0.222187	-0.007666	0.712997
H205	H	0.101045	-0.007760	0.690842
H206	H	0.059274	-0.503369	0.714648
C207	C	-0.061055	-0.680292	1.209990
C208	C	-0.038529	-0.740913	1.209943
C209	C	-0.084763	-0.752554	1.209825
H210	H	-0.096417	-0.675707	1.245981
H211	H	-0.072330	-0.651655	1.173942
H212	H	-0.027263	-0.769542	1.245987
H213	H	-0.003173	-0.745513	1.173954
H214	H	-0.096038	-0.723917	1.173776
H215	H	-0.120122	-0.747966	1.245816
H216	H	-0.069484	-0.793684	1.209787
H217	H	0.180620	-0.791296	1.210154
H218	H	0.212798	-0.639038	1.058038
C219	C	0.047820	-0.493282	0.931461
C220	C	-0.012777	-0.484187	0.973864
C221	C	-0.055168	-0.446836	0.941502
H222	H	0.053969	-0.454278	0.906102
H223	H	0.054015	-0.513127	0.906111
H224	H	-0.018970	-0.464341	0.999203
H225	H	-0.018946	-0.523179	0.999225
H226	H	-0.048973	-0.466681	0.916151
H227	H	-0.049014	-0.407836	0.916143
H228	H	-0.096288	-0.440665	0.970266
H229	H	0.019945	-0.542665	0.675322
C230	C	0.269410	-0.604098	0.931344
C231	C	0.296185	-0.668771	0.947155
C232	C	0.360120	-0.684613	0.914720
H233	H	0.276329	-0.585898	0.887962
H234	H	0.287700	-0.589183	0.942009
H235	H	0.277900	-0.683680	0.936485
H236	H	0.289282	-0.686987	0.990531
H237	H	0.378411	-0.669697	0.925385
H238	H	0.367033	-0.666408	0.871340
H239	H	0.378296	-0.728494	0.925447
C240	C	0.224040	-0.649003	0.568724
C241	C	0.261298	-0.616339	0.514591
C242	C	0.303578	-0.653591	0.477081
H243	H	0.249480	-0.685777	0.590689
H244	H	0.202002	-0.659648	0.558024
H245	H	0.283334	-0.605703	0.525292
H246	H	0.235876	-0.579568	0.492610
H247	H	0.281540	-0.664236	0.466380
H248	H	0.329013	-0.690363	0.499051
H249	H	0.328858	-0.631432	0.440345
C250	C	0.269214	-0.603787	0.613935
C251	C	0.284731	-0.549501	0.581434
C252	C	0.348646	-0.565060	0.565616
H253	H	0.279969	-0.625826	0.650641
H254	H	0.291292	-0.629120	0.588532
H255	H	0.262660	-0.524178	0.606835
H256	H	0.273992	-0.527455	0.544720
H257	H	0.370724	-0.590393	0.540213
H258	H	0.359395	-0.587100	0.602326
H259	H	0.359184	-0.528231	0.543558
H260	H	0.547206	-0.495421	0.590679
C261	C	0.555957	-0.703504	0.666036
C262	C	0.513587	-0.735437	0.697749
C263	C	0.545982	-0.798903	0.707060
H264	H	0.581304	-0.709617	0.627011
H265	H	0.581320	-0.718783	0.689876
H266	H	0.488234	-0.720163	0.673909
H267	H	0.488238	-0.729343	0.736780
H268	H	0.571346	-0.814183	0.730901
H269	H	0.571329	-0.805010	0.668032
H270	H	0.517239	-0.820579	0.728583
H271	H	0.203661	-0.277820	0.570179
C272	C	0.420516	-0.438857	0.627389
C273	C	0.436317	-0.405598	0.563634
C274	C	0.403891	-0.342129	0.554276
H275	H	0.377135	-0.431837	0.644670
H276	H	0.431195	-0.425380	0.647001
H277	H	0.425634	-0.419069	0.544030
H278	H	0.479692	-0.412598	0.546340
H279	H	0.414569	-0.328652	0.573888
H280	H	0.360511	-0.335116	0.571560
H281	H	0.414611	-0.319554	0.511019
H282	H	0.164306	-0.159876	0.530897
H283	H	0.068098	-0.159910	0.723527
