data_functionalizedCrystal
_audit_creation_method	'MofGen! by Chris Wilmer'
_symmetry_space_group_name_H-M	'P1'
_symmetry_Int_Tables_number	1
_symmetry_cell_setting	triclinic
loop_
_symmetry_equiv_pos_as_xyz
  x,y,z
_cell_length_a	15.995350
_cell_length_b	16.992695
_cell_length_c	15.455313
_cell_angle_alpha	87.138508
_cell_angle_beta	92.667328
_cell_angle_gamma	87.080299
loop_
_atom_site_label
_atom_site_type_symbol
_atom_site_fract_x
_atom_site_fract_y
_atom_site_fract_z
O1	O	0.174112	1.043826	-0.072089
O2	O	0.172164	0.815541	-0.072099
O3	O	0.051668	0.935924	-0.072093
O4	O	0.294608	0.923443	-0.072095
O5	O	0.058528	0.929040	0.072169
O6	O	0.179024	0.808657	0.072163
O7	O	0.180972	1.036942	0.072172
Cu8	Cu	0.180625	0.922171	0.085340
Cu9	Cu	0.172512	0.930312	-0.085266
O10	O	0.301468	0.916559	0.072167
C11	C	0.023869	0.931966	0.000036
C12	C	-0.069185	0.930420	0.000031
C13	C	0.173088	0.782887	0.000031
C14	C	0.165612	0.695843	0.000027
C15	C	0.180048	1.069597	0.000041
C16	C	0.187524	1.156641	0.000039
C17	C	-0.407304	0.924864	0.000034
C18	C	-0.365623	0.839145	-0.000293
C19	C	-0.268814	0.840677	0.000032
C20	C	-0.239560	0.927620	0.000032
C21	C	-0.273890	0.965976	0.082413
C22	C	-0.370667	0.963819	0.082482
C23	C	-0.378708	0.973418	-0.081571
C24	C	-0.281815	0.973450	-0.082659
C25	C	-0.144758	0.929182	0.000034
C26	C	-0.502106	0.923305	0.000038
C27	C	0.329267	0.920517	0.000036
C28	C	0.422321	0.922064	0.000035
N29	N	0.186331	0.916451	0.205335
C30	C	0.115389	1.206882	0.000037
C31	C	0.122418	1.288668	0.000040
C32	C	0.201584	1.320213	0.000039
C33	C	0.273725	1.269966	0.000044
C34	C	0.266695	1.188180	0.000047
C35	C	0.230722	1.563811	0.000035
C36	C	0.237747	1.645602	0.000030
C37	C	0.086440	1.664299	0.000027
C38	C	0.079416	1.582512	0.000025
C39	C	0.151557	1.532272	0.000034
N40	N	0.208772	1.403811	0.000039
N41	N	0.144370	1.448674	0.000040
N42	N	0.166799	0.936039	-0.205262
C43	C	0.135161	0.967611	0.250732
C44	C	0.139485	0.963293	0.341540
C45	C	0.194983	0.907816	0.386949
C46	C	0.246154	0.856650	0.341546
C47	C	0.241826	0.860966	0.250740
C48	C	0.213643	0.889189	0.658530
C49	C	0.217969	0.884878	0.749342
C50	C	0.111298	0.991520	0.749329
C51	C	0.106978	0.995834	0.658521
C52	C	0.158146	0.944665	0.613126
N53	N	0.199405	0.903402	0.479769
N54	N	0.153719	0.949076	0.520308
H55	H	-0.245424	0.810254	-0.059022
F56	F	0.322010	1.679172	0.000029
H57	H	0.050923	1.181205	0.000032
F58	F	0.009668	1.717773	0.000022
F59	F	-0.396512	0.798037	-0.077512
H60	H	0.289465	1.522914	0.000039
H61	H	-0.240375	0.804390	0.059184
F62	F	0.305216	0.797604	0.389875
F63	F	0.296286	0.806511	0.202427
F64	F	0.357980	1.303540	0.000045
H65	H	0.063678	1.329571	0.000041
H66	H	0.325436	1.147274	0.000052
H67	H	-0.384706	0.802227	0.058452
F68	F	-0.393460	0.919670	0.162970
H69	H	-0.404092	0.948367	-0.144010
F70	F	-0.407082	1.045857	0.087377
H71	H	0.089973	1.012789	0.213765
F72	F	0.047912	1.054878	0.610194
H73	H	-0.259534	0.945441	-0.143603
H74	H	0.069638	1.033178	0.786298
H75	H	0.097818	1.004951	0.378501
F76	F	-0.249651	1.049274	0.086421
F77	F	0.277043	0.825830	0.797664
H78	H	0.255308	0.847526	0.621576
F79	F	-0.256497	1.056632	-0.089166
H80	H	-0.244559	0.933680	0.143718
H81	H	-0.406265	1.036656	-0.082124
F82	F	-0.004844	1.548947	0.000001
