data_functionalizedCrystal
_audit_creation_method	'MofGen! by Chris Wilmer'
_symmetry_space_group_name_H-M	'P1'
_symmetry_Int_Tables_number	1
_symmetry_cell_setting	triclinic
loop_
_symmetry_equiv_pos_as_xyz
  x,y,z
_cell_length_a	19.377372
_cell_length_b	19.376997
_cell_length_c	14.560438
_cell_angle_alpha	68.964210
_cell_angle_beta	90.000766
_cell_angle_gamma	82.421080
loop_
_atom_site_label
_atom_site_type_symbol
_atom_site_fract_x
_atom_site_fract_y
_atom_site_fract_z
Zr1	Zr	0.764620	0.842049	-0.020123
O2	O	0.689447	0.938376	-0.116983
O3	O	0.768540	0.725026	-0.015069
O4	O	0.796116	0.851198	-0.171142
O5	O	0.661873	0.812203	0.190229
O6	O	0.902014	0.881957	-0.185836
O7	O	0.661870	0.812204	0.039090
O8	O	0.852684	0.656257	0.093350
O9	O	0.711202	1.037903	-0.088956
O10	O	0.872348	0.803779	0.005888
O11	O	0.793319	0.780823	0.129648
O12	O	0.825787	0.929375	-0.054107
O13	O	0.746759	0.906419	0.069653
Zr14	Zr	0.933519	0.891104	0.197492
Zr15	Zr	0.933515	0.891105	-0.043558
Zr16	Zr	0.764624	0.842047	0.220928
Zr17	Zr	0.799317	1.000782	0.024577
Zr18	Zr	0.898821	0.732371	0.152792
O19	O	0.929599	1.008127	0.192438
O20	O	0.929594	1.008129	-0.150305
O21	O	0.689452	0.938374	0.225760
O22	O	1.008692	0.794776	0.294352
O23	O	1.008686	0.794778	-0.048391
O24	O	0.768545	0.725024	0.327674
O25	O	1.036266	0.920950	-0.012860
O26	O	0.902022	0.881954	0.348511
O27	O	0.796125	0.851195	0.363205
O28	O	1.036269	0.920949	0.138280
O29	O	0.845451	1.076896	-0.107584
O30	O	0.852687	0.656256	0.284953
O31	O	0.986936	0.695250	0.266325
O32	O	0.986933	0.695251	0.074722
O33	O	0.711205	1.037902	0.102647
O34	O	0.845454	1.076895	0.084020
O35	O	0.872351	0.803777	0.231476
O36	O	0.951380	0.826733	0.107716
O37	O	0.904819	0.952330	0.047721
O38	O	0.825791	0.929374	0.171481
C39	C	0.805668	0.668025	0.032771
C40	C	0.790939	0.600639	0.013795
C41	C	0.723825	0.543543	-0.072678
C42	C	0.737671	0.606858	-0.054839
C43	C	0.830384	0.531096	0.064614
C44	C	0.816548	0.467774	0.046782
C45	C	0.763267	0.474004	-0.021864
C46	C	0.855990	0.398235	0.097596
C47	C	0.842152	0.334917	0.079769
C48	C	0.788872	0.341139	0.011128
C49	C	0.749429	0.410686	-0.039691
C50	C	0.909268	0.392006	0.166247
C51	C	0.948710	0.322466	0.217060
C52	C	0.934876	0.259148	0.199229
C53	C	0.881596	0.265370	0.130588
C54	C	0.974319	0.189601	0.250048
C55	C	0.960481	0.126284	0.232221
C56	C	0.867758	0.202053	0.112761
C57	C	0.637808	0.805213	0.117999
C58	C	0.566107	0.784388	0.127947
C59	C	0.208776	1.043686	0.004080
C60	C	0.141409	1.024100	0.013437
C61	C	0.190024	0.892987	0.076068
C62	C	0.257397	0.912562	0.066720
C63	C	0.266766	0.987913	0.030724
C64	C	0.315387	0.856789	0.093364
C65	C	0.382753	0.876363	0.084012
C66	C	0.392130	0.951710	0.048015
C67	C	0.334133	1.007487	0.021372
C68	C	0.306016	0.781438	0.129353
C69	C	0.364006	0.725665	0.155998
C70	C	0.431374	0.745239	0.146652
C71	C	0.440750	0.820586	0.110655
C72	C	0.489371	0.689462	0.173295
C73	C	0.556738	0.709037	0.163943
C74	C	0.508117	0.840161	0.101303
C75	C	1.060331	0.927939	0.059371
C76	C	1.132032	0.948765	0.049422
C77	C	0.849065	0.866578	-0.212833
C78	C	0.849063	0.866579	-0.315165
C79	C	0.892470	1.065127	0.144598
C80	C	0.907200	1.132514	0.163574
C81	C	0.824760	0.932138	-0.394559
C82	C	0.824768	0.932136	-0.490710
C83	C	0.873383	0.801011	-0.428063
C84	C	0.873379	0.801014	-0.331914
C85	C	0.849074	0.866575	0.390202
C86	C	0.849076	0.866574	0.492535
C87	C	1.016930	0.729388	0.003458
C88	C	1.073901	0.682828	-0.025468
C89	C	0.805673	0.668024	0.334289
C90	C	0.790945	0.600637	0.417645
C91	C	1.016935	0.729386	0.304975
C92	C	1.073907	0.682825	0.378383
C93	C	0.681204	1.003766	-0.127606
C94	C	0.624232	1.050327	-0.201013
C95	C	0.681208	1.003764	0.173912
C96	C	0.624238	1.050325	0.202837
C97	C	0.892466	1.065129	-0.156920
C98	C	0.907194	1.132516	-0.240276
C99	C	1.059401	0.648981	-0.092215
C100	C	1.112926	0.605239	-0.119412
C101	C	1.180950	0.595341	-0.079856
C102	C	1.195450	0.629194	-0.013105
C103	C	1.141926	0.672939	0.014086
C104	C	0.825282	0.580973	0.509953
C105	C	0.811442	0.517664	0.588287
C106	C	0.763268	0.474016	0.574309
C107	C	0.728927	0.493685	0.481992
C108	C	0.742764	0.556996	0.403662
C109	C	1.141921	0.672945	0.348253
C110	C	1.195461	0.629206	0.417219
C111	C	1.180984	0.595345	0.516313
C112	C	1.112963	0.605230	0.546443
C113	C	1.059426	0.648972	0.477479
C114	C	0.556220	1.060216	-0.170881
C115	C	0.502684	1.103974	-0.239842
C116	C	0.517162	1.137838	-0.338935
C117	C	0.585181	1.127949	-0.369067
C118	C	0.638716	1.084196	-0.300105
C119	C	0.638740	1.084179	0.269576
C120	C	0.585218	1.127938	0.296752
C121	C	0.517195	1.137838	0.257193
C122	C	0.502694	1.103982	0.190446
C123	C	0.556216	1.060228	0.163266
C124	C	0.955372	1.176146	-0.226268
C125	C	0.969224	1.239459	-0.304585
C126	C	0.934894	1.259144	-0.396907
C127	C	0.886714	1.215508	-0.410914
C128	C	0.872866	1.152193	-0.332600
H129	H	0.824377	0.207129	0.056853
O130	O	0.600785	1.164474	-0.475951
H131	H	0.639798	1.202830	-0.482165
O132	O	0.899597	0.730309	-0.246260
H133	H	0.867633	0.686191	-0.243618
O134	O	0.429325	1.114662	0.147781
H135	H	0.394550	1.150769	0.177908
O136	O	0.798559	1.002848	-0.576345
H137	H	0.753782	0.993311	-0.615610
O138	O	0.899606	0.730292	-0.446119
H139	H	0.857148	0.714474	-0.482364
H140	H	0.689703	0.458138	0.470625
H141	H	1.224526	0.559719	-0.102004
O142	O	1.097273	0.568731	-0.191405
H143	H	1.145917	0.536656	-0.203686
H144	H	0.777605	0.289580	-0.003382
O145	O	0.691963	0.417395	-0.113732
H146	H	0.666856	0.476388	-0.146073
O147	O	0.712079	1.073540	-0.332592
H148	H	0.729492	1.013186	-0.315807
O149	O	0.877244	0.628040	0.525050
H150	H	0.881109	0.675368	0.455079
H151	H	1.250842	0.621129	0.019095
O152	O	0.748349	0.405728	0.658795
H153	H	0.761551	0.355531	0.638905
H154	H	1.153741	0.700493	0.068441
O155	O	0.848496	0.496447	0.687846
H156	H	0.884329	0.537427	0.684391
H157	H	0.694123	1.076122	0.301801
O158	O	0.924193	0.460301	0.185470
H159	H	0.917002	0.451687	0.264257
H160	H	0.804960	0.985525	-0.380927
H161	H	0.544418	1.032642	-0.090200
H162	H	0.597038	1.155497	0.351103
O163	O	0.540570	1.023706	0.091291
H164	H	0.484275	1.037939	0.068364
O165	O	0.459413	1.185026	-0.413306
H166	H	0.480901	1.206920	-0.487277
H167	H	0.983330	1.160129	-0.151101
O168	O	0.459464	1.185006	0.286542
H169	H	0.480980	1.206867	0.339614
O170	O	1.021187	1.286520	-0.289468
H171	H	1.042720	1.262197	-0.212108
O172	O	0.949824	1.327442	-0.481369
H173	H	0.989087	1.354475	-0.456105
H174	H	1.004018	0.657039	-0.124442
H175	H	0.714802	0.572997	0.328502
H176	H	0.182385	0.831636	0.105373
O177	O	0.820896	1.105146	-0.347725
H178	H	0.847268	1.047397	-0.332200
H179	H	1.153721	0.700509	0.267569
H180	H	0.858766	1.231546	-0.486093
O181	O	1.268819	0.618540	0.384710
H182	H	1.269882	0.649423	0.304214
O183	O	1.238728	0.548157	0.590691
H184	H	1.288452	0.546972	0.553080
H185	H	0.680444	0.548619	-0.128585
O186	O	0.695126	0.681865	-0.109657
H187	H	0.713695	0.724848	-0.085726
O188	O	1.097350	0.568695	0.653321
H189	H	1.146007	0.536611	0.696201
H190	H	0.992089	0.317404	0.272954
O191	O	0.887860	0.524381	0.138637
H192	H	0.890862	0.580094	0.142489
O193	O	1.031790	0.182887	0.324077
H194	H	1.034788	0.238600	0.327931
O195	O	0.986066	0.659605	0.509986
H196	H	0.985517	0.686449	0.565760
O197	O	1.003024	0.051276	0.287015
H198	H	1.042404	0.057584	0.337734
H199	H	0.447304	1.112015	-0.215290
H200	H	0.515745	0.901519	0.072024
H201	H	0.341761	1.068846	-0.007907
O202	O	0.464787	0.972832	0.037919
H203	H	0.493046	0.949701	0.111231
H204	H	0.216404	1.105045	-0.025199
H205	H	0.251160	0.765504	0.136959
O206	O	0.078857	1.084258	-0.015294
H207	H	0.096694	1.139940	-0.041886
O208	O	0.353899	0.644396	0.194821
H209	H	0.297313	0.640153	0.196853
O210	O	0.479263	0.608193	0.212110
H211	H	0.422676	0.603953	0.214137
H212	H	0.603956	0.663620	0.185659
