data_functionalizedCrystal
_audit_creation_method	'MofGen! by Chris Wilmer'
_symmetry_space_group_name_H-M	'P1'
_symmetry_Int_Tables_number	1
_symmetry_cell_setting	triclinic
loop_
_symmetry_equiv_pos_as_xyz
  x,y,z
_cell_length_a	14.908941
_cell_length_b	14.908520
_cell_length_c	14.908308
_cell_angle_alpha	83.639235
_cell_angle_beta	83.630660
_cell_angle_gamma	96.419019
loop_
_atom_site_label
_atom_site_type_symbol
_atom_site_fract_x
_atom_site_fract_y
_atom_site_fract_z
Zn1	Zn	-1.335359	0.308088	-0.450935
Zn2	Zn	-1.335256	0.450739	-0.308311
Zn3	Zn	-1.192730	0.308126	-0.308312
Zn4	Zn	-1.174091	0.469283	-0.469473
O5	O	-1.259359	0.384059	-0.384258
O6	O	-1.462484	0.319234	-0.424257
O7	O	-1.324107	0.424077	-0.181177
O8	O	-1.219494	0.180976	-0.319473
O9	O	-1.462408	0.424040	-0.319472
O10	O	-1.324283	0.180948	-0.424258
O11	O	-1.219394	0.319299	-0.181177
O12	O	-1.063119	0.337280	-0.337448
O13	O	-1.187726	0.455645	-0.594148
O14	O	-1.049425	0.455682	-0.455853
O15	O	-1.306209	0.337216	-0.580529
O16	O	-1.306033	0.580344	-0.337448
O17	O	-1.187626	0.593968	-0.455852
C18	C	-1.023306	0.398498	-0.398663
C19	C	-0.922319	0.404698	-0.404848
C20	C	-0.746763	0.292893	-0.293328
C21	C	-0.651877	0.298715	-0.299137
C22	C	-0.637659	0.422170	-0.422269
C23	C	-0.732545	0.416347	-0.416460
C24	C	-0.787094	0.351706	-0.351989
C25	C	-0.881982	0.345879	-0.346185
C26	C	-0.867763	0.469337	-0.469312
C27	C	-0.772877	0.475160	-0.475121
C28	C	-1.244819	0.620123	-0.398680
C29	C	-1.238680	0.721110	-0.404875
C30	C	-1.244900	0.398495	-0.621225
C31	C	-1.238738	0.404646	-0.722206
C32	C	-0.496335	0.369555	-0.369790
C33	C	-0.597322	0.363351	-0.363606
C34	C	-1.273979	0.147073	-0.369797
C35	C	-1.280210	0.046083	-0.363635
C36	C	-1.350556	0.896624	-0.293309
C37	C	-1.344791	0.991509	-0.299126
C38	C	-1.221391	1.005766	-0.422332
C39	C	-1.227156	0.910881	-0.416515
C40	C	-1.291739	0.856313	-0.352000
C41	C	-1.297499	0.761426	-0.346178
C42	C	-1.174104	0.775686	-0.469388
C43	C	-1.168339	0.870571	-0.475206
C44	C	-1.350535	0.292864	-0.897779
C45	C	-1.344748	0.298640	-0.992660
C46	C	-1.221375	0.421971	-1.006850
C47	C	-1.227162	0.416194	-0.911969
C48	C	-1.291745	0.351640	-0.857437
C49	C	-1.297535	0.345868	-0.762555
C50	C	-1.174158	0.469194	-0.776746
C51	C	-1.168372	0.474970	-0.871627
C52	C	-1.273818	0.369611	-0.148205
C53	C	-1.280172	0.363193	-0.047198
H54	H	-0.728451	0.527791	-0.527609
O55	O	-1.420212	0.837753	-0.223738
H56	H	-1.407944	0.852603	-0.154482
O57	O	-0.805596	0.223173	-0.223794
H58	H	-0.849183	0.176833	-0.259064
O59	O	-0.940811	0.276164	-0.276643
H60	H	-0.984398	0.229815	-0.311903
O61	O	-1.110719	0.532589	-0.733255
H62	H	-1.151150	0.573706	-0.690361
O63	O	-1.367193	0.276245	-0.703739
H64	H	-1.361350	0.282108	-0.630984
H65	H	-1.392687	1.024326	-0.251336
H66	H	-0.619043	0.250823	-0.251370
H67	H	-1.350084	0.716997	-0.293645
H68	H	-1.403125	0.240305	-0.853378
O69	O	-1.151727	1.064627	-0.491903
H70	H	-1.157597	1.137378	-0.486079
O71	O	-0.911260	0.532775	-0.532593
H72	H	-0.954127	0.573814	-0.492039
H73	H	-1.115789	0.527527	-0.916039
O74	O	-1.408162	0.235253	-1.036177
H75	H	-1.454044	0.189401	-0.982314
O76	O	-1.098671	0.929426	-0.544776
H77	H	-1.104535	1.002179	-0.538956
H78	H	-0.593230	0.474805	-0.474750
O79	O	-1.110644	0.732216	-0.532687
H80	H	-1.120690	0.753785	-0.604176
H81	H	-1.168795	0.474528	-1.051266
