data_functionalizedCrystal
_audit_creation_method	'MofGen! by Chris Wilmer'
_symmetry_space_group_name_H-M	'P1'
_symmetry_Int_Tables_number	1
_symmetry_cell_setting	triclinic
loop_
_symmetry_equiv_pos_as_xyz
  x,y,z
_cell_length_a	8.497374
_cell_length_b	8.497365
_cell_length_c	12.759395
_cell_angle_alpha	89.967478
_cell_angle_beta	89.996173
_cell_angle_gamma	89.956729
loop_
_atom_site_label
_atom_site_type_symbol
_atom_site_fract_x
_atom_site_fract_y
_atom_site_fract_z
Zn1	Zn	-0.627628	-0.892046	1.606529
Zn2	Zn	-0.891572	-0.628286	1.606443
Zn3	Zn	-0.627803	-0.628273	1.430792
Zn4	Zn	-0.891363	-0.892018	1.430878
O5	O	-0.759591	-0.760156	1.518660
O6	O	-0.662655	-0.857075	1.753538
O7	O	-0.856742	-0.407521	1.583071
O8	O	-0.407017	-0.663269	1.454103
O9	O	-0.856573	-0.663291	1.753476
O10	O	-0.406889	-0.857062	1.583216
O11	O	-0.662953	-0.407512	1.454020
O12	O	-0.662751	-0.663242	1.283782
O13	O	-0.856218	-1.112784	1.454251
O14	O	-0.856387	-0.857014	1.283846
O15	O	-0.662453	-1.112805	1.583300
O16	O	-1.112306	-0.663264	1.583155
O17	O	-1.112153	-0.857027	1.454168
C18	C	-0.759567	-0.760125	1.245693
C19	C	-0.759594	-0.760149	1.128916
C20	C	-0.348111	-0.760163	1.518652
C21	C	-0.169467	-0.760168	1.518652
C22	C	-0.759763	-0.350275	1.518585
C23	C	-0.759440	-0.171632	1.518734
C24	C	-0.558028	-0.962314	0.909547
C25	C	-0.457211	-1.063352	0.964446
C26	C	-0.457184	-1.063324	1.074167
C27	C	-0.557988	-0.962252	1.128993
C28	C	-0.658804	-0.861214	1.074094
C29	C	-0.658817	-0.861249	0.964370
C30	C	-0.860411	-0.659111	1.074017
C31	C	-0.860432	-0.659128	0.964296
C32	C	-0.961215	-0.558039	1.128842
C33	C	-1.062026	-0.456991	1.073943
C34	C	-1.062048	-0.457021	0.964215
C35	C	-0.961249	-0.558091	0.909397
C36	C	-0.759617	-0.760187	1.792694
C37	C	-0.759628	-0.760201	1.909471
H38	H	-0.375142	-1.145646	0.919795
N39	N	-0.558056	-0.962333	0.791205
H40	H	-0.528973	-0.854162	0.764724
H41	H	-0.478916	-1.041756	0.764887
H42	H	-0.961195	-0.558033	1.218184
N43	N	-0.348461	-1.172314	1.133382
H44	H	-0.412645	-1.245299	1.178943
H45	H	-0.284642	-1.236245	1.081935
N46	N	-0.558042	-0.962298	1.247334
H47	H	-0.478908	-1.041667	1.273793
H48	H	-0.529014	-0.854086	1.273676
N49	N	-1.170745	-0.347993	1.133072
H50	H	-1.155436	-0.363314	1.210910
H51	H	-1.146091	-0.235367	1.113841
H52	H	-1.144152	-0.374751	0.919523
N53	N	-0.961254	-0.558125	0.791055
H54	H	-0.990344	-0.666310	0.764686
H55	H	-1.040400	-0.478715	0.764673
