data_functionalizedCrystal
_audit_creation_method	'MofGen! by Chris Wilmer'
_symmetry_space_group_name_H-M	'P1'
_symmetry_Int_Tables_number	1
_symmetry_cell_setting	triclinic
loop_
_symmetry_equiv_pos_as_xyz
  x,y,z
_cell_length_a	17.019282
_cell_length_b	19.188928
_cell_length_c	16.098546
_cell_angle_alpha	92.718633
_cell_angle_beta	88.846283
_cell_angle_gamma	96.732812
loop_
_atom_site_label
_atom_site_type_symbol
_atom_site_fract_x
_atom_site_fract_y
_atom_site_fract_z
O1	O	1.046079	-0.089164	-0.005780
O2	O	1.546079	0.410836	0.494220
O3	O	0.817211	-0.099774	0.010643
O4	O	1.317211	0.400226	0.510643
O5	O	0.938249	0.007154	0.001937
O6	O	1.438249	0.507154	0.501937
O7	O	0.925040	-0.196091	0.002927
O8	O	1.425040	0.303909	0.502927
O9	O	0.931206	0.000910	-0.136069
O10	O	1.431206	0.500910	0.363931
O11	O	0.810168	-0.106018	-0.127363
O12	O	1.310168	0.393982	0.372637
O13	O	1.039035	-0.095408	-0.143786
O14	O	1.539035	0.404592	0.356214
Zn15	Zn	0.923483	-0.101704	-0.157486
Zn16	Zn	1.423483	0.398296	0.342514
Zn17	Zn	0.932763	-0.093477	0.024343
Zn18	Zn	1.432763	0.406523	0.524343
O19	O	0.917997	-0.202335	-0.135079
O20	O	1.417997	0.297665	0.364921
C21	C	0.784409	-0.102372	-0.056259
C22	C	1.284409	0.397628	0.443741
C23	C	0.697162	-0.100803	-0.049999
C24	C	1.197162	0.399197	0.450001
C25	C	0.652338	-0.103468	-0.122287
C26	C	1.152338	0.396532	0.377713
C27	C	0.570362	-0.101982	-0.116408
C28	C	1.070362	0.398018	0.383592
C29	C	0.533210	-0.097837	-0.038240
C30	C	1.033210	0.402163	0.461760
C31	C	0.578040	-0.095170	0.034054
C32	C	1.078040	0.404830	0.534054
C33	C	0.660015	-0.096650	0.028174
C34	C	1.160015	0.403350	0.528174
C35	C	0.285890	-0.093192	-0.016722
C36	C	0.785890	0.406808	0.483278
C37	C	0.203908	-0.091714	-0.010848
C38	C	0.703908	0.408286	0.489152
C39	C	0.196236	-0.098525	-0.161310
C40	C	0.696236	0.401475	0.338690
C41	C	0.278213	-0.100009	-0.167184
C42	C	0.778213	0.399991	0.332816
C43	C	0.323036	-0.097338	-0.094890
C44	C	0.823036	0.402662	0.405110
C45	C	0.449417	-0.096321	-0.032228
C46	C	0.949417	0.403679	0.467772
C47	C	0.406828	-0.098850	-0.100902
C48	C	0.906828	0.401150	0.399098
C49	C	0.934300	0.030045	-0.067039
C50	C	1.434300	0.530045	0.432961
C51	C	0.933016	0.107555	-0.066958
C52	C	1.433016	0.607555	0.433042
C53	C	1.004038	0.152130	-0.072060
C54	C	1.504038	0.652130	0.427940
C55	C	1.002832	0.224960	-0.071964
C56	C	1.502832	0.724960	0.428036
C57	C	0.930601	0.253212	-0.066781
C58	C	1.430601	0.753212	0.433219
C59	C	0.859570	0.208627	-0.061674
C60	C	1.359570	0.708627	0.438326
C61	C	0.860778	0.135799	-0.061762
C62	C	1.360778	0.635799	0.438238
N63	N	0.872992	0.359363	-0.109791
N64	N	1.372992	0.859363	0.390209
N65	N	0.871850	0.428547	-0.109709
N66	N	1.371850	0.928547	0.390291
C67	C	0.926958	0.472639	-0.066514
C68	C	1.426958	0.972639	0.433486
N69	N	0.983264	0.444933	-0.023414
N70	N	1.483264	0.944933	0.476586
N71	N	0.984408	0.375743	-0.023500
N72	N	1.484408	0.875743	0.476500
C73	C	0.929283	0.332181	-0.066685
C74	C	1.429283	0.832181	0.433315
C75	C	0.996678	0.596185	-0.071511
C76	C	1.496678	1.096185	0.428489
C77	C	0.995470	0.669016	-0.071409
C78	C	1.495470	1.169016	0.428591
C79	C	0.852205	0.652681	-0.061127
C80	C	1.352205	1.152681	0.438873
C81	C	0.853416	0.579852	-0.061221
C82	C	1.353416	1.079852	0.438779
C83	C	0.925654	0.551608	-0.066417
C84	C	1.425654	1.051608	0.433583
C85	C	1.071838	-0.092809	-0.076882
C86	C	1.571838	0.407191	0.423118
C87	C	1.159085	-0.094378	-0.083136
C88	C	1.659085	0.405622	0.416864
N89	N	0.917156	-0.107319	-0.281580
N90	N	1.417156	0.392681	0.218420
C91	C	0.921948	0.774774	-0.066113
C92	C	1.421948	1.274774	0.433887
C93	C	0.923238	0.697263	-0.066225
C94	C	1.423238	1.197263	0.433775
C95	C	0.887711	-0.133231	-0.804281
C96	C	1.387711	0.366769	-0.304281
C97	C	0.892154	-0.129317	-0.717411
C98	C	1.392154	0.370683	-0.217411
C99	C	0.947988	-0.080032	-0.677827
C100	C	1.447988	0.419968	-0.177827
C101	C	0.999376	-0.034654	-0.725116
C102	C	1.499376	0.465346	-0.225116
C103	C	0.994928	-0.038565	-0.811983
C104	C	1.494928	0.461435	-0.311983
C105	C	0.964096	-0.065852	-0.415736
C106	C	1.464096	0.434148	0.084264
C107	C	0.968542	-0.061945	-0.328862
C108	C	1.468542	0.438055	0.171138
C109	C	0.861318	-0.156607	-0.321164
C110	C	1.361318	0.343393	0.178836
C111	C	0.856879	-0.160517	-0.408034
C112	C	1.356879	0.339483	0.091966
C113	C	0.908264	-0.115137	-0.455315
C114	C	1.408264	0.384863	0.044685
C115	C	0.952533	-0.076032	-0.589033
C116	C	1.452533	0.423968	-0.089033
C117	C	0.903715	-0.119134	-0.544107
C118	C	1.403715	0.380866	-0.044107
N119	N	0.939097	-0.087858	0.148437
N120	N	1.439097	0.412142	0.648437
H121	H	0.159733	-0.100698	-0.220168
H122	H	0.659733	0.399302	0.279832
Br123	Br	1.099226	0.285467	-0.078885
Br124	Br	1.599226	0.785467	0.421115
Br125	Br	0.754175	0.691015	-0.054086
Br126	Br	1.254175	1.191015	0.445914
Br127	Br	0.827938	-0.186015	-0.597829
Br128	Br	1.327938	0.313985	-0.097829
Br129	Br	1.033833	-0.004267	-0.479898
Br130	Br	1.533833	0.495733	0.020102
Br131	Br	0.757024	0.519353	-0.054297
Br132	Br	1.257024	1.019353	0.445703
Br133	Br	1.091866	0.729514	-0.078325
Br134	Br	1.591866	1.229514	0.421675
Br135	Br	0.761541	0.246966	-0.054630
Br136	Br	1.261541	0.746966	0.445370
H137	H	1.036771	-0.001617	-0.850480
H138	H	1.536771	0.498383	-0.350480
Br139	Br	0.153487	-0.086092	0.095245
Br140	Br	0.653487	0.413908	0.595245
Br141	Br	0.811938	-0.200126	-0.857994
Br142	Br	1.311938	0.299874	-0.357994
Br143	Br	0.781107	-0.227406	-0.461757
Br144	Br	1.281107	0.272594	0.038243
H145	H	0.682580	-0.106849	-0.185940
H146	H	1.182580	0.393151	0.314060
H147	H	1.062860	0.129139	-0.076288
H148	H	1.562860	0.629139	0.423712
H149	H	0.850312	-0.166263	-0.678914
H150	H	1.350312	0.333737	-0.178914
H151	H	0.802942	0.099505	-0.057607
H152	H	1.302942	0.599505	0.442393
H153	H	0.533872	-0.104141	-0.175273
H154	H	1.033872	0.395859	0.324727
H155	H	1.055499	0.573188	-0.075738
H156	H	1.555499	1.073188	0.424262
H157	H	0.419159	-0.092945	0.031416
H158	H	0.919159	0.407055	0.531416
H159	H	0.308457	-0.103381	-0.230836
H160	H	0.808457	0.396619	0.269164
H161	H	0.322376	-0.091015	0.042144
H162	H	0.822376	0.408985	0.542144
H163	H	0.819482	-0.193553	-0.282660
H164	H	1.319482	0.306447	0.217340
Br165	Br	1.044326	0.004944	-0.275146
Br166	Br	1.544326	0.504944	0.224854
H167	H	0.547785	-0.091790	0.097700
H168	H	1.047785	0.408210	0.597700
H169	H	0.696510	-0.094482	0.087039
H170	H	1.196510	0.405518	0.587039
H171	H	0.437082	-0.102221	-0.164546
H172	H	0.937082	0.397779	0.335454
H173	H	1.044835	0.005478	-0.692881
H174	H	1.544835	0.505478	-0.192881
H175	H	0.997995	-0.035904	-0.556796
H176	H	1.497995	0.464096	-0.056796
