data_functionalizedCrystal
_audit_creation_method	'MofGen! by Chris Wilmer'
_symmetry_space_group_name_H-M	'P1'
_symmetry_Int_Tables_number	1
_symmetry_cell_setting	triclinic
loop_
_symmetry_equiv_pos_as_xyz
  x,y,z
_cell_length_a	10.723024
_cell_length_b	10.540539
_cell_length_c	9.198806
_cell_angle_alpha	89.998955
_cell_angle_beta	89.996352
_cell_angle_gamma	84.496680
loop_
_atom_site_label
_atom_site_type_symbol
_atom_site_fract_x
_atom_site_fract_y
_atom_site_fract_z
O1	O	1.657276	0.178046	-0.120876
O2	O	1.294132	0.195088	-0.120880
O3	O	1.483989	0.001856	-0.120876
O4	O	1.467419	0.371278	-0.120880
O5	O	1.483974	0.001856	0.120909
O6	O	1.294117	0.195088	0.120905
O7	O	1.657261	0.178045	0.120909
Cu8	Cu	1.475688	0.186567	0.142984
Cu9	Cu	1.475706	0.186567	-0.142955
O10	O	1.467404	0.371277	0.120905
C11	C	1.247624	0.193848	0.000012
C12	C	1.109068	0.190137	0.000010
C13	C	1.034139	0.298260	0.000008
C14	C	0.890934	0.294427	0.000006
C15	C	1.482739	-0.045446	0.000014
C16	C	1.479021	-0.186392	0.000006
C17	C	1.336563	-0.369746	-0.000538
C18	C	1.340332	-0.223130	0.000006
C19	C	1.545756	-0.248085	0.138078
C20	C	1.541023	-0.394627	0.138194
C21	C	1.543861	-0.395146	-0.136760
C22	C	1.545138	-0.248164	-0.138586
C23	C	1.703769	0.179286	0.000014
C24	C	1.842325	0.182997	0.000007
C25	C	1.468654	0.418580	0.000012
C26	C	1.472372	0.559526	0.000011
N27	N	1.475684	0.186565	0.344098
N28	N	1.475719	0.186558	-0.344069
C29	C	1.555399	0.105075	0.416297
C30	C	1.555419	0.105071	0.583709
H31	H	1.067199	0.094732	-0.000026
C32	C	0.805301	0.417996	-0.000071
C33	C	0.877910	0.521539	-0.000107
C34	C	0.799065	0.635394	-0.000198
H35	H	0.753907	0.421553	0.084219
H36	H	0.753968	0.421442	-0.084424
H37	H	0.929221	0.518095	0.084237
H38	H	0.929301	0.518024	-0.084391
H39	H	0.747733	0.638840	-0.084551
H40	H	0.747675	0.638938	0.084093
H41	H	0.848318	0.705661	-0.000236
H42	H	1.287821	-0.180499	-0.098969
H43	H	1.623629	0.035306	0.354172
H44	H	1.498980	-0.426675	-0.241410
C45	C	1.263691	-0.408057	-0.132603
C46	C	1.339474	-0.495897	-0.215899
C47	C	1.272380	-0.531242	-0.337559
H48	H	1.239240	-0.334736	-0.189623
H49	H	1.191226	-0.445794	-0.101600
H50	H	1.411917	-0.458158	-0.246903
H51	H	1.363927	-0.569238	-0.158922
H52	H	1.199914	-0.568979	-0.306557
H53	H	1.247932	-0.457913	-0.394567
H54	H	1.323784	-0.590853	-0.394083
C55	C	1.269623	-0.167563	0.132147
C56	C	1.145140	-0.196943	0.125856
C57	C	1.079973	-0.145794	0.247580
H58	H	1.271533	-0.077656	0.133079
H59	H	1.307943	-0.202866	0.218062
H60	H	1.106830	-0.161635	0.039964
H61	H	1.143193	-0.286841	0.124945
H62	H	1.118292	-0.181098	0.333494
H63	H	1.081892	-0.055889	0.248500
H64	H	0.995507	-0.165732	0.243334
H65	H	1.623671	0.035308	0.645797
H66	H	1.407446	0.256325	0.406225
H67	H	1.281995	-0.399926	0.097920
H68	H	0.906704	0.090430	-0.000001
H69	H	1.407472	0.256334	0.593853
H70	H	1.491690	-0.422801	0.241405
H71	H	1.647605	-0.225783	0.143213
C72	C	1.483922	-0.191520	0.275208
C73	C	1.437202	-0.288521	0.356980
C74	C	1.380240	-0.236467	0.483318
H75	H	1.417049	-0.129925	0.249517
H76	H	1.543862	-0.152021	0.331148
H77	H	1.377268	-0.327999	0.301051
H78	H	1.504051	-0.350122	0.382709
H79	H	1.440180	-0.196968	0.539257
H80	H	1.313373	-0.174872	0.457613
H81	H	1.348544	-0.302275	0.538822
H82	H	1.640766	-0.442646	0.144459
C83	C	1.679877	-0.215645	-0.149621
C84	C	1.681624	-0.083200	-0.158084
C85	C	1.805724	-0.053180	-0.168206
H86	H	1.717633	-0.254033	-0.234255
H87	H	1.725118	-0.246720	-0.066089
H88	H	1.636402	-0.052139	-0.241607
H89	H	1.643894	-0.044782	-0.073460
H90	H	1.850964	-0.084255	-0.084674
H91	H	1.843469	-0.091575	-0.252841
H92	H	1.806926	0.036686	-0.173936
H93	H	1.496309	-0.207281	-0.240728
H94	H	1.644035	-0.442423	-0.137688
H95	H	1.076009	0.393665	0.000015
