data_functionalizedCrystal
_audit_creation_method	'MofGen! by Chris Wilmer'
_symmetry_space_group_name_H-M	'P1'
_symmetry_Int_Tables_number	1
_symmetry_cell_setting	triclinic
loop_
_symmetry_equiv_pos_as_xyz
  x,y,z
_cell_length_a	25.639239
_cell_length_b	21.395364
_cell_length_c	25.639233
_cell_angle_alpha	90.014453
_cell_angle_beta	89.981253
_cell_angle_gamma	89.963813
loop_
_atom_site_label
_atom_site_type_symbol
_atom_site_fract_x
_atom_site_fract_y
_atom_site_fract_z
Zn1	Zn	-0.208249	-0.957755	-0.295635
Zn2	Zn	-0.295668	-0.957664	-0.208199
Zn3	Zn	-0.208245	-0.852991	-0.208211
Zn4	Zn	-0.295652	-0.852925	-0.295601
O5	O	-0.251953	-0.905334	-0.251911
O6	O	-0.219854	-1.045421	-0.284046
O7	O	-0.284076	-0.943768	-0.135035
O8	O	-0.135080	-0.866954	-0.219827
O9	O	-0.284081	-1.045354	-0.219807
O10	O	-0.135083	-0.943924	-0.284057
O11	O	-0.219846	-0.866865	-0.135044
O12	O	-0.219831	-0.765304	-0.219794
O13	O	-0.284053	-0.866842	-0.368770
O14	O	-0.284048	-0.765256	-0.283999
O15	O	-0.219838	-0.943860	-0.368795
O16	O	-0.368831	-0.943704	-0.219774
O17	O	-0.368819	-0.866753	-0.283988
C18	C	-0.251937	-0.742546	-0.251894
C19	C	-0.251943	-0.672905	-0.251899
C20	C	-0.285444	-0.171100	-0.285301
C21	C	-0.285445	-0.236535	-0.285297
C22	C	-0.251957	-0.269266	-0.251920
C23	C	-0.218476	-0.236557	-0.218536
C24	C	-0.218479	-0.171123	-0.218537
C25	C	-0.204839	-0.372964	-0.247873
C26	C	-0.204835	-0.438397	-0.247875
C27	C	-0.251946	-0.471087	-0.251911
C28	C	-0.299063	-0.438336	-0.255956
C29	C	-0.299067	-0.372902	-0.255958
C30	C	-0.251950	-0.340219	-0.251914
C31	C	-0.285429	-0.574742	-0.285285
C32	C	-0.285431	-0.640178	-0.285277
C33	C	-0.218457	-0.640198	-0.218519
C34	C	-0.218460	-0.574763	-0.218524
C35	C	-0.251945	-0.542039	-0.251910
C36	C	-0.387796	-0.905228	-0.251887
C37	C	-0.445910	-0.905241	-0.251895
C38	C	-0.806267	-0.945507	-0.218532
C39	C	-0.860871	-0.945531	-0.218539
O40	O	-0.889102	-0.979657	-0.190147
N41	N	-0.888192	-0.905444	-0.251946
C42	C	-0.860907	-0.865334	-0.285352
O43	O	-0.889160	-0.831240	-0.313768
C44	C	-0.806303	-0.865314	-0.285347
C45	C	-0.778985	-0.905399	-0.251934
C46	C	-0.778948	-0.985589	-0.185123
C47	C	-0.724348	-0.985564	-0.185115
C48	C	-0.697066	-0.945456	-0.218517
C49	C	-0.724384	-0.905374	-0.251927
C50	C	-0.779019	-0.825208	-0.318755
C51	C	-0.724412	-0.825191	-0.318747
C52	C	-0.697093	-0.865276	-0.285335
C53	C	-0.642502	-0.865241	-0.285321
N54	N	-0.615180	-0.905328	-0.251914
C55	C	-0.642462	-0.945435	-0.218512
C56	C	-0.975577	-0.865381	-0.285360
C57	C	-1.030180	-0.865398	-0.285362
C58	C	-1.030140	-0.945596	-0.218550
C59	C	-0.975537	-0.945575	-0.218546
C60	C	-0.948256	-0.905469	-0.251953
C61	C	-0.527797	-0.945379	-0.218499
C62	C	-0.473192	-0.945348	-0.218493
C63	C	-0.473236	-0.865153	-0.285306
C64	C	-0.527837	-0.865181	-0.285310
C65	C	-0.555116	-0.905299	-0.251905
O66	O	-0.614236	-0.831133	-0.313700
O67	O	-0.614203	-0.979530	-0.190106
C68	C	-0.115580	-0.905457	-0.251947
C69	C	-0.057466	-0.905509	-0.251962
C70	C	-0.251944	-0.905354	-0.388284
C71	C	-0.251940	-0.905362	-0.446398
C72	C	-0.251967	-0.068757	-0.251926
C73	C	-0.251965	-0.138398	-0.251923
C74	C	-0.218405	-0.945517	-0.806780
C75	C	-0.218390	-0.945525	-0.861385
O76	O	-0.189939	-0.979615	-0.889637
N77	N	-0.251818	-0.905432	-0.888681
C78	C	-0.285258	-0.865324	-0.861370
O79	O	-0.313689	-0.831222	-0.889602
C80	C	-0.285270	-0.865313	-0.806767
C81	C	-0.251844	-0.905413	-0.779473
C82	C	-0.184981	-0.985613	-0.779486
C83	C	-0.184996	-0.985606	-0.724886
C84	C	-0.218435	-0.945503	-0.697579
C85	C	-0.251859	-0.905406	-0.724873
C86	C	-0.318707	-0.825203	-0.779457
C87	C	-0.318715	-0.825195	-0.724850
C88	C	-0.285289	-0.865296	-0.697557
C89	C	-0.285313	-0.865296	-0.642965
N90	N	-0.251886	-0.905389	-0.615669
C91	C	-0.218447	-0.945492	-0.642976
C92	C	-0.285231	-0.865348	-0.976041
C93	C	-0.285223	-0.865361	-1.030643
C94	C	-0.218354	-0.945561	-1.030654
C95	C	-0.218365	-0.945551	-0.976050
C96	C	-0.251803	-0.905441	-0.948745
C97	C	-0.218482	-0.945475	-0.528311
C98	C	-0.218501	-0.945466	-0.473705
C99	C	-0.285368	-0.865264	-0.473700
C100	C	-0.285350	-0.865275	-0.528300
C101	C	-0.251903	-0.905382	-0.555604
O102	O	-0.313749	-0.831221	-0.614678
O103	O	-0.190016	-0.979583	-0.614737
C104	C	-0.251925	-0.905350	-0.116069
C105	C	-0.251781	-0.905462	-0.057955
H106	H	-0.191192	-0.666848	-0.191341
C107	C	-0.181631	-0.538787	-0.181808
C108	C	-0.144797	-0.574786	-0.145090
C109	C	-0.107969	-0.538809	-0.108369
C110	C	-0.107975	-0.466834	-0.108367
C111	C	-0.144810	-0.430832	-0.145086
C112	C	-0.181638	-0.466808	-0.181807
H113	H	-0.144792	-0.628069	-0.145091
H114	H	-0.080702	-0.565461	-0.081187
H115	H	-0.080713	-0.440203	-0.081184
H116	H	-0.144816	-0.377548	-0.145085
H117	H	-0.208905	-0.440156	-0.208989
C118	C	-0.355473	-0.781079	-0.809463
C119	C	-0.396531	-0.808166	-0.846999
C120	C	-0.433298	-0.764033	-0.877000
C121	C	-0.429008	-0.692814	-0.869464
C122	C	-0.387948	-0.665723	-0.831926
C123	C	-0.351181	-0.709855	-0.801925
H124	H	-0.399708	-0.860890	-0.852579
H125	H	-0.463693	-0.784088	-0.904788
H126	H	-0.456225	-0.660144	-0.891672
H127	H	-0.384771	-0.612998	-0.826346
H128	H	-0.320786	-0.689800	-0.774137
H129	H	-0.337431	-0.346239	-0.259250
H130	H	-0.550002	-0.978048	-0.191298
H131	H	-0.157776	-1.018259	-0.702668
H132	H	-1.052418	-0.832751	-0.312565
C133	C	-0.181593	-0.989657	-0.946030
C134	C	-0.140547	-0.962540	-0.908497
C135	C	-0.103772	-1.006647	-0.878479
C136	C	-0.108044	-1.077872	-0.885995
C137	C	-0.149092	-1.104992	-0.923530
C138	C	-0.185867	-1.060885	-0.953547
H139	H	-0.137383	-0.909812	-0.902931
H140	H	-0.073385	-0.986570	-0.850693
H141	H	-0.080821	-1.110523	-0.863774
H142	H	-0.152256	-1.157720	-0.929095
H143	H	-0.216254	-1.080962	-0.981333
H144	H	-0.191125	-0.978214	-1.052897
C145	C	-0.808951	-1.029711	-0.148375
C146	C	-0.801462	-1.024637	-0.088935
C147	C	-0.831460	-1.068760	-0.052181
C148	C	-0.868947	-1.117956	-0.074867
C149	C	-0.876439	-1.123031	-0.134311
C150	C	-0.846441	-1.078909	-0.171065
H151	H	-0.773710	-0.988218	-0.072138
H152	H	-0.825914	-1.065002	-0.008177
H153	H	-0.891154	-1.150617	-0.047660
H154	H	-0.904191	-1.159451	-0.151108
H155	H	-0.851986	-1.082667	-0.215069
H156	H	-0.191281	-0.978123	-0.451485
H157	H	-0.953297	-0.978217	-0.191338
C158	C	-0.322261	-0.676152	-0.321995
C159	C	-0.381693	-0.667108	-0.317632
C160	C	-0.418523	-0.703082	-0.354351
C161	C	-0.395922	-0.748099	-0.395435
C162	C	-0.336487	-0.757145	-0.399800
C163	C	-0.299657	-0.721171	-0.363080
H164	H	-0.398426	-0.633782	-0.287218
H165	H	-0.462521	-0.696385	-0.351120
H166	H	-0.423187	-0.774729	-0.422617
H167	H	-0.319754	-0.790471	-0.430214
H168	H	-0.255659	-0.727867	-0.366312
C169	C	-0.694404	-0.781069	-0.355496
C170	C	-0.656826	-0.808166	-0.396563
C171	C	-0.626820	-0.764044	-0.433309
C172	C	-0.634392	-0.692824	-0.428989
C173	C	-0.671972	-0.665723	-0.387920
C174	C	-0.701978	-0.709845	-0.351174
H175	H	-0.651219	-0.860891	-0.399762
H176	H	-0.599000	-0.784106	-0.463711
H177	H	-0.612180	-0.660161	-0.456191
H178	H	-0.677579	-0.612998	-0.384721
H179	H	-0.729797	-0.689783	-0.320772
H180	H	-0.801252	-0.792563	-0.345960
H181	H	-0.157748	-1.018270	-0.801714
C182	C	-0.694304	-1.029666	-0.148364
C183	C	-0.701850	-1.024611	-0.088924
C184	C	-0.671812	-1.068718	-0.052173
C185	C	-0.634228	-1.117881	-0.074861
C186	C	-0.626680	-1.122937	-0.134304
C187	C	-0.656718	-1.078830	-0.171056
H188	H	-0.729673	-0.988216	-0.072126
H189	H	-0.677399	-1.064975	-0.008169
H190	H	-0.611991	-1.150531	-0.047655
H191	H	-0.598856	-1.159332	-0.151102
H192	H	-0.651131	-1.082574	-0.215060
H193	H	-0.166469	-0.465058	-0.244588
C194	C	-0.181693	-0.989596	-0.558340
C195	C	-0.185976	-1.060817	-0.550833
C196	C	-0.149191	-1.104942	-0.580863
C197	C	-0.108123	-1.077846	-0.618399
C198	C	-0.103839	-1.006622	-0.625908
C199	C	-0.140624	-0.962497	-0.595878
H200	H	-0.216378	-1.080878	-0.523045
H201	H	-0.152363	-1.157667	-0.575304
H202	H	-0.080893	-1.110510	-0.640629
H203	H	-0.073436	-0.986560	-0.653696
H204	H	-0.137452	-0.909772	-0.601437
C205	C	-0.321992	-0.821251	-1.060663
C206	C	-0.358770	-0.777137	-1.030618
C207	C	-0.395537	-0.733020	-1.060635
C208	C	-0.395526	-0.733017	-1.120697
C209	C	-0.358747	-0.777132	-1.150745
C210	C	-0.321980	-0.821249	-1.120728
H211	H	-0.358779	-0.777138	-0.986154
H212	H	-0.422763	-0.700363	-1.038392
H213	H	-0.422743	-0.700359	-1.142917
H214	H	-0.358738	-0.777131	-1.195209
H215	H	-0.294754	-0.853906	-1.142971
H216	H	-0.312695	-0.548096	-0.312470
H217	H	-0.312463	-0.832685	-0.953812
H218	H	-1.052363	-0.978256	-0.191354
H219	H	-0.191215	-0.144497	-0.191357
C220	C	-0.355501	-0.781076	-0.694813
C221	C	-0.351225	-0.709854	-0.702313
C222	C	-0.388011	-0.665738	-0.672276
C223	C	-0.429073	-0.692844	-0.634738
C224	C	-0.433350	-0.764070	-0.627236
C225	C	-0.396564	-0.808186	-0.657273
H226	H	-0.320827	-0.689785	-0.730102
H227	H	-0.384844	-0.613012	-0.677830
H228	H	-0.456304	-0.660187	-0.612503
H229	H	-0.463748	-0.784139	-0.599447
H230	H	-0.399731	-0.860912	-0.651720
H231	H	-0.953368	-0.832716	-0.312562
C232	C	-0.153013	-0.337009	-0.243432
C233	C	-0.101187	-0.373029	-0.238989
C234	C	-0.049364	-0.337074	-0.234544
C235	C	-0.049366	-0.265099	-0.234543
C236	C	-0.101193	-0.229075	-0.238986
C237	C	-0.153017	-0.265029	-0.243431
H238	H	-0.101184	-0.426313	-0.238989
H239	H	-0.010997	-0.363742	-0.231255
H240	H	-0.011003	-0.238483	-0.231253
H241	H	-0.101196	-0.175791	-0.238986
H242	H	-0.191383	-0.238361	-0.246720
H243	H	-0.337425	-0.464951	-0.259246
H244	H	-0.312712	-0.144460	-0.312485
H245	H	-0.312573	-0.832628	-0.550524
H246	H	-0.191211	-0.263211	-0.191359
C247	C	-0.443143	-0.989447	-0.181738
C248	C	-0.450686	-0.984388	-0.122298
C249	C	-0.420640	-1.028486	-0.085545
C250	C	-0.383049	-1.077642	-0.108233
C251	C	-0.375504	-1.082703	-0.167676
C252	C	-0.405551	-1.038605	-0.204428
H253	H	-0.478515	-0.947998	-0.105500
H254	H	-0.426226	-1.024740	-0.041541
H255	H	-0.360807	-1.110286	-0.081026
H256	H	-0.347676	-1.119093	-0.184473
H257	H	-0.399965	-1.042351	-0.248432
H258	H	-0.312708	-0.263166	-0.312478
H259	H	-0.550081	-0.832543	-0.312519
H260	H	-0.451015	-0.832496	-0.312500
H261	H	-0.312595	-0.832614	-0.451456
