data_functionalizedCrystal
_audit_creation_method	'MofGen! by Chris Wilmer'
_symmetry_space_group_name_H-M	'P1'
_symmetry_Int_Tables_number	1
_symmetry_cell_setting	triclinic
loop_
_symmetry_equiv_pos_as_xyz
  x,y,z
_cell_length_a	20.875652
_cell_length_b	14.560438
_cell_length_c	20.875619
_cell_angle_alpha	87.029714
_cell_angle_beta	60.669168
_cell_angle_gamma	57.590039
loop_
_atom_site_label
_atom_site_type_symbol
_atom_site_fract_x
_atom_site_fract_y
_atom_site_fract_z
Zr1	Zr	0.702111	0.852214	-0.058406
O2	O	0.835933	0.705781	-0.155923
O3	O	0.568289	0.902233	-0.031915
O4	O	0.702109	0.904783	-0.160826
O5	O	0.702114	0.695384	0.078547
O6	O	0.702107	1.055924	-0.160823
O7	O	0.702113	0.703231	-0.027012
O8	O	0.462728	1.051362	0.069775
O9	O	0.941493	0.699946	-0.152051
O10	O	0.623330	1.030162	-0.016503
O11	O	0.623332	0.911512	0.062272
O12	O	0.780888	0.914514	-0.089504
O13	O	0.780890	0.795864	-0.010729
Zr14	Zr	0.702109	1.080751	0.109954
Zr15	Zr	0.702107	1.093266	-0.058400
Zr16	Zr	0.702113	0.839699	0.109948
Zr17	Zr	0.870468	0.842908	-0.052231
Zr18	Zr	0.533752	1.090057	0.103779
O19	O	0.835931	1.030732	0.083463
O20	O	0.835928	1.048527	-0.155915
O21	O	0.835936	0.687987	0.083455
O22	O	0.568287	1.227184	0.207470
O23	O	0.568284	1.244978	-0.031908
O24	O	0.568292	0.884438	0.207463
O25	O	0.702106	1.237581	-0.027000
O26	O	0.702111	1.028182	0.212374
O27	O	0.702113	0.877041	0.212371
O28	O	0.702107	1.229734	0.078559
O29	O	0.941491	0.891551	-0.152047
O30	O	0.462729	1.041414	0.203594
O31	O	0.462727	1.233019	0.203599
O32	O	0.462725	1.242966	0.069780
O33	O	0.941495	0.689999	-0.018232
O34	O	0.941492	0.881603	-0.018228
O35	O	0.623332	1.018451	0.141052
O36	O	0.623330	1.137101	0.062277
O37	O	0.780888	1.021453	-0.010724
O38	O	0.780890	0.902803	0.068051
C39	C	0.491521	0.978123	0.018050
C40	C	0.420049	0.982074	0.015429
C41	C	0.702114	0.664963	0.025767
C42	C	0.702115	0.562630	0.025765
C43	C	0.017750	1.010966	-0.003769
C44	C	0.084907	1.007247	-0.001303
C45	C	0.118479	0.943458	0.041054
C46	C	0.084897	0.883376	0.080943
C47	C	0.017746	0.887090	0.078473
C48	C	0.319316	0.925705	0.052847
C49	C	0.386470	0.921999	0.055316
C50	C	0.386477	1.045868	-0.026931
C51	C	0.319320	1.049581	-0.029394
C52	C	0.285748	0.989495	0.010491
N53	N	0.187122	0.939658	0.043577
N54	N	0.217110	0.993289	0.007964
C55	C	0.702116	0.518869	-0.032387
C56	C	0.702108	0.422723	-0.032377
C57	C	0.702101	0.414104	0.083941
C58	C	0.702103	0.510253	0.083933
C59	C	0.702124	0.523842	-0.099544
C60	C	0.702115	0.427696	-0.099534
C61	C	0.912699	0.954842	0.033498
C62	C	0.984171	0.950891	0.036119
C63	C	0.702107	0.982136	-0.184811
C64	C	0.702107	0.987449	-0.256282
C65	C	0.702106	1.268002	0.025781
C66	C	0.702105	1.370335	0.025783
C67	C	0.702114	1.026284	-0.658593
C68	C	0.702118	1.021288	-0.591440
C69	C	0.702114	0.935528	-0.557862
C70	C	0.702116	0.854752	-0.591445
C71	C	0.702119	0.859744	-0.658600
C72	C	0.702111	0.911665	-0.357020
C73	C	0.702106	0.906681	-0.289859
C74	C	0.702109	1.073217	-0.289859
C75	C	0.702107	1.078205	-0.357013
C76	C	0.702113	0.997426	-0.390592
N77	N	0.702115	0.930421	-0.489219
N78	N	0.702119	1.002528	-0.459237
C79	C	0.702113	0.950829	0.236359
C80	C	0.702113	0.945516	0.307830
C81	C	0.491517	1.279643	0.018057
C82	C	0.420044	1.385926	0.015438
C83	C	0.491524	0.962469	0.228636
C84	C	0.420052	0.961107	0.297485
C85	C	0.491520	1.263989	0.228642
C86	C	0.420047	1.364960	0.297494
C87	C	0.912700	0.668976	-0.177095
C88	C	0.984173	0.568005	-0.245946
C89	C	0.912703	0.653322	0.033491
C90	C	0.984176	0.547039	0.036110
C91	C	0.912696	0.970496	-0.177088
C92	C	0.984168	0.971858	-0.245937
C93	C	0.386479	1.380018	-0.026921
C94	C	0.319332	1.479874	-0.029398
C95	C	0.285745	1.585638	0.010490
C96	C	0.319316	1.591543	0.052851
C97	C	0.386467	1.491688	0.055322
C98	C	0.386489	1.016288	0.370947
C99	C	0.319343	1.015003	0.435645
C100	C	0.285758	0.958543	0.426879
C101	C	0.319329	0.903355	0.353410
C102	C	0.386478	0.904634	0.288714
C103	C	0.386482	1.474321	0.288708
C104	C	0.319335	1.569203	0.353395
C105	C	0.285751	1.554721	0.426868
C106	C	0.319323	1.445348	0.435653
C107	C	0.386473	1.350469	0.370966
C108	C	1.017747	0.458643	-0.237160
C109	C	1.084914	0.363760	-0.301846
C110	C	1.118502	0.378242	-0.375319
C111	C	1.084926	0.487615	-0.384104
C112	C	1.017764	0.582496	-0.319418
C113	C	1.017748	0.552947	0.078462
C114	C	1.084914	0.453091	0.080921
C115	C	1.118503	0.347328	0.041031
C116	C	1.084928	0.341422	-0.001327
C117	C	1.017768	0.441277	-0.003790
C118	C	1.017731	1.028328	-0.237147
C119	C	1.084877	1.029630	-0.301833
C120	C	1.118463	0.974454	-0.375307
C121	C	1.084892	0.917982	-0.384095
C122	C	1.017743	0.916688	-0.319411
H123	H	-0.009583	1.062915	-0.038257
H124	H	1.112239	0.457922	0.115416
H125	H	0.990429	0.671541	-0.326581
Cl126	Cl	0.428693	1.087277	0.381986
Cl127	Cl	0.975566	0.845676	-0.330474
Cl128	Cl	0.428648	1.499136	0.108585
H129	H	0.112248	1.056163	-0.033783
H130	H	0.292006	1.475043	-0.063892
Cl131	Cl	0.277091	1.427162	0.528024
H132	H	0.990396	1.073259	-0.177327
Cl133	Cl	0.277151	1.084392	0.527997
Cl134	Cl	0.277144	1.129743	-0.082668
Cl135	Cl	1.202932	0.221805	0.044136
Cl136	Cl	0.428656	1.212989	0.382025
H137	H	0.636967	0.447242	-0.090187
H138	H	0.291974	0.857387	0.346284
H139	H	0.990403	0.446831	-0.177341
H140	H	0.765255	0.357164	-0.154569
Cl141	Cl	0.702117	0.746932	-0.549237
H142	H	0.413816	1.486134	0.228888
H143	H	1.112282	0.499393	-0.443933
H144	H	0.413819	1.094787	-0.059405
H145	H	0.702102	0.836841	-0.262523
Cl146	Cl	0.802704	0.498449	-0.178314
H147	H	0.702112	1.096123	-0.685925
H148	H	0.990405	0.639055	0.110951
H149	H	0.702091	0.545890	0.131290
H150	H	0.413796	0.859703	0.228900
Cl151	Cl	0.702121	1.122826	-0.549228
Cl152	Cl	0.702086	0.348253	0.157062
Cl153	Cl	1.127071	1.100620	-0.290766
Cl154	Cl	0.201330	1.674012	0.508182
Cl155	Cl	0.428678	0.841796	0.108566
H156	H	-0.009592	0.838168	0.110952
Cl157	Cl	0.201340	0.956949	0.508221
H158	H	0.291960	1.677669	0.085326
H159	H	1.112287	0.255296	-0.033804
H160	H	0.291986	0.876782	0.085327
Cl161	Cl	0.277140	1.706687	0.342334
Cl162	Cl	0.702110	1.186020	-0.399225
H163	H	0.990436	0.436450	-0.038276
H164	H	1.112241	0.274713	-0.294679
H165	H	1.173140	0.975516	-0.427971
H166	H	1.112248	0.873059	-0.443927
Cl167	Cl	1.202933	0.258950	-0.456632
H168	H	0.112240	0.831433	0.115428
Cl169	Cl	0.201324	1.711161	0.007378
H170	H	0.702114	0.845893	-0.384354
Cl171	Cl	0.702106	1.174759	-0.247645
H172	H	0.702120	0.793973	-0.685939
Cl173	Cl	0.604647	0.638638	-0.094192
H174	H	0.413825	1.293910	-0.059413
