data_functionalizedCrystal
_audit_creation_method	'MofGen! by Chris Wilmer'
_symmetry_space_group_name_H-M	'P1'
_symmetry_Int_Tables_number	1
_symmetry_cell_setting	triclinic
loop_
_symmetry_equiv_pos_as_xyz
  x,y,z
_cell_length_a	14.519709
_cell_length_b	22.610064
_cell_length_c	14.519731
_cell_angle_alpha	89.990219
_cell_angle_beta	96.315500
_cell_angle_gamma	90.009670
loop_
_atom_site_label
_atom_site_type_symbol
_atom_site_fract_x
_atom_site_fract_y
_atom_site_fract_z
O1	O	1.223891	0.049115	-0.120888
O2	O	1.723891	0.549115	0.379112
O3	O	0.955416	0.049134	-0.135124
O4	O	1.455416	0.549134	0.364876
O5	O	1.096761	0.049112	0.006231
O6	O	1.596761	0.549112	0.506231
O7	O	1.082545	0.049137	-0.262243
O8	O	1.582545	0.549137	0.237757
O9	O	1.096720	-0.049257	0.006231
O10	O	1.596720	0.450743	0.506231
O11	O	0.955374	-0.049235	-0.135124
O12	O	1.455374	0.450765	0.364876
O13	O	1.223850	-0.049254	-0.120888
O14	O	1.723850	0.450746	0.379112
Zn15	Zn	1.089605	-0.064863	-0.128006
Zn16	Zn	1.589605	0.435137	0.371994
Zn17	Zn	1.089660	0.064743	-0.128006
Zn18	Zn	1.589660	0.564743	0.371994
O19	O	1.082504	-0.049232	-0.262243
O20	O	1.582504	0.450768	0.237757
C21	C	0.921035	-0.000049	-0.134461
C22	C	1.421035	0.499951	0.365539
C23	C	0.818654	-0.000042	-0.132473
C24	C	1.318654	0.499958	0.367527
N25	N	1.089575	-0.153316	-0.128005
N26	N	1.589575	0.346684	0.371995
C27	C	0.443757	-0.000069	-0.125153
C28	C	0.943757	0.499931	0.374847
C29	C	0.548065	-0.000062	-0.127186
C30	C	1.048065	0.499938	0.372814
C31	C	0.631202	-0.000055	-0.128813
C32	C	1.131202	0.499945	0.371187
C33	C	0.735517	-0.000048	-0.130846
C34	C	1.235517	0.499952	0.369154
C35	C	1.145688	-0.561956	-0.184055
C36	C	1.645688	-0.061956	0.315945
C37	C	1.145699	-0.623876	-0.184052
C38	C	1.645699	-0.123876	0.315948
O39	O	1.193372	-0.655893	-0.231701
O40	O	1.693372	-0.155893	0.268299
N41	N	1.089678	-0.654853	-0.127996
N42	N	1.589678	-0.154853	0.372004
C43	C	1.033648	-0.623907	-0.071931
C44	C	1.533648	-0.123907	0.428069
O45	O	0.985999	-0.655941	-0.024249
O46	O	1.485999	-0.155941	0.475751
C47	C	1.033642	-0.561988	-0.071929
C48	C	1.533642	-0.061988	0.428071
C49	C	1.089660	-0.531014	-0.127996
C50	C	1.589660	-0.031014	0.372004
C51	C	1.201702	-0.530982	-0.240116
C52	C	1.701702	-0.030982	0.259884
C53	C	1.201689	-0.469066	-0.240120
C54	C	1.701689	0.030934	0.259880
C55	C	1.145662	-0.438124	-0.184061
C56	C	1.645662	0.061876	0.315939
C57	C	1.089647	-0.469098	-0.127999
C58	C	1.589647	0.030902	0.372001
C59	C	0.977618	-0.531043	-0.015859
C60	C	1.477618	-0.031043	0.484141
C61	C	0.977617	-0.469120	-0.015862
C62	C	1.477617	0.030880	0.484138
C63	C	1.033635	-0.438146	-0.071929
C64	C	1.533635	0.061854	0.428071
C65	C	1.033606	-0.376241	-0.071944
C66	C	1.533606	0.123759	0.428056
N67	N	1.089628	-0.345264	-0.128000
N68	N	1.589628	0.154736	0.372000
C69	C	1.145656	-0.376206	-0.184059
C70	C	1.645656	0.123794	0.315941
C71	C	1.033666	-0.753940	-0.071938
C72	C	1.533666	-0.253940	0.428062
C73	C	1.033666	-0.815858	-0.071944
C74	C	1.533666	-0.315858	0.428056
C75	C	1.145719	-0.815823	-0.184065
C76	C	1.645719	-0.315823	0.315935
C77	C	1.145713	-0.753904	-0.184063
C78	C	1.645713	-0.253904	0.315937
C79	C	1.089688	-0.722963	-0.127995
C80	C	1.589688	-0.222963	0.372005
C81	C	1.145623	-0.246178	-0.184062
C82	C	1.645623	0.253822	0.315938
C83	C	1.145602	-0.184257	-0.184064
C84	C	1.645602	0.315743	0.315936
C85	C	1.033553	-0.184298	-0.071940
C86	C	1.533553	0.315702	0.428060
C87	C	1.033570	-0.246214	-0.071942
C88	C	1.533570	0.253786	0.428058
C89	C	1.089613	-0.277152	-0.128006
C90	C	1.589613	0.222848	0.371994
O91	O	0.985961	-0.344184	-0.024316
O92	O	1.485961	0.155816	0.475684
O93	O	1.193306	-0.344164	-0.231723
O94	O	1.693306	0.155836	0.268277
C95	C	1.258230	-0.000071	-0.121551
C96	C	1.758230	0.499929	0.378449
C97	C	1.360612	-0.000074	-0.123539
C98	C	1.860612	0.499926	0.376461
C99	C	1.096075	-0.000075	0.040591
C100	C	1.596075	0.499925	0.540591
C101	C	1.094079	-0.000080	0.142971
C102	C	1.594079	0.499920	0.642971
N103	N	1.089698	0.153195	-0.128000
N104	N	1.589698	0.653195	0.372000
C105	C	1.092457	-0.000082	0.226115
C106	C	1.592457	0.499918	0.726115
C107	C	1.090430	-0.000083	0.330424
C108	C	1.590430	0.499917	0.830424
C109	C	1.088822	-0.000083	0.413563
C110	C	1.588822	0.499917	0.913563
C111	C	1.086795	-0.000085	0.517878
C112	C	1.586795	0.499915	1.017878
C113	C	1.083191	-0.000057	0.703397
C114	C	1.583191	0.499943	1.203397
C115	C	1.085187	-0.000085	0.601017
C116	C	1.585187	0.499915	1.101017
H117	H	1.191259	-0.271361	-0.229715
H118	H	1.691259	0.228639	0.270285
H119	H	1.247309	-0.443853	-0.285772
H120	H	1.747309	0.056147	0.214228
H121	H	0.931993	-0.443931	0.029798
H122	H	1.431993	0.056069	0.529798
O123	O	0.973254	-0.720561	-0.011451
O124	O	1.473254	-0.220561	0.488549
H125	H	0.923765	-0.692341	-0.055535
H126	H	1.423765	-0.192341	0.444465
H127	H	1.247332	-0.556168	-0.285766
H128	H	1.747332	-0.056168	0.214234
O129	O	0.973127	-0.150937	-0.011455
O130	O	1.473127	0.349063	0.488545
H131	H	0.993093	-0.162845	0.062200
H132	H	1.493093	0.337155	0.562200
H133	H	1.191328	-0.728689	-0.229718
H134	H	1.691328	-0.228689	0.270282
O135	O	1.206157	-0.849202	-0.244526
O136	O	1.706157	-0.349202	0.255474
H137	H	1.279827	-0.837305	-0.224625
H138	H	1.779827	-0.337305	0.275375
H139	H	0.987944	-0.271434	-0.026299
H140	H	1.487944	0.228566	0.473701
H141	H	1.191219	-0.159041	-0.229725
H142	H	1.691219	0.340959	0.270275
H143	H	0.988039	-0.841072	-0.026300
H144	H	1.488039	-0.341072	0.473700
H145	H	0.932003	-0.556251	0.029798
H146	H	1.432003	-0.056251	0.529798
