data_functionalizedCrystal
_audit_creation_method	'MofGen! by Chris Wilmer'
_symmetry_space_group_name_H-M	'P1'
_symmetry_Int_Tables_number	1
_symmetry_cell_setting	triclinic
loop_
_symmetry_equiv_pos_as_xyz
  x,y,z
_cell_length_a	11.792241
_cell_length_b	10.268362
_cell_length_c	10.654545
_cell_angle_alpha	90.002931
_cell_angle_beta	84.339421
_cell_angle_gamma	90.000374
loop_
_atom_site_label
_atom_site_type_symbol
_atom_site_fract_x
_atom_site_fract_y
_atom_site_fract_z
O1	O	1.507307	0.108167	0.172136
O2	O	2.007307	0.608167	0.672136
O3	O	1.177007	0.108196	0.189877
O4	O	1.677007	0.608196	0.689877
O5	O	1.349751	0.108180	-0.001754
O6	O	1.849751	0.608180	0.498246
O7	O	1.334564	0.108183	0.363767
O8	O	1.834564	0.608183	0.863767
O9	O	1.349735	-0.108421	-0.001762
O10	O	1.849735	0.391579	0.498238
O11	O	1.176992	-0.108405	0.189869
O12	O	1.676992	0.391595	0.689869
O13	O	1.507292	-0.108434	0.172128
O14	O	2.007292	0.391566	0.672128
Cu15	Cu	1.342141	-0.128197	0.180998
Cu16	Cu	1.842141	0.371803	0.680998
Cu17	Cu	1.342159	0.127959	0.181007
Cu18	Cu	1.842159	0.627959	0.681007
O19	O	1.334548	-0.108418	0.363759
O20	O	1.834548	0.391582	0.863759
C21	C	1.134706	-0.000100	0.188758
C22	C	1.634706	0.499900	0.688758
C23	C	1.008685	-0.000089	0.185423
C24	C	1.508685	0.499911	0.685423
C25	C	0.777958	-0.000126	0.179290
C26	C	1.277958	0.499874	0.679290
C27	C	0.906351	-0.000106	0.182697
C28	C	1.406351	0.499894	0.682697
N29	N	1.342136	-0.308363	0.180990
N30	N	1.842136	0.191637	0.680990
C31	C	1.342153	-0.574033	0.181005
C32	C	1.842153	-0.074033	0.681005
C33	C	1.342140	-0.426195	0.181000
C34	C	1.842140	0.073805	0.681000
C35	C	1.549593	-0.000135	0.173247
C36	C	2.049593	0.499865	0.673247
C37	C	1.675615	-0.000138	0.176582
C38	C	2.175615	0.499862	0.676582
C39	C	1.348628	-0.000118	-0.048553
C40	C	1.848628	0.499882	0.451447
C41	C	1.345291	-0.000110	-0.187987
C42	C	1.845291	0.499890	0.312013
N43	N	1.342172	0.308125	0.181005
N44	N	1.842172	0.808125	0.681005
C45	C	1.345321	0.236035	-0.187987
C46	C	1.845321	0.736035	0.312013
C47	C	1.343772	0.354106	-0.253492
C48	C	1.843772	0.854106	0.246508
C49	C	1.340637	0.354108	-0.384502
C50	C	1.840637	0.854108	0.115498
C51	C	1.339047	0.236025	-0.450009
C52	C	1.839047	0.736025	0.049991
C53	C	1.340595	0.117954	-0.384504
C54	C	1.840595	0.617954	0.115496
C55	C	1.343734	0.117965	-0.253491
C56	C	1.843734	0.617965	0.246509
C57	C	1.340557	-0.118188	-0.384503
C58	C	1.840557	0.381812	0.115497
C59	C	1.343700	-0.118193	-0.253494
C60	C	1.843700	0.381807	0.246506
C61	C	1.338967	-0.236271	-0.450010
C62	C	1.838967	0.263729	0.049990
C63	C	1.340523	-0.354346	-0.384505
C64	C	1.840523	0.145654	0.115495
C65	C	1.343660	-0.354343	-0.253488
C66	C	1.843660	0.145657	0.246512
C67	C	1.345249	-0.236265	-0.187988
C68	C	1.845249	0.263735	0.312012
C69	C	1.335671	-0.000117	0.410558
C70	C	1.835671	0.499883	0.910558
C71	C	1.339009	-0.000116	0.549992
C72	C	1.839009	0.499884	1.049992
H73	H	1.347887	0.236045	-0.081313
H74	H	1.847887	0.736045	0.418687
H75	H	1.336480	0.236037	-0.556682
H76	H	1.836480	0.736037	-0.056682
H77	H	1.344903	-0.450492	-0.200159
H78	H	1.844903	0.049508	0.299841
H79	H	1.347808	-0.236251	-0.081314
H80	H	1.847808	0.263749	0.418686
H81	H	1.336407	-0.236261	-0.556684
H82	H	1.836407	0.263739	-0.056684
H83	H	1.339221	-0.450479	-0.437851
H84	H	1.839221	0.049521	0.062149
H85	H	1.345065	0.450247	-0.200142
H86	H	1.845065	0.950247	0.299858
H87	H	1.339366	0.450253	-0.437835
H88	H	1.839366	0.950253	0.062165
