data_functionalizedCrystal
_audit_creation_method	'MofGen! by Chris Wilmer'
_symmetry_space_group_name_H-M	'P1'
_symmetry_Int_Tables_number	1
_symmetry_cell_setting	triclinic
loop_
_symmetry_equiv_pos_as_xyz
  x,y,z
_cell_length_a	14.909227
_cell_length_b	19.077105
_cell_length_c	19.077068
_cell_angle_alpha	89.884684
_cell_angle_beta	89.100874
_cell_angle_gamma	95.741075
loop_
_atom_site_label
_atom_site_type_symbol
_atom_site_fract_x
_atom_site_fract_y
_atom_site_fract_z
Zn1	Zn	-0.581494	-1.090198	-0.297876
Zn2	Zn	-0.436397	-1.078596	-0.421649
Zn3	Zn	-0.424332	-0.965336	-0.299956
Zn4	Zn	-0.580952	-0.967907	-0.410641
O5	O	-0.505794	-1.025509	-0.357531
O6	O	-0.567523	-1.187237	-0.318032
O7	O	-0.308527	-1.057640	-0.410983
O8	O	-0.440357	-0.985679	-0.201558
O9	O	-0.460921	-1.178713	-0.408967
O10	O	-0.555823	-1.077414	-0.200030
O11	O	-0.299663	-0.974429	-0.321576
O12	O	-0.439831	-0.867099	-0.310902
O13	O	-0.707294	-0.990061	-0.390206
O14	O	-0.554900	-0.868988	-0.392222
O15	O	-0.707692	-1.079907	-0.307358
O16	O	-0.460395	-1.060133	-0.518311
O17	O	-0.566599	-0.978811	-0.510223
C18	C	-0.495998	-0.842483	-0.350593
C19	C	-0.491829	-0.764184	-0.347642
C20	C	-0.514768	-1.018512	-0.539709
C21	C	-0.518641	-1.015584	-0.617646
C22	C	-0.741148	-1.036565	-0.347322
C23	C	-0.841443	-1.041276	-0.342971
C24	C	-0.983011	-1.094689	-0.293710
C25	C	-0.888776	-1.090266	-0.297795
C26	C	-0.888351	-0.996707	-0.384067
C27	C	-0.982586	-1.001130	-0.379982
C28	C	-1.029913	-1.050122	-0.334801
C29	C	-1.124150	-1.054541	-0.330713
C30	C	-1.123724	-0.960986	-0.416988
C31	C	-1.029488	-0.956563	-0.421073
C32	C	-0.271354	-1.014539	-0.367651
C33	C	-0.171058	-1.009972	-0.371809
C34	C	-0.515628	-1.209250	-0.364495
C35	C	-0.519819	-1.287549	-0.367463
C36	C	-0.549694	-0.728394	-0.388666
C37	C	-0.545781	-0.654825	-0.385883
C38	C	-0.483999	-0.617046	-0.342079
C39	C	-0.426132	-0.652841	-0.301051
C40	C	-0.430050	-0.726410	-0.303830
C41	C	-0.465870	-0.396913	-0.329214
C42	C	-0.461955	-0.323339	-0.326439
C43	C	-0.581606	-0.325328	-0.411271
C44	C	-0.585514	-0.398897	-0.414050
C45	C	-0.527651	-0.434686	-0.373018
N46	N	-0.479996	-0.541846	-0.339235
N47	N	-0.531659	-0.509886	-0.375859
C48	C	-0.465216	-1.056586	-0.658448
C49	C	-0.468864	-1.053837	-0.731679
C50	C	-0.525934	-1.010082	-0.764106
C51	C	-0.579365	-0.969078	-0.723298
C52	C	-0.575721	-0.971832	-0.650069
C53	C	-0.542761	-0.997306	-0.982668
C54	C	-0.546399	-0.994554	-1.055902
C55	C	-0.435900	-1.079314	-1.064278
C56	C	-0.432256	-1.082061	-0.991047
C57	C	-0.485691	-1.041060	-0.950246
N58	N	-0.529662	-1.007269	-0.838959
N59	N	-0.481967	-1.043877	-0.875394
C60	C	-0.496805	-1.032554	-0.174641
C61	C	-0.492974	-1.035556	-0.096704
H62	H	-1.021544	-1.134573	-0.256914
C63	C	-0.402434	-1.104711	-0.622782
H64	H	-0.407906	-1.100474	-0.573325
H65	H	-0.418811	-1.152208	-0.635953
H66	H	-0.341844	-1.091130	-0.637057
H67	H	-0.418747	-0.426043	-0.295809
H68	H	-0.600000	-0.759148	-0.424338
C69	C	-0.601521	-0.952194	-0.937796
H70	H	-0.636019	-0.925734	-0.967599
H71	H	-0.640888	-0.982031	-0.908502
H72	H	-0.563898	-0.920971	-0.909609
C73	C	-0.837182	-1.139287	-0.252594
H74	H	-0.774281	-1.129641	-0.261500
H75	H	-0.849761	-1.131519	-0.204422
H76	H	-0.855667	-1.186950	-0.263986
H77	H	-0.849802	-0.956825	-0.420856
C78	C	-0.410092	-1.098935	-0.776558
H79	H	-0.375573	-1.125381	-0.746758
H80	H	-0.447697	-1.130160	-0.804750
H81	H	-0.370730	-1.069083	-0.805847
H82	H	-0.592899	-0.625688	-0.419289
C83	C	-0.977424	-0.902673	-0.470765
H84	H	-0.914583	-0.906418	-0.467310
H85	H	-0.995734	-0.911887	-0.517599
H86	H	-0.989827	-0.856461	-0.458030
H87	H	-0.411650	-0.292582	-0.290761
C88	C	-0.358170	-0.611287	-0.252870
H89	H	-0.364116	-0.562345	-0.257095
H90	H	-0.369793	-0.625775	-0.205652
H91	H	-0.298664	-0.620096	-0.266152
H92	H	-0.385786	-1.117690	-0.964647
C93	C	-1.176208	-1.108432	-0.281020
H94	H	-1.134775	-1.134346	-0.257139
H95	H	-1.210027	-1.084391	-0.247852
H96	H	-1.215929	-1.139819	-0.307420
H97	H	-1.161920	-0.924688	-0.450440
H98	H	-0.392397	-1.112696	-1.097506
C99	C	-0.642138	-0.920947	-0.758966
H100	H	-0.636650	-0.925173	-0.808423
H101	H	-0.702728	-0.934516	-0.744696
H102	H	-0.625747	-0.873449	-0.745791
H103	H	-0.619227	-0.938445	-0.616849
H104	H	-0.592889	-0.958932	-1.082302
H105	H	-0.635822	-0.429652	-0.449721
H106	H	-0.628716	-0.296180	-0.444675
C107	C	-0.366401	-0.765779	-0.258703
H108	H	-0.329040	-0.732744	-0.232220
H109	H	-0.401012	-0.797278	-0.227779
H110	H	-0.329871	-0.791596	-0.288271
