data_functionalizedCrystal
_audit_creation_method	'MofGen! by Chris Wilmer'
_symmetry_space_group_name_H-M	'P1'
_symmetry_Int_Tables_number	1
_symmetry_cell_setting	triclinic
loop_
_symmetry_equiv_pos_as_xyz
  x,y,z
_cell_length_a	12.837943
_cell_length_b	11.892283
_cell_length_c	12.837942
_cell_angle_alpha	94.307221
_cell_angle_beta	94.828940
_cell_angle_gamma	85.696109
loop_
_atom_site_label
_atom_site_type_symbol
_atom_site_fract_x
_atom_site_fract_y
_atom_site_fract_z
O1	O	-1.396305	-0.093980	-0.278165
O2	O	-1.093171	-0.093987	-0.264722
O3	O	-1.238016	-0.093977	-0.119876
O4	O	-1.251459	-0.093990	-0.423011
O5	O	-1.250067	0.094026	-0.107818
O6	O	-1.105221	0.094016	-0.252664
O7	O	-1.408355	0.094023	-0.266107
Zn8	Zn	-1.258702	0.123869	-0.257471
Zn9	Zn	-1.242824	-0.123833	-0.273358
O10	O	-1.263510	0.094013	-0.410953
C11	C	-1.060127	0.000014	-0.254152
C12	C	-0.943712	0.000011	-0.240607
C13	C	-1.239500	0.000024	-0.074778
C14	C	-1.225956	0.000022	0.041637
C15	C	-1.441399	0.000020	-0.276677
C16	C	-1.557814	0.000015	-0.290222
N17	N	-1.269545	0.292919	-0.246629
C18	C	-0.718838	0.000020	-0.403436
C19	C	-0.609456	0.000019	-0.390715
C20	C	-0.615563	0.000015	-0.202444
C21	C	-0.724945	0.000017	-0.215165
C22	C	-0.776579	0.000017	-0.315665
C23	C	-0.885963	0.000011	-0.328385
C24	C	-0.892068	0.000015	-0.140115
C25	C	-0.782686	0.000014	-0.127394
N26	N	-1.231988	-0.292884	-0.284193
C27	C	-1.345105	0.470429	-0.171142
C28	C	-1.337503	0.352089	-0.178727
C29	C	-1.209188	0.352097	-0.306952
C30	C	-1.216790	0.470436	-0.299367
C31	C	-1.284750	0.529598	-0.231459
C32	C	-1.292346	0.647939	-0.223869
C33	C	-1.164037	0.647944	-0.352100
C34	C	-1.156435	0.529605	-0.359685
C35	C	-1.262025	0.000009	-0.456051
C36	C	-1.275570	0.000004	-0.572466
C37	C	-1.388784	0.000002	0.266510
C38	C	-1.376062	-0.000000	0.375892
C39	C	-1.187792	0.000007	0.369785
C40	C	-1.200513	0.000009	0.260403
C41	C	-1.301013	0.000008	0.208769
C42	C	-1.313734	0.000019	0.099385
C43	C	-1.125463	0.000018	0.093280
C44	C	-1.112742	0.000016	0.202662
H45	H	-0.760879	0.000019	-0.485267
H46	H	-0.562447	0.000024	-0.462188
H47	H	-1.114888	0.696133	-0.401211
H48	H	-1.101106	0.481422	-0.414978
O49	O	-1.090142	-0.000203	0.419895
C50	C	-0.919079	-0.097584	0.441859
C51	C	-1.029635	-0.097495	0.385050
H52	H	-0.870121	-0.176223	0.413692
H53	H	-0.925008	-0.097668	0.529959
H54	H	-0.880239	-0.018869	0.423929
H55	H	-1.068538	-0.176196	0.402894
H56	H	-1.023635	-0.097352	0.296966
O57	O	-1.411424	-0.000038	0.049387
C58	C	-1.596822	0.000003	0.066997
C59	C	-1.486245	0.000048	0.123747
H60	H	-1.657346	0.000097	0.127094
H61	H	-1.602499	-0.078695	0.010920
H62	H	-1.612485	0.078663	0.020957
H63	H	-1.470509	-0.078559	0.169845
H64	H	-1.480623	0.078798	0.179763
O65	O	-0.732630	-0.000143	-0.029732
C66	C	-0.698082	-0.097595	0.128788
C67	C	-0.754844	-0.097539	0.018217
H68	H	-0.716003	-0.176343	0.167579
H69	H	-0.726157	-0.018975	0.177831
H70	H	-0.609993	-0.097540	0.122781
H71	H	-0.842941	-0.097634	0.024125
H72	H	-0.726683	-0.176153	-0.030784
H73	H	-1.470615	0.000012	0.224469
H74	H	-1.447535	-0.000009	0.422900
O75	O	-1.015079	0.000167	0.252714
C76	C	-0.856546	0.097610	0.287265
C77	C	-0.967121	0.097563	0.230510
H78	H	-0.817749	0.176358	0.269351
H79	H	-0.807513	0.018989	0.259179
H80	H	-0.862548	0.097549	0.375355
H81	H	-0.961218	0.097664	0.142412
H82	H	-1.016112	0.176177	0.258682
O83	O	-1.358441	0.705237	-0.157884
C84	C	-1.484857	0.692733	-0.031451
C85	C	-1.410063	0.627708	-0.106157
H86	H	-1.526597	0.630080	0.010407
H87	H	-1.545239	0.748098	-0.078244
H88	H	-1.438040	0.748175	0.028845
H89	H	-1.456793	0.572205	-0.166468
H90	H	-1.349679	0.572415	-0.059295
O91	O	-1.411189	0.527730	-0.105149
C92	C	-1.537579	0.515238	0.021313
C93	C	-1.462804	0.450206	-0.053407
H94	H	-1.579314	0.452589	0.063182
H95	H	-1.597968	0.570605	-0.025469
H96	H	-1.490748	0.570677	0.081600
H97	H	-1.509548	0.394706	-0.113709
H98	H	-1.402414	0.394910	-0.006555
H99	H	-0.939092	0.000005	-0.068645
H100	H	-0.928001	0.000013	-0.410217
O101	O	-1.143166	0.294792	-0.373006
C102	C	-1.016660	0.307272	-0.499353
C103	C	-1.091403	0.372310	-0.424605
H104	H	-0.974772	0.369917	-0.541075
H105	H	-1.063426	0.251897	-0.559755
H106	H	-0.956389	0.251841	-0.452503
H107	H	-1.151688	0.427803	-0.471368
H108	H	-1.044566	0.427614	-0.364203
H109	H	-0.573509	0.000108	-0.120616
H110	H	-1.386651	0.303917	-0.129612
H111	H	-1.053994	0.000033	0.046257
