data_functionalizedCrystal
_audit_creation_method	'MofGen! by Chris Wilmer'
_symmetry_space_group_name_H-M	'P1'
_symmetry_Int_Tables_number	1
_symmetry_cell_setting	triclinic
loop_
_symmetry_equiv_pos_as_xyz
  x,y,z
_cell_length_a	23.532407
_cell_length_b	23.532407
_cell_length_c	14.586319
_cell_angle_alpha	90.001839
_cell_angle_beta	89.996242
_cell_angle_gamma	97.151323
loop_
_atom_site_label
_atom_site_type_symbol
_atom_site_fract_x
_atom_site_fract_y
_atom_site_fract_z
O1	O	-0.069134	0.755259	-0.076111
O2	O	0.430866	1.255259	0.423889
O3	O	-0.079137	0.589395	-0.076136
O4	O	0.420863	1.089395	0.423864
O5	O	0.008796	0.677329	-0.076135
O6	O	0.508796	1.177329	0.423865
O7	O	-0.157067	0.667325	-0.076113
O8	O	0.342933	1.167325	0.423887
O9	O	0.008797	0.677323	0.076346
O10	O	0.508797	1.177323	0.576346
O11	O	-0.079136	0.589389	0.076345
O12	O	0.420864	1.089389	0.576345
O13	O	-0.069133	0.755253	0.076369
O14	O	0.430867	1.255253	0.576369
Cu15	Cu	-0.074134	0.672320	0.090280
Cu16	Cu	0.425866	1.172320	0.590280
Cu17	Cu	-0.074136	0.672328	-0.090047
Cu18	Cu	0.425864	1.172328	0.409953
O19	O	-0.157066	0.667319	0.076368
O20	O	0.342934	1.167319	0.576368
C21	C	-0.078882	0.568176	0.000101
C22	C	0.421118	1.068176	0.500101
C23	C	-0.078116	0.504959	0.000090
C24	C	0.421884	1.004959	0.500090
C25	C	-0.125350	0.105856	0.000138
C26	C	0.374650	0.605856	0.500138
C27	C	-0.124638	0.046456	0.000144
C28	C	0.375362	0.546456	0.500144
O29	O	-0.168424	0.009711	0.000183
O30	O	0.331576	0.509711	0.500183
N31	N	-0.072362	0.023830	0.000135
N32	N	0.427638	0.523830	0.500135
C33	C	-0.020794	0.060607	0.000131
C34	C	0.479206	0.560607	0.500131
O35	O	0.023737	0.035908	0.000125
O36	O	0.523737	0.535908	0.500125
C37	C	-0.021506	0.120006	0.000132
C38	C	0.478494	0.620006	0.500132
C39	C	-0.073785	0.142629	0.000131
C40	C	0.426215	0.642629	0.500131
C41	C	-0.177625	0.128479	0.000138
C42	C	0.322375	0.628479	0.500138
C43	C	-0.178336	0.187876	0.000131
C44	C	0.321664	0.687876	0.500131
C45	C	-0.126772	0.224649	0.000124
C46	C	0.373228	0.724649	0.500124
C47	C	-0.074496	0.202025	0.000124
C48	C	0.425504	0.702025	0.500124
C49	C	0.030062	0.156783	0.000134
C50	C	0.530062	0.656783	0.500134
C51	C	0.029345	0.216185	0.000136
C52	C	0.529345	0.716185	0.500136
C53	C	-0.022934	0.238808	0.000135
C54	C	0.477066	0.738808	0.500135
C55	C	-0.023643	0.298194	0.000109
C56	C	0.476357	0.798194	0.500109
N57	N	-0.075920	0.320820	0.000117
N58	N	0.424080	0.820820	0.500117
C59	C	-0.127484	0.284048	0.000125
C60	C	0.372516	0.784048	0.500125
C61	C	-0.019302	-0.064135	0.000130
C62	C	0.480698	0.435865	0.500130
C63	C	-0.018589	-0.123533	0.000123
C64	C	0.481411	0.376467	0.500123
C65	C	-0.122434	-0.137680	0.000137
C66	C	0.377566	0.362320	0.500137
C67	C	-0.123146	-0.078281	0.000138
C68	C	0.376854	0.421719	0.500138
C69	C	-0.071578	-0.041509	0.000139
C70	C	0.428422	0.458491	0.500139
C71	C	-0.128974	0.408784	0.000109
C72	C	0.371026	0.908784	0.500109
C73	C	-0.129680	0.468186	0.000098
C74	C	0.370320	0.968186	0.500098
C75	C	-0.025836	0.482329	0.000088
C76	C	0.474164	0.982329	0.500088
C77	C	-0.025129	0.422932	0.000094
C78	C	0.474871	0.922932	0.500094
C79	C	-0.076702	0.386160	0.000108
C80	C	0.423298	0.886160	0.500108
O81	O	0.020119	0.334974	0.000074
O82	O	0.520119	0.834974	0.500074
O83	O	-0.172007	0.308755	0.000143
O84	O	0.327993	0.808755	0.500143
C85	C	-0.178283	0.667577	0.000130
C86	C	0.321717	1.167577	0.500130
C87	C	-0.241500	0.668343	0.000139
C88	C	0.258500	1.168343	0.500139
C89	C	-0.640603	0.621110	0.000085
C90	C	-0.140603	1.121110	0.500085
C91	C	-0.700003	0.621821	0.000079
C92	C	-0.200003	1.121821	0.500079
O93	O	-0.736748	0.578035	0.000039
O94	O	-0.236748	1.078035	0.500039
N95	N	-0.722629	0.674097	0.000088
N96	N	-0.222629	1.174097	0.500088
C97	C	-0.685852	0.725666	0.000094
C98	C	-0.185852	1.225666	0.500094
O99	O	-0.710551	0.770196	0.000100
O100	O	-0.210551	1.270196	0.500100
C101	C	-0.626453	0.724954	0.000094
C102	C	-0.126453	1.224954	0.500094
C103	C	-0.603830	0.672674	0.000094
C104	C	-0.103830	1.172674	0.500094
C105	C	-0.617980	0.568834	0.000084
C106	C	-0.117980	1.068834	0.500084
C107	C	-0.558584	0.568123	0.000092
C108	C	-0.058584	1.068123	0.500092
C109	C	-0.521811	0.619687	0.000101
C110	C	-0.021811	1.119687	0.500101
C111	C	-0.544434	0.671963	0.000102
C112	C	-0.044434	1.171963	0.500102
C113	C	-0.589676	0.776521	0.000093
C114	C	-0.089676	1.276521	0.500093
C115	C	-0.530274	0.775805	0.000092
C116	C	-0.030274	1.275805	0.500092
C117	C	-0.507651	0.723525	0.000092
C118	C	-0.007651	1.223525	0.500092
C119	C	-0.448265	0.722816	0.000119
C120	C	0.051735	1.222816	0.500119
N121	N	-0.425639	0.670539	0.000110
N122	N	0.074361	1.170539	0.500110
C123	C	-0.462412	0.618975	0.000101
C124	C	0.037588	1.118975	0.500101
C125	C	-0.810594	0.727157	0.000093
C126	C	-0.310594	1.227157	0.500093
C127	C	-0.869992	0.727870	0.000100
C128	C	-0.369992	1.227870	0.500100
C129	C	-0.884140	0.624025	0.000083
C130	C	-0.384140	1.124025	0.500083
C131	C	-0.824740	0.623313	0.000083
C132	C	-0.324740	1.123313	0.500083
C133	C	-0.787968	0.674881	0.000084
C134	C	-0.287968	1.174881	0.500084
C135	C	-0.337675	0.617485	0.000119
C136	C	0.162325	1.117485	0.500119
C137	C	-0.278273	0.616779	0.000130
C138	C	0.221727	1.116779	0.500130
C139	C	-0.264131	0.720623	0.000142
C140	C	0.235869	1.220623	0.500142
C141	C	-0.323527	0.721330	0.000135
C142	C	0.176473	1.221330	0.500135
C143	C	-0.360299	0.669757	0.000120
C144	C	0.139701	1.169757	0.500120
O145	O	-0.411486	0.766579	0.000155
O146	O	0.088514	1.266579	0.500155
O147	O	-0.437704	0.574452	0.000083
O148	O	0.062296	1.074452	0.500083
C149	C	0.030013	0.677071	0.000101
C150	C	0.530013	1.177071	0.500101
C151	C	0.093230	0.676305	0.000086
C152	C	0.593230	1.176305	0.500086
C153	C	-0.069388	0.776472	0.000130
C154	C	0.430612	1.276472	0.500130
C155	C	-0.070154	0.839689	0.000135
C156	C	0.429846	1.339689	0.500135
N157	N	-0.074133	0.672320	0.217111
N158	N	0.425867	1.172320	0.717111
N159	N	-0.074133	0.672333	-0.216878
N160	N	0.425867	1.172333	0.283122
C161	C	-0.035209	0.711269	0.452119
C162	C	0.464791	1.211269	0.952119
C163	C	-0.035208	0.711271	0.548100
C164	C	0.464792	1.211271	1.048100
C165	C	-0.113059	0.633379	0.548108
C166	C	0.386941	1.133379	1.048108
C167	C	-0.113057	0.633375	0.452128
C168	C	0.386943	1.133375	0.952128
C169	C	-0.074133	0.672324	0.404136
C170	C	0.425867	1.172324	0.904136
C171	C	-0.074133	0.672329	0.596097
C172	C	0.425867	1.172329	1.096097
C173	C	-0.074132	0.672331	0.700164
C174	C	0.425868	1.172331	1.200164
C175	C	-0.074133	0.672321	0.300062
C176	C	0.425867	1.172321	0.800062
H177	H	-0.170970	0.378851	0.000123
H178	H	0.329030	0.878851	0.500123
Br179	Br	0.017618	0.764126	0.386990
Br180	Br	0.517618	1.264126	0.886990
Br181	Br	0.017622	0.764125	0.613217
Br182	Br	0.517622	1.264125	1.113217
Br183	Br	-0.247575	0.545823	0.000136
Br184	Br	0.252425	1.045823	0.500136
Br185	Br	-0.527891	0.497168	0.000083
Br186	Br	-0.027891	0.997168	0.500083
H187	H	0.071339	0.246123	0.000136
H188	H	0.571339	0.746123	0.500136
H189	H	-0.144751	0.601669	0.587193
H190	H	0.355249	1.101669	1.087193
H191	H	-0.144753	0.601658	0.413058
H192	H	0.355247	1.101658	0.913058
H193	H	-0.172255	0.486602	0.000096
H194	H	0.327745	0.986602	0.500096
H195	H	-0.220908	0.206289	0.000130
H196	H	0.279092	0.706289	0.500130
Br197	Br	-0.667876	0.498844	0.000068
Br198	Br	-0.167876	0.998844	0.500068
H199	H	-0.367608	0.575489	0.000106
H200	H	0.132392	1.075489	0.500106
H201	H	-0.219617	0.098544	0.000147
H202	H	0.280383	0.598544	0.500147
H203	H	-0.164421	-0.167632	0.000147
H204	H	0.335579	0.332368	0.500147
Br205	Br	-0.194099	-0.047586	0.000137
Br206	Br	0.305901	0.452414	0.500137
Br207	Br	0.052364	-0.154227	0.000096
Br208	Br	0.552364	0.345773	0.500096
H209	H	-0.234180	0.762605	0.000154
H210	H	0.265820	1.262605	0.500154
Br211	Br	0.050690	-0.014235	0.000122
Br212	Br	0.550690	0.485765	0.500122
Br213	Br	0.045822	0.392228	0.000098
Br214	Br	0.545822	0.892228	0.500098
H215	H	-0.888406	0.770441	0.000114
H216	H	-0.388406	1.270441	0.500114
Br217	Br	-0.760694	0.797149	0.000104
Br218	Br	-0.260694	1.297149	0.500104
H219	H	0.016146	0.512280	0.000079
H220	H	0.516146	1.012280	0.500079
Br221	Br	-0.620363	0.847477	0.000071
Br222	Br	-0.120363	1.347477	0.500071
Br223	Br	-0.480371	0.845794	0.000087
Br224	Br	0.019629	1.345794	0.500087
H225	H	-0.806326	0.580742	0.000087
H226	H	-0.306326	1.080742	0.500087
Br227	Br	0.101018	0.126097	0.000115
Br228	Br	0.601018	0.626097	0.500115
H229	H	-0.914091	0.582038	0.000076
H230	H	-0.414091	1.082038	0.500076
H231	H	-0.341947	0.763901	0.000148
H232	H	0.158053	1.263901	0.500148
