data_functionalizedCrystal
_audit_creation_method	'MofGen! by Chris Wilmer'
_symmetry_space_group_name_H-M	'P1'
_symmetry_Int_Tables_number	1
_symmetry_cell_setting	triclinic
loop_
_symmetry_equiv_pos_as_xyz
  x,y,z
_cell_length_a	12.759400
_cell_length_b	17.077404
_cell_length_c	12.759393
_cell_angle_alpha	90.024604
_cell_angle_beta	89.970195
_cell_angle_gamma	89.986252
loop_
_atom_site_label
_atom_site_type_symbol
_atom_site_fract_x
_atom_site_fract_y
_atom_site_fract_z
Zn1	Zn	-0.418241	-1.200124	-0.594128
Zn2	Zn	0.081759	-0.700124	-0.094128
Zn3	Zn	-0.593956	-1.200043	-0.418450
Zn4	Zn	-0.093956	-0.700043	0.081550
Zn5	Zn	-0.418289	-1.068849	-0.418452
Zn6	Zn	0.081711	-0.568849	0.081548
Zn7	Zn	-0.593875	-1.068843	-0.594076
Zn8	Zn	-0.093875	-0.568843	-0.094076
O9	O	-0.506090	-1.134464	-0.506276
O10	O	-0.006090	-0.634464	-0.006276
O11	O	-0.441563	-1.309960	-0.570845
O12	O	0.058437	-0.809960	-0.070845
O13	O	-0.570708	-1.182608	-0.271429
O14	O	-0.070708	-0.682608	0.228571
O15	O	-0.271262	-1.086299	-0.441778
O16	O	0.228738	-0.586299	0.058222
O17	O	-0.570661	-1.309900	-0.441775
O18	O	-0.070661	-0.809900	0.058225
O19	O	-0.271226	-1.182747	-0.570846
O20	O	0.228774	-0.682747	-0.070846
O21	O	-0.441646	-1.086220	-0.271430
O22	O	0.058354	-0.586220	0.228570
O23	O	-0.441567	-0.959001	-0.441728
O24	O	0.058433	-0.459001	0.058272
O25	O	-0.570523	-1.086289	-0.741104
O26	O	-0.070523	-0.586289	-0.241104
O27	O	-0.570570	-0.958997	-0.570758
O28	O	-0.070570	-0.458997	-0.070758
O29	O	-0.441485	-1.182741	-0.741142
O30	O	0.058515	-0.682741	-0.241142
O31	O	-0.740966	-1.182602	-0.441725
O32	O	-0.240966	-0.682602	0.058275
O33	O	-0.740907	-1.086210	-0.570757
O34	O	-0.240907	-0.586210	-0.070757
C35	C	-0.779058	-1.134418	-0.506258
C36	C	-0.279058	-0.634418	-0.006258
C37	C	-0.895834	-1.134470	-0.506285
C38	C	-0.395834	-0.634470	-0.006285
C39	C	-0.506066	-0.930517	-0.506238
C40	C	-0.006066	-0.430517	-0.006238
C41	C	-0.506081	-0.843267	-0.506247
C42	C	-0.006081	-0.343267	-0.006247
C43	C	-0.950588	-1.184668	-0.573548
C44	C	-0.450588	-0.684668	-0.073548
C45	C	-1.060312	-1.184712	-0.573577
C46	C	-0.560312	-0.684712	-0.073577
C47	C	-1.060519	-1.084358	-0.439070
C48	C	-0.560519	-0.584358	0.060930
C49	C	-0.950797	-1.084310	-0.439047
C50	C	-0.450797	-0.584310	0.060953
C51	C	-0.573353	-0.802295	-0.573323
C52	C	-0.073353	-0.302295	-0.073323
C53	C	-0.573353	-0.720315	-0.573336
C54	C	-0.073353	-0.220315	-0.073336
C55	C	-0.506085	-0.679307	-0.506267
C56	C	-0.006085	-0.179307	-0.006267
C57	C	-0.438806	-0.720285	-0.439187
C58	C	0.061194	-0.220285	0.060813
C59	C	-0.438802	-0.802264	-0.439180
C60	C	0.061198	-0.302264	0.060820
C61	C	-0.438822	-0.549415	-0.439205
C62	C	0.061178	-0.049415	0.060795
C63	C	-0.438828	-0.467430	-0.439210
C64	C	0.061172	0.032570	0.060790
C65	C	-0.573374	-0.467466	-0.573361
C66	C	-0.073374	0.032534	-0.073361
C67	C	-0.573369	-0.549444	-0.573354
C68	C	-0.073369	-0.049444	-0.073354
C69	C	-0.506091	-0.590416	-0.506273
C70	C	-0.006091	-0.090416	-0.006273
C71	C	-0.232057	-1.134532	-0.506318
C72	C	0.267943	-0.634532	-0.006318
C73	C	-0.115280	-1.134561	-0.506336
C74	C	0.384720	-0.634561	-0.006336
C75	C	-0.505989	-1.134523	-0.780310
C76	C	-0.005989	-0.634523	-0.280310
C77	C	-0.505946	-1.134548	-0.897087
C78	C	-0.005946	-0.634548	-0.397087
C79	C	-0.506109	-0.339209	-0.506304
C80	C	-0.006109	0.160791	-0.006304
C81	C	-0.506100	-0.426459	-0.506287
C82	C	-0.006100	0.073541	-0.006287
C83	C	-0.438746	-1.184774	-0.951970
C84	C	0.061254	-0.684774	-0.451970
C85	C	-0.438700	-1.184788	-1.061694
C86	C	0.061300	-0.684788	-0.561694
C87	C	-0.573066	-1.084346	-1.061642
C88	C	-0.073066	-0.584346	-0.561642
C89	C	-0.573105	-1.084330	-0.951920
C90	C	-0.073105	-0.584330	-0.451920
C91	C	-0.506115	-1.134451	-0.233309
C92	C	-0.006115	-0.634451	0.266691
C93	C	-0.505862	-1.134578	-0.116533
C94	C	-0.005862	-0.634578	0.383467
H95	H	-0.905840	-1.225510	-0.628299
H96	H	-0.405840	-0.725510	-0.128299
H97	H	-0.628151	-0.434102	-0.627984
H98	H	-0.128151	0.065898	-0.127984
H99	H	-0.384058	-1.225663	-0.907328
H100	H	0.115942	-0.725663	-0.407328
H101	H	-0.384041	-0.434045	-0.384609
H102	H	0.115959	0.065955	0.115391
Cl103	Cl	-0.354243	-0.600921	-0.354873
Cl104	Cl	0.145757	-0.100921	0.145127
H105	H	-0.627746	-1.043462	-1.106300
H106	H	-0.127746	-0.543462	-0.606300
Cl107	Cl	-1.129623	-1.021302	-0.354549
Cl108	Cl	-0.629623	-0.521302	0.145451
Cl109	Cl	-0.354234	-0.668733	-0.354878
Cl110	Cl	0.145766	-0.168733	0.145122
Cl111	Cl	-0.354224	-1.247939	-1.130686
Cl112	Cl	0.145776	-0.747939	-0.630686
Cl113	Cl	-0.881959	-1.021192	-0.354489
Cl114	Cl	-0.381959	-0.521192	0.145511
Cl115	Cl	-0.657927	-0.853839	-0.657639
Cl116	Cl	-0.157927	-0.353839	-0.157639
H117	H	-1.104887	-1.225587	-0.628351
H118	H	-0.604887	-0.725587	-0.128351
Cl119	Cl	-0.657927	-0.668810	-0.657665
Cl120	Cl	-0.157927	-0.168810	-0.157665
H121	H	-0.384016	-0.835622	-0.384565
H122	H	0.115984	-0.335622	0.115435
H123	H	-0.627827	-1.043424	-0.907232
H124	H	-0.127827	-0.543424	-0.407232
H125	H	-0.628150	-0.582830	-0.627962
H126	H	-0.128150	-0.082830	-0.127962
