data_functionalizedCrystal
_audit_creation_method	'MofGen! by Chris Wilmer'
_symmetry_space_group_name_H-M	'P1'
_symmetry_Int_Tables_number	1
_symmetry_cell_setting	triclinic
loop_
_symmetry_equiv_pos_as_xyz
  x,y,z
_cell_length_a	6.394989
_cell_length_b	19.288865
_cell_length_c	18.366186
_cell_angle_alpha	90.011479
_cell_angle_beta	90.008475
_cell_angle_gamma	84.816979
loop_
_atom_site_label
_atom_site_type_symbol
_atom_site_fract_x
_atom_site_fract_y
_atom_site_fract_z
O1	O	-2.770438	-0.113783	-0.060553
O2	O	-2.162255	-0.119515	-0.060557
O3	O	-2.483920	-0.015691	-0.060540
O4	O	-2.448773	-0.217607	-0.060570
O5	O	-2.483866	-0.015685	0.060559
O6	O	-2.162201	-0.119509	0.060543
O7	O	-2.770383	-0.113777	0.060546
Zn8	Zn	-2.466283	-0.116642	0.079772
Zn9	Zn	-2.466355	-0.116650	-0.079782
O10	O	-2.448718	-0.217601	0.060530
C11	C	-2.482762	0.010200	0.000011
C12	C	-2.479367	0.087336	0.000018
C13	C	-2.449877	-0.243492	-0.000024
C14	C	-2.453271	-0.320629	-0.000035
N15	N	-2.466250	-0.116637	0.188663
C16	C	-2.084417	-0.118379	-0.000003
C17	C	-1.848215	-0.114915	0.000000
N18	N	-2.466406	-0.116650	-0.188673
C19	C	-2.668105	0.130184	0.000022
C20	C	-2.664916	0.202663	0.000011
C21	C	-2.472977	0.232290	0.000009
C22	C	-2.284214	0.189433	0.000001
C23	C	-2.287409	0.116956	0.000005
C24	C	-2.322072	0.342057	0.042427
C25	C	-2.318886	0.414533	0.042427
C26	C	-2.463116	0.455832	-0.000007
C27	C	-2.610569	0.424648	-0.042432
C28	C	-2.613764	0.352171	-0.042428
C29	C	-2.469492	0.310878	0.000004
C30	C	-2.648409	0.577270	-0.000016
C31	C	-2.645212	0.649749	-0.000032
C32	C	-2.264505	0.636517	-0.000035
C33	C	-2.267707	0.564040	-0.000026
C34	C	-2.459665	0.534420	-0.000013
C35	C	-2.608729	-0.070687	0.226770
C36	C	-2.608742	-0.070684	0.302998
C37	C	-2.466296	-0.116643	0.341115
C38	C	-2.323790	-0.162596	0.302999
C39	C	-2.323767	-0.162593	0.226772
C40	C	-2.438337	-0.179657	0.461867
C41	C	-2.438375	-0.179661	0.538091
C42	C	-2.466355	-0.116652	0.576223
C43	C	-2.494343	-0.053637	0.538120
C44	C	-2.494319	-0.053634	0.461894
C45	C	-2.466304	-0.116651	0.423770
C46	C	-2.608857	-0.070695	0.696985
C47	C	-2.608856	-0.070691	0.773215
C48	C	-2.323913	-0.162610	0.773214
C49	C	-2.323904	-0.162607	0.696986
C50	C	-2.466387	-0.116651	0.658876
H51	H	-2.818614	0.237556	0.000012
H52	H	-2.415516	-0.230969	0.430826
H53	H	-2.724870	-0.033273	0.665955
H54	H	-2.724742	-0.033265	0.195744
H55	H	-2.415599	-0.230972	0.569109
O56	O	-2.057485	0.668466	-0.000036
H57	H	-1.926775	0.626491	-0.000039
H58	H	-2.824412	0.106073	0.000031
O59	O	-2.159863	0.448167	0.088184
H60	H	-2.060081	0.407274	0.117681
O61	O	-2.170179	-0.212172	0.344113
H62	H	-2.196278	-0.266550	0.329457
O63	O	-2.170103	-0.212160	0.185663
H64	H	-2.071055	-0.244122	0.224971
O65	O	-2.772755	0.318532	-0.088194
H66	H	-2.872506	0.359420	-0.117710
O67	O	-2.766139	0.469179	-0.088211
H68	H	-2.739134	0.524815	-0.081097
O69	O	-2.077194	0.221385	0.000008
H70	H	-2.066657	0.254087	-0.049346
H71	H	-2.204617	0.308437	0.076986
H72	H	-2.114016	0.529152	-0.000026
O73	O	-2.855439	0.545317	-0.000019
H74	H	-2.946099	0.562417	0.049333
O75	O	-2.524507	0.014331	0.579233
H76	H	-2.519792	0.003747	0.638639
H77	H	-2.133711	0.082069	0.000001
O78	O	-2.848796	0.695965	-0.000020
H79	H	-2.940738	0.685210	-0.049367
O80	O	-2.170271	-0.212184	0.814313
H81	H	-2.194229	-0.204470	0.873721
H82	H	-2.724873	-0.033270	0.804243
O83	O	-2.762442	-0.021130	0.344115
H84	H	-2.861525	0.010822	0.304808
H85	H	-2.517102	-0.002325	0.430873
O86	O	-2.170254	-0.212176	0.655876
H87	H	-2.071213	-0.244139	0.695185
