data_functionalizedCrystal
_audit_creation_method	'MofGen! by Chris Wilmer'
_symmetry_space_group_name_H-M	'P1'
_symmetry_Int_Tables_number	1
_symmetry_cell_setting	triclinic
loop_
_symmetry_equiv_pos_as_xyz
  x,y,z
_cell_length_a	14.044220
_cell_length_b	10.654550
_cell_length_c	9.130313
_cell_angle_alpha	90.004369
_cell_angle_beta	90.001436
_cell_angle_gamma	91.163096
loop_
_atom_site_label
_atom_site_type_symbol
_atom_site_fract_x
_atom_site_fract_y
_atom_site_fract_z
O1	O	1.259697	-0.302986	-0.121643
O2	O	0.983656	-0.292053	-0.121680
O3	O	1.128023	-0.115418	-0.121651
O4	O	1.115330	-0.479621	-0.121672
O5	O	1.128013	-0.115411	0.121947
O6	O	0.983646	-0.292046	0.121919
O7	O	1.259687	-0.302979	0.121956
Cu8	Cu	1.121666	-0.297512	0.144180
Cu9	Cu	1.121678	-0.297520	-0.143904
O10	O	1.115320	-0.479614	0.121927
C11	C	0.948305	-0.287263	0.000115
C12	C	0.842986	-0.272988	0.000101
C13	C	1.127086	-0.068523	0.000147
C14	C	1.124298	0.071201	0.000144
N15	N	1.121664	-0.297507	0.346803
C16	C	0.650153	-0.246889	0.000131
C17	C	0.593185	-0.348137	0.000132
C18	C	0.485886	-0.333615	0.000149
C19	C	0.757462	-0.261409	0.000114
C20	C	1.295038	-0.307769	0.000158
C21	C	1.400358	-0.322044	0.000162
C22	C	1.116257	-0.526509	0.000126
C23	C	1.119045	-0.666233	0.000119
C24	C	1.209299	0.142144	0.000155
C25	C	1.206673	0.273429	0.000137
C26	C	1.034038	0.262814	0.000103
C27	C	1.036665	0.131532	0.000111
N28	N	1.121686	-0.297516	-0.346527
C29	C	1.185612	-0.219331	0.423467
C30	C	1.185621	-0.219332	0.576804
C31	C	1.057732	-0.375695	0.576798
C32	C	1.057719	-0.375687	0.423464
H33	H	0.618342	-0.149310	0.000145
C34	C	1.312040	-0.064788	0.561397
C35	C	1.255919	-0.133404	0.661073
H36	H	1.355443	-0.011743	0.613425
H37	H	1.272260	-0.015124	0.501607
H38	H	1.346490	-0.120967	0.501577
H39	H	1.221463	-0.077225	0.720887
H40	H	1.295704	-0.183072	0.720888
C41	C	1.279303	0.479385	0.000118
C42	C	1.300109	0.351412	0.000145
H43	H	1.336990	0.527526	0.000110
H44	H	1.243410	0.498728	0.085052
H45	H	1.243411	0.498693	-0.084845
H46	H	1.335995	0.332103	0.085114
H47	H	1.336017	0.332061	-0.084798
H48	H	1.237679	-0.155670	0.361053
C49	C	1.379676	0.165828	0.000160
C50	C	1.305624	0.075827	0.000166
H51	H	1.439144	0.124886	0.000151
H52	H	1.375062	0.216815	0.085102
H53	H	1.375052	0.216808	-0.084796
H54	H	1.310244	0.024853	0.085127
H55	H	1.310241	0.024818	-0.084785
C56	C	0.735649	-0.468958	0.000028
C57	C	0.636123	-0.479880	0.000065
H58	H	0.762157	-0.550288	-0.000037
H59	H	0.756159	-0.424630	0.084987
H60	H	0.756126	-0.424563	-0.084910
H61	H	0.615645	-0.524267	0.085009
H62	H	0.615605	-0.524226	-0.084903
H63	H	0.962690	0.311952	0.000079
H64	H	1.005641	-0.439347	0.361040
H65	H	0.967442	0.073767	0.000098
C66	C	0.894009	-0.430956	0.624042
C67	C	0.987449	-0.461629	0.661076
H68	H	0.850621	-0.484006	0.676079
H69	H	0.884853	-0.442147	0.521763
H70	H	0.883180	-0.345915	0.649192
H71	H	0.998281	-0.546668	0.635916
H72	H	0.996609	-0.450449	0.763378
