data_functionalizedCrystal
_audit_creation_method	'MofGen! by Chris Wilmer'
_symmetry_space_group_name_H-M	'P1'
_symmetry_Int_Tables_number	1
_symmetry_cell_setting	triclinic
loop_
_symmetry_equiv_pos_as_xyz
  x,y,z
_cell_length_a	23.532407
_cell_length_b	14.519709
_cell_length_c	12.996460
_cell_angle_alpha	89.992910
_cell_angle_beta	89.999749
_cell_angle_gamma	83.264411
loop_
_atom_site_label
_atom_site_type_symbol
_atom_site_fract_x
_atom_site_fract_y
_atom_site_fract_z
O1	O	0.755765	0.111951	-0.085441
O2	O	1.089099	0.445284	0.247893
O3	O	1.422432	0.778618	0.581226
O4	O	0.589975	0.128149	-0.085471
O5	O	0.923308	0.461482	0.247862
O6	O	1.256642	0.794816	0.581195
O7	O	0.677266	-0.014240	-0.085446
O8	O	1.010599	0.319093	0.247887
O9	O	1.343933	0.652426	0.581221
O10	O	0.668475	0.254341	-0.085466
O11	O	1.001808	0.587674	0.247867
O12	O	1.335141	0.921007	0.581201
O13	O	0.677257	-0.014248	0.085688
O14	O	1.010590	0.319085	0.419021
O15	O	1.343924	0.652419	0.752355
O16	O	0.589966	0.128141	0.085663
O17	O	0.923299	0.461475	0.418996
O18	O	1.256633	0.794808	0.752329
O19	O	0.755756	0.111943	0.085693
O20	O	1.089090	0.445277	0.419026
O21	O	1.422423	0.778610	0.752360
Cu22	Cu	0.672860	0.120042	0.101304
Cu23	Cu	1.006194	0.453375	0.434637
Cu24	Cu	1.339527	0.786708	0.767970
Cu25	Cu	0.672871	0.120051	-0.101082
Cu26	Cu	1.006204	0.453384	0.232252
Cu27	Cu	1.339538	0.786717	0.565585
O28	O	0.668465	0.254333	0.085668
O29	O	1.001799	0.587666	0.419001
O30	O	1.335132	0.920999	0.752334
C31	C	0.676852	-0.048599	0.000121
C32	C	1.010185	0.284734	0.333454
C33	C	1.343518	0.618067	0.666788
C34	C	0.675624	-0.150966	0.000121
C35	C	1.008957	0.182367	0.333455
C36	C	1.342291	0.515701	0.666788
C37	C	0.568753	0.127733	0.000092
C38	C	0.902086	0.461066	0.333425
C39	C	1.235419	0.794399	0.666759
C40	C	0.505530	0.126493	0.000081
C41	C	0.838863	0.459826	0.333414
C42	C	1.172197	0.793159	0.666747
C43	C	0.671104	-0.525808	0.000094
C44	C	1.004437	-0.192475	0.333427
C45	C	1.337771	0.140858	0.666761
C46	C	0.672359	-0.421515	0.000102
C47	C	1.005692	-0.088182	0.333435
C48	C	1.339026	0.245151	0.666769
C49	C	0.673364	-0.338390	0.000109
C50	C	1.006697	-0.005057	0.333442
C51	C	1.340030	0.328276	0.666775
C52	C	0.674619	-0.234091	0.000115
C53	C	1.007953	0.099243	0.333448
C54	C	1.341286	0.432576	0.666781
C55	C	0.106772	0.202977	0.000121
C56	C	0.440105	0.536311	0.333455
C57	C	0.773439	0.869644	0.666788
C58	C	0.047367	0.201825	0.000128
C59	C	0.380700	0.535159	0.333461
C60	C	0.714033	0.868492	0.666794
O61	O	0.010942	0.272727	0.000160
O62	O	0.344275	0.606061	0.333493
O63	O	0.677609	0.939394	0.666827
N64	N	0.024358	0.117175	0.000132
N65	N	0.357692	0.450508	0.333466
N66	N	0.691025	0.783841	0.666799
C67	C	0.060759	0.033671	0.000141
C68	C	0.394093	0.367004	0.333475
C69	C	0.727426	0.700337	0.666808
O70	O	0.035734	-0.038437	0.000147
O71	O	0.369068	0.294896	0.333480
O72	O	0.702401	0.628230	0.666813
C73	C	0.120164	0.034824	0.000142
C74	C	0.453497	0.368157	0.333475
C75	C	0.786830	0.701490	0.666809
C76	C	0.143168	0.119480	0.000127
C77	C	0.476502	0.452813	0.333460
C78	C	0.809835	0.786146	0.666794
C79	C	0.129777	0.287626	0.000107
C80	C	0.463111	0.620960	0.333441
C81	C	0.796444	0.954293	0.666774
C82	C	0.189179	0.288778	0.000099
C83	C	0.522512	0.622111	0.333433
C84	C	0.855845	0.955445	0.666766
C85	C	0.225575	0.205281	0.000105
C86	C	0.558908	0.538614	0.333438
C87	C	0.892241	0.871947	0.666771
C88	C	0.202570	0.120631	0.000119
C89	C	0.535903	0.453965	0.333452
C90	C	0.869236	0.787298	0.666785
C91	C	0.156563	-0.048679	0.000158
C92	C	0.489897	0.284654	0.333492
C93	C	0.823230	0.617988	0.666825
C94	C	0.215971	-0.047519	0.000160
C95	C	0.549304	0.285815	0.333493
C96	C	0.882638	0.619148	0.666827
C97	C	0.238976	0.037137	0.000145
C98	C	0.572309	0.370471	0.333478
C99	C	0.905642	0.703804	0.666812
C100	C	0.298367	0.038286	0.000116
C101	C	0.631700	0.371619	0.333449
C102	C	0.965034	0.704952	0.666783
N103	N	0.321375	0.122936	0.000111
N104	N	0.654709	0.456269	0.333445
N105	N	0.988042	0.789603	0.666778
C106	C	0.284979	0.206434	0.000106
C107	C	0.618312	0.539767	0.333439
C108	C	0.951646	0.873100	0.666772
C109	C	-0.063994	0.031256	0.000141
C110	C	0.269339	0.364589	0.333474
C111	C	0.602673	0.697922	0.666808
C112	C	-0.123397	0.030102	0.000133
C113	C	0.209936	0.363435	0.333466
C114	C	0.543269	0.696768	0.666799
C115	C	-0.136786	0.198257	0.000121
C116	C	0.196547	0.531590	0.333454
C117	C	0.529881	0.864923	0.666788
C118	C	-0.077382	0.199410	0.000122
C119	C	0.255952	0.532743	0.333455
C120	C	0.589285	0.866076	0.666789
C121	C	-0.040986	0.115906	0.000136
C122	C	0.292347	0.449240	0.333470
C123	C	0.625681	0.782573	0.666803
C124	C	0.409727	0.208846	0.000087
C125	C	0.743060	0.542179	0.333421
C126	C	1.076393	0.875512	0.666754
C127	C	0.469134	0.209990	0.000075
C128	C	0.802467	0.543323	0.333408
C129	C	1.135801	0.876657	0.666742
C130	C	0.482517	0.041836	0.000092
C131	C	0.815851	0.375169	0.333425
C132	C	1.149184	0.708502	0.666758
C133	C	0.423115	0.040691	0.000099
C134	C	0.756449	0.374024	0.333432
C135	C	1.089782	0.707358	0.666766
C136	C	0.386721	0.124204	0.000100
C137	C	0.720054	0.457537	0.333434
C138	C	1.053388	0.790870	0.666767
O139	O	0.334827	-0.032579	0.000088
O140	O	0.668160	0.300754	0.333422
O141	O	1.001493	0.634087	0.666755
O142	O	0.310012	0.278529	0.000114
O143	O	0.643346	0.611863	0.333447
O144	O	0.976679	0.945196	0.666781
C145	C	0.776979	0.112360	0.000128
C146	C	1.110312	0.445693	0.333461
C147	C	1.443645	0.779026	0.666794
C148	C	0.840201	0.113600	0.000132
C149	C	1.173535	0.446933	0.333466
C150	C	1.506868	0.780266	0.666799
C151	C	0.668880	0.288692	0.000099
C152	C	1.002213	0.622025	0.333432
C153	C	1.335546	0.955358	0.666765
C154	C	0.670107	0.391058	0.000091
C155	C	1.003441	0.724392	0.333425
C156	C	1.336774	1.057725	0.666758
N157	N	0.672857	0.120035	0.243651
N158	N	1.006190	0.453368	0.576984
N159	N	1.339524	0.786701	0.910318
N160	N	0.672879	0.120050	-0.243429
N161	N	1.006212	0.453384	0.089904
N162	N	1.339546	0.786717	0.423238
C163	C	0.672870	0.120052	0.663465
C164	C	1.006204	0.453385	0.996798
C165	C	1.339537	0.786718	1.330132
C166	C	0.672865	0.120050	0.546660
C167	C	1.006198	0.453383	0.879993
C168	C	1.339532	0.786717	1.213327
C169	C	0.672864	0.120044	0.453562
C170	C	1.006197	0.453377	0.786895
C171	C	1.339531	0.786710	1.120228
C172	C	0.672858	0.120041	0.336749
C173	C	1.006191	0.453374	0.670082
C174	C	1.339525	0.786707	1.003416
H175	H	0.487860	0.278930	0.000062
H176	H	0.821194	0.612263	0.333395
H177	H	1.154527	0.945597	0.666729
O178	O	-0.052574	0.290718	0.000127
O179	O	0.280760	0.624052	0.333460
O180	O	0.614093	0.957385	0.666794
H181	H	-0.067190	0.330821	-0.069622
H182	H	0.266143	0.664155	0.263711
H183	H	0.599476	0.997488	0.597045
O184	O	0.521779	-0.048220	0.000098
O185	O	0.855112	0.285113	0.333432
O186	O	1.188445	0.618446	0.666765
H187	H	0.513586	-0.088757	0.069855
H188	H	0.846919	0.244576	0.403188
H189	H	1.180253	0.577910	0.736521
O190	O	0.398301	-0.050616	0.000109
O191	O	0.731634	0.282717	0.333442
O192	O	1.064968	0.616050	0.666775
H193	H	0.371561	-0.055161	0.069866
H194	H	0.704894	0.278173	0.403200
H195	H	1.038228	0.611506	0.736533
H196	H	-0.034363	-0.036747	0.000143
H197	H	0.298970	0.296586	0.333477
H198	H	0.632303	0.629920	0.666810
O199	O	-0.176047	0.288320	0.000132
O200	O	0.157286	0.621654	0.333466
O201	O	0.490620	0.954987	0.666799
H202	H	-0.221218	0.273289	0.000149
H203	H	0.112116	0.606622	0.333482
H204	H	0.445449	0.939955	0.666816
H205	H	0.245602	-0.115519	0.000172
H206	H	0.578936	0.217814	0.333506
H207	H	0.912269	0.551148	0.666839
O208	O	0.131759	-0.139987	0.000196
O209	O	0.465093	0.193346	0.333529
O210	O	0.798426	0.526680	0.666863
H211	H	0.167056	-0.197845	0.000219
H212	H	0.500390	0.135489	0.333553
H213	H	0.833723	0.468822	0.666886
H214	H	0.380101	0.276850	0.000092
H215	H	0.713434	0.610183	0.333425
H216	H	1.046767	0.943517	0.666759
H217	H	-0.142122	-0.038834	0.000129
H218	H	0.191211	0.294500	0.333462
H219	H	0.524545	0.627833	0.666795
O220	O	0.213988	0.380085	0.000114
O221	O	0.547321	0.713419	0.333447
O222	O	0.880655	1.046752	0.666780
H223	H	0.178692	0.437944	0.000128
H224	H	0.512025	0.771278	0.333461
H225	H	0.845359	1.104611	0.666795
O226	O	0.090525	0.377692	0.000097
O227	O	0.423858	0.711025	0.333430
O228	O	0.757192	1.044358	0.666764
H229	H	0.116512	0.436737	0.000081
H230	H	0.449845	0.770071	0.333414
H231	H	0.783179	1.103404	0.666748
