data_functionalizedCrystal
_audit_creation_method	'MofGen! by Chris Wilmer'
_symmetry_space_group_name_H-M	'P1'
_symmetry_Int_Tables_number	1
_symmetry_cell_setting	triclinic
loop_
_symmetry_equiv_pos_as_xyz
  x,y,z
_cell_length_a	16.956995
_cell_length_b	16.992695
_cell_length_c	16.053948
_cell_angle_alpha	92.712453
_cell_angle_beta	93.030629
_cell_angle_gamma	83.361347
loop_
_atom_site_label
_atom_site_type_symbol
_atom_site_fract_x
_atom_site_fract_y
_atom_site_fract_z
O1	O	1.056931	0.029617	-0.069485
O2	O	1.556931	0.529617	0.430515
O3	O	0.826521	0.057031	-0.069475
O4	O	1.326521	0.557031	0.430525
O5	O	0.940802	-0.070759	-0.069473
O6	O	1.440802	0.429241	0.430527
O7	O	0.942649	0.157406	-0.069487
O8	O	1.442649	0.657406	0.430513
O9	O	0.947124	-0.065273	0.069382
O10	O	1.447124	0.434727	0.569382
O11	O	0.832842	0.062517	0.069380
O12	O	1.332842	0.562517	0.569380
O13	O	1.063252	0.035103	0.069370
O14	O	1.563252	0.535103	0.569370
Zn15	Zn	0.949051	0.049681	0.091421
Zn16	Zn	1.449051	0.549681	0.591421
Zn17	Zn	0.940722	0.042453	-0.091526
Zn18	Zn	1.440722	0.542453	0.408474
O19	O	0.948970	0.162892	0.069368
O20	O	1.448970	0.662892	0.569368
C21	C	0.800063	0.061177	-0.000046
C22	C	1.300063	0.561177	0.499954
C23	C	0.711809	0.065350	-0.000042
C24	C	1.211809	0.565350	0.499958
C25	C	0.214496	0.096567	-0.000074
C26	C	0.714496	0.596567	0.499926
C27	C	0.297421	0.092640	-0.000074
C28	C	0.797421	0.592640	0.499926
C29	C	0.343813	0.018928	-0.000063
C30	C	0.843813	0.518928	0.499937
C31	C	0.307275	-0.050862	-0.000062
C32	C	0.807275	0.449138	0.499938
C33	C	0.224351	-0.046935	-0.000069
C34	C	0.724351	0.453065	0.499931
C35	C	0.592347	-0.000512	-0.000047
C36	C	1.092347	0.499488	0.499953
C37	C	0.675276	-0.004434	-0.000038
C38	C	1.175276	0.495566	0.499962
C39	C	0.665417	0.139069	-0.000051
C40	C	1.165417	0.639069	0.499949
C41	C	0.582492	0.142990	-0.000053
C42	C	1.082492	0.642990	0.499947
C43	C	0.545961	0.073200	-0.000056
C44	C	1.045961	0.573200	0.499944
N45	N	0.428576	0.014912	-0.000059
N46	N	0.928576	0.514912	0.499941
N47	N	0.461200	0.077216	-0.000066
N48	N	0.961200	0.577216	0.499934
C49	C	0.941587	-0.097074	-0.000046
C50	C	1.441587	0.402926	0.499954
C51	C	0.934496	-0.183659	-0.000046
C52	C	1.434496	0.316341	0.499954
C53	C	1.002911	-0.238334	-0.000048
C54	C	1.502911	0.261666	0.499952
C55	C	0.996243	-0.319688	-0.000056
C56	C	1.496243	0.180312	0.499944
C57	C	0.921161	-0.346367	-0.000055
C58	C	1.421161	0.153633	0.499945
C59	C	0.852741	-0.291686	-0.000055
C60	C	1.352741	0.208314	0.499945
C61	C	0.859409	-0.210333	-0.000054
C62	C	1.359409	0.289667	0.499946
C63	C	0.893525	-0.588174	-0.000065
C64	C	1.393525	-0.088174	0.499935
C65	C	0.886862	-0.669533	-0.000064
C66	C	1.386862	-0.169533	0.499936
C67	C	1.030365	-0.697531	-0.000066
C68	C	1.530365	-0.197531	0.499934
C69	C	1.037027	-0.616175	-0.000060
C70	C	1.537027	-0.116175	0.499940
C71	C	0.968606	-0.561501	-0.000064
C72	C	1.468606	-0.061501	0.499936
N73	N	0.914344	-0.429524	-0.000060
N74	N	1.414344	0.070476	0.499940
N75	N	0.975424	-0.478346	-0.000065
N76	N	1.475424	0.021654	0.499935
C77	C	1.089710	0.030956	-0.000061
C78	C	1.589710	0.530956	0.499939
C79	C	1.177964	0.026783	-0.000071
C80	C	1.677964	0.526783	0.499929
C81	C	0.948186	0.189208	-0.000061
C82	C	1.448186	0.689208	0.499939
C83	C	0.955277	0.275792	-0.000067
C84	C	1.455277	0.775792	0.499933
N85	N	0.954740	0.054613	0.216278
N86	N	1.454740	0.554613	0.716278
N87	N	0.935038	0.037514	-0.216383
N88	N	1.435038	0.537514	0.283617
C89	C	0.905567	0.012072	0.260001
C90	C	1.405567	0.512072	0.760001
C91	C	0.909568	0.015530	0.347406
C92	C	1.409568	0.515530	0.847406
C93	C	0.962746	0.061525	0.391086
C94	C	1.462746	0.561525	0.891086
C95	C	1.011921	0.104071	0.347356
C96	C	1.511921	0.604071	0.847356
C97	C	1.007916	0.100617	0.259954
C98	C	1.507916	0.600617	0.759954
C99	C	0.980208	0.076606	0.652485
C100	C	1.480208	0.576606	1.152485
C101	C	0.984211	0.080055	0.739894
C102	C	1.484211	0.580055	1.239894
C103	C	0.881857	-0.008485	0.739937
C104	C	1.381857	0.491515	1.239937
C105	C	0.877860	-0.011939	0.652533
C106	C	1.377860	0.488061	1.152533
C107	C	0.927032	0.030610	0.608811
C108	C	1.427032	0.530610	1.108811
N109	N	0.966838	0.065059	0.480427
N110	N	1.466838	0.565059	0.980427
N111	N	0.922935	0.027080	0.519471
N112	N	1.422935	0.527080	1.019471
H113	H	0.562614	-0.057340	-0.000047
H114	H	1.062614	0.442660	0.499953
H115	H	1.020251	0.111249	0.616897
H116	H	1.520251	0.611249	1.116897
F117	F	1.040816	0.129008	0.786379
F118	F	1.540816	0.629008	1.286379
F119	F	0.165130	0.175023	-0.000079
F120	F	0.665130	0.675023	0.499921
F121	F	1.068512	0.153029	0.393846
F122	F	1.568512	0.653029	0.893846
H123	H	1.051954	-0.364202	-0.000056
H124	H	1.551954	0.135798	0.499944
F125	F	0.356650	-0.129313	-0.000053
F126	F	0.856650	0.370687	0.499947
H127	H	0.841822	-0.043125	0.775545
H128	H	1.341822	0.456875	1.275545
H129	H	0.713047	-0.064463	-0.000033
H130	H	1.213047	0.435537	0.499967
H131	H	0.834559	-0.049395	0.616974
H132	H	1.334559	0.450605	1.116974
H133	H	0.194608	-0.103761	-0.000067
H134	H	0.694608	0.396239	0.499933
H135	H	0.791606	-0.313414	-0.000060
H136	H	1.291606	0.186586	0.499940
H137	H	1.047956	0.135261	0.224355
H138	H	1.547956	0.635261	0.724355
F139	F	0.820705	-0.529996	-0.000072
F140	F	1.320705	-0.029996	0.499928
F141	F	0.848974	-0.036890	0.213522
F142	F	1.348974	0.463110	0.713522
F143	F	0.336298	0.166915	-0.000082
F144	F	0.836298	0.666915	0.499918
H145	H	0.544725	0.203014	-0.000064
H146	H	1.044725	0.703014	0.499936
H147	H	1.064051	-0.216619	-0.000043
H148	H	1.564051	0.283381	0.499957
F149	F	0.704302	0.213339	-0.000053
F150	F	1.204302	0.713339	0.499947
F151	F	0.786592	-0.152144	-0.000054
F152	F	1.286592	0.347856	0.499946
H153	H	1.086069	-0.742054	-0.000064
H154	H	1.586069	-0.242054	0.499936
F155	F	1.116939	-0.587789	-0.000081
F156	F	1.616939	-0.087789	0.499919
H157	H	0.825718	-0.691250	-0.000050
H158	H	1.325718	-0.191250	0.499950
H159	H	0.869526	-0.019112	0.383001
H160	H	1.369526	0.480888	0.883001
