data_functionalizedCrystal
_audit_creation_method	'MofGen! by Chris Wilmer'
_symmetry_space_group_name_H-M	'P1'
_symmetry_Int_Tables_number	1
_symmetry_cell_setting	triclinic
loop_
_symmetry_equiv_pos_as_xyz
  x,y,z
_cell_length_a	29.839131
_cell_length_b	13.897449
_cell_length_c	13.897441
_cell_angle_alpha	90.022859
_cell_angle_beta	89.964857
_cell_angle_gamma	89.958747
loop_
_atom_site_label
_atom_site_type_symbol
_atom_site_fract_x
_atom_site_fract_y
_atom_site_fract_z
Zn1	Zn	-0.178841	-1.474544	-0.545405
Zn2	Zn	0.154492	-1.141210	-0.212072
Zn3	Zn	0.487826	-0.807877	0.121261
Zn4	Zn	-0.253976	-1.474371	-0.384094
Zn5	Zn	0.079357	-1.141037	-0.050761
Zn6	Zn	0.412691	-0.807704	0.282573
Zn7	Zn	-0.178860	-1.313233	-0.384118
Zn8	Zn	0.154473	-0.979899	-0.050784
Zn9	Zn	0.487806	-0.646566	0.282549
Zn10	Zn	-0.253945	-1.313148	-0.545341
Zn11	Zn	0.079389	-0.979814	-0.212007
Zn12	Zn	0.412722	-0.646481	0.121326
O13	O	-0.216405	-1.393824	-0.464739
O14	O	0.116928	-1.060490	-0.131406
O15	O	0.450261	-0.727157	0.201927
O16	O	-0.188813	-1.609502	-0.524024
O17	O	0.144521	-1.276169	-0.190691
O18	O	0.477854	-0.942836	0.142642
O19	O	-0.244033	-1.452959	-0.249115
O20	O	0.089300	-1.119625	0.084218
O21	O	0.422634	-0.786292	0.417551
O22	O	-0.115991	-1.334739	-0.405550
O23	O	0.217343	-1.001406	-0.072217
O24	O	0.550676	-0.668072	0.261117
O25	O	-0.244014	-1.609375	-0.405509
O26	O	0.089319	-1.276042	-0.072176
O27	O	0.422653	-0.942709	0.261157
O28	O	-0.115976	-1.453253	-0.524047
O29	O	0.217357	-1.119920	-0.190714
O30	O	0.550690	-0.786587	0.142619
O31	O	-0.188846	-1.334571	-0.249133
O32	O	0.144487	-1.001238	0.084200
O33	O	0.477821	-0.667905	0.417534
O34	O	-0.188816	-1.178240	-0.405487
O35	O	0.144518	-0.844906	-0.072154
O36	O	0.477851	-0.511573	0.261180
O37	O	-0.243961	-1.334594	-0.680331
O38	O	0.089373	-1.001261	-0.346998
O39	O	0.422706	-0.667927	-0.013664
O40	O	-0.243979	-1.178177	-0.523937
O41	O	0.089354	-0.844844	-0.190604
O42	O	0.422687	-0.511511	0.142730
O43	O	-0.188782	-1.453171	-0.680378
O44	O	0.144551	-1.119837	-0.347045
O45	O	0.477884	-0.786504	-0.013712
O46	O	-0.316839	-1.452876	-0.405447
O47	O	0.016494	-1.119543	-0.072113
O48	O	0.349828	-0.786210	0.261220
O49	O	-0.316816	-1.334426	-0.523914
O50	O	0.016518	-1.001093	-0.190580
O51	O	0.349851	-0.667760	0.142753
C52	C	-0.216397	-1.143209	-0.464708
C53	C	0.116937	-0.809876	-0.131375
C54	C	0.450270	-0.476543	0.201959
C55	C	-0.216404	-1.035995	-0.464718
C56	C	0.116930	-0.702662	-0.131384
C57	C	0.450263	-0.369329	0.201949
C58	C	-0.216403	-0.839700	-0.464736
C59	C	0.116931	-0.506367	-0.131402
C60	C	0.450264	-0.173034	0.201931
C61	C	-0.216402	-0.948933	-0.464723
C62	C	0.116931	-0.615599	-0.131390
C63	C	0.450265	-0.282266	0.201944
C64	C	-0.333128	-1.393649	-0.464692
C65	C	0.000205	-1.060316	-0.131358
C66	C	0.333539	-0.726983	0.201975
C67	C	-0.383063	-1.393663	-0.464703
C68	C	-0.049729	-1.060330	-0.131370
C69	C	0.283604	-0.726997	0.201963
C70	C	-0.692705	-1.455613	-0.403144
C71	C	-0.359372	-1.122279	-0.069810
C72	C	-0.026039	-0.788946	0.263523
C73	C	-0.880378	-1.455732	-0.403181
C74	C	-0.547045	-1.122398	-0.069848
C75	C	-0.213712	-0.789065	0.263486
O76	O	-0.904643	-1.508265	-0.350804
O77	O	-0.571309	-1.174932	-0.017471
O78	O	-0.237976	-0.841599	0.315863
N79	N	-0.903847	-1.394024	-0.464812
N80	N	-0.570514	-1.060690	-0.131479
N81	N	-0.237181	-0.727357	0.201855
C82	C	-0.880396	-1.332286	-0.526443
C83	C	-0.547062	-0.998953	-0.193109
C84	C	-0.213729	-0.665619	0.140224
O85	O	-0.904664	-1.279809	-0.578872
O86	O	-0.571331	-0.946476	-0.245538
O87	O	-0.237997	-0.613142	0.087795
C88	C	-0.692723	-1.332172	-0.526409
C89	C	-0.359390	-0.998839	-0.193076
C90	C	-0.026057	-0.665506	0.140257
C91	C	-0.669257	-1.393878	-0.464767
C92	C	-0.335923	-1.060544	-0.131434
C93	C	-0.002590	-0.727211	0.201899
C94	C	-0.669238	-1.517314	-0.341507
C95	C	-0.335905	-1.183980	-0.008174
C96	C	-0.002572	-0.850647	0.325159
C97	C	-0.622323	-1.517280	-0.341495
C98	C	-0.288990	-1.183946	-0.008162
C99	C	0.044344	-0.850613	0.325172
C100	C	-0.598874	-1.455545	-0.403119
C101	C	-0.265541	-1.122211	-0.069785
C102	C	0.067792	-0.788878	0.263548
C103	C	-0.622341	-1.393844	-0.464755
C104	C	-0.289008	-1.060510	-0.131422
C105	C	0.044325	-0.727177	0.201912
C106	C	-0.669272	-1.270440	-0.588044
C107	C	-0.335939	-0.937107	-0.254711
C108	C	-0.002606	-0.603774	0.078623
C109	C	-0.622351	-1.270419	-0.588032
C110	C	-0.289018	-0.937086	-0.254699
C111	C	0.044315	-0.603752	0.078635
C112	C	-0.598885	-1.332124	-0.526390
C113	C	-0.265551	-0.998791	-0.193057
C114	C	0.067782	-0.665458	0.140277
C115	C	-0.551977	-1.332074	-0.526366
C116	C	-0.218644	-0.998741	-0.193033
C117	C	0.114690	-0.665408	0.140300
N118	N	-0.528508	-1.393782	-0.464735
N119	N	-0.195175	-1.060449	-0.131402
N120	N	0.138159	-0.727116	0.201931
C121	C	-0.551956	-1.455518	-0.403111
C122	C	-0.218623	-1.122184	-0.069778
C123	C	0.114710	-0.788851	0.263555
C124	C	-0.978926	-1.332349	-0.526454
C125	C	-0.645593	-0.999015	-0.193121
C126	C	-0.312260	-0.665682	0.140212
C127	C	-1.025844	-1.332375	-0.526462
C128	C	-0.692511	-0.999042	-0.193128
C129	C	-0.359177	-0.665709	0.140205
C130	C	-1.025823	-1.455823	-0.403201
C131	C	-0.692490	-1.122490	-0.069868
C132	C	-0.359157	-0.789156	0.263466
C133	C	-0.978905	-1.455790	-0.403190
C134	C	-0.645571	-1.122457	-0.069856
C135	C	-0.312238	-0.789124	0.263477
C136	C	-0.955457	-1.394057	-0.464823
C137	C	-0.622124	-1.060723	-0.131490
C138	C	-0.288790	-0.727390	0.201843
C139	C	-0.453431	-1.455441	-0.403089
C140	C	-0.120097	-1.122107	-0.069756
C141	C	0.213236	-0.788774	0.263577
C142	C	-0.406511	-1.455398	-0.403080
C143	C	-0.073178	-1.122065	-0.069746
C144	C	0.260156	-0.788732	0.263587
C145	C	-0.406536	-1.331955	-0.526343
C146	C	-0.073202	-0.998622	-0.193010
C147	C	0.260131	-0.665288	0.140323
C148	C	-0.453451	-1.331993	-0.526350
C149	C	-0.120118	-0.998660	-0.193017
C150	C	0.213215	-0.665327	0.140317
C151	C	-0.476898	-1.393744	-0.464720
C152	C	-0.143564	-1.060411	-0.131386
C153	C	0.189769	-0.727077	0.201947
O154	O	-0.527684	-1.279576	-0.578723
O155	O	-0.194351	-0.946243	-0.245390
O156	O	0.138983	-0.612909	0.087943
O157	O	-0.527680	-1.508002	-0.350706
O158	O	-0.194347	-1.174668	-0.017372
O159	O	0.138987	-0.841335	0.315961
C160	C	-0.739621	-1.455647	-0.403156
C161	C	-0.406287	-1.122313	-0.069823
C162	C	-0.072954	-0.788980	0.263511
C163	C	-0.763088	-1.393946	-0.464792
C164	C	-0.429754	-1.060613	-0.131459
C165	C	-0.096421	-0.727279	0.201874
C166	C	-0.739639	-1.332211	-0.526416
C167	C	-0.406306	-0.998877	-0.193083
C168	C	-0.072972	-0.665544	0.140251
C169	C	-0.810005	-1.393973	-0.464800
C170	C	-0.476672	-1.060639	-0.131466
C171	C	-0.143339	-0.727306	0.201867
C172	C	-0.833454	-1.455708	-0.403176
C173	C	-0.500121	-1.122375	-0.069843
C174	C	-0.166787	-0.789041	0.263491
C175	C	-0.809985	-1.517416	-0.341545
C176	C	-0.476651	-1.184083	-0.008211
C177	C	-0.143318	-0.850749	0.325122
C178	C	-0.763069	-1.517382	-0.341532
C179	C	-0.429736	-1.184049	-0.008199
C180	C	-0.096403	-0.850715	0.325134
C181	C	-0.763108	-1.270503	-0.588047
C182	C	-0.429775	-0.937169	-0.254714
C183	C	-0.096442	-0.603836	0.078620
C184	C	-0.810024	-1.270541	-0.588054
C185	C	-0.476690	-0.937208	-0.254720
C186	C	-0.143357	-0.603874	0.078613
C187	C	-0.833472	-1.332276	-0.526430
C188	C	-0.500139	-0.998943	-0.193097
C189	C	-0.166806	-0.665609	0.140237
C190	C	-0.099227	-1.394025	-0.464809
C191	C	0.234106	-1.060691	-0.131475
C192	C	0.567440	-0.727358	0.201858
C193	C	-0.049293	-1.394111	-0.464838
C194	C	0.284041	-1.060777	-0.131505
C195	C	0.617374	-0.727444	0.201829
C196	C	-0.216366	-1.393892	-0.716333
C197	C	0.116968	-1.060559	-0.382999
C198	C	0.450301	-0.727225	-0.049666
C199	C	-0.216349	-1.393921	-0.823547
C200	C	0.116984	-1.060588	-0.490213
C201	C	0.450318	-0.727255	-0.156880
C202	C	-0.216412	-0.645417	-0.464762
C203	C	0.116922	-0.312083	-0.131429
C204	C	0.450255	0.021250	0.201905
C205	C	-0.216407	-0.752631	-0.464748
C206	C	0.116926	-0.419297	-0.131415
C207	C	0.450260	-0.085964	0.201919
C208	C	-0.216318	-1.393948	-1.019842
C209	C	0.117015	-1.060614	-0.686508
C210	C	0.450348	-0.727281	-0.353175
C211	C	-0.216337	-1.393930	-0.910609
C212	C	0.116997	-1.060597	-0.577276
C213	C	0.450330	-0.727263	-0.243943
C214	C	-0.216413	-1.393811	-0.214125
C215	C	0.116921	-1.060478	0.119208
C216	C	0.450254	-0.727144	0.452542
C217	C	-0.216303	-1.393969	-0.106912
C218	C	0.117030	-1.060635	0.226422
C219	C	0.450364	-0.727302	0.559755
H220	H	-0.387406	-1.505646	-0.352880
H221	H	-0.054072	-1.172313	-0.019547
H222	H	0.279261	-0.838979	0.313787
H223	H	-1.044947	-1.282120	-0.576648
H224	H	-0.711613	-0.948787	-0.243314
H225	H	-0.378280	-0.615453	0.090019
H226	H	-0.959838	-1.282075	-0.576645
H227	H	-0.626505	-0.948742	-0.243312
H228	H	-0.293172	-0.615408	0.090021
H229	H	-1.044923	-1.506090	-0.353025
H230	H	-0.711590	-1.172757	-0.019692
H231	H	-0.378257	-0.839424	0.313642
H232	H	-0.829085	-1.567680	-0.291366
H233	H	-0.495751	-1.234347	0.041968
H234	H	-0.162418	-0.901014	0.375301
H235	H	-0.603219	-1.567528	-0.291304
H236	H	-0.269886	-1.234195	0.042030
H237	H	0.063448	-0.900861	0.375363
H238	H	-0.472559	-1.281751	-0.576547
H239	H	-0.139226	-0.948418	-0.243214
H240	H	0.194108	-0.615084	0.090120
H241	H	-0.688371	-1.220189	-0.638235
H242	H	-0.355038	-0.886855	-0.304902
H243	H	-0.021704	-0.553522	0.028432
H244	H	-0.688325	-1.567591	-0.291326
H245	H	-0.354992	-1.234258	0.042008
H246	H	-0.021659	-0.900924	0.375341
H247	H	-0.387437	-1.281688	-0.576514
H248	H	-0.054103	-0.948355	-0.243181
H249	H	0.279230	-0.615021	0.090153
H250	H	-0.744020	-1.220232	-0.638230
H251	H	-0.410687	-0.886898	-0.304897
H252	H	-0.077353	-0.553565	0.028437
H253	H	-0.603262	-1.220149	-0.638225
H254	H	-0.269929	-0.886816	-0.304891
H255	H	0.063404	-0.553482	0.028442
H256	H	-0.743966	-1.567628	-0.291338
H257	H	-0.410633	-1.234295	0.041995
H258	H	-0.077299	-0.900962	0.375329
H259	H	-0.829126	-1.220285	-0.638249
H260	H	-0.495793	-0.886951	-0.304916
H261	H	-0.162460	-0.553618	0.028417
H262	H	-0.472515	-1.505726	-0.352906
H263	H	-0.139182	-1.172393	-0.019573
H264	H	0.194152	-0.839059	0.313760
H265	H	-0.959801	-1.506036	-0.352996
H266	H	-0.626467	-1.172703	-0.019663
H267	H	-0.293134	-0.839370	0.313670
