data_functionalizedCrystal
_audit_creation_method	'MofGen! by Chris Wilmer'
_symmetry_space_group_name_H-M	'P1'
_symmetry_Int_Tables_number	1
_symmetry_cell_setting	triclinic
loop_
_symmetry_equiv_pos_as_xyz
  x,y,z
_cell_length_a	13.897449
_cell_length_b	13.897448
_cell_length_c	11.169409
_cell_angle_alpha	89.964424
_cell_angle_beta	89.977985
_cell_angle_gamma	90.018972
loop_
_atom_site_label
_atom_site_type_symbol
_atom_site_fract_x
_atom_site_fract_y
_atom_site_fract_z
Zn1	Zn	1.474715	-0.383904	-0.678586
Zn2	Zn	1.724715	-0.133904	-0.428586
Zn3	Zn	1.974715	0.116096	-0.178586
Zn4	Zn	2.224715	0.366096	0.071414
Zn5	Zn	1.474605	-0.545240	-0.477891
Zn6	Zn	1.724605	-0.295240	-0.227891
Zn7	Zn	1.974605	-0.045240	0.022109
Zn8	Zn	2.224605	0.204760	0.272109
Zn9	Zn	1.313400	-0.383964	-0.477913
Zn10	Zn	1.563400	-0.133964	-0.227913
Zn11	Zn	1.813400	0.116036	0.022087
Zn12	Zn	2.063400	0.366036	0.272087
Zn13	Zn	1.313386	-0.545162	-0.678529
Zn14	Zn	1.563386	-0.295162	-0.428529
Zn15	Zn	1.813386	-0.045162	-0.178529
Zn16	Zn	2.063386	0.204838	0.071471
O17	O	1.394027	-0.464567	-0.578230
O18	O	1.644027	-0.214567	-0.328230
O19	O	1.894027	0.035433	-0.078230
O20	O	2.144027	0.285433	0.171770
O21	O	1.609682	-0.405313	-0.651978
O22	O	1.859682	-0.155313	-0.401978
O23	O	2.109682	0.094687	-0.151978
O24	O	2.359682	0.344687	0.098022
O25	O	1.453181	-0.523903	-0.309944
O26	O	1.703181	-0.273903	-0.059944
O27	O	1.953181	-0.023903	0.190056
O28	O	2.203181	0.226097	0.440056
O29	O	1.334851	-0.248974	-0.504565
O30	O	1.584851	0.001026	-0.254565
O31	O	1.834851	0.251026	-0.004565
O32	O	2.084851	0.501026	0.245435
O33	O	1.609601	-0.523845	-0.504529
O34	O	1.859601	-0.273845	-0.254529
O35	O	2.109601	-0.023845	-0.004529
O36	O	2.359601	0.226155	0.245471
O37	O	1.453368	-0.248930	-0.651999
O38	O	1.703368	0.001070	-0.401999
O39	O	1.953368	0.251070	-0.151999
O40	O	2.203368	0.501070	0.098001
O41	O	1.334745	-0.405415	-0.309960
O42	O	1.584745	-0.155415	-0.059960
O43	O	1.834745	0.094585	0.190040
O44	O	2.084745	0.344585	0.440040
O45	O	1.178417	-0.405340	-0.504510
O46	O	1.428417	-0.155340	-0.254510
O47	O	1.678417	0.094660	-0.004510
O48	O	1.928417	0.344660	0.245490
O49	O	1.334826	-0.523713	-0.846486
O50	O	1.584826	-0.273713	-0.596486
O51	O	1.834826	-0.023713	-0.346486
O52	O	2.084826	0.226287	-0.096486
O53	O	1.178406	-0.523772	-0.651901
O54	O	1.428406	-0.273772	-0.401901
O55	O	1.678406	-0.023772	-0.151901
O56	O	1.928406	0.226228	0.098099
O57	O	1.453354	-0.405238	-0.846528
O58	O	1.703354	-0.155238	-0.596528
O59	O	1.953354	0.094762	-0.346528
O60	O	2.203354	0.344762	-0.096528
O61	O	1.453167	-0.680211	-0.504474
O62	O	1.703167	-0.430211	-0.254474
O63	O	1.953167	-0.180211	-0.004474
O64	O	2.203167	0.069789	0.245526
O65	O	1.334720	-0.680154	-0.651881
O66	O	1.584720	-0.430154	-0.401881
O67	O	1.834720	-0.180154	-0.151881
O68	O	2.084720	0.069846	0.098119
C69	C	1.143412	-0.464554	-0.578202
C70	C	1.393412	-0.214554	-0.328202
C71	C	1.643412	0.035446	-0.078202
C72	C	1.893412	0.285446	0.171798
C73	C	1.036198	-0.464572	-0.578219
C74	C	1.286198	-0.214572	-0.328219
C75	C	1.536198	0.035428	-0.078219
C76	C	1.786198	0.285428	0.171781
C77	C	0.839903	-0.464576	-0.578251
C78	C	1.089903	-0.214576	-0.328251
C79	C	1.339903	0.035424	-0.078251
C80	C	1.589903	0.285424	0.171749
C81	C	0.949136	-0.464571	-0.578230
C82	C	1.199136	-0.214571	-0.328230
C83	C	1.449136	0.035429	-0.078230
C84	C	1.699136	0.285429	0.171770
C85	C	1.393956	-0.715182	-0.578195
C86	C	1.643956	-0.465182	-0.328195
C87	C	1.893956	-0.215182	-0.078195
C88	C	2.143956	0.034818	0.171805
C89	C	1.394014	-0.822396	-0.578220
C90	C	1.644014	-0.572396	-0.328220
C91	C	1.894014	-0.322396	-0.078220
C92	C	2.144014	-0.072396	0.171780
C93	C	1.394116	-1.018691	-0.578295
C94	C	1.644116	-0.768691	-0.328295
C95	C	1.894116	-0.518691	-0.078295
C96	C	2.144116	-0.268691	0.171705
C97	C	1.394057	-0.909458	-0.578257
C98	C	1.644057	-0.659458	-0.328257
C99	C	1.894057	-0.409458	-0.078257
C100	C	2.144057	-0.159458	0.171743
C101	C	1.645619	-0.464581	-0.578258
C102	C	1.895619	-0.214581	-0.328258
C103	C	2.145619	0.035419	-0.078258
C104	C	2.395619	0.285419	0.171742
C105	C	1.752833	-0.464587	-0.578270
C106	C	2.002833	-0.214587	-0.328270
C107	C	2.252833	0.035413	-0.078270
C108	C	2.502833	0.285413	0.171730
C109	C	1.394101	-0.464460	-0.891272
C110	C	1.644101	-0.214460	-0.641272
C111	C	1.894101	0.035540	-0.391272
C112	C	2.144101	0.285540	-0.141272
C113	C	1.394132	-0.464415	-1.024672
C114	C	1.644132	-0.214415	-0.774672
C115	C	1.894132	0.035585	-0.524672
C116	C	2.144132	0.285585	-0.274672
C117	C	1.394123	-0.212974	-0.578291
C118	C	1.644123	0.037026	-0.328291
C119	C	1.894123	0.287026	-0.078291
C120	C	2.144123	0.537026	0.171709
C121	C	1.394165	-0.105760	-0.578317
C122	C	1.644165	0.144240	-0.328317
C123	C	1.894165	0.394240	-0.078317
C124	C	2.144165	0.644240	0.171683
C125	C	1.394008	-0.464604	-0.266405
C126	C	1.644008	-0.214604	-0.016405
C127	C	1.894008	0.035396	0.233595
C128	C	2.144008	0.285396	0.483595
C129	C	1.394164	-0.464378	-0.133006
C130	C	1.644164	-0.214378	0.116994
C131	C	1.894164	0.035622	0.366994
C132	C	2.144164	0.285622	0.616994
