data_functionalizedCrystal
_audit_creation_method	'MofGen! by Chris Wilmer'
_symmetry_space_group_name_H-M	'P1'
_symmetry_Int_Tables_number	1
_symmetry_cell_setting	triclinic
loop_
_symmetry_equiv_pos_as_xyz
  x,y,z
_cell_length_a	19.805407
_cell_length_b	12.645323
_cell_length_c	12.645330
_cell_angle_alpha	89.975130
_cell_angle_beta	90.017692
_cell_angle_gamma	89.976570
loop_
_atom_site_label
_atom_site_type_symbol
_atom_site_fract_x
_atom_site_fract_y
_atom_site_fract_z
Zn1	Zn	1.034802	-0.599468	-0.422031
Zn2	Zn	1.034727	-0.422208	-0.599319
Zn3	Zn	0.921609	-0.422210	-0.422070
Zn4	Zn	0.921598	-0.599421	-0.599253
O5	O	0.978184	-0.510826	-0.510668
O6	O	1.129509	-0.575972	-0.445560
O7	O	1.019695	-0.273861	-0.575850
O8	O	0.936661	-0.445744	-0.273717
O9	O	1.129453	-0.445740	-0.575813
O10	O	1.019824	-0.575974	-0.273689
O11	O	0.936588	-0.273862	-0.445626
O12	O	0.826891	-0.445698	-0.445562
O13	O	0.936641	-0.747774	-0.575700
O14	O	0.826883	-0.575895	-0.575738
O15	O	1.019812	-0.747809	-0.445496
O16	O	1.019684	-0.445695	-0.747657
O17	O	0.936568	-0.575893	-0.747609
C18	C	0.802328	-0.510792	-0.510648
C19	C	0.727096	-0.510803	-0.510665
C20	C	0.978234	-0.787332	-0.510586
C21	C	0.978255	-0.905162	-0.510551
C22	C	0.691765	-0.578486	-0.578549
C23	C	0.621077	-0.578501	-0.578551
C24	C	0.585721	-0.510826	-0.510673
C25	C	0.621056	-0.443140	-0.442781
C26	C	0.691744	-0.443131	-0.442775
C27	C	0.335983	-0.443175	-0.442805
C28	C	0.265291	-0.443187	-0.442818
C29	C	0.265316	-0.578545	-0.578581
C30	C	0.336004	-0.578536	-0.578574
C31	C	0.371333	-0.510854	-0.510679
C32	C	0.447982	-0.510840	-0.510676
C33	C	0.509073	-0.510834	-0.510680
C34	C	0.925771	-1.072704	-0.592077
C35	C	0.925908	-0.950145	-0.592480
C36	C	1.049573	-0.949683	-0.540870
C37	C	1.049285	-1.072282	-0.541381
C38	C	0.960096	-1.072359	-0.398252
C39	C	0.958505	-0.949753	-0.398924
C40	C	1.154727	-0.510861	-0.510689
C41	C	1.229959	-0.510876	-0.510698
C42	C	0.978135	-0.510812	-0.786098
C43	C	0.978176	-0.510841	-0.903928
C44	C	0.978173	-0.235397	-0.510673
C45	C	0.978283	-0.117567	-0.510410
C46	C	0.926103	-0.593001	-1.071505
C47	C	0.925837	-0.592737	-0.948946
C48	C	0.958865	-0.399118	-0.948522
C49	C	0.958547	-0.399617	-1.071120
C50	C	1.049877	-0.539497	-1.071017
C51	C	1.049438	-0.541940	-0.948410
C52	C	0.978252	-0.510865	-0.234163
C53	C	0.978281	-0.510881	-0.116333
H54	H	0.720547	-0.633591	-0.633827
H55	H	0.993958	-0.919132	-0.334861
O56	O	1.096256	-0.468236	-1.105780
C57	C	1.098545	-0.470144	-1.217203
H58	H	1.079059	-0.549594	-1.246866
H59	H	1.152842	-0.458463	-1.244719
H60	H	1.065588	-0.403921	-1.250122
H61	H	0.938075	-0.676114	-1.100917
H62	H	0.873024	-0.920041	-0.573508
H63	H	0.236506	-0.388078	-0.387537
O64	O	0.370192	-0.377332	-0.376819
C65	C	0.323825	-0.317625	-0.316895
H66	H	0.273432	-0.313881	-0.360326
H67	H	0.344224	-0.234119	-0.305467
H68	H	0.316325	-0.356591	-0.236438
H69	H	0.872730	-1.102177	-0.573287
O70	O	0.586609	-0.377440	-0.376938
C71	C	0.516642	-0.391978	-0.391479
H72	H	0.506984	-0.426553	-0.473338
H73	H	0.489753	-0.312589	-0.384183
H74	H	0.496611	-0.448547	-0.328676
O75	O	0.726037	-0.377227	-0.376951
C76	C	0.708716	-0.271535	-0.399972
H77	H	0.689268	-0.266043	-0.484655
H78	H	0.755189	-0.219173	-0.390774
H79	H	0.667688	-0.243922	-0.343104
H80	H	0.995664	-0.336261	-0.919364
H81	H	0.364787	-0.633640	-0.633851
H82	H	0.906021	-0.920653	-0.376060
H83	H	0.873357	-0.574284	-1.102406
H84	H	0.998343	-1.101374	-0.337406
O85	O	1.098175	-0.475663	-0.911787
C86	C	1.068772	-0.399393	-0.844776
H87	H	1.012863	-0.390962	-0.864530
H88	H	1.095087	-0.320116	-0.856686
H89	H	1.074589	-0.425423	-0.758927
O90	O	0.586861	-0.644270	-0.644607
C91	C	0.633225	-0.704007	-0.704507
H92	H	0.683600	-0.660574	-0.708103
H93	H	0.612795	-0.715156	-0.788052
H94	H	0.640772	-0.784594	-0.665805
H95	H	0.907073	-0.374439	-0.917911
H96	H	1.089738	-1.101961	-0.484481
O97	O	0.230964	-0.644415	-0.644375
C98	C	0.190097	-0.712979	-0.584111
H99	H	0.211416	-0.719666	-0.500625
H100	H	0.189316	-0.794496	-0.622557
H101	H	0.136514	-0.680218	-0.580420
H102	H	0.937919	-0.675578	-0.918792
H103	H	0.937660	-1.103524	-0.674705
H104	H	0.937915	-0.920831	-0.675628
H105	H	0.872759	-0.573778	-0.919711
H106	H	0.906209	-0.375375	-1.099812
H107	H	1.064701	-1.100893	-0.623371
O108	O	1.097501	-0.914748	-0.472243
C109	C	1.099869	-0.803342	-0.474858
H110	H	1.078706	-0.773965	-0.553407
H111	H	1.154417	-0.775942	-0.466149
H112	H	1.068399	-0.770034	-0.407135
H113	H	0.994902	-0.336345	-1.100778
H114	H	1.065253	-0.918995	-0.622000
O115	O	0.899113	-1.109290	-0.365452
C116	C	0.871948	-1.176663	-0.443412
H117	H	0.895320	-1.156948	-0.523396
H118	H	0.814920	-1.165130	-0.447618
H119	H	0.883637	-1.262387	-0.422263
O120	O	1.070976	-0.634947	-1.107925
C121	C	1.131767	-0.622021	-1.164456
H122	H	1.135893	-0.536852	-1.193323
H123	H	1.132247	-0.677846	-1.235216
H124	H	1.176318	-0.640911	-1.110543
O125	O	1.066729	-0.640017	-0.913496
C126	C	1.014626	-0.680410	-0.849175
H127	H	0.983561	-0.612160	-0.815986
H128	H	1.037523	-0.727634	-0.781227
H129	H	0.980663	-0.734098	-0.898297
