data_functionalizedCrystal
_audit_creation_method	'MofGen! by Chris Wilmer'
_symmetry_space_group_name_H-M	'P1'
_symmetry_Int_Tables_number	1
_symmetry_cell_setting	triclinic
loop_
_symmetry_equiv_pos_as_xyz
  x,y,z
_cell_length_a	19.121102
_cell_length_b	19.121063
_cell_length_c	19.120904
_cell_angle_alpha	94.741613
_cell_angle_beta	90.088173
_cell_angle_gamma	90.126902
loop_
_atom_site_label
_atom_site_type_symbol
_atom_site_fract_x
_atom_site_fract_y
_atom_site_fract_z
Zn1	Zn	1.039579	-0.343506	-0.456040
Zn2	Zn	1.539579	0.156494	0.043960
Zn3	Zn	1.039493	-0.456149	-0.343386
Zn4	Zn	1.539493	0.043851	0.156614
Zn5	Zn	0.927792	-0.333518	-0.333417
Zn6	Zn	1.427792	0.166482	0.166583
Zn7	Zn	0.917325	-0.455677	-0.455570
Zn8	Zn	1.417325	0.044323	0.044430
O9	O	0.981047	-0.397212	-0.397103
O10	O	1.481047	0.102788	0.102897
O11	O	1.137479	-0.362826	-0.445465
O12	O	1.637479	0.137174	0.054535
O13	O	1.029020	-0.435899	-0.243797
O14	O	1.529020	0.064101	0.256203
O15	O	0.947038	-0.236577	-0.345708
O16	O	1.447038	0.263423	0.154292
O17	O	1.137415	-0.445584	-0.362699
O18	O	1.637415	0.054416	0.137301
O19	O	1.029167	-0.243915	-0.435798
O20	O	1.529167	0.256085	0.064202
O21	O	0.946954	-0.345802	-0.236473
O22	O	1.446954	0.154198	0.263527
O23	O	0.828493	-0.345345	-0.345252
O24	O	1.328493	0.154655	0.154748
O25	O	0.929198	-0.444780	-0.553899
O26	O	1.429198	0.055220	-0.053899
O27	O	0.820803	-0.435094	-0.434997
O28	O	1.320803	0.064906	0.065003
O29	O	1.019018	-0.362368	-0.554244
O30	O	1.519018	0.137632	-0.054244
O31	O	1.018870	-0.554352	-0.362243
O32	O	1.518870	-0.054352	0.137757
O33	O	0.929114	-0.554005	-0.444664
O34	O	1.429114	-0.054005	0.055336
C35	C	0.799261	-0.389085	-0.388992
C36	C	1.299261	0.110915	0.111008
C37	C	0.721490	-0.385626	-0.385539
C38	C	1.221490	0.114374	0.114461
C39	C	0.680968	-0.430793	-0.430575
C40	C	1.180968	0.069207	0.069425
C41	C	0.607894	-0.427534	-0.427334
C42	C	1.107894	0.072466	0.072666
C43	C	0.575344	-0.379110	-0.379053
C44	C	1.075344	0.120890	0.120947
C45	C	0.615872	-0.333937	-0.334016
C46	C	1.115872	0.166063	0.165984
C47	C	0.688944	-0.337194	-0.337261
C48	C	1.188944	0.162806	0.162739
C49	C	0.354913	-0.366933	-0.366924
C50	C	0.854913	0.133067	0.133076
C51	C	0.281835	-0.363681	-0.363681
C52	C	0.781835	0.136319	0.136319
C53	C	0.273863	-0.457277	-0.457000
C54	C	0.773863	0.042723	0.043000
C55	C	0.346937	-0.460532	-0.460238
C56	C	0.846937	0.039468	0.039762
C57	C	0.387458	-0.415357	-0.415203
C58	C	0.887458	0.084643	0.084797
C59	C	0.500651	-0.375778	-0.375738
C60	C	1.000651	0.124222	0.124262
C61	C	0.462149	-0.418686	-0.418523
C62	C	0.962149	0.081314	0.081477
C63	C	0.972865	-0.579659	-0.404501
C64	C	1.472865	-0.079659	0.095499
C65	C	0.969428	-0.657714	-0.407691
C66	C	1.469428	-0.157714	0.092309
C67	C	1.014577	-0.694545	-0.366317
C68	C	1.514577	-0.194545	0.133683
C69	C	1.011348	-0.767887	-0.369323
C70	C	1.511348	-0.267887	0.130677
C71	C	0.962966	-0.804396	-0.413699
C72	C	1.462966	-0.304396	0.086301
C73	C	0.917815	-0.767560	-0.455078
C74	C	1.417815	-0.267560	0.044922
C75	C	0.921048	-0.694220	-0.452076
C76	C	1.421048	-0.194220	0.047924
C77	C	0.950869	-1.025828	-0.424912
C78	C	1.450869	-0.525828	0.075088
C79	C	0.947638	-1.099173	-0.427909
C80	C	1.447638	-0.599173	0.072091
C81	C	1.041173	-1.099494	-0.342155
C82	C	1.541173	-0.599494	0.157845
C83	C	1.044399	-1.026153	-0.339154
C84	C	1.544399	-0.526153	0.160846
C85	C	0.999250	-0.989323	-0.380535
C86	C	1.499250	-0.489323	0.119465
C87	C	0.959663	-0.879363	-0.416770
C88	C	1.459663	-0.379363	0.083230
C89	C	1.002557	-0.914358	-0.377467
C90	C	1.502557	-0.414358	0.122533
C91	C	1.163544	-0.405372	-0.405246
C92	C	1.663544	0.094628	0.094754
C93	C	1.241313	-0.408849	-0.408717
C94	C	1.741313	0.091151	0.091283
C95	C	0.972950	-0.404635	-0.580263
C96	C	1.472950	0.095365	-0.080263
C97	C	0.969500	-0.407799	-0.658315
C98	C	1.469500	0.092201	-0.158315
C99	C	0.989280	-0.214054	-0.389693
C100	C	1.489280	0.285946	0.110307
C101	C	0.992788	-0.136003	-0.386535
C102	C	1.492788	0.363997	0.113465
C103	C	1.014640	-0.366379	-0.695165
C104	C	1.514640	0.133621	-0.195165
C105	C	1.011390	-0.369348	-0.768503
C106	C	1.511390	0.130652	-0.268503
C107	C	0.963001	-0.413741	-0.804990
C108	C	1.463001	0.086259	-0.304990
C109	C	0.917856	-0.455162	-0.768135
C110	C	1.417856	0.044838	-0.268135
C111	C	0.921103	-0.452188	-0.694798
C112	C	1.421103	0.047812	-0.194798
C113	C	0.950853	-0.424862	-1.026410
C114	C	1.450853	0.075138	-0.526410
C115	C	0.947610	-0.427833	-1.099752
C116	C	1.447610	0.072167	-0.599752
C117	C	1.041143	-0.342019	-1.100115
C118	C	1.541143	0.157981	-0.600115
C119	C	1.044390	-0.339052	-1.026777
C120	C	1.544390	0.160948	-0.526777
C121	C	0.999242	-0.380470	-0.989928
C122	C	1.499242	0.119530	-0.489928
C123	C	0.959679	-0.416779	-0.879953
C124	C	1.459679	0.083221	-0.379953
C125	C	1.002561	-0.377429	-0.914966
C126	C	1.502561	0.122571	-0.414966
C127	C	0.989156	-0.389769	-0.214655
C128	C	1.489156	0.110231	0.285345
C129	C	0.992751	-0.386414	-0.136602
C130	C	1.492751	0.113586	0.363398
H131	H	0.387897	-0.330153	-0.330248
H132	H	0.887897	0.169847	0.169752
C133	C	0.563317	-0.477223	-0.476868
C134	C	1.063317	0.022777	0.023132
C135	C	0.512013	-0.446884	-0.528592
C136	C	1.012013	0.053116	-0.028592
C137	C	0.467434	-0.496575	-0.578127
C138	C	0.967434	0.003425	-0.078127
C139	C	0.474159	-0.576604	-0.575938
C140	C	0.974159	-0.076604	-0.075938
C141	C	0.525464	-0.606947	-0.524211
C142	C	1.025464	-0.106947	-0.024211
C143	C	0.570043	-0.557256	-0.474676
C144	C	1.070043	-0.057256	0.025324
H145	H	0.507034	-0.387638	-0.530215
H146	H	1.007034	0.112362	-0.030215
H147	H	0.429455	-0.474113	-0.616419
H148	H	0.929455	0.025887	-0.116419
H149	H	0.441159	-0.613388	-0.612606
H150	H	0.941159	-0.113388	-0.112606
H151	H	0.530444	-0.666193	-0.522588
H152	H	1.030444	-0.166193	-0.022588
H153	H	0.608023	-0.579718	-0.436384
H154	H	1.108023	-0.079718	0.063616
H155	H	0.884283	-0.664233	-0.485768
H156	H	1.384283	-0.164233	0.014232
H157	H	1.077899	-0.308298	-1.130125
H158	H	1.577899	0.191702	-0.630125
H159	H	0.878454	-0.491305	-0.797848
H160	H	1.378454	0.008695	-0.297848
C161	C	0.894400	-0.476691	-1.139891
C162	C	1.394400	0.023309	-0.639891
C163	C	0.844754	-0.522268	-1.099362
C164	C	1.344754	-0.022268	-0.599362
C165	C	0.791560	-0.571136	-1.139503
C166	C	1.291560	-0.071136	-0.639503
C167	C	0.788011	-0.574428	-1.220172
C168	C	1.288011	-0.074428	-0.720172
C169	C	0.837659	-0.528849	-1.260705
C170	C	1.337659	-0.028849	-0.760705
C171	C	0.890853	-0.479981	-1.220565
C172	C	1.390853	0.020019	-0.720565
H173	H	0.847379	-0.519832	-1.039642
H174	H	1.347379	-0.019832	-0.539642
H175	H	0.754807	-0.604876	-1.109497
H176	H	1.254807	-0.104876	-0.609497
H177	H	0.748634	-0.610603	-1.249886
H178	H	1.248634	-0.110603	-0.749886
H179	H	0.835033	-0.531285	-1.320426
H180	H	1.335033	-0.031285	-0.820426
H181	H	0.927605	-0.446241	-1.250570
H182	H	1.427605	0.053759	-0.750570
C183	C	0.246021	-0.310409	-0.310577
C184	C	0.746021	0.189591	0.189423
C185	C	0.196904	-0.254338	-0.336646
C186	C	0.696904	0.245662	0.163354
C187	C	0.161086	-0.201070	-0.283547
C188	C	0.661086	0.298930	0.216453
C189	C	0.174385	-0.203873	-0.204377
C190	C	0.674385	0.296127	0.295623
C191	C	0.223505	-0.259946	-0.178304
C192	C	0.723505	0.240054	0.321696
C193	C	0.259323	-0.313214	-0.231404
C194	C	0.759323	0.186786	0.268596
H195	H	0.187056	-0.252261	-0.395256
H196	H	0.687056	0.247739	0.104744
H197	H	0.124724	-0.159561	-0.302848
H198	H	0.624724	0.340439	0.197152
H199	H	0.147871	-0.164441	-0.165070
H200	H	0.647871	0.335559	0.334930
H201	H	0.233353	-0.262024	-0.119694
H202	H	0.733353	0.237976	0.380306
H203	H	0.295685	-0.354723	-0.212102
H204	H	0.795685	0.145277	0.287898
C205	C	0.464839	-0.322517	-0.322628
C206	C	0.964839	0.177483	0.177372
C207	C	0.415726	-0.266438	-0.348691
C208	C	0.915726	0.233562	0.151309
C209	C	0.379909	-0.213176	-0.295585
C210	C	0.879909	0.286824	0.204415
C211	C	0.393204	-0.215993	-0.216417
C212	C	0.893204	0.284007	0.283583
C213	C	0.442319	-0.272074	-0.190350
C214	C	0.942319	0.227926	0.309650
C215	C	0.478136	-0.325336	-0.243456
C216	C	0.978136	0.174664	0.256544
H217	H	0.405882	-0.264351	-0.407300
H218	H	0.905882	0.235649	0.092700
H219	H	0.343551	-0.171661	-0.314882
H220	H	0.843551	0.328339	0.185118
H221	H	0.366690	-0.176565	-0.177104
H222	H	0.866690	0.323435	0.322896
H223	H	0.452163	-0.274161	-0.131741
H224	H	0.952163	0.225839	0.368259
H225	H	0.514495	-0.366851	-0.224160
H226	H	1.014495	0.133149	0.275840
C227	C	0.901183	-0.470426	-0.985897
C228	C	1.401183	0.029574	-0.485897
C229	C	0.821457	-0.461539	-0.992222
C230	C	1.321457	0.038461	-0.492222
C231	C	0.771779	-0.507107	-0.951713
C232	C	1.271779	-0.007107	-0.451713
C233	C	0.801827	-0.561561	-0.904879
C234	C	1.301827	-0.061561	-0.404879
C235	C	0.881556	-0.570450	-0.898552
C236	C	1.381556	-0.070450	-0.398552
C237	C	0.931234	-0.524882	-0.939061
C238	C	1.431234	-0.024882	-0.439061
H239	H	0.799211	-0.421227	-1.026893
H240	H	1.299211	0.078773	-0.526893
H241	H	0.712758	-0.500526	-0.956397
H242	H	1.212758	-0.000526	-0.456397
H243	H	0.765052	-0.595293	-0.874892
H244	H	1.265052	-0.095293	-0.374892
H245	H	0.903803	-0.610762	-0.863881
H246	H	1.403803	-0.110762	-0.363881
H247	H	0.990256	-0.531463	-0.934377
H248	H	1.490256	-0.031463	-0.434377
C249	C	1.061014	-0.808396	-0.323807
C250	C	1.561014	-0.308396	0.176193
C251	C	1.030957	-0.855280	-0.269366
C252	C	1.530957	-0.355280	0.230634
C253	C	1.080627	-0.895787	-0.223848
C254	C	1.580627	-0.395787	0.276152
C255	C	1.160354	-0.889411	-0.232770
C256	C	1.660354	-0.389411	0.267230
C257	C	1.190415	-0.842525	-0.287213
C258	C	1.690415	-0.342525	0.212787
C259	C	1.140745	-0.802018	-0.332731
C260	C	1.640745	-0.302018	0.167269
H261	H	0.971935	-0.860003	-0.262759
H262	H	1.471935	-0.360003	0.237241
H263	H	1.058373	-0.930496	-0.183545
H264	H	1.558373	-0.430496	0.316455
H265	H	1.197122	-0.919397	-0.199074
H266	H	1.697122	-0.419397	0.300926
H267	H	1.249437	-0.837803	-0.293820
H268	H	1.749437	-0.337803	0.206180
H269	H	1.162999	-0.767310	-0.373033
H270	H	1.662999	-0.267310	0.126967
C271	C	1.061047	-0.323791	-0.809042
C272	C	1.561047	0.176209	-0.309042
C273	C	1.030977	-0.269345	-0.855872
C274	C	1.530977	0.230655	-0.355872
C275	C	1.080635	-0.223786	-0.896412
C276	C	1.580635	0.276214	-0.396412
C277	C	1.160364	-0.232672	-0.890121
C278	C	1.660364	0.267328	-0.390121
C279	C	1.190438	-0.287120	-0.843289
C280	C	1.690438	0.212880	-0.343289
C281	C	1.140779	-0.332680	-0.802749
C282	C	1.640779	0.167320	-0.302749
H283	H	0.971953	-0.262765	-0.860530
H284	H	1.471953	0.237235	-0.360530
H285	H	1.058372	-0.183480	-0.931080
H286	H	1.558372	0.316520	-0.431080
H287	H	1.197124	-0.198947	-0.920132
H288	H	1.697124	0.301053	-0.420132
H289	H	1.249461	-0.293701	-0.838631
H290	H	1.749461	0.206299	-0.338631
H291	H	1.163043	-0.372986	-0.768081
H292	H	1.663043	0.127014	-0.268081
C293	C	0.871452	-0.497752	-0.654258
C294	C	1.371452	0.002248	-0.154258
C295	C	0.791722	-0.488876	-0.660552
C296	C	1.291722	0.011124	-0.160552
C297	C	0.742068	-0.534438	-0.620011
C298	C	1.242068	-0.034438	-0.120011
C299	C	0.772142	-0.588876	-0.573175
C300	C	1.272142	-0.088876	-0.073175
C301	C	0.851876	-0.597755	-0.566879
C302	C	1.351876	-0.097755	-0.066879
C303	C	0.901530	-0.552193	-0.607420
C304	C	1.401530	-0.052193	-0.107420
H305	H	0.769456	-0.448575	-0.695225
H306	H	1.269456	0.051425	-0.195225
H307	H	0.683044	-0.527865	-0.624673
H308	H	1.183044	-0.027865	-0.124673
H309	H	0.735385	-0.622604	-0.543164
H310	H	1.235385	-0.122604	-0.043164
H311	H	0.874142	-0.638056	-0.532206
H312	H	1.374142	-0.138056	-0.032206
H313	H	0.960554	-0.558766	-0.602758
H314	H	1.460554	-0.058766	-0.102758
H315	H	0.707464	-0.470228	-0.469888
H316	H	1.207464	0.029772	0.030112
H317	H	0.589364	-0.294506	-0.294708
H318	H	1.089364	0.205494	0.205292
C319	C	0.229289	-0.506961	-0.506542
C320	C	0.729289	-0.006961	-0.006542
C321	C	0.148912	-0.503382	-0.502981
C322	C	0.648912	-0.003382	-0.002981
C323	C	0.104338	-0.553066	-0.552528
C324	C	0.604338	-0.053066	-0.052528
C325	C	0.140142	-0.606329	-0.605637
C326	C	0.640142	-0.106329	-0.105637
C327	C	0.220523	-0.609911	-0.609201
C328	C	0.720523	-0.109911	-0.109201
C329	C	0.265096	-0.560227	-0.559654
C330	C	0.765096	-0.060227	-0.059654
H331	H	0.122404	-0.463951	-0.463664
H332	H	0.622404	0.036049	0.036336
H333	H	0.044834	-0.550414	-0.549889
H334	H	0.544834	-0.050414	-0.049889
H335	H	0.107146	-0.643108	-0.642314
H336	H	0.607146	-0.143108	-0.142314
H337	H	0.247031	-0.649341	-0.648517
H338	H	0.747031	-0.149341	-0.148517
H339	H	0.324600	-0.562878	-0.562292
H340	H	0.824600	-0.062878	-0.062292
C341	C	0.733523	-0.287509	-0.287722
C342	C	1.233523	0.212491	0.212278
C343	C	0.726793	-0.207479	-0.289904
C344	C	1.226793	0.292521	0.210096
C345	C	0.771371	-0.157789	-0.240368
C346	C	1.271371	0.342211	0.259632
C347	C	0.822680	-0.188129	-0.188650
C348	C	1.322680	0.311871	0.311350
C349	C	0.829413	-0.268163	-0.186466
C350	C	1.329413	0.231837	0.313534
C351	C	0.784834	-0.317853	-0.236002
C352	C	1.284834	0.182147	0.263998
H353	H	0.688809	-0.185016	-0.328191
H354	H	1.188809	0.314984	0.171809
H355	H	0.766387	-0.098543	-0.241986
H356	H	1.266387	0.401457	0.258014
H357	H	0.855680	-0.151346	-0.151980
H358	H	1.355680	0.348654	0.348020
H359	H	0.867397	-0.290626	-0.148179
H360	H	1.367397	0.209374	0.351821
H361	H	0.789818	-0.377099	-0.234384
H362	H	1.289818	0.122901	0.265616
H363	H	0.373433	-0.499966	-0.499552
H364	H	0.873433	0.000034	0.000448
C365	C	0.894416	-1.139335	-0.476728
C366	C	1.394416	-0.639335	0.023272
C367	C	0.844754	-1.098826	-0.522247
C368	C	1.344754	-0.598826	-0.022247
C369	C	0.791533	-1.138988	-0.571060
C370	C	1.291533	-0.638988	-0.071060
C371	C	0.787974	-1.219659	-0.574354
C372	C	1.287974	-0.719659	-0.074354
C373	C	0.837638	-1.260172	-0.528834
C374	C	1.337638	-0.760172	-0.028834
C375	C	0.890859	-1.220010	-0.480021
C376	C	1.390859	-0.720010	0.019979
H377	H	0.847386	-1.039105	-0.519809
H378	H	1.347386	-0.539105	-0.019809
H379	H	0.754768	-1.108998	-0.604757
H380	H	1.254768	-0.608998	-0.104757
H381	H	0.748577	-1.249389	-0.610489
H382	H	1.248577	-0.749389	-0.110489
H383	H	0.835006	-1.319893	-0.531271
H384	H	1.335006	-0.819893	-0.031271
H385	H	0.927624	-1.250001	-0.446324
H386	H	1.427624	-0.750001	0.053676
H387	H	0.488655	-0.458110	-0.457836
H388	H	0.988655	0.041890	0.042164
H389	H	1.053972	-0.664824	-0.330178
H390	H	1.553972	-0.164824	0.169822
C391	C	0.901204	-0.985326	-0.470432
C392	C	1.401204	-0.485326	0.029568
C393	C	0.821477	-0.991695	-0.461507
C394	C	1.321477	-0.491695	0.038493
C395	C	0.771809	-0.951193	-0.507032
C396	C	1.271809	-0.451193	-0.007032
C397	C	0.801869	-0.904321	-0.561482
C398	C	1.301869	-0.404321	-0.061482
C399	C	0.881601	-0.897950	-0.570409
C400	C	1.381601	-0.397950	-0.070409
C401	C	0.931268	-0.938452	-0.524884
C402	C	1.431268	-0.438452	-0.024884
H403	H	0.799221	-1.026395	-0.421198
H404	H	1.299221	-0.526395	0.078802
H405	H	0.712787	-0.955910	-0.500424
H406	H	1.212787	-0.455910	-0.000424
H407	H	0.765102	-0.874339	-0.595182
H408	H	1.265102	-0.374339	-0.095182
H409	H	0.903856	-0.863251	-0.610718
H410	H	1.403856	-0.363251	-0.110718
H411	H	0.990291	-0.933736	-0.531493
H412	H	1.490291	-0.433736	-0.031493
H413	H	1.083795	-0.996429	-0.303019
H414	H	1.583795	-0.496429	0.196981
H415	H	1.077932	-1.129489	-0.308466
H416	H	1.577932	-0.629489	0.191534
H417	H	0.878424	-0.797292	-0.491213
H418	H	1.378424	-0.297292	0.008787
C419	C	1.067869	-0.317546	-0.655033
C420	C	1.567869	0.182454	-0.155033
C421	C	1.065298	-0.237871	-0.661632
C422	C	1.565298	0.262129	-0.161632
C423	C	1.118526	-0.189034	-0.621502
C424	C	1.618526	0.310966	-0.121502
C425	C	1.174326	-0.219873	-0.574772
C426	C	1.674326	0.280127	-0.074772
C427	C	1.176898	-0.299552	-0.568171
C428	C	1.676898	0.200448	-0.068171
C429	C	1.123670	-0.348388	-0.608301
C430	C	1.623670	0.151612	-0.108301
H431	H	1.023990	-0.215039	-0.696226
H432	H	1.523990	0.284961	-0.196226
H433	H	1.116621	-0.130051	-0.626389
H434	H	1.616621	0.369949	-0.126389
H435	H	1.213728	-0.183721	-0.545065
H436	H	1.713728	0.316279	-0.045065
H437	H	1.218206	-0.322384	-0.533577
H438	H	1.718206	0.177616	-0.033577
H439	H	1.125575	-0.407372	-0.603414
H440	H	1.625575	0.092628	-0.103414
H441	H	1.041952	-0.884631	-0.341339
H442	H	1.541952	-0.384631	0.158661
H443	H	1.083794	-0.302905	-0.997075
H444	H	1.583794	0.197095	-0.497075
H445	H	0.920269	-0.909097	-0.452900
H446	H	1.420269	-0.409097	0.047100
H447	H	1.041956	-0.341281	-0.885255
H448	H	1.541956	0.158719	-0.385255
H449	H	0.920284	-0.452927	-0.909669
H450	H	1.420284	0.047073	-0.409669
