data_functionalizedCrystal
_audit_creation_method	'MofGen! by Chris Wilmer'
_symmetry_space_group_name_H-M	'P1'
_symmetry_Int_Tables_number	1
_symmetry_cell_setting	triclinic
loop_
_symmetry_equiv_pos_as_xyz
  x,y,z
_cell_length_a	17.019383
_cell_length_b	16.098538
_cell_length_c	16.109301
_cell_angle_alpha	87.279371
_cell_angle_beta	83.430593
_cell_angle_gamma	96.605849
loop_
_atom_site_label
_atom_site_type_symbol
_atom_site_fract_x
_atom_site_fract_y
_atom_site_fract_z
O1	O	1.054025	0.144776	0.098207
O2	O	1.554025	0.644776	0.598207
O3	O	0.823517	0.128263	0.112587
O4	O	1.323517	0.628263	0.612587
O5	O	0.945102	0.136965	-0.015663
O6	O	1.445102	0.636965	0.484337
O7	O	0.932439	0.136075	0.226458
O8	O	1.432439	0.636075	0.726458
O9	O	0.938000	-0.002056	-0.008200
O10	O	1.438000	0.497944	0.491800
O11	O	0.816414	-0.010758	0.120050
O12	O	1.316414	0.489242	0.620050
O13	O	1.046922	0.005755	0.105670
O14	O	1.546922	0.505755	0.605670
Zn15	Zn	0.930540	-0.024574	0.114045
Zn16	Zn	1.430540	0.475426	0.614045
Zn17	Zn	0.939898	0.158592	0.104213
Zn18	Zn	1.439898	0.658592	0.604213
O19	O	0.925336	-0.002947	0.233920
O20	O	1.425336	0.497053	0.733920
C21	C	0.790469	0.056639	0.115918
C22	C	1.290469	0.556639	0.615918
C23	C	0.702579	0.050343	0.114715
C24	C	1.202579	0.550343	0.614715
N25	N	0.924160	-0.149580	0.120754
N26	N	1.424160	0.350420	0.620754
C27	C	0.665152	0.123159	0.110085
C28	C	1.165152	0.623159	0.610085
C29	C	0.582568	0.117230	0.108968
C30	C	1.082568	0.617230	0.608968
C31	C	0.537413	0.038485	0.112477
C32	C	1.037413	0.538485	0.612477
C33	C	0.574845	-0.034337	0.117110
C34	C	1.074845	0.465663	0.617110
C35	C	0.657427	-0.028407	0.118233
C36	C	1.157427	0.471593	0.618233
C37	C	0.287874	0.016791	0.109297
C38	C	0.787874	0.516791	0.609297
C39	C	0.205287	0.010867	0.108172
C40	C	0.705287	0.510867	0.608172
C41	C	0.213016	0.162434	0.100032
C42	C	0.713016	0.662434	0.600032
C43	C	0.295599	0.168357	0.101149
C44	C	0.795599	0.668357	0.601149
C45	C	0.333024	0.095535	0.105787
C46	C	0.833024	0.595535	0.605787
C47	C	0.452999	0.032423	0.111333
C48	C	0.952999	0.532423	0.611333
C49	C	0.417436	0.101598	0.106937
C50	C	0.917436	0.601598	0.606937
C51	C	0.975785	-0.189470	0.066339
C52	C	1.475785	0.310530	0.566339
C53	C	0.971328	-0.276978	0.071040
C54	C	1.471328	0.223022	0.571040
C55	C	0.915251	-0.324594	0.130162
C56	C	1.415251	0.175406	0.630162
C57	C	0.863620	-0.284698	0.184580
C58	C	1.363620	0.215302	0.684580
C59	C	0.868073	-0.197192	0.179874
C60	C	1.368073	0.302808	0.679874
C61	C	0.899108	-0.588999	0.147208
C62	C	1.399108	-0.088999	0.647208
C63	C	0.894660	-0.676511	0.151912
C64	C	1.394660	-0.176511	0.651912
C65	C	1.002368	-0.668785	0.038371
C66	C	1.502368	-0.168785	0.538371
C67	C	1.006819	-0.581278	0.033673
C68	C	1.506819	-0.081278	0.533673
C69	C	0.955186	-0.541389	0.088088
C70	C	1.455186	-0.041389	0.588088
C71	C	0.910696	-0.414041	0.134971
C72	C	1.410696	0.085959	0.634971
C73	C	0.959738	-0.451944	0.083275
C74	C	1.459738	0.048056	0.583275
C75	C	1.079970	0.077381	0.102339
C76	C	1.579970	0.577381	0.602339
C77	C	1.167860	0.083683	0.103541
C78	C	1.667860	0.583683	0.603541
C79	C	0.941038	0.067417	-0.042904
C80	C	1.441038	0.567417	0.457096
C81	C	0.939500	0.067306	-0.135192
C82	C	1.439500	0.567306	0.364808
N83	N	0.946285	0.283599	0.097496
N84	N	1.446285	0.783599	0.597496
C85	C	1.008071	0.072231	-0.357787
C86	C	1.508071	0.572231	0.142213
C87	C	1.006620	0.072134	-0.444501
C88	C	1.506620	0.572134	0.055499
C89	C	0.862362	0.061796	-0.423950
C90	C	1.362362	0.561796	0.076050
C91	C	0.863814	0.061900	-0.337238
C92	C	1.363814	0.561900	0.162762
C93	C	0.936671	0.067113	-0.304159
C94	C	1.436671	0.567113	0.195841
C95	C	0.933768	0.066913	-0.477585
C96	C	1.433768	0.566913	0.022415
C97	C	0.932194	0.066807	-0.571604
C98	C	1.432194	0.566807	-0.071604
C99	C	0.938245	0.067220	-0.210134
C100	C	1.438245	0.567220	0.289866
C101	C	0.929401	0.066603	0.261161
C102	C	1.429401	0.566603	0.761161
C103	C	0.930939	0.066720	0.353449
C104	C	1.430939	0.566720	0.853449
H105	H	0.701912	0.187282	0.107225
H106	H	1.201912	0.687282	0.607225
H107	H	0.552099	0.176525	0.105198
H108	H	1.052099	0.676525	0.605198
H109	H	0.857068	-0.556529	0.191516
H110	H	1.357068	-0.056529	0.691516
H111	H	0.803045	0.057550	-0.450894
H112	H	1.303045	0.557550	0.049106
H113	H	0.332360	0.232480	0.098287
H114	H	0.832360	0.732480	0.598287
C115	C	0.171841	0.242533	0.094938
C116	C	0.671841	0.742533	0.594938
N117	N	0.140828	0.302866	0.091105
N118	N	0.640828	0.802866	0.591105
H119	H	1.013365	-0.309456	0.026731
H120	H	1.513365	0.190544	0.526731
H121	H	0.805668	0.057734	-0.293571
H122	H	1.305668	0.557734	0.206429
H123	H	0.318336	-0.042506	0.113068
H124	H	0.818336	0.457494	0.613068
C125	C	0.525171	-0.120958	0.120970
C126	C	1.025171	0.379042	0.620970
N127	N	0.487758	-0.186203	0.123875
N128	N	0.987758	0.313797	0.623875
C129	C	0.832966	-0.728887	0.216950
C130	C	1.332966	-0.228887	0.716950
N131	N	0.786500	-0.768337	0.265935
N132	N	1.286500	-0.268337	0.765935
H133	H	0.168521	-0.053261	0.111053
H134	H	0.668521	0.446739	0.611053
H135	H	0.687898	-0.087702	0.122007
H136	H	1.187898	0.412298	0.622007
C137	C	0.467109	0.188216	0.103075
C138	C	0.967109	0.688216	0.603075
N139	N	0.504531	0.253457	0.100162
N140	N	1.004531	0.753457	0.600162
H141	H	0.416224	-0.031692	0.114187
H142	H	0.916224	0.468308	0.614187
H143	H	0.865038	-0.452817	0.183110
H144	H	1.365038	0.047183	0.683110
H145	H	1.052482	-0.542510	-0.014468
H146	H	1.552482	-0.042510	0.485532
C147	C	1.037475	-0.137101	0.001300
C148	C	1.537475	0.362899	0.501300
N149	N	1.083939	-0.097658	-0.047693
N150	N	1.583939	0.402342	0.452307
C151	C	1.059154	-0.712670	-0.021488
C152	C	1.559154	-0.212670	0.478512
N153	N	1.101925	-0.745725	-0.066580
N154	N	1.601925	-0.245725	0.433420
H155	H	0.817957	-0.323472	0.232715
H156	H	1.317957	0.176528	0.732715
C157	C	0.811288	-0.153313	0.239742
C158	C	1.311288	0.346687	0.739742
N159	N	0.768516	-0.120264	0.284837
N160	N	1.268516	0.379736	0.784837
C161	C	1.085166	0.077757	-0.503488
C162	C	1.585166	0.577757	-0.003488
N163	N	1.144331	0.081991	-0.547917
N164	N	1.644331	0.581991	-0.047917
H165	H	1.005393	-0.413173	0.035135
H166	H	1.505393	0.086827	0.535135
C167	C	1.088216	0.077975	-0.321404
C168	C	1.588216	0.577975	0.178596
N169	N	1.148584	0.082306	-0.294003
N170	N	1.648584	0.582306	0.205997
