data_functionalizedCrystal
_audit_creation_method	'MofGen! by Chris Wilmer'
_symmetry_space_group_name_H-M	'P1'
_symmetry_Int_Tables_number	1
_symmetry_cell_setting	triclinic
loop_
_symmetry_equiv_pos_as_xyz
  x,y,z
_cell_length_a	19.077105
_cell_length_b	13.897447
_cell_length_c	13.897449
_cell_angle_alpha	90.008998
_cell_angle_beta	92.303612
_cell_angle_gamma	87.715989
loop_
_atom_site_label
_atom_site_type_symbol
_atom_site_fract_x
_atom_site_fract_y
_atom_site_fract_z
Zn1	Zn	1.075917	-0.443531	0.604590
Zn2	Zn	1.575917	0.056469	1.104590
Zn3	Zn	1.075866	-0.604792	0.443293
Zn4	Zn	1.575866	-0.104792	0.943293
Zn5	Zn	0.958246	-0.437024	0.436834
Zn6	Zn	1.458246	0.062976	0.936834
Zn7	Zn	0.958198	-0.598291	0.598071
Zn8	Zn	1.458198	-0.098291	1.098071
O9	O	1.017057	-0.520910	0.520697
O10	O	1.517057	-0.020910	1.020697
O11	O	1.174401	-0.470366	0.588625
O12	O	1.674401	0.029634	1.088625
O13	O	1.060262	-0.582535	0.307454
O14	O	1.560262	-0.082535	0.807454
O15	O	0.973896	-0.302908	0.459113
O16	O	1.473896	0.197092	0.959113
O17	O	1.174363	-0.588844	0.470121
O18	O	1.674363	-0.088844	0.970121
O19	O	1.060349	-0.307688	0.582363
O20	O	1.560349	0.192312	1.082363
O21	O	0.973847	-0.459277	0.302709
O22	O	1.473847	0.040723	0.802709
O23	O	0.859749	-0.452973	0.452791
O24	O	1.359749	0.047027	0.952791
O25	O	0.973815	-0.577764	0.733917
O26	O	1.473815	-0.077764	1.233917
O27	O	0.859714	-0.571455	0.571251
O28	O	1.359714	-0.071455	1.071251
O29	O	1.060303	-0.464062	0.738707
O30	O	1.560303	0.035938	1.238707
O31	O	1.060216	-0.738909	0.463799
O32	O	1.560216	-0.238909	0.963799
O33	O	0.973766	-0.734133	0.577513
O34	O	1.473766	-0.234133	1.077513
C35	C	0.834194	-0.510804	0.510613
C36	C	1.334194	-0.010804	1.010613
C37	C	0.755964	-0.506503	0.506322
C38	C	1.255964	-0.006503	1.006322
C39	C	0.719212	-0.566263	0.565885
C40	C	1.219212	-0.066263	1.065885
C41	C	0.645707	-0.562210	0.561858
C42	C	1.145707	-0.062210	1.061858
C43	C	0.608956	-0.498401	0.498262
C44	C	1.108956	0.001599	0.998262
C45	C	0.645713	-0.438635	0.438697
C46	C	1.145713	0.061365	0.938697
C47	C	0.719217	-0.442684	0.442730
C48	C	1.219217	0.057316	0.942730
C49	C	0.389124	-0.479662	0.479602
C50	C	0.889124	0.020338	0.979602
C51	C	0.315615	-0.475619	0.475572
C52	C	0.815615	0.024381	0.975572
C53	C	0.315614	-0.599194	0.598735
C54	C	0.815614	-0.099194	1.098735
C55	C	0.389119	-0.603242	0.602758
C56	C	0.889119	-0.103242	1.102758
C57	C	0.425870	-0.543472	0.543196
C58	C	0.925870	-0.043472	1.043196
N59	N	0.533822	-0.494259	0.494142
N60	N	1.033822	0.005741	0.994142
N61	N	0.501003	-0.547610	0.547322
N62	N	1.001003	-0.047610	1.047322
C63	C	1.016999	-0.771521	0.520671
C64	C	1.516999	-0.271521	1.020671
C65	C	1.017039	-0.878737	0.520696
C66	C	1.517039	-0.378737	1.020696
C67	C	1.017073	-0.965809	0.520720
C68	C	1.517073	-0.465809	1.020720
C69	C	1.017123	-1.075044	0.520748
C70	C	1.517123	-0.575044	1.020748
C71	C	1.200633	-0.531056	0.530821
C72	C	1.700633	-0.031056	1.030821
C73	C	1.278863	-0.535380	0.535135
C74	C	1.778863	-0.035380	1.035135
C75	C	1.017059	-0.520914	0.772290
C76	C	1.517059	-0.020914	1.272290
C77	C	1.017060	-0.520916	0.879504
C78	C	1.517060	-0.020916	1.379504
C79	C	1.017133	-0.269321	0.520745
C80	C	1.517133	0.230679	1.020745
C81	C	1.017166	-0.162109	0.520765
C82	C	1.517166	0.337891	1.020765
C83	C	1.017043	-0.520919	1.075798
C84	C	1.517043	-0.020919	1.575798
C85	C	1.017050	-0.520920	0.966566
C86	C	1.517050	-0.020920	1.466566
C87	C	1.017047	-0.520925	1.270082
C88	C	1.517047	-0.020925	1.770082
C89	C	1.017042	-0.520917	1.162868
C90	C	1.517042	-0.020917	1.662868
H91	H	0.749130	-0.618227	0.617668
H92	H	1.249130	-0.118227	1.117668
H93	H	0.615787	-0.610874	0.610359
H94	H	1.115787	-0.110874	1.110359
H95	H	0.419037	-0.431000	0.431096
H96	H	0.919037	0.069000	0.931096
H97	H	0.419037	-0.655204	0.654542
H98	H	0.919037	-0.155204	1.154542
C99	C	0.275183	-0.664930	0.664255
C100	C	0.775183	-0.164930	1.164255
N101	N	0.244729	-0.714441	0.713611
N102	N	0.744729	-0.214441	1.213611
H103	H	0.285694	-0.423647	0.423791
H104	H	0.785694	0.076353	0.923791
C105	C	0.605284	-0.368441	0.368743
C106	C	1.105284	0.131559	0.868743
N107	N	0.574833	-0.315572	0.316051
N108	N	1.074833	0.184428	0.816051
C109	C	0.759644	-0.376945	0.377204
C110	C	1.259644	0.123055	0.877204
N111	N	0.790092	-0.327426	0.327849
N112	N	1.290092	0.172574	0.827849
