data_functionalizedCrystal
_audit_creation_method	'MofGen! by Chris Wilmer'
_symmetry_space_group_name_H-M	'P1'
_symmetry_Int_Tables_number	1
_symmetry_cell_setting	triclinic
loop_
_symmetry_equiv_pos_as_xyz
  x,y,z
_cell_length_a	13.635800
_cell_length_b	10.943632
_cell_length_c	11.020166
_cell_angle_alpha	76.558187
_cell_angle_beta	72.707471
_cell_angle_gamma	71.161120
loop_
_atom_site_label
_atom_site_type_symbol
_atom_site_fract_x
_atom_site_fract_y
_atom_site_fract_z
V1	V	1.858259	-0.178643	0.396228
O2	O	1.840895	0.008571	0.388717
O3	O	1.848613	-0.354206	0.393488
O4	O	1.760229	-0.175901	0.569050
O5	O	1.929891	-0.170968	0.211939
V6	V	2.107753	-0.156249	0.374189
O7	O	1.971925	-0.227765	0.444572
O8	O	2.219186	-0.107127	0.325845
O9	O	2.005795	0.019314	0.376929
O10	O	2.183816	-0.343463	0.381700
O11	O	2.094819	-0.163924	0.558478
O12	O	2.094180	-0.158991	0.201367
V13	V	2.358259	-0.178643	0.396228
O14	O	2.340895	0.008571	0.388717
O15	O	2.348613	-0.354206	0.393488
O16	O	2.260229	-0.175901	0.569050
O17	O	2.429891	-0.170968	0.211939
V18	V	2.607753	-0.156249	0.374189
O19	O	2.471925	-0.227765	0.444572
O20	O	2.719186	-0.107127	0.325845
O21	O	2.505795	0.019314	0.376929
O22	O	2.683816	-0.343463	0.381700
O23	O	2.594819	-0.163924	0.558478
O24	O	2.594180	-0.158991	0.201367
C25	C	1.777043	-0.397004	0.387229
C26	C	1.809308	-0.540529	0.386141
C27	C	1.735376	-0.617682	0.378903
C28	C	1.826448	-0.690325	0.276307
C29	C	1.775734	-0.723625	0.486811
C30	C	1.899977	-0.611268	0.283472
C31	C	1.849225	-0.644575	0.494070
C32	C	1.940363	-0.717180	0.391453
C33	C	1.664300	-0.169557	0.611175
C34	C	1.624889	-0.168477	0.752458
C35	C	1.909038	0.062105	0.383184
C36	C	1.866389	0.205629	0.384281
C37	C	2.021782	-0.165340	0.159235
C38	C	2.050814	-0.166413	0.017951
C39	C	2.277043	-0.397004	0.387229
C40	C	2.309308	-0.540529	0.386141
C41	C	2.164300	-0.169557	0.611175
C42	C	2.124889	-0.168477	0.752458
C43	C	2.090749	-0.285164	0.969728
C44	C	2.127783	-0.286196	0.836980
C45	C	2.084946	-0.049717	0.800688
C46	C	2.047906	-0.048686	0.933433
C47	C	2.409038	0.062105	0.383184
C48	C	2.366389	0.205629	0.384281
C49	C	2.521782	-0.165340	0.159235
C50	C	2.550814	-0.166413	0.017951
C51	C	1.695164	-0.174417	0.825306
C52	C	1.658126	-0.173398	0.958056
C53	C	1.480533	-0.160502	0.945097
C54	C	1.517570	-0.161512	0.812349
C55	C	2.413323	-0.614534	0.391969
C56	C	2.443631	-0.749392	0.390956
C57	C	2.265901	-0.736228	0.378282
C58	C	2.235592	-0.601374	0.379304
H59	H	1.648451	-0.574198	0.373477
C60	C	2.122606	-0.520988	0.373236
C61	C	2.073540	-0.460613	0.483313
C62	C	1.969457	-0.386566	0.477780
H63	H	2.124893	-0.456212	0.298998
H64	H	2.082990	-0.576501	0.369075
H65	H	2.113146	-0.405104	0.487461
H66	H	2.071225	-0.525359	0.557568
H67	H	1.929841	-0.442079	0.473619
H68	H	1.971755	-0.321797	0.403537
H69	H	1.936150	-0.345602	0.552470
H70	H	1.460336	-0.156664	0.753032
H71	H	2.160297	-0.382894	0.797725
H72	H	2.082586	0.046133	0.731859
C73	C	1.734524	-0.180126	1.037126
C74	C	1.817300	-0.295873	1.025882
C75	C	1.887694	-0.302123	1.098716
H76	H	1.763497	-0.107402	1.006509
H77	H	1.697149	-0.178597	1.124790
H78	H	1.854670	-0.297391	0.938236
H79	H	1.788359	-0.368617	1.056507
H80	H	1.850319	-0.300594	1.186380
H81	H	1.916659	-0.229394	1.068093
H82	H	1.943860	-0.380662	1.091107
H83	H	2.015385	0.048021	0.972695
C84	C	2.093855	-0.412843	1.061702
C85	C	2.052897	-0.386532	1.188280
C86	C	2.055754	-0.504121	1.273038
H87	H	2.051911	-0.457565	1.043427
H88	H	2.165533	-0.465730	1.051622
H89	H	1.981232	-0.333666	1.198355
H90	H	2.094830	-0.341829	1.206596
H91	H	2.127431	-0.557009	1.262958
H92	H	2.013810	-0.548834	1.254751
H93	H	2.027974	-0.486286	1.358931
C94	C	1.814285	-0.718119	0.153454
C95	C	1.913761	-0.785539	0.084752
C96	C	1.902589	-0.811160	-0.028420
H97	H	1.765729	-0.769828	0.174377
H98	H	1.787798	-0.638044	0.102349
H99	H	1.940233	-0.865601	0.135847
H100	H	1.962331	-0.733853	0.063797
H101	H	1.876103	-0.731085	-0.079525
H102	H	1.854031	-0.862865	-0.007485
H103	H	1.970082	-0.856896	-0.075054
H104	H	2.205888	-0.785784	0.372712
H105	H	1.393154	-0.154835	0.993877
H106	H	1.782547	-0.180086	0.776547
C107	C	2.493368	-0.548360	0.399138
C108	C	2.507650	-0.453946	0.290233
C109	C	2.581392	-0.392976	0.296788
H110	H	2.467390	-0.507709	0.474175
H111	H	2.559694	-0.611702	0.402399
H112	H	2.441339	-0.390613	0.286985
H113	H	2.533642	-0.494563	0.215180
H114	H	2.647717	-0.456319	0.300049
H115	H	2.555407	-0.352333	0.371829
H116	H	2.591099	-0.328918	0.222893
H117	H	2.528327	-0.809642	0.395705
H118	H	2.027337	-0.760405	0.396723
C119	C	1.861580	-0.617116	0.616959
C120	C	1.898788	-0.735417	0.693028
C121	C	1.910156	-0.710175	0.806262
H122	H	1.911213	-0.566880	0.596154
H123	H	1.794404	-0.569994	0.662991
H124	H	1.965954	-0.782518	0.647006
H125	H	1.849168	-0.785670	0.713868
H126	H	1.842980	-0.663054	0.852294
H127	H	1.959788	-0.659938	0.785445
H128	H	1.935393	-0.790438	0.857894
C129	C	1.706044	-0.788604	0.601491
C130	C	1.631607	-0.693541	0.673193
C131	C	1.567394	-0.753347	0.778847
H132	H	1.669520	-0.832239	0.572107
H133	H	1.749510	-0.850014	0.653923
H134	H	1.588146	-0.632155	0.620770
H135	H	1.668102	-0.649900	0.702609
H136	H	1.610860	-0.814756	0.831279
H137	H	1.530877	-0.796980	0.749451
H138	H	1.516888	-0.688858	0.827516
H139	H	1.952203	-0.562498	0.197452
