data_functionalizedCrystal
_audit_creation_method	'MofGen! by Chris Wilmer'
_symmetry_space_group_name_H-M	'P1'
_symmetry_Int_Tables_number	1
_symmetry_cell_setting	triclinic
loop_
_symmetry_equiv_pos_as_xyz
  x,y,z
_cell_length_a	14.519709
_cell_length_b	15.072220
_cell_length_c	14.519709
_cell_angle_alpha	90.002063
_cell_angle_beta	83.680145
_cell_angle_gamma	90.006889
loop_
_atom_site_label
_atom_site_type_symbol
_atom_site_fract_x
_atom_site_fract_y
_atom_site_fract_z
O1	O	1.223879	0.073669	0.120885
O2	O	0.955402	0.073696	0.135122
O3	O	1.096759	0.073674	-0.006235
O4	O	1.082522	0.073691	0.262242
O5	O	1.096724	-0.073891	-0.006227
O6	O	0.955367	-0.073869	0.135129
O7	O	1.223844	-0.073896	0.120893
Zn8	Zn	1.089600	-0.097312	0.128012
Zn9	Zn	1.089646	0.097112	0.128002
O10	O	1.082487	-0.073874	0.262250
C11	C	0.921025	-0.000083	0.134462
C12	C	0.818643	-0.000073	0.132474
N13	N	1.089575	-0.230000	0.128019
C14	C	0.443748	-0.000114	0.125154
C15	C	0.548056	-0.000102	0.127187
C16	C	0.631192	-0.000092	0.128814
C17	C	0.735507	-0.000082	0.130847
C18	C	1.089644	-0.589202	0.127999
C19	C	1.013752	-0.551583	0.203381
C20	C	1.013927	-0.448757	0.203657
C21	C	1.089609	-0.410998	0.128009
C22	C	1.185870	-0.448297	0.149184
C23	C	1.185445	-0.551155	0.149720
C24	C	1.070133	-0.551306	0.031218
C25	C	1.067926	-0.448442	0.031859
C26	C	1.089595	-0.310285	0.128013
C27	C	1.089664	-0.689915	0.127997
C28	C	1.258221	-0.000115	0.121553
C29	C	1.360602	-0.000119	0.123541
C30	C	1.096078	-0.000109	-0.040591
C31	C	1.094089	-0.000109	-0.142972
N32	N	1.089678	0.229801	0.127988
C33	C	1.086770	-0.000085	-0.517868
C34	C	1.088803	-0.000092	-0.413560
C35	C	1.090430	-0.000098	-0.330423
C36	C	1.092463	-0.000103	-0.226109
C37	C	1.083168	-0.000089	0.296606
C38	C	1.085156	-0.000083	0.398987
H39	H	0.942380	-0.423540	0.191017
H40	H	0.941974	-0.576338	0.190947
C41	C	1.209618	-0.413491	0.243458
C42	C	1.301139	-0.440904	0.279895
C43	C	1.324881	-0.406099	0.374171
C44	C	1.257102	-0.343881	0.432010
C45	C	1.165575	-0.316465	0.395574
C46	C	1.141833	-0.351269	0.301298
H47	H	1.351318	-0.486964	0.237078
H48	H	1.392635	-0.426394	0.401143
H49	H	1.274677	-0.318116	0.501799
H50	H	1.115396	-0.270404	0.438391
H51	H	1.074079	-0.330974	0.274326
C52	C	1.030786	-0.415489	0.300672
C53	C	0.957849	-0.356947	0.356652
C54	C	0.974713	-0.323677	0.453669
C55	C	1.064513	-0.348949	0.494707
C56	C	1.137455	-0.407494	0.438726
C57	C	1.120592	-0.440764	0.341709
H58	H	0.891368	-0.338236	0.326274
H59	H	0.920716	-0.280338	0.495109
H60	H	1.076997	-0.324321	0.566525
H61	H	1.203936	-0.426205	0.469104
H62	H	1.174589	-0.484103	0.300268
C63	C	1.030409	-0.586425	0.299867
C64	C	1.112551	-0.648831	0.310444
C65	C	1.129231	-0.683649	0.406933
C66	C	1.063768	-0.656062	0.492844
C67	C	0.981621	-0.593653	0.482270
C68	C	0.964941	-0.558835	0.385781
H69	H	1.161016	-0.669256	0.246845
H70	H	1.190042	-0.729849	0.414760
H71	H	1.076116	-0.681837	0.564271
H72	H	0.933156	-0.573228	0.545869
H73	H	0.904130	-0.512635	0.377954
H74	H	1.202614	-0.575134	0.220307
H75	H	1.001456	-0.577291	0.010895
C76	C	1.264041	-0.584780	0.078389
C77	C	1.326995	-0.518036	0.021122
C78	C	1.405595	-0.551656	-0.050202
C79	C	1.421241	-0.652020	-0.064260
C80	C	1.358285	-0.718770	-0.006992
C81	C	1.279685	-0.685150	0.064332
H82	H	1.315414	-0.443736	0.031528
H83	H	1.452198	-0.502243	-0.092595
H84	H	1.479425	-0.676907	-0.117059
H85	H	1.369866	-0.793070	-0.017398
H86	H	1.233082	-0.734563	0.106725
C87	C	1.264001	-0.415255	0.077001
C88	C	1.364882	-0.443594	0.084019
C89	C	1.443011	-0.410551	0.011833
C90	C	1.420259	-0.349169	-0.067370
C91	C	1.319373	-0.320827	-0.074392
C92	C	1.241244	-0.353870	-0.002206
H93	H	1.381729	-0.489036	0.142653
H94	H	1.517694	-0.431532	0.017032
H95	H	1.478095	-0.324709	-0.120806
H96	H	1.302526	-0.275385	-0.133026
H97	H	1.166561	-0.332889	-0.007405
H98	H	0.997115	-0.424064	0.015793
H99	H	1.119599	-0.422743	-0.026877
C100	C	1.144886	-0.584175	-0.044576
C101	C	1.158021	-0.684333	-0.062393
C102	C	1.232774	-0.717208	-0.138179
C103	C	1.294393	-0.649924	-0.196147
C104	C	1.281261	-0.549759	-0.178332
C105	C	1.206507	-0.516885	-0.102546
H106	H	1.112405	-0.734146	-0.019480
H107	H	1.242496	-0.791356	-0.151367
H108	H	1.349731	-0.674260	-0.252248
H109	H	1.326877	-0.499946	-0.221245
H110	H	1.196786	-0.442736	-0.089358
