data_functionalizedCrystal
_audit_creation_method	'MofGen! by Chris Wilmer'
_symmetry_space_group_name_H-M	'P1'
_symmetry_Int_Tables_number	1
_symmetry_cell_setting	triclinic
loop_
_symmetry_equiv_pos_as_xyz
  x,y,z
_cell_length_a	12.759395
_cell_length_b	12.594516
_cell_length_c	12.759387
_cell_angle_alpha	89.969834
_cell_angle_beta	89.978972
_cell_angle_gamma	90.012577
loop_
_atom_site_label
_atom_site_type_symbol
_atom_site_fract_x
_atom_site_fract_y
_atom_site_fract_z
Zn1	Zn	1.606290	-0.423664	-0.594024
Zn2	Zn	1.606189	-0.601682	-0.418347
Zn3	Zn	1.430588	-0.423720	-0.418360
Zn4	Zn	1.430589	-0.601604	-0.593984
O5	O	1.518414	-0.512667	-0.506179
O6	O	1.753297	-0.447288	-0.570732
O7	O	1.582853	-0.578131	-0.271327
O8	O	1.453937	-0.274767	-0.441684
O9	O	1.753224	-0.578077	-0.441662
O10	O	1.583024	-0.274726	-0.570744
O11	O	1.453839	-0.447383	-0.271337
O12	O	1.283567	-0.447307	-0.441645
O13	O	1.453939	-0.577944	-0.741011
O14	O	1.283568	-0.577998	-0.570676
O15	O	1.583025	-0.447212	-0.741040
O16	O	1.582854	-0.750617	-0.441623
O17	O	1.453841	-0.750560	-0.570663
C18	C	1.245447	-0.512651	-0.506158
C19	C	1.128670	-0.512669	-0.506174
C20	C	0.909312	-0.376722	-0.640826
C21	C	0.964217	-0.308726	-0.708123
C22	C	1.073938	-0.308708	-0.708104
C23	C	1.128758	-0.376695	-0.640785
C24	C	1.073853	-0.444691	-0.573489
C25	C	0.964129	-0.444700	-0.573512
C26	C	1.073765	-0.580665	-0.438878
C27	C	0.964043	-0.580680	-0.438889
C28	C	1.128585	-0.648653	-0.371559
C29	C	1.073680	-0.716645	-0.304256
C30	C	0.963952	-0.716659	-0.304276
C31	C	0.909139	-0.648676	-0.371593
C32	C	1.518365	-0.789208	-0.506160
C33	C	1.518441	-0.907514	-0.506188
C34	C	1.588692	-0.976759	-0.436078
C35	C	1.614370	-1.047452	-0.531971
C36	C	1.492894	-1.047620	-0.410356
C37	C	1.544167	-0.976648	-0.602131
C38	C	1.422647	-0.976810	-0.480451
C39	C	1.448289	-1.047471	-0.576411
C40	C	1.792447	-0.512685	-0.506200
C41	C	1.909224	-0.512692	-0.506209
C42	C	1.518493	-0.512563	-0.780212
C43	C	1.518527	-0.512519	-0.896989
C44	C	1.518491	-0.235047	-0.506220
C45	C	1.518525	-0.116741	-0.506238
C46	C	1.652954	-0.376397	-0.897040
C47	C	1.720182	-0.308321	-0.951926
C48	C	1.720208	-0.308282	-1.061647
C49	C	1.652996	-0.376325	-1.116485
C50	C	1.585768	-0.444401	-1.061599
C51	C	1.585752	-0.444435	-0.951875
C52	C	1.451337	-0.580516	-1.061549
C53	C	1.451315	-0.580562	-0.951827
C54	C	1.384125	-0.648559	-1.116387
C55	C	1.316901	-0.716642	-1.061501
C56	C	1.316879	-0.716679	-0.951773
C57	C	1.384087	-0.648638	-0.896941
C58	C	1.518395	-0.512695	-0.233211
C59	C	1.518565	-0.512439	-0.116435
H60	H	1.118641	-0.253342	-0.762904
C61	C	1.133980	-0.791425	-0.230213
C62	C	1.254670	-0.791415	-0.230199
C63	C	1.314975	-0.866196	-0.156154
C64	C	1.254590	-0.940987	-0.082123
C65	C	1.133893	-0.941000	-0.082134
C66	C	1.073588	-0.866219	-0.156179
H67	H	1.299377	-0.736047	-0.285004
H68	H	1.404323	-0.866186	-0.156147
H69	H	1.299231	-0.996344	-0.027311
H70	H	1.089186	-0.996368	-0.027330
H71	H	0.984240	-0.866229	-0.156187
H72	H	1.384147	-0.648518	-1.205728
C73	C	1.668955	-0.934802	-0.356053
C74	C	1.785848	-0.962687	-0.368048
C75	C	1.866113	-0.920728	-0.288030
C76	C	1.829485	-0.850884	-0.196017
C77	C	1.712586	-0.822995	-0.184019
C78	C	1.632322	-0.864955	-0.264037
H79	H	1.812968	-1.014393	-0.436164
H80	H	1.952649	-0.941373	-0.296912
H81	H	1.888901	-0.819823	-0.136783
H82	H	1.685467	-0.771290	-0.115903
H83	H	1.545786	-0.844310	-0.255154
C84	C	1.313193	-0.934843	-0.450970
C85	C	1.251881	-0.864883	-0.528678
C86	C	1.142427	-0.822913	-0.499183
C87	C	1.094285	-0.850903	-0.391980
C88	C	1.155597	-0.920866	-0.314265
C89	C	1.265051	-0.962837	-0.343760
H90	H	1.287519	-0.844160	-0.608043
H91	H	1.097040	-0.771121	-0.556713
H92	H	1.013260	-0.819834	-0.370146
H93	H	1.119959	-0.941589	-0.234900
H94	H	1.310438	-1.014628	-0.286230
C95	C	0.903915	-0.233932	-0.782161
C96	C	0.783225	-0.233933	-0.782179
C97	C	0.722928	-0.159136	-0.856214
C98	C	0.783321	-0.084337	-0.930231
C99	C	0.904018	-0.084333	-0.930216
C100	C	0.964315	-0.159130	-0.856181
H101	H	0.738512	-0.289306	-0.727384
H102	H	0.633580	-0.159140	-0.856225
H103	H	0.738685	-0.028968	-0.985037
H104	H	0.948730	-0.028960	-0.985011
H105	H	1.053663	-0.159127	-0.856170
C106	C	1.723855	-1.089378	-0.561419
C107	C	1.784344	-1.160922	-0.484474
C108	C	1.893832	-1.202841	-0.513914
C109	C	1.942831	-1.173217	-0.620299
C110	C	1.882342	-1.101670	-0.697251
C111	C	1.772854	-1.059751	-0.667811
H112	H	1.748072	-1.182854	-0.405715
H113	H	1.938610	-1.255805	-0.456948
H114	H	2.023881	-1.204248	-0.642093
H115	H	1.918614	-1.079737	-0.776010
H116	H	1.728076	-1.006787	-0.724777
C117	C	1.794159	-0.233400	-1.122029
C118	C	1.868088	-0.158555	-1.061720
C119	C	1.942039	-0.083675	-1.122102
C120	C	1.942061	-0.083640	-1.242792
C121	C	1.868130	-0.158488	-1.303107
C122	C	1.794179	-0.233368	-1.242725
H123	H	1.868074	-0.158579	-0.972372
H124	H	1.996768	-0.028268	-1.077452
H125	H	1.996804	-0.028210	-1.287490
H126	H	1.868144	-0.158465	-1.392455
H127	H	1.739449	-0.288775	-1.287376
H128	H	0.919255	-0.772035	-0.249479
C129	C	1.242925	-0.791566	-0.891402
C130	C	1.169001	-0.866403	-0.951725
C131	C	1.095045	-0.941292	-0.891359
C132	C	1.095014	-0.941343	-0.770669
C133	C	1.168940	-0.866502	-0.710338
C134	C	1.242896	-0.791614	-0.770705
H135	H	1.169022	-0.866368	-1.041074
H136	H	1.040320	-0.996693	-0.936020
H137	H	1.040267	-0.996779	-0.725982
H138	H	1.168919	-0.866538	-0.620990
H139	H	1.297621	-0.736213	-0.726043
H140	H	1.471253	-1.078794	-0.329291
C141	C	1.573540	-0.934723	-0.711677
C142	C	1.578967	-0.814291	-0.731880
C143	C	1.608343	-0.772364	-0.841422
C144	C	1.632291	-0.850869	-0.930760
C145	C	1.626865	-0.971308	-0.910559
C146	C	1.597489	-1.013235	-0.801018
H147	H	1.561238	-0.756171	-0.665744
H148	H	1.612360	-0.683207	-0.856375
H149	H	1.654037	-0.819832	-1.011849
H150	H	1.644593	-1.029428	-0.976695
H151	H	1.593472	-1.102392	-0.786064
H152	H	1.388915	-1.078323	-0.635790
H153	H	1.652950	-0.376432	-0.807698
H154	H	0.819971	-0.376707	-0.640825
H155	H	1.218099	-0.376684	-0.640786
H156	H	1.217926	-0.648639	-0.371555
H157	H	0.819798	-0.648668	-0.371603
H158	H	1.653014	-0.376278	-1.205827
H159	H	1.774903	-0.252920	-0.907264
H160	H	1.262177	-0.772032	-1.106159
H161	H	1.384080	-0.648666	-0.807600
