data_functionalizedCrystal
_audit_creation_method	'MofGen! by Chris Wilmer'
_symmetry_space_group_name_H-M	'P1'
_symmetry_Int_Tables_number	1
_symmetry_cell_setting	triclinic
loop_
_symmetry_equiv_pos_as_xyz
  x,y,z
_cell_length_a	16.120530
_cell_length_b	29.839131
_cell_length_c	16.120297
_cell_angle_alpha	87.139604
_cell_angle_beta	89.871860
_cell_angle_gamma	87.130172
loop_
_atom_site_label
_atom_site_type_symbol
_atom_site_fract_x
_atom_site_fract_y
_atom_site_fract_z
Zn1	Zn	1.247358	-0.227599	0.534475
Zn2	Zn	1.254283	-0.299116	0.395389
Zn3	Zn	1.115351	-0.220008	0.388396
Zn4	Zn	1.108240	-0.298702	0.527358
O5	O	1.181308	-0.261356	0.461404
O6	O	1.364642	-0.240436	0.521930
O7	O	1.241728	-0.285618	0.278097
O8	O	1.132941	-0.158151	0.407825
O9	O	1.369730	-0.292979	0.419744
O10	O	1.229925	-0.163729	0.515149
O11	O	1.139655	-0.227498	0.272959
O12	O	0.998043	-0.227097	0.400925
O13	O	1.120820	-0.292274	0.644667
O14	O	0.992818	-0.284913	0.503020
O15	O	1.223030	-0.240035	0.649895
O16	O	1.234832	-0.361924	0.412843
O17	O	1.127535	-0.361621	0.509801
C18	C	0.965258	-0.255137	0.450442
C19	C	0.872830	-0.252487	0.445771
C20	C	0.703603	-0.247639	0.437252
C21	C	0.659851	-0.275108	0.485618
C22	C	0.565687	-0.272411	0.480877
C23	C	0.797775	-0.250336	0.441991
C24	C	1.181185	-0.378073	0.461328
C25	C	1.181207	-0.428008	0.461327
C26	C	1.231793	-0.740528	0.517363
C27	C	1.231881	-0.928204	0.517418
O28	O	1.274769	-0.954909	0.565003
N29	N	1.181445	-0.948805	0.461504
C30	C	1.130979	-0.922483	0.405576
O31	O	1.088076	-0.944311	0.358025
C32	C	1.130888	-0.734807	0.405526
C33	C	1.181333	-0.714209	0.461438
C34	C	1.282233	-0.719930	0.573271
C35	C	1.282214	-0.673013	0.573254
C36	C	1.231755	-0.646695	0.517329
C37	C	1.181314	-0.667293	0.461421
C38	C	1.080419	-0.708486	0.349603
C39	C	1.080399	-0.661564	0.349597
C40	C	1.130844	-0.640966	0.405509
C41	C	1.130836	-0.594058	0.405479
N42	N	1.181271	-0.573457	0.461392
C43	C	1.231731	-0.599776	0.517317
C44	C	1.131032	-1.021016	0.405605
C45	C	1.131056	-1.067934	0.405617
C46	C	1.231956	-1.073653	0.517459
C47	C	1.231936	-1.026733	0.517443
C48	C	1.181468	-1.000415	0.461519
C49	C	1.231688	-0.501248	0.517276
C50	C	1.231667	-0.454327	0.517252
C51	C	1.130763	-0.448613	0.405413
C52	C	1.130787	-0.495529	0.405434
C53	C	1.181252	-0.521846	0.461373
O54	O	1.087963	-0.567325	0.357924
O55	O	1.274614	-0.577939	0.564874
C56	C	1.231812	-0.787444	0.517380
C57	C	1.181371	-0.808042	0.461472
C58	C	1.130912	-0.781723	0.405547
C59	C	1.181395	-0.854961	0.461484
C60	C	1.231855	-0.881279	0.517409
C61	C	1.282291	-0.860679	0.573323
C62	C	1.282272	-0.813762	0.573305
C63	C	1.080476	-0.802324	0.349634
C64	C	1.080500	-0.849241	0.349655
C65	C	1.130960	-0.875559	0.405580
C66	C	1.398202	-0.267601	0.472411
C67	C	1.490629	-0.270262	0.477101
C68	C	1.170359	-0.266955	0.678296
C69	C	1.165693	-0.269341	0.770723
C70	C	1.181454	-0.144185	0.461501
C71	C	1.181516	-0.094253	0.461542
C72	C	1.192263	-0.255748	0.245359
C73	C	1.197090	-0.253240	0.152941
C74	C	1.157144	-0.273686	0.939946
C75	C	1.205637	-0.248896	0.983723
C76	C	1.200880	-0.251314	1.077885
C77	C	1.161900	-0.271269	0.845776
H78	H	0.693114	-0.300650	0.530586
C79	C	1.287165	-0.431673	0.578759
N80	N	1.328965	-0.414611	0.625086
C81	C	1.337712	-0.650362	0.634759
N82	N	1.379516	-0.633304	0.681087
C83	C	1.266556	-0.217775	0.938822
N84	N	1.312443	-0.194337	0.904999
H85	H	1.112060	-0.296724	0.973182
H86	H	0.670342	-0.222100	0.392288
H87	H	1.272775	-0.522670	0.562832
C88	C	1.337755	-0.748873	0.634792
N89	N	1.379585	-0.770670	0.681127
C90	C	1.287426	-1.004080	0.578953
N91	N	1.329222	-0.987021	0.625286
H92	H	1.273044	-1.095089	0.562995
C93	C	1.025002	-0.871892	0.288143
N94	N	0.983195	-0.888952	0.241820
H95	H	1.089988	-1.084701	0.360079
C96	C	1.075501	-0.992071	0.344088
N97	N	1.033672	-0.970273	0.297754
H98	H	1.039299	-0.640138	0.304058
C99	C	1.024918	-0.731132	0.288100
N100	N	0.983108	-0.748189	0.241775
H101	H	1.323380	-0.882116	0.618856
C102	C	1.075300	-0.518187	0.343924
N103	N	1.033500	-0.535250	0.297599
H104	H	1.089682	-0.427177	0.359877
H105	H	1.323349	-0.796995	0.618834
H106	H	1.039385	-0.780899	0.304094
