data_functionalizedCrystal
_audit_creation_method	'MofGen! by Chris Wilmer'
_symmetry_space_group_name_H-M	'P1'
_symmetry_Int_Tables_number	1
_symmetry_cell_setting	triclinic
loop_
_symmetry_equiv_pos_as_xyz
  x,y,z
_cell_length_a	15.538191
_cell_length_b	16.109301
_cell_length_c	14.586319
_cell_angle_alpha	90.000787
_cell_angle_beta	89.999456
_cell_angle_gamma	114.633213
loop_
_atom_site_label
_atom_site_type_symbol
_atom_site_fract_x
_atom_site_fract_y
_atom_site_fract_z
O1	O	0.121093	-1.066616	-0.076175
O2	O	0.136163	-0.820010	-0.076189
O3	O	-0.008516	-0.991317	-0.076184
O4	O	0.265773	-0.895309	-0.076180
O5	O	-0.008518	-0.991309	0.076297
O6	O	0.136161	-0.820002	0.076292
O7	O	0.121091	-1.066608	0.076306
Cu8	Cu	0.128626	-0.943304	0.090221
Cu9	Cu	0.128629	-0.943314	-0.090105
O10	O	0.265770	-0.895301	0.076300
C11	C	0.135552	-0.789215	0.000050
C12	C	0.133722	-0.697472	0.000044
C13	C	-0.043615	-1.001358	0.000054
C14	C	-0.148198	-1.031279	0.000047
N15	N	0.128624	-0.943304	0.217053
C16	C	-0.435898	-0.734025	0.000050
C17	C	-0.534172	-0.762161	0.000053
C18	C	-0.556664	-0.920419	0.000062
C19	C	-0.458389	-0.892297	0.000054
C20	C	-0.398013	-0.799099	0.000049
C21	C	-0.420505	-0.957370	0.000053
C22	C	-0.322239	-0.929249	0.000049
C23	C	-0.261857	-0.836055	0.000047
C24	C	-0.299747	-0.770978	0.000046
C25	C	-0.480882	-1.050568	0.000064
C26	C	-0.442998	-1.115641	0.000063
C27	C	-0.344730	-1.087520	0.000053
C28	C	-0.284349	-0.994326	0.000051
C29	C	-0.306840	-1.152598	0.000055
C30	C	-0.208574	-1.124477	0.000052
C31	C	-0.186083	-0.966206	0.000048
C32	C	0.300870	-0.885260	0.000060
C33	C	0.405453	-0.855340	0.000062
C34	C	0.121703	-1.097403	0.000065
C35	C	0.123533	-1.189147	0.000065
C36	C	0.215316	-0.450596	0.000056
C37	C	0.213589	-0.364396	0.000062
C38	C	0.041932	-0.436032	0.000056
C39	C	0.043660	-0.522229	0.000056
C40	C	0.130355	-0.529508	0.000052
C41	C	0.126900	-0.357111	0.000057
C42	C	0.125027	-0.263649	0.000063
C43	C	0.132228	-0.622975	0.000047
N44	N	0.128624	-0.943324	-0.216937
C45	C	0.064581	-1.019171	0.452062
C46	C	0.064579	-1.019174	0.548043
C47	C	0.192669	-0.867450	0.548048
C48	C	0.192666	-0.867445	0.452069
C49	C	0.128623	-0.943310	0.404078
C50	C	0.128624	-0.943318	0.596039
C51	C	0.128622	-0.943320	0.700106
C52	C	0.128624	-0.943307	0.300004
H53	H	-0.136921	-0.890314	0.000037
H54	H	-0.181843	-0.813161	0.000050
H55	H	0.012429	-1.080946	0.587109
C56	C	0.263121	-0.784005	0.600838
C57	C	0.263184	-0.784033	0.706412
C58	C	0.333641	-0.700587	0.759199
C59	C	0.404035	-0.617112	0.706412
C60	C	0.403975	-0.617081	0.600832
C61	C	0.333518	-0.700527	0.548045
H62	H	0.211072	-0.845828	0.745493
H63	H	0.333686	-0.700610	0.837356
H64	H	0.456192	-0.555340	0.745488
H65	H	0.456087	-0.555285	0.561751
H66	H	0.333474	-0.700503	0.469888
C67	C	-0.053428	-0.428021	0.000054
C68	C	-0.146885	-0.514826	0.000055
C69	C	-0.242248	-0.506819	0.000053
C70	C	-0.244154	-0.412007	0.000049
C71	C	-0.150694	-0.325196	0.000048
C72	C	-0.055331	-0.333203	0.000051
H73	H	-0.145477	-0.585018	0.000058
H74	H	-0.311433	-0.571083	0.000053
H75	H	-0.314747	-0.406080	0.000047
H76	H	-0.152102	-0.255004	0.000045
H77	H	0.013854	-0.268939	0.000050
C78	C	0.310677	-0.458604	0.000061
C79	C	0.404133	-0.371798	0.000072
C80	C	0.499497	-0.379803	0.000081
C81	C	0.501405	-0.474614	0.000079
C82	C	0.407946	-0.561427	0.000069
C83	C	0.312582	-0.553422	0.000060
H84	H	0.402723	-0.301608	0.000073
H85	H	0.568681	-0.315538	0.000089
H86	H	0.572000	-0.480539	0.000086
H87	H	0.409356	-0.631617	0.000068
H88	H	0.243398	-0.617687	0.000052
C89	C	-0.005871	-1.102616	0.399272
C90	C	-0.076320	-1.186058	0.452059
C91	C	-0.146777	-1.269505	0.399272
C92	C	-0.146785	-1.269508	0.293698
C93	C	-0.076334	-1.186062	0.240905
C94	C	-0.005877	-1.102616	0.293692
H95	H	-0.076316	-1.186059	0.530216
H96	H	-0.198929	-1.331277	0.438353
H97	H	-0.198941	-1.331280	0.254622
H98	H	-0.076337	-1.186062	0.162748
H99	H	0.046276	-1.040844	0.254611
H100	H	-0.250585	-0.695087	0.000035
H101	H	-0.560896	-1.073460	0.000059
H102	H	-0.025530	-0.586487	0.000056
H103	H	-0.386736	-0.658134	0.000039
H104	H	-0.565012	-0.709164	0.000068
H105	H	-0.605834	-0.996301	0.000070
H106	H	-0.356012	-1.228479	0.000068
H107	H	-0.492169	-1.191523	0.000071
H108	H	-0.177729	-1.177466	0.000052
H109	H	0.244817	-0.805665	0.412997
H110	H	0.282773	-0.300146	0.000067
