data_functionalizedCrystal
_audit_creation_method	'MofGen! by Chris Wilmer'
_symmetry_space_group_name_H-M	'P1'
_symmetry_Int_Tables_number	1
_symmetry_cell_setting	triclinic
loop_
_symmetry_equiv_pos_as_xyz
  x,y,z
_cell_length_a	13.034570
_cell_length_b	12.827893
_cell_length_c	12.827885
_cell_angle_alpha	89.980728
_cell_angle_beta	97.156460
_cell_angle_gamma	82.840105
loop_
_atom_site_label
_atom_site_type_symbol
_atom_site_fract_x
_atom_site_fract_y
_atom_site_fract_z
Zn1	Zn	-0.415898	1.650471	-0.643730
Zn2	Zn	-0.590640	1.672550	-0.491208
Zn3	Zn	-0.415949	1.475719	-0.469010
Zn4	Zn	-0.590562	1.497873	-0.665898
O5	O	-0.503262	1.574153	-0.567462
O6	O	-0.439089	1.799637	-0.623510
O7	O	-0.567521	1.646409	-0.342034
O8	O	-0.269736	1.480389	-0.473619
O9	O	-0.567471	1.815859	-0.511453
O10	O	-0.269699	1.608778	-0.601985
O11	O	-0.439176	1.501798	-0.325725
O12	O	-0.439101	1.332420	-0.495115
O13	O	-0.567339	1.518147	-0.809187
O14	O	-0.567388	1.348697	-0.639768
O15	O	-0.439014	1.630260	-0.792900
O16	O	-0.736836	1.667890	-0.532949
O17	O	-0.736779	1.539556	-0.661293
C18	C	-0.503242	1.302641	-0.567439
C19	C	-0.503259	1.186490	-0.567458
C20	C	-0.566839	1.142799	-0.638951
C21	C	-0.566857	1.022751	-0.638972
C22	C	-0.774717	1.608551	-0.601958
C23	C	-0.890846	1.623362	-0.616751
C24	C	-1.062744	1.581804	-0.575066
C25	C	-0.942718	1.566496	-0.559782
C26	C	-0.230748	1.539649	-0.532853
C27	C	-0.114618	1.524946	-0.518105
C28	C	-0.503162	1.574212	-0.840019
C29	C	-0.503119	1.574236	-0.956167
C30	C	-0.503283	1.846726	-0.567485
C31	C	-0.503292	1.962880	-0.567495
C32	C	-0.439608	1.629719	-0.999891
C33	C	-0.439562	1.629746	-1.119935
C34	C	-0.503287	1.574146	-0.295955
C35	C	-0.503035	1.574286	-0.179770
H36	H	-0.621293	0.985148	-0.700178
H37	H	-1.070173	1.464938	-0.458019
H38	H	-0.448860	1.000478	-0.506280
O39	O	-0.374878	1.686349	-0.938386
C40	C	-0.315833	1.737876	-0.762653
C41	C	-0.389210	1.673711	-0.832182
H42	H	-0.327380	1.727663	-0.676771
H43	H	-0.334167	1.824508	-0.786308
H44	H	-0.231567	1.708899	-0.773409
H45	H	-0.473500	1.702598	-0.821461
H46	H	-0.370786	1.587090	-0.808510
H47	H	-1.107191	1.641820	-0.635143
H48	H	-0.557453	1.526748	-1.007605
O49	O	-0.568064	1.517749	-1.134955
C50	C	-0.745765	1.489516	-1.123967
C51	C	-0.672239	1.553635	-1.174793
H52	H	-0.830005	1.518490	-1.156172
H53	H	-0.734334	1.499612	-1.035149
H54	H	-0.727374	1.402913	-1.143004
H55	H	-0.690585	1.640259	-1.155837
H56	H	-0.683684	1.543450	-1.263598
H57	H	-0.898276	1.506484	-0.499693
H58	H	-0.385191	1.677251	-1.157568
H59	H	-0.448835	1.135019	-0.506268
H60	H	-0.935288	1.683382	-0.676833
O61	O	-0.631731	1.204350	-0.711855
C62	C	-0.690804	1.380109	-0.778372
C63	C	-0.617275	1.310533	-0.695732
H64	H	-0.679127	1.465970	-0.765379
H65	H	-0.775075	1.369470	-0.770612
H66	H	-0.672592	1.356378	-0.860363
H67	H	-0.635393	1.334219	-0.613705
H68	H	-0.533027	1.321179	-0.703585
