data_functionalizedCrystal
_audit_creation_method	'MofGen! by Chris Wilmer'
_symmetry_space_group_name_H-M	'P1'
_symmetry_Int_Tables_number	1
_symmetry_cell_setting	triclinic
loop_
_symmetry_equiv_pos_as_xyz
  x,y,z
_cell_length_a	14.519709
_cell_length_b	10.540539
_cell_length_c	12.996460
_cell_angle_alpha	89.996006
_cell_angle_beta	90.000034
_cell_angle_gamma	84.102818
loop_
_atom_site_label
_atom_site_type_symbol
_atom_site_fract_x
_atom_site_fract_y
_atom_site_fract_z
O1	O	1.224765	0.166400	-0.085428
O2	O	0.956394	0.185995	-0.085459
O3	O	1.096702	-0.008571	-0.085441
O4	O	1.084457	0.360967	-0.085445
O5	O	1.096688	-0.008582	0.085693
O6	O	0.956379	0.185985	0.085675
O7	O	1.224751	0.166389	0.085706
Cu8	Cu	1.090563	0.176186	0.101316
Cu9	Cu	1.090581	0.176199	-0.101069
O10	O	1.084442	0.360956	0.085689
C11	C	0.922022	0.185077	0.000104
C12	C	0.819626	0.182340	0.000092
C13	C	0.444676	0.172265	0.000139
C14	C	0.548999	0.175063	0.000126
C15	C	0.632148	0.177303	0.000115
C16	C	0.736477	0.180101	0.000103
C17	C	1.095777	-0.055870	0.000124
C18	C	1.093029	-0.196790	0.000118
C19	C	0.987750	-0.379142	-0.000278
C20	C	0.990535	-0.232553	0.000107
C21	C	1.142346	-0.258958	0.097849
C22	C	1.138848	-0.405467	0.097931
C23	C	1.140949	-0.405994	-0.096680
C24	C	1.141893	-0.259021	-0.097972
C25	C	1.259123	0.167308	0.000141
C26	C	1.361519	0.170044	0.000146
C27	C	1.085368	0.408255	0.000121
C28	C	1.088115	0.549175	0.000120
N29	N	1.090558	0.176176	0.243664
N30	N	1.090594	0.176198	-0.243416
C31	C	1.090580	0.176200	0.663478
C32	C	1.090571	0.176198	0.546673
C33	C	1.090569	0.176189	0.453574
C34	C	1.090560	0.176185	0.336762
H35	H	0.951730	-0.189549	-0.069951
O36	O	1.239010	-0.469553	-0.097536
H37	H	1.288120	-0.395567	-0.095012
O38	O	1.242044	-0.230354	0.102692
H39	H	1.279238	-0.269165	0.033088
O40	O	1.096961	-0.202081	0.194184
H41	H	1.039289	-0.129556	0.172703
H42	H	1.107783	-0.437203	-0.170753
O43	O	1.094172	-0.204306	-0.193751
H44	H	1.035896	-0.133080	-0.171599
H45	H	1.216620	-0.235562	-0.103864
H46	H	0.947421	-0.408943	0.069405
O47	O	0.934117	-0.416497	-0.093102
H48	H	0.970467	-0.391370	-0.164232
O49	O	0.938778	-0.176704	0.093061
H50	H	0.911667	-0.254416	0.137917
H51	H	1.102388	-0.433299	0.170979
H52	H	1.212560	-0.454188	0.102373
