data_functionalizedCrystal
_audit_creation_method	'MofGen! by Chris Wilmer'
_symmetry_space_group_name_H-M	'P1'
_symmetry_Int_Tables_number	1
_symmetry_cell_setting	triclinic
loop_
_symmetry_equiv_pos_as_xyz
  x,y,z
_cell_length_a	6.817900
_cell_length_b	11.102288
_cell_length_c	16.305550
_cell_angle_alpha	93.871970
_cell_angle_beta	103.455250
_cell_angle_gamma	108.605689
loop_
_atom_site_label
_atom_site_type_symbol
_atom_site_fract_x
_atom_site_fract_y
_atom_site_fract_z
V1	V	-4.052585	-0.176912	-0.263031
O2	O	-4.012740	0.007398	-0.258024
O3	O	-4.029765	-0.349725	-0.261233
O4	O	-4.003658	-0.174675	-0.377749
O5	O	-4.039028	-0.168864	-0.140702
V6	V	-4.532967	-0.154809	-0.248400
O7	O	-4.320734	-0.225396	-0.295127
O8	O	-4.715015	-0.106325	-0.216304
O9	O	-4.332580	0.018004	-0.250199
O10	O	-4.690209	-0.339118	-0.253407
O11	O	-4.663921	-0.162856	-0.370729
O12	O	-4.358687	-0.157046	-0.133683
C13	C	-3.881006	-0.391838	-0.257083
C14	C	-3.943632	-0.533118	-0.256377
C15	C	-4.156118	-0.605982	-0.260254
C16	C	-4.214953	-0.738730	-0.259597
C17	C	-3.848792	-0.725738	-0.251183
C18	C	-3.789964	-0.592993	-0.251846
C19	C	-3.847703	-0.168542	-0.405710
C20	C	-3.889152	-0.167857	-0.499492
C21	C	-4.039844	-0.165201	-0.840237
C22	C	-3.802622	-0.157315	-0.799308
C23	C	-3.759612	-0.158554	-0.701814
C24	C	-3.965082	-0.166518	-0.671189
C25	C	-4.150803	-0.292033	-0.721816
C26	C	-4.192561	-0.291323	-0.819365
C27	C	-4.077235	-0.048574	-0.794394
C28	C	-4.029158	-0.047581	-0.696551
C29	C	-3.922844	-0.167267	-0.575651
C30	C	-4.082092	-0.164460	-0.935776
C31	C	-4.144682	0.060110	-0.254346
C32	C	-4.061295	0.201389	-0.255057
C33	C	-4.177985	-0.163182	-0.105717
C34	C	-4.115773	-0.163861	-0.011935
H35	H	-3.723689	-0.774504	-0.247491
H36	H	-3.682983	-0.066643	-0.811672
O37	O	-3.583425	-0.522385	-0.248035
C38	C	-3.460415	-0.603698	-0.243908
H39	H	-3.541123	-0.693815	-0.217834
H40	H	-3.448104	-0.632067	-0.310538
C41	C	-3.134524	-0.421778	-0.216636
C42	C	-3.233642	-0.532457	-0.184605
H43	H	-2.994636	-0.377833	-0.180059
H44	H	-3.217397	-0.366995	-0.219420
H45	H	-3.124285	-0.445435	-0.272161
H46	H	-3.243903	-0.508797	-0.129087
H47	H	-3.150764	-0.587234	-0.181811
H48	H	-4.387975	-0.798051	-0.262756
O49	O	-3.868360	0.063139	-0.655408
C50	C	-3.832040	0.065404	-0.566493
H51	H	-3.982709	-0.000462	-0.552189
H52	H	-3.692179	0.030710	-0.541321
C53	C	-3.592713	0.284616	-0.540260
C54	C	-3.777774	0.203727	-0.522692
H55	H	-3.559229	0.369940	-0.513240
H56	H	-3.617175	0.283090	-0.600164
H57	H	-3.476184	0.255689	-0.519283
H58	H	-3.894304	0.232646	-0.543678
H59	H	-3.753330	0.205262	-0.462790
O60	O	-4.305261	-0.547704	-0.264774
C61	C	-4.322953	-0.488875	-0.338822
H62	H	-4.168760	-0.469190	-0.359738
H63	H	-4.464482	-0.555526	-0.392043
C64	C	-4.548770	-0.385350	-0.293871
C65	C	-4.359379	-0.361162	-0.319556
H66	H	-4.571249	-0.306573	-0.281989
H67	H	-4.536859	-0.424987	-0.243985
H68	H	-4.666689	-0.440895	-0.338227
H69	H	-4.241462	-0.305631	-0.275197
H70	H	-4.371272	-0.321512	-0.369435
H71	H	-3.619679	-0.068308	-0.666790
H72	H	-4.305502	-0.302400	-0.702903
H73	H	-3.770006	-0.241106	-0.830821
O74	O	-3.695801	-0.259820	-0.682434
C75	C	-3.858626	-0.375325	-0.726405
H76	H	-4.019638	-0.359601	-0.743366
H77	H	-3.821088	-0.406346	-0.787340
C78	C	-3.671940	-0.500146	-0.648379
C79	C	-3.869700	-0.480836	-0.669205
H80	H	-3.678766	-0.565233	-0.613098
H81	H	-3.562236	-0.422329	-0.618756
H82	H	-3.640679	-0.525990	-0.699164
H83	H	-3.900944	-0.454977	-0.618421
H84	H	-3.979410	-0.558652	-0.698817
H85	H	-4.169561	-0.379613	-0.849747
H86	H	-4.368036	-0.302331	-0.847357
H87	H	-3.971674	0.046528	-0.807761
H88	H	-4.176213	-0.046019	-0.675203
H89	H	-4.249994	-0.053235	-0.821209
O90	O	-4.100750	-0.397535	-0.701831
C91	C	-4.269182	-0.509427	-0.747861
H92	H	-4.424571	-0.487532	-0.766993
H93	H	-4.229114	-0.542663	-0.807614
C94	C	-4.106535	-0.643224	-0.668083
C95	C	-4.297391	-0.616335	-0.691574
H96	H	-4.123932	-0.709173	-0.633365
H97	H	-3.993055	-0.567841	-0.637073
H98	H	-4.073166	-0.670914	-0.717883
H99	H	-4.330742	-0.588631	-0.641775
H100	H	-4.410878	-0.691716	-0.722574
