data_functionalizedCrystal
_audit_creation_method	'MofGen! by Chris Wilmer'
_symmetry_space_group_name_H-M	'P1'
_symmetry_Int_Tables_number	1
_symmetry_cell_setting	triclinic
loop_
_symmetry_equiv_pos_as_xyz
  x,y,z
_cell_length_a	23.532407
_cell_length_b	27.731996
_cell_length_c	22.610064
_cell_angle_alpha	89.998076
_cell_angle_beta	89.997161
_cell_angle_gamma	82.735033
loop_
_atom_site_label
_atom_site_type_symbol
_atom_site_fract_x
_atom_site_fract_y
_atom_site_fract_z
O1	O	0.755125	0.058674	-0.049118
O2	O	1.255125	0.558674	0.450882
O3	O	0.589242	0.067164	-0.049137
O4	O	1.089242	0.567164	0.450863
O5	O	0.677351	-0.007472	-0.049114
O6	O	1.177351	0.492528	0.450886
O7	O	0.667016	0.133309	-0.049141
O8	O	1.167016	0.633309	0.450859
O9	O	0.677335	-0.007461	0.049255
O10	O	1.177335	0.492539	0.549255
O11	O	0.589226	0.067175	0.049232
O12	O	1.089226	0.567175	0.549232
O13	O	0.755110	0.058684	0.049251
O14	O	1.255110	0.558684	0.549251
Zn15	Zn	0.672166	0.062931	0.064860
Zn16	Zn	1.172166	0.562931	0.564860
Zn17	Zn	0.672186	0.062917	-0.064746
Zn18	Zn	1.172186	0.562917	0.435254
O19	O	0.667001	0.133320	0.049228
O20	O	1.167001	0.633320	0.549228
C21	C	0.568019	0.066953	0.000046
C22	C	1.068019	0.566953	0.500046
C23	C	0.504803	0.066303	0.000039
C24	C	1.004803	0.566303	0.500039
C25	C	0.105606	0.106394	0.000058
C26	C	0.605606	0.606394	0.500058
C27	C	0.046207	0.105790	0.000062
C28	C	0.546207	0.605790	0.500062
O29	O	0.009375	0.142955	0.000077
O30	O	0.509375	0.642955	0.500077
N31	N	0.023685	0.061419	0.000070
N32	N	0.523685	0.561419	0.500070
C33	C	0.060566	0.017649	0.000079
C34	C	0.560566	0.517649	0.500079
O35	O	0.035955	-0.020147	0.000086
O36	O	0.535955	0.479853	0.500086
C37	C	0.119963	0.018253	0.000080
C38	C	0.619963	0.518253	0.500080
C39	C	0.142482	0.062627	0.000066
C40	C	0.642482	0.562627	0.500066
C41	C	0.128124	0.150764	0.000046
C42	C	0.628124	0.650764	0.500046
C43	C	0.187519	0.151368	0.000041
C44	C	0.687519	0.651368	0.500041
C45	C	0.224395	0.107601	0.000049
C46	C	0.724395	0.607601	0.500049
C47	C	0.201876	0.063231	0.000061
C48	C	0.701876	0.563231	0.500061
C49	C	0.156843	-0.025516	0.000094
C50	C	0.656843	0.474484	0.500094
C51	C	0.216244	-0.024908	0.000095
C52	C	0.716244	0.475092	0.500095
C53	C	0.238762	0.019466	0.000081
C54	C	0.738762	0.519466	0.500081
C55	C	0.298147	0.020068	0.000065
C56	C	0.798147	0.520068	0.500065
N57	N	0.320669	0.064439	0.000057
N58	N	0.820669	0.564439	0.500057
C59	C	0.283793	0.108206	0.000049
C60	C	0.783793	0.608206	0.500049
C61	C	-0.064174	0.016383	0.000079
C62	C	0.435826	0.516383	0.500079
C63	C	-0.123570	0.015778	0.000075
C64	C	0.376430	0.515778	0.500075
C65	C	-0.137925	0.103920	0.000058
C66	C	0.362075	0.603920	0.500058
C67	C	-0.078528	0.104524	0.000059
C68	C	0.421472	0.604524	0.500059
C69	C	-0.041652	0.060754	0.000072
C70	C	0.458348	0.560754	0.500072
C71	C	0.408526	0.109470	0.000039
C72	C	0.908526	0.609470	0.500039
C73	C	0.467927	0.110070	0.000031
C74	C	0.967927	0.610070	0.500031
C75	C	0.482277	0.021929	0.000050
C76	C	0.982277	0.521929	0.500050
C77	C	0.422881	0.021329	0.000055
C78	C	0.922881	0.521329	0.500055
C79	C	0.386007	0.065103	0.000051
C80	C	0.886007	0.565103	0.500051
O81	O	0.335014	-0.017077	0.000053
O82	O	0.835014	0.482923	0.500053
O83	O	0.308412	0.145996	0.000050
O84	O	0.808412	0.645996	0.500050
C85	C	0.677131	-0.025474	0.000072
C86	C	1.177131	0.474526	0.500072
C87	C	0.676491	-0.079131	0.000078
C88	C	1.176491	0.420869	0.500078
C89	C	0.672477	-0.411860	-0.053572
C90	C	1.172477	0.088140	0.446428
C91	C	0.670048	-0.613522	-0.053583
C92	C	1.170048	-0.113522	0.446417
O93	O	0.669717	-0.639598	-0.099186
O94	O	1.169717	-0.139598	0.400814
N95	N	0.669738	-0.638733	0.000038
N96	N	1.169738	-0.138733	0.500038
C97	C	0.670032	-0.613526	0.053665
C98	C	1.170032	-0.113526	0.553665
O99	O	0.669706	-0.639597	0.099272
O100	O	1.169706	-0.139597	0.599272
C101	C	0.672456	-0.411864	0.053675
C102	C	1.172456	0.088136	0.553675
C103	C	0.672772	-0.386656	0.000051
C104	C	1.172772	0.113344	0.500051
C105	C	0.672792	-0.386651	-0.107192
C106	C	1.172792	0.113349	0.392808
C107	C	0.673402	-0.336239	-0.107188
C108	C	1.173402	0.163761	0.392812
C109	C	0.673697	-0.311036	-0.053566
C110	C	1.173697	0.188964	0.446434
C111	C	0.673382	-0.336244	0.000054
C112	C	1.173382	0.163756	0.500054
C113	C	0.672745	-0.386658	0.107301
C114	C	1.172745	0.113342	0.607301
C115	C	0.673350	-0.336239	0.107299
C116	C	1.173350	0.163761	0.607299
C117	C	0.673665	-0.311030	0.053675
C118	C	1.173665	0.188970	0.553675
C119	C	0.674287	-0.260628	0.053680
C120	C	1.174287	0.239372	0.553680
N121	N	0.674597	-0.235417	0.000060
N122	N	1.174597	0.264583	0.500060
C123	C	0.674302	-0.260620	-0.053563
C124	C	1.174302	0.239380	0.446437
C125	C	0.668760	-0.719401	0.053656
C126	C	1.168760	-0.219401	0.553656
C127	C	0.668155	-0.769817	0.053653
C128	C	1.168155	-0.269817	0.553653
C129	C	0.668171	-0.769809	-0.053594
C130	C	1.168171	-0.269809	0.446406
C131	C	0.668780	-0.719393	-0.053591
C132	C	1.168780	-0.219393	0.446409
C133	C	0.669070	-0.694190	0.000035
C134	C	1.169070	-0.194190	0.500035
C135	C	0.675584	-0.154751	-0.053552
C136	C	1.175584	0.345249	0.446448
C137	C	0.676197	-0.104335	-0.053545
C138	C	1.176197	0.395665	0.446455
C139	C	0.676178	-0.104347	0.053703
C140	C	1.176178	0.395653	0.553703
C141	C	0.675568	-0.154759	0.053695
C142	C	1.175568	0.345241	0.553695
C143	C	0.675269	-0.179960	0.000063
C144	C	1.175269	0.320040	0.500063
O145	O	0.674612	-0.234520	0.099259
O146	O	1.174612	0.265480	0.599259
O147	O	0.674615	-0.234539	-0.099164
O148	O	1.174615	0.265461	0.400836
C149	C	0.671867	-0.462272	-0.053575
C150	C	1.171867	0.037728	0.446425
C151	C	0.671551	-0.487480	0.000044
C152	C	1.171551	0.012520	0.500044
C153	C	0.671846	-0.462277	0.053667
C154	C	1.171846	0.037723	0.553667
C155	C	0.670946	-0.537896	0.000042
C156	C	1.170946	-0.037896	0.500042
C157	C	0.670651	-0.563099	-0.053581
C158	C	1.170651	-0.063099	0.446419
C159	C	0.670961	-0.537888	-0.107201
C160	C	1.170961	-0.037888	0.392799
C161	C	0.671572	-0.487475	-0.107198
C162	C	1.171572	0.012525	0.392802
C163	C	0.671536	-0.487488	0.107288
C164	C	1.171536	0.012512	0.607288
C165	C	0.670927	-0.537901	0.107280
C166	C	1.170927	-0.037901	0.607280
C167	C	0.670632	-0.563104	0.053657
C168	C	1.170632	-0.063104	0.553657
C169	C	0.776333	0.058895	0.000067
C170	C	1.276333	0.558895	0.500067
C171	C	0.839549	0.059545	0.000070
C172	C	1.339549	0.559545	0.500070
C173	C	0.667221	0.151323	0.000040
C174	C	1.167221	0.651323	0.500040
C175	C	0.667860	0.204980	0.000031
C176	C	1.167860	0.704980	0.500031
N177	N	0.672156	0.062941	0.153312
N178	N	1.172156	0.562941	0.653312
N179	N	0.672200	0.062904	-0.153198
N180	N	1.172200	0.562904	0.346802
C181	C	0.711202	0.029873	0.561964
C182	C	1.211202	0.529873	1.061964
C183	C	0.711205	0.029870	0.623884
C184	C	1.211205	0.529870	1.123884
O185	O	0.744380	0.001762	0.655911
O186	O	1.244380	0.501762	1.155911
N187	N	0.672186	0.062907	0.654849
N188	N	1.172186	0.562907	1.154849
C189	C	0.633157	0.095947	0.623892
C190	C	1.133157	0.595947	1.123892
O191	O	0.599967	0.124047	0.655917
O192	O	1.099967	0.624047	1.155917
C193	C	0.633151	0.095947	0.561973
C194	C	1.133151	0.595947	1.061973
C195	C	0.672178	0.062911	0.531011
C196	C	1.172178	0.562911	1.031011
C197	C	0.750225	-0.003160	0.531001
C198	C	1.250225	0.496840	1.031001
C199	C	0.750223	-0.003156	0.469085
C200	C	1.250223	0.496844	0.969085
C201	C	0.711198	0.029882	0.438132
C202	C	1.211198	0.529882	0.938132
C203	C	0.672175	0.062916	0.469095
C204	C	1.172175	0.562916	0.969095
C205	C	0.594120	0.128984	0.531017
C206	C	1.094120	0.628984	1.031017
C207	C	0.594118	0.128982	0.469094
C208	C	1.094118	0.628982	0.969094
C209	C	0.633144	0.095946	0.438132
C210	C	1.133144	0.595946	0.938132
C211	C	0.633148	0.095958	0.376227
C212	C	1.133148	0.595958	0.876227
N213	N	0.672168	0.062921	0.345261
N214	N	1.172168	0.562921	0.845261
C215	C	0.711193	0.029883	0.376214
C216	C	1.211193	0.529883	0.876214
C217	C	0.633170	0.095942	0.753926
C218	C	1.133170	0.595942	1.253926
C219	C	0.633177	0.095944	0.815843
C220	C	1.133177	0.595944	1.315843
C221	C	0.711225	0.029866	0.815831
C222	C	1.211225	0.529866	1.315831
C223	C	0.711220	0.029867	0.753912
C224	C	1.211220	0.529867	1.253912
C225	C	0.672190	0.062905	0.722960
C226	C	1.172190	0.562905	1.222960
C227	C	0.711185	0.029894	0.246186
C228	C	1.211185	0.529894	0.746186
C229	C	0.711181	0.029903	0.184265
C230	C	1.211181	0.529903	0.684265
C231	C	0.633131	0.095978	0.184283
C232	C	1.133131	0.595978	0.684283
C233	C	0.633137	0.095972	0.246199
C234	C	1.133137	0.595972	0.746199
C235	C	0.672166	0.062926	0.277149
C236	C	1.172166	0.562926	0.777149
O237	O	0.599989	0.124050	0.344160
O238	O	1.099989	0.624050	0.844160
O239	O	0.744371	0.001783	0.344182
O240	O	1.244371	0.501783	0.844182
H241	H	-0.167961	0.139557	0.000055
H242	H	0.332039	0.639557	0.500055
F243	F	0.591606	0.131138	0.279151
F244	F	1.091606	0.631138	0.779151
H245	H	0.378510	0.145116	0.000037
H246	H	0.878510	0.645116	0.500037
H247	H	0.742965	0.002985	0.271379
H248	H	1.242965	0.502985	0.771379
H249	H	0.512312	-0.013705	0.000055
H250	H	1.012312	0.486295	0.500055
H251	H	0.670724	-0.558417	-0.150863
H252	H	1.170724	-0.058417	0.349137
F253	F	0.670594	-0.564724	0.164358
F254	F	1.170594	-0.064724	0.664358
F255	F	0.752756	-0.005295	0.720965
F256	F	1.252756	0.494705	1.220965
F257	F	0.671846	-0.460671	0.164364
F258	F	1.171846	0.039329	0.664364
H259	H	0.675316	-0.175285	0.097360
H260	H	1.175316	0.324715	0.597360
F261	F	-0.147529	-0.031450	0.000075
F262	F	0.352471	0.468550	0.500075
H263	H	0.781999	-0.030058	0.443879
H264	H	1.281999	0.469942	0.943879
H265	H	0.246266	-0.060551	0.000106
H266	H	0.746266	0.439449	0.500106
H267	H	0.676455	-0.083813	-0.097214
H268	H	1.176455	0.416187	0.402786
F269	F	0.669066	-0.692584	0.110736
F270	F	1.169066	-0.192584	0.610736
F271	F	0.791763	-0.038328	0.563935
F272	F	1.291763	0.461672	1.063935
F273	F	0.211477	0.198597	0.000029
F274	F	0.711477	0.698597	0.500029
H275	H	0.742962	0.003001	0.159057
H276	H	1.242962	0.503001	0.659057
H277	H	0.672550	-0.407166	-0.150860
H278	H	1.172550	0.092834	0.349140
F279	F	0.752758	-0.005297	0.848785
F280	F	1.252758	0.494703	1.348785
H281	H	0.601405	0.122850	0.841049
H282	H	1.101405	0.622850	1.341049
H283	H	0.601388	0.122849	0.728728
H284	H	1.101388	0.622849	1.228728
F285	F	-0.024932	-0.030206	0.000087
F286	F	0.475068	0.469794	0.500087
F287	F	0.672406	-0.413475	0.164376
F288	F	1.172406	0.086525	0.664376
H289	H	0.404547	-0.014804	0.000057
H290	H	0.904547	0.485196	0.500057
F291	F	0.669115	-0.692569	-0.110665
F292	F	1.169115	-0.192569	0.389335
H293	H	0.138520	-0.061650	0.000105
H294	H	0.638520	0.438350	0.500105
F295	F	0.667829	-0.796641	0.110727
F296	F	1.167829	-0.296641	0.610727
F297	F	0.671907	-0.460653	-0.164273
F298	F	1.171907	0.039347	0.335727
H299	H	0.562341	0.155885	0.556218
H300	H	1.062341	0.655885	1.056218
F301	F	0.675266	-0.181565	-0.110634
F302	F	1.175266	0.318435	0.389366
H303	H	0.562333	0.155885	0.443896
H304	H	1.062333	0.655885	0.943896
F305	F	0.591600	0.131140	0.151332
F306	F	1.091600	0.631140	0.651332
H307	H	0.673577	-0.315720	0.150969
H308	H	1.173577	0.184280	0.650969
H309	H	0.486258	0.146206	0.000020
H310	H	0.986258	0.646206	0.500020
H311	H	0.098105	0.186406	0.000041
H312	H	0.598105	0.686406	0.500041
F313	F	0.667855	-0.796641	-0.110664
F314	F	1.167855	-0.296641	0.389336
F315	F	-0.054568	0.151752	0.000046
F316	F	0.445432	0.651752	0.500046
H317	H	0.676420	-0.083817	0.097361
H318	H	1.176420	0.416183	0.597361
F319	F	0.673734	-0.309416	-0.164263
F320	F	1.173734	0.190584	0.335737
