data_functionalizedCrystal
_audit_creation_method	'MofGen! by Chris Wilmer'
_symmetry_space_group_name_H-M	'P1'
_symmetry_Int_Tables_number	1
_symmetry_cell_setting	triclinic
loop_
_symmetry_equiv_pos_as_xyz
  x,y,z
_cell_length_a	17.077404
_cell_length_b	18.101395
_cell_length_c	17.077404
_cell_angle_alpha	90.011303
_cell_angle_beta	90.005946
_cell_angle_gamma	90.031329
loop_
_atom_site_label
_atom_site_type_symbol
_atom_site_fract_x
_atom_site_fract_y
_atom_site_fract_z
Zn1	Zn	1.199905	-0.294943	0.443848
Zn2	Zn	1.199824	-0.418757	0.312584
Zn3	Zn	1.068668	-0.294934	0.312596
Zn4	Zn	1.068586	-0.418748	0.443808
O5	O	1.134246	-0.356846	0.378209
O6	O	1.309741	-0.311375	0.426447
O7	O	1.182426	-0.402332	0.202739
O8	O	1.086145	-0.191303	0.330028
O9	O	1.309682	-0.402340	0.330009
O10	O	1.182564	-0.191309	0.426459
O11	O	1.086066	-0.311360	0.202748
O12	O	0.958810	-0.311351	0.329990
O13	O	1.086005	-0.402325	0.553660
O14	O	0.958750	-0.402316	0.426390
O15	O	1.182484	-0.311366	0.553690
O16	O	1.182347	-0.522389	0.329970
O17	O	1.085927	-0.522382	0.426379
C18	C	0.930298	-0.356832	0.378187
C19	C	0.843048	-0.356844	0.378197
C20	C	0.802047	-0.404281	0.428312
C21	C	0.720066	-0.404283	0.428325
C22	C	0.679088	-0.356851	0.378217
C23	C	0.720095	-0.309408	0.328100
C24	C	0.802074	-0.309404	0.328092
C25	C	0.549225	-0.309423	0.328119
C26	C	0.467240	-0.309429	0.328125
C27	C	0.467217	-0.404302	0.428352
C28	C	0.549196	-0.404298	0.428344
C29	C	0.590197	-0.356856	0.378225
C30	C	1.134141	-0.549256	0.378186
C31	C	1.134167	-0.631570	0.378202
C32	C	1.134340	-0.930661	0.378245
C33	C	1.073815	-0.899363	0.439053
C34	C	1.073528	-0.813745	0.438863
C35	C	1.134254	-0.782279	0.378224
C36	C	1.111877	-0.813408	0.295495
C37	C	1.111487	-0.899054	0.295859
C38	C	1.217374	-0.899010	0.399437
C39	C	1.216885	-0.813360	0.401251
C40	C	1.134207	-0.698419	0.378208
C41	C	1.134385	-1.014521	0.378256
C42	C	1.338990	-0.356860	0.378231
C43	C	1.426240	-0.356866	0.378241
C44	C	1.134245	-0.356846	0.582953
C45	C	1.134244	-0.356846	0.670203
C46	C	1.134372	-0.163684	0.378249
C47	C	1.134426	-0.081370	0.378267
C48	C	1.084077	-0.309482	0.711197
C49	C	1.084073	-0.309489	0.793178
C50	C	1.134242	-0.356855	0.834162
C51	C	1.184412	-0.404223	0.793163
C52	C	1.184410	-0.404220	0.711184
C53	C	1.184412	-0.404225	0.964033
C54	C	1.184414	-0.404227	1.046017
C55	C	1.084075	-0.309493	1.046026
C56	C	1.084074	-0.309490	0.964048
C57	C	1.134245	-0.356858	0.923053
C58	C	1.134242	-0.356863	1.174261
C59	C	1.134247	-0.356864	1.087011
H60	H	0.835405	-0.442909	0.469113
C61	C	1.028887	-0.257383	0.918966
N62	N	0.987317	-0.218138	0.885010
H63	H	1.087674	-0.919927	0.500595
C64	C	1.239601	-0.456334	0.918941
N65	N	1.281171	-0.495580	0.884978
H66	H	1.225266	-0.442797	1.079385
H67	H	1.043225	-0.270924	1.079408
C68	C	0.991169	-0.928510	0.420322
N69	N	0.928920	-0.950462	0.406209
H70	H	1.225256	-0.442793	0.826539
C71	C	0.422166	-0.257248	0.273008
N72	N	0.388216	-0.217944	0.231493
C73	C	0.990366	-0.786146	0.419956
N74	N	0.927721	-0.765359	0.405734
C75	C	1.029486	-0.926127	0.271612
N76	N	0.967720	-0.946514	0.253351
H77	H	1.153659	-0.919758	0.249007
H78	H	0.835456	-0.270772	0.287287
H79	H	1.225268	-0.442783	0.677808
C80	C	1.028886	-0.257375	0.666121
N81	N	0.987312	-0.218128	0.632172
H82	H	1.051823	-0.792019	0.277221
C83	C	0.674969	-0.456482	0.483441
N84	N	0.641002	-0.495805	0.524951
H85	H	0.582559	-0.442925	0.469141
C86	C	1.092436	-0.785308	0.521736
N87	N	1.106674	-0.763893	0.584160
H88	H	1.154574	-0.793026	0.248952
C89	C	1.244938	-0.928137	0.479550
N90	N	1.265691	-0.950074	0.539894
H91	H	1.233761	-0.793013	0.462136
H92	H	1.264363	-0.791936	0.360190
H93	H	0.582606	-0.270785	0.287313
H94	H	0.433831	-0.442929	0.469162
C95	C	0.675016	-0.257231	0.272983
N96	N	0.641064	-0.217931	0.231466
H97	H	1.262467	-0.919248	0.355148
H98	H	1.043219	-0.270923	0.826551
