data_functionalizedCrystal
_audit_creation_method	'MofGen! by Chris Wilmer'
_symmetry_space_group_name_H-M	'P1'
_symmetry_Int_Tables_number	1
_symmetry_cell_setting	triclinic
loop_
_symmetry_equiv_pos_as_xyz
  x,y,z
_cell_length_a	27.732048
_cell_length_b	15.995350
_cell_length_c	14.472310
_cell_angle_alpha	89.998838
_cell_angle_beta	90.007492
_cell_angle_gamma	83.067515
loop_
_atom_site_label
_atom_site_type_symbol
_atom_site_fract_x
_atom_site_fract_y
_atom_site_fract_z
O1	O	-0.641363	-0.099622	-0.076718
O2	O	-0.141363	0.400378	0.423282
O3	O	-0.500635	-0.114770	-0.076745
O4	O	-0.000635	0.385230	0.423255
O5	O	-0.574846	0.014741	-0.076730
O6	O	-0.074846	0.514741	0.423270
O7	O	-0.567152	-0.229134	-0.076733
O8	O	-0.067152	0.270866	0.423267
O9	O	-0.574827	0.014733	0.076952
O10	O	-0.074827	0.514733	0.576952
O11	O	-0.500616	-0.114778	0.076937
O12	O	-0.000616	0.385222	0.576937
O13	O	-0.641344	-0.099630	0.076964
O14	O	-0.141344	0.400370	0.576964
Cu15	Cu	-0.570978	-0.107205	0.090983
Cu16	Cu	-0.070978	0.392795	0.590983
Cu17	Cu	-0.571001	-0.107196	-0.090764
Cu18	Cu	-0.071001	0.392804	0.409236
O19	O	-0.567133	-0.229141	0.076949
O20	O	-0.067133	0.270859	0.576949
C21	C	-0.482617	-0.114456	0.000092
C22	C	0.017383	0.385544	0.500092
C23	C	-0.428958	-0.113499	0.000082
C24	C	0.071042	0.386501	0.500082
N25	N	-0.570966	-0.107210	0.218814
N26	N	-0.070966	0.392790	0.718814
C27	C	-0.659362	-0.099944	0.000125
C28	C	-0.159362	0.400056	0.500125
C29	C	-0.713021	-0.100901	0.000129
C30	C	-0.213021	0.399099	0.500129
C31	C	-0.090447	-0.184004	0.000121
C32	C	0.409553	0.315996	0.500121
C33	C	0.111228	-0.180451	0.000129
C34	C	0.611228	0.319549	0.500129
O35	O	0.142205	-0.244923	0.000168
O36	O	0.642205	0.255077	0.500168
N37	N	0.130683	-0.103656	0.000128
N38	N	0.630683	0.396344	0.500128
C39	C	0.099715	-0.027744	0.000132
C40	C	0.599715	0.472256	0.500132
O41	O	0.120891	0.037657	0.000141
O42	O	0.620891	0.537657	0.500141
C43	C	-0.101958	-0.031297	0.000130
C44	C	0.398042	0.468703	0.500130
C45	C	-0.121410	-0.108097	0.000121
C46	C	0.378590	0.391903	0.500121
C47	C	-0.109900	-0.260797	0.000113
C48	C	0.390100	0.239203	0.500113
C49	C	-0.160315	-0.261685	0.000106
C50	C	0.339685	0.238315	0.500106
C51	C	-0.191279	-0.185778	0.000107
C52	C	0.308721	0.314222	0.500107
C53	C	-0.171826	-0.108985	0.000114
C54	C	0.328174	0.391015	0.500114
C55	C	-0.132925	0.044614	0.000140
C56	C	0.367075	0.544614	0.500140
C57	C	-0.183346	0.043719	0.000142
C58	C	0.316654	0.543719	0.500142
C59	C	-0.202798	-0.033081	0.000133
C60	C	0.297202	0.466919	0.500133
C61	C	-0.253205	-0.033965	0.000108
C62	C	0.246795	0.466035	0.500108
N63	N	-0.272660	-0.110761	0.000108
N64	N	0.227340	0.389239	0.500108
C65	C	-0.241697	-0.186667	0.000108
C66	C	0.258303	0.313333	0.500108
C67	C	0.205598	-0.025883	0.000131
C68	C	0.705598	0.474117	0.500131
C69	C	0.256016	-0.024995	0.000130
C70	C	0.756016	0.475005	0.500130
C71	C	0.267525	-0.177703	0.000129
C72	C	0.767525	0.322297	0.500129
C73	C	0.217106	-0.178590	0.000123
C74	C	0.717106	0.321410	0.500123
C75	C	0.186143	-0.102679	0.000132
C76	C	0.686143	0.397321	0.500132
C77	C	-0.347574	-0.188525	0.000092
C78	C	0.152426	0.311475	0.500092
C79	C	-0.397995	-0.189405	0.000081
C80	C	0.102005	0.310595	0.500081
C81	C	-0.409499	-0.036698	0.000087
C82	C	0.090501	0.463302	0.500087
C83	C	-0.359083	-0.035817	0.000093
C84	C	0.140917	0.464183	0.500093
C85	C	-0.328121	-0.111737	0.000099
C86	C	0.171879	0.388263	0.500099
O87	O	-0.284211	0.030472	0.000079
O88	O	0.215789	0.530472	0.500079
O89	O	-0.262881	-0.252058	0.000119
O90	O	0.237119	0.247942	0.500119
C91	C	-0.040031	-0.183116	0.000128
C92	C	0.459969	0.316884	0.500128
C93	C	-0.020579	-0.106323	0.000136
C94	C	0.479421	0.393677	0.500136
C95	C	-0.051542	-0.030416	0.000136
C96	C	0.448458	0.469584	0.500136
C97	C	0.029839	-0.105434	0.000134
C98	C	0.529839	0.394566	0.500134
C99	C	0.060803	-0.181340	0.000134
C100	C	0.560803	0.318660	0.500134
C101	C	0.041348	-0.258135	0.000134
C102	C	0.541348	0.241865	0.500134
C103	C	-0.009068	-0.259023	0.000127
C104	C	0.490932	0.240977	0.500127
C105	C	-0.032087	0.046379	0.000136
C106	C	0.467913	0.546379	0.500136
C107	C	0.018329	0.047260	0.000142
C108	C	0.518329	0.547260	0.500142
C109	C	0.049292	-0.028646	0.000141
C110	C	0.549292	0.471354	0.500141
C111	C	-0.574518	0.045928	0.000109
C112	C	-0.074518	0.545928	0.500109
C113	C	-0.573565	0.138866	0.000104
C114	C	-0.073565	0.638866	0.500104
C115	C	-0.567461	-0.260328	0.000108
C116	C	-0.067461	0.239672	0.500108
C117	C	-0.568414	-0.353266	0.000107
C118	C	-0.068414	0.146734	0.500107
C119	C	-0.570140	0.476569	0.000106
C120	C	-0.070140	0.976569	0.500106
C121	C	-0.517289	0.428451	-0.000249
C122	C	-0.017289	0.928451	0.499751
C123	C	-0.518242	0.331773	0.000098
C124	C	-0.018242	0.831773	0.500098
C125	C	-0.571839	0.309031	0.000105
C126	C	-0.071839	0.809031	0.500105
C127	C	-0.597896	0.350441	0.087868
C128	C	-0.097896	0.850441	0.587868
C129	C	-0.596569	0.447060	0.087941
C130	C	-0.096569	0.947060	0.587941
C131	C	-0.597682	0.447441	-0.086824
C132	C	-0.097682	0.947441	0.413176
C133	C	-0.597670	0.350495	-0.087984
C134	C	-0.097670	0.850495	0.412016
C135	C	-0.572802	0.214346	0.000107
C136	C	-0.072802	0.714346	0.500107
C137	C	-0.569179	0.571255	0.000110
C138	C	-0.069179	1.071255	0.500110
N139	N	-0.571017	-0.107183	-0.218595
N140	N	-0.071017	0.392817	0.281405
C141	C	-0.571000	-0.107192	0.592905
C142	C	-0.071000	0.392808	1.092905
C143	C	-0.531158	-0.176262	0.553731
C144	C	-0.031158	0.323738	1.053731
C145	C	-0.531250	-0.176511	0.446643
C146	C	-0.031250	0.323489	0.946643
C147	C	-0.570983	-0.107201	0.407314
C148	C	-0.070983	0.392799	0.907314
C149	C	-0.621417	-0.125630	0.446161
C150	C	-0.121417	0.374370	0.946161
C151	C	-0.621193	-0.126121	0.553282
C152	C	-0.121193	0.373879	1.053282
C153	C	-0.560858	-0.019484	0.553433
C154	C	-0.060858	0.480516	1.053433
C155	C	-0.559701	-0.020084	0.446305
C156	C	-0.059701	0.479916	0.946305
C157	C	-0.570976	-0.107205	0.302426
C158	C	-0.070976	0.392795	0.802426
C159	C	-0.571010	-0.107190	0.697793
C160	C	-0.071010	0.392810	1.197793
H161	H	-0.413829	-0.251948	0.000073
H162	H	0.086171	0.248052	0.500073
N163	N	-0.539620	-0.262014	0.589362
N164	N	-0.039620	0.237986	1.089362
H165	H	-0.513872	-0.306015	0.563868
H166	H	-0.013872	0.193985	1.063868
H167	H	-0.537939	-0.262280	0.659074
H168	H	-0.037939	0.237720	1.159074
H169	H	-0.578618	0.323003	-0.152909
H170	H	-0.078618	0.823003	0.347091
N171	N	-0.649444	0.330824	-0.095003
N172	N	-0.149444	0.830824	0.404997
H173	H	-0.656923	0.294596	-0.040938
H174	H	-0.156923	0.794596	0.459062
H175	H	-0.672244	0.385058	-0.094247
H176	H	-0.172244	0.885058	0.405753
N177	N	-0.661634	-0.060743	0.412414
N178	N	-0.161634	0.439257	0.912414
H179	H	-0.678353	-0.030540	0.467070
H180	H	-0.178353	0.469460	0.967070
H181	H	-0.647480	-0.018725	0.371506
H182	H	-0.147480	0.481275	0.871506
N183	N	-0.571377	0.470973	0.174833
N184	N	-0.071377	0.970973	0.674833
H185	H	-0.537180	0.440987	0.176310
H186	H	-0.037180	0.940987	0.676310
H187	H	-0.570299	0.533856	0.175701
H188	H	-0.070299	1.033856	0.675701
N189	N	-0.633539	-0.209365	0.410627
N190	N	-0.133539	0.290635	0.910627
H191	H	-0.666055	-0.220660	0.436009
H192	H	-0.166055	0.279340	0.936009
H193	H	-0.634981	-0.207952	0.340906
H194	H	-0.134981	0.292048	0.840906
N195	N	-0.649299	0.490174	-0.087606
N196	N	-0.149299	0.990174	0.412394
H197	H	-0.654837	0.528220	-0.031955
H198	H	-0.154837	1.028220	0.468045
H199	H	-0.655079	0.524694	-0.145863
H200	H	-0.155079	1.024694	0.354137
H201	H	-0.579782	0.321822	0.153174
H202	H	-0.079782	0.821822	0.653174
N203	N	0.196124	-0.261421	0.000126
N204	N	0.696124	0.238579	0.500126
H205	H	0.175458	-0.265194	-0.056842
H206	H	0.675458	0.234806	0.443158
H207	H	0.223420	-0.309322	0.000159
H208	H	0.723420	0.190678	0.500159
N209	N	-0.181290	-0.344521	0.000119
N210	N	0.318710	0.155479	0.500119
H211	H	-0.217929	-0.333578	0.000120
H212	H	0.282071	0.166422	0.500120
H213	H	-0.169966	-0.377709	-0.056849
H214	H	0.330034	0.122291	0.443151
N215	N	-0.661646	-0.061970	0.587588
N216	N	-0.161646	0.438030	1.087588
H217	H	-0.684967	-0.091035	0.626246
H218	H	-0.184967	0.408965	1.126246
H219	H	-0.647499	-0.018400	0.626335
H220	H	-0.147499	0.481600	1.126335
N221	N	-0.650055	0.332417	0.092226
N222	N	-0.150055	0.832417	0.592226
H223	H	-0.672346	0.387227	0.091369
H224	H	-0.172346	0.887227	0.591369
H225	H	-0.657277	0.297123	0.037211
H226	H	-0.157277	0.797123	0.537211
N227	N	-0.513193	0.004197	0.589247
N228	N	-0.013193	0.504197	1.089247
H229	H	-0.497691	-0.041696	0.631428
H230	H	0.002309	0.458304	1.131428
H231	H	-0.490805	0.011321	0.535530
H232	H	0.009195	0.511321	1.035530
N233	N	-0.481337	-0.162106	0.587880
N234	N	0.018663	0.337894	1.087880
H235	H	-0.473689	-0.104915	0.566988
H236	H	0.026311	0.395085	1.066988
H237	H	-0.480665	-0.164855	0.657595
H238	H	0.019335	0.335145	1.157595
H239	H	-0.322370	-0.250346	0.000100
H240	H	0.177630	0.249654	0.500100
H241	H	-0.084694	-0.322613	0.000116
H242	H	0.415306	0.177387	0.500116
H243	H	-0.522601	-0.006083	0.420916
H244	H	-0.022601	0.493917	0.920916
H245	H	0.180391	0.035937	0.000138
H246	H	0.680391	0.535937	0.500138
N247	N	-0.338093	0.047009	0.000094
N248	N	0.161907	0.547009	0.500094
H249	H	-0.349383	0.080240	-0.056877
H250	H	0.150617	0.580240	0.443123
H251	H	-0.349389	0.080165	0.057101
H252	H	0.150611	0.580165	0.557101
N253	N	0.300926	-0.259575	0.000126
N254	N	0.800926	0.240425	0.500126
H255	H	0.335816	-0.247351	0.000127
H256	H	0.835816	0.252649	0.500127
H257	H	0.294632	-0.293071	0.057102
H258	H	0.794632	0.206929	0.557102
H259	H	-0.580411	0.467760	-0.153343
H260	H	-0.080411	0.967760	0.346657
H261	H	-0.537727	-0.241612	0.421009
H262	H	-0.037727	0.258388	0.921009
N263	N	-0.481593	-0.162098	0.411845
N264	N	0.018407	0.337902	0.911845
H265	H	-0.459447	-0.155527	0.466093
H266	H	0.040553	0.344473	0.966093
H267	H	-0.467704	-0.211816	0.373181
H268	H	0.032296	0.288184	0.873181
N269	N	-0.633032	-0.210820	0.586377
N270	N	-0.133032	0.289180	1.086377
H271	H	-0.638346	-0.247487	0.531379
H272	H	-0.138346	0.252513	1.031379
H273	H	-0.605176	-0.238702	0.624702
H274	H	-0.105176	0.261298	1.124702
H275	H	-0.434719	0.025103	0.000084
H276	H	0.065281	0.525103	0.500084
H277	H	0.271849	0.037543	0.000122
H278	H	0.771849	0.537543	0.500122
N279	N	-0.595645	0.051127	0.410864
N280	N	-0.095645	0.551127	0.910864
H281	H	-0.619860	0.027821	0.368843
H282	H	-0.119860	0.527821	0.868843
H283	H	-0.613298	0.080996	0.464762
H284	H	-0.113298	0.580996	0.964762
H285	H	-0.117096	0.107153	0.000148
H286	H	0.382904	0.607153	0.500148
H287	H	-0.589913	0.031908	0.578765
H288	H	-0.089913	0.531908	1.078765
N289	N	-0.216738	0.125601	0.000155
N290	N	0.283262	0.625601	0.500155
H291	H	-0.210482	0.159141	-0.056811
H292	H	0.289518	0.659141	0.443189
H293	H	-0.251617	0.113324	0.000187
H294	H	0.248383	0.613324	0.500187
N295	N	-0.030045	-0.341857	0.000112
N296	N	0.469955	0.158143	0.500112
H297	H	-0.002773	-0.389802	0.000111
H298	H	0.497227	0.110198	0.500111
H299	H	-0.050710	-0.345565	0.057080
H300	H	0.449290	0.154435	0.557080
N301	N	-0.647963	0.490445	0.093255
N302	N	-0.147963	0.990445	0.593255
H303	H	-0.647502	0.553487	0.093349
H304	H	-0.147502	1.053487	0.593349
H305	H	-0.666991	0.473835	0.038097
H306	H	-0.166991	0.973835	0.538097
N307	N	0.074749	-0.340007	0.000128
N308	N	0.574749	0.159993	0.500128
H309	H	0.109639	-0.327783	0.000133
H310	H	0.609639	0.172217	0.500133
H311	H	0.068455	-0.373508	0.057099
H312	H	0.568455	0.126492	0.557099
H313	H	0.034161	0.109804	0.000141
H314	H	0.534161	0.609804	0.500141
H315	H	-0.057293	0.108193	0.000138
H316	H	0.442707	0.608193	0.500138
N317	N	-0.491115	0.293768	-0.083238
N318	N	0.008885	0.793768	0.416762
H319	H	-0.462984	0.252049	-0.062292
H320	H	0.037016	0.752049	0.437708
H321	H	-0.513797	0.264029	-0.122687
H322	H	-0.013797	0.764029	0.377313
N323	N	-0.489310	0.452639	-0.083608
N324	N	0.010690	0.952639	0.416392
H325	H	-0.506534	0.437857	-0.141784
H326	H	-0.006534	0.937857	0.358216
H327	H	-0.487156	0.515210	-0.082311
H328	H	0.012844	1.015210	0.417689
N329	N	-0.489417	0.454033	0.082641
N330	N	0.010583	0.954033	0.582641
H331	H	-0.510877	0.496655	0.120421
H332	H	-0.010877	0.996655	0.620421
H333	H	-0.478872	0.402784	0.121757
H334	H	0.021128	0.902784	0.621757
H335	H	-0.497605	0.303639	0.063110
H336	H	0.002395	0.803639	0.563110
