data_functionalizedCrystal
_audit_creation_method	'MofGen! by Chris Wilmer'
_symmetry_space_group_name_H-M	'P1'
_symmetry_Int_Tables_number	1
_symmetry_cell_setting	triclinic
loop_
_symmetry_equiv_pos_as_xyz
  x,y,z
_cell_length_a	10.489741
_cell_length_b	14.519709
_cell_length_c	13.596369
_cell_angle_alpha	89.999709
_cell_angle_beta	89.994306
_cell_angle_gamma	95.890341
loop_
_atom_site_label
_atom_site_type_symbol
_atom_site_fract_x
_atom_site_fract_y
_atom_site_fract_z
O1	O	0.167203	-1.224779	-0.081663
O2	O	0.667203	-0.724779	0.418337
O3	O	0.186894	-0.956410	-0.081693
O4	O	0.686894	-0.456410	0.418307
O5	O	-0.008613	-1.096701	-0.081671
O6	O	0.491387	-0.596701	0.418329
O7	O	0.362710	-1.084488	-0.081684
O8	O	0.862710	-0.584488	0.418316
O9	O	-0.008623	-1.096687	0.081912
O10	O	0.491377	-0.596687	0.581912
O11	O	0.186883	-0.956396	0.081890
O12	O	0.686883	-0.456396	0.581890
O13	O	0.167193	-1.224765	0.081920
O14	O	0.667193	-0.724765	0.581920
Zn15	Zn	0.177037	-1.090578	0.107878
Zn16	Zn	0.677037	-0.590578	0.607878
Zn17	Zn	0.177050	-1.090597	-0.107650
Zn18	Zn	0.677050	-0.590597	0.392350
O19	O	0.362700	-1.084474	0.081899
O20	O	0.862700	-0.584474	0.581899
C21	C	0.185971	-0.922038	0.000095
C22	C	0.685971	-0.422038	0.500095
C23	C	0.183221	-0.819642	0.000084
C24	C	0.683221	-0.319642	0.500084
C25	C	-0.056140	-1.095772	0.000120
C26	C	0.443860	-0.595772	0.500120
C27	C	-0.197741	-1.093012	0.000118
C28	C	0.302259	-0.593012	0.500118
N29	N	0.177026	-1.090572	0.254969
N30	N	0.677026	-0.590572	0.754969
C31	C	-0.264951	-1.003749	0.000100
C32	C	0.235049	-0.503749	0.500100
C33	C	-0.357518	-1.045909	0.080760
C34	C	0.142482	-0.545909	0.580760
C35	C	-0.357482	-1.045944	-0.080520
C36	C	0.142518	-0.545944	0.419480
C37	C	-0.288443	-1.135209	0.080844
C38	C	0.211557	-0.635209	0.580844
C39	C	-0.288398	-1.135232	-0.080509
C40	C	0.211602	-0.635232	0.419491
C41	C	-0.380938	-1.177457	0.000171
C42	C	0.119062	-0.677457	0.500171
C43	C	0.410227	-1.085403	0.000106
C44	C	0.910227	-0.585403	0.500106
C45	C	0.551828	-1.088163	0.000101
C46	C	1.051828	-0.588163	0.500101
C47	C	0.168116	-1.259137	0.000130
C48	C	0.668116	-0.759137	0.500130
C49	C	0.170866	-1.361533	0.000135
C50	C	0.670866	-0.861533	0.500135
C51	C	0.173098	-0.444691	0.000129
C52	C	0.673098	0.055309	0.500129
C53	C	0.175909	-0.549014	0.000116
C54	C	0.675909	-0.049014	0.500116
C55	C	0.178159	-0.632163	0.000105
C56	C	0.678159	-0.132163	0.500105
C57	C	0.180971	-0.736493	0.000094
C58	C	0.680971	-0.236493	0.500094
N59	N	0.177050	-1.090610	-0.254742
N60	N	0.677050	-0.590610	0.245258
C61	C	0.177052	-1.090596	0.656260
C62	C	0.677052	-0.590596	1.156260
C63	C	0.177049	-1.090586	0.544609
C64	C	0.677049	-0.590586	1.044609
C65	C	0.177040	-1.090584	0.455618
C66	C	0.677040	-0.590584	0.955618
C67	C	0.177035	-1.090574	0.343960
C68	C	0.677035	-0.590574	0.843960
H69	H	-0.388140	-1.008134	0.148944
H70	H	0.111860	-0.508134	0.648944
C71	C	-0.398790	-0.994915	-0.172642
C72	C	0.101210	-0.494915	0.327358
H73	H	-0.358660	-0.933208	-0.172543
H74	H	0.141340	-0.433208	0.327457
H75	H	-0.489210	-0.994013	-0.172307
H76	H	0.010790	-0.494013	0.327693
H77	H	-0.373953	-1.026036	-0.229913
H78	H	0.126047	-0.526036	0.270087
H79	H	-0.257742	-1.172975	-0.148696
H80	H	0.242258	-0.672975	0.351304
C81	C	-0.196832	-0.904609	0.000196
C82	C	0.303168	-0.404609	0.500196
H83	H	-0.220324	-0.873040	0.057573
H84	H	0.279676	-0.373040	0.557573
H85	H	-0.221456	-0.872581	-0.056523
H86	H	0.278544	-0.372581	0.443477
H87	H	-0.106679	-0.907049	-0.000380
H88	H	0.393321	-0.407049	0.499620
H89	H	-0.431128	-1.250914	0.000224
H90	H	0.068872	-0.750914	0.500224
C91	C	-0.247338	-1.186172	0.173073
C92	C	0.252662	-0.686172	0.673073
H93	H	-0.156994	-1.187585	0.172534
H94	H	0.343006	-0.687585	0.672534
H95	H	-0.288095	-1.247694	0.173317
H96	H	0.211905	-0.747694	0.673317
H97	H	-0.271547	-1.154658	0.230272
H98	H	0.228453	-0.654658	0.730272
