data_functionalizedCrystal
_audit_creation_method	'MofGen! by Chris Wilmer'
_symmetry_space_group_name_H-M	'P1'
_symmetry_Int_Tables_number	1
_symmetry_cell_setting	triclinic
loop_
_symmetry_equiv_pos_as_xyz
  x,y,z
_cell_length_a	18.050591
_cell_length_b	18.215405
_cell_length_c	18.215399
_cell_angle_alpha	90.032960
_cell_angle_beta	89.977309
_cell_angle_gamma	89.979109
loop_
_atom_site_label
_atom_site_type_symbol
_atom_site_fract_x
_atom_site_fract_y
_atom_site_fract_z
Zn1	Zn	1.135323	0.293053	-0.416218
Zn2	Zn	1.635323	0.793053	0.083782
Zn3	Zn	1.135237	0.416129	-0.293146
Zn4	Zn	1.635237	0.916129	0.206854
Zn5	Zn	1.011138	0.293072	-0.293152
Zn6	Zn	1.511138	0.793072	0.206848
Zn7	Zn	1.011097	0.416073	-0.416158
Zn8	Zn	1.511097	0.916073	0.083842
O9	O	1.073199	0.354582	-0.354669
O10	O	1.573199	0.854582	0.145331
O11	O	1.239236	0.309394	-0.399914
O12	O	1.739236	0.809394	0.100086
O13	O	1.118756	0.399837	-0.190162
O14	O	1.618756	0.899837	0.309838
O15	O	1.027665	0.190086	-0.309505
O16	O	1.527665	0.690086	0.190495
O17	O	1.239173	0.399818	-0.309494
O18	O	1.739173	0.899818	0.190506
O19	O	1.118902	0.190071	-0.399921
O20	O	1.618902	0.690071	0.100079
O21	O	1.027581	0.309428	-0.190167
O22	O	1.527581	0.809428	0.309833
O23	O	0.907208	0.309374	-0.309447
O24	O	1.407208	0.809374	0.190553
O25	O	1.027595	0.399723	-0.519150
O26	O	1.527595	0.899723	-0.019150
O27	O	0.907178	0.399742	-0.399819
O28	O	1.407178	0.899742	0.100181
O29	O	1.118863	0.309340	-0.519194
O30	O	1.618863	0.809340	-0.019194
O31	O	1.118716	0.519106	-0.309436
O32	O	1.618716	1.019106	0.190564
O33	O	1.027511	0.519065	-0.399813
O34	O	1.527511	1.019065	0.100187
C35	C	0.880247	0.354555	-0.354628
C36	C	1.380247	0.854555	0.145372
C37	C	0.797701	0.354561	-0.354628
C38	C	1.297701	0.854561	0.145372
C39	C	1.073120	0.545788	-0.354633
C40	C	1.573120	1.045788	0.145367
C41	C	1.073155	0.627587	-0.354643
C42	C	1.573155	1.127587	0.145357
C43	C	1.073234	0.354523	-0.546622
C44	C	1.573234	0.854523	-0.046622
C45	C	1.073249	0.354498	-0.628420
C46	C	1.573249	0.854498	-0.128420
C47	C	0.598245	0.305361	-0.305597
C48	C	1.098245	0.805361	0.194403
C49	C	0.548829	0.372487	-0.287483
C50	C	1.048829	0.872487	0.212517
C51	C	0.646570	0.354583	-0.354661
C52	C	1.146570	0.854583	0.145339
C53	C	0.548905	0.287481	-0.372773
C54	C	1.048905	0.787481	0.127227
C55	C	0.500585	0.354599	-0.354692
C56	C	1.000585	0.854599	0.145308
C57	C	0.598241	0.421744	-0.336512
C58	C	1.098241	0.921744	0.163488
C59	C	0.598322	0.336692	-0.421833
C60	C	1.098322	0.836692	0.078167
C61	C	0.548928	0.403864	-0.403745
C62	C	1.048928	0.903864	0.096255
C63	C	0.730669	0.354573	-0.354642
C64	C	1.230669	0.854573	0.145358
C65	C	0.416489	0.354616	-0.354712
C66	C	0.916489	0.854616	0.145288
C67	C	1.266904	0.354610	-0.354710
C68	C	1.766904	0.854610	0.145290
C69	C	1.349450	0.354622	-0.354727
C70	C	1.849450	0.854622	0.145273
C71	C	1.073298	0.162629	-0.354720
C72	C	1.573298	0.662629	0.145280
C73	C	1.073340	0.080830	-0.354742
C74	C	1.573340	0.580830	0.145258
C75	C	1.120757	0.815778	-0.307670
C76	C	1.620757	1.315778	0.192330
C77	C	1.120790	0.892637	-0.307688
C78	C	1.620790	1.392637	0.192312
C79	C	1.025736	0.892634	-0.401720
C80	C	1.525736	1.392634	0.098280
C81	C	1.025707	0.815777	-0.401705
C82	C	1.525707	1.315777	0.098295
C83	C	1.073216	0.777351	-0.354676
C84	C	1.573216	1.277351	0.145324
C85	C	1.073278	0.931067	-0.354709
C86	C	1.573278	1.431067	0.145291
C87	C	1.073314	1.014400	-0.354728
C88	C	1.573314	1.514400	0.145272
C89	C	1.073182	0.694012	-0.354657
C90	C	1.573182	1.194012	0.145343
C91	C	1.025814	0.307390	-0.816618
C92	C	1.525814	0.807390	-0.316618
C93	C	1.025827	0.307375	-0.893477
C94	C	1.525827	0.807375	-0.393477
C95	C	1.120772	0.401518	-0.893461
C96	C	1.620772	0.901518	-0.393461
C97	C	1.120755	0.401536	-0.816604
C98	C	1.620755	0.901536	-0.316604
C99	C	1.073277	0.354468	-0.778184
C100	C	1.573277	0.854468	-0.278184
C101	C	1.073307	0.354435	-0.931900
C102	C	1.573307	0.854435	-0.431900
C103	C	1.073321	0.354419	-1.015234
C104	C	1.573321	0.854419	-0.515234
C105	C	1.073262	0.354485	-0.694845
C106	C	1.573262	0.854485	-0.194845
C107	C	1.073206	0.354587	-0.163462
C108	C	1.573206	0.854587	0.336538
C109	C	1.073335	0.354405	-0.081664
C110	C	1.573335	0.854405	0.418336
H111	H	0.619899	0.263781	-0.264060
H112	H	1.119899	0.763781	0.235940
C113	C	1.173022	0.773512	-0.255941
C114	C	1.673022	1.273512	0.244059
N115	N	1.212392	0.741679	-0.216979
N116	N	1.712392	1.241679	0.283021
H117	H	0.527090	0.387630	-0.230690
H118	H	1.027090	0.887630	0.269310
H119	H	0.986994	0.784487	-0.439987
H120	H	1.486994	1.284487	0.060013
C121	C	0.627394	0.498437	-0.315740
C122	C	1.127394	0.998437	0.184260
N123	N	0.649354	0.556200	-0.300091
N124	N	1.149354	1.056200	0.199909
H125	H	0.987154	0.269064	-0.785339
H126	H	1.487154	0.769064	-0.285339
H127	H	1.159407	0.439875	-0.785310
H128	H	1.659407	0.939875	-0.285310
C129	C	0.519630	0.210808	-0.393455
C130	C	1.019630	0.710808	0.106545
N131	N	0.497584	0.153057	-0.409027
N132	N	0.997584	0.653057	0.090973
H133	H	0.987177	0.269041	-0.924766
H134	H	1.487177	0.769041	-0.424766
H135	H	0.527410	0.445544	-0.445250
H136	H	1.027410	0.945544	0.054750
H137	H	1.159427	0.439839	-0.924751
H138	H	1.659427	0.939839	-0.424751
C139	C	0.627722	0.316203	-0.498533
C140	C	1.127722	0.816203	0.001467
N141	N	0.649870	0.300761	-0.556303
N142	N	1.149870	0.800761	-0.056303
H143	H	1.159503	0.923921	-0.269412
H144	H	1.659503	1.423921	0.230588
C145	C	0.973470	0.934910	-0.453441
C146	C	1.473470	1.434910	0.046559
N147	N	0.934099	0.966751	-0.492395
N148	N	1.434099	1.466751	0.007605
