data_functionalizedCrystal
_audit_creation_method	'MofGen! by Chris Wilmer'
_symmetry_space_group_name_H-M	'P1'
_symmetry_Int_Tables_number	1
_symmetry_cell_setting	triclinic
loop_
_symmetry_equiv_pos_as_xyz
  x,y,z
_cell_length_a	34.408637
_cell_length_b	34.407814
_cell_length_c	34.404193
_cell_angle_alpha	60.004510
_cell_angle_beta	60.009006
_cell_angle_gamma	59.994604
loop_
_atom_site_label
_atom_site_type_symbol
_atom_site_fract_x
_atom_site_fract_y
_atom_site_fract_z
O1	O	0.053973	-0.567860	0.474801
O2	O	0.553973	-0.067860	0.974801
O3	O	0.020377	-0.442124	0.382567
O4	O	0.520377	0.057876	0.882567
O5	O	0.100004	-0.521670	0.382483
O6	O	0.600004	-0.021670	0.882483
O7	O	-0.025653	-0.488314	0.474886
O8	O	0.474347	0.011686	0.974886
O9	O	0.126426	-0.495253	0.408816
O10	O	0.626426	0.004747	0.908816
O11	O	0.046800	-0.415707	0.408900
O12	O	0.546800	0.084293	0.908900
O13	O	0.080396	-0.541443	0.501134
O14	O	0.580396	-0.041443	1.001134
Zn15	Zn	0.067793	-0.474381	0.459198
Zn16	Zn	0.567793	0.025619	0.959198
Zn17	Zn	0.032980	-0.509186	0.424503
Zn18	Zn	0.532980	-0.009186	0.924503
O19	O	0.000769	-0.461897	0.501219
O20	O	0.500769	0.038103	1.001219
N21	N	0.091552	-0.450631	0.482879
N22	N	0.591552	0.049369	0.982879
N23	N	0.009225	-0.532940	0.400823
N24	N	0.509225	-0.032940	0.900823
C25	C	0.142848	-0.268847	0.534081
C26	C	0.642848	0.231153	1.034081
C27	C	0.142979	-0.399386	0.664559
C28	C	0.642979	0.100614	1.164559
C29	C	0.142862	-0.399365	0.534081
C30	C	0.642862	0.100635	1.034081
C31	C	0.273409	-0.399338	0.533986
C32	C	0.773409	0.100662	1.033986
C33	C	0.157225	-0.311914	0.548422
C34	C	0.657225	0.188086	1.048422
C35	C	0.157300	-0.385019	0.621491
C36	C	0.657300	0.114981	1.121491
C37	C	0.230339	-0.384991	0.548370
C38	C	0.730339	0.115009	1.048370
C39	C	0.157235	-0.385007	0.548422
C40	C	0.657235	0.114993	1.048422
C41	C	0.124548	-0.214028	0.515827
C42	C	0.624548	0.285972	1.015827
C43	C	0.124571	-0.417639	0.515827
C44	C	0.624571	0.082361	1.015827
C45	C	0.175526	-0.366733	0.566676
C46	C	0.675526	0.133267	1.066676
C47	C	0.353121	-0.385580	0.491988
C48	C	0.853121	0.114420	0.991988
C49	C	0.402952	-0.402180	0.475348
C50	C	0.902952	0.097820	0.975348
C51	C	0.402981	-0.482812	0.506096
C52	C	0.902981	0.017188	1.006096
C53	C	0.353151	-0.466211	0.522737
C54	C	0.853151	0.033789	1.022737
C55	C	0.136544	-0.189099	0.466839
C56	C	0.636544	0.310901	0.966839
C57	C	0.119905	-0.139265	0.450247
C58	C	0.619905	0.360735	0.950247
C59	C	0.079280	-0.139291	0.531632
C60	C	0.579280	0.360709	1.031632
C61	C	0.095918	-0.189125	0.548224
C62	C	0.595918	0.310875	1.048224
C63	C	0.075577	-0.405615	0.527900
C64	C	0.575577	0.094385	1.027900
C65	C	0.058953	-0.422228	0.511301
C66	C	0.558953	0.077772	1.011301
C67	C	0.140315	-0.462889	0.470566
C68	C	0.640315	0.037111	0.970566
C69	C	0.156941	-0.446276	0.487159
C70	C	0.656941	0.053724	0.987159
C71	C	0.075772	-0.405653	0.744326
C72	C	0.575772	0.094347	1.244326
C73	C	0.059206	-0.422280	0.794159
C74	C	0.559206	0.077720	1.294159
C75	C	0.140607	-0.462951	0.794094
C76	C	0.640607	0.037049	1.294094
C77	C	0.157172	-0.446325	0.744260
C78	C	0.657172	0.053675	1.244260
C79	C	0.124753	-0.417674	0.719377
C80	C	0.624753	0.082326	1.219377
C81	C	0.328223	-0.417595	0.515681
C82	C	0.828223	0.082405	1.015681
C83	C	-0.172390	-0.583988	0.349141
C84	C	0.327610	-0.083988	0.849141
C85	C	-0.041751	-0.584138	0.218783
C86	C	0.458249	-0.084138	0.718783
C87	C	-0.041941	-0.584130	0.349402
C88	C	0.458059	-0.084130	0.849402
C89	C	-0.041957	-0.714607	0.349338
C90	C	0.458043	-0.214607	0.849338
C91	C	-0.129326	-0.598388	0.334853
C92	C	0.370674	-0.098388	0.834853
C93	C	-0.056165	-0.598473	0.261852
C94	C	0.443835	-0.098473	0.761852
C95	C	-0.056282	-0.671535	0.334962
C96	C	0.443718	-0.171535	0.834962
C97	C	-0.056272	-0.598469	0.334999
C98	C	0.443728	-0.098469	0.834999
C99	C	-0.227205	-0.565659	0.367327
C100	C	0.272795	-0.065659	0.867327
C101	C	-0.023703	-0.565882	0.367734
C102	C	0.476297	-0.065882	0.867734
C103	C	-0.074511	-0.616717	0.316667
C104	C	0.425489	-0.116717	0.816667
C105	C	-0.055754	-0.794298	0.391257
C106	C	0.444246	-0.294298	0.891257
C107	C	-0.039181	-0.844132	0.407888
C108	C	0.460819	-0.344132	0.907888
C109	C	0.041447	-0.844215	0.377269
C110	C	0.541447	-0.344215	0.877269
C111	C	0.024873	-0.794381	0.360637
C112	C	0.524873	-0.294381	0.860637
C113	C	-0.252183	-0.577666	0.416302
C114	C	0.247817	-0.077666	0.916302
C115	C	-0.302014	-0.561001	0.432833
C116	C	0.197986	-0.061001	0.932833
C117	C	-0.301886	-0.520329	0.351410
C118	C	0.198114	-0.020329	0.851410
C119	C	-0.252055	-0.536994	0.334880
C120	C	0.247945	-0.036994	0.834880
C121	C	-0.035709	-0.516892	0.355682
C122	C	0.464291	-0.016892	0.855682
C123	C	-0.019129	-0.500308	0.372353
C124	C	0.480871	-0.000308	0.872353
C125	C	0.021465	-0.581700	0.413115
C126	C	0.521465	-0.081700	0.913115
C127	C	0.004884	-0.598286	0.396450
C128	C	0.504884	-0.098286	0.896450
C129	C	-0.035389	-0.516907	0.139026
C130	C	0.464611	-0.016907	0.639026
C131	C	-0.018707	-0.500324	0.089193
C132	C	0.481293	-0.000324	0.589193
C133	C	0.021949	-0.581721	0.089240
C134	C	0.521949	-0.081721	0.589240
C135	C	0.005268	-0.598303	0.139074
C136	C	0.505268	-0.098303	0.639074
C137	C	-0.023402	-0.565894	0.163965
C138	C	0.476598	-0.065894	0.663965
C139	C	-0.023728	-0.769425	0.367633
C140	C	0.476272	-0.269425	0.867633
N141	N	0.427173	-0.450553	0.482630
N142	N	0.927173	0.049447	0.982630
O143	O	0.589997	-0.458460	0.365361
O144	O	1.089997	0.041540	0.865361
O145	O	0.590185	-0.550997	0.490963
O146	O	1.090185	-0.050997	0.990963
O147	O	0.590104	-0.550786	0.411309
O148	O	1.090104	-0.050786	0.911309
O149	O	0.590077	-0.458671	0.445016
O150	O	1.090077	0.041329	0.945016
O151	O	0.510940	-0.524462	0.437777
O152	O	1.010940	-0.024462	0.937777
O153	O	0.511020	-0.524674	0.517432
O154	O	1.011020	-0.024674	1.017432
O155	O	0.510832	-0.432136	0.391830
O156	O	1.010832	0.067864	0.891830
Zn157	Zn	0.498357	-0.474225	0.458833
Zn158	Zn	0.998357	0.025775	0.958833
Zn159	Zn	0.602660	-0.508908	0.423960
Zn160	Zn	1.102660	-0.008908	0.923960
O161	O	0.510913	-0.432348	0.471484
O162	O	1.010913	0.067652	0.971484
N163	N	0.673844	-0.532580	0.400158
N164	N	1.173844	-0.032580	0.900158
N165	N	0.091520	-0.115070	0.482873
N166	N	0.591520	0.384930	0.982873
O167	O	-0.025663	0.047841	0.474857
O168	O	0.474337	0.547841	0.974857
O169	O	0.099940	0.047877	0.382299
O170	O	0.599940	0.547877	0.882299
O171	O	0.020247	0.047844	0.382560
O172	O	0.520247	0.547844	0.882560
O173	O	0.054030	0.047874	0.474596
O174	O	0.554030	0.547874	0.974596
O175	O	0.046674	-0.031326	0.408942
O176	O	0.546674	0.468674	0.908942
O177	O	0.126367	-0.031293	0.408680
O178	O	0.626367	0.468707	0.908680
O179	O	0.000764	-0.031329	0.501238
O180	O	0.500764	0.468671	1.001238
Zn181	Zn	0.067761	-0.043881	0.459148
Zn182	Zn	0.567761	0.456119	0.959148
Zn183	Zn	0.032943	0.060429	0.424389
Zn184	Zn	0.532943	0.560429	0.924389
O185	O	0.080457	-0.031296	0.500977
O186	O	0.580457	0.468704	1.000977
N187	N	0.009178	0.131618	0.400665
N188	N	0.509178	0.631618	0.900665
N189	N	0.091852	-0.450680	0.818332
N190	N	0.591852	0.049320	1.318332
O191	O	0.083862	-0.567845	0.981235
O192	O	0.583862	-0.067845	1.481235
O193	O	-0.008657	-0.442198	0.981276
O194	O	0.491343	0.057802	1.481276
O195	O	-0.008441	-0.521875	0.981252
O196	O	0.491559	-0.021875	1.481252
O197	O	0.083646	-0.488168	0.981258
O198	O	0.583646	0.011832	1.481258
O199	O	0.017919	-0.495468	0.902085
O200	O	0.517919	0.004532	1.402085
O201	O	0.017703	-0.415791	0.902109
O202	O	0.517703	0.084209	1.402109
O203	O	0.110222	-0.541438	0.902067
O204	O	0.610222	-0.041438	1.402067
Zn205	Zn	0.068148	-0.474422	0.889518
Zn206	Zn	0.568148	0.025578	1.389518
Zn207	Zn	0.033417	-0.509214	0.993825
Zn208	Zn	0.533417	-0.009214	1.493825
O209	O	0.110006	-0.461761	0.902091
O210	O	0.610006	0.038239	1.402091
N211	N	0.009712	-0.532961	1.065011
N212	N	0.509712	-0.032961	1.565011
C213	C	0.030439	-0.413071	0.383027
C214	C	0.530439	0.086929	0.883027
C215	C	0.129046	-0.511580	0.382922
C216	C	0.629046	-0.011580	0.882922
C217	C	0.070334	-0.570496	0.500675
C218	C	0.570334	-0.070496	1.000675
C219	C	-0.028274	-0.471987	0.500780
C220	C	0.471726	0.028013	1.000780
C221	C	0.550625	-0.550579	0.520021
C222	C	1.050625	-0.050579	1.020021
C223	C	0.550527	-0.550317	0.421379
C224	C	1.050527	-0.050317	0.921379
C225	C	0.550389	-0.432554	0.362773
C226	C	1.050389	0.067446	0.862773
C227	C	0.550491	-0.432816	0.461414
C228	C	1.050491	0.067184	0.961414
C229	C	0.128944	0.008394	0.382712
C230	C	0.628944	0.508394	0.882712
C231	C	0.030287	0.008256	0.383068
C232	C	0.530287	0.508256	0.883068
C233	C	-0.028273	0.008252	0.500793
C234	C	0.471727	0.508252	1.000793
C235	C	0.070417	0.008292	0.500470
C236	C	0.570417	0.508292	1.000470
C237	C	-0.008218	-0.413165	0.941698
C238	C	0.491782	0.086835	1.441698
C239	C	-0.007945	-0.511830	0.941653
C240	C	0.492055	-0.011830	1.441653
C241	C	0.109783	-0.570471	0.941646
C242	C	0.609783	-0.070471	1.441646
C243	C	0.109516	-0.471800	0.941673
C244	C	0.609516	0.028200	1.441673
H245	H	0.049370	-0.382321	0.724071
H246	H	0.549370	0.117679	1.224071
H247	H	-0.036863	-0.519031	0.941619
H248	H	0.463137	-0.019031	1.441619
C249	C	0.550310	-0.393302	0.314046
C250	C	1.050310	0.106698	0.814046
H251	H	0.550288	-0.365660	0.314006
H252	H	1.050288	0.134340	0.814006
H253	H	0.577901	-0.404191	0.289804
H254	H	1.077901	0.095809	0.789804
H255	H	0.522685	-0.385834	0.308272
H256	H	1.022685	0.114166	0.808272
H257	H	0.550540	-0.579254	0.414165
H258	H	1.050540	-0.079254	0.914165
H259	H	0.550485	-0.403881	0.468626
H260	H	1.050485	0.096119	0.968626
C261	C	0.550695	-0.589827	0.568751
C262	C	1.050695	-0.089827	1.068751
H263	H	0.550709	-0.617466	0.568794
H264	H	1.050709	-0.117466	1.068794
H265	H	0.578313	-0.597297	0.574535
H266	H	1.078313	-0.097297	1.074535
H267	H	0.523097	-0.578932	0.592988
H268	H	1.023097	-0.078932	1.092988
C269	C	-0.067159	-0.481247	0.324102
C270	C	0.432841	0.018753	0.824102
H271	H	-0.071940	-0.449696	0.319320
H272	H	0.428060	0.050304	0.819320
H273	H	-0.051910	-0.486048	0.294237
H274	H	0.448090	0.013952	0.794237
H275	H	-0.097036	-0.486004	0.339274
H276	H	0.402964	0.013996	0.839274
H277	H	0.077653	0.008301	0.529384
H278	H	0.577653	0.508301	1.029384
H279	H	0.129672	-0.118967	0.410356
H280	H	0.629672	0.381033	0.910356
H281	H	0.077514	-0.606615	0.529644
H282	H	0.577514	-0.106615	1.029644
H283	H	0.055974	-0.119015	0.558014
H284	H	0.555974	0.380985	1.058014
C285	C	0.020746	-0.364280	0.343888
C286	C	0.520746	0.135720	0.843888
H287	H	0.048274	-0.364146	0.316200
H288	H	0.548274	0.135854	0.816200
H289	H	-0.005219	-0.358508	0.336476
H290	H	0.494781	0.141492	0.836476
H291	H	0.013212	-0.340085	0.354843
H292	H	0.513212	0.159915	0.854843
C293	C	-0.047458	-0.364417	0.941707
C294	C	0.452542	0.135583	1.441707
H295	H	-0.075090	-0.364371	0.941703
H296	H	0.424910	0.135629	1.441703
H297	H	-0.054943	-0.358606	0.969316
H298	H	0.445057	0.141394	1.469316
H299	H	-0.036550	-0.340198	0.914097
H300	H	0.463450	0.159802	1.414097
H301	H	0.138447	-0.464586	0.941669
H302	H	0.638447	0.035414	1.441669
H303	H	0.023050	0.008252	0.354152
H304	H	0.523050	0.508252	0.854152
C305	C	0.082740	-0.216543	0.602110
C306	C	0.582740	0.283457	1.102110
H307	H	0.063313	-0.194573	0.619026
H308	H	0.563313	0.305427	1.119026
H309	H	0.065842	-0.235999	0.610306
H310	H	0.565842	0.264001	1.110306
H311	H	0.110943	-0.235969	0.610243
H312	H	0.610943	0.264031	1.110243
H313	H	0.138832	-0.606554	0.941627
H314	H	0.638832	-0.106554	1.441627
C315	C	0.060104	-0.767024	0.334653
C316	C	0.560104	-0.267024	0.834653
H317	H	0.091422	-0.789028	0.332875
H318	H	0.591422	-0.289028	0.832875
H319	H	0.058882	-0.747589	0.303416
H320	H	0.558882	-0.247589	0.803416
H321	H	0.051750	-0.747583	0.351644
H322	H	0.551750	-0.247583	0.851644
H323	H	-0.064365	-0.464880	0.529794
H324	H	0.435635	0.035120	1.029794
H325	H	0.019320	-0.412483	0.814467
H326	H	0.519320	0.087517	1.314467
H327	H	0.167007	-0.486271	0.814352
H328	H	0.667007	0.013729	1.314352
H329	H	-0.064344	0.008241	0.529850
H330	H	0.435656	0.508241	1.029850
C331	C	0.211053	-0.459551	0.716818
C332	C	0.711053	0.040449	1.216818
H333	H	0.216278	-0.445552	0.683576
H334	H	0.716278	0.054448	1.183576
H335	H	0.225061	-0.448090	0.724970
H336	H	0.725061	0.051910	1.224970
H337	H	0.225060	-0.493176	0.724973
H338	H	0.725060	0.006824	1.224973
C339	C	0.039972	-0.374112	0.559428
C340	C	0.539972	0.125888	1.059428
H341	H	0.056890	-0.365943	0.567588
H342	H	0.556890	0.134057	1.067588
H343	H	0.020512	-0.345934	0.542539
H344	H	0.520512	0.154066	1.042539
H345	H	0.020553	-0.391029	0.587615
H346	H	0.520553	0.108971	1.087615
C347	C	0.005060	-0.409007	0.524582
C348	C	0.505060	0.090993	1.024582
H349	H	-0.011838	-0.389579	0.544039
H350	H	0.488162	0.110421	1.044039
H351	H	-0.003143	-0.392094	0.496421
H352	H	0.496857	0.107906	0.996421
H353	H	-0.003088	-0.437195	0.541490
H354	H	0.496912	0.062805	1.041490
C355	C	0.177570	0.008709	0.343357
C356	C	0.677570	0.508709	0.843357
H357	H	0.197562	0.008784	0.354816
H358	H	0.697562	0.508784	0.854816
H359	H	0.191924	-0.018837	0.334579
H360	H	0.691924	0.481163	0.834579
H361	H	0.173221	0.036382	0.316399
H362	H	0.673221	0.536382	0.816399
H363	H	0.196836	-0.456064	0.477324
H364	H	0.696836	0.043936	0.977324
C365	C	0.175925	-0.494391	0.439034
C366	C	0.675925	0.005609	0.939034
H367	H	0.207485	-0.499170	0.434221
H368	H	0.707485	0.000830	0.934221
H369	H	0.171153	-0.524264	0.454247
H370	H	0.671153	-0.024264	0.954247
H371	H	0.171109	-0.479166	0.409175
H372	H	0.671109	0.020834	0.909175
C373	C	0.325766	-0.501430	0.548796
C374	C	0.825766	-0.001430	1.048796
H375	H	0.347753	-0.532759	0.550608
H376	H	0.847753	-0.032759	1.050608
H377	H	0.306348	-0.500168	0.580020
H378	H	0.806348	-0.000168	1.080020
H379	H	0.306309	-0.493094	0.531829
H380	H	0.806309	0.006906	1.031829
C381	C	0.177797	-0.521177	0.343720
C382	C	0.677797	-0.021177	0.843720
H383	H	0.177867	-0.493618	0.316058
H384	H	0.677867	0.006382	0.816058
H385	H	0.202017	-0.528705	0.354636
H386	H	0.702017	-0.028705	0.854636
H387	H	0.183580	-0.547127	0.336274
H388	H	0.683580	-0.047127	0.836274
C389	C	-0.224850	-0.609190	0.451993
C390	C	0.275150	-0.109190	0.951993
H391	H	-0.191595	-0.617397	0.435133
H392	H	0.308405	-0.117397	0.935133
H393	H	-0.233040	-0.592274	0.471435
H394	H	0.266960	-0.092274	0.971435
H395	H	-0.233045	-0.637352	0.471424
H396	H	0.266955	-0.137352	0.971424
C397	C	0.430401	-0.536287	0.513854
C398	C	0.930401	-0.036287	1.013854
H399	H	0.408435	-0.552978	0.530352
H400	H	0.908435	-0.052978	1.030352
H401	H	0.449820	-0.540904	0.483909
H402	H	0.949820	-0.040904	0.983909
H403	H	0.449861	-0.547973	0.532098
H404	H	0.949861	-0.047973	1.032098
H405	H	-0.058738	-0.490513	0.159288
H406	H	0.441262	0.009487	0.659288
C407	C	0.430342	-0.366963	0.449282
C408	C	0.930342	0.133037	0.949282
H409	H	0.408360	-0.335630	0.447458
H410	H	0.908360	0.164370	0.947458
H411	H	0.449805	-0.375296	0.466240
H412	H	0.949805	0.124704	0.966240
H413	H	0.449757	-0.368232	0.418057
H414	H	0.949757	0.131768	0.918057
H415	H	0.332825	-0.345993	0.486242
H416	H	0.832825	0.154007	0.986242
H417	H	-0.028474	-0.460433	0.068892
H418	H	0.471526	0.039567	0.568892
C419	C	0.168032	-0.216489	0.431201
C420	C	0.668032	0.283511	0.931201
H421	H	0.172787	-0.194504	0.399649
H422	H	0.672787	0.305496	0.899649
H423	H	0.197914	-0.235923	0.435963
H424	H	0.697914	0.264077	0.935963
H425	H	0.152816	-0.235934	0.436003
H426	H	0.652816	0.264066	0.936003
H427	H	0.045284	-0.608113	0.068976
H428	H	0.545284	-0.108113	0.568976
H429	H	-0.028907	-0.460416	0.362542
H430	H	0.471093	0.039584	0.862542
C431	C	0.018452	-0.652191	0.166507
C432	C	0.518452	-0.152191	0.666507
H433	H	0.004416	-0.657427	0.199751
H434	H	0.504416	-0.157427	0.699751
H435	H	0.007007	-0.666170	0.158304
H436	H	0.507007	-0.166170	0.658304
H437	H	0.052071	-0.666220	0.158396
H438	H	0.552071	-0.166220	0.658396
C439	C	0.052915	-0.617346	0.444697
C440	C	0.552915	-0.117346	0.944697
H441	H	0.061074	-0.600452	0.452896
H442	H	0.561074	-0.100452	0.952896
H443	H	0.035977	-0.636763	0.472855
H444	H	0.535977	-0.136763	0.972855
H445	H	0.081104	-0.636808	0.427819
H446	H	0.581104	-0.136808	0.927819
C447	C	0.018091	-0.652175	0.409703
C448	C	0.518091	-0.152175	0.909703
H449	H	0.037494	-0.669098	0.429189
H450	H	0.537494	-0.169098	0.929189
H451	H	-0.010097	-0.660312	0.426561
H452	H	0.489903	-0.160312	0.926561
H453	H	0.035035	-0.660362	0.381530
H454	H	0.535035	-0.160362	0.881530
H455	H	-0.065262	-0.864385	0.427124
H456	H	0.434738	-0.364385	0.927124
C457	C	0.094907	-0.871668	0.369576
C458	C	0.594907	-0.371668	0.869576
H459	H	0.100189	-0.904910	0.382868
H460	H	0.600189	-0.404910	0.882868
H461	H	0.112320	-0.863523	0.336449
H462	H	0.612320	-0.363523	0.836449
H463	H	0.105189	-0.863515	0.384676
H464	H	0.605189	-0.363515	0.884676
C465	C	-0.109216	-0.766844	0.398951
C466	C	0.390784	-0.266844	0.898951
H467	H	-0.114503	-0.733602	0.385668
H468	H	0.385497	-0.233602	0.885668
H469	H	-0.119501	-0.774998	0.383856
H470	H	0.380499	-0.274998	0.883856
H471	H	-0.126626	-0.774992	0.432081
H472	H	0.373374	-0.274992	0.932081
C473	C	-0.329494	-0.574223	0.486706
C474	C	0.170506	-0.074223	0.986706
H475	H	-0.362730	-0.560195	0.491905
H476	H	0.137270	-0.060195	0.991905
H477	H	-0.321351	-0.607845	0.500698
H478	H	0.178649	-0.107845	1.000698
H479	H	-0.321357	-0.562782	0.500751
H480	H	0.178643	-0.062782	1.000751
C481	C	-0.329223	-0.488805	0.315721
C482	C	0.170777	0.011195	0.815721
H483	H	-0.362478	-0.480602	0.332580
H484	H	0.137522	0.019398	0.832580
H485	H	-0.321026	-0.460647	0.296288
H486	H	0.178974	0.039353	0.796288
H487	H	-0.321034	-0.505725	0.296280
H488	H	0.178966	-0.005725	0.796280
C489	C	-0.224582	-0.523787	0.281007
C490	C	0.275418	-0.023787	0.781007
H491	H	-0.246521	-0.504330	0.264052
H492	H	0.253479	-0.004330	0.764052
H493	H	-0.205136	-0.506909	0.272877
H494	H	0.294864	-0.006909	0.772877
H495	H	-0.205146	-0.551978	0.272854
H496	H	0.294854	-0.051978	0.772854
