data_functionalizedCrystal
_audit_creation_method	'MofGen! by Chris Wilmer'
_symmetry_space_group_name_H-M	'P1'
_symmetry_Int_Tables_number	1
_symmetry_cell_setting	triclinic
loop_
_symmetry_equiv_pos_as_xyz
  x,y,z
_cell_length_a	10.654554
_cell_length_b	10.654550
_cell_length_c	9.730223
_cell_angle_alpha	89.996763
_cell_angle_beta	89.996584
_cell_angle_gamma	84.485824
loop_
_atom_site_label
_atom_site_type_symbol
_atom_site_fract_x
_atom_site_fract_y
_atom_site_fract_z
O1	O	1.667836	0.176425	-0.114291
O2	O	1.302358	0.193225	-0.114292
O3	O	1.493500	0.002086	-0.114287
O4	O	1.476694	0.367564	-0.114297
O5	O	1.493488	0.002081	0.114293
O6	O	1.302346	0.193220	0.114288
O7	O	1.667823	0.176420	0.114289
Zn8	Zn	1.485083	0.184819	0.150580
Zn9	Zn	1.485099	0.184826	-0.150584
O10	O	1.476681	0.367559	0.114283
C11	C	1.255554	0.191988	-0.000003
C12	C	1.116111	0.188294	-0.000003
C13	C	1.492260	-0.044714	0.000002
C14	C	1.488568	-0.184158	-0.000003
C15	C	0.905602	0.297367	-0.000009
C16	C	1.036624	0.300839	-0.000009
C17	C	1.064571	0.072269	-0.000010
C18	C	0.933552	0.068799	-0.000020
C19	C	0.889469	0.429330	-0.000003
C20	C	1.020490	0.432802	-0.000003
C21	C	1.601109	-0.263642	0.000002
C22	C	1.597633	-0.394663	-0.000008
C23	C	1.369064	-0.366703	-0.000021
C24	C	1.372541	-0.235684	-0.000021
C25	C	1.733072	-0.279785	0.000015
C26	C	1.729595	-0.410806	0.000005
C27	C	1.714627	0.177657	-0.000004
C28	C	1.854070	0.181351	-0.000012
C29	C	1.477922	0.414360	-0.000008
C30	C	1.481613	0.553803	-0.000012
N31	N	1.485081	0.184814	0.356117
N32	N	1.485111	0.184822	-0.356120
C33	C	1.569747	0.100213	0.428045
C34	C	1.569760	0.100214	0.571928
C35	C	1.400435	0.269426	0.571941
C36	C	1.400417	0.269419	0.428061
H37	H	0.891601	-0.025672	-0.000040
H38	H	1.638702	0.031323	0.630488
O39	O	1.652053	0.018172	0.358065
C40	C	1.730090	0.086099	0.274742
H41	H	1.733156	0.185159	0.318084
H42	H	1.829440	0.035727	0.273039
H43	H	1.690779	0.092338	0.165727
H44	H	1.331506	0.338311	0.630533
H45	H	1.129300	-0.019366	-0.000019
O46	O	1.318219	0.351490	0.357968
C47	C	1.336381	0.333358	0.215549
H48	H	1.382451	0.233940	0.195907
H49	H	1.241392	0.346443	0.160879
H50	H	1.399983	0.405028	0.174697
H51	H	0.843813	0.469197	0.098688
H52	H	0.847728	0.479061	-0.095661
O53	O	1.062928	0.483159	-0.117664
C54	C	1.006686	0.607639	-0.133110
H55	H	0.974892	0.646771	-0.028397
H56	H	1.078058	0.668838	-0.179182
H57	H	0.921633	0.607967	-0.204239
H58	H	1.049846	0.484390	0.095668
H59	H	1.280899	-0.170972	-0.000044
O60	O	1.256469	-0.416967	0.000028
C61	C	1.277529	-0.549652	-0.000013
H62	H	1.375265	-0.579565	0.043266
H63	H	1.203213	-0.590523	0.066342
H64	H	1.271135	-0.586159	-0.109677
H65	H	1.775088	-0.244160	0.098711
O66	O	1.794474	-0.244575	-0.114142
C67	C	1.712720	-0.161087	-0.192871
H68	H	1.635383	-0.114214	-0.123905
H69	H	1.768298	-0.085808	-0.240465
H70	H	1.668372	-0.215724	-0.277904
H71	H	1.769481	-0.456446	-0.098689
H72	H	1.779312	-0.452568	0.095664
