data_functionalizedCrystal
_audit_creation_method	'MofGen! by Chris Wilmer'
_symmetry_space_group_name_H-M	'P1'
_symmetry_Int_Tables_number	1
_symmetry_cell_setting	triclinic
loop_
_symmetry_equiv_pos_as_xyz
  x,y,z
_cell_length_a	15.297475
_cell_length_b	18.101395
_cell_length_c	15.298259
_cell_angle_alpha	80.286247
_cell_angle_beta	88.370891
_cell_angle_gamma	80.333681
loop_
_atom_site_label
_atom_site_type_symbol
_atom_site_fract_x
_atom_site_fract_y
_atom_site_fract_z
Zn1	Zn	1.253438	-0.369889	-0.726658
Zn2	Zn	1.278653	-0.518147	-0.580154
Zn3	Zn	1.132290	-0.377092	-0.554882
Zn4	Zn	1.106904	-0.476449	-0.701296
O5	O	1.192821	-0.435394	-0.640748
O6	O	1.379361	-0.403992	-0.728415
O7	O	1.280414	-0.519901	-0.454214
O8	O	1.148432	-0.272508	-0.577705
O9	O	1.397886	-0.512917	-0.620779
O10	O	1.237439	-0.267216	-0.703909
O11	O	1.172882	-0.416268	-0.435647
O12	O	1.006344	-0.375835	-0.553113
O13	O	1.105166	-0.441848	-0.827248
O14	O	0.987693	-0.448833	-0.660683
O15	O	1.212824	-0.363559	-0.845881
O16	O	1.255798	-0.616244	-0.596187
O17	O	1.129615	-0.585608	-0.685189
C18	C	0.965235	-0.408591	-0.601404
C19	C	0.867869	-0.397139	-0.584594
C20	C	1.192709	-0.627795	-0.640701
C21	C	1.192735	-0.710110	-0.640725
C22	C	0.554727	-0.517249	-0.760897
C23	C	0.646207	-0.528014	-0.776689
C24	C	0.701627	-0.495296	-0.728667
C25	C	0.665558	-0.451811	-0.664849
C26	C	0.574069	-0.441049	-0.649051
C27	C	0.720970	-0.419097	-0.616821
C28	C	0.684900	-0.375612	-0.553003
C29	C	0.593420	-0.364852	-0.537209
C30	C	0.538001	-0.397570	-0.585231
C31	C	0.812458	-0.429859	-0.632619
C32	C	0.831801	-0.353659	-0.520773
C33	C	0.740320	-0.342894	-0.504981
C34	C	1.192919	-1.009215	-0.640805
C35	C	1.113656	-0.958637	-0.696998
C36	C	1.113372	-0.873016	-0.696731
C37	C	1.192828	-0.860826	-0.640766
C38	C	1.183805	-0.904428	-0.544127
C39	C	1.183299	-0.989955	-0.544458
C40	C	1.281494	-0.984525	-0.680464
C41	C	1.280599	-0.898472	-0.682395
C42	C	1.192779	-0.776963	-0.640739
C43	C	1.192968	-1.093079	-0.640826
C44	C	1.421296	-0.462302	-0.680245
C45	C	1.518658	-0.473769	-0.697077
C46	C	1.153350	-0.397249	-0.869239
C47	C	1.136530	-0.380994	-0.966608
C48	C	1.192955	-0.242241	-0.640817
C49	C	1.193012	-0.159931	-0.640847
C50	C	1.313066	-0.551005	-1.279738
C51	C	1.328865	-0.566282	-1.188254
C52	C	1.280783	-0.519961	-1.132838
C53	C	1.216899	-0.458361	-1.168915
C54	C	1.201094	-0.443087	-1.260407
C55	C	1.168810	-0.412043	-1.113507
C56	C	1.104926	-0.350443	-1.149584
C57	C	1.089124	-0.335170	-1.241068
C58	C	1.137206	-0.381491	-1.296484
C59	C	1.184616	-0.427317	-1.022015
C60	C	1.072643	-0.319398	-1.002684
C61	C	1.056844	-0.304122	-1.094168
C62	C	1.232189	-0.473343	-0.413154
C63	C	1.249179	-0.489410	-0.315814
H64	H	0.776114	-0.504064	-0.741529
H65	H	1.292834	-0.997722	-0.750574
O66	O	1.117931	-0.836348	-0.781562
C67	C	1.117645	-0.758446	-0.781358
H68	H	1.141908	-0.750520	-0.714312
H69	H	1.163412	-0.735954	-0.835883
H70	H	1.047386	-0.725870	-0.793715
O71	O	0.449107	-0.387102	-0.570044
C72	C	0.404047	-0.350569	-0.648758
H73	H	0.448062	-0.361053	-0.708298
H74	H	0.340167	-0.374226	-0.653690
H75	H	0.387476	-0.286889	-0.647938
H76	H	1.380871	-0.616443	-1.158885
O77	O	1.035389	-0.977938	-0.664605
C78	C	0.991122	-1.002578	-0.731157
H79	H	1.041338	-1.022937	-0.782038
H80	H	0.955817	-1.051275	-0.699973
H81	H	0.940416	-0.953448	-0.765273
H82	H	1.047396	-0.847119	-0.669199
H83	H	0.710939	-0.307488	-0.453020
H84	H	1.117258	-0.969556	-0.768350
H85	H	1.352201	-0.588718	-1.324864
H86	H	0.841817	-0.465264	-0.684580
H87	H	0.876924	-0.327019	-0.481668
O88	O	1.108109	-0.873641	-0.505837
C89	C	1.101006	-0.913475	-0.419093
H90	H	1.169644	-0.942764	-0.393864
H91	H	1.071214	-0.871939	-0.373650
H92	H	1.056419	-0.957931	-0.419622
O93	O	1.025800	-0.274454	-0.948881
C94	C	0.934621	-0.276608	-0.956153
H95	H	0.925812	-0.331048	-0.980517
H96	H	0.901746	-0.275178	-0.888507
H97	H	0.902578	-0.225343	-1.005311
O98	O	1.351811	-1.025490	-0.631950
C99	C	1.430877	-1.002897	-0.668111
H100	H	1.415379	-0.942972	-0.707685
H101	H	1.478914	-1.003670	-0.612216
H102	H	1.462272	-1.043778	-0.713669
O103	O	1.246552	-0.487219	-0.986914
C104	C	1.205794	-0.538000	-0.925339
H105	H	1.132037	-0.529844	-0.940979
H106	H	1.237612	-0.598894	-0.929760
H107	H	1.214774	-0.526326	-0.855489
H108	H	0.675569	-0.563422	-0.828647
O109	O	0.500764	-0.548948	-0.807486
C110	C	0.412289	-0.530143	-0.779836
H111	H	0.404756	-0.476254	-0.749115
H112	H	0.366192	-0.520215	-0.839436
H113	H	0.394376	-0.578752	-0.728601
H114	H	0.564058	-0.329452	-0.485235
H115	H	1.124349	-0.369055	-1.370979
O116	O	1.289167	-0.863442	-0.767374
C117	C	1.368178	-0.897702	-0.804076
H118	H	1.388583	-0.957927	-0.766601
H119	H	1.356927	-0.899789	-0.876903
H120	H	1.422914	-0.863093	-0.798405
O121	O	1.296269	-0.534883	-1.043995
C122	C	1.362950	-0.599194	-1.024033
H123	H	1.405010	-0.606795	-1.085599
H124	H	1.406782	-0.590983	-0.968584
H125	H	1.330979	-0.651808	-1.001772
H126	H	1.004829	-0.253967	-1.123556
H127	H	1.239392	-1.024928	-0.500302
O128	O	1.106539	-1.008274	-0.506738
C129	C	1.033789	-0.963993	-0.555732
H130	H	1.055972	-0.943823	-0.626232
H131	H	0.979377	-0.999685	-0.557674
H132	H	1.007192	-0.912667	-0.522911
O133	O	1.251383	-0.897046	-0.492088
C134	C	1.308008	-0.852262	-0.542437
H135	H	1.269984	-0.815044	-0.601422
H136	H	1.333083	-0.814687	-0.499263
H137	H	1.366743	-0.890840	-0.567340
H138	H	1.037098	-0.285018	-1.270437
H139	H	1.341496	-0.890936	-0.645724
