data_functionalizedCrystal
_audit_creation_method	'MofGen! by Chris Wilmer'
_symmetry_space_group_name_H-M	'P1'
_symmetry_Int_Tables_number	1
_symmetry_cell_setting	triclinic
loop_
_symmetry_equiv_pos_as_xyz
  x,y,z
_cell_length_a	16.992694
_cell_length_b	15.995350
_cell_length_c	16.053802
_cell_angle_alpha	92.567808
_cell_angle_beta	87.249047
_cell_angle_gamma	87.080299
loop_
_atom_site_label
_atom_site_type_symbol
_atom_site_fract_x
_atom_site_fract_y
_atom_site_fract_z
O1	O	1.043694	0.174244	-0.069318
O2	O	1.543694	0.674244	0.430682
O3	O	0.815410	0.172295	-0.069342
O4	O	1.315410	0.672295	0.430658
O5	O	0.935792	0.051799	-0.069329
O6	O	1.435792	0.551799	0.430671
O7	O	0.923312	0.294739	-0.069332
O8	O	1.423312	0.794739	0.430668
O9	O	0.929166	0.058403	0.069530
O10	O	1.429166	0.558403	0.569530
O11	O	0.808784	0.178898	0.069516
O12	O	1.308784	0.678898	0.569516
O13	O	1.037068	0.180847	0.069540
O14	O	1.537068	0.680847	0.569540
Zn15	Zn	0.921874	0.180921	0.091575
Zn16	Zn	1.421874	0.680921	0.591575
Zn17	Zn	0.930604	0.172221	-0.091377
Zn18	Zn	1.430604	0.672221	0.408623
O19	O	0.916685	0.301343	0.069527
O20	O	1.416685	0.801343	0.569527
C21	C	0.782884	0.173091	0.000083
C22	C	1.282884	0.673091	0.500083
C23	C	0.695841	0.165614	0.000074
C24	C	1.195841	0.665614	0.500074
C25	C	0.645600	0.237749	0.000074
C26	C	1.145600	0.737749	0.500074
C27	C	0.563813	0.230720	0.000085
C28	C	1.063813	0.730720	0.500085
C29	C	0.532268	0.151555	0.000091
C30	C	1.032268	0.651555	0.500091
C31	C	0.582515	0.079414	0.000094
C32	C	1.082515	0.579414	0.500094
C33	C	0.664300	0.086444	0.000088
C34	C	1.164300	0.586444	0.500088
C35	C	0.288669	0.122417	0.000114
C36	C	0.788669	0.622417	0.500114
C37	C	0.206878	0.115392	0.000117
C38	C	0.706878	0.615392	0.500117
C39	C	0.188181	0.266699	0.000110
C40	C	0.688181	0.766699	0.500110
C41	C	0.269969	0.273722	0.000099
C42	C	0.769969	0.773722	0.500099
C43	C	0.320209	0.201582	0.000106
C44	C	0.820209	0.701582	0.500106
N45	N	0.448669	0.144368	0.000100
N46	N	0.948669	0.644368	0.500100
N47	N	0.403806	0.208770	0.000103
N48	N	0.903806	0.708770	0.500103
C49	C	0.931963	0.023872	0.000099
C50	C	1.431963	0.523872	0.500099
C51	C	0.930417	-0.069182	0.000094
C52	C	1.430417	0.430818	0.500094
C53	C	0.924861	-0.407302	0.000096
C54	C	1.424861	0.092698	0.500096
C55	C	0.839142	-0.365620	-0.000225
C56	C	1.339142	0.134380	0.499775
C57	C	0.840674	-0.268811	0.000089
C58	C	1.340674	0.231189	0.500089
C59	C	0.927617	-0.239557	0.000095
C60	C	1.427617	0.260443	0.500095
C61	C	0.966120	-0.274034	0.079392
C62	C	1.466120	0.225966	0.579392
C63	C	0.963963	-0.370810	0.079459
C64	C	1.463963	0.129190	0.579459
C65	C	0.973269	-0.378559	-0.078449
C66	C	1.473269	0.121441	0.421551
C67	C	0.973299	-0.281665	-0.079497
C68	C	1.473299	0.218335	0.420503
C69	C	0.929179	-0.144755	0.000096
C70	C	1.429179	0.355245	0.500096
C71	C	0.923302	-0.502103	0.000100
C72	C	1.423302	-0.002103	0.500100
C73	C	1.069593	0.180051	0.000113
C74	C	1.569593	0.680051	0.500113
C75	C	1.156637	0.187528	0.000117
C76	C	1.656637	0.687528	0.500117
C77	C	0.920515	0.329270	0.000097
C78	C	1.420515	0.829270	0.500097
C79	C	0.922061	0.422324	0.000097
C80	C	1.422061	0.922324	0.500097
N81	N	0.915921	0.186859	0.216434
N82	N	1.415921	0.686859	0.716434
N83	N	0.936563	0.166277	-0.216236
N84	N	1.436563	0.666277	0.283764
C85	C	0.967163	0.135608	0.260134
C86	C	1.467163	0.635608	0.760134
C87	C	0.963006	0.139770	0.347541
C88	C	1.463006	0.639770	0.847541
C89	C	0.907611	0.195187	0.391245
C90	C	1.407611	0.695187	0.891245
C91	C	0.856364	0.246439	0.347539
C92	C	1.356364	0.746439	0.847539
C93	C	0.860518	0.242273	0.260135
C94	C	1.360518	0.742273	0.760135
C95	C	0.889469	0.213363	0.652653
C96	C	1.389469	0.713363	1.152653
C97	C	0.885321	0.217528	0.740064
C98	C	1.385321	0.717528	1.240064
C99	C	0.991962	0.110857	0.740059
C100	C	1.491962	0.610857	1.240059
C101	C	0.996114	0.106699	0.652652
C102	C	1.496114	0.606699	1.152652
C103	C	0.944864	0.157948	0.608954
C104	C	1.444864	0.657948	1.108954
N105	N	0.903363	0.199444	0.480589
N106	N	1.403363	0.699444	0.980589
N107	N	0.949109	0.153686	0.519612
N108	N	1.449109	0.653686	1.019612
H109	H	0.181198	0.050923	0.000121
H110	H	0.681198	0.550923	0.500121
C111	C	0.547822	-0.007668	0.000099
C112	C	1.047822	0.492332	0.500099
H113	H	0.589459	-0.049622	0.000106
H114	H	1.089459	0.450378	0.500106
H115	H	0.518610	-0.015859	-0.048322
H116	H	1.018610	0.484141	0.451678
H117	H	0.514002	-0.011251	0.048530
H118	H	1.014002	0.488749	0.548530
H119	H	0.147268	0.325432	0.000106
H120	H	0.647268	0.825432	0.500106
C121	C	0.719565	0.007095	0.000080
C122	C	1.219565	0.507095	0.500080
H123	H	0.689067	-0.041061	0.000075
H124	H	1.189067	0.458939	0.500075
H125	H	0.749557	0.008993	0.048499
H126	H	1.249557	0.508993	0.548499
H127	H	0.754159	0.004392	-0.048353
H128	H	1.254159	0.504392	0.451647
C129	C	1.048326	0.054478	0.788124
C130	C	1.548326	0.554478	1.288124
H131	H	1.081914	0.020881	0.749576
H132	H	1.581914	0.520881	1.249576
H133	H	1.018502	0.019345	0.822229
H134	H	1.518502	0.519345	1.322229
H135	H	1.079348	0.088430	0.822212
H136	H	1.579348	0.588430	1.322212
C137	C	0.343922	0.043066	0.000116
C138	C	0.843922	0.543066	0.500116
H139	H	0.313420	-0.005087	0.000111
H140	H	0.813420	0.494913	0.500111
H141	H	0.373911	0.044963	0.048538
H142	H	0.873911	0.544963	0.548538
H143	H	0.378520	0.040357	-0.048314
H144	H	0.878520	0.540357	0.451686
H145	H	0.295647	0.338187	0.000085
H146	H	0.795647	0.838187	0.500085
H147	H	0.810146	-0.245316	-0.056756
H148	H	1.310146	0.254684	0.443244
H149	H	1.036930	-0.262288	-0.084280
H150	H	1.536930	0.237712	0.415720
C151	C	0.508549	0.310066	0.000077
C152	C	1.008549	0.810066	0.500077
H153	H	0.455322	0.294544	0.000089
H154	H	0.955322	0.794544	0.500089
H155	H	0.520415	0.339993	-0.048351
H156	H	1.020415	0.839993	0.451649
H157	H	0.515807	0.344610	0.048501
H158	H	1.015807	0.844610	0.548501
C159	C	0.796506	-0.397412	-0.077037
C160	C	1.296506	0.102588	0.422963
H161	H	0.830596	-0.436395	-0.109599
H162	H	1.330596	0.063605	0.390401
H163	H	0.782296	-0.351445	-0.109693
H164	H	1.282296	0.148555	0.390307
H165	H	0.750325	-0.424033	-0.059203
H166	H	1.250325	0.075967	0.440797
H167	H	0.948107	-0.403833	-0.138552
H168	H	1.448107	0.096167	0.361448
H169	H	1.004731	0.098037	0.383120
H170	H	1.504731	0.598037	0.883120
C171	C	1.057044	0.045735	0.604583
C172	C	1.557044	0.545735	1.104583
H173	H	1.086962	0.015802	0.643128
H174	H	1.586962	0.515802	1.143128
H175	H	1.091300	0.076432	0.570476
H176	H	1.591300	0.576432	1.070476
H177	H	1.030453	0.007348	0.570497
H178	H	1.530453	0.507348	1.070497
C179	C	1.052219	-0.248995	0.083390
C180	C	1.552219	0.251005	0.583390
H181	H	1.074366	-0.270483	0.131799
H182	H	1.574366	0.229517	0.631799
H183	H	1.053609	-0.189645	0.085766
H184	H	1.553609	0.310355	0.585766
H185	H	1.081805	-0.271429	0.035070
H186	H	1.581805	0.228571	0.535070
H187	H	1.036506	-0.406115	-0.078977
H188	H	1.536506	0.093885	0.421023
H189	H	1.012274	0.090486	0.224555
H190	H	1.512274	0.590486	0.724555
C191	C	0.824384	0.278486	0.788142
C192	C	1.324384	0.778486	1.288142
H193	H	0.829259	0.273633	0.846455
H194	H	1.329259	0.773633	1.346455
H195	H	0.772736	0.265175	0.773832
H196	H	1.272736	0.765175	1.273832
H197	H	0.833579	0.334264	0.773808
H198	H	1.333579	0.834264	1.273808
C199	C	0.804155	0.298651	0.212065
C200	C	1.304155	0.798651	0.712065
H201	H	0.770574	0.332259	0.250611
H202	H	1.270574	0.832259	0.750611
H203	H	0.773139	0.264702	0.177976
H204	H	1.273139	0.764702	0.677976
H205	H	0.833984	0.333789	0.177961
H206	H	1.333984	0.833789	0.677961
C207	C	0.922642	-0.234568	0.159110
C208	C	1.422642	0.265432	0.659110
H209	H	0.946380	-0.255825	0.206765
H210	H	1.446380	0.244175	0.706765
H211	H	0.868836	-0.248103	0.159817
H212	H	1.368836	0.251897	0.659817
H213	H	0.925899	-0.175424	0.159931
H214	H	1.425899	0.324576	0.659931
H215	H	0.802329	-0.384808	0.056318
H216	H	1.302329	0.115192	0.556318
H217	H	0.930299	-0.388357	0.138731
H218	H	1.430299	0.111643	0.638731
H219	H	0.804493	-0.240478	0.057023
H220	H	1.304493	0.259522	0.557023
H221	H	0.945181	-0.259275	-0.138159
H222	H	1.445181	0.240725	0.361841
C223	C	0.833103	0.269743	0.604596
C224	C	1.333103	0.769743	1.104596
H225	H	0.799525	0.303349	0.643145
H226	H	1.299525	0.803349	1.143145
H227	H	0.802083	0.235797	0.570507
H228	H	1.302083	0.735797	1.070507
H229	H	0.862931	0.304881	0.570492
H230	H	1.362931	0.804881	1.070492
C231	C	1.048758	-0.408457	0.084341
C232	C	1.548758	0.091543	0.584341
H233	H	1.084370	-0.364592	0.086282
H234	H	1.584370	0.135408	0.586282
H235	H	1.061856	-0.444525	0.036529
H236	H	1.561856	0.055475	0.536529
H237	H	1.052362	-0.439468	0.133242
H238	H	1.552362	0.060532	0.633242
C239	C	0.795407	0.307371	0.395609
C240	C	1.295407	0.807371	0.895609
H241	H	0.765472	0.337284	0.357062
H242	H	1.265472	0.837284	0.857062
H243	H	0.821964	0.345767	0.429710
H244	H	1.321964	0.845767	0.929710
H245	H	0.761158	0.276642	0.429700
H246	H	1.261158	0.776642	0.929700
C247	C	0.680292	0.324832	0.000067
C248	C	1.180292	0.824832	0.500067
H249	H	0.638654	0.366786	0.000076
H250	H	1.138654	0.866786	0.500076
H251	H	0.714111	0.328419	-0.048358
H252	H	1.214111	0.828419	0.451642
H253	H	0.709503	0.333022	0.048494
H254	H	1.209503	0.833022	0.548494
