data_functionalizedCrystal
_audit_creation_method	'MofGen! by Chris Wilmer'
_symmetry_space_group_name_H-M	'P1'
_symmetry_Int_Tables_number	1
_symmetry_cell_setting	triclinic
loop_
_symmetry_equiv_pos_as_xyz
  x,y,z
_cell_length_a	11.169416
_cell_length_b	11.169417
_cell_length_c	17.077396
_cell_angle_alpha	89.986007
_cell_angle_beta	89.976500
_cell_angle_gamma	90.011219
loop_
_atom_site_label
_atom_site_type_symbol
_atom_site_fract_x
_atom_site_fract_y
_atom_site_fract_z
Zn1	Zn	-0.477769	1.834893	-0.443806
Zn2	Zn	-0.678484	1.834803	-0.312554
Zn3	Zn	-0.477816	1.634200	-0.312562
Zn4	Zn	-0.678412	1.634187	-0.443785
O5	O	-0.578120	1.734521	-0.378177
O6	O	-0.504405	2.002831	-0.426401
O7	O	-0.651915	1.808160	-0.202708
O8	O	-0.309861	1.660865	-0.329984
O9	O	-0.651869	2.002765	-0.329970
O10	O	-0.309826	1.808314	-0.426409
O11	O	-0.504485	1.660778	-0.202714
O12	O	-0.504416	1.466248	-0.329963
O13	O	-0.651746	1.660843	-0.553635
O14	O	-0.651792	1.466239	-0.426372
O15	O	-0.504335	1.808301	-0.553650
O16	O	-0.846424	1.808148	-0.329949
O17	O	-0.846371	1.660756	-0.426364
C18	C	-0.578102	1.422696	-0.378167
C19	C	-0.578123	1.289296	-0.378181
C20	C	-0.889945	1.734473	-0.378171
C21	C	-1.023345	1.734562	-0.378194
C22	C	-0.265078	1.734601	-0.378200
C23	C	-0.131678	1.734635	-0.378210
C24	C	-0.578027	1.734581	-0.582921
C25	C	-0.577988	1.734607	-0.670171
C26	C	-0.578140	2.047563	-0.378187
C27	C	-0.578148	2.180963	-0.378192
C28	C	-0.501212	1.657888	-0.711163
C29	C	-0.501185	1.657907	-0.793144
C30	C	-0.577928	1.734653	-0.834130
C31	C	-0.654712	1.811375	-0.793132
C32	C	-0.654745	1.811348	-0.711153
C33	C	-0.654637	1.811427	-0.964002
C34	C	-0.654604	1.811455	-1.045987
C35	C	-0.501077	1.657986	-1.045993
C36	C	-0.501110	1.657959	-0.964014
C37	C	-0.577893	1.734683	-0.923021
C38	C	-0.578126	1.734530	-0.174229
C39	C	-0.577828	1.734736	-0.086979
H40	H	-0.438712	1.595400	-0.677798
H41	H	-0.717152	1.873914	-0.930628
C42	C	-0.349420	1.506227	-0.784916
C43	C	-0.416782	1.573584	-0.838203
H44	H	-0.297306	1.454173	-0.812735
H45	H	-0.401715	1.460293	-0.752936
H46	H	-0.303536	1.558540	-0.752946
H47	H	-0.462673	1.521271	-0.870169
H48	H	-0.364480	1.619522	-0.870196
H49	H	-0.717254	1.873830	-0.677778
H50	H	-0.717204	1.873856	-0.826510
C51	C	-0.432889	1.589834	-1.171660
C52	C	-0.416699	1.573624	-1.091049
H53	H	-0.380806	1.537746	-1.199476
H54	H	-0.415309	1.670466	-1.185103
H55	H	-0.513531	1.572262	-1.185071
H56	H	-0.336059	1.591204	-1.077638
H57	H	-0.434271	1.492973	-1.077601
C58	C	-0.806382	1.963131	-1.037751
C59	C	-0.738969	1.895805	-1.091041
H60	H	-0.858471	2.015199	-1.065567
H61	H	-0.754117	2.009050	-1.005783
H62	H	-0.852294	1.910801	-1.005769
H63	H	-0.693050	1.948135	-1.123019
H64	H	-0.791241	1.849883	-1.123022
H65	H	-0.438613	1.595472	-0.930645
