data_functionalizedCrystal
_audit_creation_method	'MofGen! by Chris Wilmer'
_symmetry_space_group_name_H-M	'P1'
_symmetry_Int_Tables_number	1
_symmetry_cell_setting	triclinic
loop_
_symmetry_equiv_pos_as_xyz
  x,y,z
_cell_length_a	10.967874
_cell_length_b	15.995350
_cell_length_c	10.066280
_cell_angle_alpha	99.831136
_cell_angle_beta	87.774848
_cell_angle_gamma	84.114732
loop_
_atom_site_label
_atom_site_type_symbol
_atom_site_fract_x
_atom_site_fract_y
_atom_site_fract_z
O1	O	1.585698	0.070085	-0.486388
O2	O	1.234293	0.089371	-0.403750
O3	O	1.419602	-0.042323	-0.447327
O4	O	1.400390	0.201778	-0.442811
O5	O	1.451189	-0.020951	-0.227781
O6	O	1.265880	0.110742	-0.184204
O7	O	1.617285	0.091456	-0.266842
Zn8	Zn	1.446598	0.104492	-0.190666
Zn9	Zn	1.404981	0.076335	-0.479927
O10	O	1.431977	0.223149	-0.223266
C11	C	1.205119	0.100268	-0.283403
C12	C	1.071130	0.100888	-0.251893
C13	C	0.995030	0.090093	-0.351577
C14	C	0.856545	0.090734	-0.319013
C15	C	1.434601	-0.062818	-0.337370
C16	C	1.432218	-0.155729	-0.336817
C17	C	1.423668	-0.493331	-0.334802
C18	C	1.291624	-0.443708	-0.304259
C19	C	1.294076	-0.347010	-0.304324
C20	C	1.427909	-0.325843	-0.335802
C21	C	1.511040	-0.355820	-0.225741
C22	C	1.507740	-0.452390	-0.224856
C23	C	1.474546	-0.477097	-0.475162
C24	C	1.474276	-0.380312	-0.476811
C25	C	1.430314	-0.231186	-0.336365
C26	C	1.421268	-0.587988	-0.334231
C27	C	1.646459	0.080559	-0.387193
C28	C	1.780447	0.079938	-0.418711
C29	C	1.416977	0.243645	-0.333226
C30	C	1.419358	0.336555	-0.333787
N31	N	1.475009	0.123708	0.006745
N32	N	1.376579	0.057112	-0.677340
C33	C	1.436738	0.097804	0.240706
C34	C	1.414841	0.083010	0.088698
H35	H	0.819177	0.100455	-0.209555
H36	H	1.413341	-0.361285	-0.558364
H37	H	1.504448	0.143598	0.283078
Br38	Br	1.301959	0.006691	0.018101
Br39	Br	1.587875	0.200040	0.077343
H40	H	1.308858	0.011325	0.280290
H41	H	1.032403	0.080382	-0.461027
Br42	Br	1.008851	0.117092	-0.069461
Br43	Br	0.842711	0.063759	-0.601151
H44	H	1.417726	-0.506155	-0.560037
H45	H	1.229978	-0.326468	-0.382160
H46	H	1.473757	-0.460764	-0.119975
H47	H	1.225940	-0.470096	-0.381759
H48	H	1.251972	-0.453708	-0.202506
H49	H	1.605451	-0.485727	-0.241958
Br50	Br	1.229798	-0.284497	-0.134092
H51	H	1.610034	-0.342908	-0.244205
H52	H	1.479252	-0.317590	-0.121810
Br53	Br	1.635126	-0.358692	-0.527703
H54	H	1.571727	-0.510590	-0.498891
