data_functionalizedCrystal
_audit_creation_method	'MofGen! by Chris Wilmer'
_symmetry_space_group_name_H-M	'P1'
_symmetry_Int_Tables_number	1
_symmetry_cell_setting	triclinic
loop_
_symmetry_equiv_pos_as_xyz
  x,y,z
_cell_length_a	17.019383
_cell_length_b	17.019294
_cell_length_c	15.186229
_cell_angle_alpha	86.117288
_cell_angle_beta	86.120670
_cell_angle_gamma	83.133350
loop_
_atom_site_label
_atom_site_type_symbol
_atom_site_fract_x
_atom_site_fract_y
_atom_site_fract_z
O1	O	1.046551	0.100555	-0.160135
O2	O	0.816874	0.113357	-0.143708
O3	O	0.938120	-0.007884	-0.143695
O4	O	0.925305	0.221796	-0.160148
O5	O	0.938112	-0.007885	0.002763
O6	O	0.816866	0.113356	0.002750
O7	O	1.046542	0.100553	-0.013677
Zn8	Zn	0.931703	0.106954	0.017790
Zn9	Zn	0.931714	0.106956	-0.175175
O10	O	0.925297	0.221794	-0.013690
C11	C	0.787482	0.112869	-0.068216
C12	C	0.699915	0.111407	-0.061472
C13	C	0.937630	-0.037273	-0.068201
C14	C	0.936172	-0.124842	-0.061453
C15	C	0.658772	0.110723	-0.138131
C16	C	0.576492	0.109362	-0.131782
C17	C	0.535356	0.108679	-0.048773
C18	C	0.576504	0.109365	0.027892
C19	C	0.658782	0.110732	0.021542
C20	C	0.286928	0.104557	-0.025606
C21	C	0.204644	0.103188	-0.019262
C22	C	0.204638	0.103185	-0.178937
C23	C	0.286919	0.104547	-0.185279
C24	C	0.328059	0.105238	-0.108615
C25	C	0.451252	0.107285	-0.042281
C26	C	0.412160	0.106638	-0.115108
C27	C	0.935494	-0.165976	-0.138116
C28	C	0.934119	-0.248256	-0.131772
C29	C	0.933429	-0.289400	-0.048765
C30	C	0.934105	-0.248259	0.027905
C31	C	0.935474	-0.165981	0.021560
C32	C	0.929290	-0.537828	-0.025615
C33	C	0.927923	-0.620113	-0.019276
C34	C	0.927936	-0.620104	-0.178954
C35	C	0.929310	-0.537824	-0.185292
C36	C	0.929982	-0.496690	-0.108622
C37	C	0.932026	-0.373503	-0.042279
C38	C	0.931378	-0.412588	-0.115109
C39	C	1.075935	0.101041	-0.089171
C40	C	1.163502	0.102503	-0.095921
C41	C	0.925787	0.251183	-0.089186
C42	C	0.927245	0.338752	-0.095940
N43	N	0.931702	0.106952	0.149483
N44	N	0.931721	0.106952	-0.306868
C45	C	0.985407	0.053285	0.375209
C46	C	0.985410	0.053283	0.467398
C47	C	0.878010	0.160622	0.467400
C48	C	0.878004	0.160620	0.375213
C49	C	0.931707	0.106952	0.329119
C50	C	0.931716	0.106952	0.513496
C51	C	0.931718	0.106951	0.613452
C52	C	0.931704	0.106952	0.229157
H53	H	0.692260	0.111276	-0.205726
Cl54	Cl	0.933227	-0.299982	0.132259
Cl55	Cl	0.338627	0.105401	-0.289638
Cl56	Cl	0.933267	-0.299965	-0.228155
H57	H	0.927357	-0.653610	0.048322
Cl58	Cl	0.524773	0.108502	-0.228159
H59	H	0.417750	0.106727	0.025306
H60	H	0.834287	0.204318	0.504938
Cl61	Cl	1.052917	-0.014187	0.317267
H62	H	0.171133	0.102625	-0.241353
H63	H	0.171151	0.102654	0.048337
Cl64	Cl	0.338636	0.105424	0.070774
H65	H	0.692278	0.111293	0.083966
H66	H	0.936015	-0.132488	0.083989
H67	H	0.445656	0.107198	-0.182694
Cl68	Cl	0.524789	0.108513	0.132248
H69	H	0.834272	0.204322	0.337684
H70	H	0.929873	-0.504330	-0.252885
Cl71	Cl	1.052919	-0.014189	0.525338
H72	H	0.931466	-0.407012	0.025307
Cl73	Cl	0.936367	-0.114261	-0.242475
Cl74	Cl	0.932251	-0.360863	-0.219458
Cl75	Cl	0.927089	-0.671820	-0.275332
H76	H	0.929853	-0.504349	0.036814
