data_functionalizedCrystal
_audit_creation_method	'MofGen! by Chris Wilmer'
_symmetry_space_group_name_H-M	'P1'
_symmetry_Int_Tables_number	1
_symmetry_cell_setting	triclinic
loop_
_symmetry_equiv_pos_as_xyz
  x,y,z
_cell_length_a	14.472310
_cell_length_b	19.288862
_cell_length_c	19.288865
_cell_angle_alpha	96.864237
_cell_angle_beta	90.006324
_cell_angle_gamma	89.970338
loop_
_atom_site_label
_atom_site_type_symbol
_atom_site_fract_x
_atom_site_fract_y
_atom_site_fract_z
O1	O	0.077208	-0.921359	0.086635
O2	O	0.077133	-0.719098	0.098326
O3	O	0.077154	-0.826072	-0.008650
O4	O	0.077187	-0.814384	0.193611
O5	O	-0.076528	-0.826045	-0.008644
O6	O	-0.076549	-0.719070	0.098332
O7	O	-0.076474	-0.921331	0.086641
Cu8	Cu	-0.090544	-0.820198	0.092487
Cu9	Cu	0.091203	-0.820231	0.092480
O10	O	-0.076495	-0.814356	0.193617
C11	C	0.000282	-0.693207	0.097953
C12	C	0.000253	-0.616104	0.096824
N13	N	-0.218375	-0.820180	0.092492
C14	C	0.000310	-0.825683	-0.034523
C15	C	0.000302	-0.824554	-0.111627
C16	C	-0.592466	-0.820230	0.092477
C17	C	-0.553312	-0.762799	0.149527
C18	C	-0.446224	-0.762930	0.149734
C19	C	-0.406875	-0.820205	0.092484
C20	C	-0.445682	-0.892629	0.108086
C21	C	-0.552803	-0.892306	0.108492
C22	C	-0.553014	-0.805883	0.019655
C23	C	-0.445887	-0.804219	0.020146
C24	C	-0.301987	-0.820195	0.092487
C25	C	-0.697354	-0.820244	0.092476
N26	N	0.219034	-0.820254	0.092469
C27	C	0.000275	-0.571407	0.159593
C28	C	0.000280	-0.498960	0.158533
C29	C	0.000282	-0.471213	0.094701
C30	C	0.000255	-0.515919	0.031924
C31	C	0.000240	-0.588364	0.032986
C32	C	0.054139	-0.362960	0.044520
C33	C	0.054160	-0.290516	0.043461
C34	C	0.000323	-0.247767	0.091423
C35	C	-0.053523	-0.277470	0.140456
C36	C	-0.053537	-0.349916	0.141518
C37	C	0.000297	-0.392659	0.093542
C38	C	0.000349	-0.124514	0.153046
C39	C	0.000349	-0.052066	0.151983
C40	C	0.000333	-0.069027	0.025373
C41	C	0.000324	-0.141473	0.026438
C42	C	0.000336	-0.169212	0.090276
C43	C	0.000362	0.052779	0.087016
C44	C	0.000349	-0.024324	0.088151
C45	C	0.000321	-0.887322	-0.156324
C46	C	0.000335	-0.886261	-0.228771
C47	C	0.000312	-0.822429	-0.256518
C48	C	0.000298	-0.759652	-0.211811
C49	C	0.000293	-0.760715	-0.139366
C50	C	-0.053538	-0.772239	-0.364803
C51	C	-0.053539	-0.771180	-0.437247
C52	C	0.000331	-0.819149	-0.479963
C53	C	0.054190	-0.868190	-0.450228
C54	C	0.054185	-0.869253	-0.377782
C55	C	0.000318	-0.821270	-0.335072
C56	C	0.000367	-0.880771	-0.603216
C57	C	0.000387	-0.879708	-0.675664
C58	C	0.000341	-0.753098	-0.658703
C59	C	0.000330	-0.754163	-0.586257
C60	C	0.000339	-0.818001	-0.558518
C61	C	0.000350	-0.814746	0.219490
C62	C	0.000365	-0.815875	0.296594
H63	H	-0.419990	-0.709088	0.140471
H64	H	0.000286	-0.593988	0.211575
Br65	Br	-0.403623	-0.715423	0.000399
H66	H	0.000331	-0.939304	-0.133744
Br67	Br	0.000422	-0.964901	-0.736327
H68	H	-0.419106	-0.843350	-0.024280
H69	H	-0.579122	-0.708782	0.140420
H70	H	-0.097383	-0.374097	0.181440
Br71	Br	-0.403202	-0.965549	0.040656
Br72	Br	-0.400929	-0.914278	0.195581
Br73	Br	-0.595210	-0.875692	-0.051102
H74	H	0.000311	-0.177866	-0.024675
Br75	Br	0.000319	-0.666466	-0.696351
H76	H	0.000310	-0.703050	-0.549863
H77	H	-0.577764	-0.904983	0.161594
H78	H	-0.580104	-0.754230	0.004596
H79	H	0.000295	-0.462562	0.209648
H80	H	-0.097362	-0.242665	0.179511
Br81	Br	0.000364	-0.971452	-0.289443
Br82	Br	0.000359	-0.162165	0.239681
H83	H	0.000361	-0.015674	0.203099
H84	H	-0.097389	-0.731244	-0.461451
H85	H	0.000223	-0.624757	-0.018129
H86	H	0.000392	-0.046435	-0.026600
Br87	Br	0.127247	-0.250210	-0.023074
H88	H	0.000378	-0.932752	-0.580630
H89	H	-0.580208	-0.771809	0.203268
H90	H	0.000281	-0.707680	-0.234407
H91	H	0.097985	-0.397761	0.005462
H92	H	0.000269	-0.493322	-0.020048
H93	H	-0.097411	-0.733175	-0.330028
H94	H	-0.420576	-0.772068	0.203779
H95	H	0.098041	-0.909182	-0.353575
H96	H	0.098057	-0.907251	-0.485006
Br97	Br	-0.595972	-0.965584	0.041774
Br98	Br	0.000270	-0.675523	-0.078701
