data_functionalizedCrystal
_audit_creation_method	'MofGen! by Chris Wilmer'
_symmetry_space_group_name_H-M	'P1'
_symmetry_Int_Tables_number	1
_symmetry_cell_setting	triclinic
loop_
_symmetry_equiv_pos_as_xyz
  x,y,z
_cell_length_a	16.120484
_cell_length_b	25.639242
_cell_length_c	16.120297
_cell_angle_alpha	87.130267
_cell_angle_beta	84.385569
_cell_angle_gamma	92.921537
loop_
_atom_site_label
_atom_site_type_symbol
_atom_site_fract_x
_atom_site_fract_y
_atom_site_fract_z
Zn1	Zn	-0.356854	0.772386	0.489650
Zn2	Zn	-0.489544	0.772320	0.356960
Zn3	Zn	-0.349779	0.689623	0.349875
Zn4	Zn	-0.496572	0.680262	0.496659
O5	O	-0.423187	0.728648	0.423286
O6	O	-0.374475	0.845541	0.472080
O7	O	-0.465101	0.765240	0.239059
O8	O	-0.233753	0.704547	0.362517
O9	O	-0.471962	0.845493	0.374593
O10	O	-0.238951	0.765353	0.465209
O11	O	-0.362416	0.704483	0.233854
O12	O	-0.369231	0.615218	0.369314
O13	O	-0.483941	0.688592	0.612690
O14	O	-0.477080	0.608340	0.477156
O15	O	-0.381290	0.756276	0.607540
O16	O	-0.607441	0.756163	0.381390
O17	O	-0.612605	0.688528	0.484027
C18	C	-0.423151	0.592808	0.423228
C19	C	-0.423157	0.534694	0.423223
C20	C	-0.640351	0.721336	0.434256
C21	C	-0.733256	0.718255	0.438977
C22	C	-0.903356	0.712633	0.447614
C23	C	-0.942179	0.744756	0.398972
C24	C	-1.036828	0.741627	0.403777
C25	C	-0.808698	0.715761	0.442809
C26	C	-0.479431	0.170755	0.479393
C27	C	-0.479436	0.116150	0.479406
O28	O	-0.527239	0.084875	0.527114
N29	N	-0.423213	0.092406	0.423342
C30	C	-0.366974	0.123271	0.367265
O31	O	-0.319152	0.098061	0.319579
C32	C	-0.366965	0.177874	0.367256
C33	C	-0.423198	0.201615	0.423319
C34	C	-0.535658	0.194495	0.535452
C35	C	-0.535653	0.249097	0.535437
C36	C	-0.479421	0.279957	0.479364
C37	C	-0.423193	0.256216	0.423305
C38	C	-0.310723	0.208738	0.311185
C39	C	-0.310718	0.263345	0.311181
C40	C	-0.366951	0.287086	0.367244
C41	C	-0.366955	0.341678	0.367216
N42	N	-0.423179	0.365421	0.423281
C43	C	-0.479412	0.334561	0.479355
C44	C	-0.366997	0.008598	0.367289
C45	C	-0.367009	-0.046004	0.367293
C46	C	-0.479471	-0.053122	0.479436
C47	C	-0.479461	0.001482	0.479427
C48	C	-0.423220	0.032342	0.423354
C49	C	-0.479397	0.449227	0.479319
C50	C	-0.479390	0.503834	0.479297
C51	C	-0.366926	0.510946	0.367158
C52	C	-0.366936	0.456345	0.367177
C53	C	-0.423175	0.425486	0.423264
O54	O	-0.319175	0.372985	0.319535
O55	O	-0.527219	0.359778	0.527040
C56	C	-0.205176	0.736001	0.412291
C57	C	-0.112273	0.739135	0.407606
C58	C	-0.434189	0.721397	0.641290
C59	C	-0.438877	0.718307	0.734190
C60	C	-0.423224	0.865018	0.423345
C61	C	-0.423239	0.923130	0.423370
C62	C	-0.412168	0.735902	0.206127
C63	C	-0.407244	0.739101	0.113215
C64	C	-0.447418	0.712647	0.904279
C65	C	-0.398706	0.744760	0.943132
C66	C	-0.403458	0.741610	1.037775
C67	C	-0.442667	0.715796	0.809627
H68	H	-0.904332	0.774606	0.353718
C69	C	-0.597506	0.275205	0.597116
C70	C	-0.661246	0.311737	0.564112
C71	C	-0.723100	0.337840	0.625797
C72	C	-0.721214	0.327410	0.720486
C73	C	-0.657472	0.290876	0.753494
C74	C	-0.595617	0.264773	0.691809
H75	H	-0.662644	0.319460	0.494014
H76	H	-0.770287	0.364886	0.601362
H77	H	-0.767003	0.346733	0.766149
H78	H	-0.656073	0.283153	0.823592
H79	H	-0.548431	0.237728	0.716245
H80	H	-0.941199	0.682784	0.492863
C81	C	-0.508593	0.672321	0.955354
C82	C	-0.501195	0.613500	0.943078
C83	C	-0.562376	0.573178	0.994162
C84	C	-0.630957	0.591675	1.057522
C85	C	-0.638358	0.650499	1.069800
C86	C	-0.577176	0.690821	1.018716
H87	H	-0.450425	0.599804	0.896173
H88	H	-0.556897	0.529633	0.985072
H89	H	-0.676247	0.561826	1.095337
H90	H	-0.689128	0.664195	1.116706
H91	H	-0.582656	0.734366	1.027806
H92	H	-0.525191	0.424109	0.524993
C93	C	-0.541247	0.529947	0.540973
C94	C	-0.635904	0.519473	0.538802
C95	C	-0.697758	0.545584	0.600476
C96	C	-0.664955	0.582169	0.664322
C97	C	-0.570293	0.592645	0.666496
C98	C	-0.508439	0.566534	0.604821
H99	H	-0.660191	0.492389	0.491537
H100	H	-0.767833	0.537828	0.598867
H101	H	-0.710743	0.601497	0.709978
H102	H	-0.546006	0.619729	0.713761
H103	H	-0.438364	0.574289	0.606431
C104	C	-0.597525	0.160555	0.597137
C105	C	-0.692176	0.165115	0.594947
C106	C	-0.754053	0.131179	0.656632
C107	C	-0.721277	0.092684	0.720506
C108	C	-0.626621	0.088123	0.722698
C109	C	-0.564744	0.122058	0.661014
H110	H	-0.716443	0.193613	0.547661
H111	H	-0.824124	0.134556	0.655008
H112	H	-0.767082	0.067563	0.766169
H113	H	-0.602354	0.059625	0.769984
H114	H	-0.494673	0.118681	0.662637
C115	C	-0.541325	-0.087075	0.541123
C116	C	-0.541324	-0.147137	0.541132
C117	C	-0.603175	-0.181091	0.602814
C118	C	-0.665027	-0.154984	0.664489
C119	C	-0.665030	-0.094919	0.664483
C120	C	-0.603179	-0.060964	0.602800
H121	H	-0.495535	-0.166466	0.495475
H122	H	-0.603172	-0.225555	0.602818
H123	H	-0.710813	-0.180119	0.710150
H124	H	-0.710819	-0.075590	0.710140
H125	H	-0.603182	-0.016500	0.602796
H126	H	-0.525250	0.020808	0.525079
H127	H	-0.321145	0.536082	0.321502
H128	H	-0.321227	-0.065329	0.321633
H129	H	-0.353432	0.774616	0.905316
H130	H	-0.321199	0.033722	0.321621
H131	H	-0.264934	0.189418	0.265530
H132	H	-0.264914	0.288469	0.265523
C133	C	-0.305080	0.430222	0.305515
C134	C	-0.210425	0.440696	0.307706
C135	C	-0.148559	0.414576	0.246056
C136	C	-0.181348	0.377982	0.182214
C137	C	-0.276007	0.367506	0.180021
C138	C	-0.337873	0.393626	0.241671
H139	H	-0.186149	0.467787	0.354968
H140	H	-0.078486	0.422331	0.247680
H141	H	-0.135551	0.358647	0.136577
H142	H	-0.300283	0.340416	0.132759
H143	H	-0.407946	0.385871	0.240047
