data_functionalizedCrystal
_audit_creation_method	'MofGen! by Chris Wilmer'
_symmetry_space_group_name_H-M	'P1'
_symmetry_Int_Tables_number	1
_symmetry_cell_setting	triclinic
loop_
_symmetry_equiv_pos_as_xyz
  x,y,z
_cell_length_a	16.120566
_cell_length_b	19.805406
_cell_length_c	19.805399
_cell_angle_alpha	90.014352
_cell_angle_beta	87.081380
_cell_angle_gamma	92.903291
loop_
_atom_site_label
_atom_site_type_symbol
_atom_site_fract_x
_atom_site_fract_y
_atom_site_fract_z
Zn1	Zn	-1.274699	-0.322017	0.435244
Zn2	Zn	-0.774699	0.177983	0.935244
Zn3	Zn	-1.274659	-0.435203	0.322080
Zn4	Zn	-0.774659	0.064797	0.822080
Zn5	Zn	-1.135282	-0.316289	0.316331
Zn6	Zn	-0.635282	0.183711	0.816331
Zn7	Zn	-1.135302	-0.429424	0.429492
Zn8	Zn	-0.635302	0.070576	0.929492
O9	O	-1.204985	-0.375733	0.375787
O10	O	-0.704985	0.124267	0.875787
O11	O	-1.391362	-0.341847	0.425046
O12	O	-0.891362	0.158153	0.925046
O13	O	-1.256145	-0.419451	0.226600
O14	O	-0.756145	0.080549	0.726600
O15	O	-1.153785	-0.222333	0.332106
O16	O	-0.653785	0.277667	0.832106
O17	O	-1.391332	-0.425005	0.341905
O18	O	-0.891332	0.074995	0.841905
O19	O	-1.256214	-0.226541	0.419471
O20	O	-0.756214	0.273459	0.919471
O21	O	-1.153746	-0.332085	0.222376
O22	O	-0.653746	0.167915	0.722376
O23	O	-1.018617	-0.326481	0.326528
O24	O	-0.518617	0.173519	0.826528
O25	O	-1.153818	-0.415154	0.524972
O26	O	-0.653818	0.084846	1.024972
O27	O	-1.018631	-0.409600	0.409667
O28	O	-0.518631	0.090400	0.909667
O29	O	-1.256233	-0.336243	0.529199
O30	O	-0.756233	0.163757	1.029199
O31	O	-1.256164	-0.529153	0.336327
O32	O	-0.756164	-0.029153	0.836327
O33	O	-1.153779	-0.524907	0.415242
O34	O	-0.653779	-0.024907	0.915242
C35	C	-0.988373	-0.366792	0.366850
C36	C	-0.488373	0.133208	0.866850
C37	C	-0.895705	-0.362984	0.363043
C38	C	-0.395705	0.137016	0.863043
C39	C	-1.204992	-0.551589	0.375800
C40	C	-0.704992	-0.051589	0.875800
C41	C	-1.205071	-0.626825	0.375832
C42	C	-0.705071	-0.126825	0.875832
C43	C	-1.205032	-0.375693	0.552331
C44	C	-0.705032	0.124307	1.052331
C45	C	-1.205052	-0.375675	0.627564
C46	C	-0.705052	0.124325	1.127564
C47	C	-0.726040	-0.356014	0.356098
C48	C	-0.226040	0.143986	0.856098
C49	C	-0.684771	-0.395510	0.395481
C50	C	-0.184771	0.104490	0.895481
C51	C	-0.590364	-0.391633	0.391617
C52	C	-0.090364	0.108367	0.891617
C53	C	-0.820456	-0.359891	0.359961
C54	C	-0.320456	0.140109	0.859961
C55	C	-0.422444	-0.384712	0.384748
C56	C	0.077556	0.115288	0.884748
C57	C	-0.515111	-0.388543	0.388538
C58	C	-0.015111	0.111457	0.888538
C59	C	-1.205002	-0.199191	0.375789
C60	C	-0.705002	0.300809	0.875789
C61	C	-1.205009	-0.123960	0.375790
C62	C	-0.705009	0.376040	0.875790
C63	C	-1.151686	-0.086424	0.330306
C64	C	-0.651686	0.413576	0.830306
C65	C	-1.151691	-0.015735	0.330313
C66	C	-0.651691	0.484265	0.830313
C67	C	-1.205024	0.017415	0.375803
C68	C	-0.705024	0.517415	0.875803
C69	C	-1.258349	-0.020125	0.421292
C70	C	-0.758349	0.479875	0.921292
C71	C	-1.258339	-0.090812	0.421287
C72	C	-0.758339	0.409188	0.921287
C73	C	-1.258390	0.264946	0.421313
C74	C	-0.758390	0.764946	0.921313
C75	C	-1.258398	0.335638	0.421313
C76	C	-0.758398	0.835638	0.921313
C77	C	-1.151742	0.340023	0.330340
C78	C	-0.651742	0.840023	0.830340
C79	C	-1.151732	0.269336	0.330335
C80	C	-0.651732	0.769336	0.830335
C81	C	-1.205054	0.231802	0.375826
C82	C	-0.705054	0.731802	0.875826
C83	C	-1.205047	0.155154	0.375818
C84	C	-0.705047	0.655154	0.875818
C85	C	-1.205037	0.094062	0.375808
C86	C	-0.705037	0.594062	0.875808
C87	C	-1.204987	-0.375727	0.199931
C88	C	-0.704987	0.124273	0.699931
C89	C	-1.205128	-0.375560	0.124705
C90	C	-0.705128	0.124440	0.624705
C91	C	-1.258381	-0.334584	0.665110
C92	C	-0.758381	0.165416	1.165110
C93	C	-1.258389	-0.334565	0.735799
C94	C	-0.758389	0.165435	1.235799
C95	C	-1.205073	-0.375641	0.768941
C96	C	-0.705073	0.124359	1.268941
C97	C	-1.151738	-0.416734	0.731390
C98	C	-0.651738	0.083266	1.231390
C99	C	-1.151726	-0.416749	0.660702
C100	C	-0.651726	0.083251	1.160702
C101	C	-1.151785	-0.416672	1.016465
C102	C	-0.651785	0.083328	1.516465
C103	C	-1.151803	-0.416656	1.087158
C104	C	-0.651803	0.083344	1.587158
C105	C	-1.258448	-0.334488	1.091562
C106	C	-0.758448	0.165512	1.591562
C107	C	-1.258436	-0.334503	1.020874
C108	C	-0.758436	0.165497	1.520874
C109	C	-1.205099	-0.375593	0.983329
C110	C	-0.705099	0.124407	1.483329
C111	C	-1.205089	-0.375613	0.906680
C112	C	-0.705089	0.124387	1.406680
C113	C	-1.205086	-0.375625	0.845588
C114	C	-0.705086	0.124375	1.345588
H115	H	-0.720342	-0.432235	0.432102
H116	H	-0.220342	0.067765	0.932102
C117	C	-1.010546	0.253397	0.291545
C118	C	-0.510546	0.753397	0.791545
C119	C	-1.093103	0.232898	0.280334
C120	C	-0.593103	0.732898	0.780334
H121	H	-0.974349	0.230900	0.260680
H122	H	-0.474349	0.730900	0.760680
H123	H	-1.002927	0.300862	0.285035
H124	H	-0.502927	0.800862	0.785035
H125	H	-0.998369	0.242322	0.336521
H126	H	-0.498369	0.742322	0.836521
H127	H	-1.105282	0.243978	0.235359
H128	H	-0.605282	0.743978	0.735359
H129	H	-1.100726	0.185423	0.286838
H130	H	-0.600726	0.685423	0.786838
H131	H	-0.690472	-0.319292	0.319480
H132	H	-0.190472	0.180708	0.819480
H133	H	-1.108259	-0.113410	0.293261
H134	H	-0.608259	0.386590	0.793261
H135	H	-1.301771	0.006870	0.458333
H136	H	-0.801771	0.506870	0.958333
H137	H	-1.108367	-0.450141	0.985905
H138	H	-0.608367	0.049859	1.485905
H139	H	-1.108271	0.014826	0.293277
H140	H	-0.608271	0.514826	0.793277
H141	H	-1.301754	-0.121373	0.458330
H142	H	-0.801754	0.378627	0.958330
H143	H	-1.108324	-0.450176	0.758379
H144	H	-0.608324	0.049824	1.258379
C145	C	-1.269993	-0.243948	0.941869
C146	C	-0.769993	0.256052	1.441869
C147	C	-1.317034	-0.289340	0.984449
C148	C	-0.817034	0.210660	1.484449
H149	H	-1.306167	-0.216064	0.919382
H150	H	-0.806167	0.283936	1.419382
H151	H	-1.233678	-0.216565	0.967951
H152	H	-0.733678	0.283435	1.467951
H153	H	-1.238241	-0.268432	0.909390
H154	H	-0.738241	0.231568	1.409390
H155	H	-1.348782	-0.264856	1.016932
H156	H	-0.848782	0.235144	1.516932
H157	H	-1.353364	-0.316726	0.958366
H158	H	-0.853364	0.183274	1.458366
C159	C	-1.104381	0.450329	0.289951
C160	C	-0.604381	0.950329	0.789951
C161	C	-1.093119	0.381284	0.280340
C162	C	-0.593119	0.881284	0.780340
H163	H	-1.068188	0.475799	0.259085
H164	H	-0.568188	0.975799	0.759085
H165	H	-1.160390	0.459597	0.282356
H166	H	-0.660390	0.959597	0.782356
H167	H	-1.092189	0.462418	0.334927
H168	H	-0.592189	0.962418	0.834927
H169	H	-1.105317	0.369194	0.235365
H170	H	-0.605317	0.869194	0.735365
H171	H	-1.037098	0.372011	0.287930
H172	H	-0.537098	0.872011	0.787930
C173	C	-1.299065	0.241546	0.537598
C174	C	-0.799065	0.741546	1.037598
C175	C	-1.317023	0.223701	0.471306
C176	C	-0.817023	0.723701	0.971306
H177	H	-1.335273	0.216085	0.568460
H178	H	-0.835273	0.716085	1.068460
H179	H	-1.243063	0.232263	0.545200
H180	H	-0.743063	0.732263	1.045200
H181	H	-1.306693	0.288392	0.544096
H182	H	-0.806693	0.788392	1.044096
H183	H	-1.309388	0.176856	0.464807
H184	H	-0.809388	0.676856	0.964807
H185	H	-1.373038	0.232979	0.463701
H186	H	-0.873038	0.732979	0.963701
H187	H	-1.301830	0.362628	0.458359
H188	H	-0.801830	0.862628	0.958359
C189	C	-1.363793	-0.253355	0.676571
C190	C	-0.863793	0.246645	1.176571
C191	C	-1.316987	-0.289429	0.628684
C192	C	-0.816987	0.210571	1.128684
H193	H	-1.399969	-0.225474	0.654083
H194	H	-0.899969	0.274526	1.154083
H195	H	-1.395685	-0.284155	0.705456
H196	H	-0.895685	0.215845	1.205456
H197	H	-1.327465	-0.225963	0.702643
H198	H	-0.827465	0.274037	1.202643
H199	H	-1.353315	-0.316826	0.602615
H200	H	-0.853315	0.183174	1.102615
H201	H	-1.285092	-0.258626	0.599787
H202	H	-0.785092	0.241374	1.099787
H203	H	-1.108383	-0.450106	1.114140
H204	H	-0.608383	0.049894	1.614140
C205	C	-1.269988	-0.243966	0.815754
C206	C	-0.769988	0.256034	1.315754
C207	C	-1.317006	-0.289387	0.777063
C208	C	-0.817006	0.210613	1.277063
H209	H	-1.306176	-0.216069	0.841223
H210	H	-0.806176	0.283931	1.341223
H211	H	-1.238249	-0.268425	0.845611
H212	H	-0.738249	0.231575	1.345611
H213	H	-1.233660	-0.216594	0.786665
H214	H	-0.733660	0.283406	1.286665
H215	H	-1.353330	-0.316763	0.806152
H216	H	-0.853330	0.183237	1.306152
H217	H	-1.348759	-0.264926	0.747203
H218	H	-0.848759	0.235074	1.247203
C219	C	-1.305820	-0.297964	1.201877
C220	C	-0.805820	0.202036	1.701877
C221	C	-1.317070	-0.289311	1.132834
C222	C	-0.817070	0.210689	1.632834
H223	H	-1.342007	-0.270071	1.227354
H224	H	-0.842007	0.229929	1.727354
H225	H	-1.318021	-0.343935	1.213965
H226	H	-0.818021	0.156065	1.713965
H227	H	-1.249803	-0.285741	1.211139
H228	H	-0.749803	0.214259	1.711139
H229	H	-1.373085	-0.301539	1.123571
H230	H	-0.873085	0.198461	1.623571
H231	H	-1.304874	-0.243329	1.120742
H232	H	-0.804874	0.256671	1.620742
C233	C	-1.046332	-0.497988	0.663445
C234	C	-0.546332	0.002012	1.163445
C235	C	-1.093120	-0.461930	0.619429
C236	C	-0.593120	0.038070	1.119429
H237	H	-1.010156	-0.525886	0.637964
H238	H	-0.510156	-0.025886	1.137964
H239	H	-1.014441	-0.467179	0.689693
H240	H	-0.514441	0.032821	1.189693
H241	H	-1.082672	-0.525363	0.692522
H242	H	-0.582672	-0.025363	1.192522
H243	H	-1.056780	-0.434551	0.590355
H244	H	-0.556780	0.065449	1.090355
H245	H	-1.125014	-0.492743	0.593170
H246	H	-0.625014	0.007257	1.093170
