data_functionalizedCrystal
_audit_creation_method	'MofGen! by Chris Wilmer'
_symmetry_space_group_name_H-M	'P1'
_symmetry_Int_Tables_number	1
_symmetry_cell_setting	triclinic
loop_
_symmetry_equiv_pos_as_xyz
  x,y,z
_cell_length_a	12.759401
_cell_length_b	15.297327
_cell_length_c	12.759393
_cell_angle_alpha	99.642973
_cell_angle_beta	89.980324
_cell_angle_gamma	99.706828
loop_
_atom_site_label
_atom_site_type_symbol
_atom_site_fract_x
_atom_site_fract_y
_atom_site_fract_z
Zn1	Zn	1.533810	-0.359107	-0.666301
Zn2	Zn	1.503258	-0.509992	-0.521006
Zn3	Zn	1.358100	-0.359152	-0.490649
Zn4	Zn	1.327671	-0.509926	-0.696634
O5	O	1.430710	-0.434544	-0.593647
O6	O	1.676777	-0.379131	-0.647037
O7	O	1.483951	-0.490029	-0.369967
O8	O	1.406929	-0.232901	-0.488551
O9	O	1.654330	-0.489986	-0.540290
O10	O	1.536023	-0.232868	-0.617601
O11	O	1.377304	-0.379208	-0.347664
O12	O	1.207044	-0.379144	-0.517963
O13	O	1.355067	-0.489873	-0.839622
O14	O	1.184688	-0.489917	-0.669299
O15	O	1.506517	-0.379067	-0.817336
O16	O	1.454445	-0.636229	-0.569702
O17	O	1.325441	-0.636180	-0.698735
C18	C	1.157745	-0.434529	-0.593629
C19	C	1.040966	-0.434544	-0.593651
C20	C	0.997771	-0.376926	-0.649359
C21	C	0.888046	-0.376935	-0.649368
C22	C	0.864716	-0.492188	-0.537959
C23	C	0.974441	-0.492173	-0.537945
C24	C	1.383354	-0.668939	-0.640827
C25	C	1.363191	-0.769214	-0.661046
C26	C	1.575249	-1.051847	-0.449499
C27	C	1.594192	-0.957634	-0.430497
C28	C	1.536444	-0.910524	-0.488132
C29	C	1.459749	-0.957637	-0.564773
C30	C	1.440797	-1.051859	-0.583771
C31	C	1.401993	-0.910536	-0.622405
C32	C	1.325297	-0.957649	-0.699046
C33	C	1.306350	-1.051862	-0.718041
C34	C	1.364098	-1.098972	-0.660405
C35	C	1.420944	-0.816314	-0.603407
C36	C	1.286492	-0.816326	-0.737680
C37	C	1.267549	-0.910539	-0.756682
C38	C	1.704740	-0.434561	-0.593666
C39	C	1.821515	-0.434568	-0.593674
C40	C	1.430806	-0.434458	-0.867663
C41	C	1.430847	-0.434421	-0.984433
C42	C	1.478279	-0.199235	-0.546306
C43	C	1.498550	-0.098960	-0.526132
C44	C	1.509714	-0.376715	-1.027690
C45	C	1.509739	-0.376676	-1.137407
C46	C	1.352027	-0.492057	-1.160599
C47	C	1.351997	-0.492091	-1.050884
C48	C	1.430687	-0.434566	-0.320684
C49	C	1.430901	-0.434348	-0.203864
H50	H	1.051934	-0.329998	-0.694715
H51	H	1.656636	-0.919278	-0.368095
O52	O	1.495372	-0.770654	-0.528841
C53	C	1.467799	-0.793745	-0.428766
H54	H	1.413645	-0.862181	-0.440356
H55	H	1.424457	-0.740778	-0.382653
C56	C	1.635895	-0.714018	-0.351848
C57	C	1.569389	-0.798076	-0.366083
H58	H	1.698560	-0.716686	-0.313180
H59	H	1.654470	-0.698458	-0.419270
H60	H	1.599764	-0.669888	-0.313424
H61	H	1.605516	-0.842202	-0.404518
H62	H	1.550822	-0.813644	-0.298667
H63	H	0.810539	-0.539109	-0.492606
O64	O	1.586349	-0.320606	-0.963283
C65	C	1.655978	-0.269680	-1.025000
H66	H	1.613596	-0.266532	-1.102573
H67	H	1.729095	-0.302718	-1.043327
C68	C	1.742573	-0.177544	-0.867591
C69	C	1.690515	-0.173671	-0.962865
H70	H	1.763882	-0.118322	-0.829263
H71	H	1.695666	-0.211856	-0.826011
H72	H	1.803497	-0.205079	-0.882878
H73	H	1.629586	-0.146147	-0.947577
H74	H	1.737413	-0.139352	-1.004441
H75	H	1.239466	-0.777970	-0.784610
H76	H	1.287767	-0.539081	-1.015663
H77	H	1.551872	-0.833812	-0.472655
O78	O	1.016227	-0.548233	-0.483811
C79	C	0.933987	-0.599091	-0.434632
H80	H	0.855148	-0.602274	-0.478306
H81	H	0.928968	-0.565972	-0.348239
C82	C	1.054259	-0.691174	-0.384980
C83	C	0.957430	-0.695090	-0.438626
H84	H	1.068721	-0.750389	-0.387438
H85	H	1.109667	-0.656908	-0.418109
H86	H	1.050065	-0.663570	-0.312990
H87	H	0.961629	-0.722682	-0.510617
H88	H	0.902022	-0.729363	-0.405509
H89	H	1.622253	-1.090213	-0.402573
H90	H	1.348681	-1.175688	-0.675875
O91	O	1.231963	-1.097586	-0.792625
C92	C	1.259506	-1.074463	-0.892693
H93	H	1.348658	-1.048502	-0.892833
H94	H	1.214162	-1.019794	-0.909085
C95	C	1.120920	-1.190007	-0.979496
C96	C	1.230419	-1.158129	-0.979672
H97	H	1.102974	-1.241614	-1.033151
H98	H	1.102361	-1.205584	-0.912079
H99	H	1.083146	-1.144442	-0.993153
H100	H	1.268191	-1.203689	-0.966002
H101	H	1.248984	-1.142561	-1.047089
O102	O	1.193165	-0.956270	-0.831266
C103	C	1.220706	-0.933149	-0.931335
H104	H	1.309855	-0.907181	-0.931475
H105	H	1.175353	-0.878488	-0.947733
C106	C	1.082132	-1.048708	-1.018135
C107	C	1.191629	-1.016820	-1.018309
H108	H	1.064193	-1.100318	-1.071786
H109	H	1.063575	-1.064283	-0.950716
H110	H	1.044352	-1.003149	-1.031796
H111	H	1.229407	-1.062375	-1.004635
H112	H	1.210193	-1.001254	-1.085728
O113	O	1.586220	-0.320522	-1.179451
C114	C	1.538201	-0.262239	-1.231197
H115	H	1.456573	-0.256675	-1.197000
H116	H	1.528967	-0.290099	-1.319962
C117	C	1.708746	-0.175291	-1.256014
C118	C	1.608492	-0.168451	-1.214005
H119	H	1.752105	-0.117439	-1.245414
H120	H	1.741098	-0.214559	-1.221155
H121	H	1.701036	-0.198511	-1.329981
H122	H	1.616202	-0.145242	-1.140037
H123	H	1.576142	-0.129177	-1.248851
H124	H	0.852883	-0.330016	-0.694729
H125	H	1.287832	-0.539011	-1.214717
