data_functionalizedCrystal
_audit_creation_method	'MofGen! by Chris Wilmer'
_symmetry_space_group_name_H-M	'P1'
_symmetry_Int_Tables_number	1
_symmetry_cell_setting	triclinic
loop_
_symmetry_equiv_pos_as_xyz
  x,y,z
_cell_length_a	19.805399
_cell_length_b	18.215407
_cell_length_c	18.215405
_cell_angle_alpha	89.977671
_cell_angle_beta	90.029242
_cell_angle_gamma	89.983693
loop_
_atom_site_label
_atom_site_type_symbol
_atom_site_fract_x
_atom_site_fract_y
_atom_site_fract_z
Zn1	Zn	-0.382653	1.125064	0.293052
Zn2	Zn	0.117347	1.625064	0.793052
Zn3	Zn	-0.269461	1.124975	0.416120
Zn4	Zn	0.230539	1.624975	0.916120
Zn5	Zn	-0.269484	1.001999	0.293066
Zn6	Zn	0.230516	1.501999	0.793066
Zn7	Zn	-0.382615	1.001963	0.416075
Zn8	Zn	0.117385	1.501963	0.916075
O9	O	-0.326053	1.063500	0.354578
O10	O	0.173947	1.563500	0.854578
O11	O	-0.367644	1.228037	0.309389
O12	O	0.132356	1.728037	0.809389
O13	O	-0.174748	1.108640	0.399822
O14	O	0.325252	1.608640	0.899822
O15	O	-0.284521	1.018377	0.190080
O16	O	0.215479	1.518377	0.690080
O17	O	-0.284483	1.227971	0.399807
O18	O	0.215517	1.727971	0.899807
O19	O	-0.367666	1.108792	0.190069
O20	O	0.132334	1.608792	0.690069
O21	O	-0.174764	1.018290	0.309415
O22	O	0.325236	1.518290	0.809415
O23	O	-0.284484	0.899010	0.309371
O24	O	0.215516	1.399010	0.809371
O25	O	-0.477336	1.018314	0.399731
O26	O	0.022664	1.518314	0.899731
O27	O	-0.367601	0.898983	0.399746
O28	O	0.132399	1.398983	0.899746
O29	O	-0.477364	1.108757	0.309346
O30	O	0.022636	1.608757	0.809346
O31	O	-0.284446	1.108604	0.519098
O32	O	0.215554	1.608604	1.019098
O33	O	-0.367579	1.018228	0.519066
O34	O	0.132421	1.518228	1.019066
C35	C	-0.326041	0.872294	0.354556
C36	C	0.173959	1.372294	0.854556
C37	C	-0.326052	0.790495	0.354564
C38	C	0.173948	1.290495	0.854564
C39	C	-0.369423	0.602334	0.307580
C40	C	0.130577	1.102334	0.807580
C41	C	-0.369425	0.525476	0.307586
C42	C	0.130575	1.025476	0.807586
C43	C	-0.282695	0.525418	0.401597
C44	C	0.217305	1.025418	0.901597
C45	C	-0.282690	0.602275	0.401587
C46	C	0.217310	1.102275	0.901587
C47	C	-0.326058	0.640732	0.354579
C48	C	0.173942	1.140732	0.854579
C49	C	-0.326065	0.487015	0.354596
C50	C	0.173935	0.987015	0.854596
C51	C	-0.326067	0.403682	0.354603
C52	C	0.173933	0.903682	0.854603
C53	C	-0.326055	0.724071	0.354571
C54	C	0.173945	1.224071	0.854571
C55	C	-0.502596	1.063541	0.354532
C56	C	-0.002596	1.563541	0.854532
C57	C	-0.577828	1.063559	0.354512
C58	C	-0.077828	1.563559	0.854512
C59	C	-0.613188	1.110653	0.307446
C60	C	-0.113188	1.610653	0.807446
C61	C	-0.683876	1.110661	0.307425
C62	C	-0.183876	1.610661	0.807425
C63	C	-0.719204	1.063577	0.354474
C64	C	-0.219204	1.563577	0.854474
C65	C	-0.683839	1.016478	0.401542
C66	C	-0.183839	1.516478	0.901542
C67	C	-0.613152	1.016467	0.401559
C68	C	-0.113152	1.516467	0.901559
C69	C	-0.968912	1.016519	0.401473
C70	C	-0.468912	1.516519	0.901473
C71	C	-1.039604	1.016535	0.401454
C72	C	-0.539604	1.516535	0.901454
C73	C	-1.039637	1.110713	0.307339
C74	C	-0.539637	1.610713	0.807339
C75	C	-0.968950	1.110702	0.307356
C76	C	-0.468950	1.610702	0.807356
C77	C	-0.933591	1.063601	0.354421
C78	C	-0.433591	1.563601	0.854421
C79	C	-0.856943	1.063592	0.354443
C80	C	-0.356943	1.563592	0.854443
C81	C	-0.795851	1.063589	0.354456
C82	C	-0.295851	1.563589	0.854456
C83	C	-0.150197	1.063501	0.354571
C84	C	0.349803	1.563501	0.854571
C85	C	-0.074966	1.063626	0.354384
C86	C	0.425034	1.563626	0.854384
C87	C	-0.326065	1.255453	0.354602
C88	C	0.173935	1.755453	0.854602
C89	C	-0.326071	1.337252	0.354611
C90	C	0.173929	1.837252	0.854611
C91	C	-0.326021	1.063422	0.545785
C92	C	0.173979	1.563422	1.045785
C93	C	-0.326029	1.063457	0.627584
C94	C	0.173971	1.563457	1.127584
C95	C	-0.326101	1.063598	0.162625
C96	C	0.173899	1.563598	0.662625
C97	C	-0.326121	1.063640	0.080826
C98	C	0.173879	1.563640	0.580826
C99	C	-0.282822	1.110626	0.815770
C100	C	0.217178	1.610626	1.315770
C101	C	-0.282838	1.110659	0.892629
C102	C	0.217162	1.610659	1.392629
C103	C	-0.369333	1.016468	0.892635
C104	C	0.130667	1.516468	1.392635
C105	C	-0.369320	1.016440	0.815777
C106	C	0.130680	1.516440	1.315777
C107	C	-0.326060	1.063518	0.777347
C108	C	0.173940	1.563518	1.277347
C109	C	-0.326090	1.063579	0.931063
C110	C	0.173910	1.563579	1.431063
C111	C	-0.326108	1.063614	1.014397
C112	C	0.173892	1.563614	1.514397
C113	C	-0.326043	1.063483	0.694008
C114	C	0.173957	1.563483	1.194008
H115	H	-0.404733	0.633643	0.269301
H116	H	0.095267	1.133643	0.769301
C117	C	-0.234983	0.644515	0.453292
C118	C	0.265017	1.144515	0.953292
N119	N	-0.199050	0.676330	0.492233
N120	N	0.300950	1.176330	0.992233
C121	C	-0.722769	1.162470	0.255650
C122	C	-0.222769	1.662470	0.755650
N123	N	-0.752063	1.201494	0.216651
N124	N	-0.252063	1.701494	0.716651
H125	H	-0.247630	1.149021	0.923909
H126	H	0.252370	1.649021	1.423909
C127	C	-0.574256	0.964661	0.453336
C128	C	-0.074256	1.464661	0.953336
N129	N	-0.544961	0.925638	0.492335
N130	N	-0.044961	1.425638	0.992335
C131	C	-0.235238	1.162417	0.773499
C132	C	0.264762	1.662417	1.273499
N133	N	-0.199399	1.201429	0.741663
N134	N	0.300601	1.701429	1.241663
C135	C	-0.574334	1.162449	0.255687
C136	C	-0.074334	1.662449	0.755687
N137	N	-0.545072	1.201461	0.216698
N138	N	-0.045072	1.701461	0.716698
H139	H	-0.404553	0.978138	0.923934
H140	H	0.095447	1.478138	1.423934
H141	H	-0.404736	0.494216	0.269314
H142	H	0.095264	0.994216	0.769314
H143	H	-0.940190	1.149045	0.269047
H144	H	-0.440190	1.649045	0.769047
H145	H	-0.247388	0.494098	0.439870
H146	H	0.252612	0.994098	0.939870
C147	C	-1.078538	1.162518	0.255557
C148	C	-0.578538	1.662518	0.755557
N149	N	-1.107837	1.201536	0.216556
N150	N	-0.607837	1.701536	0.716556
H151	H	-0.940132	0.978177	0.439807
H152	H	-0.440132	1.478177	0.939807
C153	C	-1.078463	0.964732	0.453209
C154	C	-0.578463	1.464732	0.953209
N155	N	-1.107731	0.925715	0.492188
N156	N	-0.607731	1.425715	0.992188
C157	C	-0.722701	0.964678	0.453289
C158	C	-0.222701	1.464678	0.953289
N159	N	-0.751972	0.925661	0.492266
N160	N	-0.251972	1.425661	0.992266
H161	H	-0.404533	0.978078	0.784491
H162	H	0.095467	1.478078	1.284491
