data_functionalizedCrystal
_audit_creation_method	'MofGen! by Chris Wilmer'
_symmetry_space_group_name_H-M	'P1'
_symmetry_Int_Tables_number	1
_symmetry_cell_setting	triclinic
loop_
_symmetry_equiv_pos_as_xyz
  x,y,z
_cell_length_a	18.050591
_cell_length_b	18.050589
_cell_length_c	14.908694
_cell_angle_alpha	93.272134
_cell_angle_beta	86.677417
_cell_angle_gamma	90.024227
loop_
_atom_site_label
_atom_site_type_symbol
_atom_site_fract_x
_atom_site_fract_y
_atom_site_fract_z
Zn1	Zn	1.159555	-0.319965	-0.510267
Zn2	Zn	1.659555	0.180035	-0.010267
Zn3	Zn	1.152293	-0.437000	-0.359417
Zn4	Zn	1.652293	0.063000	0.140583
Zn5	Zn	1.028201	-0.312819	-0.359407
Zn6	Zn	1.528201	0.187181	0.140593
Zn7	Zn	1.035320	-0.444106	-0.510212
Zn8	Zn	1.535320	0.055894	-0.010212
O9	O	1.093842	-0.378472	-0.434826
O10	O	1.593842	0.121528	0.065174
O11	O	1.262518	-0.335506	-0.490284
O12	O	1.762518	0.164494	0.009716
O13	O	1.129814	-0.414563	-0.233171
O14	O	1.629814	0.085437	0.266829
O15	O	1.045686	-0.209843	-0.379437
O16	O	1.545686	0.290157	0.120563
O17	O	1.257182	-0.421491	-0.379455
O18	O	1.757182	0.078509	0.120545
O19	O	1.142191	-0.215093	-0.490274
O20	O	1.642191	0.284907	0.009726
O21	O	1.038644	-0.323328	-0.233164
O22	O	1.538644	0.176672	0.266836
O23	O	0.925220	-0.330218	-0.379384
O24	O	1.425220	0.169782	0.120616
O25	O	1.057818	-0.433603	-0.636464
O26	O	1.557818	0.066397	-0.136464
O27	O	0.930450	-0.426674	-0.490181
O28	O	1.430450	0.073326	0.009819
O29	O	1.149093	-0.342397	-0.636504
O30	O	1.649093	0.157603	-0.136504
O31	O	1.136716	-0.541866	-0.379402
O32	O	1.636716	-0.041866	0.120598
O33	O	1.050776	-0.547087	-0.490190
O34	O	1.550776	-0.047087	0.009810
C35	C	0.900888	-0.378442	-0.434776
C36	C	1.400888	0.121558	0.065224
C37	C	0.818342	-0.378448	-0.434776
C38	C	1.318342	0.121552	0.065224
C39	C	0.616032	-0.325945	-0.374664
C40	C	1.116032	0.174055	0.125336
C41	C	0.565557	-0.392629	-0.352469
C42	C	1.065557	0.107371	0.147531
C43	C	0.667214	-0.378473	-0.434817
C44	C	1.167214	0.121527	0.065183
C45	C	0.570607	-0.311812	-0.457009
C46	C	1.070607	0.188188	0.042991
C47	C	0.521230	-0.378491	-0.434854
C48	C	1.021230	0.121509	0.065146
C49	C	0.617824	-0.445191	-0.412579
C50	C	1.117824	0.054809	0.087421
C51	C	0.622879	-0.364330	-0.517158
C52	C	1.122879	0.135670	-0.017158
C53	C	0.572428	-0.431062	-0.494994
C54	C	1.072428	0.068938	0.005006
C55	C	0.751311	-0.378462	-0.434793
C56	C	1.251311	0.121538	0.065207
C57	C	0.437135	-0.378509	-0.434879
C58	C	0.937135	0.121491	0.065121
C59	C	1.093752	-0.571424	-0.434811
C60	C	1.593752	-0.071424	0.065189
C61	C	1.093783	-0.653971	-0.434835
C62	C	1.593783	-0.153971	0.065165
C63	C	1.047096	-0.856287	-0.495061
C64	C	1.547096	-0.356287	0.004939
C65	C	1.025084	-0.901818	-0.412737
C66	C	1.525084	-0.401818	0.087263
C67	C	1.093856	-0.805102	-0.434846
C68	C	1.593856	-0.305102	0.065154
C69	C	1.115905	-0.906652	-0.517180
C70	C	1.615905	-0.406652	-0.017180
C71	C	1.093926	-0.951088	-0.434865
C72	C	1.593926	-0.451088	0.065135
C73	C	1.071806	-0.849544	-0.352479
C74	C	1.571806	-0.349544	0.147521
C75	C	1.162662	-0.854376	-0.456977
C76	C	1.662662	-0.354376	0.043023
C77	C	1.140672	-0.899883	-0.374597
C78	C	1.640672	-0.399883	0.125403
C79	C	1.093814	-0.721003	-0.434837
C80	C	1.593814	-0.221003	0.065163
C81	C	1.093968	-1.035184	-0.434865
C82	C	1.593968	-0.535184	0.065135
C83	C	1.287550	-0.378503	-0.434876
C84	C	1.787550	0.121497	0.065124
C85	C	1.370097	-0.378516	-0.434898
C86	C	1.870097	0.121484	0.065102
C87	C	1.105060	-0.389590	-0.670133
C88	C	1.605060	0.110410	-0.170133
C89	C	1.109840	-0.394327	-0.770407
C90	C	1.609840	0.105673	-0.270407
C91	C	1.093954	-0.184768	-0.434861
C92	C	1.593954	0.315232	0.065139
C93	C	1.094002	-0.102223	-0.434875
C94	C	1.594002	0.397777	0.065125
C95	C	1.023870	-0.308228	-0.958826
C96	C	1.523870	0.191772	-0.458826
C97	C	1.028359	-0.312677	-1.053042
C98	C	1.528359	0.187323	-0.553042
C99	C	1.123303	-0.407677	-1.053057
C100	C	1.623303	0.092323	-0.553057
C101	C	1.118814	-0.403228	-0.958841
C102	C	1.618814	0.096772	-0.458841
C103	C	1.069097	-0.353501	-0.911728
C104	C	1.569097	0.146499	-0.411728
C105	C	1.064612	-0.349049	-0.817511
C106	C	1.564612	0.150951	-0.317511
C107	C	1.159551	-0.444052	-0.817527
C108	C	1.659551	0.055948	-0.317527
C109	C	1.164040	-0.448501	-0.911744
C110	C	1.664040	0.051499	-0.411744
C111	C	1.082711	-0.367345	-0.200434
C112	C	1.582711	0.132655	0.299566
C113	C	1.078075	-0.362398	-0.100161
C114	C	1.578075	0.137602	0.399839
H115	H	0.638507	-0.501585	-0.393747
H116	H	1.138507	-0.001585	0.106253
Br117	Br	0.928152	-0.936604	-0.381537
Br118	Br	1.428152	-0.436604	0.118463
Br119	Br	0.997144	-0.281560	-0.753572
Br120	Br	1.497144	0.218440	-0.253572
Br121	Br	0.535968	-0.217842	-0.488266
Br122	Br	1.035968	0.282158	0.011734
Br123	Br	0.956410	-0.240734	-0.894883
Br124	Br	1.456410	0.259266	-0.394883
H125	H	0.540509	-0.404604	-0.282851
H126	H	1.040509	0.095396	0.217149
H127	H	0.991531	-0.275810	-1.091385
H128	H	1.491531	0.224190	-0.591385
H129	H	0.553326	-0.475540	-0.545880
H130	H	1.053326	0.024460	-0.045880
Br131	Br	1.190757	-0.475171	-1.117011
Br132	Br	1.690757	0.024829	-0.617011
H133	H	1.220804	-0.833490	-0.475718
H134	H	1.720804	-0.333490	0.024282
Br135	Br	1.220937	-0.505495	-0.753605
Br136	Br	1.720937	-0.005495	-0.253605
Br137	Br	0.664654	-0.344338	-0.633163
Br138	Br	1.164654	0.155662	-0.133163
Br139	Br	0.981085	-0.824216	-0.579816
Br140	Br	1.481085	-0.324216	-0.079816
Br141	Br	1.040661	-0.808103	-0.236405
Br142	Br	1.540661	-0.308103	0.263595
H143	H	1.204516	-0.488989	-0.950115
H144	H	1.704516	0.011011	-0.450115
Br145	Br	1.206630	-0.931714	-0.289646
Br146	Br	1.706630	-0.431714	0.210354
Br147	Br	1.146940	-0.948253	-0.633216
Br148	Br	1.646940	-0.448253	-0.133216
H149	H	0.635269	-0.281566	-0.323739
H150	H	1.135269	0.218434	0.176261
