data_functionalizedCrystal
_audit_creation_method	'MofGen! by Chris Wilmer'
_symmetry_space_group_name_H-M	'P1'
_symmetry_Int_Tables_number	1
_symmetry_cell_setting	triclinic
loop_
_symmetry_equiv_pos_as_xyz
  x,y,z
_cell_length_a	23.532407
_cell_length_b	14.519709
_cell_length_c	13.596369
_cell_angle_alpha	90.006934
_cell_angle_beta	89.999993
_cell_angle_gamma	83.264411
loop_
_atom_site_label
_atom_site_type_symbol
_atom_site_fract_x
_atom_site_fract_y
_atom_site_fract_z
O1	O	-0.755765	-0.111951	-0.081671
O2	O	-0.589975	-0.128149	-0.081700
O3	O	-0.677266	0.014241	-0.081676
O4	O	-0.668474	-0.254340	-0.081695
O5	O	-0.677257	0.014248	0.081907
O6	O	-0.589966	-0.128142	0.081883
O7	O	-0.755756	-0.111943	0.081912
Zn8	Zn	-0.672860	-0.120041	0.107870
Zn9	Zn	-0.672871	-0.120051	-0.107658
O10	O	-0.668466	-0.254333	0.081888
C11	C	-0.568753	-0.127733	0.000088
C12	C	-0.505530	-0.126493	0.000077
C13	C	-0.676852	0.048599	0.000116
C14	C	-0.675624	0.150966	0.000116
C15	C	-0.776979	-0.112360	0.000122
C16	C	-0.840201	-0.113600	0.000127
C17	C	-0.106772	-0.202977	0.000116
C18	C	-0.047367	-0.201825	0.000122
O19	O	-0.010942	-0.272727	0.000153
N20	N	-0.024358	-0.117175	0.000127
C21	C	-0.060759	-0.033671	0.000135
O22	O	-0.035734	0.038437	0.000140
C23	C	-0.120164	-0.034824	0.000136
C24	C	-0.143168	-0.119480	0.000121
C25	C	-0.129777	-0.287626	0.000103
C26	C	-0.189179	-0.288778	0.000095
C27	C	-0.225575	-0.205281	0.000100
C28	C	-0.202570	-0.120631	0.000114
C29	C	-0.156563	0.048679	0.000151
C30	C	-0.215971	0.047519	0.000153
C31	C	-0.238976	-0.037137	0.000139
C32	C	-0.298367	-0.038286	0.000111
N33	N	-0.321375	-0.122936	0.000107
C34	C	-0.284979	-0.206434	0.000101
C35	C	0.063994	-0.031256	0.000135
C36	C	0.123397	-0.030102	0.000127
C37	C	0.136786	-0.198257	0.000116
C38	C	0.077382	-0.199410	0.000117
C39	C	0.040986	-0.115906	0.000130
C40	C	-0.409727	-0.208846	0.000084
C41	C	-0.469134	-0.209990	0.000072
C42	C	-0.482517	-0.041836	0.000088
C43	C	-0.423115	-0.040691	0.000095
C44	C	-0.386721	-0.124204	0.000096
O45	O	-0.334827	0.032579	0.000084
O46	O	-0.310012	-0.278529	0.000109
C47	C	-0.668880	-0.288692	0.000094
C48	C	-0.670107	-0.391058	0.000087
N49	N	-0.672856	-0.120034	0.254962
C50	C	-0.671104	0.525808	0.000090
C51	C	-0.672359	0.421515	0.000097
C52	C	-0.673364	0.338390	0.000104
C53	C	-0.674619	0.234091	0.000110
N54	N	-0.672880	-0.120051	-0.254750
C55	C	-0.672871	-0.120052	0.656253
C56	C	-0.672865	-0.120050	0.544601
C57	C	-0.672864	-0.120044	0.455611
C58	C	-0.672858	-0.120040	0.343952
H59	H	-0.380101	-0.276850	0.000088
O60	O	-0.211426	-0.371095	0.000136
C61	C	-0.166555	-0.444534	0.000112
H62	H	-0.126176	-0.419048	0.031079
H63	H	-0.158176	-0.470272	-0.078367
C64	C	-0.232997	-0.555717	0.026232
C65	C	-0.183404	-0.524417	0.064274
H66	H	-0.243391	-0.604995	0.065806
H67	H	-0.263229	-0.506241	0.026245
H68	H	-0.226008	-0.577159	-0.039166
H69	H	-0.190396	-0.502965	0.129666
H70	H	-0.153174	-0.573892	0.064274
O71	O	0.172066	-0.279454	0.000076
C72	C	0.139028	-0.354425	0.000097
H73	H	0.094720	-0.330612	-0.030878
H74	H	0.134768	-0.380391	0.078575
C75	C	0.222968	-0.462658	-0.026007
C76	C	0.168550	-0.433413	-0.064059
H77	H	0.241179	-0.511384	-0.065578
H78	H	0.245227	-0.412149	-0.026018
H79	H	0.219411	-0.484290	0.039391
H80	H	0.172108	-0.411771	-0.129451
H81	H	0.146292	-0.483920	-0.064061
O82	O	-0.094403	-0.368718	0.000265
C83	C	-0.059625	-0.373092	0.084967
H84	H	-0.081318	-0.325728	0.144196
H85	H	-0.016400	-0.349643	0.065811
C86	C	-0.024079	-0.531698	0.050612
C87	C	-0.050725	-0.473531	0.123362
H88	H	-0.018587	-0.593654	0.074295
H89	H	-0.047508	-0.528751	-0.006455
H90	H	0.011939	-0.512147	0.034656
H91	H	-0.086746	-0.493076	0.139308
H92	H	-0.027303	-0.476483	0.180433
H93	H	0.142122	0.038834	0.000123
H94	H	-0.137844	0.117615	0.000164
H95	H	-0.512162	0.026146	0.000088
H96	H	0.034363	0.036747	0.000137
H97	H	-0.487861	-0.278930	0.000059
H98	H	-0.404384	0.028243	0.000092
O99	O	-0.251302	0.128661	-0.000013
C100	C	-0.240843	0.180097	-0.084715
H101	H	-0.220594	0.131217	-0.143933
H102	H	-0.210536	0.233187	-0.065550
C103	C	-0.322584	0.290631	-0.050400
C104	C	-0.297718	0.230595	-0.123136
H105	H	-0.357666	0.321785	-0.074098
H106	H	-0.329629	0.255980	0.006667
H107	H	-0.297322	0.334865	-0.034436
H108	H	-0.322977	0.186357	-0.139089
H109	H	-0.290678	0.265240	-0.180207
H110	H	0.058656	-0.268344	0.000111
