data_functionalizedCrystal
_audit_creation_method	'MofGen! by Chris Wilmer'
_symmetry_space_group_name_H-M	'P1'
_symmetry_Int_Tables_number	1
_symmetry_cell_setting	triclinic
loop_
_symmetry_equiv_pos_as_xyz
  x,y,z
_cell_length_a	17.077404
_cell_length_b	17.077402
_cell_length_c	16.120297
_cell_angle_alpha	92.870792
_cell_angle_beta	92.878347
_cell_angle_gamma	90.023108
loop_
_atom_site_label
_atom_site_type_symbol
_atom_site_fract_x
_atom_site_fract_y
_atom_site_fract_z
Zn1	Zn	-1.177551	0.335028	0.471375
Zn2	Zn	-0.677551	0.835028	0.971375
Zn3	Zn	-1.184114	0.459641	0.331961
Zn4	Zn	-0.684114	0.959641	0.831961
Zn5	Zn	-1.052937	0.328395	0.331979
Zn6	Zn	-0.552937	0.828395	0.831979
Zn7	Zn	-1.046253	0.466254	0.471326
Zn8	Zn	-0.546253	0.966254	0.971326
O9	O	-1.115214	0.397330	0.401660
O10	O	-0.615214	0.897330	0.901660
O11	O	-1.288268	0.351567	0.452894
O12	O	-0.788268	0.851567	0.952894
O13	O	-1.172257	0.436687	0.215300
O14	O	-0.672257	0.936687	0.715300
O15	O	-1.069519	0.219429	0.350497
O16	O	-0.569519	0.719429	0.850497
O17	O	-1.293089	0.443120	0.350467
O18	O	-0.793089	0.943120	0.850467
O19	O	-1.161072	0.224303	0.452911
O20	O	-0.661072	0.724303	0.952911
O21	O	-1.075882	0.340261	0.215313
O22	O	-0.575882	0.840261	0.715313
O23	O	-0.942204	0.346674	0.350451
O24	O	-0.442204	0.846674	0.850451
O25	O	-1.058126	0.454391	0.587995
O26	O	-0.558126	0.954391	1.087995
O27	O	-0.937293	0.447958	0.452829
O28	O	-0.437293	0.947958	0.952829
O29	O	-1.154590	0.357980	0.588031
O30	O	-0.654590	0.857980	1.088031
O31	O	-1.165775	0.570364	0.350420
O32	O	-0.665775	1.070364	0.850420
O33	O	-1.064489	0.575223	0.452811
O34	O	-0.564489	1.075223	0.952811
C35	C	-0.911267	0.397314	0.401637
C36	C	-0.411267	0.897314	0.901637
C37	C	-0.824017	0.397328	0.401647
C38	C	-0.324017	0.897328	0.901647
C39	C	-1.115140	0.601276	0.401627
C40	C	-0.615140	1.101276	0.901627
C41	C	-1.115178	0.688526	0.401640
C42	C	-0.615178	1.188526	0.901640
C43	C	-1.104880	0.407663	0.619108
C44	C	-0.604880	0.907663	1.119108
C45	C	-1.100476	0.412066	0.711772
C46	C	-0.600476	0.912066	1.211772
C47	C	-1.319957	0.397346	0.401684
C48	C	-0.819957	0.897346	0.901684
C49	C	-1.407206	0.397352	0.401694
C50	C	-0.907206	0.897352	0.901694
C51	C	-0.780494	0.450138	0.454870
C52	C	-0.280494	0.950138	0.954870
C53	C	-0.698513	0.450141	0.454883
C54	C	-0.198513	0.950141	0.954883
C55	C	-0.660056	0.397335	0.401669
C56	C	-0.160056	0.897335	0.901669
C57	C	-0.703585	0.344519	0.348444
C58	C	-0.203585	0.844519	0.848444
C59	C	-0.785564	0.344514	0.348435
C60	C	-0.285564	0.844514	0.848435
C61	C	-0.532714	0.344536	0.348464
C62	C	-0.032714	0.844536	0.848464
C63	C	-0.450729	0.344542	0.348471
C64	C	0.049271	0.844542	0.848471
C65	C	-0.445662	0.450162	0.454912
C66	C	0.054338	0.950162	0.954912
C67	C	-0.527642	0.450157	0.454903
C68	C	-0.027642	0.950157	0.954903
C69	C	-0.571165	0.397341	0.401677
C70	C	-0.071165	0.897341	0.901677
C71	C	-1.115309	0.192588	0.401712
C72	C	-0.615309	0.692588	0.901712
C73	C	-1.115349	0.105339	0.401734
C74	C	-0.615349	0.605339	0.901734
C75	C	-1.167966	0.726963	0.348382
C76	C	-0.667966	1.226963	0.848382
C77	C	-1.168004	0.808945	0.348404
C78	C	-0.668004	1.308945	0.848404
C79	C	-1.115249	0.852488	0.401679
C80	C	-0.615249	1.352488	0.901679
C81	C	-1.062458	0.814045	0.454943
C82	C	-0.562458	1.314045	0.954943
C83	C	-1.062425	0.732065	0.454925
C84	C	-0.562425	1.232065	0.954925
C85	C	-1.062529	0.984917	0.454975
C86	C	-0.562529	1.484917	0.954975
C87	C	-1.062561	1.066902	0.454992
C88	C	-0.562561	1.566902	0.954992
C89	C	-1.168108	1.061796	0.348453
C90	C	-0.668108	1.561796	0.848453
C91	C	-1.168075	0.979816	0.348435
C92	C	-0.668075	1.479816	0.848435
C93	C	-1.115283	0.941379	0.401698
C94	C	-0.615283	1.441379	0.901698
C95	C	-1.125552	0.386980	0.185058
C96	C	-0.625552	0.886980	0.685058
C97	C	-1.130108	0.382356	0.092395
C98	C	-0.630108	0.882356	0.592395
C99	C	-1.092408	0.420088	0.881429
C100	C	-0.592408	0.920088	1.381429
C101	C	-1.138174	0.374336	0.922743
C102	C	-0.638174	0.874336	1.422743
C103	C	-1.133685	0.378800	1.017146
C104	C	-0.633685	0.878800	1.517146
C105	C	-1.096896	0.415626	0.787017
C106	C	-0.596896	0.915626	1.287017
H107	H	-0.811799	0.493141	0.498200
H108	H	-0.311799	0.993141	0.998200
H109	H	-0.558951	0.493160	0.498230
H110	H	-0.058951	0.993160	0.998230
H111	H	-0.419419	0.301534	0.305149
H112	H	0.080581	0.801534	0.805149
H113	H	-0.663080	0.493145	0.498222
H114	H	-0.163080	0.993145	0.998222
O115	O	-0.403268	0.501390	0.506594
O116	O	0.096732	1.001390	1.006594
C117	C	-0.322666	0.490084	0.495183
C118	C	0.177334	0.990084	0.995183
H119	H	-0.312776	0.428173	0.467999
H120	H	0.187224	0.928173	0.967999
H121	H	-0.301488	0.534466	0.450700
H122	H	0.198512	1.034466	0.950700
C123	C	-0.288733	0.577455	0.612915
C124	C	0.211267	1.077455	1.112915
C125	C	-0.276586	0.501412	0.579534
C126	C	0.223414	1.001412	1.079534
H127	H	-0.260308	0.584446	0.664945
H128	H	0.239692	1.084446	1.164945
H129	H	-0.343037	0.585074	0.620602
H130	H	0.156963	1.085074	1.120602
H131	H	-0.271086	0.614431	0.575838
H132	H	0.228914	1.114431	1.075838
H133	H	-0.294243	0.464438	0.616605
H134	H	0.205757	0.964438	1.116605
H135	H	-0.222284	0.493787	0.571855
H136	H	0.277716	0.993787	1.071855
H137	H	-0.568148	0.301521	0.305128
H138	H	-0.068148	0.801521	0.805128
H139	H	-0.820999	0.301506	0.305100
H140	H	-0.320999	0.801506	0.805100
O141	O	-0.666320	0.293256	0.296637
O142	O	-0.166320	0.793256	0.796637
C143	C	-0.690266	0.306349	0.213510
C144	C	-0.190266	0.806349	0.713510
H145	H	-0.749864	0.336430	0.211717
H146	H	-0.249864	0.836430	0.711717
H147	H	-0.645447	0.345332	0.185359
H148	H	-0.145447	0.845332	0.685359
C149	C	-0.623259	0.190409	0.165361
C150	C	-0.123259	0.690409	0.665361
C151	C	-0.696461	0.227350	0.163158
C152	C	-0.196461	0.727350	0.663158
H153	H	-0.627077	0.141680	0.134299
H154	H	-0.127077	0.641680	0.634299
H155	H	-0.607123	0.181590	0.221364
H156	H	-0.107123	0.681590	0.721364
H157	H	-0.585917	0.222903	0.141903
H158	H	-0.085917	0.722903	0.641903
H159	H	-0.733799	0.194860	0.186625
H160	H	-0.233799	0.694860	0.686625
H161	H	-0.712603	0.236162	0.107157
H162	H	-0.212603	0.736162	0.607157
O163	O	-1.219287	0.684789	0.296601
O164	O	-0.719287	1.184789	0.796601
C165	C	-1.265873	0.736298	0.249584
C166	C	-0.765873	1.236298	0.749584
H167	H	-1.266966	0.796341	0.283749
H168	H	-0.766966	1.296341	0.783749
H169	H	-1.240188	0.742059	0.186243
H170	H	-0.740188	1.242059	0.686243
C171	C	-1.348638	0.629927	0.195678
C172	C	-0.848638	1.129927	0.695678
C173	C	-1.349986	0.703671	0.237643
C174	C	-0.849986	1.203671	0.737643
H175	H	-1.400522	0.609800	0.188309
H176	H	-0.900522	1.109800	0.688309
H177	H	-1.317251	0.595223	0.227351
H178	H	-0.817251	1.095223	0.727351
H179	H	-1.327230	0.634737	0.142898
H180	H	-0.827230	1.134737	0.642898
H181	H	-1.371384	0.698858	0.290426
H182	H	-0.871384	1.198858	0.790426
H183	H	-1.381379	0.738373	0.205979
H184	H	-0.881379	1.238373	0.705979
H185	H	-1.210988	0.840236	0.305035
H186	H	-0.710988	1.340236	0.805035
O187	O	-1.041538	0.470734	0.923769
O188	O	-0.541538	0.970734	1.423769
C189	C	-0.964297	0.452613	0.902538
C190	C	-0.464297	0.952613	1.402538
H191	H	-0.961471	0.388792	0.878539
H192	H	-0.461471	0.888792	1.378539
H193	H	-0.946112	0.492362	0.852067
H194	H	-0.446112	0.992362	1.352067
C195	C	-0.911774	0.543723	1.009420
C196	C	-0.411774	1.043723	1.509420
C197	C	-0.908302	0.465335	0.979950
C198	C	-0.408302	0.965335	1.479950
H199	H	-0.877233	0.551574	1.057169
H200	H	-0.377233	1.051574	1.557169
H201	H	-0.963813	0.555934	1.023722
H202	H	-0.463813	1.055934	1.523722
H203	H	-0.896622	0.576838	0.967353
H204	H	-0.396622	1.076838	1.467353
H205	H	-0.923464	0.432222	1.022012
H206	H	-0.423464	0.932222	1.522012
H207	H	-0.856265	0.453119	0.965657
H208	H	-0.356265	0.953119	1.465657
H209	H	-1.211028	0.944363	0.305050
H210	H	-0.711028	1.444363	0.805050
O211	O	-1.219442	1.099258	0.296881
O212	O	-0.719442	1.599258	0.796881
C213	C	-1.208194	1.180954	0.308354
C214	C	-0.708194	1.680954	0.808354
H215	H	-1.179279	1.195172	0.372625
H216	H	-0.679279	1.695172	0.872625
H217	H	-1.168904	1.201992	0.258803
H218	H	-0.668904	1.701992	0.758803
C219	C	-1.323553	1.205106	0.222060
C220	C	-0.823553	1.705106	0.722060
C221	C	-1.288046	1.222569	0.301003
C222	C	-0.788046	1.722569	0.801003
H223	H	-1.372809	1.230778	0.217523
H224	H	-0.872809	1.730778	0.717523
H225	H	-1.331130	1.150067	0.214328
H226	H	-0.831130	1.650067	0.714328
H227	H	-1.290804	1.222639	0.180777
H228	H	-0.790804	1.722639	0.680777
H229	H	-1.320791	1.205028	0.342284
H230	H	-0.820791	1.705028	0.842284
H231	H	-1.280476	1.277608	0.308742
H232	H	-0.780476	1.777608	0.808742
H233	H	-1.019507	0.849505	0.498325
H234	H	-0.519507	1.349505	0.998325
H235	H	-1.019617	1.102353	0.498389
H236	H	-0.519617	1.602353	0.998389
H237	H	-1.019543	0.953625	0.498350
H238	H	-0.519543	1.453625	0.998350
O239	O	-1.011074	0.694848	0.506689
O240	O	-0.511074	1.194848	1.006689
C241	C	-0.964532	0.750858	0.553733
C242	C	-0.464532	1.250858	1.053733
H243	H	-0.963479	0.807688	0.519593
H244	H	-0.463479	1.307688	1.019593
H245	H	-0.990229	0.762542	0.617075
H246	H	-0.490229	1.262542	1.117075
C247	C	-0.881694	0.649690	0.607604
C248	C	-0.381694	1.149690	1.107604
C249	C	-0.880395	0.719487	0.565669
C250	C	-0.380395	1.219487	1.065669
H251	H	-0.829796	0.630339	0.614971
H252	H	-0.329796	1.130339	1.114971
H253	H	-0.913052	0.611954	0.575913
H254	H	-0.413052	1.111954	1.075913
H255	H	-0.903112	0.659436	0.660385
H256	H	-0.403112	1.159436	1.160385
H257	H	-0.858987	0.709738	0.512886
H258	H	-0.358987	1.209738	1.012886
H259	H	-0.849032	0.757221	0.597352
H260	H	-0.349032	1.257221	1.097352
H261	H	-1.180727	0.331814	0.887214
H262	H	-0.680727	0.831814	1.387214
