data_functionalizedCrystal
_audit_creation_method	'MofGen! by Chris Wilmer'
_symmetry_space_group_name_H-M	'P1'
_symmetry_Int_Tables_number	1
_symmetry_cell_setting	triclinic
loop_
_symmetry_equiv_pos_as_xyz
  x,y,z
_cell_length_a	19.805407
_cell_length_b	18.050588
_cell_length_c	19.805399
_cell_angle_alpha	90.025240
_cell_angle_beta	90.020409
_cell_angle_gamma	90.031501
loop_
_atom_site_label
_atom_site_type_symbol
_atom_site_fract_x
_atom_site_fract_y
_atom_site_fract_z
Zn1	Zn	1.034721	-0.295638	0.382746
Zn2	Zn	1.284721	-0.045638	0.632746
Zn3	Zn	1.534721	0.204362	0.882746
Zn4	Zn	1.784721	0.454362	1.132746
Zn5	Zn	1.034629	-0.419830	0.269562
Zn6	Zn	1.284629	-0.169830	0.519562
Zn7	Zn	1.534629	0.080170	0.769562
Zn8	Zn	1.784629	0.330170	1.019562
Zn9	Zn	0.921536	-0.295663	0.269569
Zn10	Zn	1.171536	-0.045663	0.519569
Zn11	Zn	1.421536	0.204337	0.769569
Zn12	Zn	1.671536	0.454337	1.019569
Zn13	Zn	0.921493	-0.419795	0.382707
Zn14	Zn	1.171493	-0.169795	0.632707
Zn15	Zn	1.421493	0.080205	0.882707
Zn16	Zn	1.671493	0.330205	1.132707
O17	O	0.978095	-0.357732	0.326146
O18	O	1.228095	-0.107732	0.576146
O19	O	1.478095	0.142268	0.826146
O20	O	1.728095	0.392268	1.076146
O21	O	1.129425	-0.312117	0.367745
O22	O	1.379425	-0.062117	0.617745
O23	O	1.629425	0.187883	0.867745
O24	O	1.879425	0.437883	1.117745
O25	O	1.019607	-0.403384	0.174846
O26	O	1.269607	-0.153384	0.424846
O27	O	1.519607	0.096616	0.674846
O28	O	1.769607	0.346616	0.924846
O29	O	0.936606	-0.191735	0.284601
O30	O	1.186606	0.058265	0.534601
O31	O	1.436606	0.308265	0.784601
O32	O	1.686606	0.558265	1.034601
O33	O	1.129358	-0.403360	0.284590
O34	O	1.379358	-0.153360	0.534590
O35	O	1.629358	0.096640	0.784590
O36	O	1.879358	0.346640	1.034590
O37	O	1.019763	-0.191717	0.367751
O38	O	1.269763	0.058283	0.617751
O39	O	1.519763	0.308283	0.867751
O40	O	1.769763	0.558283	1.117751
O41	O	0.936517	-0.312159	0.174851
O42	O	1.186517	-0.062159	0.424851
O43	O	1.436517	0.187841	0.674851
O44	O	1.686517	0.437841	0.924851
O45	O	0.826813	-0.312125	0.284563
O46	O	1.076813	-0.062125	0.534563
O47	O	1.326813	0.187875	0.784563
O48	O	1.576813	0.437875	1.034563
O49	O	0.936533	-0.403300	0.477429
O50	O	1.186533	-0.153300	0.727429
O51	O	1.436533	0.096700	0.977429
O52	O	1.686533	0.346700	1.227429
O53	O	0.826782	-0.403324	0.367686
O54	O	1.076782	-0.153324	0.617686
O55	O	1.326782	0.096676	0.867686
O56	O	1.576782	0.346676	1.117686
O57	O	1.019721	-0.312083	0.477457
O58	O	1.269721	-0.062083	0.727457
O59	O	1.519721	0.187917	0.977457
O60	O	1.769721	0.437917	1.227457
O61	O	1.019566	-0.523750	0.284552
O62	O	1.269566	-0.273750	0.534552
O63	O	1.519566	-0.023750	0.784552
O64	O	1.769566	0.226250	1.034552
O65	O	0.936445	-0.523724	0.367679
O66	O	1.186445	-0.273724	0.617679
O67	O	1.436445	-0.023724	0.867679
O68	O	1.686445	0.226276	1.117679
C69	C	0.802239	-0.357724	0.326122
C70	C	1.052239	-0.107724	0.576122
C71	C	1.302239	0.142276	0.826122
C72	C	1.552239	0.392276	1.076122
C73	C	0.727007	-0.357739	0.326127
C74	C	0.977007	-0.107739	0.576127
C75	C	1.227007	0.142261	0.826127
C76	C	1.477007	0.392261	1.076127
C77	C	0.265254	-0.310310	0.369538
C78	C	0.515254	-0.060310	0.619538
C79	C	0.765254	0.189690	0.869538
C80	C	1.015254	0.439690	1.119538
C81	C	0.335943	-0.310311	0.369533
C82	C	0.585943	-0.060311	0.619533
C83	C	0.835943	0.189689	0.869533
C84	C	1.085943	0.439689	1.119533
C85	C	0.371245	-0.357743	0.326168
C86	C	0.621245	-0.107743	0.576168
C87	C	0.871245	0.142257	0.826168
C88	C	1.121245	0.392257	1.076168
C89	C	0.335855	-0.405182	0.282810
C90	C	0.585855	-0.155182	0.532810
C91	C	0.835855	0.094818	0.782810
C92	C	1.085855	0.344818	1.032810
C93	C	0.265168	-0.405183	0.282819
C94	C	0.515168	-0.155183	0.532819
C95	C	0.765168	0.094817	0.782819
C96	C	1.015168	0.344817	1.032819
C97	C	0.620929	-0.405176	0.282774
C98	C	0.870929	-0.155176	0.532774
C99	C	1.120929	0.094824	0.782774
C100	C	1.370929	0.344824	1.032774
C101	C	0.691621	-0.405169	0.282767
C102	C	0.941621	-0.155169	0.532767
C103	C	1.191621	0.094831	0.782767
C104	C	1.441621	0.344831	1.032767
C105	C	0.691703	-0.310304	0.369488
C106	C	0.941703	-0.060304	0.619488
C107	C	1.191703	0.189696	0.869488
C108	C	1.441703	0.439696	1.119488
C109	C	0.621016	-0.310306	0.369497
C110	C	0.871016	-0.060306	0.619497
C111	C	1.121016	0.189694	0.869497
C112	C	1.371016	0.439694	1.119497
C113	C	0.585632	-0.357747	0.326142
C114	C	0.835632	-0.107747	0.576142
C115	C	1.085632	0.142253	0.826142
C116	C	1.335632	0.392253	1.076142
C117	C	0.508984	-0.357746	0.326148
C118	C	0.758984	-0.107746	0.576148
C119	C	1.008984	0.142254	0.826148
C120	C	1.258984	0.392254	1.076148
C121	C	0.447892	-0.357741	0.326157
C122	C	0.697892	-0.107741	0.576157
C123	C	0.947892	0.142259	0.826157
C124	C	1.197892	0.392259	1.076157
C125	C	0.978009	-0.550684	0.326126
C126	C	1.228009	-0.300684	0.576126
C127	C	1.478009	-0.050684	0.826126
C128	C	1.728009	0.199316	1.076126
C129	C	0.978034	-0.633230	0.326140
C130	C	1.228034	-0.383230	0.576140
C131	C	1.478034	-0.133230	0.826140
C132	C	1.728034	0.116770	1.076140
C133	C	0.932904	-0.882068	0.371345
C134	C	1.182904	-0.632068	0.621345
C135	C	1.432904	-0.382068	0.871345
C136	C	1.682904	-0.132068	1.121345
C137	C	0.994622	-0.832596	0.387956
C138	C	1.244622	-0.582596	0.637956
C139	C	1.494622	-0.332596	0.887956
C140	C	1.744622	-0.082596	1.137956
C141	C	0.978175	-0.930350	0.326177
C142	C	1.228175	-0.680350	0.576177
C143	C	1.478175	-0.430350	0.826177
C144	C	1.728175	-0.180350	1.076177
C145	C	0.916391	-0.832740	0.309579
C146	C	1.166391	-0.582740	0.559579
C147	C	1.416391	-0.332740	0.809579
C148	C	1.666391	-0.082740	1.059579
C149	C	0.978102	-0.784365	0.326160
C150	C	1.228102	-0.534365	0.576160
C151	C	1.478102	-0.284365	0.826160
C152	C	1.728102	-0.034365	1.076160
C153	C	1.039925	-0.881965	0.342821
C154	C	1.289925	-0.631965	0.592821
C155	C	1.539925	-0.381965	0.842821
C156	C	1.789925	-0.131965	1.092821
C157	C	0.961653	-0.882114	0.264415
C158	C	1.211653	-0.632114	0.514415
C159	C	1.461653	-0.382114	0.764415
C160	C	1.711653	-0.132114	1.014415
C161	C	1.023413	-0.832664	0.281003
C162	C	1.273413	-0.582664	0.531003
C163	C	1.523413	-0.332664	0.781003
C164	C	1.773413	-0.082664	1.031003
C165	C	0.978215	-1.014448	0.326189
C166	C	1.228215	-0.764448	0.576189
C167	C	1.478215	-0.514448	0.826189
C168	C	1.728215	-0.264448	1.076189
C169	C	0.978068	-0.700268	0.326149
C170	C	1.228068	-0.450268	0.576149
C171	C	1.478068	-0.200268	0.826149
C172	C	1.728068	0.049732	1.076149
C173	C	1.154637	-0.357740	0.326171
C174	C	1.404637	-0.107740	0.576171
C175	C	1.654637	0.142260	0.826171
C176	C	1.904637	0.392260	1.076171
C177	C	1.229869	-0.357743	0.326182
C178	C	1.479869	-0.107743	0.576182
C179	C	1.729869	0.142257	0.826182
C180	C	1.979869	0.392257	1.076182
C181	C	0.978133	-0.357685	0.502689
C182	C	1.228133	-0.107685	0.752689
C183	C	1.478133	0.142315	1.002689
C184	C	1.728133	0.392315	1.252689
C185	C	0.978149	-0.357665	0.577921
C186	C	1.228149	-0.107665	0.827921
C187	C	1.478149	0.142335	1.077921
C188	C	1.728149	0.392335	1.327921
C189	C	0.978199	-0.164026	0.326181
C190	C	1.228199	0.085974	0.576181
C191	C	1.478199	0.335974	0.826181
C192	C	1.728199	0.585974	1.076181
C193	C	0.978244	-0.081480	0.326196
C194	C	1.228244	0.168520	0.576196
C195	C	1.478244	0.418520	0.826196
C196	C	1.728244	0.668520	1.076196
C197	C	0.978096	-0.357725	0.150290
C198	C	1.228096	-0.107725	0.400290
C199	C	1.478096	0.142275	0.650290
C200	C	1.728096	0.392275	0.900290
C201	C	0.978211	-0.357535	0.075058
C202	C	1.228211	-0.107535	0.325058
C203	C	1.478211	0.142465	0.575058
C204	C	1.728211	0.392465	0.825058
C205	C	1.021466	-0.310166	0.613281
C206	C	1.271466	-0.060166	0.863281
C207	C	1.521466	0.189834	1.113281
C208	C	1.771466	0.439834	1.363281
C209	C	1.021473	-0.310144	0.683969
C210	C	1.271473	-0.060144	0.933969
C211	C	1.521473	0.189856	1.183969
C212	C	1.771473	0.439856	1.433969
C213	C	0.978166	-0.357626	0.719296
C214	C	1.228166	-0.107626	0.969296
C215	C	1.478166	0.142374	1.219296
C216	C	1.728166	0.392374	1.469296
C217	C	0.934844	-0.405128	0.683931
C218	C	1.184844	-0.155128	0.933931
C219	C	1.434844	0.094872	1.183931
C220	C	1.684844	0.344872	1.433931
C221	C	0.934834	-0.405145	0.613244
C222	C	1.184834	-0.155145	0.863244
C223	C	1.434834	0.094855	1.113244
C224	C	1.684834	0.344855	1.363244
C225	C	0.934882	-0.405058	0.969005
C226	C	1.184882	-0.155058	1.219005
C227	C	1.434882	0.094942	1.469005
C228	C	1.684882	0.344942	1.719005
C229	C	0.934897	-0.405039	1.039697
C230	C	1.184897	-0.155039	1.289697
C231	C	1.434897	0.094961	1.539697
C232	C	1.684897	0.344961	1.789697
C233	C	1.021521	-0.310058	1.039730
C234	C	1.271521	-0.060058	1.289730
C235	C	1.521521	0.189942	1.539730
C236	C	1.771521	0.439942	1.789730
C237	C	1.021511	-0.310075	0.969043
C238	C	1.271511	-0.060075	1.219043
C239	C	1.521511	0.189925	1.469043
C240	C	1.771511	0.439925	1.719043
C241	C	0.978187	-0.357573	0.933684
C242	C	1.228187	-0.107573	1.183684
C243	C	1.478187	0.142427	1.433684
C244	C	1.728187	0.392427	1.683684
C245	C	0.978179	-0.357595	0.857035
C246	C	1.228179	-0.107595	1.107035
C247	C	1.478179	0.142405	1.357035
C248	C	1.728179	0.392405	1.607035
C249	C	0.978176	-0.357609	0.795944
C250	C	1.228176	-0.107609	1.045944
C251	C	1.478176	0.142391	1.295944
C252	C	1.728176	0.392391	1.545944
H253	H	0.720521	-0.271677	0.404792
H254	H	0.970521	-0.021677	0.654792
H255	H	1.220521	0.228323	0.904792
H256	H	1.470521	0.478323	1.154792
H257	H	0.899615	-0.443745	0.940224
H258	H	1.149615	-0.193745	1.190224
H259	H	1.399615	0.056255	1.440224
H260	H	1.649615	0.306255	1.690224
F261	F	0.848138	-0.804473	0.291238
F262	F	1.098138	-0.554473	0.541238
F263	F	1.348138	-0.304473	0.791238
F264	F	1.598138	-0.054473	1.041238
H265	H	0.236359	-0.443810	0.247515
H266	H	0.486359	-0.193810	0.497515
H267	H	0.736359	0.056190	0.747515
H268	H	0.986359	0.306190	0.997515
H269	H	1.008569	-0.810847	0.440180
H270	H	1.258569	-0.560847	0.690180
H271	H	1.508569	-0.310847	0.940180
H272	H	1.758569	-0.060847	1.190180
F273	F	1.067564	-0.259632	0.575689
F274	F	1.317564	-0.009632	0.825689
F275	F	1.567564	0.240368	1.075689
F276	F	1.817564	0.490368	1.325689
F277	F	0.888728	-0.455698	0.575612
F278	F	1.138728	-0.205698	0.825612
F279	F	1.388728	0.044302	1.075612
F280	F	1.638728	0.294302	1.325612
H281	H	1.056795	-0.271380	1.068527
H282	H	1.306795	-0.021380	1.318527
H283	H	1.556795	0.228620	1.568527
H284	H	1.806795	0.478620	1.818527
F285	F	0.373429	-0.455665	0.236661
F286	F	0.623429	-0.205665	0.486661
F287	F	0.873429	0.044335	0.736661
F288	F	1.123429	0.294335	0.986661
F289	F	0.729191	-0.455654	0.236610
F290	F	0.979191	-0.205654	0.486610
F291	F	1.229191	0.044346	0.736610
F292	F	1.479191	0.294346	0.986610
H293	H	0.899580	-0.443786	0.712701
H294	H	1.149580	-0.193786	0.962701
H295	H	1.399580	0.056214	1.212701
H296	H	1.649580	0.306214	1.462701
H297	H	0.364750	-0.271689	0.404840
H298	H	0.614750	-0.021689	0.654840
H299	H	0.864750	0.228311	0.904840
H300	H	1.114750	0.478311	1.154840
H301	H	0.592276	-0.271679	0.404806
H302	H	0.842276	-0.021679	0.654806
H303	H	1.092276	0.228321	0.904806
H304	H	1.342276	0.478321	1.154806
H305	H	0.894698	-0.903758	0.409577
H306	H	1.144698	-0.653758	0.659577
H307	H	1.394698	-0.403758	0.909577
H308	H	1.644698	-0.153758	1.159577
F309	F	0.943399	-0.910565	0.196174
F310	F	1.193399	-0.660565	0.446174
F311	F	1.443399	-0.410565	0.696174
F312	F	1.693399	-0.160565	0.946174
H313	H	0.899628	-0.443706	1.068459
H314	H	1.149628	-0.193706	1.318459
H315	H	1.399628	0.056294	1.568459
H316	H	1.649628	0.306294	1.818459
H317	H	0.592128	-0.443803	0.247470
H318	H	0.842128	-0.193803	0.497470
H319	H	1.092128	0.056197	0.747470
H320	H	1.342128	0.306197	0.997470
F321	F	1.108200	-0.910108	0.361240
F322	F	1.358200	-0.660108	0.611240
F323	F	1.608200	-0.410108	0.861240
F324	F	1.858200	-0.160108	1.111240
H325	H	1.061710	-0.811109	0.242800
H326	H	1.311710	-0.561109	0.492800
H327	H	1.561710	-0.311109	0.742800
H328	H	1.811710	-0.061109	0.992800
F329	F	0.227689	-0.259822	0.415690
F330	F	0.477689	-0.009822	0.665690
F331	F	0.727689	0.240178	0.915690
F332	F	0.977689	0.490178	1.165690
F333	F	1.067600	-0.259614	0.721599
F334	F	1.317600	-0.009614	0.971599
F335	F	1.567600	0.240386	1.221599
F336	F	1.817600	0.490386	1.471599
H337	H	1.056779	-0.271413	0.940283
H338	H	1.306779	-0.021413	1.190283
H339	H	1.556779	0.228587	1.440283
H340	H	1.806779	0.478587	1.690283
