data_functionalizedCrystal
_audit_creation_method	'MofGen! by Chris Wilmer'
_symmetry_space_group_name_H-M	'P1'
_symmetry_Int_Tables_number	1
_symmetry_cell_setting	triclinic
loop_
_symmetry_equiv_pos_as_xyz
  x,y,z
_cell_length_a	14.628931
_cell_length_b	17.052862
_cell_length_c	14.628931
_cell_angle_alpha	89.999927
_cell_angle_beta	60.000028
_cell_angle_gamma	50.259347
loop_
_atom_site_label
_atom_site_type_symbol
_atom_site_fract_x
_atom_site_fract_y
_atom_site_fract_z
Zr1	Zr	0.679068	0.914390	0.040792
O2	O	0.923064	0.762831	-0.131814
O3	O	0.472026	0.960851	0.093705
O4	O	0.662731	0.960851	-0.097000
O5	O	0.732359	0.762831	0.209324
O6	O	0.607808	1.117053	-0.069539
O7	O	0.732358	0.762831	0.058892
O8	O	0.266671	1.117053	0.271598
O9	O	1.073496	0.762831	-0.131814
O10	O	0.502510	1.097237	0.136766
O11	O	0.543499	0.980666	0.228537
O12	O	0.768030	0.980666	0.004006
O13	O	0.809019	0.864094	0.095777
Zr14	Zr	0.591473	1.163513	0.324510
Zr15	Zr	0.591473	1.163513	0.084589
Zr16	Zr	0.679069	0.914390	0.280713
Zr17	Zr	0.918990	0.914390	0.040791
Zr18	Zr	0.351551	1.163513	0.324511
O19	O	0.798516	1.117052	0.271597
O20	O	0.798515	1.117052	-0.069540
O21	O	0.923065	0.762831	0.209323
O22	O	0.347478	1.315072	0.497116
O23	O	0.347476	1.315072	0.155979
O24	O	0.472027	0.960851	0.434842
O25	O	0.538183	1.315072	0.155979
O26	O	0.607810	1.117052	0.462303
O27	O	0.662733	0.960850	0.434842
O28	O	0.538183	1.315072	0.306410
O29	O	1.003869	0.960850	-0.097001
O30	O	0.266672	1.117052	0.462304
O31	O	0.197045	1.315072	0.497117
O32	O	0.197045	1.315073	0.306411
O33	O	1.073497	0.762830	0.058891
O34	O	1.003870	0.960850	0.093704
O35	O	0.502511	1.097237	0.361297
O36	O	0.461523	1.213809	0.269525
O37	O	0.727042	1.097237	0.136765
O38	O	0.768031	0.980665	0.228537
C39	C	0.335165	1.038952	0.182652
C40	C	0.233311	1.038952	0.182652
C41	C	0.295416	0.957172	0.089515
C42	C	0.190148	0.957171	0.089513
C43	C	0.744839	0.727336	0.127868
C44	C	0.782025	0.621577	0.109275
C45	C	0.332440	0.566862	0.334063
C46	C	0.297497	0.666230	0.351527
C47	C	0.418626	0.655072	0.290966
C48	C	0.574705	0.544535	0.212936
C49	C	0.609652	0.445157	0.195463
C50	C	0.695837	0.533368	0.152366
C51	C	0.851916	0.422831	0.074336
C52	C	0.886856	0.323464	0.056867
C53	C	0.765727	0.334621	0.117428
C54	C	0.660890	0.632746	0.169840
C55	C	0.938101	0.511041	0.031240
C56	C	0.973044	0.411673	0.013775
C57	C	0.935377	1.038951	0.182650
C58	C	1.037230	1.038951	0.182650
C59	C	0.635270	1.038952	-0.117454
C60	C	0.635269	1.038952	-0.219306
C61	C	0.525702	1.350567	0.237435
C62	C	0.488516	1.456326	0.256028
C63	C	0.766985	0.981125	-0.330573
C64	C	0.766988	0.981124	-0.435845
C65	C	0.635272	1.038951	0.482756
C66	C	0.635272	1.038951	0.584609
C67	C	0.225596	1.350567	0.237436
C68	C	0.086557	1.456327	0.256029
C69	C	0.335166	1.038952	0.482757
C70	C	0.233313	1.038952	0.584610
C71	C	0.225597	1.350567	0.537540
C72	C	0.086558	1.456326	0.657986
C73	C	1.044944	0.727336	-0.172238
C74	C	1.183983	0.621577	-0.292684
C75	C	1.044945	0.727336	0.127867
C76	C	1.183985	0.621576	0.109274
C77	C	0.935376	1.038951	-0.117454
C78	C	1.037229	1.038951	-0.219307
C79	C	0.042657	1.445144	0.195451
C80	C	-0.087969	1.544506	0.212898
C81	C	-0.174700	1.655051	0.290928
C82	C	-0.130790	1.666232	0.351507
C83	C	-0.000160	1.566870	0.334054
C84	C	-0.000136	1.566852	0.666647
C85	C	-0.130768	1.666233	0.779812
C86	C	-0.174710	1.655087	0.884314
C87	C	-0.088003	1.544550	0.875649
C88	C	0.042633	1.445171	0.762486
C89	C	1.270689	0.511051	-0.301345
C90	C	1.401351	0.411670	-0.414509
C91	C	1.445298	0.422816	-0.519011
C92	C	1.358585	0.533353	-0.510346
C93	C	1.227932	0.632732	-0.397183
C94	C	1.227894	0.632759	0.169841
C95	C	1.358546	0.533396	0.152368
C96	C	1.445281	0.422852	0.074334
C97	C	1.401367	0.411671	0.013760
C98	C	1.270723	0.511032	0.031227
C99	C	0.167571	1.096779	0.695877
C100	C	0.062300	1.096780	0.801149
H101	H	0.426519	0.887162	0.009776
F102	F	1.135657	0.750359	-0.387984
H103	H	0.113207	1.355180	0.755450
F104	F	0.046611	1.578741	0.555442
H105	H	1.394277	0.542523	0.201703
H106	H	-0.015775	1.108965	0.262396
F107	F	0.914380	0.916419	-0.353224
H108	H	0.879756	0.931609	-0.531280
F109	F	-0.134679	1.532583	0.148419
F110	F	0.487870	1.103671	-0.196654
H111	H	0.533808	0.722738	0.233381
H112	H	1.471934	0.321676	-0.421541
H113	H	1.551687	0.341885	-0.611148
H114	H	-0.201425	1.756251	0.415040
F115	F	0.487869	1.103660	-0.290657
H116	H	-0.281065	1.735949	0.305130
H117	H	0.243145	0.887153	0.009778
H118	H	0.113271	1.355141	0.131899
H119	H	0.035565	1.575992	0.383392
H120	H	-0.201354	1.756228	0.786846
H121	H	-0.281086	1.736018	0.976451
H122	H	0.189228	1.146281	0.713199
H123	H	-0.123801	1.535492	0.960750
H124	H	1.234920	0.501954	-0.216266
F125	F	1.493690	0.294011	-0.069285
F126	F	1.405374	0.545197	-0.621578
F127	F	1.584320	0.317111	0.055757
H128	H	0.211668	0.989440	0.567285
F129	F	1.135608	0.750400	0.252894
F130	F	0.381431	0.760831	0.309557
H131	H	1.234980	0.501911	-0.018094
F132	F	-0.011502	1.161500	0.925888
F133	F	0.111007	0.974245	0.655961
H134	H	0.102207	1.108967	0.262387
H135	H	0.170417	0.756224	0.415046
F136	F	0.802909	0.228865	0.098854
F137	F	0.203546	0.578723	0.398498
H138	H	1.100125	0.321661	-0.049758
F139	F	1.052970	0.205823	-0.026188
F140	F	1.067024	0.499158	-0.033229
