data_functionalizedCrystal
_audit_creation_method	'MofGen! by Chris Wilmer'
_symmetry_space_group_name_H-M	'P1'
_symmetry_Int_Tables_number	1
_symmetry_cell_setting	triclinic
loop_
_symmetry_equiv_pos_as_xyz
  x,y,z
_cell_length_a	14.853567
_cell_length_b	14.853567
_cell_length_c	9.130313
_cell_angle_alpha	90.002541
_cell_angle_beta	90.002734
_cell_angle_gamma	83.634930
loop_
_atom_site_label
_atom_site_type_symbol
_atom_site_fract_x
_atom_site_fract_y
_atom_site_fract_z
O1	O	1.196360	0.117700	-0.121686
O2	O	1.696360	0.617700	0.378314
O3	O	0.933900	0.131722	-0.121709
O4	O	1.433900	0.631722	0.378291
O5	O	1.072141	-0.006519	-0.121701
O6	O	1.572141	0.493481	0.378299
O7	O	1.058119	0.255941	-0.121694
O8	O	1.558119	0.755941	0.378306
O9	O	1.072139	-0.006515	0.121898
O10	O	1.572139	0.493485	0.621898
O11	O	0.933898	0.131725	0.121890
O12	O	1.433898	0.631725	0.621890
O13	O	1.196358	0.117704	0.121913
O14	O	1.696358	0.617704	0.621913
Cu15	Cu	1.065128	0.124715	0.144144
Cu16	Cu	1.565128	0.624715	0.644144
Cu17	Cu	1.065130	0.124711	-0.143940
Cu18	Cu	1.565130	0.624711	0.356060
O19	O	1.058117	0.255944	0.121905
O20	O	1.558117	0.755944	0.621905
C21	C	0.900311	0.131088	0.000087
C22	C	1.400311	0.631088	0.500087
C23	C	0.800227	0.129184	0.000077
C24	C	1.300227	0.629184	0.500077
C25	C	1.071504	-0.040106	0.000094
C26	C	1.571504	0.459894	0.500094
C27	C	1.069601	-0.140189	0.000081
C28	C	1.569601	0.359811	0.500081
C29	C	0.387693	0.039019	0.000107
C30	C	0.887693	0.539019	0.500107
C31	C	0.366412	0.203251	0.000111
C32	C	0.866412	0.703251	0.500111
C33	C	0.460446	0.205042	0.000106
C34	C	0.960446	0.705042	0.500106
C35	C	0.518108	0.123819	0.000100
C36	C	1.018108	0.623819	0.500100
C37	C	0.481736	0.040806	0.000098
C38	C	0.981736	0.540806	0.500098
C39	C	0.496825	0.288053	0.000093
C40	C	0.996825	0.788053	0.500093
C41	C	0.590864	0.289846	0.000087
C42	C	1.090864	0.789846	0.500087
C43	C	0.648528	0.208623	0.000091
C44	C	1.148528	0.708623	0.500091
C45	C	0.612150	0.125607	0.000091
C46	C	1.112150	0.625607	0.500091
C47	C	0.669812	0.044384	0.000085
C48	C	1.169812	0.544384	0.500085
C49	C	0.633437	-0.038633	0.000095
C50	C	1.133437	0.461367	0.500095
C51	C	0.539399	-0.040417	0.000103
C52	C	1.039399	0.459583	0.500103
C53	C	0.742565	0.210407	0.000084
C54	C	1.242565	0.710407	0.500084
C55	C	0.763855	0.046172	0.000076
C56	C	1.263855	0.546172	0.500076
C57	C	0.979435	-0.552723	0.000101
C58	C	1.479435	-0.052723	0.500101
C59	C	1.143668	-0.574004	0.000115
C60	C	1.643668	-0.074004	0.500115
C61	C	1.145458	-0.479971	0.000107
C62	C	1.645458	0.020029	0.500107
C63	C	1.064235	-0.422309	0.000098
C64	C	1.564235	0.077691	0.500098
C65	C	0.981223	-0.458680	0.000097
C66	C	1.481223	0.041320	0.500097
C67	C	1.228469	-0.443591	0.000123
C68	C	1.728469	0.056409	0.500123
C69	C	1.230262	-0.349552	0.000116
C70	C	1.730262	0.150448	0.500116
C71	C	1.149039	-0.291889	0.000096
C72	C	1.649039	0.208111	0.500096
C73	C	1.066023	-0.328266	0.000093
C74	C	1.566023	0.171734	0.500093
C75	C	0.984800	-0.270604	0.000084
C76	C	1.484800	0.229396	0.500084
C77	C	0.901783	-0.306979	0.000071
C78	C	1.401783	0.193021	0.500071
C79	C	0.899999	-0.401017	0.000077
C80	C	1.399999	0.098983	0.500077
C81	C	1.150823	-0.197851	0.000090
C82	C	1.650823	0.302149	0.500090
C83	C	0.986588	-0.176561	0.000080
C84	C	1.486588	0.323439	0.500080
C85	C	1.229947	0.118337	0.000114
C86	C	1.729947	0.618337	0.500114
C87	C	1.330031	0.120241	0.000114
C88	C	1.830031	0.620241	0.500114
C89	C	1.058754	0.289531	0.000107
C90	C	1.558754	0.789531	0.500107
C91	C	1.060657	0.389615	0.000110
C92	C	1.560657	0.889615	0.500110
N93	N	1.065133	0.124717	0.346767
N94	N	1.565133	0.624717	0.846767
N95	N	1.065132	0.124701	-0.346563
N96	N	1.565132	0.624701	0.153437
C97	C	1.126362	0.063525	0.423422
C98	C	1.626362	0.563525	0.923422
C99	C	1.126359	0.063514	0.576759
C100	C	1.626359	0.563514	1.076759
C101	C	1.003897	0.185896	0.576771
C102	C	1.503897	0.685896	1.076771
C103	C	1.003896	0.185902	0.423437
C104	C	1.503896	0.685902	0.923437
C105	C	1.187599	0.002341	0.346751
C106	C	1.687599	0.502341	0.846751
C107	C	1.248833	-0.058855	0.423407
C108	C	1.748833	0.441145	0.923407
C109	C	1.248831	-0.058866	0.576744
C110	C	1.748831	0.441134	1.076744
C111	C	1.187594	0.002319	0.653425
C112	C	1.687594	0.502319	1.153425
H113	H	0.810798	-0.019971	0.000076
H114	H	1.310798	0.480029	0.500076
O115	O	0.695631	-0.126238	0.000099
O116	O	1.195631	0.373762	0.500099
H117	H	0.767130	-0.111041	0.000098
H118	H	1.267130	0.388959	0.500098
H119	H	0.920445	-0.129618	0.000066
H120	H	1.420445	0.370382	0.500066
H121	H	1.297860	-0.319944	0.000124
H122	H	1.797860	0.180056	0.500124
H123	H	0.832411	-0.430643	0.000068
H124	H	1.332411	0.069357	0.500068
O125	O	0.630089	0.379384	0.000110
O126	O	1.130089	0.879384	0.500110
H127	H	0.606929	0.418426	-0.099163
H128	H	1.106929	0.918426	0.400837
O129	O	0.500169	-0.129952	0.000107
O130	O	1.000169	0.370048	0.500107
H131	H	0.425092	-0.117547	0.000097
H132	H	0.925092	0.382453	0.500097
H133	H	1.187591	0.002299	0.778282
H134	H	1.687591	0.502299	1.278282
H135	H	0.911844	-0.582344	0.000084
H136	H	1.411844	-0.082344	0.500084
H137	H	0.449870	0.354180	0.000083
H138	H	0.949870	0.854180	0.500083
H139	H	1.218414	-0.168238	0.000110
H140	H	1.718414	0.331762	0.500110
H141	H	0.954041	0.235712	0.639215
H142	H	1.454041	0.735712	1.139215
H143	H	0.954037	0.235729	0.361024
H144	H	1.454037	0.735729	0.861024
H145	H	1.187608	0.002346	0.221897
H146	H	1.687608	0.502346	0.721897
O147	O	1.314858	-0.124869	0.340715
O148	O	1.814858	0.375131	0.840715
H149	H	1.304573	-0.114584	0.221213
H150	H	1.804573	0.385416	0.721213
H151	H	0.358072	-0.028572	0.000122
H152	H	0.858072	0.471428	0.500122
H153	H	0.772178	0.277998	0.000077
H154	H	1.272178	0.777998	0.500077
O155	O	0.304227	0.290854	0.000133
O156	O	0.804227	0.790854	0.500133
H157	H	0.232726	0.275665	0.000151
H158	H	0.732726	0.775665	0.500151
H159	H	0.835652	-0.260019	0.000074
H160	H	1.335652	0.239981	0.500074
H161	H	1.209795	-0.620958	0.000135
H162	H	1.709795	-0.120958	0.500135
O163	O	1.316070	-0.505778	0.000154
O164	O	1.816070	-0.005778	0.500154
H165	H	1.300878	-0.577279	0.000142
H166	H	1.800878	-0.077279	0.500142
O167	O	1.314877	-0.124859	0.659431
O168	O	1.814877	0.375141	1.159431
H169	H	1.357463	-0.167393	0.580351
H170	H	1.857463	0.332607	1.080351
