data_functionalizedCrystal
_audit_creation_method	'MofGen! by Chris Wilmer'
_symmetry_space_group_name_H-M	'P1'
_symmetry_Int_Tables_number	1
_symmetry_cell_setting	triclinic
loop_
_symmetry_equiv_pos_as_xyz
  x,y,z
_cell_length_a	12.811457
_cell_length_b	10.654536
_cell_length_c	9.730217
_cell_angle_alpha	89.986394
_cell_angle_beta	84.571295
_cell_angle_gamma	95.737182
loop_
_atom_site_label
_atom_site_type_symbol
_atom_site_fract_x
_atom_site_fract_y
_atom_site_fract_z
O1	O	1.393887	-0.169144	-0.059409
O2	O	1.088439	-0.187540	-0.021332
O3	O	1.248190	0.004434	-0.041293
O4	O	1.234136	-0.361119	-0.039448
O5	O	1.248179	0.004434	-0.269872
O6	O	1.088428	-0.187540	-0.249911
O7	O	1.393876	-0.169145	-0.287988
Zn8	Zn	1.241151	-0.178342	-0.305241
Zn9	Zn	1.241165	-0.178342	-0.004079
O10	O	1.234125	-0.361119	-0.268027
C11	C	1.049323	-0.186509	-0.130746
C12	C	0.932783	-0.183424	-0.116221
C13	C	0.713783	-0.177602	-0.338150
C14	C	0.604284	-0.174702	-0.324509
C15	C	0.604286	-0.174715	-0.075298
C16	C	0.713785	-0.177615	-0.088940
C17	C	0.768529	-0.179060	-0.220370
C18	C	0.878029	-0.181969	-0.234010
C19	C	0.878030	-0.181973	0.015199
C20	C	0.768531	-0.179074	0.028841
C21	C	1.247154	0.051227	-0.155463
C22	C	1.244071	0.190655	-0.155106
C23	C	1.435094	0.219620	-0.178940
C24	C	1.529152	0.299603	-0.190692
C25	C	1.526250	0.430607	-0.190353
C26	C	1.429278	0.481627	-0.178257
C27	C	1.335219	0.401644	-0.166504
C28	C	1.338132	0.270639	-0.166849
C29	C	1.144199	0.372679	-0.142661
C30	C	1.147100	0.241676	-0.143009
C31	C	1.047227	0.423700	-0.130564
C32	C	0.953167	0.343716	-0.118821
C33	C	0.956073	0.212705	-0.119162
C34	C	1.053041	0.161692	-0.131256
C35	C	1.432993	-0.170175	-0.178571
C36	C	1.549532	-0.173261	-0.193087
N37	N	1.241149	-0.178342	-0.510777
C38	C	1.235165	0.592089	-0.153907
C39	C	1.238258	0.452663	-0.154413
C40	C	1.382692	-0.008389	-0.816188
C41	C	1.453441	0.076586	-0.753069
C42	C	1.453427	0.076590	-0.609188
C43	C	1.382659	-0.008394	-0.528421
C44	C	1.311911	-0.093370	-0.591540
C45	C	1.311930	-0.093361	-0.735425
C46	C	1.170400	-0.263317	-0.573896
C47	C	1.170407	-0.263317	-0.717777
C48	C	1.099632	-0.348301	-0.493130
C49	C	1.028877	-0.433273	-0.556248
C50	C	1.028893	-0.433271	-0.700138
C51	C	1.099658	-0.348292	-0.780896
N52	N	1.241175	-0.178333	0.201456
H53	H	1.608105	0.258048	-0.200553
H54	H	1.044871	0.530371	-0.130281
H55	H	0.723943	-0.177891	0.135847
O56	O	0.937076	-0.183543	-0.375761
H57	H	0.924803	-0.097485	-0.433998
O58	O	1.438217	0.078322	-0.179324
H59	H	1.480220	0.050011	-0.091397
O60	O	0.545225	-0.173153	0.066445
H61	H	0.601688	-0.174647	0.146061
H62	H	0.922615	-0.183168	0.111105
H63	H	0.971268	-0.502466	-0.490480
H64	H	1.602840	0.495730	-0.199913
O65	O	0.952603	-0.524946	-0.768220
H66	H	0.903400	-0.584036	-0.687882
H67	H	1.099674	-0.348279	-0.898052
O68	O	0.772836	-0.179182	-0.479897
H69	H	0.760565	-0.093130	-0.538146
O70	O	0.854618	0.126446	-0.106485
H71	H	0.872922	0.026777	-0.108747
O72	O	1.382656	-0.008398	-0.373236
H73	H	1.321568	-0.081769	-0.327679
H74	H	1.426923	0.588298	-0.177965
H75	H	0.874220	0.385268	-0.108964
O76	O	1.529772	0.168239	-0.840181
H77	H	1.515700	0.266224	-0.810832
H78	H	0.559713	-0.173521	-0.420418
O79	O	1.056173	0.020395	-0.131619
H80	H	1.139402	-0.001640	-0.141993
H81	H	1.382702	-0.008373	-0.933344
H82	H	1.511040	0.145779	-0.557797
O83	O	1.099602	-0.348296	-0.337941
H84	H	1.160675	-0.274919	-0.307614
