data_functionalizedCrystal
_audit_creation_method	'MofGen! by Chris Wilmer'
_symmetry_space_group_name_H-M	'P1'
_symmetry_Int_Tables_number	1
_symmetry_cell_setting	triclinic
loop_
_symmetry_equiv_pos_as_xyz
  x,y,z
_cell_length_a	25.639242
_cell_length_b	25.639240
_cell_length_c	25.639234
_cell_angle_alpha	89.968234
_cell_angle_beta	89.980822
_cell_angle_gamma	90.025061
loop_
_atom_site_label
_atom_site_type_symbol
_atom_site_fract_x
_atom_site_fract_y
_atom_site_fract_z
Zn1	Zn	0.799271	-0.208292	-0.295607
Zn2	Zn	1.299271	0.291708	0.204393
Zn3	Zn	0.799197	-0.295719	-0.208160
Zn4	Zn	1.299197	0.204281	0.291840
Zn5	Zn	0.711840	-0.208288	-0.208183
Zn6	Zn	1.211840	0.291712	0.291817
Zn7	Zn	0.711802	-0.295686	-0.295562
Zn8	Zn	1.211802	0.204314	0.204438
O9	O	0.755528	-0.251996	-0.251878
O10	O	1.255528	0.248004	0.248122
O11	O	0.872427	-0.219905	-0.284016
O12	O	1.372427	0.280095	0.215984
O13	O	0.787593	-0.284134	-0.134998
O14	O	1.287593	0.215866	0.365002
O15	O	0.723486	-0.135123	-0.219808
O16	O	1.223486	0.364877	0.280192
O17	O	0.872372	-0.284137	-0.219770
O18	O	1.372372	0.215863	0.280230
O19	O	0.787721	-0.135126	-0.284038
O20	O	1.287721	0.364874	0.215962
O21	O	0.723413	-0.219898	-0.135015
O22	O	1.223413	0.280102	0.364985
O23	O	0.638670	-0.219866	-0.219765
O24	O	1.138670	0.280134	0.280235
O25	O	0.723420	-0.284081	-0.368733
O26	O	1.223420	0.215919	0.131267
O27	O	0.638642	-0.284077	-0.283962
O28	O	1.138642	0.215923	0.216038
O29	O	0.787684	-0.219872	-0.368766
O30	O	1.287684	0.280128	0.131234
O31	O	0.787556	-0.368880	-0.219726
O32	O	1.287556	0.131120	0.280274
O33	O	0.723348	-0.368856	-0.283940
O34	O	1.223348	0.131144	0.216060
C35	C	0.619685	-0.251968	-0.251861
C36	C	1.119685	0.248032	0.248139
C37	C	0.561571	-0.251969	-0.251867
C38	C	1.061571	0.248031	0.248133
C39	C	0.310414	-0.218610	-0.285392
C40	C	0.810414	0.281390	0.214608
C41	C	0.365019	-0.218605	-0.285390
C42	C	0.865019	0.281395	0.214610
O43	O	0.393286	-0.190219	-0.313891
O44	O	0.893286	0.309781	0.186109
N45	N	0.392297	-0.251990	-0.251884
N46	N	0.892297	0.248010	0.248116
C47	C	0.364969	-0.285387	-0.218383
C48	C	0.864969	0.214613	0.281617
O49	O	0.393185	-0.313784	-0.189885
O50	O	0.893185	0.186216	0.310115
C51	C	0.310365	-0.285394	-0.218389
C52	C	0.810365	0.214606	0.281611
C53	C	0.283089	-0.252003	-0.251893
C54	C	0.783089	0.247997	0.248107
C55	C	0.283138	-0.185221	-0.318894
C56	C	0.783138	0.314779	0.181106
C57	C	0.228538	-0.185226	-0.318896
C58	C	0.728538	0.314774	0.181104
C59	C	0.201213	-0.218619	-0.285397
C60	C	0.701213	0.281381	0.214603
C61	C	0.228489	-0.252007	-0.251895
C62	C	0.728489	0.247993	0.248105
C63	C	0.283038	-0.318793	-0.184892
C64	C	0.783038	0.181207	0.315108
C65	C	0.228431	-0.318798	-0.184901
C66	C	0.728431	0.181202	0.315099
C67	C	0.201155	-0.285407	-0.218405
C68	C	0.701155	0.214593	0.281595
C69	C	0.146564	-0.285405	-0.218398
C70	C	0.646564	0.214595	0.281602
N71	N	0.119285	-0.252019	-0.251904
N72	N	0.619285	0.247981	0.248096
C73	C	0.146610	-0.218626	-0.285403
C74	C	0.646610	0.281374	0.214597
C75	C	0.479639	-0.285370	-0.218374
C76	C	0.979639	0.214630	0.281626
C77	C	0.534241	-0.285360	-0.218365
C78	C	1.034241	0.214640	0.281635
C79	C	0.534288	-0.218578	-0.285372
C80	C	1.034288	0.281422	0.214628
C81	C	0.479684	-0.218585	-0.285378
C82	C	0.979684	0.281415	0.214622
C83	C	0.452361	-0.251984	-0.251879
C84	C	0.952361	0.248016	0.248121
C85	C	0.031945	-0.218638	-0.285404
C86	C	0.531945	0.281362	0.214596
C87	C	-0.022661	-0.218644	-0.285402
C88	C	0.477339	0.281356	0.214598
C89	C	-0.022702	-0.285428	-0.218397
C90	C	0.477298	0.214572	0.281603
C91	C	0.031898	-0.285420	-0.218398
C92	C	0.531898	0.214580	0.281602
C93	C	0.059221	-0.252023	-0.251905
C94	C	0.559221	0.247977	0.248095
O95	O	0.118261	-0.313778	-0.189913
O96	O	0.618261	0.186222	0.310087
O97	O	0.118387	-0.190239	-0.313902
O98	O	0.618387	0.309761	0.186098
C99	C	0.755454	-0.387839	-0.251837
C100	C	1.255454	0.112161	0.248163
C101	C	0.755470	-0.445953	-0.251837
C102	C	1.255470	0.054047	0.248163
C103	C	0.788991	-0.806279	-0.285383
C104	C	1.288991	-0.306279	0.214617
C105	C	0.789007	-0.860883	-0.285394
C106	C	1.289007	-0.360883	0.214606
O107	O	0.817420	-0.889088	-0.313874
O108	O	1.317420	-0.389088	0.186126
N109	N	0.755600	-0.888235	-0.251929
N110	N	1.255600	-0.388235	0.248071
C111	C	0.722172	-0.860980	-0.218455
C112	C	1.222172	-0.360980	0.281545
O113	O	0.693758	-0.889259	-0.189991
O114	O	1.193758	-0.389259	0.310009
C115	C	0.722154	-0.806377	-0.218447
C116	C	1.222154	-0.306377	0.281553
C117	C	0.755567	-0.779028	-0.251911
C118	C	1.255567	-0.279028	0.248089
C119	C	0.822401	-0.778929	-0.318844
C120	C	1.322401	-0.278929	0.181156
C121	C	0.822386	-0.724329	-0.318833
C122	C	1.322386	-0.224329	0.181167
C123	C	0.788962	-0.697078	-0.285360
C124	C	1.288962	-0.197078	0.214640
C125	C	0.755552	-0.724427	-0.251899
C126	C	1.255552	-0.224427	0.248101
C127	C	0.688724	-0.779123	-0.184976
C128	C	1.188724	-0.279123	0.315024
C129	C	0.688709	-0.724516	-0.184972
C130	C	1.188709	-0.224516	0.315028
C131	C	0.722122	-0.697167	-0.218435
C132	C	1.222122	-0.197167	0.281565
C133	C	0.722113	-0.642575	-0.218415
C134	C	1.222113	-0.142575	0.281585
N135	N	0.755520	-0.615223	-0.251880
N136	N	1.255520	-0.115223	0.248120
C137	C	0.788944	-0.642474	-0.285353
C138	C	1.288944	-0.142474	0.214647
C139	C	0.722211	-0.975651	-0.218474
C140	C	1.222211	-0.475651	0.281526
C141	C	0.722231	-1.030253	-0.218478
C142	C	1.222231	-0.530253	0.281522
C143	C	0.789065	-1.030152	-0.285418
C144	C	1.289065	-0.530152	0.214582
C145	C	0.789048	-0.975549	-0.285411
C146	C	1.289048	-0.475549	0.214589
C147	C	0.755618	-0.948299	-0.251939
C148	C	1.255618	-0.448299	0.248061
C149	C	0.788911	-0.527809	-0.285326
C150	C	1.288911	-0.027809	0.214674
C151	C	0.788894	-0.473204	-0.285310
C152	C	1.288894	0.026796	0.214690
C153	C	0.722058	-0.473310	-0.218372
C154	C	1.222058	0.026690	0.281628
C155	C	0.722076	-0.527910	-0.218386
C156	C	1.222076	-0.027910	0.281614
C157	C	0.755504	-0.555159	-0.251867
C158	C	1.255504	-0.055159	0.248133
O159	O	0.693713	-0.614336	-0.189951
O160	O	1.193713	-0.114336	0.310049
O161	O	0.817348	-0.614189	-0.313816
O162	O	1.317348	-0.114189	0.186184
C163	C	0.891901	-0.252025	-0.251896
C164	C	1.391901	0.247975	0.248104
C165	C	0.950015	-0.252037	-0.251903
C166	C	1.450015	0.247963	0.248097
C167	C	0.755556	-0.251973	-0.388251
C168	C	1.255556	0.248027	0.111749
C169	C	0.755568	-0.251963	-0.446365
C170	C	1.255568	0.248037	0.053635
C171	C	0.755616	-0.115623	-0.251931
C172	C	1.255616	0.384377	0.248069
C173	C	0.755654	-0.057509	-0.251953
C174	C	1.255654	0.442491	0.248047
C175	C	0.789000	-0.285368	-0.697543
C176	C	1.289000	0.214632	-0.197543
C177	C	0.788995	-0.285379	-0.642938
C178	C	1.288995	0.214621	-0.142938
O179	O	0.817396	-0.313838	-0.614688
O180	O	1.317396	0.186162	-0.114688
N181	N	0.755579	-0.251938	-0.615639
N182	N	1.255579	0.248062	-0.115639
C183	C	0.722163	-0.218488	-0.642947
C184	C	1.222163	0.281512	-0.142947
O185	O	0.693740	-0.190045	-0.614714
O186	O	1.193740	0.309955	-0.114714
C187	C	0.722167	-0.218480	-0.697551
C188	C	1.222167	0.281520	-0.197551
C189	C	0.755588	-0.251919	-0.724847
C190	C	1.255588	0.248081	-0.224847
C191	C	0.822419	-0.318805	-0.724839
C192	C	1.322419	0.181195	-0.224839
C193	C	0.822425	-0.318793	-0.779440
C194	C	1.322425	0.181207	-0.279440
C195	C	0.789013	-0.285344	-0.806744
C196	C	1.289013	0.214656	-0.306744
C197	C	0.755594	-0.251907	-0.779448
C198	C	1.255594	0.248093	-0.279448
C199	C	0.688748	-0.185033	-0.724858
C200	C	1.188748	0.314967	-0.224858
C201	C	0.688754	-0.185028	-0.779465
C202	C	1.188754	0.314972	-0.279465
C203	C	0.722176	-0.218467	-0.806761
C204	C	1.222176	0.281533	-0.306761
C205	C	0.722188	-0.218447	-0.861352
C206	C	1.222188	0.281553	-0.361352
N207	N	0.755604	-0.251888	-0.888651
N208	N	1.255604	0.248112	-0.388651
C209	C	0.789016	-0.285336	-0.861347
C210	C	1.289016	0.214664	-0.361347
C211	C	0.722158	-0.218508	-0.528277
C212	C	1.222158	0.281492	-0.028277
C213	C	0.722157	-0.218513	-0.473674
C214	C	1.222157	0.281487	0.026326
C215	C	0.788988	-0.285404	-0.473669
C216	C	1.288988	0.214596	0.026331
C217	C	0.788992	-0.285396	-0.528272
C218	C	1.288992	0.214604	-0.028272
C219	C	0.755574	-0.251948	-0.555576
C220	C	1.255574	0.248052	-0.055576
C221	C	0.789026	-0.285309	-0.976012
C222	C	1.289026	0.214691	-0.476012
C223	C	0.789031	-0.285293	-1.030618
C224	C	1.289031	0.214707	-0.530618
C225	C	0.722198	-0.218403	-1.030618
C226	C	1.222198	0.281597	-0.530618
C227	C	0.722195	-0.218417	-0.976018
C228	C	1.222195	0.281583	-0.476018
C229	C	0.755611	-0.251874	-0.948716
C230	C	1.255611	0.248126	-0.448716
O231	O	0.693800	-0.190004	-0.889638
O232	O	1.193800	0.309996	-0.389638
O233	O	0.817430	-0.313779	-0.889588
O234	O	1.317430	0.186221	-0.389588
C235	C	0.755529	-0.251982	-0.116036
C236	C	1.255529	0.248018	0.383964
C237	C	0.755619	-0.251844	-0.057922
C238	C	1.255619	0.248156	0.442078
H239	H	0.206335	-0.158037	-0.346181
H240	H	0.706335	0.341963	0.153819
H241	H	0.695029	-1.052517	-0.191223
H242	H	1.195029	-0.552517	0.308777
O243	O	0.686172	-0.182316	-1.060072
O244	O	1.186172	0.317684	-0.560072
H245	H	0.691794	-0.187929	-1.102626
H246	H	1.191794	0.312071	-0.602626
H247	H	0.661541	-0.157790	-0.801693
H248	H	1.161541	0.342210	-0.301693
O249	O	-0.052081	-0.182629	-0.321541
O250	O	0.447919	0.317371	0.178459
H251	H	-0.023903	-0.159413	-0.344837
H252	H	0.476097	0.340587	0.155163
O253	O	0.061317	-0.321432	-0.182257
O254	O	0.561317	0.178568	0.317743
H255	H	0.086191	-0.297994	-0.155697
H256	H	0.586191	0.202006	0.344303
H257	H	0.816127	-0.549989	-0.312593
H258	H	1.316127	-0.049989	0.187407
H259	H	0.457480	-0.191394	-0.312659
H260	H	0.957480	0.308606	0.187341
O261	O	0.686151	-0.182351	-0.946571
O262	O	1.186151	0.317649	-0.446571
H263	H	0.662917	-0.159092	-0.974734
H264	H	1.162917	0.340908	-0.474734
O265	O	0.198959	-0.354817	-0.148765
O266	O	0.698959	0.145183	0.351235
H267	H	0.227102	-0.378029	-0.125467
H268	H	0.727102	0.121971	0.374533
O269	O	0.652657	-0.695124	-0.148864
O270	O	1.152657	-0.195124	0.351136
H271	H	0.629432	-0.723319	-0.125596
H272	H	1.129432	-0.223319	0.374404
H273	H	0.054184	-0.191443	-0.312689
H274	H	0.554184	0.308557	0.187311
H275	H	0.849628	-0.346045	-0.702614
H276	H	1.349628	0.153955	-0.202614
O277	O	0.686011	-0.443909	-0.182271
O278	O	1.186011	0.056091	0.317729
H279	H	0.662781	-0.472097	-0.158999
H280	H	1.162781	0.027903	0.341001
O281	O	0.312606	-0.149195	-0.355022
O282	O	0.812606	0.350805	0.144978
H283	H	0.284458	-0.125980	-0.378311
H284	H	0.784458	0.374020	0.121689
O285	O	0.563764	-0.182563	-0.321510
O286	O	1.063764	0.317437	0.178490
H287	H	0.606314	-0.188176	-0.315879
H288	H	1.106314	0.311824	0.184121
O289	O	0.825024	-0.321481	-0.444208
O290	O	1.325024	0.178519	0.055792
H291	H	0.866067	-0.312518	-0.454694
H292	H	1.366067	0.187482	0.045306
H293	H	0.305236	-0.345985	-0.157609
H294	H	0.805236	0.154015	0.342391
O295	O	0.563658	-0.321367	-0.182221
O296	O	1.063658	0.178633	0.317779
H297	H	0.553169	-0.362416	-0.191110
H298	H	1.053169	0.137584	0.308890
O299	O	0.450169	-0.321385	-0.182232
O300	O	0.950169	0.178615	0.317768
H301	H	0.478315	-0.344591	-0.158931
H302	H	0.978315	0.155409	0.341069
H303	H	0.816105	-0.450938	-0.312560
H304	H	1.316105	0.049062	0.187440
O305	O	-0.052178	-0.321444	-0.182266
O306	O	0.447822	0.178556	0.317734
H307	H	-0.094729	-0.315838	-0.187904
H308	H	0.405271	0.184162	0.312096
H309	H	0.694948	-0.191265	-0.550504
H310	H	1.194948	0.308735	-0.050504
O311	O	0.858432	-0.694833	-0.354918
O312	O	1.358432	-0.194833	0.145082
H313	H	0.881674	-0.722963	-0.378191
H314	H	1.381674	-0.222963	0.121809
H315	H	0.694873	-0.550179	-0.191133
H316	H	1.194873	-0.050179	0.308867
H317	H	0.849619	-0.801112	-0.346105
H318	H	1.349619	-0.301112	0.153895
H319	H	0.816249	-0.312523	-1.052840
H320	H	1.316249	0.187477	-0.552840
H321	H	0.694990	-0.953466	-0.191213
H322	H	1.194990	-0.453466	0.308787
O323	O	0.825087	-0.946051	-0.321501
O324	O	1.325087	-0.446051	0.178499
H325	H	0.848330	-0.974180	-0.344775
H326	H	1.348330	-0.474180	0.155225
O327	O	0.825112	-1.059549	-0.321530
O328	O	1.325112	-0.559549	0.178470
H329	H	0.819502	-1.102112	-0.315915
H330	H	1.319502	-0.602112	0.184085
H331	H	0.849638	-0.346024	-0.801659
H332	H	1.349638	0.153976	-0.301659
O333	O	0.652682	-0.808614	-0.148887
O334	O	1.152682	-0.308614	0.351113
H335	H	0.629435	-0.780483	-0.125619
H336	H	1.129435	-0.280483	0.374381
H337	H	0.816206	-0.312626	-0.550493
H338	H	1.316206	0.187374	-0.050493
H339	H	0.816240	-0.312550	-0.953790
H340	H	1.316240	0.187450	-0.453790
H341	H	0.694948	-0.191277	-0.451454
H342	H	1.194948	0.308723	0.048546
O343	O	0.652706	-0.148961	-0.695424
O344	O	1.152706	0.351039	-0.195424
H345	H	0.629474	-0.125707	-0.723593
H346	H	1.129474	0.374293	-0.223593
