data_functionalizedCrystal
_audit_creation_method	'MofGen! by Chris Wilmer'
_symmetry_space_group_name_H-M	'P1'
_symmetry_Int_Tables_number	1
_symmetry_cell_setting	triclinic
loop_
_symmetry_equiv_pos_as_xyz
  x,y,z
_cell_length_a	19.121063
_cell_length_b	19.077105
_cell_length_c	19.077569
_cell_angle_alpha	94.700723
_cell_angle_beta	90.211718
_cell_angle_gamma	89.736948
loop_
_atom_site_label
_atom_site_type_symbol
_atom_site_fract_x
_atom_site_fract_y
_atom_site_fract_z
Zn1	Zn	-0.304834	-1.081170	-0.454357
Zn2	Zn	-0.426418	-1.071348	-0.341455
Zn3	Zn	-0.304844	-0.958552	-0.331752
Zn4	Zn	-0.417334	-0.958619	-0.454202
O5	O	-0.363357	-1.017422	-0.395441
O6	O	-0.324760	-1.178361	-0.443505
O7	O	-0.414097	-1.052247	-0.241673
O8	O	-0.206882	-0.978900	-0.344020
O9	O	-0.414087	-1.171145	-0.360557
O10	O	-0.206875	-1.068987	-0.434097
O11	O	-0.324777	-0.969376	-0.234544
O12	O	-0.315969	-0.860067	-0.343870
O13	O	-0.398605	-0.979014	-0.552718
O14	O	-0.398615	-0.860116	-0.433834
O15	O	-0.315951	-1.069052	-0.552831
O16	O	-0.523173	-1.052312	-0.360407
O17	O	-0.516500	-0.969490	-0.443242
C18	C	-0.356307	-0.834553	-0.387783
C19	C	-0.353308	-0.756321	-0.384524
C20	C	-0.545237	-1.009862	-0.402876
C21	C	-0.623047	-1.006693	-0.406083
C22	C	-0.356264	-1.025136	-0.579027
C23	C	-0.353241	-1.028423	-0.657261
C24	C	-0.663054	-1.048362	-0.364501
C25	C	-0.736165	-1.045386	-0.367521
C26	C	-0.769267	-1.000738	-0.412121
C27	C	-0.729255	-0.959067	-0.453708
C28	C	-0.656146	-0.962047	-0.450691
C29	C	-0.989838	-0.989584	-0.423390
C30	C	-1.062953	-0.986605	-0.426402
C31	C	-1.069857	-1.072926	-0.340216
C32	C	-0.996746	-1.075899	-0.337200
C33	C	-0.956740	-1.034231	-0.378790
C34	C	-0.843998	-0.997693	-0.415208
C35	C	-0.882011	-1.037280	-0.375706
C36	C	-0.180768	-1.025032	-0.387994
C37	C	-0.102959	-1.028274	-0.384820
C38	C	-0.370435	-1.201006	-0.403130
C39	C	-0.373452	-1.279238	-0.406407
C40	C	-0.394998	-0.719605	-0.429764
C41	C	-0.392170	-0.646098	-0.426704
C42	C	-0.347655	-0.609308	-0.378401
C43	C	-0.305960	-0.646028	-0.333160
C44	C	-0.308785	-0.719534	-0.336223
C45	C	-0.334582	-0.389465	-0.364228
C46	C	-0.331761	-0.315953	-0.361167
C47	C	-0.417971	-0.316028	-0.454713
C48	C	-0.420794	-0.389535	-0.457769
C49	C	-0.379097	-0.426250	-0.412530
N50	N	-0.344765	-0.534172	-0.375272
N51	N	-0.381984	-0.501385	-0.415663
C52	C	-0.394850	-0.983090	-0.693957
C53	C	-0.392010	-0.986185	-0.767465
C54	C	-0.347556	-1.034609	-0.804277
C55	C	-0.305945	-1.079946	-0.767575
C56	C	-0.308789	-1.076855	-0.694068
C57	C	-0.334439	-1.048885	-1.024126
C58	C	-0.331596	-1.051971	-1.097638
C59	C	-0.417662	-0.958210	-1.097523
C60	C	-0.420500	-0.955120	-1.024014
C61	C	-0.378891	-1.000460	-0.987320
N62	N	-0.344650	-1.037771	-0.879414
N63	N	-0.381801	-0.997300	-0.912184
C64	C	-0.370375	-1.009781	-0.212569
C65	C	-0.373206	-1.006639	-0.134334
H66	H	-0.768735	-1.079317	-0.333660
H67	H	-0.969795	-1.112256	-0.300884
C68	C	-0.880411	-0.948579	-0.464263
H69	H	-0.846116	-0.924188	-0.488601
H70	H	-0.908833	-0.915641	-0.437209
H71	H	-0.908741	-0.975615	-0.497257
C72	C	-0.263014	-1.126716	-0.653702
H73	H	-0.236125	-1.155993	-0.686152
H74	H	-0.292082	-1.155061	-0.627402
H75	H	-0.232582	-1.099850	-0.622656
C76	C	-0.765663	-0.909956	-0.502770
H77	H	-0.731363	-0.885571	-0.527108
H78	H	-0.794082	-0.877013	-0.475718
H79	H	-0.793996	-0.936990	-0.535763
H80	H	-0.855056	-1.073636	-0.339396
C81	C	-1.099364	-0.937496	-0.475470
H82	H	-1.065068	-0.913112	-0.499813
H83	H	-1.127783	-0.904552	-0.448419
H84	H	-1.127698	-0.964534	-0.508459
C85	C	-0.463434	-0.908345	-1.137885
H86	H	-0.490313	-0.879060	-1.105433
H87	H	-0.493863	-0.935203	-1.168933
H88	H	-0.434361	-0.879995	-1.164182
C89	C	-0.443764	-0.929837	-0.653472
H90	H	-0.468147	-0.903290	-0.685858
H91	H	-0.416928	-0.899073	-0.622412
H92	H	-0.476412	-0.954302	-0.627179
C93	C	-0.626647	-1.097478	-0.315442
H94	H	-0.660948	-1.121872	-0.291116
H95	H	-0.598312	-1.070453	-0.282449
H96	H	-0.598230	-1.130422	-0.342503
H97	H	-0.300634	-0.419348	-0.327386
H98	H	-0.269712	-0.616068	-0.293833
H99	H	-0.623572	-0.928117	-0.484552
C100	C	-0.443968	-0.760071	-0.482892
H101	H	-0.439687	-0.809107	-0.478233
H102	H	-0.431510	-0.750447	-0.529284
H103	H	-0.490926	-0.745630	-0.473925
C104	C	-0.282699	-1.105244	-1.138130
H105	H	-0.258331	-1.131810	-1.105749
H106	H	-0.250049	-1.080800	-1.164432
H107	H	-0.309560	-1.135999	-1.169182
H108	H	-0.957271	-0.955655	-0.457252
C109	C	-0.257047	-1.133214	-0.808062
H110	H	-0.232678	-1.159775	-0.775678
H111	H	-0.224398	-1.108769	-0.834365
H112	H	-0.283904	-1.163973	-0.839114
C113	C	-0.437786	-0.936327	-0.807832
H114	H	-0.429736	-0.945110	-0.856883
H115	H	-0.426190	-0.888954	-0.793394
H116	H	-0.485685	-0.944171	-0.798131
C117	C	-0.288668	-1.098753	-0.983771
H118	H	-0.261781	-1.128029	-1.016224
H119	H	-0.317737	-1.127101	-0.957474
H120	H	-0.258234	-1.071893	-0.952723
H121	H	-1.102437	-1.106850	-0.306358
H122	H	-0.456710	-0.915699	-0.994049
H123	H	-0.426119	-0.616208	-0.463543
H124	H	-0.457045	-0.419485	-0.497101
H125	H	-0.274832	-0.749428	-0.299387
H126	H	-0.295504	-0.286001	-0.321837
C127	C	-0.463827	-0.275642	-0.504478
H128	H	-0.455766	-0.226595	-0.495742
H129	H	-0.511710	-0.285297	-0.496528
H130	H	-0.452282	-0.290111	-0.551874
