data_functionalizedCrystal
_audit_creation_method	'MofGen! by Chris Wilmer'
_symmetry_space_group_name_H-M	'P1'
_symmetry_Int_Tables_number	1
_symmetry_cell_setting	triclinic
loop_
_symmetry_equiv_pos_as_xyz
  x,y,z
_cell_length_a	19.121102
_cell_length_b	11.169416
_cell_length_c	11.169409
_cell_angle_alpha	90.030816
_cell_angle_beta	87.536992
_cell_angle_gamma	92.435079
loop_
_atom_site_label
_atom_site_type_symbol
_atom_site_fract_x
_atom_site_fract_y
_atom_site_fract_z
Zn1	Zn	1.073843	0.556105	-0.756855
Zn2	Zn	1.573843	1.056105	-0.256855
Zn3	Zn	1.073777	0.756841	-0.556172
Zn4	Zn	1.573777	1.256841	-0.056172
Zn5	Zn	0.956382	0.547600	-0.547625
Zn6	Zn	1.456382	1.047600	-0.047625
Zn7	Zn	0.956388	0.748170	-0.748258
Zn8	Zn	1.456388	1.248170	-0.248258
O9	O	1.015097	0.652179	-0.652228
O10	O	1.515097	1.152179	-0.152228
O11	O	1.172120	0.589922	-0.737410
O12	O	1.672120	1.089922	-0.237410
O13	O	1.058174	0.729154	-0.387087
O14	O	1.558174	1.229154	0.112913
O15	O	0.971988	0.380781	-0.575401
O16	O	1.471988	0.880781	-0.075401
O17	O	1.172071	0.737401	-0.589969
O18	O	1.672071	1.237401	-0.089969
O19	O	1.058287	0.387029	-0.729121
O20	O	1.558287	0.887029	-0.229121
O21	O	0.971924	0.575426	-0.380807
O22	O	1.471924	1.075426	0.119193
O23	O	0.858097	0.567018	-0.567064
O24	O	1.358097	1.067018	-0.067064
O25	O	0.971998	0.722623	-0.917350
O26	O	1.471998	1.222623	-0.417350
O27	O	0.858101	0.714376	-0.714468
O28	O	1.358101	1.214376	-0.214468
O29	O	1.058293	0.581514	-0.923667
O30	O	1.558293	1.081514	-0.423667
O31	O	1.058180	0.923639	-0.581632
O32	O	1.558180	1.423639	-0.081632
O33	O	0.971934	0.917268	-0.722756
O34	O	1.471934	1.417268	-0.222756
C35	C	0.832614	0.638834	-0.638906
C36	C	1.332614	1.138834	-0.138906
C37	C	0.754547	0.633154	-0.633236
C38	C	1.254547	1.133154	-0.133236
C39	C	1.015069	0.964002	-0.652216
C40	C	1.515069	1.464002	-0.152216
C41	C	1.015122	1.097406	-0.652256
C42	C	1.515122	1.597406	-0.152256
C43	C	1.015154	0.652050	-0.965274
C44	C	1.515154	1.152050	-0.465274
C45	C	1.015178	0.651995	-1.098676
C46	C	1.515178	1.151995	-0.598676
C47	C	0.717892	0.707323	-0.707197
C48	C	1.217892	1.207323	-0.207197
C49	C	0.644540	0.701970	-0.701874
C50	C	1.144540	1.201970	-0.201874
C51	C	0.607844	0.622454	-0.622584
C52	C	1.107844	1.122454	-0.122584
C53	C	0.644505	0.548277	-0.548621
C54	C	1.144505	1.048277	-0.048621
C55	C	0.717856	0.553624	-0.553950
C56	C	1.217856	1.053624	-0.053950
C57	C	0.386371	0.602457	-0.602666
C58	C	0.886371	1.102457	-0.102666
C59	C	0.313015	0.597118	-0.597340
C60	C	0.813015	1.097118	-0.097340
C61	C	0.313055	0.750810	-0.750596
C62	C	0.813055	1.250810	-0.250596
C63	C	0.386407	0.756156	-0.755913
C64	C	0.886407	1.256156	-0.255913
C65	C	0.423061	0.681975	-0.681954
C66	C	0.923061	1.181975	-0.181954
C67	C	0.532867	0.616983	-0.617140
C68	C	1.032867	1.116983	-0.117140
C69	C	0.498038	0.687440	-0.687405
C70	C	0.998038	1.187440	-0.187405
C71	C	1.198293	0.665577	-0.665602
C72	C	1.698293	1.165577	-0.165602
C73	C	1.276360	0.671287	-0.671301
C74	C	1.776360	1.171287	-0.171301
C75	C	1.015144	0.339140	-0.652266
C76	C	1.515144	0.839140	-0.152266
C77	C	1.015164	0.205742	-0.652283
C78	C	1.515164	0.705742	-0.152283
C79	C	1.015082	0.652224	-0.340402
C80	C	1.515082	1.152224	0.159598
C81	C	1.015194	0.651951	-0.207010
C82	C	1.515194	1.151951	0.292990
H83	H	0.747764	0.772078	-0.771759
H84	H	1.247764	1.272078	-0.271759
Cl85	Cl	0.432533	0.856127	-0.855593
Cl86	Cl	0.932533	1.356127	-0.355593
H87	H	0.747700	0.493222	-0.493729
H88	H	1.247700	0.993222	0.006271
Cl89	Cl	0.486729	0.517022	-0.517464
Cl90	Cl	0.986729	1.017022	-0.017464
Cl91	Cl	0.266972	0.844062	-0.843566
Cl92	Cl	0.766972	1.344062	-0.343566
Cl93	Cl	0.266884	0.497156	-0.497645
Cl94	Cl	0.766884	0.997156	0.002355
H95	H	0.614698	0.762367	-0.762100
H96	H	1.114698	1.262367	-0.262100
Cl97	Cl	0.432441	0.509197	-0.509691
Cl98	Cl	0.932441	1.009197	-0.009691
Cl99	Cl	0.598373	0.448305	-0.448949
Cl100	Cl	1.098373	0.948305	0.051051
H101	H	0.527918	0.752177	-0.751968
H102	H	1.027918	1.252177	-0.251968
