data_functionalizedCrystal
_audit_creation_method	'MofGen! by Chris Wilmer'
_symmetry_space_group_name_H-M	'P1'
_symmetry_Int_Tables_number	1
_symmetry_cell_setting	triclinic
loop_
_symmetry_equiv_pos_as_xyz
  x,y,z
_cell_length_a	27.732048
_cell_length_b	16.176319
_cell_length_c	17.699083
_cell_angle_alpha	89.998504
_cell_angle_beta	82.962835
_cell_angle_gamma	89.998122
loop_
_atom_site_label
_atom_site_type_symbol
_atom_site_fract_x
_atom_site_fract_y
_atom_site_fract_z
O1	O	0.641253	-0.068642	0.090053
O2	O	1.141253	0.431358	0.590053
O3	O	0.500509	-0.068667	0.103746
O4	O	1.000509	0.431333	0.603746
O5	O	0.574858	-0.068646	-0.013325
O6	O	1.074858	0.431354	0.486675
O7	O	0.566905	-0.068662	0.207124
O8	O	1.066905	0.431338	0.707124
O9	O	0.574846	0.068847	-0.013318
O10	O	1.074846	0.568847	0.486682
O11	O	0.500498	0.068826	0.103752
O12	O	1.000498	0.568826	0.603752
O13	O	0.641242	0.068851	0.090059
O14	O	1.141242	0.568851	0.590059
Cu15	Cu	0.570869	0.081393	0.096906
Cu16	Cu	1.070869	0.581393	0.596906
Cu17	Cu	0.570882	-0.081209	0.096899
Cu18	Cu	1.070882	0.418791	0.596899
O19	O	0.566894	0.068831	0.207130
O20	O	1.066894	0.568831	0.707130
C21	C	0.482496	0.000076	0.103462
C22	C	0.982496	0.500076	0.603462
C23	C	0.428838	0.000067	0.102596
C24	C	0.928838	0.500067	0.602596
N25	N	0.570863	0.195758	0.096911
N26	N	1.070863	0.695758	0.596911
C27	C	0.574567	0.000100	-0.041516
C28	C	1.074567	0.500100	0.458484
C29	C	0.573712	0.000100	-0.125527
C30	C	1.073712	0.500100	0.374473
C31	C	0.090252	0.000098	0.166329
C32	C	0.590252	0.500098	0.666329
C33	C	-0.111419	0.000106	0.163117
C34	C	0.388581	0.500106	0.663117
O35	O	-0.142466	0.000137	0.221396
O36	O	0.357534	0.500137	0.721396
N37	N	-0.130793	0.000109	0.093699
N38	N	0.369207	0.500109	0.593699
C39	C	-0.099745	0.000116	0.025079
C40	C	0.400255	0.500116	0.525079
O41	O	-0.120851	0.000128	-0.034039
O42	O	0.379149	0.500128	0.465961
C43	C	0.101925	0.000115	0.028291
C44	C	0.601925	0.500115	0.528291
C45	C	0.121296	0.000103	0.097714
C46	C	0.621296	0.500103	0.597714
C47	C	0.109623	0.000087	0.235746
C48	C	0.609623	0.500087	0.735746
C49	C	0.160037	0.000081	0.236548
C50	C	0.660037	0.500081	0.736548
C51	C	0.191081	0.000085	0.167933
C52	C	0.691081	0.500085	0.667933
C53	C	0.171710	0.000096	0.098516
C54	C	0.671710	0.500096	0.598516
C55	C	0.132972	0.000128	-0.040329
C56	C	0.632972	0.500128	0.459671
C57	C	0.183392	0.000129	-0.039519
C58	C	0.683392	0.500129	0.460481
C59	C	0.202763	0.000117	0.029903
C60	C	0.702763	0.500117	0.529903
C61	C	0.253169	0.000095	0.030703
C62	C	0.753169	0.500095	0.530703
N63	N	0.272543	0.000091	0.100121
N64	N	0.772543	0.500091	0.600121
C65	C	0.241499	0.000086	0.168736
C66	C	0.741499	0.500086	0.668736
C67	C	-0.205625	0.000116	0.023397
C68	C	0.294375	0.500116	0.523397
C69	C	-0.256042	0.000115	0.022594
C70	C	0.243958	0.500115	0.522594
C71	C	-0.267713	0.000106	0.160633
C72	C	0.232287	0.500106	0.660633
C73	C	-0.217295	0.000101	0.161435
C74	C	0.282705	0.500101	0.661435
C75	C	-0.186252	0.000112	0.092815
C76	C	0.313748	0.500112	0.592815
C77	C	0.347374	0.000072	0.170415
C78	C	0.847374	0.500072	0.670415
C79	C	0.397794	0.000062	0.171211
C80	C	0.897794	0.500062	0.671211
C81	C	0.409460	0.000076	0.033173
C82	C	0.909460	0.500076	0.533173
C83	C	0.359045	0.000081	0.032376
C84	C	0.859045	0.500081	0.532376
C85	C	0.328002	0.000082	0.101004
C86	C	0.828002	0.500082	0.601004
O87	O	0.284244	0.000072	-0.027545
O88	O	0.784244	0.500072	0.472455
O89	O	0.262614	0.000093	0.227845
O90	O	0.762614	0.500093	0.727845
C91	C	0.039837	0.000105	0.165526
C92	C	0.539837	0.500105	0.665526
C93	C	0.020466	0.000116	0.096109
C94	C	0.520466	0.500116	0.596109
C95	C	0.051510	0.000120	0.027494
C96	C	0.551510	0.500120	0.527494
C97	C	-0.029951	0.000115	0.095306
C98	C	0.470049	0.500115	0.595306
C99	C	-0.060995	0.000110	0.163921
C100	C	0.439005	0.500110	0.663921
C101	C	-0.041622	0.000106	0.233339
C102	C	0.458378	0.500106	0.733339
C103	C	0.008793	0.000100	0.234141
C104	C	0.508793	0.500100	0.734141
C105	C	0.032137	0.000124	-0.041924
C106	C	0.532137	0.500124	0.458076
C107	C	-0.018279	0.000129	-0.042720
C108	C	0.481721	0.500129	0.457280
C109	C	-0.049323	0.000125	0.025895
C110	C	0.450677	0.500125	0.525895
C111	C	0.659256	0.000106	0.090343
C112	C	1.159256	0.500106	0.590343
C113	C	0.712914	0.000110	0.091209
C114	C	1.212914	0.500110	0.591209
N115	N	0.570892	-0.195574	0.096888
N116	N	1.070892	0.304426	0.596888
C117	C	0.603818	0.761150	0.045067
C118	C	1.103818	1.261150	0.545067
C119	C	0.603815	0.674603	0.045073
C120	C	1.103815	1.174603	0.545073
C121	C	0.570885	0.631334	0.096895
C122	C	1.070885	1.131334	0.596895
C123	C	0.537958	0.674616	0.148721
C124	C	1.037958	1.174616	0.648721
C125	C	0.537963	0.761161	0.148719
C126	C	1.037963	1.261161	0.648719
C127	C	0.537938	0.325588	0.148732
C128	C	1.037938	0.825588	0.648732
C129	C	0.537935	0.239036	0.148729
C130	C	1.037935	0.739036	0.648729
C131	C	0.603791	0.239029	0.045086
C132	C	1.103791	0.739029	0.545086
C133	C	0.603796	0.325575	0.045083
C134	C	1.103796	0.825575	0.545083
C135	C	0.570871	0.368849	0.096912
C136	C	1.070871	0.868849	0.596912
C137	C	0.570874	0.462693	0.096906
C138	C	1.070874	0.962693	0.596906
C139	C	0.570879	0.537491	0.096898
C140	C	1.070879	1.037491	0.596898
C141	C	0.617353	0.000109	-0.174532
C142	C	1.117353	0.500109	0.325468
C143	C	0.616547	0.000102	-0.253469
C144	C	1.116547	0.500102	0.246531
C145	C	0.572099	0.000091	-0.283398
C146	C	1.072099	0.500091	0.216602
C147	C	0.528455	0.000080	-0.234386
C148	C	1.028455	0.500080	0.265614
C149	C	0.529262	0.000081	-0.155451
C150	C	1.029262	0.500081	0.344549
C151	C	0.525201	0.000073	-0.552720
C152	C	1.025201	0.500073	-0.052720
C153	C	0.524398	0.000074	-0.631661
C154	C	1.024398	0.500074	-0.131661
C155	C	0.612486	0.000093	-0.650738
C156	C	1.112486	0.500093	-0.150738
C157	C	0.613293	0.000095	-0.571803
C158	C	1.113293	0.500095	-0.071803
C159	C	0.569649	0.000079	-0.522798
C160	C	1.069649	0.500079	-0.022798
C161	C	0.570524	0.000085	-0.437206
C162	C	1.070524	0.500085	0.062794
C163	C	0.571224	0.000091	-0.368987
C164	C	1.071224	0.500091	0.131013
C165	C	0.567184	0.000082	0.235321
C166	C	1.067184	0.500082	0.735321
C167	C	0.568039	0.000077	0.319332
C168	C	1.068039	0.500077	0.819332
H169	H	0.322104	0.000076	0.226298
H170	H	0.822104	0.500076	0.726298
H171	H	0.649487	0.000107	-0.547440
H172	H	1.149487	0.500107	-0.047440
H173	H	0.630609	0.360802	0.002882
H174	H	1.130609	0.860802	0.502882
N175	N	0.659559	0.000100	-0.703600
N176	N	1.159559	0.500100	-0.203600
H177	H	0.678961	-0.050862	-0.694031
H178	H	1.178961	0.449138	-0.194031
H179	H	0.678910	0.051109	-0.694012
H180	H	1.178910	0.551109	-0.194012
H181	H	0.434745	0.000076	-0.022692
H182	H	0.934745	0.500076	0.477308
H183	H	-0.271809	0.000111	-0.033937
H184	H	0.228191	0.500111	0.466063
H185	H	0.630626	0.639368	0.002877
H186	H	1.130626	1.139368	0.502877
H187	H	0.653548	0.000123	-0.150171
H188	H	1.153548	0.500123	0.349829
H189	H	0.630602	0.203785	0.002886
H190	H	1.130602	0.703785	0.502886
H191	H	0.493725	0.000074	-0.115550
H192	H	0.993725	0.500074	0.384450
H193	H	0.511152	0.796396	0.190917
H194	H	1.011152	1.296396	0.690917
N195	N	-0.172145	0.000132	-0.050619
N196	N	0.327855	0.500132	0.449381
H197	H	-0.192074	0.000133	-0.094711
H198	H	0.307926	0.500133	0.405289
H199	H	-0.150970	-0.050837	-0.053301
H200	H	0.349030	0.449163	0.446699
N201	N	0.639339	0.807816	-0.010823
N202	N	1.139339	1.307816	0.489177
H203	H	0.620914	0.843728	-0.044141
H204	H	1.120914	1.343728	0.455859
H205	H	0.660189	0.767212	-0.043595
H206	H	1.160189	1.267212	0.456405
H207	H	0.208666	0.000139	-0.095399
H208	H	0.708666	0.500139	0.404601
H209	H	0.024559	0.000091	0.290672
H210	H	0.524559	0.500091	0.790672
N211	N	-0.075112	0.000134	0.307345
N212	N	0.424888	0.500134	0.807345
H213	H	-0.055194	0.000138	0.351450
H214	H	0.444806	0.500138	0.851450
H215	H	-0.096293	-0.050826	0.310030
H216	H	0.403707	0.449174	0.810030
H217	H	0.511147	0.639381	0.190920
H218	H	1.011147	1.139381	0.690920
N219	N	0.663617	0.000116	-0.306326
N220	N	1.163617	0.500116	0.193674
H221	H	0.691896	0.000131	-0.275388
H222	H	1.191896	0.500131	0.224612
H223	H	0.665192	0.051087	-0.339492
H224	H	1.165192	0.551087	0.160508
H225	H	0.117210	0.000138	-0.096860
H226	H	0.617210	0.500138	0.403140
H227	H	0.511118	0.203808	0.190932
H228	H	1.011118	0.703808	0.690932
N229	N	0.502417	0.372256	0.204613
N230	N	1.002417	0.872256	0.704613
H231	H	0.481552	0.331710	0.237434
H232	H	0.981552	0.831710	0.737434
H233	H	0.481090	0.408161	0.175851
H234	H	0.981090	0.908161	0.675851
H235	H	0.488201	0.000067	-0.656025
H236	H	0.988201	0.500067	-0.156025
N237	N	0.478130	0.000059	-0.499871
N238	N	0.978130	0.500059	0.000129
H239	H	0.449852	0.000056	-0.530811
H240	H	0.949852	0.500056	-0.030811
H241	H	0.476541	0.051029	-0.466705
H242	H	0.976541	0.551029	0.033295
N243	N	0.480513	0.000068	-0.266657
N244	N	0.980513	0.500068	0.233343
H245	H	0.478218	-0.050900	-0.298983
H246	H	0.978218	0.449100	0.201017
H247	H	0.478238	0.051072	-0.298943
H248	H	0.978238	0.551072	0.201057
N249	N	0.418681	0.000044	0.246095
N250	N	0.918681	0.500044	0.746095
H251	H	0.407355	0.051011	0.276132
H252	H	0.907355	0.551011	0.776132
H253	H	0.455328	0.000007	0.236138
H254	H	0.955328	0.500007	0.736138
N255	N	0.180926	0.000064	0.311425
N256	N	0.680926	0.500064	0.811425
H257	H	0.153604	0.000061	0.354764
H258	H	0.653604	0.500061	0.854764
H259	H	0.201590	0.051032	0.314775
H260	H	0.701590	0.551032	0.814775
H261	H	0.084351	0.000086	0.291623
H262	H	0.584351	0.500086	0.791623
H263	H	-0.201528	0.000096	0.217965
H264	H	0.298472	0.500096	0.717965
H265	H	-0.292998	0.000102	0.216502
H266	H	0.207002	0.500102	0.716502
H267	H	0.343273	0.000079	-0.024153
H268	H	0.843273	0.500079	0.475847
H269	H	-0.034045	0.000132	-0.099257
H270	H	0.465955	0.500132	0.400743
H271	H	0.057408	0.000130	-0.097800
H272	H	0.557408	0.500130	0.402200
