data_functionalizedCrystal
_audit_creation_method	'MofGen! by Chris Wilmer'
_symmetry_space_group_name_H-M	'P1'
_symmetry_Int_Tables_number	1
_symmetry_cell_setting	triclinic
loop_
_symmetry_equiv_pos_as_xyz
  x,y,z
_cell_length_a	25.639233
_cell_length_b	13.897449
_cell_length_c	13.897448
_cell_angle_alpha	90.018972
_cell_angle_beta	90.015038
_cell_angle_gamma	90.012243
loop_
_atom_site_label
_atom_site_type_symbol
_atom_site_fract_x
_atom_site_fract_y
_atom_site_fract_z
Zn1	Zn	-0.295617	-1.474622	0.384099
Zn2	Zn	-0.208187	-1.474540	0.545377
Zn3	Zn	-0.208197	-1.313335	0.384101
Zn4	Zn	-0.295592	-1.313293	0.545358
O5	O	-0.251898	-1.393947	0.464734
O6	O	-0.284026	-1.609592	0.405501
O7	O	-0.135023	-1.453139	0.523993
O8	O	-0.219807	-1.334782	0.249120
O9	O	-0.219792	-1.609532	0.523991
O10	O	-0.284035	-1.453279	0.249118
O11	O	-0.135030	-1.334702	0.405504
O12	O	-0.219783	-1.178348	0.405485
O13	O	-0.368761	-1.334710	0.523957
O14	O	-0.283993	-1.178317	0.523959
O15	O	-0.368779	-1.453238	0.405482
O16	O	-0.219768	-1.453098	0.680356
O17	O	-0.283984	-1.334630	0.680342
C18	C	-0.251886	-1.143333	0.464721
C19	C	-0.251894	-1.036119	0.464739
C20	C	-0.251883	-1.393877	0.715348
C21	C	-0.251894	-1.393935	0.822562
C22	C	-0.388271	-1.393978	0.464717
C23	C	-0.446386	-1.393992	0.464710
C24	C	-0.806764	-1.455787	0.402836
C25	C	-0.861368	-1.455799	0.402810
O26	O	-0.889618	-1.508262	0.350316
N27	N	-0.888668	-1.394098	0.464484
C28	C	-0.861361	-1.332374	0.526182
O29	O	-0.889596	-1.279892	0.578637
C30	C	-0.806758	-1.332358	0.526203
C31	C	-0.779461	-1.394070	0.464531
C32	C	-0.779467	-1.517494	0.341169
C33	C	-0.724866	-1.517483	0.341197
C34	C	-0.697563	-1.455765	0.402893
C35	C	-0.724860	-1.394059	0.464560
C36	C	-0.779451	-1.270629	0.587895
C37	C	-0.724844	-1.270618	0.587910
C38	C	-0.697547	-1.332330	0.526239
C39	C	-0.642956	-1.332331	0.526283
N40	N	-0.615656	-1.394032	0.464609
C41	C	-0.642959	-1.455749	0.402914
C42	C	-0.976032	-1.332411	0.526131
C43	C	-1.030634	-1.332431	0.526116
C44	C	-1.030638	-1.455856	0.402742
C45	C	-0.976034	-1.455839	0.402763
C46	C	-0.948732	-1.394112	0.464457
C47	C	-0.528294	-1.455722	0.402978
C48	C	-0.473689	-1.455709	0.403015
C49	C	-0.473690	-1.332281	0.526384
C50	C	-0.528291	-1.332298	0.526352
C51	C	-0.555592	-1.394022	0.464641
O52	O	-0.614672	-1.279892	0.578747
O53	O	-0.614718	-1.508213	0.350458
C54	C	-0.116056	-1.393972	0.464681
C55	C	-0.057942	-1.394145	0.464417
C56	C	-0.251911	-1.645540	0.464748
C57	C	-0.251916	-1.752754	0.464753
C58	C	-0.251907	-0.839824	0.464742
C59	C	-0.251898	-0.949056	0.464737
C60	C	-0.251925	-1.394044	0.213141
C61	C	-0.251936	-1.394085	0.105927
C62	C	-0.251927	-1.394036	1.018857
C63	C	-0.251910	-1.393977	0.909625
H64	H	-0.451466	-1.505966	0.352794
C65	C	-0.809494	-1.585394	0.273300
C66	C	-0.801978	-1.695040	0.281193
C67	C	-0.832000	-1.762952	0.213324
C68	C	-0.869538	-1.721216	0.137562
C69	C	-0.877055	-1.611564	0.129666
C70	C	-0.847033	-1.543652	0.197535
H71	H	-0.774190	-1.725941	0.337279
H72	H	-0.826436	-1.844124	0.219170
H73	H	-0.891762	-1.771488	0.087322
H74	H	-0.904844	-1.580664	0.073580
H75	H	-0.852598	-1.462480	0.191689
C76	C	-1.060659	-1.264554	0.593960
C77	C	-1.098192	-1.188846	0.552141
C78	C	-1.128216	-1.120962	0.619982
C79	C	-1.120707	-1.128786	0.729641
C80	C	-1.083172	-1.204497	0.771466
C81	C	-1.053148	-1.272381	0.703625
H82	H	-1.103753	-1.183052	0.470960
H83	H	-1.156002	-1.064916	0.589020
H84	H	-1.142932	-1.078534	0.779861
H85	H	-1.077612	-1.210292	0.852647
H86	H	-1.025362	-1.328428	0.734587
C87	C	-0.946003	-1.264515	0.594012
C88	C	-0.953514	-1.154866	0.586138
C89	C	-0.923489	-1.086970	0.654017
C90	C	-0.885952	-1.128723	0.729770
C91	C	-0.878439	-1.238377	0.737648
C92	C	-0.908464	-1.306274	0.669769
H93	H	-0.981302	-1.123953	0.530058
H94	H	-0.929051	-1.005796	0.648185
H95	H	-0.863726	-1.078462	0.780019
H96	H	-0.850651	-1.269290	0.793728
H97	H	-0.902902	-1.387448	0.675601
C98	C	-1.060678	-1.523742	0.334869
C99	C	-1.120740	-1.523746	0.334846
C100	C	-1.150781	-1.591628	0.266978
C101	C	-1.120762	-1.659506	0.199133
C102	C	-1.060697	-1.659504	0.199153
C103	C	-1.030655	-1.591622	0.267021
H104	H	-1.142965	-1.473496	0.385071
H105	H	-1.195246	-1.591629	0.266963
H106	H	-1.143001	-1.709756	0.148893
H107	H	-1.038472	-1.709754	0.148928
H108	H	-0.986191	-1.591621	0.267036
C109	C	-0.694811	-1.202721	0.655780
C110	C	-0.702313	-1.093070	0.647898
C111	C	-0.672280	-1.025178	0.715769
C112	C	-0.634744	-1.066936	0.791520
C113	C	-0.627240	-1.176592	0.799405
C114	C	-0.657273	-1.244485	0.731535
H115	H	-0.730101	-1.062153	0.591819
H116	H	-0.677835	-0.944002	0.709931
H117	H	-0.612511	-1.016677	0.841762
H118	H	-0.599452	-1.207509	0.855484
H119	H	-0.651718	-1.325660	0.737372
H120	H	-0.550517	-1.282056	0.576578
H121	H	-0.451450	-1.282036	0.576618
H122	H	-0.550516	-1.505981	0.352724
H123	H	-0.801667	-1.220376	0.638114
H124	H	-0.953812	-1.506089	0.352543
C125	C	-0.694846	-1.585360	0.273346
C126	C	-0.702365	-1.577519	0.163690
C127	C	-0.672349	-1.645397	0.095831
C128	C	-0.634815	-1.721115	0.137627
C129	C	-0.627294	-1.728959	0.247289
C130	C	-0.657310	-1.661081	0.315148
H131	H	-0.730151	-1.521465	0.132745
H132	H	-0.677917	-1.639590	0.014652
H133	H	-0.612596	-1.771363	0.087393
H134	H	-0.599508	-1.785013	0.278234
H135	H	-0.651742	-1.666888	0.396327
