data_functionalizedCrystal
_audit_creation_method	'MofGen! by Chris Wilmer'
_symmetry_space_group_name_H-M	'P1'
_symmetry_Int_Tables_number	1
_symmetry_cell_setting	triclinic
loop_
_symmetry_equiv_pos_as_xyz
  x,y,z
_cell_length_a	19.288859
_cell_length_b	15.995350
_cell_length_c	15.072220
_cell_angle_alpha	89.994173
_cell_angle_beta	89.994231
_cell_angle_gamma	83.313050
loop_
_atom_site_label
_atom_site_type_symbol
_atom_site_fract_x
_atom_site_fract_y
_atom_site_fract_z
O1	O	0.921622	0.104430	-0.073796
O2	O	1.421622	0.604430	0.426204
O3	O	0.719397	0.118525	-0.073793
O4	O	1.219397	0.618525	0.426207
O5	O	0.826038	-0.010431	-0.073794
O6	O	1.326038	0.489569	0.426206
O7	O	0.814982	0.233386	-0.073795
O8	O	1.314982	0.733386	0.426205
O9	O	0.826028	-0.010443	0.073772
O10	O	1.326028	0.489557	0.573772
O11	O	0.719388	0.118513	0.073772
O12	O	1.219388	0.618513	0.573772
O13	O	0.921613	0.104418	0.073769
O14	O	1.421613	0.604418	0.573769
Zn15	Zn	0.820499	0.111464	0.097200
Zn16	Zn	1.320499	0.611464	0.597200
Zn17	Zn	0.820511	0.111479	-0.097223
Zn18	Zn	1.320511	0.611479	0.402777
O19	O	0.814973	0.233374	0.073770
O20	O	1.314973	0.733374	0.573770
C21	C	0.693515	0.118067	-0.000010
C22	C	1.193515	0.618067	0.499990
C23	C	0.616408	0.116708	-0.000009
C24	C	1.116408	0.616708	0.499991
C25	C	0.825576	-0.041630	-0.000013
C26	C	1.325576	0.458370	0.499987
C27	C	0.824206	-0.134575	-0.000018
C28	C	1.324206	0.365425	0.499982
C29	C	0.052540	0.183181	-0.000011
C30	C	0.552540	0.683181	0.499989
C31	C	0.124989	0.184465	-0.000016
C32	C	0.624989	0.684465	0.499984
C33	C	0.169500	0.108799	-0.000014
C34	C	0.669500	0.608799	0.499986
C35	C	0.141555	0.031843	-0.000030
C36	C	0.641555	0.531843	0.499970
C37	C	0.069106	0.030561	-0.000034
C38	C	0.569106	0.530561	0.499966
C39	C	0.290620	0.052364	0.051689
C40	C	0.790620	0.552364	0.551689
C41	C	0.363067	0.053649	0.051698
C42	C	0.863067	0.553649	0.551698
C43	C	0.392956	0.112750	-0.000005
C44	C	0.892956	0.612750	0.499995
C45	C	0.350387	0.170580	-0.051706
C46	C	0.850387	0.670580	0.448294
C47	C	0.277938	0.169298	-0.051710
C48	C	0.777938	0.669298	0.448290
C49	C	0.248059	0.110181	-0.000010
C50	C	0.748059	0.610181	0.499990
C51	C	0.499451	0.191093	0.000000
C52	C	0.999451	0.691093	0.500000
C53	C	0.571902	0.192374	-0.000010
C54	C	1.071902	0.692374	0.499990
C55	C	0.588467	0.039751	-0.000015
C56	C	1.088467	0.539751	0.499985
C57	C	0.516016	0.038472	-0.000014
C58	C	1.016016	0.538472	0.499986
C59	C	0.471513	0.114146	-0.000002
C60	C	0.971513	0.614146	0.499998
C61	C	0.819285	-0.472304	-0.000015
C62	C	1.319285	0.027696	0.499985
C63	C	0.743337	-0.424582	-0.000345
C64	C	1.243337	0.075418	0.499655
C65	C	0.744708	-0.327897	-0.000012
C66	C	1.244708	0.172103	0.499988
C67	C	0.821726	-0.304753	-0.000017
C68	C	1.321726	0.195247	0.499983
C69	C	0.859180	-0.345979	0.084248
C70	C	1.359180	0.154021	0.584248
C71	C	0.857272	-0.442608	0.084319
C72	C	1.357272	0.057392	0.584319
C73	C	0.858852	-0.442958	-0.083490
C74	C	1.358852	0.057042	0.416510
C75	C	0.858834	-0.346013	-0.084604
C76	C	1.358834	0.153987	0.415396
C77	C	0.823109	-0.210061	-0.000015
C78	C	1.323109	0.289939	0.499985
C79	C	0.817903	-0.566997	-0.000011
C80	C	1.317903	-0.066997	0.499989
C81	C	0.947495	0.104876	-0.000015
C82	C	1.447495	0.604876	0.499985
C83	C	1.024602	0.106235	-0.000022
C84	C	1.524602	0.606235	0.499978
C85	C	0.815434	0.264573	-0.000013
C86	C	1.315434	0.764573	0.499987
C87	C	0.816805	0.357518	-0.000014
C88	C	1.316805	0.857518	0.499986
N89	N	0.820496	0.111452	0.229889
N90	N	1.320496	0.611452	0.729889
N91	N	0.820520	0.111484	-0.229912
N92	N	1.320520	0.611484	0.270088
C93	C	0.820504	0.111463	0.410886
C94	C	1.320504	0.611463	0.910886
C95	C	0.877578	0.042485	0.448527
C96	C	1.377578	0.542485	0.948527
C97	C	0.877785	0.042667	0.551353
C98	C	1.377785	0.542667	1.051353
C99	C	0.820512	0.111473	0.589090
C100	C	1.320512	0.611473	1.089090
C101	C	0.836041	0.198886	0.551744
C102	C	1.336041	0.698886	1.051744
C103	C	0.836446	0.198476	0.448886
C104	C	1.336446	0.698476	0.948886
C105	C	0.747729	0.093817	0.448806
C106	C	1.247729	0.593817	0.948806
C107	C	0.748222	0.091835	0.551671
C108	C	1.248222	0.591835	1.051671
C109	C	0.820515	0.111484	0.689804
C110	C	1.320515	0.611484	1.189804
C111	C	0.820502	0.111458	0.310173
C112	C	1.320502	0.611458	0.810173
H113	H	0.016308	0.244800	-0.000006
H114	H	0.516308	0.744800	0.499994
H115	H	0.463214	0.252711	0.000008
H116	H	0.963214	0.752711	0.500008
F117	F	0.732800	0.007793	0.583593
F118	F	1.232800	0.507793	1.083593
H119	H	0.703782	0.138819	0.577356
H120	H	1.203782	0.638819	1.077356
H121	H	0.868583	-0.022309	0.576604
H122	H	1.368583	0.477691	1.076604
F123	F	0.821561	-0.466402	0.166652
F124	F	1.321561	0.033598	0.666652
F125	F	0.258822	-0.010577	0.106680
F126	F	0.758822	0.489423	0.606680
H127	H	0.834025	-0.463399	-0.147358
H128	H	1.334025	0.036601	0.352642
H129	H	0.931284	0.053596	0.422661
H130	H	1.431284	0.553596	0.922661
H131	H	0.705260	0.144119	0.424463
H132	H	1.205260	0.644119	0.924463
H133	H	0.397721	0.006564	0.093801
H134	H	0.897721	0.506564	0.593801
F135	F	0.930151	-0.485038	0.089321
F136	F	1.430151	0.014962	0.589321
H137	H	0.147740	0.247125	0.000002
H138	H	0.647740	0.747125	0.500002
F139	F	0.705954	-0.291330	0.079075
F140	F	1.205954	0.208670	0.579075
F141	F	0.865749	-0.042733	0.416213
F142	F	1.365749	0.457267	0.916213
F143	F	0.728128	0.012273	0.414916
F144	F	1.228128	0.512273	0.914916
H145	H	0.833158	-0.317504	0.146958
H146	H	1.333158	0.182496	0.646958
H147	H	0.046361	-0.032099	-0.000043
H148	H	0.546361	0.467901	0.499957
F149	F	0.823316	-0.309867	-0.166095
F150	F	1.323316	0.190133	0.333905
H151	H	0.374720	0.218708	-0.093805
H152	H	0.874720	0.718708	0.406195
H153	H	0.243282	0.216384	-0.093808
H154	H	0.743282	0.716384	0.406192
H155	H	0.594646	0.255035	-0.000008
H156	H	1.094646	0.755035	0.499992
H157	H	0.914847	-0.474932	-0.084060
H158	H	1.414847	0.025068	0.415940
H159	H	0.795565	0.251457	0.576187
H160	H	1.295565	0.751457	1.076187
F161	F	0.933138	-0.327799	0.088343
F162	F	1.433138	0.172201	0.588343
F163	F	0.904608	0.219700	0.585404
F164	F	1.404608	0.719700	1.085404
F165	F	0.932245	-0.326208	-0.091264
F166	F	1.432245	0.173792	0.408736
F167	F	0.948382	0.057422	0.583511
F168	F	1.448382	0.557422	1.083511
F169	F	0.905805	0.218790	0.417516
F170	F	1.405805	0.718790	0.917516
H171	H	0.624706	-0.021858	-0.000020
H172	H	1.124706	0.478142	0.499980
F173	F	0.486283	-0.043425	-0.000028
F174	F	0.986283	0.456575	0.499972
F175	F	0.784562	0.268016	0.416337
F176	F	1.284562	0.768016	0.916337
H177	H	0.177800	-0.029764	-0.000030
H178	H	0.677800	0.470236	0.499970
H179	H	0.715266	-0.299358	-0.060416
H180	H	1.215266	0.200642	0.439584
H181	H	0.712986	-0.442993	-0.060772
H182	H	1.212986	0.057007	0.439228
H183	H	0.713113	-0.444066	0.059747
H184	H	1.213113	0.055934	0.559747
