data_functionalizedCrystal
_audit_creation_method	'MofGen! by Chris Wilmer'
_symmetry_space_group_name_H-M	'P1'
_symmetry_Int_Tables_number	1
_symmetry_cell_setting	triclinic
loop_
_symmetry_equiv_pos_as_xyz
  x,y,z
_cell_length_a	19.288864
_cell_length_b	14.853559
_cell_length_c	18.366186
_cell_angle_alpha	89.995958
_cell_angle_beta	89.977106
_cell_angle_gamma	83.383851
loop_
_atom_site_label
_atom_site_type_symbol
_atom_site_fract_x
_atom_site_fract_y
_atom_site_fract_z
O1	O	0.921730	0.112465	-0.060780
O2	O	0.719520	0.127636	-0.060730
O3	O	0.826029	-0.011211	-0.060755
O4	O	0.815220	0.251311	-0.060754
O5	O	0.826011	-0.011217	0.060344
O6	O	0.719502	0.127629	0.060370
O7	O	0.921712	0.112458	0.060320
Zn8	Zn	0.820604	0.120042	0.079572
Zn9	Zn	0.820628	0.120051	-0.079982
O10	O	0.815202	0.251305	0.060345
C11	C	0.693633	0.127144	-0.000173
C12	C	0.616524	0.125679	-0.000154
C13	C	0.572101	0.207148	-0.000165
C14	C	0.499649	0.205771	-0.000174
C15	C	0.471624	0.122921	-0.000185
C16	C	0.516057	0.041441	-0.000170
C17	C	0.588507	0.042820	-0.000155
C18	C	0.363150	0.057794	-0.042636
C19	C	0.290701	0.056418	-0.042656
C20	C	0.248164	0.118664	-0.000229
C21	C	0.278084	0.182301	0.042208
C22	C	0.350534	0.183680	0.042224
C23	C	0.393065	0.121416	-0.000201
C24	C	0.125180	0.198646	-0.000248
C25	C	0.052727	0.197266	-0.000252
C26	C	0.069137	0.032934	-0.000255
C27	C	0.141588	0.034316	-0.000244
C28	C	0.169605	0.117175	-0.000244
C29	C	0.825531	-0.044800	-0.000207
C30	C	0.824067	-0.144876	-0.000210
C31	C	0.817864	-0.568012	-0.066220
C32	C	0.817844	-0.568014	0.065807
C33	C	0.819226	-0.473989	0.065807
C34	C	0.819926	-0.426970	-0.000207
C35	C	0.819244	-0.473977	-0.066222
C36	C	0.819901	-0.426973	0.131821
C37	C	0.821282	-0.332942	0.131824
C38	C	0.821987	-0.285923	0.065808
C39	C	0.821306	-0.332936	-0.000209
C40	C	0.822005	-0.285918	-0.066223
C41	C	0.821329	-0.332930	-0.132242
C42	C	0.819949	-0.426958	-0.132237
C43	C	0.823367	-0.191894	0.065804
C44	C	0.823385	-0.191883	-0.066225
C45	C	0.947599	0.112949	-0.000238
C46	C	1.024707	0.114415	-0.000262
C47	C	0.815700	0.284894	-0.000205
C48	C	0.817164	0.384970	-0.000206
N49	N	0.820593	0.120036	0.188463
N50	N	0.820644	0.120051	-0.188873
C51	C	0.867770	0.058585	0.226552
C52	C	0.867775	0.058581	0.302780
C53	C	0.820608	0.120043	0.340916
C54	C	0.773421	0.181499	0.302818
C55	C	0.773414	0.181495	0.226591
C56	C	0.811585	0.202187	0.461678
C57	C	0.811598	0.202192	0.537903
C58	C	0.820628	0.120055	0.576023
C59	C	0.829660	0.037909	0.537909
C60	C	0.829652	0.037905	0.461683
C61	C	0.820611	0.120054	0.423570
C62	C	0.867813	0.058594	0.696767
C63	C	0.867813	0.058589	0.772996
C64	C	0.773462	0.181515	0.773033
C65	C	0.773459	0.181512	0.696805
C66	C	0.820638	0.120053	0.658677
H67	H	0.594907	0.274618	-0.000167
Br68	Br	0.709432	0.264917	0.645107
H69	H	0.266346	0.004605	-0.077214
H70	H	0.735056	0.231556	0.804082
Br71	Br	0.031111	-0.079508	-0.000259
Br72	Br	0.201881	-0.076255	-0.000231
H73	H	0.374892	0.235493	0.076780
Br74	Br	0.822280	-0.269108	-0.221829
H75	H	0.823902	-0.153618	0.119555
H76	H	0.821835	-0.294673	0.185580
H77	H	0.837005	-0.028981	0.430654
H78	H	0.804248	0.269080	0.568929
Br79	Br	0.819037	-0.490766	-0.221825
Br80	Br	0.420872	-0.026693	-0.100219
H81	H	0.817316	-0.606294	-0.119971
Br82	Br	0.439349	0.316344	-0.000184
Br83	Br	0.816879	-0.631822	0.155394
Br84	Br	0.220364	0.266787	0.099790
H85	H	0.147993	0.266114	-0.000237
H86	H	0.823958	-0.153608	-0.119983
H87	H	0.016558	0.263610	-0.000256
Br88	Br	0.478025	-0.070999	-0.000178
H89	H	0.906228	0.008543	0.804009
H90	H	0.804220	0.269078	0.430646
Br91	Br	0.648800	-0.067753	-0.000138
Br92	Br	0.818931	-0.490783	0.221406
H93	H	0.906185	0.008539	0.195510
Br94	Br	0.931806	-0.024826	0.354481
H95	H	0.837013	-0.028976	0.568945
Br96	Br	0.931838	-0.024818	0.645020
H97	H	0.735016	0.231542	0.333872
Br98	Br	0.709381	0.264899	0.174894
