data_functionalizedCrystal
_audit_creation_method	'MofGen! by Chris Wilmer'
_symmetry_space_group_name_H-M	'P1'
_symmetry_Int_Tables_number	1
_symmetry_cell_setting	triclinic
loop_
_symmetry_equiv_pos_as_xyz
  x,y,z
_cell_length_a	17.699083
_cell_length_b	14.853567
_cell_length_c	16.176319
_cell_angle_alpha	89.996997
_cell_angle_beta	89.998611
_cell_angle_gamma	83.458972
loop_
_atom_site_label
_atom_site_type_symbol
_atom_site_fract_x
_atom_site_fract_y
_atom_site_fract_z
O1	O	1.004375	0.114008	-0.068624
O2	O	0.784035	0.128841	-0.068650
O3	O	0.900090	-0.009827	-0.068639
O4	O	0.888319	0.252676	-0.068635
O5	O	0.900074	-0.009836	0.068855
O6	O	0.784019	0.128832	0.068843
O7	O	1.004359	0.113999	0.068869
Cu8	Cu	0.894187	0.121415	0.081411
Cu9	Cu	0.894206	0.121425	-0.081191
O10	O	0.888303	0.252667	0.068858
C11	C	0.755828	0.128305	0.000093
C12	C	0.671806	0.126711	0.000083
C13	C	0.623396	0.208106	0.000084
C14	C	0.544449	0.206602	0.000095
C15	C	0.513913	0.123703	0.000098
C16	C	0.562329	0.042301	0.000099
C17	C	0.641275	0.043806	0.000095
C18	C	0.243950	0.036232	0.000120
C19	C	0.164999	0.034734	0.000122
C20	C	0.147125	0.199028	0.000120
C21	C	0.226070	0.200533	0.000115
C22	C	0.274479	0.119132	0.000121
C23	C	0.360083	0.120763	0.000111
C24	C	0.428311	0.122070	0.000102
C25	C	0.899549	-0.043418	0.000106
C26	C	0.897951	-0.143496	0.000098
C27	C	0.822255	-0.555751	0.000105
C28	C	0.960131	-0.577539	0.000121
C29	C	0.961634	-0.483511	0.000117
C30	C	0.893446	-0.425598	0.000107
C31	C	0.823756	-0.461714	0.000103
C32	C	1.031324	-0.447389	0.000129
C33	C	1.032829	-0.353355	0.000126
C34	C	0.964641	-0.295441	0.000111
C35	C	0.894947	-0.331561	0.000105
C36	C	0.826759	-0.273648	0.000096
C37	C	0.757065	-0.309767	0.000084
C38	C	0.755567	-0.403799	0.000088
C39	C	0.966139	-0.201409	0.000107
C40	C	0.828260	-0.179611	0.000094
C41	C	1.032565	0.114535	0.000125
C42	C	1.116587	0.116130	0.000129
C43	C	0.888844	0.286258	0.000112
C44	C	0.890443	0.386336	0.000114
N45	N	0.894179	0.121407	0.195776
N46	N	0.894220	0.121426	-0.195556
C47	C	0.945584	0.060030	0.239045
C48	C	0.945588	0.060029	0.325592
C49	C	0.894190	0.121410	0.368868
C50	C	0.842780	0.182790	0.325593
C51	C	0.842773	0.182786	0.239048
C52	C	0.842806	0.182807	0.674621
C53	C	0.842818	0.182808	0.761173
C54	C	0.945621	0.060050	0.761166
C55	C	0.945614	0.060046	0.674620
C56	C	0.894201	0.121422	0.631353
C57	C	0.894197	0.121422	0.537508
C58	C	0.894198	0.121416	0.462711
H59	H	0.250928	0.268038	0.000109
H60	H	1.022883	-0.172005	0.000122
H61	H	0.800913	0.232764	0.203819
C62	C	0.673904	-0.496917	-0.070589
C63	C	0.678966	-0.443507	0.000084
H64	H	0.626617	-0.521438	-0.070585
H65	H	0.677351	-0.460688	-0.118530
H66	H	0.714307	-0.544857	-0.070574
H67	H	0.638566	-0.395563	0.000065
H68	H	0.675511	-0.479738	0.048038
C69	C	1.077194	-0.625066	-0.070545
C70	C	1.035081	-0.641194	0.000132
H71	H	1.123468	-0.664364	-0.070536
H72	H	1.048626	-0.636004	-0.118484
H73	H	1.088058	-0.563893	-0.070539
H74	H	1.024212	-0.702366	0.000123
H75	H	1.063655	-0.630263	0.048083
C76	C	1.148389	-0.494914	-0.070532
C77	C	1.106272	-0.511047	0.000139
H78	H	1.194662	-0.534216	-0.070523
H79	H	1.119823	-0.505844	-0.118474
H80	H	1.159257	-0.433743	-0.070519
H81	H	1.095399	-0.572217	0.000123
H82	H	1.134844	-0.500124	0.048094
C83	C	0.047965	0.292660	-0.070550
C84	C	0.093909	0.288508	0.000124
H85	H	0.015111	0.347897	-0.070546
H86	H	0.079132	0.289835	-0.118491
H87	H	0.018484	0.243070	-0.070536
H88	H	0.123395	0.338095	0.000106
H89	H	0.062739	0.291341	0.048077
H90	H	0.140140	-0.032777	0.000126
H91	H	0.283356	-0.030050	0.000125
C92	C	1.114512	-0.260258	-0.070555
C93	C	1.109434	-0.313656	0.000129
H94	H	1.161803	-0.235746	-0.070551
H95	H	1.111067	-0.296493	-0.118489
H96	H	1.074115	-0.212312	-0.070552
H97	H	1.149829	-0.361606	0.000123
H98	H	1.112887	-0.277419	0.048075
C99	C	0.797148	0.237326	0.541964
C100	C	0.786306	0.250285	0.627068
H101	H	0.762265	0.278987	0.512606
H102	H	0.847663	0.247034	0.527780
H103	H	0.788856	0.177171	0.527791
H104	H	0.794604	0.310439	0.641243
H105	H	0.735780	0.240585	0.641258
C106	C	1.047199	-0.061321	0.247740
C107	C	1.002082	-0.007445	0.191480
H108	H	1.082075	-0.102983	0.218375
H109	H	1.074463	-0.023833	0.281486
H110	H	1.015656	-0.093697	0.281505
H111	H	1.033625	0.024936	0.157719
H112	H	0.974817	-0.044938	0.157720
C113	C	0.739814	0.202509	0.422941
C114	C	0.786282	0.250260	0.373165
H115	H	0.704939	0.244165	0.452313
H116	H	0.712550	0.165029	0.389187
H117	H	0.770440	0.165957	0.461093
H118	H	0.755656	0.286807	0.335009
H119	H	0.813548	0.287755	0.406922
H120	H	0.987445	0.010051	0.360821
C121	C	0.449249	-0.032959	0.000100
C122	C	0.528766	-0.048825	0.000102
H123	H	0.428532	-0.089219	0.000095
H124	H	0.432643	0.000538	0.048045
H125	H	0.432646	0.000552	-0.047849
H126	H	0.545370	-0.082330	0.048055
H127	H	0.545379	-0.082336	-0.047848
C128	C	0.651018	-0.118749	0.000084
C129	C	0.694490	-0.045666	0.000085
H130	H	0.683873	-0.173985	0.000075
H131	H	0.619859	-0.115923	0.048030
H132	H	0.619850	-0.115907	-0.047864
H133	H	0.725654	-0.048504	0.048037
H134	H	0.725663	-0.048493	-0.047866
C135	C	0.769335	-0.025791	0.000081
C136	C	0.753304	-0.115955	0.000080
H137	H	0.723060	0.013505	0.000067
H138	H	0.797892	-0.014864	0.048030
H139	H	0.797915	-0.014865	-0.047864
H140	H	0.724728	-0.126883	0.048028
H141	H	0.724735	-0.126886	-0.047875
H142	H	0.765511	-0.585163	0.000092
C143	C	0.597790	0.370358	0.000091
C144	C	0.656957	0.299233	0.000083
H145	H	0.618510	0.426616	0.000097
H146	H	0.567371	0.366358	-0.047852
H147	H	0.567372	0.366341	0.048043
H148	H	0.687373	0.303246	-0.047873
H149	H	0.687389	0.303235	0.048030
H150	H	0.987470	0.010067	0.639387
H151	H	0.987482	0.010071	0.796404
C152	C	0.711848	0.235926	0.787847
C153	C	0.786311	0.250275	0.808747
H154	H	0.676967	0.277571	0.817223
H155	H	0.704487	0.244714	0.730120
H156	H	0.703589	0.175763	0.802040
H157	H	0.794573	0.310436	0.794549
H158	H	0.793676	0.241494	0.866488
C159	C	0.445297	0.300223	-0.070588
C160	C	0.491238	0.296075	0.000088
H161	H	0.412445	0.355462	-0.070589
H162	H	0.476465	0.297392	-0.118528
H163	H	0.415814	0.250635	-0.070571
H164	H	0.520726	0.345660	0.000067
H165	H	0.460066	0.298915	0.048039
H166	H	0.701546	-0.262602	0.000083
