data_functionalizedCrystal
_audit_creation_method	'MofGen! by Chris Wilmer'
_symmetry_space_group_name_H-M	'P1'
_symmetry_Int_Tables_number	1
_symmetry_cell_setting	triclinic
loop_
_symmetry_equiv_pos_as_xyz
  x,y,z
_cell_length_a	13.897449
_cell_length_b	18.215405
_cell_length_c	18.215399
_cell_angle_alpha	90.030551
_cell_angle_beta	90.018532
_cell_angle_gamma	90.026165
loop_
_atom_site_label
_atom_site_type_symbol
_atom_site_fract_x
_atom_site_fract_y
_atom_site_fract_z
Zn1	Zn	1.474633	-0.292967	0.416077
Zn2	Zn	1.474513	-0.416038	0.293005
Zn3	Zn	1.313329	-0.292993	0.293027
Zn4	Zn	1.313284	-0.415999	0.416033
O5	O	1.393940	-0.354499	0.354536
O6	O	1.609599	-0.309298	0.399761
O7	O	1.453100	-0.399743	0.190024
O8	O	1.334795	-0.190005	0.309378
O9	O	1.609511	-0.399718	0.309340
O10	O	1.453305	-0.189986	0.399782
O11	O	1.334679	-0.309342	0.190040
O12	O	1.178341	-0.309304	0.309335
O13	O	1.334719	-0.399651	0.519023
O14	O	1.178308	-0.399676	0.399707
O15	O	1.453262	-0.309260	0.519055
O16	O	1.453057	-0.519017	0.309297
O17	O	1.334602	-0.518988	0.399685
C18	C	1.393838	-0.545705	0.354500
C19	C	1.393883	-0.627504	0.354510
C20	C	1.143326	-0.354489	0.354519
C21	C	1.036112	-0.354503	0.354529
C22	C	1.455707	-0.815689	0.307531
C23	C	1.455750	-0.892547	0.307549
C24	C	1.332296	-0.892557	0.401593
C25	C	1.332259	-0.815700	0.401578
C26	C	1.393963	-0.777268	0.354543
C27	C	1.394043	-0.930984	0.354576
C28	C	1.394090	-1.014317	0.354595
C29	C	1.393918	-0.693929	0.354524
C30	C	0.839817	-0.354505	0.354548
C31	C	0.949049	-0.354502	0.354536
C32	C	1.645533	-0.354509	0.354553
C33	C	1.752747	-0.354514	0.354560
C34	C	1.393999	-0.354448	0.546489
C35	C	1.394024	-0.354427	0.628288
C36	C	1.394068	-0.162546	0.354587
C37	C	1.394123	-0.080747	0.354609
C38	C	1.393937	-0.354496	0.163329
C39	C	1.394099	-0.354311	0.081531
C40	C	1.455771	-0.307316	0.816500
C41	C	1.455783	-0.307295	0.893358
C42	C	1.332345	-0.401424	0.893313
C43	C	1.332329	-0.401441	0.816456
C44	C	1.394048	-0.354388	0.778051
C45	C	1.394075	-0.354349	0.931767
C46	C	1.394087	-0.354326	1.015101
C47	C	1.394035	-0.354410	0.694712
H48	H	1.505951	-0.784399	0.269234
Cl49	Cl	1.533390	-0.248122	0.941691
H50	H	1.506030	-0.923826	0.269268
H51	H	1.282058	-0.923858	0.439886
Cl52	Cl	1.254636	-0.767396	0.460688
H53	H	1.506024	-0.269001	0.785233
Cl54	Cl	1.254765	-0.460576	0.941599
H55	H	1.282059	-0.439772	0.785150
