data_functionalizedCrystal
_audit_creation_method	'MofGen! by Chris Wilmer'
_symmetry_space_group_name_H-M	'P1'
_symmetry_Int_Tables_number	1
_symmetry_cell_setting	triclinic
loop_
_symmetry_equiv_pos_as_xyz
  x,y,z
_cell_length_a	10.540539
_cell_length_b	14.519709
_cell_length_c	12.996460
_cell_angle_alpha	90.007090
_cell_angle_beta	90.003509
_cell_angle_gamma	84.102818
loop_
_atom_site_label
_atom_site_type_symbol
_atom_site_fract_x
_atom_site_fract_y
_atom_site_fract_z
O1	O	-1.684562	-0.129969	-0.085521
O2	O	-1.184562	0.370031	0.414479
O3	O	-1.315024	-0.142215	-0.085534
O4	O	-0.815024	0.357785	0.414466
O5	O	-1.509591	-0.001906	-0.085518
O6	O	-1.009591	0.498094	0.414482
O7	O	-1.489995	-0.270278	-0.085537
O8	O	-0.989995	0.229722	0.414463
O9	O	-1.509571	-0.001899	0.085616
O10	O	-1.009571	0.498101	0.585616
O11	O	-1.315004	-0.142207	0.085600
O12	O	-0.815004	0.357793	0.585600
O13	O	-1.684542	-0.129961	0.085613
O14	O	-1.184542	0.370039	0.585613
Cu15	Cu	-1.499771	-0.136083	0.101232
Cu16	Cu	-0.999771	0.363917	0.601232
Cu17	Cu	-1.499795	-0.136093	-0.101153
Cu18	Cu	-0.999795	0.363907	0.398847
O19	O	-1.489975	-0.270270	0.085597
O20	O	-0.989975	0.229730	0.585597
C21	C	-1.267720	-0.141293	0.000032
C22	C	-0.767720	0.358707	0.500032
C23	C	-1.126800	-0.138545	0.000027
C24	C	-0.626800	0.361455	0.500027
C25	C	-1.508668	0.032462	0.000049
C26	C	-1.008668	0.532462	0.500049
C27	C	-1.505931	0.134858	0.000050
C28	C	-1.005931	0.634858	0.500050
C29	C	-1.731846	-0.130884	0.000045
C30	C	-1.231846	0.369116	0.500045
C31	C	-1.872766	-0.133631	0.000043
C32	C	-1.372766	0.366369	0.500043
C33	C	-0.944448	-0.033266	0.000434
C34	C	-0.444448	0.466734	0.500434
C35	C	-1.091038	-0.036051	0.000037
C36	C	-0.591038	0.463949	0.500037
C37	C	-1.064636	-0.187874	-0.097699
C38	C	-0.564636	0.312126	0.402301
C39	C	-0.918127	-0.184376	-0.097770
C40	C	-0.418127	0.315624	0.402230
C41	C	-0.917594	-0.186452	0.096841
C42	C	-0.417594	0.313548	0.596841
C43	C	-1.064567	-0.187396	0.098122
C44	C	-0.564567	0.312604	0.598122
C45	C	-1.490899	-0.304639	0.000028
C46	C	-0.990899	0.195361	0.500028
C47	C	-1.493635	-0.407035	0.000020
C48	C	-0.993635	0.092965	0.500020
N49	N	-1.499763	-0.136076	0.243579
N50	N	-0.999763	0.363924	0.743579
C51	C	-1.495856	0.509808	0.000023
C52	C	-0.995856	1.009808	0.500023
C53	C	-1.498654	0.405485	0.000031
C54	C	-0.998654	0.905485	0.500031
C55	C	-1.500893	0.322337	0.000037
C56	C	-1.000893	0.822337	0.500037
C57	C	-1.503692	0.218007	0.000043
C58	C	-1.003692	0.718007	0.500043
N59	N	-1.499813	-0.136093	-0.243500
N60	N	-0.999813	0.363907	0.256500
C61	C	-1.499793	-0.136094	0.663394
C62	C	-0.999793	0.363906	1.163394
C63	C	-1.499781	-0.136092	0.546589
C64	C	-0.999781	0.363908	1.046589
C65	C	-1.499779	-0.136086	0.453490
C66	C	-0.999779	0.363914	0.953490
C67	C	-1.499766	-0.136083	0.336678
C68	C	-0.999766	0.363917	0.836678
H69	H	-1.134040	0.002763	0.070092
H70	H	-0.634040	0.502763	0.570092
F71	F	-1.092877	-0.286250	-0.102478
F72	F	-0.592877	0.213750	0.397522
H73	H	-1.088029	-0.262121	0.104017
H74	H	-0.588029	0.237879	0.604017
F75	F	-0.905508	0.019437	-0.090648
F76	F	-0.405508	0.519437	0.409352
F77	F	-1.120766	-0.143094	-0.192757
F78	F	-0.620766	0.356906	0.307243
H79	H	-1.105888	-0.151360	0.170419
H80	H	-0.605888	0.348640	0.670419
H81	H	-0.890298	-0.147924	-0.170815
H82	H	-0.390298	0.352076	0.329185
H83	H	-0.916268	0.007229	0.070519
H84	H	-0.416268	0.507229	0.570519
H85	H	-0.886378	-0.153279	0.170917
H86	H	-0.386378	0.346721	0.670917
H87	H	-1.133191	0.003030	-0.070132
H88	H	-0.633191	0.503030	0.429868
F89	F	-0.854441	-0.280722	-0.103575
F90	F	-0.354441	0.219278	0.396425
H91	H	-0.869612	-0.260483	0.097496
H92	H	-0.369612	0.239517	0.597496
