data_functionalizedCrystal
_audit_creation_method	'MofGen! by Chris Wilmer'
_symmetry_space_group_name_H-M	'P1'
_symmetry_Int_Tables_number	1
_symmetry_cell_setting	triclinic
loop_
_symmetry_equiv_pos_as_xyz
  x,y,z
_cell_length_a	15.944551
_cell_length_b	15.944551
_cell_length_c	15.021413
_cell_angle_alpha	90.003065
_cell_angle_beta	89.997174
_cell_angle_gamma	83.498738
loop_
_atom_site_label
_atom_site_type_symbol
_atom_site_fract_x
_atom_site_fract_y
_atom_site_fract_z
O1	O	1.114529	0.108321	-0.073941
O2	O	0.869979	0.121677	-0.073964
O3	O	0.998932	-0.007276	-0.073944
O4	O	0.985576	0.237274	-0.073961
O5	O	0.998912	-0.007257	0.074121
O6	O	0.869959	0.121695	0.074101
O7	O	1.114508	0.108339	0.074123
Zn8	Zn	0.992230	0.115020	0.097620
Zn9	Zn	0.992257	0.114996	-0.097461
O10	O	0.985555	0.237292	0.074103
C11	C	0.838675	0.121132	0.000066
C12	C	0.745429	0.119470	0.000057
C13	C	0.530572	0.035565	0.000081
C14	C	0.469562	0.074518	-0.072926
C15	C	0.574703	0.116462	0.000068
C16	C	0.469564	0.074556	0.073054
C17	C	0.409790	0.113551	0.000083
C18	C	0.514921	0.155438	-0.072998
C19	C	0.514930	0.155464	0.073047
C20	C	0.453937	0.194476	0.000023
C21	C	0.669705	0.118137	0.000059
C22	C	0.314789	0.111883	0.000085
C23	C	0.998367	-0.038561	0.000089
C24	C	0.996705	-0.131807	0.000089
C25	C	0.912801	-0.346663	0.000069
C26	C	0.951753	-0.407672	0.073077
C27	C	0.993698	-0.302533	0.000082
C28	C	0.951792	-0.407673	-0.072903
C29	C	0.990787	-0.467445	0.000071
C30	C	1.032672	-0.362313	0.073150
C31	C	1.032700	-0.362308	-0.072895
C32	C	1.071711	-0.423298	0.000131
C33	C	0.995372	-0.207530	0.000089
C34	C	0.989119	-0.562446	0.000070
C35	C	1.145813	0.108885	0.000092
C36	C	1.239059	0.110547	0.000094
C37	C	0.986120	0.268577	0.000069
C38	C	0.987782	0.361823	0.000063
N39	N	0.992218	0.115036	0.230758
N40	N	0.992276	0.114973	-0.230598
C41	C	0.932581	0.174636	0.470432
C42	C	1.008481	0.190943	0.529772
C43	C	0.992239	0.115015	0.412365
C44	C	0.916360	0.098727	0.529766
C45	C	0.992253	0.114997	0.587789
C46	C	1.068178	0.131360	0.470398
C47	C	0.976006	0.039111	0.470387
C48	C	1.051962	0.055386	0.529701
C49	C	0.992230	0.115028	0.311307
C50	C	0.992271	0.114984	0.688844
H51	H	0.535052	0.189659	0.134767
C52	C	1.119233	-0.011843	0.564366
C53	C	1.118056	-0.011607	0.657566
C54	C	1.180007	-0.073531	0.689532
H55	H	1.173130	-0.000219	0.544023
H56	H	1.108148	-0.065641	0.543182
H57	H	1.129147	0.042179	0.678742
H58	H	1.064173	-0.023242	0.677933
H59	H	1.168922	-0.127329	0.668348
H60	H	1.233900	-0.061901	0.669183
H61	H	1.179212	-0.073384	0.752771
C62	C	0.541680	0.201106	-0.155284
C63	C	0.581461	0.271108	-0.129336
C64	C	0.606134	0.313188	-0.205112
H65	H	0.493366	0.219424	-0.190160
H66	H	0.579762	0.163847	-0.189408
H67	H	0.543382	0.308360	-0.095227
H68	H	0.629785	0.252814	-0.094471
H69	H	0.644216	0.275929	-0.239236
H70	H	0.557816	0.331499	-0.239982
H71	H	0.633135	0.360683	-0.187516
H72	H	0.852184	0.084959	0.555847
C73	C	0.442900	0.028795	0.155321
C74	C	0.482091	-0.054349	0.154980
C75	C	0.457559	-0.096531	0.230749
H76	H	0.383369	0.028425	0.155090
H77	H	0.459223	0.056946	0.207186
H78	H	0.465763	-0.082492	0.103129
H79	H	0.541621	-0.054004	0.155224
H80	H	0.473882	-0.068381	0.282614
H81	H	0.398028	-0.096895	0.230511
H82	H	0.484152	-0.152946	0.230532
H83	H	1.066851	-0.342314	0.134941
C84	C	1.161338	-0.467477	0.000374
C85	C	1.203280	-0.444481	0.076949
C86	C	1.285840	-0.485172	0.077214
H87	H	1.190398	-0.451291	-0.050931
H88	H	1.159829	-0.526871	-0.000070
H89	H	1.204794	-0.385100	0.077385
H90	H	1.174246	-0.460668	0.128267
H91	H	1.284331	-0.544566	0.076770
H92	H	1.314891	-0.468984	0.025905
H93	H	1.314305	-0.469582	0.129173
H94	H	0.917528	-0.427772	0.134794
H95	H	1.066896	-0.342185	-0.134615
C96	C	0.957479	-0.046402	0.435619
C97	C	0.877910	-0.063116	0.465628
C98	C	0.860799	-0.141877	0.433605
H99	H	0.999235	-0.088953	0.456773
H100	H	0.958077	-0.045933	0.372378
H101	H	0.877319	-0.063592	0.528856
H102	H	0.836137	-0.020586	0.444476
H103	H	0.861397	-0.141408	0.370364
H104	H	0.902559	-0.184421	0.454762
H105	H	0.806807	-0.153224	0.453955
H106	H	0.420779	0.261683	-0.000023
H107	H	0.917574	-0.427758	-0.134630
H108	H	1.132368	0.145206	0.444430
H109	H	0.563905	-0.031573	-0.000005
C110	C	0.865484	0.242042	0.435769
C111	C	0.882893	0.321368	0.465842
C112	C	0.821114	0.383484	0.433917
H113	H	0.811643	0.231124	0.456947
H114	H	0.865618	0.241296	0.372527
H115	H	0.882750	0.322113	0.529071
H116	H	0.936723	0.332314	0.444667
H117	H	0.821248	0.382738	0.370675
H118	H	0.767277	0.372557	0.455097
H119	H	0.832922	0.437314	0.454310
H120	H	0.845652	-0.313356	0.000136
C121	C	0.442817	0.028730	-0.155140
C122	C	0.481967	-0.054428	-0.154790
C123	C	0.457345	-0.096641	-0.230501
H124	H	0.459098	0.056817	-0.207049
H125	H	0.383270	0.028406	-0.154817
H126	H	0.541501	-0.054100	-0.155121
H127	H	0.465691	-0.082537	-0.102898
H128	H	0.397798	-0.096965	-0.230178
H129	H	0.473627	-0.068548	-0.282405
H130	H	0.483898	-0.153071	-0.230270
C131	C	1.026832	0.276449	0.564739
C132	C	1.027367	0.275045	0.657935
C133	C	1.044271	0.353795	0.690176
H134	H	0.984427	0.318826	0.544548
H135	H	1.080354	0.288436	0.543592
H136	H	0.973853	0.263068	0.679074
H137	H	1.069772	0.232684	0.678151
H138	H	1.097792	0.365783	0.669029
H139	H	1.001863	0.396167	0.669978
H140	H	1.044644	0.352851	0.753411
