data_functionalizedCrystal
_audit_creation_method	'MofGen! by Chris Wilmer'
_symmetry_space_group_name_H-M	'P1'
_symmetry_Int_Tables_number	1
_symmetry_cell_setting	triclinic
loop_
_symmetry_equiv_pos_as_xyz
  x,y,z
_cell_length_a	27.731994
_cell_length_b	27.732048
_cell_length_c	26.210047
_cell_angle_alpha	89.999521
_cell_angle_beta	89.997128
_cell_angle_gamma	82.631595
loop_
_atom_site_label
_atom_site_type_symbol
_atom_site_fract_x
_atom_site_fract_y
_atom_site_fract_z
O1	O	0.640948	0.057385	-0.042362
O2	O	0.500151	0.066158	-0.042379
O3	O	0.574923	-0.008626	-0.042360
O4	O	0.566177	0.132169	-0.042381
O5	O	0.574908	-0.008614	0.042498
O6	O	0.500137	0.066170	0.042479
O7	O	0.640934	0.057397	0.042496
Cu8	Cu	0.570534	0.061784	0.050236
Cu9	Cu	0.570551	0.061771	-0.050119
O10	O	0.566162	0.132181	0.042477
C11	C	0.482137	0.065984	0.000047
C12	C	0.428480	0.065442	0.000041
C13	C	0.095754	0.062032	0.046317
C14	C	-0.105904	0.059971	0.046324
O15	O	-0.131984	0.059689	0.085663
N16	N	-0.131111	0.059708	0.000067
C17	C	-0.105900	0.059958	-0.046193
O18	O	-0.131967	0.059683	-0.085537
C19	C	0.095758	0.062016	-0.046199
C20	C	0.120961	0.062283	0.000060
C21	C	0.120958	0.062299	0.092573
C22	C	0.171369	0.062817	0.092571
C23	C	0.196576	0.063068	0.046313
C24	C	0.171372	0.062802	0.000058
C25	C	0.120968	0.062263	-0.092459
C26	C	0.171386	0.062776	-0.092457
C27	C	0.196590	0.063043	-0.046197
C28	C	0.246991	0.063571	-0.046201
N29	N	0.272198	0.063833	0.000055
C30	C	0.246991	0.063582	0.046312
C31	C	-0.211773	0.058878	-0.046187
C32	C	-0.262188	0.058365	-0.046186
C33	C	-0.262188	0.058376	0.046331
C34	C	-0.211774	0.058894	0.046329
C35	C	-0.186566	0.059141	0.000069
C36	C	0.352858	0.064670	0.046305
C37	C	0.403273	0.065190	0.046298
C38	C	0.403269	0.065176	-0.046218
C39	C	0.352858	0.064659	-0.046213
C40	C	0.327654	0.064404	0.000053
O41	O	0.273102	0.063848	-0.085520
O42	O	0.273067	0.063847	0.085650
C43	C	0.045343	0.061514	0.046319
C44	C	0.020139	0.061247	0.000064
C45	C	0.045346	0.061499	-0.046193
C46	C	-0.030275	0.060734	0.000065
C47	C	-0.055483	0.060482	0.046323
C48	C	-0.030276	0.060745	0.092579
C49	C	0.020135	0.061263	0.092577
C50	C	0.020139	0.061236	-0.092449
C51	C	-0.030272	0.060719	-0.092443
C52	C	-0.055479	0.060468	-0.046186
C53	C	0.574732	-0.026627	0.000070
C54	C	0.574179	-0.080282	0.000074
C55	C	0.614884	-0.419105	0.000053
C56	C	0.612833	-0.620764	0.000046
O57	O	0.650055	-0.652027	0.000028
N58	N	0.568496	-0.639879	0.000041
C59	C	0.524670	-0.608576	0.000034
O60	O	0.486912	-0.629462	0.000024
C61	C	0.526721	-0.406918	0.000038
C62	C	0.571061	-0.387805	0.000048
C63	C	0.659220	-0.399992	0.000063
C64	C	0.659732	-0.349580	0.000068
C65	C	0.615908	-0.318281	0.000062
C66	C	0.571573	-0.337394	0.000053
C67	C	0.482895	-0.375615	0.000028
C68	C	0.483412	-0.325198	0.000027
C69	C	0.527751	-0.306086	0.000037
C70	C	0.528262	-0.255683	0.000052
N71	N	0.572598	-0.236567	0.000057
C72	C	0.616421	-0.267867	0.000062
C73	C	0.523596	-0.714450	0.000033
C74	C	0.523083	-0.764864	0.000033
C75	C	0.611246	-0.777049	0.000044
C76	C	0.611759	-0.726633	0.000048
C77	C	0.567932	-0.695335	0.000038
C78	C	0.617494	-0.161998	0.000073
C79	C	0.618002	-0.111581	0.000079
C80	C	0.529839	-0.099401	0.000066
C81	C	0.529331	-0.149813	0.000062
C82	C	0.573162	-0.181111	0.000063
O83	O	0.491060	-0.224391	0.000064
O84	O	0.654174	-0.246971	0.000061
C85	C	0.614372	-0.469517	0.000049
C86	C	0.570036	-0.488629	0.000039
C87	C	0.526213	-0.457330	0.000034
C88	C	0.569523	-0.539043	0.000039
C89	C	0.613346	-0.570343	0.000044
C90	C	0.657683	-0.551228	0.000049
C91	C	0.658195	-0.500816	0.000054
C92	C	0.481876	-0.476445	0.000029
C93	C	0.481367	-0.526857	0.000025
C94	C	0.525191	-0.558157	0.000030
C95	C	0.658949	0.057571	0.000068
C96	C	0.712605	0.058114	0.000071
C97	C	0.566353	0.150182	0.000046
C98	C	0.566906	0.203837	0.000038
N99	N	0.570526	0.061794	0.120820
N100	N	0.570563	0.061757	-0.120703
C101	C	0.603656	0.028664	0.473342
C102	C	0.603667	0.028657	0.687001
O103	O	0.631818	0.000491	0.714630
N104	N	0.570554	0.061760	0.713714
C105	C	0.537433	0.094865	0.687008
O106	O	0.509265	0.123018	0.714632
C107	C	0.537421	0.094869	0.473351
C108	C	0.570539	0.061767	0.446641
C109	C	0.636772	-0.004436	0.446632
C110	C	0.636771	-0.004432	0.393221
C111	C	0.603654	0.028671	0.366519
C112	C	0.570538	0.061771	0.393229
C113	C	0.504298	0.127971	0.446647
C114	C	0.504297	0.127969	0.393229
C115	C	0.537416	0.094867	0.366519
C116	C	0.537420	0.094878	0.313117
N117	N	0.570533	0.061775	0.286404
C118	C	0.603650	0.028672	0.313105
C119	C	0.537443	0.094861	0.799182
C120	C	0.537446	0.094861	0.852596
C121	C	0.603680	0.028652	0.852585
C122	C	0.603678	0.028655	0.799169
C123	C	0.570556	0.061758	0.772469
C124	C	0.603645	0.028682	0.200937
C125	C	0.603643	0.028690	0.147521
C126	C	0.537408	0.094897	0.147537
C127	C	0.537412	0.094891	0.200949
C128	C	0.570533	0.061780	0.227647
O129	O	0.509281	0.123026	0.285454
O130	O	0.631807	0.000516	0.285473
C131	C	0.603658	0.028660	0.526754
C132	C	0.570542	0.061760	0.553464
C133	C	0.537425	0.094863	0.526762
C134	C	0.570546	0.061759	0.606878
C135	C	0.603663	0.028656	0.633579
C136	C	0.636776	-0.004447	0.606866
C137	C	0.636775	-0.004443	0.553455
C138	C	0.504311	0.127966	0.553475
C139	C	0.504316	0.127960	0.606887
C140	C	0.537433	0.094857	0.633588
H141	H	0.332341	0.064467	0.083978
N142	N	0.501691	0.130597	0.229754
H143	H	0.480427	0.112275	0.251914
H144	H	0.520033	0.151862	0.251889
N145	N	0.198571	0.063047	-0.142354
H146	H	0.234333	0.063415	-0.135340
H147	H	0.193905	0.032976	-0.162547
H148	H	0.191886	0.063032	0.130240
H149	H	0.446189	-0.450966	0.000023
N150	N	0.093796	0.061968	-0.142355
H151	H	0.077027	0.031775	-0.144410
H152	H	0.068757	0.091749	-0.144402
H153	H	-0.282721	0.058173	0.083996
H154	H	0.332335	0.064449	-0.083880
H155	H	0.510483	0.121820	0.874340
H156	H	-0.191254	0.059079	-0.083860
H157	H	0.663740	-0.031395	0.468368
N158	N	0.639403	-0.007050	0.881389
H159	H	0.634095	-0.041320	0.872097
H160	H	0.673651	-0.001682	0.872076
N161	N	0.430462	0.065447	-0.096108
H162	H	0.466223	0.065813	-0.089086
H163	H	0.425798	0.035374	-0.116300
N164	N	0.704947	-0.584995	0.000053
H165	H	0.724314	-0.578887	-0.031401
H166	H	0.724267	-0.578876	0.031533
N167	N	-0.289370	0.058084	-0.096079
H168	H	-0.265747	0.058320	-0.125381
H169	H	-0.306141	0.027892	-0.098090
N170	N	0.047316	0.061553	0.142471
H171	H	0.023691	0.061315	0.171771
H172	H	0.072379	0.031790	0.144495
H173	H	0.100439	0.062093	0.130243
N174	N	0.501690	0.130601	0.118733
H175	H	0.506715	0.125575	0.080843
H176	H	0.467442	0.125254	0.128071
N177	N	-0.057470	0.060477	0.142471
H178	H	-0.093318	0.060783	0.135450
H179	H	-0.044973	0.030255	0.162368
H180	H	-0.050789	0.060505	-0.130116
H181	H	0.040658	0.061439	-0.130118
N182	N	-0.184591	0.059183	0.096222
H183	H	-0.208215	0.058947	0.125524
H184	H	-0.159530	0.029418	0.098245
N185	N	0.665827	-0.090967	0.000093
H186	H	0.693510	-0.118448	0.000094
H187	H	0.667968	-0.070313	-0.031362
N188	N	0.664768	-0.195750	0.000074
H189	H	0.692928	-0.175986	0.000082
H190	H	0.666471	-0.216934	0.031532
H191	H	0.477347	0.154920	0.628630
H192	H	0.510470	0.121819	0.777446
N193	N	0.707555	-0.328970	0.000077
H194	H	0.735235	-0.356454	0.000078
H195	H	0.709696	-0.308319	-0.031381
H196	H	0.694908	-0.425472	0.000065
H197	H	0.647863	-0.711076	0.000056
N198	N	0.658514	-0.810812	0.000051
H199	H	0.651457	-0.845648	0.000049
H200	H	0.677856	-0.804663	-0.031407
N201	N	0.672496	-0.040146	0.524650
H202	H	0.693472	-0.061115	0.549677
H203	H	0.654153	-0.061388	0.502490
N204	N	0.706020	-0.480210	0.000061
H205	H	0.708207	-0.459564	-0.031395
H206	H	0.708169	-0.459591	0.031540
N207	N	0.475260	-0.785475	0.000036
H208	H	0.447579	-0.757993	0.000033
H209	H	0.473128	-0.806128	-0.031421
H210	H	0.487905	-0.688970	0.000026
N211	N	0.435071	-0.396221	0.000023
H212	H	0.407392	-0.368737	0.000019
H213	H	0.432939	-0.416872	-0.031435
H214	H	0.477329	0.154926	0.468387
H215	H	0.630646	0.001700	0.777425
N216	N	0.436141	-0.291440	0.000015
H217	H	0.407978	-0.311201	0.000008
H218	H	0.434424	-0.270259	0.031474
N219	N	0.481509	-0.170431	0.000058
H220	H	0.453826	-0.142951	0.000057
H221	H	0.479382	-0.191078	-0.031404
N222	N	0.482574	-0.065638	0.000074
H223	H	0.489631	-0.030802	0.000080
H224	H	0.463235	-0.071781	-0.031385
N225	N	0.433541	-0.547468	0.000022
H226	H	0.405860	-0.519986	0.000020
H227	H	0.431411	-0.568117	-0.031438
N228	N	0.672498	-0.040150	0.635671
H229	H	0.667470	-0.035125	0.673561
H230	H	0.667172	-0.074404	0.626336
N231	N	0.639366	-0.007012	0.118712
H232	H	0.660344	-0.027984	0.143736
H233	H	0.621022	-0.028251	0.096550
H234	H	0.630615	0.001719	0.222669
H235	H	0.663738	-0.031388	0.371476
N236	N	0.468570	0.163671	0.364431
H237	H	0.447592	0.184638	0.389460
H238	H	0.486910	0.184915	0.342268
N239	N	0.468588	0.163670	0.524680
H240	H	0.447613	0.184636	0.549712
H241	H	0.486929	0.184913	0.502518
H242	H	0.423791	0.065410	0.083970
