data_functionalizedCrystal
_audit_creation_method	'MofGen! by Chris Wilmer'
_symmetry_space_group_name_H-M	'P1'
_symmetry_Int_Tables_number	1
_symmetry_cell_setting	triclinic
loop_
_symmetry_equiv_pos_as_xyz
  x,y,z
_cell_length_a	12.827893
_cell_length_b	11.169416
_cell_length_c	11.169409
_cell_angle_alpha	90.028030
_cell_angle_beta	89.978812
_cell_angle_gamma	89.986941
loop_
_atom_site_label
_atom_site_type_symbol
_atom_site_fract_x
_atom_site_fract_y
_atom_site_fract_z
Zn1	Zn	1.597706	0.477711	-0.678622
Zn2	Zn	1.931039	0.811044	-0.345289
Zn3	Zn	2.264373	1.144378	-0.011956
Zn4	Zn	1.597601	0.678451	-0.477954
Zn5	Zn	1.930935	1.011785	-0.144621
Zn6	Zn	2.264268	1.345118	0.188712
Zn7	Zn	1.422942	0.477781	-0.477952
Zn8	Zn	1.756275	0.811114	-0.144619
Zn9	Zn	2.089608	1.144448	0.188715
Zn10	Zn	1.422940	0.678351	-0.678594
Zn11	Zn	1.756273	1.011684	-0.345261
Zn12	Zn	2.089606	1.345017	-0.011928
O13	O	1.510297	0.578073	-0.578281
O14	O	1.843631	0.911407	-0.244947
O15	O	2.176964	1.244740	0.088386
O16	O	1.743928	0.504352	-0.652016
O17	O	2.077262	0.837686	-0.318683
O18	O	2.410595	1.171019	0.014651
O19	O	1.574389	0.651904	-0.310004
O20	O	1.907723	0.985237	0.023329
O21	O	2.241056	1.318570	0.356663
O22	O	1.446169	0.309822	-0.504582
O23	O	1.779502	0.643155	-0.171249
O24	O	2.112836	0.976489	0.162085
O25	O	1.743851	0.651836	-0.504586
O26	O	2.077185	0.985169	-0.171253
O27	O	2.410518	1.318502	0.162081
O28	O	1.574568	0.309770	-0.652014
O29	O	1.907901	0.643104	-0.318680
O30	O	2.241234	0.976437	0.014653
O31	O	1.446068	0.504472	-0.310002
O32	O	1.779401	0.837805	0.023331
O33	O	2.112734	1.171138	0.356664
O34	O	1.276705	0.504374	-0.504555
O35	O	1.610039	0.837707	-0.171222
O36	O	1.943372	1.171041	0.162112
O37	O	1.446166	0.651664	-0.846548
O38	O	1.779499	0.984997	-0.513215
O39	O	2.112833	1.318330	-0.179881
O40	O	1.276704	0.651732	-0.651966
O41	O	1.610037	0.985065	-0.318633
O42	O	1.943371	1.318398	0.014701
O43	O	1.574566	0.504255	-0.846568
O44	O	1.907899	0.837588	-0.513235
O45	O	2.241233	1.170921	-0.179902
O46	O	1.574388	0.846388	-0.504559
O47	O	1.907721	1.179721	-0.171226
O48	O	2.241054	1.513054	0.162108
O49	O	1.446064	0.846314	-0.651968
O50	O	1.779398	1.179647	-0.318635
O51	O	2.112731	1.512980	0.014698
C52	C	1.238787	0.578050	-0.578258
C53	C	1.572121	0.911384	-0.244925
C54	C	1.905454	1.244717	0.088409
C55	C	1.122634	0.578069	-0.578277
C56	C	1.455968	0.911403	-0.244943
C57	C	1.789301	1.244736	0.088390
C58	C	1.510243	0.889898	-0.578287
C59	C	1.843576	1.223231	-0.244954
C60	C	2.176909	1.556565	0.088380
C61	C	1.510315	1.023298	-0.578330
C62	C	1.843648	1.356631	-0.244997
C63	C	2.176982	1.689965	0.088337
C64	C	0.950778	0.505077	-0.505483
C65	C	1.284112	0.838410	-0.172150
C66	C	1.617445	1.171743	0.161184
C67	C	1.070829	0.505055	-0.505462
C68	C	1.404162	0.838389	-0.172129
C69	C	1.737495	1.171722	0.161204
C70	C	1.782867	0.578097	-0.578304
C71	C	2.116201	0.911431	-0.244971
C72	C	2.449534	1.244764	0.088362
C73	C	1.899020	0.578108	-0.578314
C74	C	2.232354	0.911441	-0.244981
C75	C	2.565687	1.244774	0.088352
C76	C	1.510377	0.577940	-0.891323
C77	C	1.843711	0.911273	-0.557990
C78	C	2.177044	1.244607	-0.224657
C79	C	1.510412	0.577883	-1.024723
C80	C	1.843745	0.911217	-0.691390
C81	C	2.177078	1.244550	-0.358057
C82	C	1.510370	1.265031	-0.578313
C83	C	1.843703	1.598364	-0.244980
C84	C	2.177037	1.931698	0.088354
C85	C	1.510374	1.131631	-0.578359
C86	C	1.843707	1.464964	-0.245025
C87	C	2.177041	1.798298	0.088308
C88	C	1.510277	0.578120	-0.266456
C89	C	1.843611	0.911453	0.066877
C90	C	2.176944	1.244786	0.400211
C91	C	1.510446	0.577838	-0.133057
C92	C	1.843779	0.911172	0.200277
C93	C	2.177112	1.244505	0.533610
H94	H	0.906213	0.442563	-0.443150
H95	H	1.239547	0.775897	-0.109816
H96	H	1.572880	1.109230	0.223517
H97	H	1.115339	0.442535	-0.443104
H98	H	1.448673	0.775868	-0.109771
H99	H	1.782006	1.109202	0.223562
H100	H	1.078130	0.640601	-0.640630
H101	H	1.411464	0.973934	-0.307297
H102	H	1.744797	1.307267	0.026037
C103	C	0.959221	0.662559	-0.662532
C104	C	1.292554	0.995892	-0.329199
C105	C	1.625887	1.329226	0.004134
N106	N	1.004562	0.726172	-0.725966
N107	N	1.337896	1.059505	-0.392633
N108	N	1.671229	1.392839	-0.059299
