data_functionalizedCrystal
_audit_creation_method	'MofGen! by Chris Wilmer'
_symmetry_space_group_name_H-M	'P1'
_symmetry_Int_Tables_number	1
_symmetry_cell_setting	triclinic
loop_
_symmetry_equiv_pos_as_xyz
  x,y,z
_cell_length_a	16.120490
_cell_length_b	16.120531
_cell_length_c	18.215399
_cell_angle_alpha	92.866294
_cell_angle_beta	92.915256
_cell_angle_gamma	89.829344
loop_
_atom_site_label
_atom_site_type_symbol
_atom_site_fract_x
_atom_site_fract_y
_atom_site_fract_z
Zn1	Zn	1.254427	0.395681	0.489841
Zn2	Zn	1.754427	0.895681	0.989841
Zn3	Zn	1.247254	0.534738	0.372666
Zn4	Zn	1.747254	1.034738	0.872666
Zn5	Zn	1.115368	0.388638	0.360261
Zn6	Zn	1.615368	0.888638	0.860261
Zn7	Zn	1.108264	0.527625	0.489163
Zn8	Zn	1.608264	1.027625	0.989163
O9	O	1.181328	0.461670	0.427983
O10	O	1.681328	0.961670	0.927983
O11	O	1.369841	0.420051	0.479774
O12	O	1.869841	0.920051	0.979774
O13	O	1.229731	0.515387	0.268036
O14	O	1.729731	1.015387	0.768036
O15	O	1.139789	0.273210	0.372542
O16	O	1.639789	0.773210	0.872542
O17	O	1.364571	0.522215	0.393685
O18	O	1.864571	1.022215	0.893685
O19	O	1.241956	0.278384	0.467744
O20	O	1.741956	0.778384	0.967744
O21	O	1.132834	0.408048	0.258922
O22	O	1.632834	0.908048	0.758922
O23	O	0.998060	0.401151	0.371884
O24	O	1.498060	0.901151	0.871884
O25	O	1.127681	0.510093	0.592237
O26	O	1.627681	1.010093	1.092237
O27	O	0.992841	0.503264	0.466588
O28	O	1.492841	1.003264	0.966588
O29	O	1.235067	0.413154	0.592736
O30	O	1.735067	0.913154	1.092736
O31	O	1.222842	0.650156	0.393028
O32	O	1.722842	1.150156	0.893028
O33	O	1.120726	0.644931	0.478617
O34	O	1.620726	1.144931	0.978617
C35	C	0.965279	0.450672	0.417817
C36	C	1.465279	0.950672	0.917817
C37	C	0.872851	0.445987	0.413486
C38	C	1.372851	0.945987	0.913486
C39	C	0.659876	0.485966	0.450448
C40	C	1.159876	0.985966	0.950448
C41	C	0.703628	0.437441	0.405579
C42	C	1.203628	0.937441	0.905579
C43	C	0.797792	0.442198	0.409980
C44	C	1.297792	0.942198	0.909980
C45	C	0.565703	0.481211	0.446048
C46	C	1.065703	0.981211	0.946048
C47	C	1.170257	0.677716	0.437112
C48	C	1.670257	1.177716	0.937112
C49	C	1.165597	0.770145	0.441046
C50	C	1.665597	1.270145	0.941046
C51	C	1.157094	0.939375	0.448243
C52	C	1.657094	1.439375	0.948243
C53	C	1.205594	0.983127	0.407682
C54	C	1.705594	1.483127	0.907682
C55	C	1.200862	1.077292	0.411687
C56	C	1.700862	1.577292	0.911687
C57	C	1.161824	0.845201	0.444239
C58	C	1.661824	1.345201	0.944239
C59	C	1.398221	0.472712	0.438189
C60	C	1.898221	0.972712	0.938189
C61	C	1.490648	0.477417	0.442538
C62	C	1.990648	0.977417	0.942538
C63	C	1.181382	0.461616	0.619936
C64	C	1.681382	0.961616	1.119936
C65	C	1.181405	0.461592	0.701735
C66	C	1.681405	0.961592	1.201735
C67	C	1.192435	1.244781	0.418820
C68	C	1.692435	1.744781	0.918820
C69	C	1.197093	1.152352	0.414877
C70	C	1.697093	1.652352	0.914877
C71	C	1.181326	0.461667	0.236776
C72	C	1.681326	0.961667	0.736776
C73	C	1.181476	0.461465	0.154976
C74	C	1.681476	0.961465	0.654976
C75	C	1.237342	0.411068	0.890188
C76	C	1.737342	0.911068	1.390188
C77	C	1.237353	0.411044	0.967046
C78	C	1.737353	0.911044	1.467046
C79	C	1.125533	0.511992	0.966516
C80	C	1.625533	1.011992	1.466516
C81	C	1.125518	0.512010	0.889659
C82	C	1.625518	1.012010	1.389659
C83	C	1.181427	0.461550	0.851497
C84	C	1.681427	0.961550	1.351497
C85	C	1.181453	0.461507	1.005213
C86	C	1.681453	0.961507	1.505213
C87	C	1.181465	0.461482	1.088546
C88	C	1.681465	0.961482	1.588546
C89	C	1.181415	0.461574	0.768159
C90	C	1.681415	0.961574	1.268159
H91	H	0.670366	0.392326	0.363859
H92	H	1.170366	0.892326	0.863859
O93	O	1.103206	0.978951	0.493207
O94	O	1.603206	1.478951	0.993207
C95	C	1.021375	0.953693	0.472270
C96	C	1.521375	1.453693	0.972270
H97	H	1.022777	0.890536	0.441272
H98	H	1.522777	1.390536	0.941272
H99	H	0.990988	1.001189	0.435131
H100	H	1.490988	1.501189	0.935131
C101	C	0.969418	1.024829	0.579511
C102	C	1.469418	1.524829	1.079511
C103	C	0.971140	0.947255	0.541445
C104	C	1.471140	1.447255	1.041445
H105	H	0.938429	1.020861	0.622181
H106	H	1.438429	1.520861	1.122181
H107	H	1.024549	1.041848	0.593617
H108	H	1.524549	1.541848	1.093617
H109	H	0.944098	1.064401	0.548555
H110	H	1.444098	1.564401	1.048555
H111	H	0.996469	0.907687	0.572399
H112	H	1.496469	1.407687	1.072399
H113	H	0.916012	0.930229	0.527347
H114	H	1.416012	1.430229	1.027347
H115	H	0.693136	0.531078	0.492163
H116	H	1.193136	1.031078	0.992163
O117	O	1.259482	0.943494	0.362747
O118	O	1.759482	1.443494	0.862747
C119	C	1.341315	0.968780	0.383647
C120	C	1.841315	1.468780	0.883647
H121	H	1.344308	0.992883	0.443634
H122	H	1.844308	1.492883	0.943634
H123	H	1.360594	1.020237	0.347328
H124	H	1.860594	1.520237	0.847328
C125	C	1.396941	0.864726	0.300828
C126	C	1.896941	1.364726	0.800828
C127	C	1.400619	0.894324	0.374507
C128	C	1.900619	1.394324	0.874507
H129	H	1.433524	0.818800	0.295187
H130	H	1.933524	1.318800	0.795187
H131	H	1.341809	0.847692	0.286745
H132	H	1.841809	1.347692	0.786745
H133	H	1.413005	0.907614	0.270570
H134	H	1.913005	1.407614	0.770570
H135	H	1.384545	0.851439	0.404762
H136	H	1.884545	1.351439	0.904762
H137	H	1.455750	0.911349	0.388595
H138	H	1.955750	1.411349	0.888595
H139	H	1.282865	0.369977	0.859119
H140	H	1.782865	0.869977	1.359119
H141	H	1.282883	0.369935	0.998545
H142	H	1.782883	0.869935	1.498545
O143	O	1.071309	0.560988	1.003705
O144	O	1.571309	1.060988	1.503705
C145	C	1.083297	0.550133	1.079837
C146	C	1.583297	1.050133	1.579837
H147	H	1.148870	0.526163	1.092211
H148	H	1.648870	1.026163	1.592211
H149	H	1.036250	0.503337	1.097458
H150	H	1.536250	1.003337	1.597458
C151	C	0.990828	0.663312	1.107285
C152	C	1.490828	1.163312	1.607285
C153	C	1.071369	0.633878	1.122483
C154	C	1.571369	1.133878	1.622483
H155	H	0.983467	0.714968	1.133592
H156	H	1.483467	1.214968	1.633592
H157	H	0.982748	0.670624	1.055993
H158	H	1.482748	1.170624	1.555993
H159	H	0.951631	0.624308	1.121969
H160	H	1.451631	1.124308	1.621969
H161	H	1.110563	0.672877	1.107791
H162	H	1.610563	1.172877	1.607791
H163	H	1.079455	0.626575	1.173774
H164	H	1.579455	1.126575	1.673774
H165	H	1.079980	0.553118	0.858156
H166	H	1.579980	1.053118	1.358156
