data_functionalizedCrystal
_audit_creation_method	'MofGen! by Chris Wilmer'
_symmetry_space_group_name_H-M	'P1'
_symmetry_Int_Tables_number	1
_symmetry_cell_setting	triclinic
loop_
_symmetry_equiv_pos_as_xyz
  x,y,z
_cell_length_a	17.639617
_cell_length_b	21.395362
_cell_length_c	21.395355
_cell_angle_alpha	90.020549
_cell_angle_beta	101.248275
_cell_angle_gamma	101.213953
loop_
_atom_site_label
_atom_site_type_symbol
_atom_site_fract_x
_atom_site_fract_y
_atom_site_fract_z
Zn1	Zn	1.208574	-0.056162	0.548274
Zn2	Zn	1.708574	0.443838	1.048274
Zn3	Zn	1.208453	-0.160942	0.443474
Zn4	Zn	1.708453	0.339058	0.943474
Zn5	Zn	1.076363	-0.077314	0.422286
Zn6	Zn	1.576363	0.422686	0.922286
Zn7	Zn	1.076326	-0.182063	0.527002
Zn8	Zn	1.576326	0.317937	1.027002
O9	O	1.142429	-0.119120	0.485259
O10	O	1.642429	0.380880	0.985259
O11	O	1.319185	-0.052370	0.552142
O12	O	1.819185	0.447630	1.052142
O13	O	1.190896	-0.149861	0.352979
O14	O	1.690896	0.350139	0.852979
O15	O	1.093967	0.013180	0.439034
O16	O	1.593967	0.513180	0.939034
O17	O	1.319096	-0.129351	0.475145
O18	O	1.819096	0.370649	0.975145
O19	O	1.191102	0.028720	0.531597
O20	O	1.691102	0.528720	1.031597
O21	O	1.093850	-0.088420	0.337413
O22	O	1.593850	0.411580	0.837413
O23	O	0.965731	-0.108900	0.418407
O24	O	1.465731	0.391100	0.918407
O25	O	1.093904	-0.165350	0.617508
O26	O	1.593904	0.334650	1.117508
O27	O	0.965704	-0.185859	0.495342
O28	O	1.465704	0.314141	0.995342
O29	O	1.191066	-0.072851	0.633136
O30	O	1.691066	0.427149	1.133136
O31	O	1.190860	-0.251432	0.454519
O32	O	1.690860	0.248568	0.954519
O33	O	1.093787	-0.266950	0.515887
O34	O	1.593787	0.233050	1.015887
C35	C	0.937033	-0.151968	0.452268
C36	C	1.437033	0.348032	0.952268
C37	C	0.849164	-0.166035	0.438169
C38	C	1.349164	0.333965	0.938169
C39	C	1.142328	-0.281924	0.485211
C40	C	1.642328	0.218076	0.985211
C41	C	1.142357	-0.351561	0.485223
C42	C	1.642357	0.148439	0.985223
C43	C	1.192906	-0.376130	0.533444
C44	C	1.692906	0.123870	1.033444
C45	C	1.192934	-0.441561	0.533464
C46	C	1.692934	0.058439	1.033464
C47	C	1.142421	-0.482419	0.485252
C48	C	1.642421	0.017581	0.985252
C49	C	1.091862	-0.457843	0.437026
C50	C	1.591862	0.042157	0.937026
C51	C	1.091830	-0.392414	0.437012
C52	C	1.591830	0.107586	0.937012
C53	C	1.136267	-0.587103	0.427826
C54	C	1.636267	-0.087103	0.927826
C55	C	1.136305	-0.652530	0.427840
C56	C	1.636305	-0.152530	0.927840
C57	C	1.142515	-0.684224	0.485298
C58	C	1.642515	-0.184224	0.985298
C59	C	1.148704	-0.650481	0.542745
C60	C	1.648704	-0.150481	1.042745
C61	C	1.148672	-0.585052	0.542730
C62	C	1.648672	-0.085052	1.042730
C63	C	1.142450	-0.553366	0.485263
C64	C	1.642450	-0.053366	0.985263
C65	C	1.193097	-0.779741	0.533544
C66	C	1.693097	-0.279741	1.033544
C67	C	1.193119	-0.845174	0.533564
C68	C	1.693119	-0.345174	1.033564
C69	C	1.092051	-0.861454	0.437122
C70	C	1.592051	-0.361454	0.937122
C71	C	1.092025	-0.796023	0.437107
C72	C	1.592025	-0.296023	0.937107
C73	C	1.142552	-0.755170	0.485318
C74	C	1.642552	-0.255170	0.985318
C75	C	0.560376	-0.012239	0.592523
C76	C	1.060376	0.487761	1.092523
C77	C	0.477810	-0.025473	0.579262
C78	C	0.977810	0.474527	1.079262
C79	C	0.477739	-0.105500	0.498970
C80	C	0.977739	0.394500	0.998970
C81	C	0.560307	-0.092275	0.512226
C82	C	1.060307	0.407725	1.012226
C83	C	0.601619	-0.045643	0.559003
C84	C	1.101619	0.454357	1.059003
C85	C	0.601550	-0.125679	0.478706
C86	C	1.101550	0.374321	0.978706
C87	C	0.684111	-0.112452	0.491959
C88	C	1.184111	0.387548	0.991959
C89	C	0.725429	-0.065821	0.538732
C90	C	1.225429	0.434179	1.038732
C91	C	0.684180	-0.032416	0.572256
C92	C	1.184180	0.467584	1.072256
C93	C	0.560237	-0.172307	0.431927
C94	C	1.060237	0.327693	0.931927
C95	C	0.601480	-0.205712	0.398407
C96	C	1.101480	0.294288	0.898407
C97	C	0.684042	-0.192488	0.411663
C98	C	1.184042	0.307512	0.911663
C99	C	0.725360	-0.145857	0.458436
C100	C	1.225360	0.354143	0.958436
C101	C	0.725291	-0.225893	0.378139
C102	C	1.225291	0.274107	0.878139
C103	C	0.807852	-0.212667	0.391392
C104	C	1.307852	0.287333	0.891392
C105	C	0.807921	-0.132631	0.471689
C106	C	1.307921	0.367369	0.971689
C107	C	1.348627	-0.086145	0.518380
C108	C	1.848627	0.413855	1.018380
C109	C	1.436496	-0.072093	0.532494
C110	C	1.936496	0.427907	1.032494
C111	C	1.142495	-0.119097	0.648693
C112	C	1.642495	0.380903	1.148693
C113	C	1.142523	-0.119087	0.718339
C114	C	1.642523	0.380913	1.218339
C115	C	1.142552	0.044323	0.485325
C116	C	1.642552	0.544323	0.985325
C117	C	1.142605	0.113972	0.485353
C118	C	1.642605	0.613972	0.985353
C119	C	1.142409	-0.119091	0.322468
C120	C	1.642409	0.380909	0.822468
C121	C	1.142535	-0.118900	0.252847
C122	C	1.642535	0.381100	0.752847
C123	C	1.193113	-0.070922	0.759190
C124	C	1.693113	0.429078	1.259190
C125	C	1.193112	-0.070895	0.824625
C126	C	1.693112	0.429105	1.324625
C127	C	1.142529	-0.119043	0.849208
C128	C	1.642529	0.380957	1.349208
C129	C	1.091929	-0.167213	0.808347
C130	C	1.591929	0.332787	1.308347
C131	C	1.091926	-0.167235	0.742912
C132	C	1.591926	0.332765	1.242912
C133	C	1.136252	-0.176463	0.951864
C134	C	1.636252	0.323537	1.451864
C135	C	1.136260	-0.176441	1.017298
C136	C	1.636260	0.323559	1.517298
C137	C	1.142534	-0.118976	1.051030
C138	C	1.642534	0.381024	1.551030
C139	C	1.148815	-0.061529	1.019321
C140	C	1.648815	0.438471	1.519321
C141	C	1.148812	-0.061551	0.953887
C142	C	1.648812	0.438449	1.453887
C143	C	1.142526	-0.119025	0.920160
C144	C	1.642526	0.380975	1.420160
C145	C	1.193126	-0.070778	1.162834
C146	C	1.693126	0.429222	1.662834
C147	C	1.193119	-0.070751	1.228270
C148	C	1.693119	0.429249	1.728270
C149	C	1.091940	-0.167075	1.211991
C150	C	1.591940	0.332925	1.711991
C151	C	1.091943	-0.167097	1.146556
C152	C	1.591943	0.332903	1.646556
C153	C	1.142539	-0.118949	1.121982
C154	C	1.642539	0.381051	1.621982
H155	H	1.234047	-0.342869	0.572701
H156	H	1.734047	0.157131	1.072701
H157	H	1.234320	-0.031570	1.142824
H158	H	1.734320	0.468430	1.642824
F159	F	0.433764	-0.155125	0.449187
F160	F	0.933764	0.344875	0.949187
F161	F	1.129724	-0.688436	0.366702
F162	F	1.629724	-0.188436	0.866702
F163	F	1.038078	-0.218502	0.699433
F164	F	1.538078	0.281498	1.199433
F165	F	1.155493	-0.000413	0.920142
F166	F	1.655493	0.499587	1.420142
H167	H	0.444233	0.001736	0.606558
H168	H	0.944233	0.501736	1.106558
F169	F	0.472367	-0.186380	0.417819
F170	F	0.972367	0.313620	0.917819
F171	F	1.038288	-0.904934	0.385812
F172	F	1.538288	-0.404934	0.885812
F173	F	1.038223	-0.769874	0.385782
F174	F	1.538223	-0.269874	0.885782
F175	F	1.129738	-0.553366	0.366675
F176	F	1.629738	-0.053366	0.866675
H177	H	0.594015	0.025731	0.630615
H178	H	1.094015	0.525731	1.130615
F179	F	1.246915	-0.871323	0.584896
F180	F	1.746915	-0.371323	1.084896
H181	H	1.050751	-0.206321	1.113294
H182	H	1.550751	0.293679	1.613294
F183	F	1.155317	-0.684206	0.603900
F184	F	1.655317	-0.184206	1.103900
H185	H	1.234307	-0.031670	0.857893
H186	H	1.734307	0.468330	1.357893
F187	F	1.155495	-0.000365	1.055216
F188	F	1.655495	0.499635	1.555216
H189	H	0.567833	-0.243677	0.360319
H190	H	1.067833	0.256323	0.860319
F191	F	0.681314	-0.275514	0.328352
F192	F	1.181314	0.224486	0.828352
F193	F	1.038098	-0.501328	0.385719
F194	F	1.538098	-0.001328	0.885719
F195	F	1.246960	-0.019676	0.733040
F196	F	1.746960	0.480324	1.233040
F197	F	0.728152	0.017210	0.622046
F198	F	1.228152	0.517210	1.122046
H199	H	1.050741	-0.206415	0.828366
H200	H	1.550741	0.293585	1.328366
H201	H	1.050666	-0.372410	0.397743
H202	H	1.550666	0.127590	0.897743
H203	H	1.234091	-0.461570	0.572738
H204	H	1.734091	0.038430	1.072738
H205	H	1.153709	-0.557579	0.589504
H206	H	1.653709	-0.057579	1.089504
F207	F	0.851893	-0.083004	0.521479
F208	F	1.351893	0.416996	1.021479
F209	F	1.246976	-0.019490	1.271749
F210	F	1.746976	0.480510	1.771749
F211	F	1.246869	-0.736260	0.584855
F212	F	1.746869	-0.236260	1.084855
H213	H	1.050746	-0.206273	1.232004
H214	H	1.550746	0.293727	1.732004
F215	F	0.851749	-0.248224	0.355721
F216	F	1.351749	0.251776	0.855721
H217	H	1.131150	-0.223218	1.043111
H218	H	1.631150	0.276782	1.543111
H219	H	0.792656	-0.055051	0.549520
H220	H	1.292656	0.444949	1.049520
F221	F	1.129592	-0.237628	0.915973
F222	F	1.629592	0.262372	1.415973
