data_functionalizedCrystal
_audit_creation_method	'MofGen! by Chris Wilmer'
_symmetry_space_group_name_H-M	'P1'
_symmetry_Int_Tables_number	1
_symmetry_cell_setting	triclinic
loop_
_symmetry_equiv_pos_as_xyz
  x,y,z
_cell_length_a	18.101398
_cell_length_b	18.101395
_cell_length_c	21.395355
_cell_angle_alpha	90.015727
_cell_angle_beta	90.019889
_cell_angle_gamma	90.029256
loop_
_atom_site_label
_atom_site_type_symbol
_atom_site_fract_x
_atom_site_fract_y
_atom_site_fract_z
Zn1	Zn	1.132161	-0.294952	0.354196
Zn2	Zn	1.465495	0.038381	0.687529
Zn3	Zn	1.798828	0.371715	1.020862
Zn4	Zn	1.132045	-0.418775	0.249423
Zn5	Zn	1.465379	-0.085442	0.582757
Zn6	Zn	1.798712	0.247891	0.916090
Zn7	Zn	1.008308	-0.294948	0.249441
Zn8	Zn	1.341642	0.038385	0.582774
Zn9	Zn	1.674975	0.371719	0.916108
Zn10	Zn	1.008271	-0.418752	0.354172
Zn11	Zn	1.341604	-0.085419	0.687505
Zn12	Zn	1.674938	0.247915	1.020839
O13	O	1.070197	-0.356857	0.301808
O14	O	1.403530	-0.023524	0.635141
O15	O	1.736863	0.309810	0.968475
O16	O	1.235779	-0.311389	0.340300
O17	O	1.569112	0.021945	0.673633
O18	O	1.902446	0.355278	1.006966
O19	O	1.115598	-0.402357	0.161748
O20	O	1.448932	-0.069024	0.495081
O21	O	1.782265	0.264309	0.828414
O22	O	1.024802	-0.191316	0.263354
O23	O	1.358135	0.142018	0.596687
O24	O	1.691469	0.475351	0.930021
O25	O	1.235694	-0.402361	0.263324
O26	O	1.569027	-0.069028	0.596657
O27	O	1.902360	0.264306	0.929991
O28	O	1.115796	-0.191319	0.340317
O29	O	1.449130	0.142015	0.673650
O30	O	1.782463	0.475348	1.006984
O31	O	1.024689	-0.311382	0.161761
O32	O	1.358023	0.021951	0.495094
O33	O	1.691356	0.355285	0.828427
O34	O	0.904671	-0.311360	0.263331
O35	O	1.238004	0.021974	0.596664
O36	O	1.571337	0.355307	0.929998
O37	O	1.024738	-0.402322	0.441853
O38	O	1.358072	-0.068988	0.775186
O39	O	1.691405	0.264345	1.108520
O40	O	0.904643	-0.402318	0.340277
O41	O	1.237977	-0.068985	0.673610
O42	O	1.571310	0.264349	1.006943
O43	O	1.115760	-0.311366	0.441870
O44	O	1.449093	0.021967	0.775204
O45	O	1.782427	0.355300	1.108537
O46	O	1.115562	-0.522405	0.263301
O47	O	1.448896	-0.189072	0.596634
O48	O	1.782229	0.144262	0.929968
O49	O	1.024626	-0.522388	0.340259
O50	O	1.357959	-0.189055	0.673593
O51	O	1.691292	0.144279	1.006926
C52	C	0.877786	-0.356836	0.301804
C53	C	1.211119	-0.023503	0.635137
C54	C	1.544453	0.309830	0.968470
C55	C	0.795472	-0.356846	0.301817
C56	C	1.128805	-0.023512	0.635150
C57	C	1.462139	0.309821	0.968483
C58	C	0.644763	-0.356859	0.301816
C59	C	0.978097	-0.023526	0.635149
C60	C	1.311430	0.309807	0.968482
C61	C	0.613417	-0.414176	0.350153
C62	C	0.946751	-0.080843	0.683486
C63	C	1.280084	0.252491	1.016819
C64	C	0.527799	-0.414408	0.350009
C65	C	0.861132	-0.081075	0.683343
C66	C	1.194466	0.252259	1.016676
C67	C	0.496381	-0.356873	0.301816
C68	C	0.829714	-0.023540	0.635149
C69	C	1.163048	0.309794	0.968482
C70	C	0.527426	-0.377685	0.235705
C71	C	0.860760	-0.044351	0.569038
C72	C	1.194093	0.288982	0.902371
C73	C	0.613071	-0.378093	0.235984
C74	C	0.946404	-0.044759	0.569318
C75	C	1.279738	0.288574	0.902651
C76	C	0.613244	-0.278589	0.319012
C77	C	0.946578	0.054744	0.652346
C78	C	1.279911	0.388078	0.985679
C79	C	0.527594	-0.279018	0.320468
C80	C	0.860928	0.054315	0.653802
C81	C	1.194261	0.387648	0.987135
C82	C	0.412521	-0.356879	0.301812
C83	C	0.745855	-0.023546	0.635145
C84	C	1.079188	0.309787	0.968478
C85	C	0.728623	-0.356855	0.301815
C86	C	1.061956	-0.023521	0.635148
C87	C	1.395290	0.309812	0.968482
C88	C	1.070097	-0.549267	0.301789
C89	C	1.403431	-0.215934	0.635123
C90	C	1.736764	0.117399	0.968456
C91	C	1.070123	-0.631582	0.301803
C92	C	1.403456	-0.298248	0.635136
C93	C	1.736790	0.035085	0.968469
C94	C	1.070285	-0.930672	0.301836
C95	C	1.403619	-0.597339	0.635170
C96	C	1.736952	-0.264006	0.968503
C97	C	1.013203	-0.899367	0.350377
C98	C	1.346537	-0.566034	0.683710
C99	C	1.679870	-0.232701	1.017043
C100	C	1.012932	-0.813749	0.350225
C101	C	1.346265	-0.480416	0.683558
C102	C	1.679599	-0.147083	1.016891
C103	C	1.070205	-0.782290	0.301820
C104	C	1.403538	-0.448957	0.635153
C105	C	1.736871	-0.115623	0.968487
C106	C	1.049068	-0.813425	0.235788
C107	C	1.382401	-0.480091	0.569122
C108	C	1.715735	-0.146758	0.902455
C109	C	1.048700	-0.899070	0.236079
C110	C	1.382033	-0.565737	0.569412
C111	C	1.715367	-0.232403	0.902745
C112	C	1.148629	-0.899023	0.318746
C113	C	1.481962	-0.565689	0.652080
C114	C	1.815296	-0.232356	0.985413
C115	C	1.148168	-0.813372	0.320195
C116	C	1.481502	-0.480039	0.653528
C117	C	1.814835	-0.146705	0.986861
C118	C	1.070160	-0.698430	0.301807
C119	C	1.403494	-0.365097	0.635140
C120	C	1.736827	-0.031764	0.968474
C121	C	1.070328	-1.014532	0.301845
C122	C	1.403661	-0.681199	0.635178
C123	C	1.736995	-0.347865	0.968512
C124	C	1.263358	-0.356878	0.301813
C125	C	1.596692	-0.023545	0.635146
C126	C	1.930025	0.309789	0.968479
C127	C	1.345673	-0.356887	0.301815
C128	C	1.679006	-0.023553	0.635148
C129	C	2.012339	0.309780	0.968481
C130	C	1.070258	-0.356842	0.465231
C131	C	1.403591	-0.023509	0.798565
C132	C	1.736925	0.309825	1.131898
C133	C	1.070284	-0.356835	0.534873
C134	C	1.403618	-0.023502	0.868206
C135	C	1.736951	0.309831	1.201539
C136	C	1.070316	-0.163695	0.301840
C137	C	1.403650	0.169638	0.635173
C138	C	1.736983	0.502972	0.968507
C139	C	1.070367	-0.081381	0.301854
C140	C	1.403701	0.251953	0.635187
C141	C	1.737034	0.585286	0.968520
C142	C	1.070178	-0.356818	0.139020
C143	C	1.403511	-0.023485	0.472354
C144	C	1.736845	0.309848	0.805687
C145	C	1.070295	-0.356616	0.069379
C146	C	1.403629	-0.023283	0.402713
C147	C	1.736962	0.310051	0.736046
C148	C	1.117677	-0.309473	0.567596
C149	C	1.451011	0.023860	0.900929
C150	C	1.784344	0.357194	1.234262
C151	C	1.117676	-0.309441	0.633031
C152	C	1.451010	0.023892	0.966364
C153	C	1.784343	0.357226	1.299698
C154	C	1.070290	-0.356785	0.665741
C155	C	1.403623	-0.023452	0.999074
C156	C	1.736957	0.309882	1.332408
C157	C	1.022888	-0.404151	0.633010
C158	C	1.356221	-0.070818	0.966343
C159	C	1.689555	0.262516	1.299676
C160	C	1.022885	-0.404176	0.567576
C161	C	1.356218	-0.070843	0.900909
C162	C	1.689552	0.262491	1.234242
C163	C	1.064408	-0.423466	0.769410
C164	C	1.397741	-0.090133	1.102743
C165	C	1.731075	0.243200	1.436076
C166	C	1.064416	-0.423442	0.834843
C167	C	1.397750	-0.090109	1.168176
C168	C	1.731083	0.243224	1.501509
C169	C	1.070295	-0.356707	0.867562
C170	C	1.403628	-0.023373	1.200895
C171	C	1.736961	0.309960	1.534228
C172	C	1.076180	-0.289993	0.834840
C173	C	1.409514	0.043340	1.168173
C174	C	1.742847	0.376673	1.501507
C175	C	1.076178	-0.290018	0.769406
C176	C	1.409511	0.043315	1.102739
C177	C	1.742844	0.376648	1.436072
C178	C	1.070288	-0.356763	0.736693
C179	C	1.403621	-0.023429	1.070027
C180	C	1.736954	0.309904	1.403360
C181	C	1.117689	-0.309306	0.971238
C182	C	1.451022	0.024028	1.304571
C183	C	1.784356	0.357361	1.637904
C184	C	1.117683	-0.309273	1.036674
C185	C	1.451016	0.024061	1.370007
C186	C	1.784349	0.357394	1.703341
C187	C	1.022898	-0.403989	1.036652
C188	C	1.356232	-0.070656	1.369985
C189	C	1.689565	0.262678	1.703318
C190	C	1.022901	-0.404015	0.971216
C191	C	1.356234	-0.070682	1.304550
C192	C	1.689567	0.262651	1.637883
C193	C	1.070300	-0.356675	0.938513
C194	C	1.403633	-0.023342	1.271846
C195	C	1.736967	0.309992	1.605180
H196	H	0.507307	-0.263318	0.369122
H197	H	0.840641	0.070015	0.702456
H198	H	1.173974	0.403348	1.035789
Cl199	Cl	0.494572	-0.209602	0.270124
Cl200	Cl	0.827906	0.123731	0.603457
Cl201	Cl	1.161239	0.457064	0.936791
H202	H	0.991431	-0.919108	0.221754
H203	H	1.324764	-0.585774	0.555087
H204	H	1.658098	-0.252441	0.888420
H205	H	1.026157	-0.792697	0.399187
H206	H	1.359490	-0.459364	0.732520
H207	H	1.692824	-0.126031	1.065854
H208	H	1.191157	-0.919265	0.283393
H209	H	1.524491	-0.585932	0.616726
H210	H	1.857824	-0.252599	0.950059
Cl211	Cl	0.646592	-0.503215	0.332756
Cl212	Cl	0.979925	-0.169881	0.666089
Cl213	Cl	1.313258	0.163452	0.999423
H214	H	1.164108	-0.793021	0.368790
H215	H	1.497441	-0.459688	0.702124
H216	H	1.830774	-0.126354	1.035457
H217	H	0.506810	-0.401427	0.399021
H218	H	0.840143	-0.068094	0.732355
H219	H	1.173476	0.265240	1.065688
H220	H	0.633517	-0.235889	0.283809
H221	H	0.966851	0.097444	0.617143
H222	H	1.300184	0.430778	0.950476
H223	H	0.634876	-0.259572	0.366408
H224	H	0.968209	0.073761	0.699741
H225	H	1.301542	0.407095	1.033074
Cl226	Cl	1.178379	-0.932307	0.391820
Cl227	Cl	1.511713	-0.598974	0.725154
Cl228	Cl	1.845046	-0.265641	1.058487
Cl229	Cl	1.033413	-0.931113	0.426218
Cl230	Cl	1.366747	-0.597779	0.759551
Cl231	Cl	1.700080	-0.264446	1.092884
H232	H	1.089336	-0.793047	0.198636
H233	H	1.422669	-0.459714	0.531969
H234	H	1.756002	-0.126380	0.865303
Cl235	Cl	0.924094	-0.932704	0.333315
Cl236	Cl	1.257428	-0.599370	0.666648
Cl237	Cl	1.590761	-0.266037	0.999982
H238	H	0.505945	-0.434265	0.220923
H239	H	0.839278	-0.100932	0.554256
H240	H	1.172612	0.232402	0.887590
H241	H	0.954862	-0.793322	0.339024
H242	H	1.288195	-0.459988	0.672357
H243	H	1.621529	-0.126655	1.005691
Cl244	Cl	0.496107	-0.503965	0.332412
Cl245	Cl	0.829440	-0.170631	0.665745
Cl246	Cl	1.162774	0.162702	0.999079
H247	H	1.088472	-0.919780	0.198680
H248	H	1.421805	-0.586446	0.532013
H249	H	1.755139	-0.253113	0.865346
Cl250	Cl	0.961583	-0.780407	0.213274
Cl251	Cl	1.294917	-0.447073	0.546607
Cl252	Cl	1.628250	-0.113740	0.879940
Cl253	Cl	1.217309	-0.780299	0.269592
Cl254	Cl	1.550642	-0.446965	0.602926
Cl255	Cl	1.883976	-0.113632	0.936259
Cl256	Cl	1.177246	-0.249880	0.674178
Cl257	Cl	1.510579	0.083453	1.007511
Cl258	Cl	1.843912	0.416787	1.340844
H259	H	0.633806	-0.338129	0.198734
H260	H	0.967140	-0.004796	0.532067
H261	H	1.300473	0.328538	0.865401
H262	H	0.507075	-0.337217	0.198701
H263	H	0.840409	-0.003884	0.532034
H264	H	1.173742	0.329450	0.865367
Cl265	Cl	1.177260	-0.249955	0.526487
Cl266	Cl	1.510594	0.083379	0.859820
Cl267	Cl	1.843927	0.416712	1.193153
Cl268	Cl	1.083571	-0.206154	0.728272
Cl269	Cl	1.416904	0.127179	1.061605
Cl270	Cl	1.750238	0.460513	1.394938
H271	H	1.080968	-0.235651	0.861478
H272	H	1.414302	0.097682	1.194812
H273	H	1.747635	0.431016	1.528145
H274	H	1.156280	-0.270754	0.944609
H275	H	1.489614	0.062579	1.277943
H276	H	1.822947	0.395913	1.611276
H277	H	1.156275	-0.270700	1.063316
H278	H	1.489608	0.062633	1.396650
H279	H	1.822941	0.395967	1.729983
Cl280	Cl	1.057040	-0.507373	0.728284
Cl281	Cl	1.390373	-0.174039	1.061617
Cl282	Cl	1.723706	0.159294	1.394950
Cl283	Cl	0.645285	-0.394389	0.426058
Cl284	Cl	0.978619	-0.061056	0.759392
Cl285	Cl	1.311952	0.272278	1.092725
Cl286	Cl	0.963320	-0.463501	1.077766
Cl287	Cl	1.296653	-0.130168	1.411100
Cl288	Cl	1.629986	0.203166	1.744433
H289	H	0.633012	-0.435297	0.221450
H290	H	0.966345	-0.101963	0.554783
H291	H	1.299678	0.231370	0.888116
H292	H	0.984313	-0.442588	0.944573
H293	H	1.317646	-0.109254	1.277906
H294	H	1.650979	0.224079	1.611239
Cl295	Cl	0.963314	-0.463666	0.674130
Cl296	Cl	1.296647	-0.130333	1.007463
Cl297	Cl	1.629980	0.203001	1.340796
H298	H	1.059628	-0.477764	0.861480
H299	H	1.392961	-0.144431	1.194813
H300	H	1.726295	0.188902	1.528146
Cl301	Cl	0.963301	-0.463723	0.526436
Cl302	Cl	1.296634	-0.130390	0.859769
Cl303	Cl	1.629967	0.202943	1.193102
