data_functionalizedCrystal
_audit_creation_method	'MofGen! by Chris Wilmer'
_symmetry_space_group_name_H-M	'P1'
_symmetry_Int_Tables_number	1
_symmetry_cell_setting	triclinic
loop_
_symmetry_equiv_pos_as_xyz
  x,y,z
_cell_length_a	19.121102
_cell_length_b	21.295417
_cell_length_c	19.121277
_cell_angle_alpha	87.575578
_cell_angle_beta	89.900604
_cell_angle_gamma	87.583861
loop_
_atom_site_label
_atom_site_type_symbol
_atom_site_fract_x
_atom_site_fract_y
_atom_site_fract_z
Zn1	Zn	1.054737	-0.308022	0.442034
Zn2	Zn	1.059669	-0.408970	0.324791
Zn3	Zn	0.942529	-0.299041	0.319820
Zn4	Zn	0.937460	-0.408572	0.436992
O5	O	0.998599	-0.356151	0.380909
O6	O	1.153496	-0.325338	0.430672
O7	O	1.048316	-0.390795	0.226028
O8	O	0.957471	-0.212146	0.336062
O9	O	1.157119	-0.399504	0.344534
O10	O	1.039910	-0.218745	0.425852
O11	O	0.962254	-0.310031	0.222376
O12	O	0.843753	-0.309645	0.331173
O13	O	0.948831	-0.398826	0.535765
O14	O	0.840028	-0.390117	0.417259
O15	O	1.034994	-0.324953	0.539469
O16	O	1.043401	-0.497003	0.339645
O17	O	0.953614	-0.496711	0.422079
C18	C	0.816453	-0.348864	0.373129
C19	C	0.738530	-0.345762	0.369818
C20	C	0.998511	-0.519698	0.380870
C21	C	0.998537	-0.589667	0.380879
C22	C	0.700003	-0.386261	0.413012
C23	C	0.626786	-0.383338	0.409904
C24	C	0.592096	-0.339920	0.363597
C25	C	0.630627	-0.299417	0.320401
C26	C	0.703844	-0.302337	0.323514
C27	C	0.371127	-0.329002	0.351965
C28	C	0.297905	-0.326086	0.348854
C29	C	0.294068	-0.410007	0.438358
C30	C	0.367286	-0.412926	0.441463
C31	C	0.405811	-0.372421	0.398270
C32	C	0.517256	-0.336933	0.360418
C33	C	0.480650	-0.375405	0.401454
C34	C	1.041435	-0.625913	0.427664
C35	C	1.041459	-0.691657	0.427682
C36	C	0.998593	-0.721153	0.380904
C37	C	0.955685	-0.684899	0.334116
C38	C	0.955657	-0.619156	0.334103
N39	N	0.995929	-0.821943	0.319325
N40	N	0.995960	-0.884396	0.319339
C41	C	0.998673	-0.919232	0.380939
N42	N	1.001368	-0.889256	0.442527
N43	N	1.001341	-0.826797	0.442512
C44	C	0.998618	-0.792440	0.380912
C45	C	1.041600	-1.026765	0.427748
C46	C	1.041619	-1.092510	0.427767
C47	C	0.955849	-1.085751	0.334194
C48	C	0.955826	-1.020007	0.334181
C49	C	0.998705	-0.990518	0.380957
C50	C	1.181456	-0.363467	0.388720
C51	C	1.259379	-0.366585	0.392048
C52	C	0.990797	-0.362847	0.563765
C53	C	0.987473	-0.365700	0.641688
C54	C	0.998706	-0.191967	0.380965
C55	C	0.998751	-0.122002	0.380989
C56	C	1.030769	-0.328581	0.680226
C57	C	1.027636	-0.331259	0.753442
C58	C	0.981211	-0.371061	0.788119
C59	C	0.937910	-0.408182	0.749576
C60	C	0.941039	-0.405500	0.676361
C61	C	0.969515	-0.381080	1.009083
C62	C	0.966390	-0.383760	1.082304
C63	C	1.056116	-0.306836	1.086165
C64	C	1.059244	-0.304161	1.012948
C65	C	1.015941	-0.341279	0.974412
C66	C	0.978009	-0.373801	0.862957
C67	C	1.019139	-0.338535	0.899574
C68	C	1.006364	-0.349495	1.198764
C69	C	1.009686	-0.346641	1.120841
H70	H	0.728242	-0.421619	0.450717
H71	H	0.920941	-1.109766	0.296110
H72	H	0.395526	-0.448283	0.479169
F73	F	1.087123	-0.730240	0.477476
F74	F	0.412118	-0.285891	0.305996
H75	H	0.920781	-0.708919	0.296030
F76	F	0.585786	-0.426443	0.455877
F77	F	0.593706	-0.253204	0.271123
H78	H	0.735211	-0.269356	0.288344
H79	H	0.920723	-0.589644	0.296005
F80	F	0.517571	-0.421612	0.450735
F81	F	0.910167	-0.981430	0.284385
F82	F	0.923427	-0.420585	0.968079
H83	H	0.940213	-0.406210	0.891200
H84	H	0.262694	-0.442983	0.473524
H85	H	0.489003	-0.301583	0.322713
F86	F	1.087068	-0.594532	0.477451
F87	F	1.102197	-0.267333	1.127183
F88	F	0.916973	-0.426122	1.119208
H89	H	1.076513	-1.002754	0.465838
F90	F	0.260988	-0.279876	0.299562
H91	H	1.068575	-0.296172	0.651997
H92	H	0.900107	-0.440587	0.777815
F93	F	1.087273	-1.131086	0.477571
H94	H	1.062894	-0.301034	0.784816
F95	F	1.108657	-0.261798	0.976048
F96	F	0.894956	-0.445006	0.635346
H97	H	1.056935	-0.306126	0.871337
