data_functionalizedCrystal
_audit_creation_method	'MofGen! by Chris Wilmer'
_symmetry_space_group_name_H-M	'P1'
_symmetry_Int_Tables_number	1
_symmetry_cell_setting	triclinic
loop_
_symmetry_equiv_pos_as_xyz
  x,y,z
_cell_length_a	15.944493
_cell_length_b	19.188924
_cell_length_c	14.421503
_cell_angle_alpha	90.002214
_cell_angle_beta	89.992936
_cell_angle_gamma	83.308504
loop_
_atom_site_label
_atom_site_type_symbol
_atom_site_fract_x
_atom_site_fract_y
_atom_site_fract_z
O1	O	1.114221	0.089846	-0.077104
O2	O	1.447554	0.423179	0.256230
O3	O	1.780887	0.756512	0.589563
O4	O	0.869622	0.100990	-0.077109
O5	O	1.202956	0.434323	0.256225
O6	O	1.536289	0.767657	0.589558
O7	O	0.998983	-0.006221	-0.077095
O8	O	1.332317	0.327112	0.256238
O9	O	1.665650	0.660446	0.589572
O10	O	0.984860	0.197057	-0.077117
O11	O	1.318193	0.530390	0.256216
O12	O	1.651527	0.863724	0.589549
O13	O	0.998962	-0.006205	0.077128
O14	O	1.332295	0.327128	0.410462
O15	O	1.665628	0.660462	0.743795
O16	O	0.869601	0.101006	0.077115
O17	O	1.202934	0.434339	0.410448
O18	O	1.536268	0.767673	0.743781
O19	O	1.114199	0.089862	0.077120
O20	O	1.447533	0.423195	0.410453
O21	O	1.780866	0.756528	0.743786
Cu22	Cu	0.991898	0.095435	0.091199
Cu23	Cu	1.325232	0.428769	0.424532
Cu24	Cu	1.658565	0.762102	0.757866
Cu25	Cu	0.991924	0.095416	-0.091188
Cu26	Cu	1.325257	0.428750	0.242145
Cu27	Cu	1.658590	0.762083	0.575479
O28	O	0.984839	0.197073	0.077106
O29	O	1.318172	0.530406	0.410439
O30	O	1.651505	0.863740	0.743773
C31	C	0.838319	0.100543	0.000002
C32	C	1.171652	0.433876	0.333336
C33	C	1.504985	0.767209	0.666669
C34	C	0.745075	0.099177	0.000001
C35	C	1.078409	0.432510	0.333334
C36	C	1.411742	0.765844	0.666668
C37	C	0.509077	0.162284	-0.000007
C38	C	0.842411	0.495617	0.333327
C39	C	1.175744	0.828951	0.666660
C40	C	0.458637	0.128261	0.076041
C41	C	0.791970	0.461594	0.409375
C42	C	1.125303	0.794927	0.742708
C43	C	0.574364	0.096647	0.000003
C44	C	0.907697	0.429980	0.333336
C45	C	1.241030	0.763313	0.666670
C46	C	0.458662	0.128229	-0.076011
C47	C	0.791996	0.461563	0.257322
C48	C	1.125329	0.794896	0.590656
C49	C	0.409463	0.094207	0.000001
C50	C	0.742797	0.427541	0.333334
C51	C	1.076130	0.760874	0.666668
C52	C	0.525151	0.062641	0.076114
C53	C	0.858485	0.395975	0.409447
C54	C	1.191818	0.729308	0.742780
C55	C	0.525180	0.062620	-0.076007
C56	C	0.858514	0.395953	0.257326
C57	C	1.191847	0.729286	0.590660
C58	C	0.474773	0.028548	0.000060
C59	C	0.808106	0.361882	0.333393
C60	C	1.141439	0.695215	0.666726
C61	C	0.669358	0.098054	0.000005
C62	C	1.002692	0.431387	0.333338
C63	C	1.336025	0.764720	0.666672
C64	C	0.314472	0.092795	0.000006
C65	C	0.647805	0.426129	0.333339
C66	C	0.981138	0.759462	0.666672
C67	C	0.998516	-0.032225	0.000017
C68	C	1.331849	0.301108	0.333351
C69	C	1.665183	0.634441	0.666684
C70	C	0.997146	-0.109733	0.000020
C71	C	1.330479	0.223600	0.333353
C72	C	1.663813	0.556933	0.666687
C73	C	0.996518	-0.146142	-0.084048
C74	C	1.329852	0.187191	0.249286
C75	C	1.663185	0.520524	0.582619
C76	C	0.995219	-0.218968	-0.084055
C77	C	1.328552	0.114365	0.249279
C78	C	1.661886	0.447698	0.582612
C79	C	0.994565	-0.255384	0.000011
C80	C	1.327898	0.077949	0.333344
C81	C	1.661231	0.411283	0.666677
C82	C	0.995188	-0.218966	0.084089
C83	C	1.328521	0.114368	0.417422
C84	C	1.661854	0.447701	0.750756
C85	C	0.996478	-0.146140	0.084094
C86	C	1.329812	0.187193	0.417427
C87	C	1.663145	0.520526	0.750760
N88	N	1.040330	-0.374930	0.062579
N89	N	1.373663	-0.041597	0.395913
N90	N	1.706997	0.291736	0.729246
N91	N	1.039106	-0.444112	0.062569
N92	N	1.372439	-0.110778	0.395902
N93	N	1.705772	0.222555	0.729236
C94	C	0.990674	-0.474803	0.000002
C95	C	1.324007	-0.141469	0.333335
C96	C	1.657340	0.191864	0.666668
N97	N	0.943523	-0.433700	-0.062570
N98	N	1.276856	-0.100367	0.270764
N99	N	1.610190	0.232967	0.604097
N100	N	0.944751	-0.364513	-0.062562
N101	N	1.278085	-0.031179	0.270771
N102	N	1.611418	0.302154	0.604105
C103	C	0.993164	-0.334351	0.000015
C104	C	1.326498	-0.001018	0.333348
C105	C	1.659831	0.332316	0.666681
C106	C	0.988636	-0.590178	-0.084079
C107	C	1.321969	-0.256844	0.249254
C108	C	1.655303	0.076489	0.582587
C109	C	0.987332	-0.663004	-0.084083
C110	C	1.320665	-0.329671	0.249250
C111	C	1.653998	0.003662	0.582584
C112	C	0.987309	-0.663001	0.084063
C113	C	1.320642	-0.329668	0.417396
C114	C	1.653975	0.003666	0.750730
C115	C	0.988605	-0.590175	0.084064
C116	C	1.321938	-0.256842	0.417398
C117	C	1.655271	0.076492	0.750731
C118	C	0.989272	-0.553768	-0.000010
C119	C	1.322606	-0.220435	0.333324
C120	C	1.655939	0.112899	0.666657
C121	C	1.145503	0.090309	0.000007
C122	C	1.478836	0.423643	0.333340
C123	C	1.812170	0.756976	0.666673
C124	C	1.238747	0.091675	0.000002
C125	C	1.572080	0.425008	0.333335
C126	C	1.905413	0.758342	0.666669
C127	C	0.985306	0.223077	-0.000008
C128	C	1.318639	0.556410	0.333325
C129	C	1.651972	0.889744	0.666658
C130	C	0.986676	0.300585	-0.000017
C131	C	1.320009	0.633918	0.333316
C132	C	1.653342	0.967252	0.666650
N133	N	0.991887	0.095448	0.219480
N134	N	1.325220	0.428782	0.552814
N135	N	1.658553	0.762115	0.886147
N136	N	0.991942	0.095398	-0.219469
N137	N	1.325275	0.428731	0.113864
N138	N	1.658609	0.762065	0.447197
C139	C	0.932060	0.145000	0.469128
C140	C	1.265393	0.478334	0.802461
C141	C	1.598726	0.811667	1.135794
C142	C	1.007911	0.158542	0.530930
C143	C	1.341244	0.491876	0.864264
C144	C	1.674577	0.825209	1.197597
C145	C	0.991907	0.095432	0.408642
C146	C	1.325240	0.428765	0.741975
C147	C	1.658574	0.762098	1.075308
C148	C	0.916076	0.081906	0.530933
C149	C	1.249409	0.415239	0.864266
C150	C	1.582742	0.748573	1.197600
C151	C	0.991920	0.095417	0.591363
C152	C	1.325253	0.428750	0.924696
C153	C	1.658587	0.762084	1.258030
C154	C	1.067796	0.109005	0.469083
C155	C	1.401130	0.442338	0.802417
C156	C	1.734463	0.775671	1.135750
C157	C	0.975911	0.032341	0.469081
C158	C	1.309245	0.365674	0.802414
C159	C	1.642578	0.699008	1.135748
C160	C	1.051817	0.045856	0.530856
C161	C	1.385151	0.379190	0.864189
C162	C	1.718484	0.712523	1.197522
C163	C	0.991898	0.095442	0.303381
C164	C	1.325232	0.428775	0.636714
C165	C	1.658565	0.762108	0.970047
C166	C	0.991937	0.095406	0.696622
C167	C	1.325271	0.428740	1.029955
C168	C	1.658604	0.762073	1.363289
H169	H	0.429586	0.155987	0.140327
H170	H	0.762919	0.489320	0.473660
H171	H	1.096252	0.822654	0.806994
N172	N	1.118928	-0.009682	0.566546
N173	N	1.452261	0.323651	0.899880
N174	N	1.785594	0.656985	1.233213
H175	H	1.149593	-0.034511	0.512459
H176	H	1.482927	0.298822	0.845792
H177	H	1.816260	0.632155	1.179126
H178	H	1.160423	0.013098	0.605999
H179	H	1.493756	0.346431	0.939332
H180	H	1.827090	0.679765	1.272666
H181	H	0.459520	-0.028034	0.000110
H182	H	0.792854	0.305299	0.333443
H183	H	1.126187	0.638633	0.666776
N184	N	0.986675	-0.702298	-0.174747
N185	N	1.320009	-0.368965	0.158587
N186	N	1.653342	-0.035631	0.491920
H187	H	1.038204	-0.738179	-0.178452
H188	H	1.371537	-0.404846	0.154881
H189	H	1.704871	-0.071512	0.488215
H190	H	0.934052	-0.726807	-0.178446
H191	H	1.267385	-0.393474	0.154887
H192	H	1.600719	-0.060141	0.488221
H193	H	0.554075	0.034945	0.140470
H194	H	0.887408	0.368278	0.473803
H195	H	1.220741	0.701612	0.807137
H196	H	0.554240	0.034914	-0.140296
H197	H	0.887573	0.368248	0.193038
H198	H	1.220906	0.701581	0.526371
H199	H	0.986769	-0.692649	0.152511
H200	H	1.320103	-0.359316	0.485844
H201	H	1.653436	-0.025983	0.819177
H202	H	0.851941	0.070473	0.558103
H203	H	1.185274	0.403806	0.891437
H204	H	1.518607	0.737139	1.224770
N205	N	0.529494	0.237174	0.000069
N206	N	0.862827	0.570508	0.333402
N207	N	1.196161	0.903841	0.666735
H208	H	0.505148	0.261893	0.057561
H209	H	0.838482	0.595227	0.390894
H210	H	1.171815	0.928560	0.724227
H211	H	0.592782	0.237532	-0.000560
H212	H	0.926115	0.570865	0.332773
H213	H	1.259449	0.904199	0.666107
N214	N	0.420108	0.164973	-0.161102
N215	N	0.753441	0.498307	0.172232
N216	N	1.086774	0.831640	0.505565
H217	H	0.432259	0.215467	-0.161015
H218	H	0.765592	0.548800	0.172318
H219	H	1.098925	0.882134	0.505651
H220	H	0.445199	0.140687	-0.218548
H221	H	0.778532	0.474021	0.114785
H222	H	1.111866	0.807354	0.448119
N223	N	1.025841	0.229206	0.566924
N224	N	1.359174	0.562539	0.900257
N225	N	1.692508	0.895873	1.233590
H226	H	1.026257	0.228534	0.636951
H227	H	1.359591	0.561867	0.970284
H228	H	1.692924	0.895201	1.303618
H229	H	1.082672	0.239766	0.543393
H230	H	1.416005	0.573099	0.876726
H231	H	1.749338	0.906432	1.210060
H232	H	0.997060	-0.116504	-0.152507
H233	H	1.330393	0.216829	0.180826
H234	H	1.663726	0.550163	0.514160
N235	N	0.994536	-0.258250	-0.174730
N236	N	1.327869	0.075084	0.158603
N237	N	1.661203	0.408417	0.491936
H238	H	0.995152	-0.224135	-0.227989
H239	H	1.328485	0.109199	0.105345
H240	H	1.661819	0.442532	0.438678
H241	H	1.046062	-0.294134	-0.178387
H242	H	1.379395	0.039200	0.154946
H243	H	1.712728	0.372533	0.488280
H244	H	0.996986	-0.116496	0.152554
H245	H	1.330319	0.216837	0.485887
H246	H	1.663653	0.550171	0.819220
N247	N	0.994487	-0.258238	0.174761
N248	N	1.327820	0.075095	0.508094
N249	N	1.661154	0.408429	0.841427
H250	H	0.993580	-0.309899	0.162002
H251	H	1.326913	0.023435	0.495335
H252	H	1.660246	0.356768	0.828669
H253	H	1.046770	-0.251171	0.211469
H254	H	1.380103	0.082162	0.544803
H255	H	1.713436	0.415495	0.878136
N256	N	0.865087	0.200560	0.433207
N257	N	1.198421	0.533894	0.766540
N258	N	1.531754	0.867227	1.099874
H259	H	0.807908	0.190836	0.456673
H260	H	1.141242	0.524170	0.790007
H261	H	1.474575	0.857503	1.123340
H262	H	0.877360	0.248173	0.455711
H263	H	1.210694	0.581507	0.789044
H264	H	1.544027	0.914840	1.122378
H265	H	0.989175	-0.560533	-0.152537
H266	H	1.322508	-0.227200	0.180796
H267	H	1.655842	0.106134	0.514129
H268	H	0.989123	-0.560531	0.152521
H269	H	1.322456	-0.227198	0.485855
H270	H	1.655789	0.106136	0.819188
N271	N	1.152772	0.124231	0.433259
N272	N	1.486106	0.457564	0.766593
N273	N	1.819439	0.790898	1.099926
H274	H	1.152236	0.124163	0.363228
H275	H	1.485569	0.457496	0.696561
H276	H	1.818902	0.790829	1.029895
H277	H	1.164949	0.171709	0.456371
H278	H	1.498282	0.505042	0.789704
H279	H	1.831616	0.838375	1.123038
H280	H	0.962346	-0.020990	0.441893
H281	H	1.295679	0.312344	0.775226
H282	H	1.629012	0.645677	1.108559
