data_functionalizedCrystal
_audit_creation_method	'MofGen! by Chris Wilmer'
_symmetry_space_group_name_H-M	'P1'
_symmetry_Int_Tables_number	1
_symmetry_cell_setting	triclinic
loop_
_symmetry_equiv_pos_as_xyz
  x,y,z
_cell_length_a	18.050589
_cell_length_b	13.897449
_cell_length_c	13.897441
_cell_angle_alpha	89.979267
_cell_angle_beta	89.972127
_cell_angle_gamma	90.029500
loop_
_atom_site_label
_atom_site_type_symbol
_atom_site_fract_x
_atom_site_fract_y
_atom_site_fract_z
Zn1	Zn	-0.295610	1.474632	-0.545399
Zn2	Zn	-0.419815	1.474496	-0.384108
Zn3	Zn	-0.295646	1.313321	-0.384118
Zn4	Zn	-0.419766	1.313273	-0.545361
O5	O	-0.357709	1.393931	-0.464747
O6	O	-0.312092	1.609596	-0.524016
O7	O	-0.403379	1.453079	-0.249128
O8	O	-0.191716	1.334796	-0.405532
O9	O	-0.403344	1.609496	-0.405516
O10	O	-0.191690	1.453311	-0.524025
O11	O	-0.312152	1.334665	-0.249135
O12	O	-0.312105	1.178333	-0.405495
O13	O	-0.403261	1.334715	-0.680348
O14	O	-0.403295	1.178298	-0.523960
O15	O	-0.312045	1.453264	-0.680376
O16	O	-0.523733	1.453033	-0.405479
O17	O	-0.523697	1.334583	-0.523951
C18	C	-0.357699	1.143316	-0.464725
C19	C	-0.357713	1.036102	-0.464738
C20	C	-0.357716	0.839807	-0.464763
C21	C	-0.357712	0.949040	-0.464747
C22	C	-0.550661	1.393814	-0.464731
C23	C	-0.633207	1.393853	-0.464756
C24	C	-0.832665	1.329503	-0.529158
C25	C	-0.882111	1.305986	-0.441140
C26	C	-0.784337	1.393947	-0.464769
C27	C	-0.881973	1.417512	-0.552797
C28	C	-0.930323	1.394037	-0.464789
C29	C	-0.832696	1.370384	-0.376703
C30	C	-0.832554	1.481951	-0.488420
C31	C	-0.881977	1.458467	-0.400341
C32	C	-0.700239	1.393893	-0.464758
C33	C	-1.014419	1.394092	-0.464789
C34	C	-0.164004	1.394074	-0.464784
C35	C	-0.081458	1.394135	-0.464800
C36	C	-0.357644	1.393999	-0.716340
C37	C	-0.357616	1.394028	-0.823554
C38	C	-0.357720	1.645524	-0.464769
C39	C	-0.357724	1.752738	-0.464779
C40	C	-0.357565	1.394055	-1.019849
C41	C	-0.357595	1.394037	-0.910616
C42	C	-0.357721	1.393918	-0.214132
C43	C	-0.357540	1.394076	-0.106919
H44	H	-0.811012	1.274924	-0.583534
F45	F	-0.804081	1.579149	-0.514599
H46	H	-0.903493	1.513005	-0.345834
H47	H	-0.903895	1.231606	-0.421153
H48	H	-0.811140	1.350403	-0.302246
F49	F	-0.910269	1.443515	-0.650090
