data_functionalizedCrystal
_audit_creation_method	'MofGen! by Chris Wilmer'
_symmetry_space_group_name_H-M	'P1'
_symmetry_Int_Tables_number	1
_symmetry_cell_setting	triclinic
loop_
_symmetry_equiv_pos_as_xyz
  x,y,z
_cell_length_a	14.908571
_cell_length_b	14.908520
_cell_length_c	14.908308
_cell_angle_alpha	96.360765
_cell_angle_beta	89.824947
_cell_angle_gamma	89.794039
loop_
_atom_site_label
_atom_site_type_symbol
_atom_site_fract_x
_atom_site_fract_y
_atom_site_fract_z
Zn1	Zn	1.316651	0.470613	0.613065
Zn2	Zn	1.816651	0.970613	1.113065
Zn3	Zn	1.316549	0.613252	0.470429
Zn4	Zn	1.816549	1.113252	0.970429
Zn5	Zn	1.176020	0.453291	0.453125
Zn6	Zn	1.676020	0.953291	0.953125
Zn7	Zn	1.157642	0.612180	0.612023
Zn8	Zn	1.657642	1.112180	1.112023
O9	O	1.241715	0.537334	0.537161
O10	O	1.741715	1.037334	1.037161
O11	O	1.441995	0.497231	0.601822
O12	O	1.941995	0.997231	1.101822
O13	O	1.305556	0.585232	0.341941
O14	O	1.805556	1.085232	0.841941
O15	O	1.202409	0.329399	0.467536
O16	O	1.702409	0.829399	0.967536
O17	O	1.441920	0.602028	0.497029
O18	O	1.941920	1.102028	0.997029
O19	O	1.305730	0.342124	0.585043
O20	O	1.805730	0.842124	1.085043
O21	O	1.202310	0.467710	0.329228
O22	O	1.702310	0.967710	0.829228
O23	O	1.048225	0.466671	0.466525
O24	O	1.548225	0.966671	0.966525
O25	O	1.171086	0.600202	0.738354
O26	O	1.671086	1.100202	1.238354
O27	O	1.034722	0.583406	0.583267
O28	O	1.534722	1.083406	1.083267
O29	O	1.287909	0.496192	0.739120
O30	O	1.787909	0.996192	1.239120
O31	O	1.287736	0.739300	0.496018
O32	O	1.787736	1.239300	0.996018
O33	O	1.170987	0.738513	0.600046
O34	O	1.670987	1.238513	1.100046
C35	C	1.008970	0.523043	0.522906
C36	C	1.508970	1.023043	1.022906
C37	C	0.909397	0.516953	0.516830
C38	C	1.409397	1.016953	1.016830
C39	C	1.227379	0.771629	0.549818
C40	C	1.727379	1.271629	1.049818
C41	C	1.221326	0.871868	0.555268
C42	C	1.721326	1.371868	1.055268
C43	C	0.708277	0.627234	0.626831
C44	C	1.208277	1.127234	1.126831
C45	C	0.614720	0.621514	0.621125
C46	C	1.114720	1.121514	1.121125
C47	C	0.628723	0.499789	0.499719
C48	C	1.128723	0.999789	0.999719
C49	C	0.722281	0.505509	0.505424
C50	C	1.222281	1.005509	1.005424
C51	C	0.762054	0.569235	0.568981
C52	C	1.262054	1.069235	1.068981
C53	C	0.855613	0.574958	0.574682
C54	C	1.355613	1.074958	1.074682
C55	C	0.869615	0.453230	0.453280
C56	C	1.369615	0.953230	0.953280
C57	C	0.776058	0.447510	0.447575
C58	C	1.276058	0.947510	0.947575
C59	C	1.227459	0.550010	0.772372
C60	C	1.727459	1.050010	1.272372
C61	C	1.221383	0.555411	0.872606
C62	C	1.721383	1.055411	1.372606
C63	C	1.475370	0.551681	0.551472
C64	C	1.975370	1.051681	1.051472
C65	C	1.574939	0.557795	0.557571
C66	C	2.074939	1.057795	1.057571
C67	C	1.256131	0.302127	0.524476
C68	C	1.756131	0.802127	1.024476
C69	C	1.262274	0.201896	0.519070
C70	C	1.762274	0.701896	1.019070
C71	C	1.331634	1.060998	0.457284
C72	C	1.831634	1.560998	0.957284
C73	C	1.325950	1.155181	0.462402
C74	C	1.825950	1.655181	0.962402
C75	C	1.204279	1.154420	0.570626
C76	C	1.704279	1.654420	1.070626
C77	C	1.209963	1.060237	0.565508
C78	C	1.709963	1.560237	1.065508
C79	C	1.273642	1.013529	0.508834
C80	C	1.773642	1.513529	1.008834
C81	C	1.279321	0.919343	0.503712
C82	C	1.779321	1.419343	1.003712
C83	C	1.157655	0.918584	0.611940
C84	C	1.657655	1.418584	1.111940
C85	C	1.151970	1.012768	0.617058
C86	C	1.651970	1.512768	1.117058
C87	C	1.255972	0.524646	0.302864
C88	C	1.755972	1.024646	0.802864
C89	C	1.262236	0.519001	0.202628
C90	C	1.762236	1.019001	0.702628
C91	C	1.331614	0.457236	1.061752
C92	C	1.831614	0.957236	1.561752
C93	C	1.325908	0.462308	1.155930
C94	C	1.825908	0.962308	1.655930
C95	C	1.204264	0.570623	1.155141
C96	C	1.704264	1.070623	1.655141
C97	C	1.209969	0.565551	1.060963
C98	C	1.709969	1.065551	1.560963
C99	C	1.273647	0.508856	1.014272
C100	C	1.773647	1.008856	1.514272
C101	C	1.279356	0.503789	0.920093
C102	C	1.779356	1.003789	1.420093
C103	C	1.157708	0.612099	0.919305
C104	C	1.657708	1.112099	1.419305
C105	C	1.152002	0.617171	1.013483
C106	C	1.652002	1.117171	1.513483
H107	H	0.887995	0.626848	0.626432
H108	H	1.387995	1.126848	1.126432
O109	O	1.090231	1.058253	0.672163
O110	O	1.590231	1.558253	1.172163
C111	C	1.064277	1.170332	0.798969
C112	C	1.564277	1.670332	1.298969
C113	C	1.134293	1.118903	0.736617
C114	C	1.634293	1.618903	1.236617
H115	H	1.099875	1.219365	0.851107
H116	H	1.599875	1.719365	1.351107
H117	H	1.017331	1.209445	0.757109
H118	H	1.517331	1.709445	1.257109
H119	H	1.023785	1.120204	0.834888
H120	H	1.523785	1.620204	1.334888
H121	H	1.174848	1.168969	0.700684
H122	H	1.674848	1.668969	1.200684
H123	H	1.181178	1.079776	0.778524
H124	H	1.681178	1.579776	1.278524
H125	H	1.373175	1.193828	0.420427
H126	H	1.873175	1.693828	0.920427
O127	O	0.747064	0.689111	0.688485
O128	O	1.247064	1.189111	1.188485
C129	C	0.884991	0.751835	0.751109
C130	C	1.384991	1.251835	1.251109
C131	C	0.841184	0.681731	0.681231
C132	C	1.341184	1.181731	1.181231
H133	H	0.961092	0.745880	0.745282
H134	H	1.461092	1.245880	1.245282
H135	H	0.863188	0.822564	0.737962
H136	H	1.363188	1.322564	1.237962
H137	H	0.863112	0.738917	0.821868
H138	H	1.363112	1.238917	1.321868
H139	H	0.863041	0.694565	0.610445
H140	H	1.363041	1.194565	1.110445
H141	H	0.862984	0.611026	0.694457
H142	H	1.362984	1.111026	1.194457
H143	H	0.570938	0.668742	0.668234
H144	H	1.070938	1.168742	1.168234
O145	O	0.589933	0.437940	0.438039
O146	O	1.089933	0.937940	0.938039
C147	C	0.452003	0.375081	0.375562
C148	C	0.952003	0.875081	0.875562
C149	C	0.495815	0.445199	0.445422
C150	C	0.995815	0.945199	0.945422
H151	H	0.375901	0.380913	0.381519
H152	H	0.875901	0.880913	0.881519
H153	H	0.473736	0.387964	0.304748
H154	H	0.973736	0.887964	0.804748
H155	H	0.473946	0.304406	0.388742
H156	H	0.973946	0.804406	0.888742
H157	H	0.473893	0.515902	0.432326
H158	H	0.973893	1.015902	0.932326
H159	H	0.474083	0.432237	0.516213
H160	H	0.974083	0.932237	1.016213
O161	O	1.341133	0.874058	0.448540
O162	O	1.841133	1.374058	0.948540
C163	C	1.395756	0.839625	0.296284
C164	C	1.895756	1.339625	0.796284
C165	C	1.325711	0.890971	0.358665
C166	C	1.825711	1.390971	0.858665
H167	H	1.383300	0.853266	0.223605
H168	H	1.883300	1.353266	0.723605
H169	H	1.465916	0.863373	0.317539
H170	H	1.965916	1.363373	0.817539
H171	H	1.389869	0.764163	0.301526
H172	H	1.889869	1.264163	0.801526
H173	H	1.331515	0.966442	0.353455
H174	H	1.831515	1.466442	0.853455
H175	H	1.255579	0.867149	0.337392
H176	H	1.755579	1.367149	0.837392
H177	H	1.110431	0.879924	0.653913
H178	H	1.610431	1.379924	1.153913
O179	O	0.737273	0.385686	0.385867
O180	O	1.237273	0.885686	0.885867
C181	C	0.599349	0.322881	0.323315
C182	C	1.099349	0.822881	0.823315
C183	C	0.643153	0.392953	0.393228
C184	C	1.143153	0.892953	0.893228
H185	H	0.523247	0.328720	0.329256
H186	H	1.023247	0.828720	0.829256
H187	H	0.621105	0.335807	0.252520
H188	H	1.121105	0.835807	0.752520
H189	H	0.621277	0.252189	0.336455
H190	H	1.121277	0.752189	0.836455
H191	H	0.621246	0.463673	0.380171
H192	H	1.121246	0.963673	0.880171
H193	H	0.621399	0.379948	0.463999
H194	H	1.121399	0.879948	0.963999
O195	O	1.341233	0.448641	0.874871
O196	O	1.841233	0.948641	1.374871
C197	C	1.461315	0.341778	0.885602
C198	C	1.961315	0.841778	1.385602
C199	C	1.391268	0.404183	0.936923
C200	C	1.891268	0.904183	1.436923
H201	H	1.501800	0.305831	0.935750
H202	H	2.001800	0.805831	1.435750
H203	H	1.425789	0.289673	0.836472
H204	H	1.925789	0.789673	1.336472
H205	H	1.508258	0.383686	0.846587
H206	H	2.008258	0.883686	1.346587
H207	H	1.344306	0.362350	0.975991
H208	H	1.844306	0.862350	1.475991
H209	H	1.426854	0.456291	0.986000
H210	H	1.926854	0.956291	1.486000
O211	O	0.921987	0.396927	0.397175
O212	O	1.421987	0.896927	0.897175
C213	C	1.072322	0.351838	0.352109
C214	C	1.572322	0.851838	0.852109
C215	C	1.013118	0.415633	0.415719
C216	C	1.513118	0.915633	0.915719
H217	H	1.146014	0.366951	0.367066
H218	H	1.646014	0.866951	0.867066
H219	H	1.057475	0.278864	0.363011
H220	H	1.557475	0.778864	0.863011
H221	H	1.057298	0.362510	0.279104
H222	H	1.557298	0.862510	0.779104
H223	H	1.028108	0.405041	0.488747
H224	H	1.528108	0.905041	0.988747
H225	H	1.027976	0.488584	0.404738
H226	H	1.527976	0.988584	0.904738
H227	H	1.110509	0.654134	0.880636
H228	H	1.610509	1.154134	1.380636
H229	H	1.373109	0.420271	1.194585
H230	H	1.873109	0.920271	1.694585
O231	O	1.393559	1.015763	0.402212
O232	O	1.893559	1.515763	0.902212
C233	C	1.513588	1.026448	0.295349
C234	C	2.013588	1.526448	0.795349
C235	C	1.443516	1.077789	0.357700
C236	C	1.943516	1.577789	0.857700
H237	H	1.553985	1.076571	0.259330
H238	H	2.053985	1.576571	0.759330
H239	H	1.560612	0.987424	0.337213
H240	H	2.060612	1.487424	0.837213
H241	H	1.477993	0.977323	0.243293
H242	H	1.977993	1.477323	0.743293
H243	H	1.479035	1.126959	0.409767
H244	H	1.979035	1.626959	0.909767
H245	H	1.396497	1.116752	0.315777
H246	H	1.896497	1.616752	0.815777
O247	O	1.393495	0.402094	1.016528
O248	O	1.893495	0.902094	1.516528
C249	C	1.513593	0.295247	1.027252
C250	C	2.013593	0.795247	1.527252
C251	C	1.443540	0.357642	1.078577
C252	C	1.943540	0.857642	1.578577
H253	H	1.554086	0.259305	1.077398
H254	H	2.054086	0.759305	1.577398
H255	H	1.478072	0.243139	0.978122
H256	H	1.978072	0.743139	1.478122
H257	H	1.560527	0.337164	0.988236
H258	H	2.060527	0.837164	1.488236
H259	H	1.396586	0.315800	1.117645
H260	H	1.896586	0.815800	1.617645
H261	H	1.479119	0.409753	1.127654
H262	H	1.979119	0.909753	1.627654
H263	H	1.152440	1.192467	0.616773
H264	H	1.652440	1.692467	1.116773
H265	H	1.152420	0.616780	1.193173
H266	H	1.652420	1.116780	1.693173
H267	H	1.100156	0.663328	1.051511
H268	H	1.600156	1.163328	1.551511
