data_functionalizedCrystal
_audit_creation_method	'MofGen! by Chris Wilmer'
_symmetry_space_group_name_H-M	'P1'
_symmetry_Int_Tables_number	1
_symmetry_cell_setting	triclinic
loop_
_symmetry_equiv_pos_as_xyz
  x,y,z
_cell_length_a	10.489741
_cell_length_b	19.188930
_cell_length_c	9.565339
_cell_angle_alpha	89.995116
_cell_angle_beta	89.999100
_cell_angle_gamma	83.841978
loop_
_atom_site_label
_atom_site_type_symbol
_atom_site_fract_x
_atom_site_fract_y
_atom_site_fract_z
O1	O	1.691850	0.098497	-0.116191
O2	O	1.320448	0.107743	-0.116215
O3	O	1.516867	0.001537	-0.116175
O4	O	1.495431	0.204704	-0.116231
O5	O	1.516852	0.001543	0.116345
O6	O	1.320432	0.107750	0.116305
O7	O	1.691835	0.098504	0.116329
Zn8	Zn	1.506131	0.103128	0.153235
Zn9	Zn	1.506152	0.103119	-0.153121
O10	O	1.495416	0.204711	0.116289
C11	C	1.272924	0.107048	0.000043
C12	C	1.131341	0.104959	0.000035
C13	C	1.516165	-0.024476	0.000089
C14	C	1.514081	-0.101994	0.000101
C15	C	1.064712	0.037383	0.000067
C16	C	0.971879	0.069302	-0.114584
C17	C	0.971898	0.069325	0.114663
C18	C	1.040373	0.136906	-0.114710
C19	C	1.040401	0.136919	0.114640
C20	C	0.947595	0.168887	-0.000039
C21	C	1.629334	-0.146146	0.000115
C22	C	1.627376	-0.218983	0.000092
C23	C	1.510159	-0.247665	0.000084
C24	C	1.394892	-0.203503	0.000062
C25	C	1.396853	-0.130668	0.000071
N26	N	1.420556	-0.356268	0.079209
N27	N	1.418701	-0.425459	0.079204
C28	C	1.504244	-0.467113	0.000055
N29	N	1.591732	-0.436964	-0.079071
N30	N	1.593590	-0.367767	-0.079059
C31	C	1.508020	-0.326642	0.000074
C32	C	1.617382	-0.590244	0.000043
C33	C	1.615419	-0.663081	0.000012
C34	C	1.382932	-0.647600	-0.000004
C35	C	1.384898	-0.574764	0.000013
C36	C	1.502126	-0.546090	0.000043
C37	C	1.739359	0.099199	0.000068
C38	C	1.880941	0.101288	0.000067
C39	C	1.496118	0.230723	0.000022
C40	C	1.498202	0.308242	0.000001
N41	N	1.506127	0.103134	0.362314
N42	N	1.506166	0.103108	-0.362200
C43	C	1.415262	0.152234	0.453499
C44	C	1.530443	0.166361	0.546681
C45	C	1.390995	0.089012	0.546688
C46	C	1.621366	0.117292	0.453444
C47	C	1.481842	0.039916	0.453443
C48	C	1.597107	0.054016	0.546583
H49	H	0.941511	0.040706	-0.211499
H50	H	1.674049	0.012480	0.587197
N51	N	1.260593	-0.527134	0.000014
H52	H	1.209437	-0.536419	-0.086185
H53	H	1.209530	-0.536453	0.086263
N54	N	1.080346	0.174744	-0.243260
H55	H	1.123707	0.216980	-0.214206
H56	H	1.141898	0.142069	-0.300217
N57	N	1.132147	-0.036208	-0.000046
H58	H	1.106204	-0.062006	0.085664
H59	H	1.107406	-0.061590	-0.086776
N60	N	1.313569	0.207286	0.399366
H61	H	1.354968	0.242043	0.339802
H62	H	1.249641	0.184096	0.341325
H63	H	1.070802	0.165492	0.211559
H64	H	0.941553	0.040722	0.211592
H65	H	1.724790	-0.122805	0.000135
H66	H	1.551011	0.219812	0.587634
N67	N	1.750391	0.133180	0.399436
H68	H	1.749569	0.133112	0.293851
H69	H	1.768886	0.180751	0.434277
H70	H	1.461239	-0.013519	0.412456
H71	H	1.721231	-0.254938	0.000098
H72	H	1.293614	0.077080	0.587649
N73	N	1.268464	-0.234433	0.000046
H74	H	1.284709	-0.287275	0.000047
H75	H	1.218038	-0.218327	0.086239
N76	N	0.880460	0.242545	-0.000130
H77	H	0.946341	0.277257	-0.001005
H78	H	0.824452	0.249640	-0.085925
N79	N	1.272547	-0.083036	0.000066
H80	H	1.221390	-0.092317	-0.086135
H81	H	1.221481	-0.092356	0.086312
N82	N	1.743812	-0.559310	0.000070
H83	H	1.816530	-0.598335	0.000063
H84	H	1.749695	-0.529418	-0.086120
N85	N	1.739733	-0.710707	0.000021
H86	H	1.814288	-0.681487	0.000046
H87	H	1.743966	-0.741270	0.086214
N88	N	1.256502	-0.678525	-0.000029
H89	H	1.272746	-0.731366	-0.000037
H90	H	1.206075	-0.662421	0.086165
