data_functionalizedCrystal
_audit_creation_method	'MofGen! by Chris Wilmer'
_symmetry_space_group_name_H-M	'P1'
_symmetry_Int_Tables_number	1
_symmetry_cell_setting	triclinic
loop_
_symmetry_equiv_pos_as_xyz
  x,y,z
_cell_length_a	14.908783
_cell_length_b	16.120444
_cell_length_c	16.120297
_cell_angle_alpha	95.615117
_cell_angle_beta	89.410993
_cell_angle_gamma	96.376156
loop_
_atom_site_label
_atom_site_type_symbol
_atom_site_fract_x
_atom_site_fract_y
_atom_site_fract_z
Zn1	Zn	1.332777	-0.289213	-0.557211
Zn2	Zn	1.582777	-0.039213	-0.307211
Zn3	Zn	1.832777	0.210787	-0.057211
Zn4	Zn	2.082777	0.460787	0.192789
Zn5	Zn	1.332661	-0.421910	-0.424517
Zn6	Zn	1.582661	-0.171910	-0.174517
Zn7	Zn	1.832661	0.078090	0.075483
Zn8	Zn	2.082661	0.328090	0.325483
Zn9	Zn	1.189966	-0.289386	-0.410197
Zn10	Zn	1.439966	-0.039386	-0.160197
Zn11	Zn	1.689966	0.210614	0.089803
Zn12	Zn	1.939966	0.460614	0.339803
Zn13	Zn	1.173810	-0.437000	-0.556164
Zn14	Zn	1.423810	-0.187000	-0.306164
Zn15	Zn	1.673810	0.063000	-0.056164
Zn16	Zn	1.923810	0.313000	0.193836
O17	O	1.257303	-0.359377	-0.487022
O18	O	1.507303	-0.109377	-0.237022
O19	O	1.757303	0.140623	0.012978
O20	O	2.007303	0.390623	0.262978
O21	O	1.459008	-0.300428	-0.546039
O22	O	1.709008	-0.050428	-0.296039
O23	O	1.959008	0.199572	-0.046039
O24	O	2.209008	0.449572	0.203961
O25	O	1.320444	-0.398087	-0.305997
O26	O	1.570444	-0.148087	-0.055997
O27	O	1.820444	0.101913	0.194003
O28	O	2.070444	0.351913	0.444003
O29	O	1.215720	-0.172052	-0.424143
O30	O	1.465720	0.077948	-0.174143
O31	O	1.715720	0.327948	0.075857
O32	O	1.965720	0.577948	0.325857
O33	O	1.458923	-0.397919	-0.448550
O34	O	1.708923	-0.147919	-0.198550
O35	O	1.958923	0.102081	0.051450
O36	O	2.208923	0.352081	0.301450
O37	O	1.320643	-0.171925	-0.532154
O38	O	1.570643	0.078075	-0.282154
O39	O	1.820643	0.328075	-0.032154
O40	O	2.070643	0.578075	0.217846
O41	O	1.215607	-0.300722	-0.295476
O42	O	1.465607	-0.050722	-0.045476
O43	O	1.715607	0.199278	0.204524
O44	O	1.965607	0.449278	0.454524
O45	O	1.061576	-0.315355	-0.423129
O46	O	1.311576	-0.065355	-0.173129
O47	O	1.561576	0.184645	0.076871
O48	O	1.811576	0.434645	0.326871
O49	O	1.188184	-0.423639	-0.672924
O50	O	1.438184	-0.173639	-0.422924
O51	O	1.688184	0.076361	-0.172924
O52	O	1.938184	0.326361	0.077076
O53	O	1.049706	-0.423807	-0.530370
O54	O	1.299706	-0.173807	-0.280370
O55	O	1.549706	0.076193	-0.030370
O56	O	1.799706	0.326193	0.219630
O57	O	1.304977	-0.315061	-0.673692
O58	O	1.554977	-0.065061	-0.423692
O59	O	1.804977	0.184939	-0.173692
O60	O	2.054977	0.434939	0.076308
O61	O	1.304779	-0.541222	-0.447535
O62	O	1.554779	-0.291222	-0.197535
O63	O	1.804779	-0.041222	0.052465
O64	O	2.054779	0.208778	0.302465
O65	O	1.188071	-0.552309	-0.544256
O66	O	1.438071	-0.302309	-0.294256
O67	O	1.688071	-0.052309	-0.044256
O68	O	1.938071	0.197691	0.205744
C69	C	1.022906	-0.371238	-0.475083
C70	C	1.272906	-0.121238	-0.225083
C71	C	1.522906	0.128762	0.024917
C72	C	1.772906	0.378762	0.274917
C73	C	0.922628	-0.376333	-0.469995
C74	C	1.172628	-0.126333	-0.219995
C75	C	1.422628	0.123667	0.030005
C76	C	1.672628	0.373667	0.280005
C77	C	0.734264	-0.284545	-0.562122
C78	C	0.984264	-0.034545	-0.312122
C79	C	1.234264	0.215455	-0.062122
C80	C	1.484264	0.465455	0.187878
C81	C	0.640043	-0.289330	-0.557345
C82	C	0.890043	-0.039330	-0.307345
C83	C	1.140043	0.210670	-0.057345
C84	C	1.390043	0.460670	0.192655
C85	C	0.639966	-0.390682	-0.455660
C86	C	0.889966	-0.140682	-0.205660
C87	C	1.139966	0.109318	0.044340
C88	C	1.389966	0.359318	0.294340
C89	C	0.734186	-0.385897	-0.460437
C90	C	0.984186	-0.135897	-0.210437
C91	C	1.234186	0.114103	0.039563
C92	C	1.484186	0.364103	0.289563
C93	C	0.781332	-0.332828	-0.513671
C94	C	1.031332	-0.082828	-0.263671
C95	C	1.281332	0.167172	-0.013671
C96	C	1.531332	0.417172	0.236329
C97	C	0.875553	-0.328049	-0.518452
C98	C	1.125553	-0.078049	-0.268452
C99	C	1.375553	0.171951	-0.018452
C100	C	1.625553	0.421951	0.231548
C101	C	0.875474	-0.429396	-0.416763
C102	C	1.125474	-0.179396	-0.166763
C103	C	1.375474	0.070604	0.083237
C104	C	1.625474	0.320604	0.333237
C105	C	0.781254	-0.434180	-0.411986
C106	C	1.031254	-0.184180	-0.161986
C107	C	1.281254	0.065820	0.088014
C108	C	1.531254	0.315820	0.338014
C109	C	1.244683	-0.577183	-0.497355
C110	C	1.494683	-0.327183	-0.247355
C111	C	1.744683	-0.077183	0.002645
C112	C	1.994683	0.172817	0.252645
C113	C	1.239364	-0.670358	-0.501808
C114	C	1.489364	-0.420358	-0.251808
C115	C	1.739364	-0.170358	-0.001808
C116	C	1.989364	0.079642	0.248192
C117	C	1.285102	-0.876951	-0.464114
C118	C	1.535102	-0.626951	-0.214114
C119	C	1.785102	-0.376951	0.035886
C120	C	2.035102	-0.126951	0.285886
C121	C	1.229671	-0.840945	-0.509947
C122	C	1.479671	-0.590945	-0.259947
C123	C	1.729671	-0.340945	-0.009947
C124	C	1.979671	-0.090945	0.240053
C125	C	1.235066	-0.746022	-0.505417
C126	C	1.485066	-0.496022	-0.255417
C127	C	1.735066	-0.246022	-0.005417
C128	C	1.985066	0.003978	0.244583
C129	C	1.279708	-0.971882	-0.468643
C130	C	1.529708	-0.721882	-0.218643
C131	C	1.779708	-0.471882	0.031357
C132	C	2.029708	-0.221882	0.281357
C133	C	1.492615	-0.347471	-0.499009
C134	C	1.742615	-0.097471	-0.249009
C135	C	1.992615	0.152529	0.000991
C136	C	2.242615	0.402529	0.250991
C137	C	1.592891	-0.342397	-0.504117
C138	C	1.842891	-0.092397	-0.254117
C139	C	2.092891	0.157603	-0.004117
C140	C	2.342891	0.407603	0.245883
C141	C	1.244791	-0.371014	-0.704392
C142	C	1.494791	-0.121014	-0.454392
C143	C	1.744791	0.128986	-0.204392
C144	C	1.994791	0.378986	0.045608
C145	C	1.239460	-0.375973	-0.797022
C146	C	1.489460	-0.125973	-0.547022
C147	C	1.739460	0.124027	-0.297022
C148	C	1.989460	0.374027	-0.047022
C149	C	1.269996	-0.140721	-0.476668
C150	C	1.519996	0.109279	-0.226668
C151	C	1.769996	0.359279	0.023332
C152	C	2.019996	0.609279	0.273332
C153	C	1.275406	-0.047543	-0.472255
C154	C	1.525406	0.202457	-0.222255
C155	C	1.775406	0.452457	0.027745
C156	C	2.025406	0.702457	0.277745
C157	C	1.229693	-0.385010	-0.966616
C158	C	1.479693	-0.135010	-0.716616
C159	C	1.729693	0.114990	-0.466616
C160	C	1.979693	0.364990	-0.216616
C161	C	1.285105	-0.333485	-1.008277
C162	C	1.535105	-0.083485	-0.758277
C163	C	1.785105	0.166515	-0.508277
C164	C	2.035105	0.416515	-0.258277
C165	C	1.279671	-0.338513	-1.102645
C166	C	1.529671	-0.088513	-0.852645
C167	C	1.779671	0.161487	-0.602645
C168	C	2.029671	0.411487	-0.352645
C169	C	1.235126	-0.379983	-0.872240
C170	C	1.485126	-0.129983	-0.622240
C171	C	1.735126	0.120017	-0.372240
C172	C	1.985126	0.370017	-0.122240
C173	C	1.269822	-0.347723	-0.270498
C174	C	1.519822	-0.097723	-0.020498
C175	C	1.769822	0.152277	0.229502
C176	C	2.019822	0.402277	0.479502
C177	C	1.275342	-0.342519	-0.177866
C178	C	1.525342	-0.092519	0.072134
C179	C	1.775342	0.157481	0.322134
C180	C	2.025342	0.407481	0.572134
H181	H	0.913806	-0.468718	-0.377318
H182	H	1.163806	-0.218718	-0.127318
H183	H	1.413806	0.031282	0.122682
H184	H	1.663806	0.281282	0.372682
H185	H	1.178177	-0.432895	-1.001819
H186	H	1.428177	-0.182895	-0.751819
H187	H	1.678177	0.067105	-0.501819
H188	H	1.928177	0.317105	-0.251819
Cl189	Cl	1.364619	-0.814481	-0.398280
Cl190	Cl	1.614619	-0.564481	-0.148280
Cl191	Cl	1.864619	-0.314481	0.101720
Cl192	Cl	2.114619	-0.064481	0.351720
Cl193	Cl	0.934821	-0.261336	-0.585375
Cl194	Cl	1.184821	-0.011336	-0.335375
Cl195	Cl	1.434821	0.238664	-0.085375
Cl196	Cl	1.684821	0.488664	0.164625
Cl197	Cl	1.364670	-0.259566	-0.953929
Cl198	Cl	1.614670	-0.009566	-0.703929
Cl199	Cl	1.864670	0.240434	-0.453929
Cl200	Cl	2.114670	0.490434	-0.203929
H201	H	0.601725	-0.250011	-0.596797
H202	H	0.851725	-0.000011	-0.346797
H203	H	1.101725	0.249989	-0.096797
H204	H	1.351725	0.499989	0.153203
Cl205	Cl	0.793535	-0.217840	-0.629050
Cl206	Cl	1.043535	0.032160	-0.379050
Cl207	Cl	1.293535	0.282160	-0.129050
Cl208	Cl	1.543535	0.532160	0.120950
H209	H	0.601565	-0.433878	-0.412310
H210	H	0.851565	-0.183878	-0.162310
H211	H	1.101565	0.066122	0.087690
H212	H	1.351565	0.316122	0.337690
Cl213	Cl	0.721977	-0.500889	-0.345066
Cl214	Cl	0.971977	-0.250889	-0.095066
Cl215	Cl	1.221977	-0.000889	0.154934
Cl216	Cl	1.471977	0.249111	0.404934
H217	H	1.178163	-0.881409	-0.552589
H218	H	1.428163	-0.631409	-0.302589
H219	H	1.678163	-0.381409	-0.052589
H220	H	1.928163	-0.131409	0.197411
