data_functionalizedCrystal
_audit_creation_method	'MofGen! by Chris Wilmer'
_symmetry_space_group_name_H-M	'P1'
_symmetry_Int_Tables_number	1
_symmetry_cell_setting	triclinic
loop_
_symmetry_equiv_pos_as_xyz
  x,y,z
_cell_length_a	10.654556
_cell_length_b	14.519709
_cell_length_c	9.130313
_cell_angle_alpha	90.003947
_cell_angle_beta	90.002077
_cell_angle_gamma	84.083841
loop_
_atom_site_label
_atom_site_type_symbol
_atom_site_fract_x
_atom_site_fract_y
_atom_site_fract_z
O1	O	1.666590	0.129558	0.121747
O2	O	1.300994	0.141893	0.121763
O3	O	1.493485	0.001538	0.121742
O4	O	1.474098	0.269914	0.121769
O5	O	1.493470	0.001538	-0.121857
O6	O	1.300979	0.141893	-0.121836
O7	O	1.666575	0.129558	-0.121851
Cu8	Cu	1.483776	0.135726	-0.144086
Cu9	Cu	1.483793	0.135726	0.143998
O10	O	1.474084	0.269914	-0.121830
C11	C	1.254197	0.140986	-0.000035
C12	C	1.114781	0.138273	-0.000029
C13	C	0.918280	0.134452	0.132745
C14	C	1.049278	0.136996	0.132754
C15	C	1.049280	0.136996	-0.132831
C16	C	0.918286	0.134446	-0.132838
C17	C	1.492574	-0.032827	-0.000058
C18	C	1.489867	-0.135222	-0.000059
C19	C	1.479900	-0.510170	-0.000020
C20	C	1.482667	-0.405848	-0.000031
C21	C	1.484883	-0.322699	-0.000041
C22	C	1.487651	-0.218370	-0.000049
C23	C	1.713372	0.130465	-0.000051
C24	C	1.852788	0.133179	-0.000046
C25	C	1.474995	0.304278	-0.000027
C26	C	1.477702	0.406673	-0.000017
N27	N	1.483773	0.135725	-0.346709
C28	C	1.560061	0.192182	-0.423353
C29	C	1.560081	0.192177	-0.576690
C30	C	1.407515	0.079255	-0.576725
C31	C	1.407502	0.079257	-0.423391
N32	N	1.483806	0.135719	0.346620
H33	H	0.864956	0.133419	0.240873
O34	O	1.119927	0.138374	-0.276049
H35	H	1.083721	0.200629	-0.339715
H36	H	1.622204	0.238149	-0.639086
O37	O	1.325262	0.018350	-0.659442
H38	H	1.272225	-0.020918	-0.580381
O39	O	0.847496	0.133142	-0.275984
H40	H	0.883565	0.070912	-0.339801
H41	H	1.622166	0.238162	-0.360923
H42	H	1.345378	0.033278	-0.360986
H43	H	1.102595	0.138032	0.240886
