data_functionalizedCrystal
_audit_creation_method	'MofGen! by Chris Wilmer'
_symmetry_space_group_name_H-M	'P1'
_symmetry_Int_Tables_number	1
_symmetry_cell_setting	triclinic
loop_
_symmetry_equiv_pos_as_xyz
  x,y,z
_cell_length_a	14.519731
_cell_length_b	14.044220
_cell_length_c	13.596369
_cell_angle_alpha	90.006843
_cell_angle_beta	90.005416
_cell_angle_gamma	88.438865
loop_
_atom_site_label
_atom_site_type_symbol
_atom_site_fract_x
_atom_site_fract_y
_atom_site_fract_z
O1	O	1.233888	0.124370	0.081796
O2	O	1.567221	0.457703	0.415130
O3	O	1.900555	0.791036	0.748463
O4	O	0.966592	0.138983	0.081798
O5	O	1.299926	0.472316	0.415132
O6	O	1.633259	0.805650	0.748465
O7	O	1.096228	-0.006315	0.081788
O8	O	1.429561	0.327018	0.415121
O9	O	1.762895	0.660351	0.748454
O10	O	1.104252	0.269668	0.081807
O11	O	1.437586	0.603001	0.415140
O12	O	1.770919	0.936335	0.748474
O13	O	1.096213	-0.006323	-0.081795
O14	O	1.429547	0.327010	0.251538
O15	O	1.762880	0.660344	0.584871
O16	O	0.966578	0.138975	-0.081785
O17	O	1.299911	0.472309	0.251549
O18	O	1.633244	0.805642	0.584882
O19	O	1.233873	0.124362	-0.081787
O20	O	1.567207	0.457695	0.251547
O21	O	1.900540	0.791029	0.584880
Zn22	Zn	1.100223	0.131667	-0.107758
Zn23	Zn	1.433556	0.465001	0.225575
Zn24	Zn	1.766890	0.798334	0.558909
Zn25	Zn	1.100242	0.131678	0.107770
Zn26	Zn	1.433576	0.465011	0.441103
Zn27	Zn	1.766909	0.798344	0.774436
O28	O	1.104238	0.269660	-0.081776
O29	O	1.437571	0.602994	0.251557
O30	O	1.770904	0.936327	0.584891
C31	C	0.932170	0.138295	0.000007
C32	C	1.265504	0.471628	0.333340
C33	C	1.598837	0.804961	0.666674
C34	C	0.829625	0.136243	0.000007
C35	C	1.162958	0.469576	0.333341
C36	C	1.496291	0.802909	0.666674
C37	C	0.746346	0.134575	0.000011
C38	C	1.079679	0.467909	0.333344
C39	C	1.413013	0.801242	0.666678
C40	C	0.641869	0.132492	0.000011
C41	C	0.975203	0.465825	0.333345
C42	C	1.308536	0.799159	0.666678
C43	C	0.558597	0.130839	0.000011
C44	C	0.891930	0.464172	0.333345
C45	C	1.225263	0.797505	0.666678
C46	C	0.454113	0.128756	0.000013
C47	C	0.787447	0.462089	0.333347
C48	C	1.120780	0.795422	0.666680
C49	C	1.092708	-0.041640	-0.000004
C50	C	1.426042	0.291693	0.333329
C51	C	1.759375	0.625027	0.666662
C52	C	1.082231	-0.146884	-0.000005
C53	C	1.415564	0.186449	0.333328
C54	C	1.748898	0.519782	0.666661
C55	C	1.063077	-0.339580	0.000009
C56	C	1.396410	-0.006246	0.333342
C57	C	1.729743	0.327087	0.666676
C58	C	1.137385	-0.397081	0.000011
C59	C	1.470718	-0.063748	0.333345
C60	C	1.804051	0.269586	0.666678
C61	C	1.126727	-0.504303	0.000019
C62	C	1.460060	-0.170970	0.333353
C63	C	1.793394	0.162363	0.666686
C64	C	1.073733	-0.232347	0.000001
C65	C	1.407066	0.100986	0.333334
C66	C	1.740400	0.434319	0.666668
C67	C	1.268295	0.125050	0.000007
C68	C	1.601629	0.458384	0.333340
C69	C	1.934962	0.791717	0.666674
C70	C	1.370841	0.127102	0.000013
C71	C	1.704174	0.460436	0.333346
C72	C	2.037508	0.793769	0.666680
C73	C	1.107757	0.304985	0.000018
C74	C	1.441091	0.638318	0.333351
C75	C	1.774424	0.971652	0.666685
C76	C	1.118234	0.410229	0.000026
C77	C	1.451568	0.743563	0.333359
C78	C	1.784901	1.076896	0.666692
N79	N	1.100217	0.131660	-0.254850
N80	N	1.433550	0.464993	0.078484
N81	N	1.766883	0.798327	0.411817
C82	C	1.100241	0.131679	-0.656141
C83	C	1.433575	0.465012	-0.322807
C84	C	1.766908	0.798345	0.010526
C85	C	1.100232	0.131677	-0.544489
C86	C	1.433565	0.465010	-0.211156
C87	C	1.766899	0.798343	0.122177
C88	C	1.100229	0.131670	-0.455499
C89	C	1.433563	0.465003	-0.122165
C90	C	1.766896	0.798337	0.211168
C91	C	1.100219	0.131667	-0.343840
C92	C	1.433552	0.465000	-0.010507
C93	C	1.766886	0.798333	0.322826
N94	N	1.100256	0.131678	0.254861
N95	N	1.433589	0.465011	0.588195
N96	N	1.766922	0.798344	0.921528
H97	H	1.209006	-0.365783	0.000077
H98	H	1.542339	-0.032450	0.333410
H99	H	1.875672	0.300884	0.666744
H100	H	0.991461	-0.370876	0.000012
H101	H	1.324795	-0.037543	0.333345
H102	H	1.658128	0.295791	0.666678
