data_functionalizedCrystal
_audit_creation_method	'MofGen! by Chris Wilmer'
_symmetry_space_group_name_H-M	'P1'
_symmetry_Int_Tables_number	1
_symmetry_cell_setting	triclinic
loop_
_symmetry_equiv_pos_as_xyz
  x,y,z
_cell_length_a	14.628931
_cell_length_b	14.560432
_cell_length_c	14.628931
_cell_angle_alpha	90.000750
_cell_angle_beta	60.000000
_cell_angle_gamma	60.001153
loop_
_atom_site_label
_atom_site_type_symbol
_atom_site_fract_x
_atom_site_fract_y
_atom_site_fract_z
Zr1	Zr	1.000603	0.884747	-0.119965
O2	O	1.191306	0.738100	-0.265925
O3	O	0.809899	0.929702	-0.075219
O4	O	1.000605	0.929701	-0.265925
O5	O	1.000600	0.738102	0.075212
O6	O	1.000608	1.080839	-0.265926
O7	O	1.000600	0.738101	-0.075219
O8	O	0.659470	1.080840	0.075213
O9	O	1.341738	0.738100	-0.265926
O10	O	0.888342	1.061667	-0.056137
O11	O	0.888339	0.948875	0.056129
O12	O	1.112871	0.948874	-0.168403
O13	O	1.112868	0.836082	-0.056137
Zr14	Zr	1.000610	1.125794	0.119957
Zr15	Zr	1.000610	1.125794	-0.119965
Zr16	Zr	1.000603	0.884747	0.119957
Zr17	Zr	1.240525	0.884746	-0.119965
Zr18	Zr	0.760688	1.125795	0.119957
O19	O	1.191314	1.080839	0.075211
O20	O	1.191314	1.080838	-0.265926
O21	O	1.191306	0.738101	0.075212
O22	O	0.809907	1.272441	0.265917
O23	O	0.809907	1.272440	-0.075220
O24	O	0.809899	0.929703	0.265918
O25	O	1.000613	1.272439	-0.075220
O26	O	1.000608	1.080840	0.265917
O27	O	1.000605	0.929702	0.265918
O28	O	1.000613	1.272440	0.075211
O29	O	1.341743	0.929700	-0.265926
O30	O	0.659470	1.080841	0.265918
O31	O	0.659475	1.272441	0.265918
O32	O	0.659475	1.272440	0.075212
O33	O	1.341738	0.738101	-0.075220
O34	O	1.341743	0.929701	-0.075220
O35	O	0.888342	1.061667	0.168395
O36	O	0.888345	1.174459	0.056129
O37	O	1.112874	1.061666	-0.056137
O38	O	1.112871	0.948874	0.056129
C39	C	0.700501	1.005271	-0.000003
C40	C	0.598647	1.005271	-0.000003
C41	C	0.631996	0.926142	-0.078763
C42	C	0.526727	0.926141	-0.078764
C43	C	1.000599	0.703757	-0.000003
C44	C	1.000596	0.601427	-0.000003
C45	C	0.766186	0.719166	0.117193
C46	C	0.648984	0.729959	0.175785
C47	C	0.648990	0.633807	0.175782
C48	C	0.766209	0.526853	0.117183
C49	C	0.883410	0.516060	0.058591
C50	C	0.883392	0.612221	0.058597
C51	C	1.117818	0.398321	-0.058597
C52	C	1.117815	0.494473	-0.058602
C53	C	1.235037	0.291367	-0.117196
C54	C	1.352241	0.280573	-0.175797
C55	C	1.352231	0.376734	-0.175792
C56	C	1.235016	0.483680	-0.117195
C57	C	1.300712	1.005270	-0.000005
C58	C	1.402565	1.005270	-0.000005
C59	C	1.000606	1.005270	-0.300109
C60	C	1.000606	1.005270	-0.401962
C61	C	1.000614	1.306784	-0.000005
C62	C	1.000617	1.409114	-0.000005
C63	C	1.000608	1.084399	-0.447372
C64	C	1.000608	1.084400	-0.552642
C65	C	1.000606	1.005271	0.300101
C66	C	1.000606	1.005271	0.401954
C67	C	0.700508	1.306784	-0.000004
C68	C	0.598658	1.409115	-0.000004
C69	C	0.700501	1.005272	0.300102
C70	C	0.598647	1.005272	0.401955
C71	C	0.700508	1.306785	0.300101
C72	C	0.598658	1.409116	0.401954
C73	C	1.300705	0.703756	-0.300109
C74	C	1.402555	0.601425	-0.401962
C75	C	1.300705	0.703757	-0.000004
C76	C	1.402555	0.601426	-0.000004
C77	C	1.300712	1.005269	-0.300110
C78	C	1.402565	1.005269	-0.401963
C79	C	0.553248	1.398785	-0.055695
C80	C	0.447980	1.504548	-0.055696
C81	C	0.553240	1.061225	0.503056
C82	C	0.447969	1.061227	0.608327
C83	C	0.553251	1.510691	0.391672
C84	C	0.447983	1.616457	0.496941
H85	H	0.738480	0.858402	-0.146194
Br86	Br	0.467625	0.925436	0.453489
H87	H	0.559593	0.957365	0.393335
Br88	Br	0.421169	1.118198	0.112380
Br89	Br	0.533583	1.554356	0.079457
H90	H	1.235033	0.213079	-0.117188
Br91	Br	1.000596	1.197326	-0.382277
Br92	Br	1.000627	1.197313	-0.617731
Br93	Br	0.618352	1.525141	0.247110
Br94	Br	0.766170	0.849664	0.117181
H95	H	1.000612	0.937519	-0.559005
Br96	Br	1.000588	0.892359	-0.467044
H97	H	0.408931	1.703594	0.488311
H98	H	0.441614	1.518988	0.606673
Br99	Br	0.533579	1.394667	0.546517
H100	H	0.408925	1.495879	-0.103372
Br101	Br	0.382879	1.141085	0.752882
Br102	Br	0.574037	0.813212	-0.191150
Br103	Br	0.618344	1.253544	-0.135177
Br104	Br	1.511299	0.362073	-0.255304
H105	H	0.374180	1.073014	0.067432
H106	H	0.592304	1.109122	0.511676
Br107	Br	0.489931	0.648450	0.255308
Br108	Br	0.489909	0.875110	0.255336
H109	H	1.447672	0.193488	-0.223498
Br110	Br	0.766215	0.396360	0.117205
Br111	Br	1.234993	0.614181	-0.117192
H112	H	0.441616	1.614795	0.047685
