data_functionalizedCrystal
_audit_creation_method	'MofGen! by Chris Wilmer'
_symmetry_space_group_name_H-M	'P1'
_symmetry_Int_Tables_number	1
_symmetry_cell_setting	triclinic
loop_
_symmetry_equiv_pos_as_xyz
  x,y,z
_cell_length_a	16.120530
_cell_length_b	18.050589
_cell_length_c	18.050582
_cell_angle_alpha	89.981795
_cell_angle_beta	87.088397
_cell_angle_gamma	87.123928
loop_
_atom_site_label
_atom_site_type_symbol
_atom_site_fract_x
_atom_site_fract_y
_atom_site_fract_z
Zn1	Zn	1.274469	-0.353358	-0.477436
Zn2	Zn	1.274369	-0.477536	-0.353251
Zn3	Zn	1.135065	-0.347063	-0.346971
Zn4	Zn	1.135006	-0.471202	-0.471112
O5	O	1.204727	-0.412290	-0.412192
O6	O	1.391120	-0.375115	-0.466238
O7	O	1.255872	-0.460246	-0.248492
O8	O	1.153623	-0.243977	-0.364295
O9	O	1.391047	-0.466349	-0.374999
O10	O	1.256043	-0.248601	-0.460148
O11	O	1.153526	-0.364388	-0.243878
O12	O	1.018392	-0.358245	-0.358163
O13	O	1.153524	-0.455552	-0.575876
O14	O	1.018349	-0.449449	-0.449369
O15	O	1.255986	-0.368973	-0.580523
O16	O	1.255816	-0.580618	-0.368867
O17	O	1.153427	-0.575964	-0.455459
C18	C	0.988121	-0.402477	-0.402399
C19	C	0.895456	-0.398297	-0.398227
C20	C	0.725795	-0.390648	-0.390616
C21	C	0.684499	-0.433986	-0.433823
C22	C	0.590094	-0.429730	-0.429588
C23	C	0.820209	-0.394903	-0.394849
C24	C	1.204626	-0.605237	-0.412175
C25	C	1.204660	-0.687785	-0.412197
C26	C	1.149035	-0.884734	-0.459270
C27	C	1.128719	-0.933249	-0.390586
C28	C	1.204742	-0.838919	-0.412210
C29	C	1.225099	-0.937487	-0.480903
C30	C	1.204819	-0.984907	-0.412229
C31	C	1.184385	-0.886344	-0.343488
C32	C	1.280801	-0.890580	-0.433853
C33	C	1.260513	-0.939074	-0.365123
C34	C	1.204695	-0.754818	-0.412200
C35	C	1.204866	-1.069006	-0.412231
C36	C	1.422179	-0.422141	-0.422025
C37	C	1.514844	-0.426339	-0.426215
C38	C	1.204760	-0.412258	-0.605899
C39	C	1.204774	-0.412245	-0.688446
C40	C	1.204851	-0.218590	-0.412227
C41	C	1.204904	-0.136046	-0.412241
C42	C	1.149097	-0.459261	-0.885372
C43	C	1.225159	-0.480855	-0.938196
C44	C	1.204815	-0.412190	-0.839578
C45	C	1.128795	-0.390577	-0.933837
C46	C	1.204848	-0.412138	-0.985565
C47	C	1.280916	-0.433821	-0.891317
C48	C	1.184501	-0.343510	-0.886952
C49	C	1.260615	-0.365080	-0.939756
C50	C	1.204795	-0.412222	-0.755479
C51	C	1.204877	-0.412107	-1.069663
C52	C	1.204743	-0.412270	-0.219241
C53	C	1.204890	-0.412081	-0.136702
H54	H	0.690252	-0.350354	-0.350447
Br55	Br	1.253744	-0.974884	-0.577714
H56	H	0.720045	-0.474283	-0.473995
H57	H	1.307655	-0.962716	-0.325286
H58	H	1.101857	-0.860953	-0.499005
H59	H	1.345070	-0.871709	-0.452174
Br60	Br	1.070635	-0.525697	-0.845711
Br61	Br	1.021622	-0.360145	-0.965161
H62	H	1.242360	-0.538915	-0.960676
Br63	Br	1.388122	-0.464370	-0.860157
H64	H	1.307802	-0.325254	-0.963418
H65	H	1.064434	-0.952121	-0.372297
H66	H	1.167278	-0.285465	-0.864455
H67	H	1.167123	-0.863997	-0.285383
