data_functionalizedCrystal
_audit_creation_method	'MofGen! by Chris Wilmer'
_symmetry_space_group_name_H-M	'P1'
_symmetry_Int_Tables_number	1
_symmetry_cell_setting	triclinic
loop_
_symmetry_equiv_pos_as_xyz
  x,y,z
_cell_length_a	10.654545
_cell_length_b	16.109301
_cell_length_c	9.130313
_cell_angle_alpha	89.994060
_cell_angle_beta	89.996934
_cell_angle_gamma	83.972280
loop_
_atom_site_label
_atom_site_type_symbol
_atom_site_fract_x
_atom_site_fract_y
_atom_site_fract_z
O1	O	1.666259	0.116756	-0.121790
O2	O	1.300629	0.127885	-0.121797
O3	O	1.493488	0.001349	-0.121778
O4	O	1.473400	0.243292	-0.121808
O5	O	1.493475	0.001346	0.121821
O6	O	1.300615	0.127882	0.121802
O7	O	1.666246	0.116752	0.121809
Cu8	Cu	1.483429	0.122317	0.144048
Cu9	Cu	1.483445	0.122321	-0.144036
O10	O	1.473386	0.243288	0.121790
C11	C	1.253835	0.127067	0.000002
C12	C	1.114425	0.124625	0.000000
C13	C	1.048929	0.123473	0.132787
C14	C	0.917940	0.121164	0.132787
C15	C	0.917955	0.121163	-0.132798
C16	C	1.048942	0.123465	-0.132796
C17	C	1.492668	-0.029632	0.000022
C18	C	1.490228	-0.121942	0.000024
C19	C	1.598994	-0.343569	0.000003
C20	C	1.596692	-0.430303	-0.000009
C21	C	1.367871	-0.411787	-0.000008
C22	C	1.370175	-0.325054	-0.000006
C23	C	1.485740	-0.290948	0.000007
C24	C	1.481134	-0.464414	-0.000007
C25	C	1.478638	-0.558455	-0.000020
C26	C	1.488237	-0.196901	0.000017
C27	C	1.713039	0.117571	0.000007
C28	C	1.852450	0.120013	-0.000001
C29	C	1.474207	0.274270	-0.000013
C30	C	1.476646	0.366580	-0.000025
N31	N	1.483428	0.122313	0.346671
N32	N	1.483457	0.122318	-0.346658
C33	C	1.568854	0.066307	0.423331
C34	C	1.568866	0.066307	0.576668
C35	C	1.398021	0.178327	0.576671
C36	C	1.398004	0.178322	0.423337
H37	H	1.102271	0.124401	-0.240934
O38	O	1.661009	0.005898	0.659345
H39	H	1.646665	0.015301	0.778848
H40	H	1.638410	0.020699	0.360913
H41	H	0.864619	0.120226	0.240915
H42	H	1.277943	-0.282208	-0.000007
H43	H	1.328472	0.223930	0.639108
O44	O	1.305865	0.238734	0.340636
H45	H	1.246481	0.277691	0.419704
H46	H	1.693095	-0.315803	0.000010
O47	O	1.119562	0.124725	0.276009
H48	H	1.052007	0.123532	0.368343
H49	H	1.688916	-0.473144	-0.000016
O50	O	0.847335	0.119917	-0.276029
H51	H	0.776444	0.175439	-0.282405
O52	O	1.243228	-0.448571	0.000010
H53	H	1.260651	-0.517723	0.000030
