data_functionalizedCrystal
_audit_creation_method	'MofGen! by Chris Wilmer'
_symmetry_space_group_name_H-M	'P1'
_symmetry_Int_Tables_number	1
_symmetry_cell_setting	triclinic
loop_
_symmetry_equiv_pos_as_xyz
  x,y,z
_cell_length_a	14.908571
_cell_length_b	12.759400
_cell_length_c	14.908308
_cell_angle_alpha	93.269141
_cell_angle_beta	90.175053
_cell_angle_gamma	86.710990
loop_
_atom_site_label
_atom_site_type_symbol
_atom_site_fract_x
_atom_site_fract_y
_atom_site_fract_z
Zn1	Zn	1.345342	-0.548282	-0.587598
Zn2	Zn	1.353936	-0.714462	-0.437243
Zn3	Zn	1.203655	-0.528102	-0.428595
Zn4	Zn	1.194964	-0.713214	-0.578895
O5	O	1.274474	-0.626015	-0.508083
O6	O	1.472309	-0.579294	-0.574915
O7	O	1.341235	-0.681818	-0.310271
O8	O	1.222491	-0.383762	-0.449711
O9	O	1.478623	-0.701385	-0.464450
O10	O	1.326587	-0.398588	-0.566529
O11	O	1.230825	-0.544900	-0.303918
O12	O	1.076676	-0.543690	-0.441272
O13	O	1.207677	-0.699258	-0.705874
O14	O	1.070290	-0.679690	-0.551696
O15	O	1.318160	-0.578083	-0.712269
O16	O	1.332807	-0.861313	-0.456011
O17	O	1.216011	-0.860396	-0.560082
C18	C	1.040857	-0.609366	-0.494601
C19	C	0.940914	-0.602270	-0.488855
C20	C	0.746517	-0.730752	-0.592888
C21	C	0.652611	-0.724088	-0.587492
C22	C	0.659193	-0.582274	-0.472673
C23	C	0.753099	-0.588938	-0.478069
C24	C	0.796758	-0.663180	-0.538177
C25	C	0.890666	-0.669848	-0.543568
C26	C	0.897246	-0.528030	-0.428754
C27	C	0.803340	-0.521366	-0.423358
C28	C	1.274422	-0.898977	-0.508061
C29	C	1.274480	-1.015760	-0.508087
C30	C	1.335356	-1.071073	-0.453964
C31	C	1.335410	-1.180802	-0.453995
C32	C	1.213704	-1.179896	-0.562273
C33	C	1.213655	-1.070169	-0.562246
C34	C	1.396181	-1.016664	-0.399805
C35	C	1.457061	-1.071977	-0.345677
C36	C	1.457115	-1.181707	-0.345708
C37	C	1.396289	-1.236123	-0.399867
C38	C	1.509003	-0.642730	-0.521618
C39	C	1.608946	-0.649853	-0.527386
C40	C	1.260990	-0.640783	-0.742609
C41	C	1.255244	-0.647076	-0.842550
C42	C	1.274550	-0.351990	-0.508126
C43	C	1.274582	-0.235216	-0.508144
C44	C	1.359489	-0.532697	-1.037009
C45	C	1.354093	-0.538607	-1.130913
C46	C	1.239052	-0.664798	-1.124262
C47	C	1.244448	-0.658888	-1.030358
C48	C	1.304670	-0.592837	-0.986735
C49	C	1.310070	-0.586934	-0.892830
C50	C	1.195025	-0.713119	-0.886181
C51	C	1.189629	-0.719028	-0.980085
C52	C	1.287957	-0.611233	-0.274473
C53	C	1.293878	-0.604656	-0.174542
H54	H	0.782065	-0.791208	-0.641826
C55	C	1.135602	-0.778601	-0.831654
C56	C	1.153857	-0.885381	-0.855600
C57	C	1.099145	-0.945734	-0.805382
H58	H	1.074278	-0.760022	-0.843523
H59	H	1.147444	-0.765698	-0.769471
H60	H	1.142009	-0.898277	-0.917768
H61	H	1.215171	-0.903991	-0.843728
H62	H	1.110987	-0.932831	-0.743199
H63	H	1.037824	-0.927146	-0.817255
H64	H	1.111529	-1.018190	-0.821616
H65	H	0.623630	-0.521823	-0.423741
C66	C	0.755771	-0.440866	-0.358128
C67	C	0.662779	-0.449504	-0.365098
C68	C	0.618933	-0.375373	-0.305012
H69	H	0.770305	-0.372173	-0.372208
H70	H	0.774565	-0.453427	-0.298552
H71	H	0.643992	-0.436935	-0.424660
H72	H	0.648218	-0.518181	-0.351009
H73	H	0.637727	-0.387934	-0.245437
H74	H	0.633474	-0.306685	-0.319098
H75	H	0.555834	-0.381230	-0.309728
H76	H	1.140596	-0.772803	-1.015615
C77	C	1.522957	-1.012828	-0.286761
C78	C	1.475374	-0.942682	-0.226122
C79	C	1.536048	-0.888189	-0.171826
H80	H	1.560131	-0.974829	-0.323331
H81	H	1.559210	-1.061451	-0.254480
H82	H	1.439137	-0.894066	-0.258400
H83	H	1.438203	-0.980654	-0.189533
H84	H	1.572301	-0.936812	-0.139545
H85	H	1.573219	-0.850196	-0.208403
H86	H	1.503772	-0.840596	-0.130671
H87	H	1.396344	-1.325473	-0.399895
H88	H	0.611708	-0.779110	-0.632045
C89	C	1.147516	-1.009964	-0.620860
C90	C	1.092839	-0.939718	-0.566571
C91	C	1.031911	-0.884233	-0.620541
H92	H	1.111209	-1.057960	-0.653129
H93	H	1.179587	-0.971963	-0.662021
H94	H	1.060770	-0.977717	-0.525426
H95	H	1.129121	-0.891701	-0.534303
H96	H	1.063983	-0.846231	-0.661702
H97	H	0.995611	-0.932237	-0.652807
H98	H	0.994812	-0.836558	-0.583715
H99	H	1.359107	-0.533153	-0.857314
C100	C	1.424759	-0.460814	-0.989680
C101	C	1.403886	-0.356904	-1.011385
C102	C	1.463986	-0.290655	-0.967794
H103	H	1.484319	-0.481326	-1.008514
H104	H	1.420113	-0.465837	-0.926546
H105	H	1.408540	-0.351885	-1.074506
H106	H	1.344336	-0.336360	-0.992549
H107	H	1.459340	-0.295678	-0.904659
H108	H	1.523543	-0.311176	-0.986631
H109	H	1.449827	-0.220144	-0.982508
C110	C	0.938014	-0.750324	-0.608977
C111	C	0.910094	-0.731562	-0.696662
C112	C	0.953698	-0.805664	-0.756945
H113	H	0.923409	-0.819014	-0.594959
H114	H	1.001142	-0.744614	-0.604417
H115	H	0.846980	-0.737281	-0.701218
H116	H	0.924700	-0.662886	-0.710708
H117	H	1.016826	-0.799954	-0.752385
H118	H	0.939090	-0.874349	-0.742918
H119	H	0.934767	-0.792938	-0.816446
H120	H	0.938163	-0.473010	-0.384202
C121	C	1.523252	-1.241570	-0.286851
C122	C	1.576492	-1.170429	-0.239402
C123	C	1.637418	-1.225532	-0.185160
H124	H	1.560532	-1.289277	-0.323450
H125	H	1.491182	-1.279489	-0.245628
H126	H	1.608560	-1.132528	-0.280619
H127	H	1.539237	-1.122720	-0.202786
H128	H	1.605347	-1.263451	-0.143937
H129	H	1.674691	-1.273238	-0.221765
H130	H	1.673542	-1.177271	-0.152953
H131	H	1.396142	-0.927316	-0.399771
C132	C	1.147701	-1.239158	-0.620968
C133	C	1.160757	-1.347089	-0.609388
C134	C	1.099962	-1.401711	-0.663432
H135	H	1.157269	-1.226000	-0.682178
H136	H	1.088030	-1.216165	-0.604259
H137	H	1.220414	-1.370075	-0.626102
H138	H	1.151182	-1.360279	-0.548189
H139	H	1.040290	-1.378718	-0.646723
H140	H	1.109535	-1.388545	-0.724639
H141	H	1.108806	-1.474947	-0.655576
C142	C	1.413504	-0.473354	-1.185653
C143	C	1.395875	-0.492642	-1.277227
C144	C	1.450579	-0.432534	-1.327679
H145	H	1.474831	-0.492001	-1.173858
H146	H	1.401230	-0.400840	-1.169563
H147	H	1.408156	-0.565140	-1.293311
H148	H	1.334559	-0.473990	-1.289049
H149	H	1.438304	-0.360021	-1.311589
H150	H	1.511902	-0.451186	-1.315877
H151	H	1.438619	-0.445605	-1.389817
H152	H	1.190022	-0.718573	-1.159796
