data_functionalizedCrystal
_audit_creation_method	'MofGen! by Chris Wilmer'
_symmetry_space_group_name_H-M	'P1'
_symmetry_Int_Tables_number	1
_symmetry_cell_setting	triclinic
loop_
_symmetry_equiv_pos_as_xyz
  x,y,z
_cell_length_a	15.995363
_cell_length_b	11.792241
_cell_length_c	10.268362
_cell_angle_alpha	90.005428
_cell_angle_beta	90.001437
_cell_angle_gamma	83.845406
loop_
_atom_site_label
_atom_site_type_symbol
_atom_site_fract_x
_atom_site_fract_y
_atom_site_fract_z
O1	O	-1.111644	-0.146363	-0.108205
O2	O	-0.867952	-0.164414	-0.108229
O3	O	-0.995711	0.009831	-0.108208
O4	O	-0.983884	-0.320608	-0.108227
O5	O	-0.995700	0.009838	0.108393
O6	O	-0.867940	-0.164407	0.108372
O7	O	-1.111632	-0.146356	0.108395
Cu8	Cu	-0.989785	-0.155381	0.128161
Cu9	Cu	-0.989799	-0.155389	-0.127995
O10	O	-0.983873	-0.320601	0.108374
C11	C	-0.836748	-0.163662	0.000068
C12	C	-0.743788	-0.161417	0.000060
N13	N	-0.989782	-0.155374	0.308327
C14	C	-0.994963	0.052120	0.000092
C15	C	-0.992739	0.178115	0.000091
C16	C	-0.406006	-0.153356	0.000092
C17	C	-0.452876	-0.029259	0.000582
C18	C	-0.549576	-0.031504	0.000083
C19	C	-0.573584	-0.157354	0.000077
C20	C	-0.532781	-0.218566	-0.123611
C21	C	-0.436132	-0.215443	-0.123704
C22	C	-0.435792	-0.217999	0.122611
C23	C	-0.532736	-0.217975	0.124236
C24	C	-0.668291	-0.159621	0.000064
C25	C	-0.311298	-0.151093	0.000096
C26	C	-0.142837	-0.147093	0.000098
C27	C	-0.235801	-0.149293	0.000109
C28	C	-0.984621	-0.362889	0.000071
C29	C	-0.986845	-0.488884	0.000064
C30	C	-0.988650	0.408793	0.000069
C31	C	-0.990922	0.280427	0.000081
N32	N	-0.989808	-0.155387	-0.308160
C33	C	-0.989794	-0.155387	0.573997
C34	C	-0.989785	-0.155383	0.426159
H35	H	-0.434125	0.020351	0.089284
H36	H	-0.433063	0.020117	-0.087625
H37	H	-0.547326	-0.311025	-0.128215
H38	H	-0.548518	-0.309748	0.131702
H39	H	-0.577219	0.016931	-0.088731
H40	H	-0.404446	-0.309494	0.123444
H41	H	-0.417625	-0.170807	-0.216159
N42	N	-0.396202	-0.329741	-0.130749
N43	N	-0.439742	-0.411560	-0.135591
H44	H	-0.411546	-0.492282	-0.140571
H45	H	-0.559845	-0.173290	0.215739
N46	N	-0.568151	-0.165287	-0.239102
N47	N	-0.645334	-0.162054	-0.260191
H48	H	-0.670318	-0.124434	-0.341759
N49	N	-0.584954	0.028868	0.111308
N50	N	-0.538232	0.072962	0.189845
H51	H	-0.563214	0.115611	0.268398
N52	N	-0.409787	-0.167092	0.240215
N53	N	-0.368979	-0.082541	0.235155
H54	H	-0.350611	-0.046578	0.318207
