data_functionalizedCrystal
_audit_creation_method	'MofGen! by Chris Wilmer'
_symmetry_space_group_name_H-M	'P1'
_symmetry_Int_Tables_number	1
_symmetry_cell_setting	triclinic
loop_
_symmetry_equiv_pos_as_xyz
  x,y,z
_cell_length_a	21.295411
_cell_length_b	19.077142
_cell_length_c	19.077068
_cell_angle_alpha	89.885450
_cell_angle_beta	92.278858
_cell_angle_gamma	92.323127
loop_
_atom_site_label
_atom_site_type_symbol
_atom_site_fract_x
_atom_site_fract_y
_atom_site_fract_z
Zn1	Zn	-0.405704	-1.063027	-0.323084
Zn2	Zn	0.094296	-0.563027	0.176916
Zn3	Zn	-0.304479	-1.058205	-0.440571
Zn4	Zn	0.195521	-0.558205	0.059429
Zn5	Zn	-0.296058	-0.945509	-0.318353
Zn6	Zn	0.203942	-0.445509	0.181647
Zn7	Zn	-0.405322	-0.940762	-0.435824
Zn8	Zn	0.094678	-0.440762	0.064176
O9	O	-0.352890	-1.001876	-0.379458
O10	O	0.147110	-0.501876	0.120542
O11	O	-0.395960	-1.160719	-0.342636
O12	O	0.104040	-0.660719	0.157364
O13	O	-0.215271	-1.043224	-0.424365
O14	O	0.284729	-0.543224	0.075635
O15	O	-0.307238	-0.965103	-0.220650
O16	O	0.192762	-0.465103	0.279350
O17	O	-0.321590	-1.157176	-0.428953
O18	O	0.178410	-0.657176	0.071047
O19	O	-0.387794	-1.051443	-0.224126
O20	O	0.112206	-0.551443	0.275874
O21	O	-0.209085	-0.960427	-0.334572
O22	O	0.290915	-0.460427	0.165428
O23	O	-0.306868	-0.846548	-0.329969
O24	O	0.193132	-0.346548	0.170031
O25	O	-0.493463	-0.957012	-0.420862
O26	O	0.006537	-0.457012	0.079138
O27	O	-0.387144	-0.843060	-0.416275
O28	O	0.112856	-0.343060	0.083725
O29	O	-0.493743	-1.046840	-0.338033
O30	O	0.006257	-0.546840	0.161967
O31	O	-0.321220	-1.038621	-0.538272
O32	O	0.178780	-0.538621	-0.038272
O33	O	-0.395309	-0.952336	-0.534784
O34	O	0.104691	-0.452336	-0.034784
C35	C	-0.346051	-0.819308	-0.372094
C36	C	0.153949	-0.319308	0.127906
C37	C	-0.343141	-0.741204	-0.368960
C38	C	0.156859	-0.241204	0.131040
C39	C	-0.383507	-0.702710	-0.412491
C40	C	0.116493	-0.202710	0.087509
C41	C	-0.380776	-0.629323	-0.409537
C42	C	0.119224	-0.129323	0.090463
C43	C	-0.337673	-0.594431	-0.363056
C44	C	0.162327	-0.094431	0.136944
C45	C	-0.297304	-0.632930	-0.319522
C46	C	0.202696	-0.132930	0.180478
C47	C	-0.300040	-0.706316	-0.322472
C48	C	0.199960	-0.206316	0.177528
C49	C	-0.325020	-0.375145	-0.349403
C50	C	0.174980	0.124855	0.150597
C51	C	-0.322286	-0.301754	-0.346457
C52	C	0.177714	0.198246	0.153543
C53	C	-0.405758	-0.298152	-0.436472
C54	C	0.094242	0.201848	0.063528
C55	C	-0.408487	-0.371539	-0.439422
C56	C	0.091513	0.128461	0.060578
C57	C	-0.368121	-0.410032	-0.395884
C58	C	0.131879	0.089968	0.104116
N59	N	-0.334878	-0.519418	-0.360038
N60	N	0.165122	-0.019418	0.139962
N61	N	-0.370919	-0.485044	-0.398900
N62	N	0.129081	0.014956	0.101100
C63	C	-0.517082	-1.001935	-0.379446
C64	C	-0.017082	-0.501935	0.120554
C65	C	-0.587051	-1.001960	-0.379440
C66	C	-0.087051	-0.501960	0.120560
C67	C	-0.620065	-1.048731	-0.336309
C68	C	-0.120065	-0.548731	0.163691
C69	C	-0.685806	-1.048731	-0.336279
C70	C	-0.185806	-0.548731	0.163721
C71	C	-0.718532	-1.001967	-0.379392
C72	C	-0.218532	-0.501967	0.120608
C73	C	-0.685511	-0.955187	-0.422526
C74	C	-0.185511	-0.455187	0.077474
C75	C	-0.619770	-0.955183	-0.422550
C76	C	-0.119770	-0.455183	0.077450
N77	N	-0.823666	-0.994080	-0.440645
N78	N	-0.323666	-0.494080	0.059355
N79	N	-0.886117	-0.994087	-0.440621
N80	N	-0.386117	-0.494087	0.059379
C81	C	-0.916605	-1.001974	-0.379321
C82	C	-0.416605	-0.501974	0.120679
N83	N	-0.882283	-1.009867	-0.318046
N84	N	-0.382283	-0.509867	0.181954
N85	N	-0.819827	-1.009863	-0.318072
N86	N	-0.319827	-0.509863	0.181928
C87	C	-0.789817	-1.001966	-0.379371
C88	C	-0.289817	-0.501966	0.120629
C89	C	-1.020903	-1.048749	-0.336153
C90	C	-0.520903	-0.548749	0.163847
C91	C	-1.086645	-1.048744	-0.336121
C92	C	-0.586645	-0.548744	0.163879
C93	C	-1.086349	-0.955203	-0.422375
C94	C	-0.586349	-0.455203	0.077625
C95	C	-1.020607	-0.955204	-0.422401
C96	C	-0.520607	-0.455204	0.077599
C97	C	-0.987888	-1.001981	-0.379291
C98	C	-0.487888	-0.501981	0.120709
C99	C	-0.189337	-1.001860	-0.379422
C100	C	0.310663	-0.501860	0.120578
C101	C	-0.119367	-1.001979	-0.379234
C102	C	0.380633	-0.501979	0.120766
C103	C	-0.359151	-0.994459	-0.562025
C104	C	0.140849	-0.494459	-0.062025
C105	C	-0.361853	-0.991350	-0.640130
C106	C	0.138147	-0.491350	-0.140130
C107	C	-0.359749	-0.185157	-0.386848
C108	C	0.140251	0.314843	0.113152
C109	C	-0.362653	-0.263261	-0.389988
C110	C	0.137347	0.236739	0.110012
C111	C	-0.324583	-1.034849	-0.678618
C112	C	0.175417	-0.534849	-0.178618
C113	C	-0.327128	-1.031929	-0.752007
C114	C	0.172872	-0.531929	-0.252007
C115	C	-0.366940	-0.985507	-0.786906
C116	C	0.133060	-0.485507	-0.286906
C117	C	-0.404215	-0.942007	-0.748412
C118	C	0.095785	-0.442007	-0.248412
C119	C	-0.401673	-0.944931	-0.675026
C120	C	0.098327	-0.444931	-0.175026
C121	C	-0.378679	-0.971945	-1.006197
C122	C	0.121321	-0.471945	-0.506197
C123	C	-0.381217	-0.969023	-1.079589
C124	C	0.118783	-0.469023	-0.579589
C125	C	-0.304131	-1.058947	-1.083178
C126	C	0.195869	-0.558947	-0.583178
C127	C	-0.301590	-1.061863	-1.009789
C128	C	0.198410	-0.561863	-0.509789
C129	C	-0.338867	-1.018366	-0.971303
C130	C	0.161133	-0.518366	-0.471303
N131	N	-0.369541	-0.982520	-0.861920
N132	N	0.130459	-0.482520	-0.361920
N133	N	-0.336269	-1.021357	-0.896290
N134	N	0.163731	-0.521357	-0.396290
C135	C	-0.346620	-1.009341	-0.196179
C136	C	0.153380	-0.509341	0.303821
C137	C	-0.343947	-1.012522	-0.118077
C138	C	0.156053	-0.512522	0.381923
H139	H	-0.292146	-0.406477	-0.313957
H140	H	0.207854	0.093523	0.186043
C141	C	-1.186990	-0.913687	-0.460651
C142	C	-0.686990	-0.413687	0.039349
C143	C	-1.122314	-0.903806	-0.469776
C144	C	-0.622314	-0.403806	0.030224
H145	H	-1.209194	-0.881959	-0.489919
H146	H	-0.709194	-0.381959	0.010081
H147	H	-1.195749	-0.905317	-0.413027
H148	H	-0.695749	-0.405317	0.086973
H149	H	-1.199889	-0.960487	-0.472829
H150	H	-0.699889	-0.460487	0.027171
H151	H	-1.109414	-0.857007	-0.457593
H152	H	-0.609414	-0.357007	0.042407
H153	H	-1.113551	-0.912170	-0.517410
H154	H	-0.613551	-0.412170	-0.017410
C155	C	-0.919701	-0.913668	-0.460735
C156	C	-0.419701	-0.413668	0.039265
C157	C	-0.984314	-0.903797	-0.469819
C158	C	-0.484314	-0.403797	0.030181
H159	H	-0.897296	-0.881925	-0.490007
H160	H	-0.397296	-0.381925	0.009993
H161	H	-0.911066	-0.960456	-0.472928
H162	H	-0.411066	-0.460456	0.027072
H163	H	-0.906920	-0.905305	-0.413110
H164	H	-0.406920	-0.405305	0.086890
H165	H	-0.997096	-0.912165	-0.517443
H166	H	-0.497096	-0.412165	-0.017443
H167	H	-0.992953	-0.856998	-0.457630
H168	H	-0.492953	-0.356998	0.042370
H169	H	-0.292161	-1.072647	-0.650209
H170	H	0.207839	-0.572647	-0.150209
H171	H	-0.432023	-0.909511	-0.643689
H172	H	0.067977	-0.409511	-0.143689
C173	C	-0.398436	-0.781401	-0.510349
C174	C	0.101564	-0.281401	-0.010349
C175	C	-0.430888	-0.741059	-0.463585
C176	C	0.069112	-0.241059	0.036415
H177	H	-0.427690	-0.805070	-0.541894
H178	H	0.072310	-0.305070	-0.041894
H179	H	-0.374793	-0.814829	-0.484848
H180	H	0.125207	-0.314829	0.015152
H181	H	-0.370824	-0.751660	-0.536028
H182	H	0.129176	-0.251660	-0.036028
H183	H	-0.458496	-0.770801	-0.437902
H184	H	0.041504	-0.270801	0.062098
H185	H	-0.454542	-0.707627	-0.489089
H186	H	0.045458	-0.207627	0.010911
C187	C	-0.463540	-0.633133	-0.498828
C188	C	0.036460	-0.133133	0.001172
C189	C	-0.425138	-0.587010	-0.457398
C190	C	0.074862	-0.087010	0.042602
H191	H	-0.490924	-0.607009	-0.528381
H192	H	0.009076	-0.107009	-0.028381
H193	H	-0.487690	-0.663006	-0.469408
H194	H	0.012310	-0.163006	0.030592
H195	H	-0.438048	-0.660656	-0.526800
H196	H	0.061952	-0.160656	-0.026800
H197	H	-0.450631	-0.559491	-0.429423
H198	H	0.049369	-0.059491	0.070577
H199	H	-0.400987	-0.557125	-0.486821
H200	H	0.099013	-0.057125	0.013179
C201	C	-0.213721	-0.280470	-0.311116
C202	C	0.286279	0.219530	0.188884
C203	C	-0.274914	-0.263390	-0.295358
C204	C	0.225086	0.236610	0.204642
H205	H	-0.184480	-0.256785	-0.279568
H206	H	0.315520	0.243215	0.220432
H207	H	-0.205608	-0.266526	-0.357824
H208	H	0.294392	0.233474	0.142176
H209	H	-0.209572	-0.329684	-0.306630
H210	H	0.290428	0.170316	0.193370
H211	H	-0.279064	-0.214176	-0.299849
H212	H	0.220936	0.285824	0.200151
H213	H	-0.283029	-0.277330	-0.248638
H214	H	0.216971	0.222670	0.251362
C215	C	-0.256048	-0.522036	-0.275029
C216	C	0.243952	-0.022036	0.224971
C217	C	-0.249927	-0.594579	-0.268426
C218	C	0.250073	-0.094579	0.231574
H219	H	-0.226795	-0.498362	-0.243487
H220	H	0.273205	0.001638	0.256513
H221	H	-0.297556	-0.510453	-0.264334
H222	H	0.202444	-0.010453	0.235666
H223	H	-0.247932	-0.508095	-0.321745
H224	H	0.252068	-0.008095	0.178255
H225	H	-0.258047	-0.608521	-0.221712
H226	H	0.241953	-0.108521	0.278288
H227	H	-0.208409	-0.606167	-0.279116
H228	H	0.291591	-0.106167	0.220884
H229	H	-0.273784	-1.094360	-1.114522
H230	H	0.226216	-0.594360	-0.614522
H231	H	-0.296778	-1.067349	-0.783341
H232	H	0.203222	-0.567349	-0.283341
H233	H	-0.592891	-0.917093	-0.457672
H234	H	-0.092891	-0.417093	0.042328
H235	H	-0.438623	-0.266804	-0.471917
H236	H	0.061377	0.233196	0.028083
C237	C	-0.708552	-0.916112	-0.540125
C238	C	-0.208552	-0.416112	-0.040125
C239	C	-0.721478	-0.903783	-0.469921
C240	C	-0.221478	-0.403783	0.030079
H241	H	-0.730753	-0.884371	-0.569382
H242	H	-0.230753	-0.384371	-0.069382
H243	H	-0.721462	-0.962901	-0.552305
H244	H	-0.221462	-0.462901	-0.052305
H245	H	-0.664672	-0.909415	-0.546301
H246	H	-0.164672	-0.409415	-0.046301
H247	H	-0.765358	-0.910486	-0.463743
H248	H	-0.265358	-0.410486	0.036257
H249	H	-0.708571	-0.856983	-0.457736
H250	H	-0.208571	-0.356983	0.042264
C251	C	-0.225662	-1.150469	-1.020712
C252	C	0.274338	-0.650469	-0.520712
C253	C	-0.257835	-1.112900	-0.971431
C254	C	0.242165	-0.612900	-0.471431
H255	H	-0.198653	-1.181980	-0.997030
H256	H	0.301347	-0.681980	-0.497030
H257	H	-0.201403	-1.118727	-1.048138
H258	H	0.298597	-0.618727	-0.548138
H259	H	-0.255113	-1.176187	-1.050384
H260	H	0.244887	-0.676187	-0.550384
H261	H	-0.228384	-1.087177	-0.941763
H262	H	0.271616	-0.587177	-0.441763
H263	H	-0.282095	-1.144646	-0.943993
H264	H	0.217905	-0.644646	-0.443993
C265	C	-1.027796	-1.141203	-0.250886
C266	C	-0.527796	-0.641203	0.249114
C267	C	-0.984933	-1.100156	-0.288759
C268	C	-0.484933	-0.600156	0.211241
H269	H	-1.005589	-1.172935	-0.221624
H270	H	-0.505589	-0.672935	0.278376
H271	H	-1.055505	-1.166836	-0.282573
H272	H	-0.555505	-0.666836	0.217427
H273	H	-1.051357	-1.111673	-0.222765
H274	H	-0.551357	-0.611673	0.277235
H275	H	-0.961375	-1.129685	-0.316884
H276	H	-0.461375	-0.629685	0.183116
H277	H	-0.957213	-1.074521	-0.257068
H278	H	-0.457213	-0.574521	0.242932
C279	C	-1.157674	-1.062360	-0.241956
C280	C	-0.657674	-0.562360	0.258044
C281	C	-1.122932	-1.100155	-0.288699
C282	C	-0.622932	-0.600155	0.211301
H283	H	-1.180072	-1.094100	-0.212676
H284	H	-0.680072	-0.594100	0.287324
H285	H	-1.186571	-1.034515	-0.267625
H286	H	-0.686571	-0.534515	0.232375
H287	H	-1.129937	-1.032840	-0.213860
H288	H	-0.629937	-0.532840	0.286140
H289	H	-1.150670	-1.129671	-0.316799
H290	H	-0.650670	-0.629671	0.183201
H291	H	-1.094032	-1.128012	-0.263028
H292	H	-0.594032	-0.628012	0.236972
H293	H	-0.267172	-0.737657	-0.287021
H294	H	0.232828	-0.237657	0.212979
H295	H	-0.443584	-0.399943	-0.477273
H296	H	0.056416	0.100057	0.022727
C297	C	-0.626967	-1.141191	-0.251048
C298	C	-0.126967	-0.641191	0.248952
C299	C	-0.584101	-1.100140	-0.288915
C300	C	-0.084101	-0.600140	0.211085
H301	H	-0.604761	-1.172924	-0.221785
H302	H	-0.104761	-0.672924	0.278215
H303	H	-0.654672	-1.166823	-0.282739
H304	H	-0.154672	-0.666823	0.217261
H305	H	-0.650530	-1.111664	-0.222928
H306	H	-0.150530	-0.611664	0.277072
H307	H	-0.560540	-1.129667	-0.317038
H308	H	-0.060540	-0.629667	0.182962
H309	H	-0.556384	-1.074506	-0.257220
H310	H	-0.056384	-0.574506	0.242780
C311	C	-0.457176	-0.880442	-1.068674
C312	C	0.042824	-0.380442	-0.568674
C313	C	-0.424989	-0.918000	-1.117952
C314	C	0.075011	-0.418000	-0.617952
H315	H	-0.484199	-0.848948	-1.092360
H316	H	0.015801	-0.348948	-0.592360
H317	H	-0.427738	-0.854712	-1.039008
H318	H	0.072262	-0.354712	-0.539008
H319	H	-0.481426	-0.912197	-1.041243
H320	H	0.018574	-0.412197	-0.541243
H321	H	-0.400735	-0.886245	-1.145380
H322	H	0.099265	-0.386245	-0.645380
H323	H	-0.454430	-0.943732	-1.147630
H324	H	0.045570	-0.443732	-0.647630
H325	H	-0.712691	-1.086817	-0.301152
H326	H	-0.212691	-0.586817	0.198848
H327	H	-0.436634	-0.904213	-0.776833
H328	H	0.063366	-0.404213	-0.276833
H329	H	-0.409030	-0.936527	-0.974866
H330	H	0.090970	-0.436527	-0.474866
