data_functionalizedCrystal
_audit_creation_method	'MofGen! by Chris Wilmer'
_symmetry_space_group_name_H-M	'P1'
_symmetry_Int_Tables_number	1
_symmetry_cell_setting	triclinic
loop_
_symmetry_equiv_pos_as_xyz
  x,y,z
_cell_length_a	6.817900
_cell_length_b	16.417823
_cell_length_c	16.255661
_cell_angle_alpha	95.376633
_cell_angle_beta	103.488922
_cell_angle_gamma	103.385419
loop_
_atom_site_label
_atom_site_type_symbol
_atom_site_fract_x
_atom_site_fract_y
_atom_site_fract_z
V1	V	-4.026192	-0.116562	-0.264166
O2	O	-4.014212	0.004905	-0.258836
O3	O	-3.977235	-0.230453	-0.262649
O4	O	-3.977760	-0.115075	-0.379245
O5	O	-4.013683	-0.111273	-0.141432
V6	V	-4.509896	-0.101997	-0.249450
O7	O	-4.287053	-0.148512	-0.296444
O8	O	-4.699232	-0.070048	-0.217172
O9	O	-4.335646	0.011894	-0.250967
O10	O	-4.639272	-0.223464	-0.254780
O11	O	-4.639801	-0.107287	-0.372184
O12	O	-4.335121	-0.103485	-0.134371
C13	C	-3.822101	-0.258208	-0.258556
C14	C	-3.863360	-0.351318	-0.258083
C15	C	-3.956974	-0.640881	-0.179060
C16	C	-3.918179	-0.553392	-0.179491
C17	C	-3.998487	-0.577691	-0.334565
C18	C	-4.037266	-0.665178	-0.334133
C19	C	-4.016517	-0.696770	-0.256378
C20	C	-3.938944	-0.521794	-0.257241
C21	C	-3.896882	-0.426935	-0.257709
C22	C	-4.058578	-0.791635	-0.255910
C23	C	-3.822770	-0.111030	-0.407285
C24	C	-3.864452	-0.110567	-0.501365
C25	C	-3.775033	-0.105042	-0.724170
C26	C	-3.931131	-0.176357	-0.793826
C27	C	-3.940841	-0.109700	-0.673612
C28	C	-3.859037	-0.037569	-0.771591
C29	C	-4.014612	-0.108858	-0.839993
C30	C	-4.096420	-0.181079	-0.742038
C31	C	-4.024264	-0.042228	-0.719787
C32	C	-4.180498	-0.113563	-0.789424
C33	C	-3.898337	-0.110186	-0.577764
C34	C	-4.057133	-0.108379	-0.935841
C35	C	-4.154121	0.039645	-0.255058
C36	C	-4.092101	0.132753	-0.255536
C37	C	-4.153452	-0.107532	-0.106326
C38	C	-4.091009	-0.107990	-0.012245
H39	H	-3.603295	-0.101532	-0.695681
Br40	Br	-4.026637	-0.534809	-0.440084
H41	H	-3.892205	-0.233064	-0.826055
Br42	Br	-3.837355	-0.477544	-0.074555
Br43	Br	-4.118015	-0.741033	-0.439070
H44	H	-4.196365	-0.241794	-0.728725
H45	H	-4.352354	-0.117185	-0.817780
Br46	Br	-4.089014	0.052293	-0.666027
H47	H	-3.759073	0.023065	-0.785047
H48	H	-3.940069	-0.666600	-0.115747
