data_functionalizedCrystal
_audit_creation_method	'MofGen! by Chris Wilmer'
_symmetry_space_group_name_H-M	'P1'
_symmetry_Int_Tables_number	1
_symmetry_cell_setting	triclinic
loop_
_symmetry_equiv_pos_as_xyz
  x,y,z
_cell_length_a	8.559649
_cell_length_b	15.944551
_cell_length_c	7.681481
_cell_angle_alpha	84.256492
_cell_angle_beta	94.913240
_cell_angle_gamma	76.638701
loop_
_atom_site_label
_atom_site_type_symbol
_atom_site_fract_x
_atom_site_fract_y
_atom_site_fract_z
O1	O	2.105021	-0.019570	-0.146399
O2	O	1.639821	0.023810	-0.146411
O3	O	1.885126	-0.120976	-0.146389
O4	O	1.859716	0.125215	-0.146421
O5	O	1.915319	-0.138833	0.146471
O6	O	1.670014	0.005953	0.146450
O7	O	2.135214	-0.037427	0.146461
Zn8	Zn	1.907408	-0.018572	0.192953
Zn9	Zn	1.867627	0.004955	-0.192903
O10	O	1.889909	0.107359	0.146439
C11	C	1.595387	0.018169	0.000018
C12	C	1.418008	0.027954	0.000014
C13	C	1.899168	-0.161130	0.000042
C14	C	1.896006	-0.254172	0.000042
C15	C	1.736394	-0.458726	0.000014
C16	C	1.825398	-0.533331	0.144414
C17	C	1.890284	-0.424528	0.000029
C18	C	1.795667	-0.515712	-0.144323
C19	C	1.884744	-0.589082	0.000008
C20	C	1.979342	-0.497915	0.144548
C21	C	1.949576	-0.480280	-0.144319
C22	C	2.038696	-0.554877	0.000116
C23	C	1.893471	-0.329732	0.000042
C24	C	1.881571	-0.683878	0.000007
C25	C	2.179647	-0.031786	0.000028
C26	C	2.357025	-0.041570	0.000021
C27	C	1.875866	0.147513	0.000005
C28	C	1.879027	0.240556	-0.000008
N29	N	1.934569	-0.034630	0.456290
N30	N	1.840479	0.021005	-0.456240
H31	H	1.440515	-0.108579	0.000021
H32	H	1.334507	0.094969	-0.000004
H33	H	2.030633	-0.091415	0.531504
H34	H	1.608675	-0.417184	0.000155
H35	H	2.056976	-0.489573	0.266760
H36	H	2.002022	-0.456903	-0.266401
H37	H	1.717971	-0.524143	-0.266411
C38	C	2.211413	-0.610829	0.000216
C39	C	2.341657	-0.613120	0.153082
C40	C	2.514372	-0.669073	0.153189
C41	C	2.556844	-0.722736	0.000432
C42	C	2.426596	-0.720447	-0.152445
C43	C	2.253881	-0.664494	-0.152553
H44	H	2.310220	-0.573394	0.266172
H45	H	2.610790	-0.670767	0.266360
H46	H	2.684698	-0.764156	0.000512
H47	H	2.458033	-0.760173	-0.265535
H48	H	2.157463	-0.662800	-0.265723
C49	C	1.710713	0.097720	0.442173
C50	C	1.690324	0.110160	0.239406
C51	C	1.560556	0.186876	0.137806
C52	C	1.451177	0.251153	0.238974
C53	C	1.471563	0.238715	0.441753
C54	C	1.601331	0.161999	0.543353
H55	H	1.771296	0.062576	0.164505
H56	H	1.545466	0.196083	-0.012305
H57	H	1.355115	0.307943	0.163764
H58	H	1.390591	0.286299	0.516654
H59	H	1.616421	0.152792	0.693464
C60	C	1.754477	-0.564887	0.309325
C61	C	1.580822	-0.521209	0.341042
C62	C	1.509889	-0.552760	0.505945
C63	C	1.612612	-0.627989	0.639130
C64	C	1.786277	-0.671671	0.607416
C65	C	1.857210	-0.640121	0.442514
H66	H	1.504771	-0.465516	0.242447
H67	H	1.381330	-0.520423	0.529420
H68	H	1.560103	-0.651345	0.761200
H69	H	1.862328	-0.727364	0.706011
H70	H	1.985770	-0.672458	0.419039
