data_functionalizedCrystal
_audit_creation_method	'MofGen! by Chris Wilmer'
_symmetry_space_group_name_H-M	'P1'
_symmetry_Int_Tables_number	1
_symmetry_cell_setting	triclinic
loop_
_symmetry_equiv_pos_as_xyz
  x,y,z
_cell_length_a	12.759401
_cell_length_b	12.594516
_cell_length_c	12.759393
_cell_angle_alpha	89.971950
_cell_angle_beta	89.979062
_cell_angle_gamma	90.017577
loop_
_atom_site_label
_atom_site_type_symbol
_atom_site_fract_x
_atom_site_fract_y
_atom_site_fract_z
Zn1	Zn	1.606257	-0.423647	-0.594038
Zn2	Zn	1.606143	-0.601663	-0.418366
Zn3	Zn	1.430555	-0.423704	-0.418373
Zn4	Zn	1.430543	-0.601589	-0.594003
O5	O	1.518375	-0.512651	-0.506195
O6	O	1.753263	-0.447269	-0.570746
O7	O	1.582809	-0.578111	-0.271345
O8	O	1.453915	-0.274751	-0.441693
O9	O	1.753179	-0.578056	-0.441680
O10	O	1.583002	-0.274709	-0.570754
O11	O	1.453805	-0.447365	-0.271351
O12	O	1.283533	-0.447293	-0.441659
O13	O	1.453894	-0.577930	-0.741029
O14	O	1.283524	-0.577985	-0.570694
O15	O	1.582990	-0.447197	-0.741054
O16	O	1.582797	-0.750599	-0.441646
O17	O	1.453784	-0.750545	-0.570686
C18	C	1.245407	-0.512638	-0.506174
C19	C	1.128631	-0.512658	-0.506190
C20	C	1.073791	-0.580812	-0.573272
C21	C	0.964067	-0.580817	-0.573293
C22	C	0.964031	-0.444509	-0.439140
C23	C	1.073753	-0.444500	-0.439125
C24	C	1.518306	-0.789192	-0.506185
C25	C	1.518372	-0.907497	-0.506215
C26	C	1.448195	-0.976759	-0.576351
C27	C	1.422594	-1.047629	-0.480484
C28	C	1.544069	-1.047427	-0.602099
C29	C	1.492721	-0.976808	-0.410297
C30	C	1.614240	-0.976600	-0.531977
C31	C	1.588675	-1.047438	-0.436044
C32	C	1.792408	-0.512665	-0.506216
C33	C	1.909184	-0.512671	-0.506226
C34	C	1.518453	-0.512549	-0.780228
C35	C	1.518487	-0.512505	-0.897005
C36	C	1.518472	-0.235030	-0.506228
C37	C	1.518514	-0.116725	-0.506242
C38	C	1.585712	-0.444422	-0.951882
C39	C	1.585730	-0.444376	-1.061606
C40	C	1.451294	-0.580506	-1.061567
C41	C	1.451272	-0.580546	-0.951844
C42	C	1.518357	-0.512676	-0.233228
C43	C	1.518527	-0.512420	-0.116451
H44	H	1.118469	-0.636308	-0.627883
O45	O	1.710939	-0.939478	-0.557875
C46	C	1.785118	-0.977035	-0.484862
H47	H	1.754041	-1.052168	-0.445852
H48	H	1.861754	-0.995610	-0.526985
H49	H	1.799544	-0.913698	-0.422711
H50	H	1.640470	-0.388934	-1.106282
O51	O	1.569814	-1.084310	-0.698899
C52	C	1.495527	-1.048320	-0.772567
H53	H	1.455472	-0.973852	-0.741392
H54	H	1.536664	-1.029153	-0.849618
H55	H	1.434377	-1.112850	-0.786263
H56	H	0.919422	-0.636313	-0.627920
H57	H	0.919337	-0.389018	-0.384537
O58	O	1.650882	-0.378169	-0.898659
C59	C	1.627977	-0.272078	-0.925505
H60	H	1.544052	-0.266694	-0.955652
H61	H	1.637032	-0.219516	-0.853358
H62	H	1.684324	-0.244237	-0.989210
O63	O	1.386079	-0.646841	-0.898576
C64	C	1.408987	-0.752916	-0.925392
H65	H	1.492921	-0.758288	-0.955571
H66	H	1.399905	-0.805521	-0.853222
H67	H	1.352659	-0.780714	-0.989064
O68	O	1.126869	-0.378257	-0.373857
C69	C	1.054907	-0.318089	-0.314679
H70	H	0.976680	-0.361685	-0.310974
H71	H	1.086576	-0.306631	-0.231919
H72	H	1.043276	-0.237300	-0.353291
O73	O	1.659415	-1.084366	-0.365158
C74	C	1.607531	-1.147448	-0.289985
H75	H	1.531123	-1.178726	-0.324477
H76	H	1.659768	-1.217103	-0.267067
H77	H	1.589746	-1.097527	-0.217626
H78	H	1.396572	-0.635905	-1.106230
O79	O	1.326018	-1.084906	-0.454318
C80	C	1.333371	-1.146535	-0.362336
H81	H	1.406309	-1.122326	-0.316629
H82	H	1.260862	-1.132984	-0.311861
H83	H	1.338887	-1.234128	-0.384136
H84	H	1.470950	-0.945916	-0.329198
H85	H	1.388743	-0.945724	-0.635576
