data_functionalizedCrystal
_audit_creation_method	'MofGen! by Chris Wilmer'
_symmetry_space_group_name_H-M	'P1'
_symmetry_Int_Tables_number	1
_symmetry_cell_setting	triclinic
loop_
_symmetry_equiv_pos_as_xyz
  x,y,z
_cell_length_a	12.837943
_cell_length_b	13.596369
_cell_length_c	12.837942
_cell_angle_alpha	90.005289
_cell_angle_beta	94.828940
_cell_angle_gamma	90.004014
loop_
_atom_site_label
_atom_site_type_symbol
_atom_site_fract_x
_atom_site_fract_y
_atom_site_fract_z
O1	O	1.402337	0.081773	0.272142
O2	O	1.902337	0.581773	0.772142
O3	O	1.099204	0.081779	0.258699
O4	O	1.599204	0.581779	0.758699
O5	O	1.244049	0.081770	0.113854
O6	O	1.744049	0.581770	0.613854
O7	O	1.257492	0.081782	0.416987
O8	O	1.757492	0.581782	0.916987
O9	O	1.244032	-0.081813	0.113844
O10	O	1.744032	0.418187	0.613844
O11	O	1.099187	-0.081804	0.258689
O12	O	1.599187	0.418196	0.758689
O13	O	1.402320	-0.081810	0.272132
O14	O	1.902320	0.418190	0.772132
Zn15	Zn	1.250751	-0.107779	0.265409
Zn16	Zn	1.750751	0.392221	0.765409
Zn17	Zn	1.250773	0.107748	0.265422
Zn18	Zn	1.750773	0.607748	0.765422
O19	O	1.257475	-0.081801	0.416977
O20	O	1.757475	0.418199	0.916977
C21	C	1.060126	-0.000012	0.254153
C22	C	1.560126	0.499988	0.754153
C23	C	0.943711	-0.000010	0.240608
C24	C	1.443711	0.499990	0.740608
N25	N	1.250743	-0.254871	0.265400
N26	N	1.750743	0.245129	0.765400
C27	C	0.718837	-0.000018	0.403437
C28	C	1.218837	0.499982	0.903437
C29	C	0.609454	-0.000016	0.390716
C30	C	1.109454	0.499984	0.890716
C31	C	0.615562	-0.000013	0.202445
C32	C	1.115562	0.499987	0.702445
C33	C	0.724944	-0.000014	0.215166
C34	C	1.224944	0.499986	0.715166
C35	C	0.776578	-0.000015	0.315666
C36	C	1.276578	0.499985	0.815666
C37	C	0.885962	-0.000009	0.328386
C38	C	1.385962	0.499991	0.828386
C39	C	0.892067	-0.000013	0.140116
C40	C	1.392067	0.499987	0.640116
C41	C	0.782685	-0.000012	0.127395
C42	C	1.282685	0.499988	0.627395
C43	C	1.250772	-0.656162	0.265423
C44	C	1.750772	-0.156162	0.765423
C45	C	1.250761	-0.544511	0.265420
C46	C	1.750761	-0.044511	0.765420
C47	C	1.250758	-0.455520	0.265412
C48	C	1.750758	0.044480	0.765412
C49	C	1.250746	-0.343862	0.265407
C50	C	1.750746	0.156138	0.765407
C51	C	1.441398	-0.000017	0.276679
C52	C	1.941398	0.499983	0.776679
C53	C	1.557813	-0.000013	0.290223
C54	C	2.057813	0.499987	0.790223
C55	C	1.239499	-0.000021	0.074780
C56	C	1.739499	0.499979	0.574780
C57	C	1.225954	-0.000019	-0.041635
C58	C	1.725954	0.499981	0.458365
N59	N	1.250788	0.254840	0.265424
N60	N	1.750788	0.754840	0.765424
C61	C	1.388784	-0.000002	-0.266510
C62	C	1.888784	0.499998	0.233490
C63	C	1.376062	0.000000	-0.375892
C64	C	1.876062	0.500000	0.124108
C65	C	1.187791	-0.000006	-0.369785
C66	C	1.687791	0.499994	0.130215
C67	C	1.200513	-0.000008	-0.260402
C68	C	1.700513	0.499992	0.239598
C69	C	1.301012	-0.000007	-0.208769
C70	C	1.801012	0.499993	0.291231
C71	C	1.313732	-0.000016	-0.099384
C72	C	1.813732	0.499984	0.400616
C73	C	1.125462	-0.000016	-0.093279
C74	C	1.625462	0.499984	0.406721
C75	C	1.112741	-0.000014	-0.202661
C76	C	1.612741	0.499986	0.297339
C77	C	1.262025	-0.000008	0.456051
C78	C	1.762025	0.499992	0.956051
C79	C	1.275569	-0.000004	0.572467
C80	C	1.775569	0.499996	1.072467
H81	H	0.928000	-0.000012	0.410218
H82	H	1.428000	0.499988	0.910218
H83	H	1.395564	-0.000019	-0.057346
H84	H	1.895564	0.499981	0.442654
O85	O	1.090119	-0.000128	-0.419830
O86	O	1.590119	0.499872	0.080170
C87	C	1.035954	-0.084861	-0.391286
C88	C	1.535954	0.415139	0.108714
H89	H	1.071951	-0.113119	-0.312743
H90	H	1.571951	0.386881	0.187257
H91	H	0.950277	-0.065801	-0.384747
H92	H	1.450277	0.434199	0.115253
H93	H	1.041834	-0.144178	-0.453287
H94	H	1.541834	0.355822	0.046713
H95	H	1.470614	-0.000010	-0.224469
H96	H	1.970614	0.499990	0.275531
H97	H	1.447536	0.000008	-0.422901
H98	H	1.947536	0.500008	0.077099
H99	H	1.030917	-0.000011	-0.244717
H100	H	1.530917	0.499989	0.255283
H101	H	0.740630	-0.000023	0.045571
H102	H	1.240630	0.499977	0.545571
H103	H	1.053992	-0.000028	-0.046254
H104	H	1.553992	0.499972	0.453746
H105	H	0.760878	-0.000017	0.485268
H106	H	1.260878	0.499983	0.985268
O107	O	0.948317	-0.000051	0.054959
O108	O	1.448317	0.499949	0.554959
C109	C	1.055933	-0.000020	0.087733
C110	C	1.555933	0.499980	0.587733
H111	H	1.068250	-0.030997	0.170364
H112	H	1.568250	0.469003	0.670364
H113	H	1.099454	-0.047504	0.032439
H114	H	1.599454	0.452496	0.532439
H115	H	1.087118	0.078462	0.086896
H116	H	1.587118	0.578462	0.586896
O117	O	0.553410	0.000160	0.476009
O118	O	1.053410	0.500160	0.976009
C119	C	0.578311	0.084868	0.536408
C120	C	1.078311	0.584868	1.036408
H121	H	0.610173	0.144083	0.484832
H122	H	1.110173	0.644083	0.984832
H123	H	0.504996	0.113307	0.570746
H124	H	1.004996	0.613307	1.070746
H125	H	0.639898	0.065711	0.602484
H126	H	1.139898	0.565711	1.102484
O127	O	0.565230	0.000020	0.104902
O128	O	1.065230	0.500020	0.604902
C129	C	0.456305	-0.000015	0.112502
C130	C	0.956305	0.499985	0.612502
H131	H	0.438747	0.030960	0.191667
H132	H	0.938747	0.530960	0.691667
H133	H	0.416677	0.047468	0.047551
H134	H	0.916677	0.547468	0.547551
H135	H	0.425412	-0.078498	0.104433
H136	H	0.925412	0.421502	0.604433
