data_functionalizedCrystal
_audit_creation_method	'MofGen! by Chris Wilmer'
_symmetry_space_group_name_H-M	'P1'
_symmetry_Int_Tables_number	1
_symmetry_cell_setting	triclinic
loop_
_symmetry_equiv_pos_as_xyz
  x,y,z
_cell_length_a	19.188930
_cell_length_b	10.868271
_cell_length_c	11.792254
_cell_angle_alpha	90.005308
_cell_angle_beta	83.671689
_cell_angle_gamma	90.018197
loop_
_atom_site_label
_atom_site_type_symbol
_atom_site_fract_x
_atom_site_fract_y
_atom_site_fract_z
O1	O	0.926951	0.102719	0.141693
O2	O	1.426951	0.602719	0.641693
O3	O	0.723748	0.102634	0.160768
O4	O	1.223748	0.602634	0.660768
O5	O	0.830276	0.102670	-0.014013
O6	O	1.330276	0.602670	0.485987
O7	O	0.820423	0.102683	0.316474
O8	O	1.320423	0.602683	0.816474
O9	O	0.830267	-0.101975	-0.014019
O10	O	1.330267	0.398025	0.485981
O11	O	0.723740	-0.102010	0.160761
O12	O	1.223740	0.397990	0.660761
O13	O	0.926942	-0.101926	0.141687
O14	O	1.426942	0.398074	0.641687
Zn15	Zn	0.825340	-0.134460	0.151223
Zn16	Zn	1.325340	0.365540	0.651223
Zn17	Zn	0.825351	0.135168	0.151232
Zn18	Zn	1.325351	0.635168	0.651232
O19	O	0.820414	-0.101961	0.316467
O20	O	1.320414	0.398039	0.816467
C21	C	0.697729	0.000301	0.160147
C22	C	1.197729	0.500301	0.660147
C23	C	0.620214	0.000269	0.158292
C24	C	1.120214	0.500269	0.658292
N25	N	0.825337	-0.318474	0.151216
N26	N	1.325337	0.181526	0.651216
C27	C	0.825348	-0.569480	0.151229
C28	C	1.325348	-0.069480	0.651229
C29	C	0.825339	-0.429802	0.151225
C30	C	1.325339	0.070198	0.651225
C31	C	0.575874	0.000292	0.260848
C32	C	1.075874	0.500292	0.760848
C33	C	0.503040	0.000306	0.259106
C34	C	1.003040	0.500306	0.759106
C35	C	0.474550	0.000321	0.154803
C36	C	0.974550	0.500321	0.654803
C37	C	0.518900	0.000290	0.052234
C38	C	1.018900	0.500290	0.552234
C39	C	0.591732	0.000264	0.053979
C40	C	1.091732	0.500264	0.553979
N41	N	0.366119	0.070016	0.075078
N42	N	0.866119	0.570016	0.575078
N43	N	0.296931	0.070043	0.073427
N44	N	0.796931	0.570043	0.573427
C45	C	0.255112	0.000396	0.149539
C46	C	0.755112	0.500396	0.649539
N47	N	0.285092	-0.069265	0.227381
N48	N	0.785092	0.430735	0.727381
N49	N	0.354287	-0.069287	0.229035
N50	N	0.854287	0.430713	0.729035
C51	C	0.395577	0.000348	0.152899
C52	C	0.895577	0.500348	0.652899
C53	C	0.131796	0.000432	0.250213
C54	C	0.631796	0.500432	0.750213
C55	C	0.058962	0.000438	0.248466
C56	C	0.558962	0.500438	0.748466
C57	C	0.074823	0.000434	0.041591
C58	C	0.574823	0.500434	0.541591
C59	C	0.147656	0.000416	0.043340
C60	C	0.647656	0.500416	0.543340
C61	C	0.176138	0.000421	0.147654
C62	C	0.676138	0.500421	0.647654
C63	C	0.952961	0.000410	0.142308
C64	C	1.452961	0.500410	0.642308
C65	C	1.030476	0.000450	0.144162
C66	C	1.530476	0.500450	0.644162
N67	N	0.825359	0.319182	0.151229
N68	N	1.325359	0.819182	0.651229
C69	C	0.829651	0.000348	-0.056298
C70	C	1.329651	0.500348	0.443702
C71	C	0.827793	0.000348	-0.182283
C72	C	1.327793	0.500348	0.317717
C73	C	0.826284	0.000352	-0.284597
C74	C	1.326284	0.500352	0.215403
C75	C	0.824396	0.000362	-0.412955
C76	C	1.324396	0.500362	0.087045
C77	C	0.821039	0.000364	0.358752
C78	C	1.321039	0.500364	0.858752
C79	C	0.822897	0.000371	0.484737
C80	C	1.322897	0.500371	0.984737
H81	H	0.466932	0.000321	0.342621
H82	H	0.966932	0.500321	0.842621
C83	C	0.023049	0.105672	0.424246
C84	C	0.523049	0.605672	0.924246
C85	C	0.010219	0.000466	0.361205
C86	C	0.510219	0.500466	0.861205
H87	H	-0.007046	0.105691	0.493844
H88	H	0.492954	0.605691	0.993844
H89	H	0.070497	0.105652	0.440209
H90	H	0.570497	0.605652	0.940209
H91	H	0.014387	0.177024	0.381444
H92	H	0.514387	0.677024	0.881444
H93	H	0.018886	-0.070887	0.404004
H94	H	0.518886	0.429113	0.904004
H95	H	-0.037239	0.000474	0.345245
H96	H	0.462761	0.500474	0.845245
C97	C	0.680474	0.000315	0.355387
C98	C	1.180474	0.500315	0.855387
C99	C	0.607182	0.000324	0.375507
C100	C	1.107182	0.500324	0.875507
H101	H	0.699801	0.000352	0.426175
H102	H	1.199801	0.500352	0.926175
H103	H	0.695648	-0.071063	0.313205
H104	H	1.195648	0.428937	0.813205
H105	H	0.695677	0.071666	0.313152
H106	H	1.195677	0.571666	0.813152
H107	H	0.591978	-0.071032	0.417736
H108	H	1.091978	0.428968	0.917736
H109	H	0.592001	0.071709	0.417708
H110	H	1.092001	0.571709	0.917708
H111	H	0.051627	0.000523	-0.043335
H112	H	0.551627	0.500523	0.456665
H113	H	0.495699	0.000319	-0.032691
H114	H	0.995699	0.500319	0.467309
C115	C	0.183628	0.105618	-0.132436
C116	C	0.683628	0.605618	0.367564
C117	C	0.196400	0.000410	-0.069393
C118	C	0.696400	0.500410	0.430607
H119	H	0.213725	0.105613	-0.202033
H120	H	0.713725	0.605613	0.297967
H121	H	0.136181	0.105624	-0.148400
H122	H	0.636181	0.605624	0.351600
H123	H	0.192329	0.176969	-0.089634
H124	H	0.692329	0.676969	0.410366
H125	H	0.187694	-0.070941	-0.112192
H126	H	0.687694	0.429059	0.387808
H127	H	0.243859	0.000393	-0.053432
H128	H	0.743859	0.500393	0.446568
C129	C	0.600093	0.000267	-0.150682
C130	C	1.100093	0.500267	0.349318
C131	C	0.640476	0.000253	-0.058759
C132	C	1.140476	0.500253	0.441241
H133	H	0.630188	0.000271	-0.220280
H134	H	1.130188	0.500271	0.279720
H135	H	0.571341	-0.071087	-0.147066
H136	H	1.071341	0.428913	0.352934
H137	H	0.571371	0.071642	-0.147048
H138	H	1.071371	0.571642	0.352952
H139	H	0.669194	-0.071127	-0.062388
H140	H	1.169194	0.428873	0.437612
H141	H	0.669241	0.071614	-0.062376
H142	H	1.169241	0.571614	0.437624
C143	C	0.204530	0.105605	0.372202
C144	C	0.704530	0.605605	0.872202
C145	C	0.163111	0.000416	0.364869
C146	C	0.663111	0.500416	0.864869
H147	H	0.223858	0.105594	0.442989
H148	H	0.723858	0.605594	0.942989
H149	H	0.241360	0.105590	0.311377
H150	H	0.741360	0.605590	0.811377
H151	H	0.176459	0.176969	0.367230
H152	H	0.676459	0.676969	0.867230
H153	H	0.191184	-0.070948	0.369832
H154	H	0.691184	0.429052	0.869832
H155	H	0.126277	0.000420	0.425711
H156	H	0.626277	0.500420	0.925711
