data_functionalizedCrystal
_audit_creation_method	'MofGen! by Chris Wilmer'
_symmetry_space_group_name_H-M	'P1'
_symmetry_Int_Tables_number	1
_symmetry_cell_setting	triclinic
loop_
_symmetry_equiv_pos_as_xyz
  x,y,z
_cell_length_a	14.971482
_cell_length_b	10.489716
_cell_length_c	14.048226
_cell_angle_alpha	89.997629
_cell_angle_beta	89.994098
_cell_angle_gamma	84.070872
loop_
_atom_site_label
_atom_site_type_symbol
_atom_site_fract_x
_atom_site_fract_y
_atom_site_fract_z
O1	O	1.187885	0.166201	-0.079140
O2	O	0.927596	0.186112	-0.079143
O3	O	1.063675	-0.009512	-0.079145
O4	O	1.051806	0.361825	-0.079138
O5	O	1.063658	-0.009524	0.079177
O6	O	0.927580	0.186100	0.079178
O7	O	1.187868	0.166190	0.079182
Zn8	Zn	1.057721	0.176143	0.104317
Zn9	Zn	1.057743	0.176158	-0.104278
O10	O	1.051790	0.361814	0.079183
C11	C	0.894258	0.185217	0.000017
C12	C	0.794946	0.182551	0.000015
C13	C	0.748285	0.181289	0.086317
C14	C	0.654972	0.178764	0.086318
C15	C	0.608321	0.177510	0.000016
C16	C	0.654989	0.178768	-0.086293
C17	C	0.748301	0.181284	-0.086293
C18	C	0.460498	0.173527	-0.086286
C19	C	0.367179	0.171013	-0.086287
C20	C	0.367169	0.171007	0.086324
C21	C	0.460481	0.173523	0.086324
C22	C	0.507142	0.174783	0.000015
C23	C	1.062775	-0.057040	0.000013
C24	C	1.060107	-0.198640	0.000004
C25	C	1.143554	-0.297281	0.000014
C26	C	1.099467	-0.374125	-0.078045
C27	C	1.099431	-0.374100	0.078048
C28	C	1.016054	-0.273618	-0.078119
C29	C	1.016031	-0.273588	0.078044
C30	C	0.971882	-0.350382	-0.000034
C31	C	1.221206	0.167085	0.000020
C32	C	1.320518	0.169751	0.000015
C33	C	1.052690	0.409341	0.000023
C34	C	1.055358	0.550941	0.000026
N35	N	1.057713	0.176132	0.246678
N36	N	1.057758	0.176160	-0.246639
C37	C	1.117988	0.089546	0.296495
C38	C	1.117994	0.089545	0.396153
C39	C	1.057729	0.176138	0.445991
C40	C	0.997447	0.262728	0.396167
C41	C	0.997438	0.262722	0.296511
C42	C	0.997473	0.262738	0.603881
C43	C	0.997484	0.262746	0.703544
C44	C	1.118029	0.089561	0.703523
C45	C	1.118020	0.089554	0.603867
C46	C	1.057739	0.176147	0.554049
H47	H	0.616999	0.177737	-0.156561
H48	H	0.329198	0.169993	-0.156562
N49	N	0.316838	0.169646	0.179410
H50	H	0.283865	0.090480	0.182681
H51	H	0.360740	0.169078	0.234026
N52	N	1.146127	-0.432288	-0.165459
H53	H	1.169659	-0.362454	-0.204843
H54	H	1.197782	-0.496255	-0.145465
H55	H	0.498486	0.174553	-0.156568
N56	N	0.510799	0.174894	0.179404
H57	H	0.467083	0.173714	0.234081
H58	H	0.556268	0.096930	0.183164
N59	N	0.604642	0.177398	0.179399
H60	H	0.648426	0.177676	0.234070
H61	H	0.559607	0.255824	0.183448
H62	H	0.899242	-0.373971	-0.000077
H63	H	0.786291	0.182314	-0.156568
N64	N	1.183021	-0.003843	0.550117
H65	H	1.148479	-0.060399	0.508780
H66	H	1.222912	0.045085	0.508812
N67	N	0.932444	0.356116	0.449923
H68	H	0.966985	0.412678	0.491257
H69	H	0.894270	0.410881	0.403183
H70	H	0.980828	-0.229667	0.144039
H71	H	1.216139	-0.273446	-0.000064
N72	N	0.969423	-0.215725	-0.165631
H73	H	0.971557	-0.119806	-0.165113
H74	H	1.000714	-0.253312	-0.224474
H75	H	0.948355	0.333228	0.255950
H76	H	1.167073	0.019039	0.436713
N77	N	0.798597	0.182655	0.179401
H78	H	0.754875	0.181471	0.234072
H79	H	0.844065	0.104689	0.183162
N80	N	1.146098	-0.432231	0.165464
H81	H	1.210897	-0.413351	0.165389
H82	H	1.115177	-0.394215	0.224374
H83	H	1.167066	0.019037	0.255923
N84	N	1.183050	-0.003835	0.757247
H85	H	1.173911	0.009301	0.827941
H86	H	1.172148	-0.094349	0.739834
N87	N	0.932494	0.356151	0.757302
H88	H	0.894303	0.411004	0.710623
H89	H	0.892651	0.307233	0.798671
N90	N	0.932463	0.356135	0.550143
H91	H	0.892546	0.307298	0.508809
H92	H	0.894348	0.410976	0.596894
