data_functionalizedCrystal
_audit_creation_method	'MofGen! by Chris Wilmer'
_symmetry_space_group_name_H-M	'P1'
_symmetry_Int_Tables_number	1
_symmetry_cell_setting	triclinic
loop_
_symmetry_equiv_pos_as_xyz
  x,y,z
_cell_length_a	13.032721
_cell_length_b	10.685980
_cell_length_c	10.686551
_cell_angle_alpha	81.591741
_cell_angle_beta	93.335252
_cell_angle_gamma	102.072709
loop_
_atom_site_label
_atom_site_type_symbol
_atom_site_fract_x
_atom_site_fract_y
_atom_site_fract_z
Zn1	Zn	-0.234230	1.962396	-0.900039
Zn2	Zn	-0.423545	1.918985	-0.714719
Zn3	Zn	-0.263315	1.729677	-0.675643
Zn4	Zn	-0.423444	1.723123	-0.910615
O5	O	-0.336134	1.833546	-0.800254
O6	O	-0.247213	2.136001	-0.887384
O7	O	-0.414505	1.878448	-0.533642
O8	O	-0.113214	1.781458	-0.684631
O9	O	-0.386302	2.104107	-0.751230
O10	O	-0.091845	1.952436	-0.849493
O11	O	-0.296785	1.739364	-0.504933
O12	O	-0.296687	1.549445	-0.694885
O13	O	-0.386129	1.770288	-1.085106
O14	O	-0.414332	1.544630	-0.867518
O15	O	-0.247115	1.946081	-1.077336
O16	O	-0.569775	1.872093	-0.761485
O17	O	-0.569701	1.728194	-0.905409
C18	C	-0.358655	1.500531	-0.778110
C19	C	-0.368313	1.358064	-0.768670
C20	C	-0.607653	1.794759	-0.838864
C21	C	-0.723799	1.778287	-0.855432
C22	C	-0.775575	1.842215	-0.791669
C23	C	-0.895618	1.825192	-0.808790
C24	C	-0.063550	1.872521	-0.761523
C25	C	0.052609	1.889130	-0.745019
C26	C	-0.313366	1.862296	-1.128103
C27	C	-0.303664	1.874548	-1.267813
C28	C	-0.313525	2.167861	-0.822486
C29	C	-0.303890	2.310326	-0.831960
C30	C	-0.358732	1.804991	-0.473675
C31	C	-0.368123	1.793030	-0.333940
H32	H	-0.241340	1.378446	-0.893364
H33	H	-0.430861	1.289937	-0.707253
Cl34	Cl	-0.878632	1.993104	-0.641163
Cl35	Cl	-0.706809	1.946187	-0.687821
H36	H	-0.430734	1.713868	-1.283673
Cl37	Cl	-0.207000	1.996790	-1.345425
H38	H	-0.940158	1.757859	-0.876065
H39	H	-0.768343	1.710958	-0.922702
