data_functionalizedCrystal
_audit_creation_method	'MofGen! by Chris Wilmer'
_symmetry_space_group_name_H-M	'P1'
_symmetry_Int_Tables_number	1
_symmetry_cell_setting	triclinic
loop_
_symmetry_equiv_pos_as_xyz
  x,y,z
_cell_length_a	11.026607
_cell_length_b	13.330367
_cell_length_c	11.026607
_cell_angle_alpha	89.998240
_cell_angle_beta	71.413983
_cell_angle_gamma	90.006834
loop_
_atom_site_label
_atom_site_type_symbol
_atom_site_fract_x
_atom_site_fract_y
_atom_site_fract_z
O1	O	1.726739	0.083421	-0.533624
O2	O	1.360159	0.083423	-0.472860
O3	O	1.513067	0.083418	-0.319952
O4	O	1.573831	0.083425	-0.686532
O5	O	1.513038	-0.083429	-0.319942
O6	O	1.360130	-0.083424	-0.472850
O7	O	1.726710	-0.083426	-0.533613
Cu8	Cu	1.543417	-0.098660	-0.503231
Cu9	Cu	1.543452	0.098656	-0.503243
O10	O	1.573801	-0.083422	-0.686522
C11	C	1.312485	-0.000001	-0.461645
C12	C	1.170471	-0.000000	-0.428228
N13	N	1.543402	-0.237441	-0.503223
C14	C	1.116821	0.000002	-0.520498
C15	C	0.970043	0.000003	-0.485962
C16	C	1.475733	-0.710062	-0.570916
C17	C	1.611203	-0.710034	-0.435568
C18	C	1.611187	-0.605016	-0.435561
C19	C	1.543445	-0.552516	-0.503234
C20	C	1.475718	-0.605034	-0.570914
C21	C	1.678924	-0.552489	-0.367892
C22	C	1.678912	-0.447465	-0.367884
C23	C	1.611162	-0.394963	-0.435550
C24	C	1.543431	-0.447488	-0.503232
C25	C	1.475689	-0.394988	-0.570905
C26	C	1.407950	-0.447511	-0.638581
C27	C	1.407968	-0.552532	-0.638581
C28	C	1.611144	-0.289941	-0.435550
C29	C	1.475675	-0.289960	-0.570903
C30	C	1.774384	-0.000001	-0.544828
C31	C	1.916398	0.000005	-0.578245
C32	C	1.501843	-0.000004	-0.272287
C33	C	1.468426	-0.000000	-0.130273
N34	N	1.543475	0.237438	-0.503243
C35	C	1.585026	0.000003	-0.734187
C36	C	1.618443	0.000006	-0.876200
C37	C	1.560695	0.000001	-0.076624
C38	C	1.526160	0.000005	0.070155
H39	H	1.179555	-0.000001	-0.625061
H40	H	1.107738	0.000024	-0.323666
Cl41	Cl	0.873202	-0.000007	-0.324513
Cl42	Cl	1.390500	-0.223968	-0.655976
H43	H	1.421590	0.000012	0.132884
Cl44	Cl	1.013235	-0.000006	-0.739696
Cl45	Cl	1.322823	-0.618563	-0.723657
H46	H	1.420576	-0.752829	-0.626012
Cl47	Cl	1.764092	-0.618487	-0.282831
Cl48	Cl	1.322802	-0.381500	-0.723662
Cl49	Cl	1.696371	-0.776031	-0.350506
Cl50	Cl	1.779893	0.000010	0.026962
Cl51	Cl	1.764061	-0.381443	-0.282804
Cl52	Cl	1.722138	0.000006	-0.173469
H53	H	1.363863	0.000007	-0.067540
H54	H	1.666303	-0.247182	-0.380457
