data_functionalizedCrystal
_audit_creation_method	'MofGen! by Chris Wilmer'
_symmetry_space_group_name_H-M	'P1'
_symmetry_Int_Tables_number	1
_symmetry_cell_setting	triclinic
loop_
_symmetry_equiv_pos_as_xyz
  x,y,z
_cell_length_a	19.288899
_cell_length_b	19.288865
_cell_length_c	17.766277
_cell_angle_alpha	90.011603
_cell_angle_beta	89.997577
_cell_angle_gamma	96.856754
loop_
_atom_site_label
_atom_site_type_symbol
_atom_site_fract_x
_atom_site_fract_y
_atom_site_fract_z
O1	O	0.921338	-0.086762	-0.062481
O2	O	1.421338	0.413238	0.437519
O3	O	0.719081	-0.098426	-0.062511
O4	O	1.219081	0.401574	0.437489
O5	O	0.826053	0.008536	-0.062480
O6	O	1.326053	0.508536	0.437520
O7	O	0.814365	-0.193724	-0.062512
O8	O	1.314365	0.306276	0.437488
O9	O	0.826035	0.008541	0.062708
O10	O	1.326035	0.508541	0.562708
O11	O	0.719062	-0.098421	0.062678
O12	O	1.219062	0.401579	0.562678
O13	O	0.921319	-0.086757	0.062707
O14	O	1.421319	0.413243	0.562707
Cu15	Cu	0.820189	-0.092588	0.074123
Cu16	Cu	1.320189	0.407412	0.574123
Cu17	Cu	0.820211	-0.092594	-0.073927
Cu18	Cu	1.320211	0.407406	0.426073
O19	O	0.814346	-0.193718	0.062677
O20	O	1.314346	0.306282	0.562677
C21	C	0.693195	-0.098044	0.000080
C22	C	1.193195	0.401956	0.500080
C23	C	0.616093	-0.096905	0.000070
C24	C	1.116093	0.403095	0.500070
C25	C	0.947204	-0.087139	0.000115
C26	C	1.447204	0.412861	0.500115
C27	C	1.024307	-0.088277	0.000120
C28	C	1.524307	0.411723	0.500120
C29	C	0.825668	0.034415	0.000116
C30	C	1.325668	0.534415	0.500116
C31	C	0.824539	0.111519	0.000123
C32	C	1.324539	0.611519	0.500123
C33	C	0.814732	-0.219597	0.000079
C34	C	1.314732	0.280403	0.500079
C35	C	0.815861	-0.296701	0.000067
C36	C	1.315861	0.203299	0.500067
C37	C	1.060522	-0.088814	-0.068121
C38	C	1.560522	0.411186	0.431879
C39	C	1.132970	-0.089865	-0.068129
C40	C	1.632970	0.410135	0.431871
C41	C	1.169199	-0.090394	0.000108
C42	C	1.669199	0.409606	0.500108
C43	C	1.132975	-0.089853	0.068359
C44	C	1.632975	0.410147	0.568359
C45	C	1.060529	-0.088795	0.068365
C46	C	1.560529	0.411205	0.568365
C47	C	1.278535	-0.132752	0.052372
C48	C	1.778535	0.367248	0.552372
C49	C	1.350979	-0.133814	0.052363
C50	C	1.850979	0.366186	0.552363
C51	C	1.392647	-0.093655	0.000092
C52	C	1.892647	0.406345	0.500092
C53	C	1.361860	-0.052442	-0.052183
C54	C	1.861860	0.447558	0.447817
C55	C	1.289414	-0.051384	-0.052177
C56	C	1.789414	0.448616	0.447823
C57	C	1.247754	-0.091541	0.000109
C58	C	1.747754	0.408459	0.500109
C59	C	1.507419	-0.095331	-0.068163
C60	C	2.007419	0.404669	0.431837
C61	C	1.579869	-0.096378	-0.068169
C62	C	2.079869	0.403622	0.431831
C63	C	1.579872	-0.096373	0.068321
C64	C	2.079872	0.403627	0.568321
C65	C	1.507424	-0.095319	0.068325
C66	C	2.007424	0.404681	0.568325
C67	C	1.471201	-0.094801	0.000080
C68	C	1.971201	0.405199	0.500080
C69	C	0.887306	0.156207	0.000135
C70	C	1.387306	0.656207	0.500135
C71	C	0.886245	0.228654	0.000123
C72	C	1.386245	0.728654	0.500123
C73	C	0.822414	0.256410	0.000114
C74	C	1.322414	0.756410	0.500114
C75	C	0.759639	0.211711	0.000097
C76	C	1.259639	0.711711	0.500097
C77	C	0.760701	0.139266	0.000101
C78	C	1.260701	0.639266	0.500101
C79	C	0.772229	0.364705	0.043957
C80	C	1.272229	0.864705	0.543957
C81	C	0.771169	0.437150	0.043957
C82	C	1.271169	0.937150	0.543957
C83	C	0.819134	0.479856	0.000096
C84	C	1.319134	0.979856	0.500096
C85	C	0.868172	0.450110	-0.043755
C86	C	1.368172	0.950110	0.456245
C87	C	0.869234	0.377664	-0.043751
C88	C	1.369234	0.877664	0.456249
C89	C	0.821255	0.334964	0.000108
C90	C	1.321255	0.834964	0.500108
C91	C	0.880756	0.603100	0.000095
C92	C	1.380756	1.103100	0.500095
C93	C	0.879692	0.675549	0.000078
C94	C	1.379692	1.175549	0.500078
C95	C	0.753084	0.658604	0.000059
C96	C	1.253084	1.158604	0.500059
C97	C	0.754149	0.586157	0.000068
C98	C	1.254149	1.086157	0.500068
C99	C	0.817987	0.558410	0.000090
C100	C	1.317987	1.058410	0.500090
N101	N	0.820178	-0.092583	0.178254
N102	N	1.320178	0.407417	0.678254
N103	N	0.820227	-0.092594	-0.178057
N104	N	1.320227	0.407406	0.321943
C105	C	0.867561	-0.045244	0.217654
C106	C	1.367561	0.454756	0.717654
C107	C	0.867565	-0.045241	0.296456
C108	C	1.367565	0.454759	0.796456
C109	C	0.820193	-0.092589	0.335854
C110	C	1.320193	0.407411	0.835854
C111	C	0.772801	-0.139932	0.296444
C112	C	1.272801	0.360068	0.796444
C113	C	0.772794	-0.139929	0.217644
C114	C	1.272794	0.360071	0.717644
C115	C	0.810894	-0.155875	0.460681
C116	C	1.310894	0.344125	0.960681
C117	C	0.810906	-0.155879	0.539480
C118	C	1.310906	0.344121	1.039480
C119	C	0.820211	-0.092597	0.578901
C120	C	1.320211	0.407403	1.078901
C121	C	0.829519	-0.029309	0.539512
C122	C	1.329519	0.470691	1.039512
C123	C	0.829512	-0.029306	0.460712
C124	C	1.329512	0.470694	0.960712
C125	C	0.820195	-0.092597	0.421300
C126	C	1.320195	0.407403	0.921300
C127	C	0.867601	-0.045250	0.703747
C128	C	1.367601	0.454750	1.203747
C129	C	0.867600	-0.045246	0.782550
C130	C	1.367600	0.454754	1.282550
C131	C	0.772840	-0.139943	0.782537
C132	C	1.272840	0.360057	1.282537
C133	C	0.772837	-0.139941	0.703735
C134	C	1.272837	0.360059	1.203735
C135	C	0.820222	-0.092596	0.664345
C136	C	1.320222	0.407404	1.164345
H137	H	1.031034	-0.088389	-0.123691
H138	H	1.531034	0.411611	0.376309
Br139	Br	1.629033	-0.097075	0.160931
Br140	Br	2.129033	0.402925	0.660931
H141	H	1.477937	-0.094884	0.123895
H142	H	1.977937	0.405116	0.623895
Br143	Br	1.182131	-0.090593	-0.160749
Br144	Br	1.682131	0.409407	0.339251
H145	H	0.906183	-0.006696	0.671674
H146	H	1.406183	0.493304	1.171674
H147	H	0.803332	-0.207412	0.571544
H148	H	1.303332	0.292588	1.071544
H149	H	0.803305	-0.207410	0.428592
H150	H	1.303305	0.292590	0.928592
Br151	Br	0.931864	0.019012	0.164195
Br152	Br	1.431864	0.519012	0.664195
Br153	Br	0.708541	-0.204195	0.836000
Br154	Br	1.208541	0.295805	1.336000
H155	H	1.609355	-0.096810	-0.123741
H156	H	2.109355	0.403190	0.376259
Br157	Br	0.708504	-0.204186	0.349910
Br158	Br	1.208504	0.295814	0.849910
H159	H	1.395785	-0.019743	-0.094749
H160	H	1.895785	0.480257	0.405251
H161	H	0.701112	0.681201	0.000047
H162	H	1.201112	1.181201	0.500047
Br163	Br	0.708531	-0.204193	0.650257
Br164	Br	1.208531	0.295807	1.150257
H165	H	0.734208	-0.178479	0.185563
H166	H	1.234208	0.321521	0.685563
H167	H	1.477925	-0.094907	-0.123732
H168	H	1.977925	0.405093	0.376268
Br169	Br	1.247634	0.004547	-0.123115
Br170	Br	1.747634	0.504547	0.376885
H171	H	0.907230	0.484880	-0.079471
H172	H	1.407230	0.984880	0.420529
H173	H	1.162477	-0.090282	0.123918
H174	H	1.662477	0.409718	0.623918
Br175	Br	0.673010	0.249377	0.000074
Br176	Br	1.173010	0.749377	0.500074
Br177	Br	1.392752	-0.189754	0.123298
Br178	Br	1.892752	0.310246	0.623298
H179	H	0.906183	-0.006693	0.814630
H180	H	1.406183	0.493307	1.314630
H181	H	0.906151	-0.006690	0.328541
H182	H	1.406151	0.493310	0.828541
Br183	Br	1.221994	-0.187247	0.123328
Br184	Br	1.721994	0.312753	0.623328
H185	H	1.031043	-0.088360	0.123937
H186	H	1.531043	0.411640	0.623937
Br187	Br	0.935777	0.337295	-0.103264
Br188	Br	1.435777	0.837295	0.396736
Br189	Br	0.973942	0.118553	0.000144
Br190	Br	1.473942	0.618553	0.500144
H191	H	0.733168	0.329939	0.079678
H192	H	1.233168	0.829939	0.579678
Br193	Br	0.967390	0.565439	0.000132
Br194	Br	1.467390	1.065439	0.500132
Br195	Br	0.842136	0.056580	0.407258
Br196	Br	1.342136	0.556580	0.907258
H197	H	0.703038	0.549771	0.000062
H198	H	1.203038	1.049771	0.500062
H199	H	0.937359	0.265047	0.000131
H200	H	1.437359	0.765047	0.500131
Br201	Br	0.964884	0.736200	0.000088
Br202	Br	1.464884	1.236200	0.500088
H203	H	0.709587	0.102879	0.000091
H204	H	1.209587	0.602879	0.500091
Br205	Br	0.704624	0.477513	0.103474
Br206	Br	1.204624	0.977513	0.603474
H207	H	0.837096	0.022221	0.571606
H208	H	1.337096	0.522221	1.071606
