data_functionalizedCrystal
_audit_creation_method	'MofGen! by Chris Wilmer'
_symmetry_space_group_name_H-M	'P1'
_symmetry_Int_Tables_number	1
_symmetry_cell_setting	triclinic
loop_
_symmetry_equiv_pos_as_xyz
  x,y,z
_cell_length_a	14.971506
_cell_length_b	16.992695
_cell_length_c	13.448316
_cell_angle_alpha	90.003860
_cell_angle_beta	90.005383
_cell_angle_gamma	87.145305
loop_
_atom_site_label
_atom_site_type_symbol
_atom_site_fract_x
_atom_site_fract_y
_atom_site_fract_z
O1	O	1.194119	0.102263	0.082700
O2	O	0.934580	0.114483	0.082701
O3	O	1.063309	-0.005771	0.082692
O4	O	1.065390	0.222517	0.082708
O5	O	1.063296	-0.005772	-0.082691
O6	O	0.934567	0.114482	-0.082683
O7	O	1.194106	0.102262	-0.082684
Cu8	Cu	1.064335	0.108372	-0.097784
Cu9	Cu	1.064351	0.108373	0.097801
O10	O	1.065377	0.222516	-0.082676
C11	C	0.901211	0.113934	0.000009
C12	C	0.801799	0.112287	0.000009
C13	C	0.368038	0.176652	0.000023
C14	C	0.461447	0.178192	0.000028
C15	C	0.513703	0.107538	0.000018
C16	C	0.472545	0.035339	0.000015
C17	C	0.379139	0.033799	0.000018
C18	C	0.667234	0.038554	0.000007
C19	C	0.760648	0.040093	0.000002
C20	C	0.749543	0.182947	0.000017
C21	C	0.656136	0.181407	0.000020
C22	C	0.614985	0.109207	0.000014
C23	C	1.060626	-0.034986	0.000001
C24	C	1.052639	-0.122039	0.000001
C25	C	1.129703	-0.172202	-0.000000
C26	C	1.122193	-0.253996	0.000009
C27	C	1.037618	-0.285625	0.000013
C28	C	0.960548	-0.235455	0.000017
C29	C	0.968059	-0.153663	0.000015
C30	C	1.006489	-0.529254	0.000027
C31	C	0.998983	-0.611053	0.000026
C32	C	1.160629	-0.629588	0.000020
C33	C	1.168132	-0.547793	0.000012
C34	C	1.091062	-0.497631	0.000021
N35	N	1.029939	-0.369232	0.000019
N36	N	1.098742	-0.414026	0.000022
C37	C	1.227476	0.102811	0.000010
C38	C	1.326887	0.104458	0.000017
C39	C	1.068060	0.251731	0.000018
C40	C	1.076047	0.338784	0.000025
N41	N	1.064330	0.108371	-0.235349
C42	C	1.121979	0.156014	-0.287381
C43	C	1.121990	0.156010	-0.391485
C44	C	1.064347	0.108367	-0.443553
C45	C	1.006695	0.060719	-0.391513
C46	C	1.006689	0.060718	-0.287412
C47	C	1.006709	0.060724	-0.608493
C48	C	1.006714	0.060725	-0.712602
C49	C	1.122010	0.156016	-0.712566
C50	C	1.122005	0.156016	-0.608465
C51	C	1.064351	0.108368	-0.556432
N52	N	1.064363	0.108368	0.235365
H53	H	0.633733	-0.020239	0.000007
H54	H	0.515100	-0.022188	0.000013
H55	H	1.198572	-0.146456	-0.000009
H56	H	0.613591	0.238940	0.000021
H57	H	0.783052	0.241735	0.000021
C58	C	0.943272	0.008317	-0.230171
H59	H	0.951529	0.015135	-0.160716
H60	H	0.883111	0.022793	-0.247241
H61	H	0.956066	-0.045315	-0.247234
H62	H	0.905305	-0.112820	0.000016
H63	H	0.959763	0.021923	-0.566131
H64	H	1.168914	0.194815	-0.244994
C65	C	0.310561	0.254370	0.000033
H66	H	0.249037	0.243116	0.000024
H67	H	0.323596	0.283968	0.057709
H68	H	0.323584	0.283970	-0.057645
C69	C	1.185401	0.208421	-0.448716
H70	H	1.219722	0.236803	-0.402797
H71	H	1.224279	0.176353	-0.489322
H72	H	1.151317	0.244456	-0.489329
H73	H	1.168939	0.194815	-0.566073
H74	H	1.168950	0.194816	-0.754936
H75	H	0.494947	0.236980	0.000042
H76	H	1.223374	-0.670439	0.000014
H77	H	0.345635	-0.024988	0.000014
H78	H	0.930109	-0.636802	0.000013
H79	H	0.943732	-0.488421	0.000034
C80	C	0.943287	0.008338	-0.769876
H81	H	0.908952	-0.020041	-0.723980
H82	H	0.904424	0.040428	-0.810475
H83	H	0.977356	-0.027700	-0.810498
H84	H	1.184947	-0.294836	0.000006
C85	C	1.261164	-0.513007	0.000021
H86	H	1.305987	-0.554598	0.000032
H87	H	1.267453	-0.481486	-0.057650
H88	H	1.267453	-0.481484	0.057703
H89	H	0.891685	-0.261214	0.000026
H90	H	0.803192	-0.017439	0.000003
C91	C	0.943274	0.008323	-0.448781
H92	H	0.908940	-0.020054	-0.402880
H93	H	0.904408	0.040405	-0.489387
H94	H	0.977347	-0.027717	-0.489396
