data_functionalizedCrystal
_audit_creation_method	'MofGen! by Chris Wilmer'
_symmetry_space_group_name_H-M	'P1'
_symmetry_Int_Tables_number	1
_symmetry_cell_setting	triclinic
loop_
_symmetry_equiv_pos_as_xyz
  x,y,z
_cell_length_a	14.971487
_cell_length_b	9.730223
_cell_length_c	10.654550
_cell_angle_alpha	90.004929
_cell_angle_beta	95.950333
_cell_angle_gamma	90.005721
loop_
_atom_site_label
_atom_site_type_symbol
_atom_site_fract_x
_atom_site_fract_y
_atom_site_fract_z
O1	O	-1.187830	0.114093	0.163662
O2	O	-0.927536	0.114138	0.183259
O3	O	-1.063667	0.114106	-0.009343
O4	O	-1.051698	0.114125	0.356264
O5	O	-1.063666	-0.114474	-0.009352
O6	O	-0.927535	-0.114441	0.183250
O7	O	-1.187828	-0.114487	0.163653
Zn8	Zn	-1.057681	-0.150756	0.173450
Zn9	Zn	-1.057683	0.150407	0.173462
O10	O	-1.051697	-0.114455	0.356255
C11	C	-0.894206	-0.000146	0.182378
C12	C	-0.794895	-0.000128	0.179751
C13	C	-1.062788	-0.000183	-0.056136
C14	C	-1.060159	-0.000181	-0.195551
C15	C	-0.738285	-0.000123	0.292900
C16	C	-0.644972	-0.000140	0.290424
C17	C	-0.608271	-0.000154	0.174799
C18	C	-0.664888	-0.000164	0.061641
C19	C	-0.758199	-0.000156	0.064118
C20	C	-0.470397	-0.000176	0.056486
C21	C	-0.377080	-0.000182	0.054009
C22	C	-0.357171	-0.000161	0.282792
C23	C	-0.450482	-0.000153	0.285269
C24	C	-0.507092	-0.000160	0.172111
C25	C	-0.221159	-0.000192	0.164533
C26	C	-0.320470	-0.000176	0.167157
N27	N	-1.057685	0.355944	0.173461
N28	N	-1.057687	-0.356293	0.173442
C29	C	-1.118078	0.427855	0.088343
C30	C	-1.118082	0.571738	0.088336
C31	C	-0.997291	0.571786	0.258568
C32	C	-0.997292	0.427905	0.258580
C33	C	-1.140311	-0.000194	-0.275896
C34	C	-1.137835	-0.000177	-0.406890
C35	C	-0.975048	-0.000138	-0.377181
C36	C	-0.977525	-0.000146	-0.246190
C37	C	-1.052576	-0.000163	0.403048
C38	C	-1.055206	-0.000156	0.542463
H39	H	-0.768160	-0.000111	0.387056
H40	H	-0.598884	-0.000134	0.382562
H41	H	-0.480361	-0.000129	0.379422
H42	H	-0.311074	-0.000161	0.374930
H43	H	-1.207596	-0.000220	-0.234671
H44	H	-0.347201	-0.000194	-0.040144
H45	H	-0.516488	-0.000184	-0.035659
H46	H	-0.907770	-0.000113	-0.418428
H47	H	-0.912251	-0.000131	-0.180769
H48	H	-0.634998	-0.000194	-0.032503
H49	H	-0.804290	-0.000160	-0.028019
H50	H	-0.948112	0.369351	0.327900
H51	H	-1.203103	-0.000185	-0.472303
H52	H	-1.167254	0.369268	0.019035
H53	H	-0.948119	0.630391	0.327870
H54	H	-1.167260	0.630285	0.019027
