data_functionalizedCrystal
_audit_creation_method	'MofGen! by Chris Wilmer'
_symmetry_space_group_name_H-M	'P1'
_symmetry_Int_Tables_number	1
_symmetry_cell_setting	triclinic
loop_
_symmetry_equiv_pos_as_xyz
  x,y,z
_cell_length_a	11.792241
_cell_length_b	10.723023
_cell_length_c	9.198806
_cell_angle_alpha	89.997575
_cell_angle_beta	89.999494
_cell_angle_gamma	95.669518
loop_
_atom_site_label
_atom_site_type_symbol
_atom_site_fract_x
_atom_site_fract_y
_atom_site_fract_z
O1	O	1.507282	-0.171036	0.120748
O2	O	1.176979	-0.188664	0.120781
O3	O	1.349750	0.001746	0.120758
O4	O	1.334511	-0.361447	0.120771
O5	O	1.349737	0.001748	-0.121027
O6	O	1.176966	-0.188662	-0.121004
O7	O	1.507269	-0.171035	-0.121037
Cu8	Cu	1.342116	-0.179848	-0.143097
Cu9	Cu	1.342132	-0.179850	0.142841
O10	O	1.334498	-0.361445	-0.121014
C11	C	1.134679	-0.187556	-0.000107
C12	C	1.008658	-0.184242	-0.000094
C13	C	0.777933	-0.178147	-0.000136
C14	C	0.906325	-0.181534	-0.000113
C15	C	1.348635	0.048244	-0.000133
C16	C	1.345317	0.186789	-0.000128
C17	C	1.549569	-0.172143	-0.000146
C18	C	1.675589	-0.175457	-0.000149
C19	C	1.335613	-0.407943	-0.000120
C20	C	1.338931	-0.546488	-0.000115
C21	C	1.343845	0.248550	0.125126
C22	C	1.340416	0.391744	0.125134
N23	N	1.342114	-0.179847	-0.344211
C24	C	1.414834	-0.099725	-0.583822
C25	C	1.414820	-0.099727	-0.416410
N26	N	1.342143	-0.179842	0.343955
H27	H	1.345118	0.195415	0.232354
C28	C	1.258048	-0.272513	-0.572157
C29	C	1.261075	-0.414644	-0.592935
C30	C	1.176978	-0.507317	-0.509052
C31	C	1.089853	-0.457860	-0.404391
C32	C	1.086822	-0.315721	-0.383608
C33	C	1.170920	-0.223048	-0.467491
H34	H	1.325574	-0.451262	-0.670416
H35	H	1.179222	-0.612538	-0.524438
H36	H	1.027599	-0.526462	-0.342296
H37	H	1.022324	-0.279103	-0.306127
H38	H	1.168676	-0.117827	-0.452106
H39	H	1.339156	0.444858	0.232369
H40	H	1.340202	0.400408	-0.107355
C41	C	1.498899	-0.007058	-0.332517
C42	C	1.498773	-0.007201	-0.165112
C43	C	1.582856	0.085471	-0.081216
C44	C	1.667065	0.178287	-0.164726
C45	C	1.667194	0.178434	-0.332141
C46	C	1.583111	0.085761	-0.416037
H47	H	1.436434	-0.075912	-0.103284
H48	H	1.582760	0.085362	0.042716
H49	H	1.729308	0.246888	-0.102621
H50	H	1.729533	0.247144	-0.393968
H51	H	1.583207	0.085871	-0.539968
H52	H	1.477085	-0.031136	-0.645926
C53	C	1.343591	0.258557	-0.144997
C54	C	1.243057	0.334589	-0.181098
C55	C	1.241331	0.406353	-0.325972
C56	C	1.340139	0.402085	-0.434745
C57	C	1.440680	0.326050	-0.398647
C58	C	1.442406	0.254286	-0.253773
H59	H	1.169908	0.337751	-0.100575
H60	H	1.166904	0.462640	-0.352693
H61	H	1.338861	0.455209	-0.541989
H62	H	1.513830	0.322888	-0.479170
H63	H	1.516834	0.198000	-0.227052
H64	H	1.279872	-0.248437	-0.406310
