data_functionalizedCrystal
_audit_creation_method	'MofGen! by Chris Wilmer'
_symmetry_space_group_name_H-M	'P1'
_symmetry_Int_Tables_number	1
_symmetry_cell_setting	triclinic
loop_
_symmetry_equiv_pos_as_xyz
  x,y,z
_cell_length_a	6.817900
_cell_length_b	9.170630
_cell_length_c	9.514088
_cell_angle_alpha	80.289607
_cell_angle_beta	118.843545
_cell_angle_gamma	112.460426
loop_
_atom_site_label
_atom_site_type_symbol
_atom_site_fract_x
_atom_site_fract_y
_atom_site_fract_z
V1	V	-4.242804	-0.218418	-0.469797
V2	V	-3.742804	0.281582	0.030203
O3	O	-4.200475	0.007652	-0.492295
O4	O	-3.700475	0.507652	0.007705
O5	O	-4.217589	-0.430351	-0.436344
O6	O	-3.717589	0.069649	0.063656
O7	O	-4.277337	-0.216306	-0.688487
O8	O	-3.777337	0.283694	-0.188487
O9	O	-4.140314	-0.207875	-0.238407
O10	O	-3.640314	0.292125	0.261593
V11	V	-4.712681	-0.191230	-0.445794
V12	V	-4.212681	0.308770	0.054206
O13	O	-4.533995	-0.278057	-0.522448
O14	O	-4.033995	0.221943	-0.022448
O15	O	-4.871687	-0.131591	-0.393142
O16	O	-4.371687	0.368409	0.106858
O17	O	-4.514689	0.020703	-0.479246
O18	O	-4.014689	0.520703	0.020754
O19	O	-4.872407	-0.417300	-0.423296
O20	O	-4.372407	0.082700	0.076704
O21	O	-4.932568	-0.201773	-0.677184
O22	O	-4.432568	0.298227	-0.177184
O23	O	-4.454942	-0.193342	-0.227103
O24	O	-3.954942	0.306658	0.272897
C25	C	-4.065547	-0.481977	-0.421130
C26	C	-3.565547	0.018023	0.078870
C27	C	-4.126771	-0.655243	-0.395237
C28	C	-3.626771	-0.155243	0.104763
C29	C	-4.141759	-0.208939	-0.742762
C30	C	-3.641759	0.291061	-0.242762
C31	C	-4.251430	-0.208614	-0.921344
C32	C	-3.751430	0.291386	-0.421344
C33	C	-4.330073	0.072321	-0.494455
C34	C	-3.830073	0.572321	0.005545
C35	C	-4.248091	0.245586	-0.520358
C36	C	-3.748091	0.745586	-0.020358
C37	C	-4.253859	-0.200714	-0.172820
C38	C	-3.753859	0.299286	0.327180
C39	C	-4.123425	-0.201030	0.005763
C40	C	-3.623425	0.298970	0.505763
H41	H	-4.305114	-0.706758	-0.647302
H42	H	-3.805114	-0.206758	-0.147302
H43	H	-4.069726	-0.702891	-0.268301
H44	H	-3.569726	-0.202891	0.231699
H45	H	-3.929938	-0.194800	-0.920024
H46	H	-3.429938	0.305200	-0.420024
H47	H	-4.444939	-0.214862	-0.995566
H48	H	-3.944939	0.285138	-0.495566
