data_functionalizedCrystal
_audit_creation_method	'MofGen! by Chris Wilmer'
_symmetry_space_group_name_H-M	'P1'
_symmetry_Int_Tables_number	1
_symmetry_cell_setting	triclinic
loop_
_symmetry_equiv_pos_as_xyz
  x,y,z
_cell_length_a	12.759401
_cell_length_b	12.759399
_cell_length_c	12.759393
_cell_angle_alpha	90.026826
_cell_angle_beta	90.018130
_cell_angle_gamma	90.014216
loop_
_atom_site_label
_atom_site_type_symbol
_atom_site_fract_x
_atom_site_fract_y
_atom_site_fract_z
Zn1	Zn	-1.606231	0.418266	-0.594038
Zn2	Zn	-1.606125	0.593982	-0.418370
Zn3	Zn	-1.430537	0.418312	-0.418375
Zn4	Zn	-1.430517	0.593898	-0.594008
O5	O	-1.518352	0.506115	-0.506198
O6	O	-1.753238	0.441591	-0.570746
O7	O	-1.582797	0.570734	-0.271350
O8	O	-1.453896	0.271285	-0.441691
O9	O	-1.753160	0.570689	-0.441684
O10	O	-1.582977	0.271251	-0.570751
O11	O	-1.453793	0.441670	-0.271353
O12	O	-1.283513	0.441588	-0.441662
O13	O	-1.453862	0.570546	-0.741033
O14	O	-1.283499	0.570590	-0.570699
O15	O	-1.582958	0.441510	-0.741056
O16	O	-1.582778	0.740992	-0.441654
O17	O	-1.453759	0.740930	-0.570695
C18	C	-1.245385	0.506086	-0.506179
C19	C	-1.128608	0.506099	-0.506195
C20	C	-1.073766	0.573376	-0.573273
C21	C	-0.964042	0.573385	-0.573282
C22	C	-0.964012	0.438838	-0.439127
C23	C	-1.073734	0.438824	-0.439124
C24	C	-1.073783	0.651059	-0.650723
C25	C	-0.964059	0.651069	-0.650732
C26	C	-1.518284	0.779082	-0.506194
C27	C	-1.518350	0.895859	-0.506227
C28	C	-0.792386	0.506136	-0.506213
C29	C	-0.909162	0.506122	-0.506208
C30	C	-1.585680	1.060443	-0.439155
C31	C	-1.585611	0.950719	-0.439116
C32	C	-1.451147	0.950728	-0.573375
C33	C	-1.451212	1.060450	-0.573408
C34	C	-1.663315	1.060436	-0.361645
C35	C	-1.663246	0.950712	-0.361605
C36	C	-1.518448	1.232081	-0.506241
C37	C	-1.518485	1.115305	-0.506300
C38	C	-1.518419	0.506013	-0.780231
C39	C	-1.518448	0.505970	-0.897008
C40	C	-1.585670	0.573102	-1.061589
C41	C	-1.585631	0.573146	-0.951865
C42	C	-1.451292	0.438753	-0.951881
C43	C	-1.451326	0.438714	-1.061603
C44	C	-1.663233	0.650689	-1.061579
C45	C	-1.663193	0.650734	-0.951855
C46	C	-1.518346	0.506140	-0.233231
C47	C	-1.518522	0.505887	-0.116454
H48	H	-0.930060	0.622025	-0.728082
Br49	Br	-0.889534	0.347537	-0.348110
H50	H	-1.396481	1.105115	-0.628070
Br51	Br	-1.123473	0.614902	-0.786401
Br52	Br	-1.360140	0.347544	-1.136061
Br53	Br	-1.359852	0.876277	-0.664446
Br54	Br	-1.627109	1.110211	-0.226009
H55	H	-1.740546	0.621538	-1.095615
Br56	Br	-1.792139	1.117025	-0.410369
Br57	Br	-1.614674	0.894123	-0.232729
Br58	Br	-1.360108	0.347589	-0.877433
Br59	Br	-1.798812	0.900925	-0.398031
H60	H	-1.641424	0.732047	-1.091346
Br61	Br	-1.614546	0.779575	-0.895111
H62	H	-1.107796	0.728312	-0.621444
Br63	Br	-1.148161	0.347492	-0.348110
H64	H	-0.934262	0.732417	-0.628805
Br65	Br	-1.798807	0.614443	-0.902214
