data_functionalizedCrystal
_audit_creation_method	'MofGen! by Chris Wilmer'
_symmetry_space_group_name_H-M	'P1'
_symmetry_Int_Tables_number	1
_symmetry_cell_setting	triclinic
loop_
_symmetry_equiv_pos_as_xyz
  x,y,z
_cell_length_a	10.489711
_cell_length_b	17.699083
_cell_length_c	16.776229
_cell_angle_alpha	90.007545
_cell_angle_beta	89.991344
_cell_angle_gamma	96.094988
loop_
_atom_site_label
_atom_site_type_symbol
_atom_site_fract_x
_atom_site_fract_y
_atom_site_fract_z
O1	O	1.692098	-0.106675	-0.066319
O2	O	1.320711	-0.116721	-0.066314
O3	O	1.516897	-0.001577	-0.066310
O4	O	1.495912	-0.221819	-0.066323
O5	O	1.516871	-0.001570	0.066267
O6	O	1.320685	-0.116714	0.066262
O7	O	1.692072	-0.106668	0.066258
Zn8	Zn	1.506375	-0.111690	0.087309
Zn9	Zn	1.506409	-0.111699	-0.087366
O10	O	1.495886	-0.221812	0.066253
C11	C	1.273180	-0.115964	-0.000025
C12	C	1.131590	-0.113708	-0.000023
C13	C	0.947917	-0.182952	-0.000037
C14	C	1.040718	-0.148367	-0.065401
C15	C	1.040666	-0.148342	0.065309
C16	C	0.972129	-0.075066	-0.065458
C17	C	0.972067	-0.075050	0.065311
C18	C	1.064842	-0.040412	-0.000069
C19	C	1.516132	0.026629	-0.000021
C20	C	1.513877	0.110661	-0.000021
C21	C	1.739604	-0.107425	-0.000033
C22	C	1.881193	-0.109681	-0.000040
C23	C	1.496651	-0.250018	-0.000037
C24	C	1.498907	-0.334050	-0.000043
N25	N	1.506361	-0.111683	0.206521
C26	C	1.629034	0.158536	-0.000021
C27	C	1.626906	0.237493	-0.000028
C28	C	1.509621	0.268574	-0.000029
C29	C	1.394455	0.220693	-0.000031
C30	C	1.396583	0.141737	-0.000030
C31	C	1.385868	0.539111	-0.000038
C32	C	1.383748	0.618073	-0.000037
C33	C	1.616191	0.634868	-0.000036
C34	C	1.618320	0.555912	-0.000035
C35	C	1.503154	0.508038	-0.000041
C36	C	1.505462	0.422424	-0.000035
C37	C	1.507311	0.354187	-0.000030
N38	N	1.506433	-0.111700	-0.206577
C39	C	1.593258	-0.060718	0.248240
C40	C	1.593265	-0.060717	0.331692
C41	C	1.506380	-0.111686	0.373423
C42	C	1.419473	-0.162653	0.331699
C43	C	1.419461	-0.162649	0.248248
C44	C	1.419519	-0.162668	0.668246
C45	C	1.419540	-0.162669	0.751702
C46	C	1.593323	-0.060736	0.751690
C47	C	1.593311	-0.060733	0.668239
C48	C	1.506401	-0.111697	0.626521
C49	C	1.506392	-0.111696	0.536033
C50	C	1.506393	-0.111691	0.463910
H51	H	1.115419	0.019867	-0.000098
O52	O	1.677815	-0.011191	0.372094
C53	C	1.850172	0.089927	0.363275
C54	C	1.754498	0.033868	0.317422
H55	H	1.912177	0.126383	0.319092
H56	H	1.913865	0.056911	0.402303
H57	H	1.795229	0.128026	0.402386
H58	H	1.809336	-0.004244	0.278268
H59	H	1.690806	0.066932	0.278444
H60	H	1.302810	0.102758	-0.000030
H61	H	0.941609	-0.044070	0.120578
O62	O	0.936174	-0.037996	-0.131403
C63	C	0.956498	0.078785	-0.206375
C64	C	0.997304	0.036904	-0.131651
H65	H	1.005923	0.139344	-0.206609
H66	H	0.848114	0.080272	-0.205870
H67	H	0.985314	0.047719	-0.262002
H68	H	0.968574	0.067937	-0.075986
H69	H	1.105684	0.035410	-0.132227
H70	H	0.897108	-0.243176	-0.000106
O71	O	1.274032	0.492585	-0.000180
C72	C	1.141557	0.393664	-0.068842
C73	C	1.268252	0.446327	-0.068789
H74	H	1.136854	0.356240	-0.124298
H75	H	1.057323	0.429410	-0.068890
H76	H	1.136738	0.356319	-0.013334
H77	H	1.273196	0.483682	-0.124287
H78	H	1.352426	0.410536	-0.068699
H79	H	1.348756	-0.204166	0.634286
O80	O	1.076880	-0.185319	-0.131390
C81	C	1.081457	-0.189311	-0.274928
C82	C	1.040419	-0.147371	-0.200282
H83	H	1.052019	-0.158639	-0.330646
H84	H	1.032873	-0.250068	-0.274864
H85	H	1.189955	-0.190250	-0.274528
H86	H	0.931937	-0.146374	-0.200633
H87	H	1.089096	-0.086637	-0.200374
H88	H	1.709964	0.673857	-0.000035
O89	O	1.335194	-0.212136	0.372358
C90	C	1.258144	-0.257293	0.500920
C91	C	1.353676	-0.201221	0.454976
H92	H	1.273036	-0.248477	0.567726
H93	H	1.274567	-0.318025	0.484555
H94	H	1.156032	-0.246851	0.484484
H95	H	1.455826	-0.211594	0.471388
H96	H	1.337142	-0.140508	0.471345
O97	O	1.077071	-0.185230	0.131262
C98	C	1.203142	-0.177448	0.251615
C99	C	1.162050	-0.135582	0.176954
H100	H	1.271833	-0.137321	0.288586
H101	H	1.253067	-0.228765	0.232802
H102	H	1.114858	-0.197244	0.288759
H103	H	1.250267	-0.115736	0.139777
H104	H	1.112079	-0.084300	0.195821
H105	H	1.288235	0.643375	-0.000036
H106	H	1.724541	0.133237	-0.000015
H107	H	1.348698	-0.204149	0.214281
H108	H	1.664066	-0.019232	0.634264
O109	O	1.738888	0.283890	0.000012
C110	C	1.969673	0.292216	-0.000021
C111	C	1.842943	0.239585	-0.000049
H112	H	2.053834	0.256417	-0.000088
H113	H	1.974557	0.329594	0.055474
H114	H	1.974439	0.329610	-0.055492
H115	H	1.838092	0.202145	0.055385
H116	H	1.838112	0.202259	-0.055581
O117	O	1.732363	0.525846	-0.000069
C118	C	1.962698	0.550840	-0.000028
C119	C	1.833634	0.584988	-0.000003
H120	H	2.044610	0.598639	0.000043
H121	H	1.969600	0.514315	-0.055524
H122	H	1.969426	0.514275	0.055442
H123	H	1.826819	0.621587	-0.055435
H124	H	1.826787	0.621469	0.055530
H125	H	1.298959	0.246005	-0.000037
H126	H	1.664015	-0.019217	0.214267
H127	H	1.664087	-0.019236	0.785665
H128	H	1.348783	-0.204175	0.785679
