data_functionalizedCrystal
_audit_creation_method	'MofGen! by Chris Wilmer'
_symmetry_space_group_name_H-M	'P1'
_symmetry_Int_Tables_number	1
_symmetry_cell_setting	triclinic
loop_
_symmetry_equiv_pos_as_xyz
  x,y,z
_cell_length_a	10.654550
_cell_length_b	11.792241
_cell_length_c	9.130313
_cell_angle_alpha	89.998583
_cell_angle_beta	89.996220
_cell_angle_gamma	84.339159
loop_
_atom_site_label
_atom_site_type_symbol
_atom_site_fract_x
_atom_site_fract_y
_atom_site_fract_z
O1	O	1.667383	0.159415	-0.121920
O2	O	1.301862	0.174603	-0.121897
O3	O	1.493493	0.001859	-0.121899
O4	O	1.475752	0.332159	-0.121918
O5	O	1.493490	0.001864	0.121700
O6	O	1.301859	0.174608	0.121702
O7	O	1.667381	0.159419	0.121678
Cu8	Cu	1.484620	0.167014	0.143933
Cu9	Cu	1.484623	0.167008	-0.144151
O10	O	1.475750	0.332164	0.121680
C11	C	1.255066	0.173490	-0.000095
C12	C	1.115632	0.170154	-0.000085
C13	C	1.492377	-0.040432	-0.000100
C14	C	1.489042	-0.166454	-0.000101
C15	C	1.035858	0.271863	-0.000113
C16	C	0.904847	0.268721	-0.000138
C17	C	0.933394	0.062152	-0.000114
C18	C	1.064404	0.065295	-0.000079
C19	C	1.087087	0.376722	-0.000119
C20	C	1.007312	0.478439	-0.000148
C21	C	0.876300	0.475297	-0.000173
C22	C	0.825063	0.370438	-0.000170
C23	C	1.482908	-0.397180	-0.000125
C24	C	1.486316	-0.268787	-0.000112
C25	C	1.714177	0.160532	-0.000127
C26	C	1.853611	0.163869	-0.000146
C27	C	1.476865	0.374455	-0.000122
C28	C	1.480201	0.500476	-0.000130
N29	N	1.484627	0.167017	0.346555
N30	N	1.484625	0.166996	-0.346774
C31	C	1.569503	0.090552	0.423206
C32	C	1.569500	0.090539	0.576543
C33	C	1.399740	0.243465	0.576564
C34	C	1.399739	0.243472	0.423230
C35	C	1.654392	0.014097	0.346531
C36	C	1.739275	-0.062373	0.423182
C37	C	1.739272	-0.062387	0.576519
C38	C	1.654385	0.014070	0.653205
H39	H	1.049039	0.563812	-0.000139
N40	N	0.790255	0.584998	-0.000111
H41	H	0.842592	0.651898	-0.000083
H42	H	0.735264	0.588230	-0.090402
N43	N	1.308190	0.325943	0.340552
H44	H	1.323192	0.406624	0.367231
H45	H	1.321113	0.314243	0.231808
N46	N	1.830801	-0.144858	0.340483
H47	H	1.817922	-0.133253	0.231714
H48	H	1.919985	-0.131015	0.367272
H49	H	1.193762	0.379291	-0.000106
N50	N	0.878125	-0.050934	-0.000110
H51	H	0.824429	-0.056844	-0.090427
H52	H	0.948607	-0.114829	-0.000028
N53	N	0.683758	0.367045	-0.000176
H54	H	0.640992	0.447389	-0.000187
H55	H	0.657926	0.325685	-0.090484
N56	N	1.150447	-0.044407	-0.000053
H57	H	1.205467	-0.047709	-0.090337
H58	H	1.205331	-0.047634	0.090327
N59	N	1.654386	0.014118	0.181149
H60	H	1.739819	0.031359	0.144210
H61	H	1.635551	-0.063167	0.144320
H62	H	1.808379	-0.124659	0.638927
N63	N	1.654364	0.014061	0.818590
H64	H	1.635574	-0.063213	0.855519
H65	H	1.739812	0.031338	0.855411
H66	H	1.330629	0.305714	0.639012
