data_functionalizedCrystal
_audit_creation_method	'MofGen! by Chris Wilmer'
_symmetry_space_group_name_H-M	'P1'
_symmetry_Int_Tables_number	1
_symmetry_cell_setting	triclinic
loop_
_symmetry_equiv_pos_as_xyz
  x,y,z
_cell_length_a	16.992694
_cell_length_b	10.540510
_cell_length_c	15.455313
_cell_angle_alpha	92.694210
_cell_angle_beta	87.142206
_cell_angle_gamma	87.590767
loop_
_atom_site_label
_atom_site_type_symbol
_atom_site_fract_x
_atom_site_fract_y
_atom_site_fract_z
O1	O	1.045284	0.264113	-0.072014
O2	O	1.545284	0.764113	0.427986
O3	O	0.816984	0.261157	-0.072040
O4	O	1.316984	0.761157	0.427960
O5	O	0.936355	0.078379	-0.072026
O6	O	1.436355	0.578379	0.427974
O7	O	0.925913	0.446891	-0.072028
O8	O	1.425913	0.946891	0.427972
O9	O	0.929528	0.088785	0.072235
O10	O	1.429528	0.588785	0.572235
O11	O	0.810157	0.271563	0.072222
O12	O	1.310157	0.771563	0.572222
O13	O	1.038458	0.274519	0.072247
O14	O	1.538458	0.774519	0.572247
Cu15	Cu	0.923684	0.273991	0.085407
Cu16	Cu	1.423684	0.773991	0.585407
Cu17	Cu	0.931757	0.261685	-0.085199
Cu18	Cu	1.431757	0.761685	0.414801
O19	O	0.919087	0.457297	0.072233
O20	O	1.419087	0.957297	0.572233
C21	C	0.784337	0.262559	0.000088
C22	C	1.284337	0.762559	0.500088
C23	C	0.697231	0.251217	0.000078
C24	C	1.197231	0.751217	0.500078
C25	C	0.647596	0.360638	0.000078
C26	C	1.147596	0.860638	0.500078
C27	C	0.565749	0.349976	0.000090
C28	C	1.065749	0.849976	0.500090
C29	C	0.533540	0.229891	0.000095
C30	C	1.033540	0.729891	0.500095
C31	C	0.583181	0.120462	0.000098
C32	C	1.083181	0.620462	0.500098
C33	C	0.665026	0.131126	0.000092
C34	C	1.165026	0.631126	0.500092
C35	C	0.289697	0.185693	0.000119
C36	C	0.789697	0.685693	0.500119
C37	C	0.207846	0.175037	0.000122
C38	C	0.707846	0.675037	0.500122
C39	C	0.190420	0.404552	0.000116
C40	C	0.690420	0.904552	0.500116
C41	C	0.272267	0.415205	0.000104
C42	C	0.772267	0.915205	0.500104
C43	C	0.321900	0.305777	0.000112
C44	C	0.821900	0.805777	0.500112
N45	N	0.449880	0.218990	0.000105
N46	N	0.949880	0.718990	0.500105
N47	N	0.405558	0.316680	0.000108
N48	N	0.905558	0.816680	0.500108
C49	C	0.932163	0.036211	0.000103
C50	C	1.432163	0.536211	0.500103
C51	C	0.929836	-0.104941	0.000097
C52	C	1.429836	0.395059	0.500097
C53	C	1.012747	-0.315176	0.000437
C54	C	1.512747	0.184824	0.500437
C55	C	1.015245	-0.168389	0.000108
C56	C	1.515245	0.331611	0.500108
C57	C	0.890012	-0.159437	-0.082286
C58	C	1.390012	0.340563	0.417714
C59	C	0.888137	-0.306365	-0.082351
C60	C	1.388137	0.193635	0.417649
C61	C	0.878595	-0.294494	0.081701
C62	C	1.378595	0.205506	0.581701
C63	C	0.882595	-0.147723	0.082786
C64	C	1.382595	0.352277	0.582786
C65	C	1.071104	0.273117	0.000118
C66	C	1.571104	0.773117	0.500118
C67	C	1.158211	0.284458	0.000122
C68	C	1.658211	0.784458	0.500122
C69	C	0.923278	0.499465	0.000103
C70	C	1.423278	0.999465	0.500103
C71	C	0.925606	0.640617	0.000103
C72	C	1.425606	1.140617	0.500103
N73	N	0.918012	0.282647	0.205401
N74	N	1.418012	0.782647	0.705401
N75	N	0.937436	0.253020	-0.205194
N76	N	1.437436	0.753020	0.294806
C77	C	0.968743	0.205029	0.250801
C78	C	1.468743	0.705029	0.750801
C79	C	0.964460	0.211587	0.341609
C80	C	1.464460	0.711587	0.841609
C81	C	0.909450	0.295770	0.387015
C82	C	1.409450	0.795770	0.887015
C83	C	0.858714	0.373392	0.341608
C84	C	1.358714	0.873392	0.841608
C85	C	0.862993	0.366826	0.250803
C86	C	1.362993	0.866826	0.750803
C87	C	0.890979	0.324076	0.658594
C88	C	1.390979	0.824076	1.158594
C89	C	0.886705	0.330638	0.749406
C90	C	1.386705	0.830638	1.249406
C91	C	0.992451	0.168831	0.749400
C92	C	1.492451	0.668831	1.249400
C93	C	0.996728	0.162278	0.658593
C94	C	1.496728	0.662278	1.158593
C95	C	0.945989	0.239894	0.613194
C96	C	1.445989	0.739894	1.113194
N97	N	0.905073	0.302479	0.479834
N98	N	1.405073	0.802479	0.979834
N99	N	0.950363	0.233179	0.520376
N100	N	1.450363	0.733179	1.020376
H101	H	0.673814	0.458424	0.000072
H102	H	1.173814	0.958424	0.500072
H103	H	1.048609	-0.360048	-0.058303
H104	H	1.548609	0.139952	0.441697
H105	H	0.705438	0.042024	0.000091
H106	H	1.205438	0.542024	0.500091
C107	C	1.020250	0.126168	0.391545
C108	C	1.520250	0.626168	0.891545
N109	N	1.062266	0.061813	0.429156
N110	N	1.562266	0.561813	0.929156
C111	C	1.029258	0.112419	0.200863
C112	C	1.529258	0.612419	0.700863
N113	N	1.074838	0.042658	0.163253
N114	N	1.574838	0.542658	0.663253
C115	C	0.805266	-0.103078	-0.086442
C116	C	1.305266	0.396922	0.413558
N117	N	0.741436	-0.060625	-0.089571
N118	N	1.241436	0.439375	0.410429
C119	C	0.807191	0.452223	0.200863
C120	C	1.307191	0.952223	0.700863
N121	N	0.765160	0.516548	0.163250
N122	N	1.265160	1.016548	0.663250
H123	H	0.181625	0.077245	0.000126
H124	H	0.681625	0.577245	0.500126
C125	C	0.547748	-0.011633	0.000106
C126	C	1.047748	0.488367	0.500106
N127	N	0.521061	-0.111130	0.000108
N128	N	1.021061	0.388870	0.500108
C129	C	0.511153	0.470350	0.000105
C130	C	1.011153	0.970350	0.500105
N131	N	0.470031	0.561022	0.000124
N132	N	0.970031	1.061022	0.500124
C133	C	0.798194	0.465982	0.391558
C134	C	1.298194	0.965982	0.891558
N135	N	0.752609	0.535723	0.429179
N136	N	1.252609	1.035723	0.929179
C137	C	1.048254	0.083448	0.799346
C138	C	1.548254	0.583448	1.299346
N139	N	1.090284	0.019129	0.836965
N140	N	1.590284	0.519129	1.336965
C141	C	1.065507	-0.131739	-0.079805
C142	C	1.565507	0.368261	0.420195
N143	N	1.103364	-0.104137	-0.140000
N144	N	1.603364	0.395863	0.360000
H145	H	1.046660	-0.131817	0.059162
H146	H	1.546660	0.368183	0.559162
H147	H	0.330099	0.096588	0.000125
H148	H	0.830099	0.596588	0.500125
H149	H	1.043226	-0.349982	0.059519
H150	H	1.543226	0.150018	0.559519
H151	H	0.298485	0.512990	0.000090
H152	H	0.798485	1.012990	0.500090
C153	C	0.932451	-0.363196	-0.165530
C154	C	1.432451	0.136804	0.334470
N155	N	0.965834	-0.405995	-0.228180
N156	N	1.465834	0.094005	0.271820
C157	C	0.826184	0.423246	0.799351
C158	C	1.326184	0.923246	1.299351
N159	N	0.780603	0.492996	0.836969
N160	N	1.280603	0.992996	1.336969
C161	C	1.057240	0.069663	0.608653
C162	C	1.557240	0.569663	1.108653
N163	N	1.102818	-0.000096	0.571039
N164	N	1.602818	0.499904	1.071039
H165	H	0.824432	-0.335173	-0.086090
H166	H	1.324432	0.164827	0.413910
H167	H	0.923276	-0.130367	-0.143589
H168	H	1.423276	0.369633	0.356411
H169	H	0.149999	0.493642	0.000112
H170	H	0.649999	0.993642	0.500112
C171	C	0.911077	-0.342574	0.166060
C172	C	1.411077	0.157426	0.666060
N173	N	0.935552	-0.378787	0.229594
N174	N	1.435552	0.121213	0.729594
H175	H	0.814443	-0.322169	0.082249
H176	H	1.314443	0.177831	0.582249
C177	C	0.921659	-0.099359	0.165125
C178	C	1.421659	0.400641	0.665125
N179	N	0.951078	-0.062910	0.227141
N180	N	1.451078	0.437090	0.727141
C181	C	0.798034	-0.088269	0.089496
C182	C	1.298034	0.411731	0.589496
N183	N	0.734340	-0.043490	0.094543
N184	N	1.234340	0.456510	0.594543
H185	H	0.849666	0.387276	0.621638
H186	H	1.349666	0.887276	1.121638
