data_functionalizedCrystal
_audit_creation_method	'MofGen! by Chris Wilmer'
_symmetry_space_group_name_H-M	'P1'
_symmetry_Int_Tables_number	1
_symmetry_cell_setting	triclinic
loop_
_symmetry_equiv_pos_as_xyz
  x,y,z
_cell_length_a	9.065218
_cell_length_b	14.472310
_cell_length_c	9.065218
_cell_angle_alpha	90.000903
_cell_angle_beta	94.984115
_cell_angle_gamma	90.013153
loop_
_atom_site_label
_atom_site_type_symbol
_atom_site_fract_x
_atom_site_fract_y
_atom_site_fract_z
O1	O	1.960421	0.076839	-0.216347
O2	O	1.531136	0.076840	-0.234094
O3	O	1.754652	0.076838	-0.010578
O4	O	1.736905	0.076842	-0.439863
O5	O	1.754593	-0.076844	-0.010590
O6	O	1.531078	-0.076842	-0.234106
O7	O	1.960363	-0.076843	-0.216359
Cu8	Cu	1.745715	-0.090875	-0.225234
Cu9	Cu	1.745784	0.090872	-0.225219
O10	O	1.736847	-0.076840	-0.439875
C11	C	1.476120	-0.000001	-0.232394
C12	C	1.312277	-0.000000	-0.227294
N13	N	1.745677	-0.218706	-0.225243
C14	C	1.745782	-0.592797	-0.225213
C15	C	1.625771	-0.553630	-0.344400
C16	C	1.626057	-0.446542	-0.344844
C17	C	1.745729	-0.407206	-0.225228
C18	C	1.900138	-0.446043	-0.260913
C19	C	1.899466	-0.553164	-0.261762
C20	C	1.712752	-0.553327	-0.070002
C21	C	1.709234	-0.446200	-0.070987
C22	C	1.745708	-0.302318	-0.225234
C23	C	1.745812	-0.697685	-0.225211
C24	C	2.015378	0.000000	-0.218059
C25	C	2.179221	0.000006	-0.223158
C26	C	1.752917	-0.000002	0.044403
C27	C	1.747817	0.000003	0.208245
N28	N	1.745833	0.218703	-0.225198
C29	C	1.738582	0.000001	-0.494855
C30	C	1.743681	0.000003	-0.658698
H31	H	1.511348	-0.420286	-0.323280
N32	N	1.652150	-0.587364	-0.488033
N33	N	1.676613	-0.531886	-0.588743
H34	H	1.695247	-0.555710	-0.690185
N35	N	1.652755	-0.414408	-0.489305
N36	N	1.769976	-0.435785	-0.544001
H37	H	1.788819	-0.413099	-0.646042
N38	N	1.935593	-0.584487	-0.403844
N39	N	1.961122	-0.527234	-0.501687
H40	H	1.986637	-0.549350	-0.602037
N41	N	2.014992	-0.585657	-0.157131
N42	N	2.095863	-0.529217	-0.083722
H43	H	2.177458	-0.552160	-0.009831
H44	H	1.602489	-0.580395	-0.036199
N45	N	2.014944	-0.414076	-0.155007
N46	N	1.984169	-0.362187	-0.051804
H47	H	2.065248	-0.339609	0.022997
N48	N	1.937047	-0.412368	-0.401386
N49	N	1.849891	-0.359777	-0.475452
H50	H	1.875950	-0.335993	-0.574666
H51	H	1.595638	-0.420818	-0.043954
N52	N	1.811594	-0.412616	0.045672
N53	N	1.946723	-0.429378	0.044255
H54	H	2.019031	-0.405659	0.126639
N55	N	1.822515	-0.585106	0.041284
N56	N	1.924675	-0.636598	0.006642
H57	H	2.002199	-0.659047	0.085227
H58	H	1.510695	-0.579417	-0.323160
