data_functionalizedCrystal
_audit_creation_method	'MofGen! by Chris Wilmer'
_symmetry_space_group_name_H-M	'P1'
_symmetry_Int_Tables_number	1
_symmetry_cell_setting	triclinic
loop_
_symmetry_equiv_pos_as_xyz
  x,y,z
_cell_length_a	18.050590
_cell_length_b	25.639240
_cell_length_c	18.050582
_cell_angle_alpha	89.968180
_cell_angle_beta	90.000767
_cell_angle_gamma	90.021926
loop_
_atom_site_label
_atom_site_type_symbol
_atom_site_fract_x
_atom_site_fract_y
_atom_site_fract_z
Zn1	Zn	1.135269	-0.208335	-0.419554
Zn2	Zn	1.135170	-0.295763	-0.295344
Zn3	Zn	1.011088	-0.208327	-0.295412
Zn4	Zn	1.011026	-0.295725	-0.419526
O5	O	1.073138	-0.252037	-0.357459
O6	O	1.239180	-0.219952	-0.403060
O7	O	1.118695	-0.284177	-0.191428
O8	O	1.027628	-0.135163	-0.311920
O9	O	1.239108	-0.284185	-0.311804
O10	O	1.118864	-0.135169	-0.403126
O11	O	1.027532	-0.219938	-0.191478
O12	O	0.907155	-0.219901	-0.311893
O13	O	1.027523	-0.284120	-0.523455
O14	O	0.907110	-0.284112	-0.403079
O15	O	1.118804	-0.219915	-0.523475
O16	O	1.118635	-0.368923	-0.311777
O17	O	1.027427	-0.368895	-0.403013
C18	C	0.880186	-0.252002	-0.357491
C19	C	0.797640	-0.251999	-0.357522
C20	C	0.598187	-0.287017	-0.406992
C21	C	0.548799	-0.239344	-0.425278
C22	C	0.646510	-0.252028	-0.357486
C23	C	0.548816	-0.299728	-0.339199
C24	C	0.500525	-0.252061	-0.357452
C25	C	0.598210	-0.204330	-0.375808
C26	C	0.598231	-0.264747	-0.289697
C27	C	0.548866	-0.217041	-0.307958
C28	C	0.730608	-0.252010	-0.357507
C29	C	0.416428	-0.252073	-0.357431
C30	C	1.073033	-0.387880	-0.357401
C31	C	1.073056	-0.445994	-0.357401
C32	C	1.120668	-0.806322	-0.405036
C33	C	1.120690	-0.860926	-0.405051
O34	O	1.161046	-0.889133	-0.445492
N35	N	1.073241	-0.888277	-0.357531
C36	C	1.025763	-0.861020	-0.309998
O37	O	0.985405	-0.889297	-0.269580
C38	C	1.025737	-0.806416	-0.309987
C39	C	1.073194	-0.779069	-0.357505
C40	C	1.168121	-0.778974	-0.452551
C41	C	1.168099	-0.724374	-0.452534
C42	C	1.120626	-0.697121	-0.405003
C43	C	1.073173	-0.724468	-0.357489
C44	C	0.978255	-0.779161	-0.262458
C45	C	0.978234	-0.724554	-0.262452
C46	C	1.025691	-0.697206	-0.309970
C47	C	1.025679	-0.642615	-0.309941
N48	N	1.073127	-0.615265	-0.357462
C49	C	1.120601	-0.642517	-0.404993
C50	C	1.025818	-0.975690	-0.310025
C51	C	1.025846	-1.030293	-0.310031
C52	C	1.120773	-1.030195	-0.405086
C53	C	1.120748	-0.975592	-0.405075
C54	C	1.073266	-0.948340	-0.357545
C55	C	1.120553	-0.527852	-0.404954
C56	C	1.120530	-0.473247	-0.404932
C57	C	1.025601	-0.473349	-0.309880
C58	C	1.025627	-0.527950	-0.309900
C59	C	1.073105	-0.555200	-0.357443
O60	O	0.985341	-0.614373	-0.269523
O61	O	1.160944	-0.614233	-0.445410
C62	C	1.266844	-0.252074	-0.357427
C63	C	1.349390	-0.252089	-0.357414
C64	C	1.073167	-0.252014	-0.551165
C65	C	1.073180	-0.252004	-0.633710
C66	C	1.073264	-0.115664	-0.357534
C67	C	1.073317	-0.057550	-0.357565
C68	C	1.023579	-0.286871	-0.833150
C69	C	1.091333	-0.299661	-0.882520
C70	C	1.073216	-0.251965	-0.784841
C71	C	1.005500	-0.239161	-0.882553
C72	C	1.073246	-0.251927	-0.930826
C73	C	1.141006	-0.264779	-0.833124
C74	C	1.055127	-0.204257	-0.833152
C75	C	1.122927	-0.217028	-0.882499
C76	C	1.073199	-0.251988	-0.700743
C77	C	1.073271	-0.251904	-1.014923
C78	C	1.073152	-0.252023	-0.164507
C79	C	1.073284	-0.251885	-0.081962
H80	H	0.619815	-0.163992	-0.391325
O81	O	0.932254	-0.805743	-0.216230
C82	C	0.974558	-0.837348	-0.168299
H83	H	1.033048	-0.820874	-0.163728
H84	H	0.947719	-0.838006	-0.111136
H85	H	0.977114	-0.878718	-0.191272
H86	H	0.987155	-0.953504	-0.271314
O87	O	0.523146	-0.181792	-0.257915
C88	C	0.480157	-0.207682	-0.204025
H89	H	0.496858	-0.250526	-0.201673
H90	H	0.489836	-0.188919	-0.147604
H91	H	0.419018	-0.204537	-0.219218
H92	H	0.619961	-0.275508	-0.232401
H93	H	1.206779	-0.801158	-0.491261
O94	O	0.973632	-0.322202	-0.807329
C95	C	0.992993	-0.372428	-0.832501
H96	H	1.054596	-0.373423	-0.846340
H97	H	0.980568	-0.402265	-0.787326
H98	H	0.959471	-0.382212	-0.884190
H99	H	0.939567	-0.702368	-0.223748
H100	H	0.987210	-1.052554	-0.271329
H101	H	0.527116	-0.340054	-0.323748
H102	H	1.198302	-0.275639	-0.811503
O103	O	1.166654	-0.446763	-0.451166
C104	C	1.208569	-0.482531	-0.493108
H105	H	1.178161	-0.521466	-0.495667
H106	H	1.216445	-0.466722	-0.551623
H107	H	1.264992	-0.488327	-0.465952
O108	O	0.979462	-0.554438	-0.263715
C109	C	0.937573	-0.518671	-0.221743
H110	H	0.934973	-0.479732	-0.252146
H111	H	0.879069	-0.534475	-0.213791
H112	H	0.964803	-0.512886	-0.165355
O113	O	0.523011	-0.226539	-0.493701
C114	C	0.583290	-0.217976	-0.541877
H115	H	0.634170	-0.239323	-0.519967
H116	H	0.568963	-0.233278	-0.599409
H117	H	0.595479	-0.174406	-0.545212
O118	O	0.979510	-0.446789	-0.263782
C119	C	0.989684	-0.392732	-0.273953
H120	H	1.013972	-0.385239	-0.331278
H121	H	0.934052	-0.372005	-0.268884
H122	H	1.029252	-0.377239	-0.229922
O123	O	1.166712	-0.554374	-0.451033
C124	C	1.214738	-0.585948	-0.408797
H125	H	1.188586	-0.594180	-0.352505
H126	H	1.224697	-0.624319	-0.439073
H127	H	1.269765	-0.564876	-0.400659
O128	O	1.214219	-0.697893	-0.498768
C129	C	1.256132	-0.733665	-0.540705
H130	H	1.225722	-0.772600	-0.543257
H131	H	1.264009	-0.717861	-0.599222
H132	H	1.312556	-0.739461	-0.513548
O133	O	1.173029	-0.181726	-0.908096
C134	C	1.154424	-0.131634	-0.881837
H135	H	1.119374	-0.135426	-0.829574
H136	H	1.207225	-0.109081	-0.868589
H137	H	1.121632	-0.109889	-0.926113
O138	O	1.166865	-0.949110	-0.451309
C139	C	1.208782	-0.984880	-0.493246
H140	H	1.178378	-1.023816	-0.495796
H141	H	1.216656	-0.969076	-0.551764
H142	H	1.265207	-0.990671	-0.466089
O143	O	1.109504	-0.347767	-0.908487
C144	C	1.051143	-0.367113	-0.952534
H145	H	1.016614	-0.333154	-0.974205
H146	H	1.074972	-0.389887	-1.001238
H147	H	1.014653	-0.393939	-0.917779
H148	H	1.039789	-0.163939	-0.811450
O149	O	0.937112	-0.226317	-0.908368
C150	C	0.884949	-0.263252	-0.883240
H151	H	0.906923	-0.283185	-0.831227
H152	H	0.830524	-0.242748	-0.869949
H153	H	0.875220	-0.293690	-0.928221
O154	O	0.624065	-0.322314	-0.456885
C155	C	0.667049	-0.360136	-0.419898
H156	H	0.650234	-0.361694	-0.359062
H157	H	0.657489	-0.399919	-0.446412
H158	H	0.728178	-0.349380	-0.424313
O159	O	1.166780	-1.056697	-0.451343
C160	C	1.124473	-1.088287	-0.499271
H161	H	1.065974	-1.071853	-0.503814
H162	H	1.151291	-1.088869	-0.556444
H163	H	1.121942	-1.129681	-0.476313
