data_functionalizedCrystal
_audit_creation_method	'MofGen! by Chris Wilmer'
_symmetry_space_group_name_H-M	'P1'
_symmetry_Int_Tables_number	1
_symmetry_cell_setting	triclinic
loop_
_symmetry_equiv_pos_as_xyz
  x,y,z
_cell_length_a	10.654555
_cell_length_b	9.730217
_cell_length_c	10.654550
_cell_angle_alpha	90.003118
_cell_angle_beta	95.514047
_cell_angle_gamma	90.001229
loop_
_atom_site_label
_atom_site_type_symbol
_atom_site_fract_x
_atom_site_fract_y
_atom_site_fract_z
O1	O	-1.667832	0.114206	0.176427
O2	O	-1.302354	0.114227	0.193226
O3	O	-1.493496	0.114208	0.002087
O4	O	-1.476690	0.114226	0.367566
O5	O	-1.493490	-0.114373	0.002086
O6	O	-1.302349	-0.114353	0.193225
O7	O	-1.667826	-0.114374	0.176425
Zn8	Zn	-1.485086	-0.150655	0.184824
Zn9	Zn	-1.485094	0.150509	0.184827
O10	O	-1.476684	-0.114354	0.367564
C11	C	-1.255554	-0.000060	0.191991
C12	C	-1.116111	-0.000052	0.188296
C13	C	-0.919568	0.124539	0.183095
C14	C	-1.050591	0.124546	0.186559
C15	C	-1.050603	-0.124665	0.186557
C16	C	-0.919584	-0.124670	0.183084
N17	N	-1.485090	-0.356192	0.184822
C18	C	-1.654416	-0.356200	0.015618
C19	C	-1.739087	-0.428144	-0.068980
C20	C	-1.739100	-0.572024	-0.068980
C21	C	-1.654430	-0.643963	0.015624
C22	C	-1.569759	-0.572019	0.100222
C23	C	-1.569758	-0.428136	0.100216
C24	C	-1.400429	-0.572011	0.269417
C25	C	-1.400420	-0.428131	0.269426
C26	C	-1.315759	-0.643950	0.354021
C27	C	-1.231091	-0.572006	0.438628
C28	C	-1.231083	-0.428118	0.438626
C29	C	-1.315749	-0.356187	0.354024
C30	C	-0.714627	-0.000079	0.177662
C31	C	-0.854069	-0.000063	0.181360
C32	C	-1.492259	-0.000082	-0.044711
C33	C	-1.488567	-0.000079	-0.184155
N34	N	-1.485100	0.356045	0.184819
C35	C	-1.601109	-0.000085	-0.263638
C36	C	-1.597632	-0.000068	-0.394659
C37	C	-1.369063	-0.000045	-0.366700
C38	C	-1.372541	-0.000052	-0.235682
C39	C	-1.477921	-0.000062	0.414363
C40	C	-1.481613	-0.000055	0.553806
H41	H	-1.654425	-0.239046	0.015621
H42	H	-1.103961	-0.226115	0.187963
H43	H	-1.315754	-0.239033	0.354020
H44	H	-1.689275	-0.000070	-0.459370
H45	H	-1.280891	-0.000043	-0.170962
H46	H	-1.808023	-0.369559	-0.137866
C47	C	-1.122633	0.261609	0.188476
H48	H	-1.064845	0.335813	0.186961
H49	H	-1.182683	0.266795	0.116722
H50	H	-1.164802	0.266789	0.262949
H51	H	-1.695585	-0.000104	-0.221690
H52	H	-1.274598	-0.000026	-0.408670
H53	H	-0.866230	0.226002	0.181690
H54	H	-1.808042	-0.630601	-0.137872
C55	C	-1.137969	-0.651139	0.531680
H56	H	-1.150104	-0.747131	0.519563
H57	H	-1.054035	-0.627561	0.517259
H58	H	-1.152337	-0.627561	0.615635
H59	H	-0.866254	-0.226142	0.181670
H60	H	-1.315767	-0.761105	0.354012
H61	H	-1.654435	-0.761117	0.015607
C62	C	-1.137945	-0.348990	0.531688
H63	H	-1.087532	-0.412445	0.582075
H64	H	-1.085279	-0.292863	0.486020
H65	H	-1.183572	-0.292863	0.584404
