data_functionalizedCrystal
_audit_creation_method	'MofGen! by Chris Wilmer'
_symmetry_space_group_name_H-M	'P1'
_symmetry_Int_Tables_number	1
_symmetry_cell_setting	triclinic
loop_
_symmetry_equiv_pos_as_xyz
  x,y,z
_cell_length_a	14.560438
_cell_length_b	14.560438
_cell_length_c	14.560438
_cell_angle_alpha	59.999931
_cell_angle_beta	90.000131
_cell_angle_gamma	59.997898
loop_
_atom_site_label
_atom_site_type_symbol
_atom_site_fract_x
_atom_site_fract_y
_atom_site_fract_z
Zr1	Zr	0.884725	1.005292	-0.120497
O2	O	0.738070	1.196903	-0.267150
O3	O	0.929688	0.813684	-0.075540
O4	O	0.929683	1.005292	-0.267143
O5	O	0.738072	1.005295	0.075593
O6	O	1.080824	1.005289	-0.267138
O7	O	0.738075	1.005295	-0.075547
O8	O	1.080833	0.662538	0.075605
O9	O	0.738063	1.348046	-0.267150
O10	O	1.061652	0.892493	-0.056363
O11	O	0.948855	0.892495	0.056427
O12	O	0.948849	1.118088	-0.169161
O13	O	0.836052	1.118090	-0.056371
Zr14	Zr	1.125772	1.005287	0.120561
Zr15	Zr	1.125777	1.005288	-0.120489
Zr16	Zr	0.884720	1.005292	0.120553
Zr17	Zr	0.884714	1.246348	-0.120498
Zr18	Zr	1.125783	0.764232	0.120561
O19	O	1.080809	1.196896	0.075604
O20	O	1.080816	1.196896	-0.267139
O21	O	0.738063	1.196902	0.075593
O22	O	1.272427	0.813677	0.267213
O23	O	1.272434	0.813678	-0.075529
O24	O	0.929682	0.813684	0.267202
O25	O	1.272425	1.005285	-0.075529
O26	O	1.080814	1.005288	0.267207
O27	O	0.929673	1.005291	0.267202
O28	O	1.272422	1.005285	0.075610
O29	O	0.929668	1.348042	-0.267144
O30	O	1.080829	0.662538	0.267207
O31	O	1.272434	0.662534	0.267214
O32	O	1.272438	0.662535	0.075611
O33	O	0.738059	1.348045	-0.075547
O34	O	0.929664	1.348042	-0.075541
O35	O	1.061648	0.892492	0.169225
O36	O	1.174445	0.892490	0.056434
O37	O	1.061642	1.118085	-0.056363
O38	O	0.948845	1.118087	0.056427
C39	C	1.005262	0.703766	0.000032
C40	C	1.005267	0.601431	0.000032
C41	C	1.088506	0.373936	0.083302
C42	C	1.088527	0.470078	0.083301
C43	C	0.921987	0.636643	-0.083247
C44	C	0.921971	0.540502	-0.083249
C45	C	1.171765	0.242582	0.166583
C46	C	1.255047	0.207363	0.249861
C47	C	1.255069	0.303505	0.249860
C48	C	1.171808	0.434866	0.166580
C49	C	0.703729	1.005296	0.000022
C50	C	0.601396	1.005298	0.000019
C51	C	0.553314	1.005300	-0.083244
C52	C	0.457168	1.005288	-0.083229
C53	C	0.457192	1.005276	0.083316
C54	C	0.553340	1.005279	0.083304
C55	C	0.601369	1.005318	-0.166529
C56	C	0.553287	1.005322	-0.249799
C57	C	0.457141	1.005310	-0.249784
C58	C	0.409078	1.005294	-0.166499
C59	C	1.306768	1.005284	0.000042
C60	C	1.409101	1.005282	0.000045
C61	C	1.005255	1.005291	-0.301485
C62	C	1.005257	1.005291	-0.403818
C63	C	1.005235	1.306814	0.000031
C64	C	1.005230	1.409148	0.000031
C65	C	1.088516	1.005295	-0.451899
C66	C	1.088511	1.005289	-0.548048
C67	C	0.921976	1.005281	-0.548029
C68	C	0.921987	1.005278	-0.451877
C69	C	1.171786	1.005308	-0.403840
C70	C	1.255051	1.005313	-0.451922
C71	C	1.255046	1.005308	-0.548071
C72	C	1.171775	1.005297	-0.596138
C73	C	1.005243	1.005289	0.301549
C74	C	1.005240	1.005289	0.403881
C75	C	1.306782	0.703760	0.000042
C76	C	1.409120	0.601424	0.000046
C77	C	1.005256	0.703765	0.301549
C78	C	1.005259	0.601431	0.403882
C79	C	1.306776	0.703760	0.301559
C80	C	1.409112	0.601423	0.403895
C81	C	0.703721	1.306820	-0.301496
C82	C	0.601385	1.409157	-0.403831
C83	C	0.703715	1.306820	0.000022
C84	C	0.601377	1.409156	0.000018
C85	C	1.005241	1.306815	-0.301486
C86	C	1.005238	1.409149	-0.403818
C87	C	1.398325	0.553344	-0.058828
C88	C	1.494486	0.457195	-0.058829
C89	C	1.612234	0.457212	0.058928
C90	C	1.516074	0.553365	0.058921
C91	C	1.291371	0.601402	-0.117704
C92	C	1.280571	0.553321	-0.176582
C93	C	1.376732	0.457173	-0.176582
C94	C	1.483693	0.409105	-0.117705
C95	C	1.064138	0.553347	0.510837
C96	C	1.064132	0.457198	0.606985
C97	C	0.946365	0.457220	0.489209
C98	C	0.946366	0.553374	0.393063
C99	C	1.123032	0.601404	0.521655
C100	C	1.181917	0.553320	0.628615
C101	C	1.181911	0.457171	0.724763
C102	C	1.123019	0.409106	0.713951
C103	C	1.516068	0.553340	0.393100
C104	C	1.612220	0.457190	0.489259
C105	C	1.494444	0.457211	0.607005
C106	C	1.398295	0.553366	0.510847
C107	C	1.526885	0.601397	0.286149
C108	C	1.633846	0.553313	0.275349
C109	C	1.729997	0.457163	0.371508
C110	C	1.719187	0.409097	0.478467
H111	H	1.322839	0.100407	0.317660
N112	N	1.282931	0.605202	0.522484
H113	H	1.223664	0.673403	0.445338
H114	H	1.274000	0.645029	0.565000
H115	H	1.642641	0.592460	0.188260
N116	N	1.171777	1.005293	-0.699843
H117	H	1.099040	1.085377	-0.763043
H118	H	1.179173	0.925158	-0.682863
N119	N	1.165217	0.605153	-0.240079
H120	H	1.122681	0.701676	-0.299330
H121	H	1.122803	0.588316	-0.185994
H122	H	1.171796	1.005316	-0.325552
H123	H	1.213065	0.679685	-0.117704
H124	H	1.229849	0.418032	0.811850
H125	H	1.322853	1.005311	-0.412776
H126	H	0.854162	0.569178	-0.151058
H127	H	1.171755	0.164290	0.166595
H128	H	1.797485	0.330814	0.556761
H129	H	0.898423	0.592522	0.305974
H130	H	1.485653	0.418067	0.694095
N131	N	0.832183	0.778315	-0.173059
H132	H	0.835821	0.797985	-0.249503
H133	H	0.844882	0.833783	-0.160320
N134	N	1.845361	0.405309	0.359868
H135	H	1.837617	0.450348	0.277523
H136	H	1.887823	0.308785	0.397205
N137	N	1.344844	1.005325	-0.599935
H138	H	1.388611	0.925245	-0.599788
H139	H	1.397509	1.005386	-0.554860
H140	H	1.322887	0.274824	0.317663
N141	N	1.527712	0.605348	0.122301
H142	H	1.450564	0.673599	0.113314
H143	H	1.570213	0.645164	0.091278
N144	N	0.832168	1.005270	-0.599868
H145	H	0.844794	1.005275	-0.668077
H146	H	0.755762	1.085354	-0.623099
N147	N	0.832188	1.005269	-0.400012
H148	H	0.755736	1.085351	-0.456777
H149	H	0.844935	1.005213	-0.331797
H150	H	1.367934	0.418037	-0.224532
N151	N	0.605205	1.005289	0.173098
H152	H	0.685142	0.925206	0.216844
H153	H	0.560087	1.005337	0.225779
H154	H	1.561989	0.330820	-0.117715
H155	H	0.592430	1.005324	-0.317602
N156	N	1.171837	0.538565	0.166566
H157	H	1.237230	0.496328	0.231952
H158	H	1.099064	0.594404	0.173870
N159	N	0.705064	1.005340	-0.166549
H160	H	0.728212	1.005353	-0.231943
H161	H	0.768207	0.925253	-0.093779
H162	H	1.448600	0.679684	0.207844
H163	H	0.418000	1.005300	-0.317579
N164	N	1.245439	0.605151	0.640276
H165	H	1.282736	0.560100	0.722624
H166	H	1.191382	0.701675	0.602946
N167	N	1.727589	0.405364	0.122440
H168	H	1.736592	0.478726	0.091553
H169	H	1.786798	0.337135	0.113495
N170	N	1.123062	0.705092	0.417964
H171	H	1.089565	0.784879	0.417918
H172	H	1.076848	0.728158	0.348616
N173	N	1.122998	0.305407	0.817646
H174	H	1.089485	0.338873	0.863922
H175	H	1.202764	0.225648	0.863845
N176	N	0.305387	1.005263	-0.166470
H177	H	0.282221	1.005259	-0.231852
H178	H	0.242252	1.085344	-0.173774
N179	N	0.405349	1.005258	0.173134
H180	H	0.325412	1.085340	0.136810
H181	H	0.450479	1.005205	0.225858
N182	N	0.882855	0.405378	0.477546
H183	H	0.891793	0.337165	0.554684
H184	H	0.913775	0.365561	0.435026
