data_functionalizedCrystal
_audit_creation_method	'MofGen! by Chris Wilmer'
_symmetry_space_group_name_H-M	'P1'
_symmetry_Int_Tables_number	1
_symmetry_cell_setting	triclinic
loop_
_symmetry_equiv_pos_as_xyz
  x,y,z
_cell_length_a	27.440280
_cell_length_b	27.440280
_cell_length_c	27.440280
_cell_angle_alpha	119.996177
_cell_angle_beta	89.993636
_cell_angle_gamma	60.004534
loop_
_atom_site_label
_atom_site_type_symbol
_atom_site_fract_x
_atom_site_fract_y
_atom_site_fract_z
Zr1	Zr	0.469571	0.533327	0.063884
O2	O	0.391766	0.634989	0.141703
O3	O	0.493413	0.431666	0.040030
O4	O	0.493428	0.533315	0.141691
O5	O	0.391751	0.533349	-0.040152
O6	O	0.573631	0.533306	0.141681
O7	O	0.391752	0.533339	0.040041
O8	O	0.573605	0.351473	-0.040173
O9	O	0.391777	0.715181	0.141702
O10	O	0.563447	0.473473	0.029848
O11	O	0.503592	0.473488	-0.029992
O12	O	0.503609	0.593167	0.089701
O13	O	0.443754	0.593181	0.029861
Zr14	Zr	0.597483	0.533327	-0.064031
Zr15	Zr	0.597485	0.533312	0.063868
Zr16	Zr	0.469569	0.533342	-0.064015
Zr17	Zr	0.469588	0.661225	0.063883
Zr18	Zr	0.597467	0.405430	-0.064029
O19	O	0.573641	0.634989	-0.040176
O20	O	0.573644	0.634967	0.141680
O21	O	0.391764	0.635010	-0.040153
O22	O	0.675288	0.431666	-0.141849
O23	O	0.675291	0.431644	0.040007
O24	O	0.493411	0.431687	-0.141826
O25	O	0.675304	0.533306	0.040006
O26	O	0.573627	0.533339	-0.141838
O27	O	0.493424	0.533349	-0.141828
O28	O	0.675303	0.533315	-0.040188
O29	O	0.493451	0.715169	0.141689
O30	O	0.573603	0.351485	-0.141835
O31	O	0.675278	0.351473	-0.141848
O32	O	0.675279	0.351461	-0.040185
O33	O	0.391775	0.715193	0.040039
O34	O	0.493450	0.715181	0.040026
O35	O	0.563445	0.473488	-0.089847
O36	O	0.623301	0.473474	-0.030007
O37	O	0.563463	0.593167	0.029846
O38	O	0.503607	0.593181	-0.029994
C39	C	0.533507	0.373347	-0.000071
C40	C	0.533500	0.319051	-0.000071
C41	C	0.373526	0.533346	-0.000053
C42	C	0.319223	0.533352	-0.000046
C43	C	0.564788	-0.017699	0.031157
C44	C	0.564793	-0.068722	0.031156
O45	O	0.591383	-0.095135	0.057702
N46	N	0.533549	-0.094231	-0.000079
C47	C	0.502302	-0.068718	-0.031319
O48	O	0.475727	-0.095101	-0.057887
C49	C	0.502300	-0.017699	-0.031320
C50	C	0.533542	0.007812	-0.000079
C51	C	0.596027	0.007812	0.062396
C52	C	0.596021	0.058833	0.062398
C53	C	0.564775	0.084344	0.031162
C54	C	0.533535	0.058833	-0.000076
C55	C	0.471057	0.007809	-0.062563
C56	C	0.471059	0.058832	-0.062563
C57	C	0.502300	0.084343	-0.031321
C58	C	0.502283	0.135365	-0.031310
N59	N	0.533527	0.160874	-0.000075
C60	C	0.564773	0.135364	0.031161
C61	C	0.502308	-0.175864	-0.031314
C62	C	0.502306	-0.226879	-0.031309
C63	C	0.564798	-0.226880	0.031164
C64	C	0.564797	-0.175861	0.031163
C65	C	0.533553	-0.150355	-0.000079
C66	C	0.564757	0.242512	0.031164
C67	C	0.564746	0.293540	0.031166
C68	C	0.502256	0.293534	-0.031311
C69	C	0.502265	0.242514	-0.031310
C70	C	0.533519	0.217002	-0.000072
O71	O	0.475709	0.161808	-0.057845
O72	O	0.591350	0.161746	0.057718
C73	C	0.013760	0.470837	-0.031332
C74	C	-0.037258	0.470833	-0.031338
O75	O	-0.037082	0.417698	-0.057927
N76	N	-0.094010	0.533311	-0.000094
C77	C	-0.099742	0.595797	0.031152
O78	O	-0.152698	0.648939	0.057726
C79	C	-0.048724	0.595800	0.031153
C80	C	0.008027	0.533318	-0.000088
C81	C	0.070509	0.408360	-0.062571
C82	C	0.121524	0.408364	-0.062565
C83	C	0.115790	0.470845	-0.031320
C84	C	0.059042	0.533322	-0.000081
C85	C	-0.054457	0.658286	0.062395
C86	C	-0.003433	0.658283	0.062393
C87	C	0.053318	0.595801	0.031153
C88	C	0.104323	0.595807	0.031170
N89	N	0.161074	0.533329	-0.000073
C90	C	0.166808	0.470848	-0.031318
C91	C	-0.206881	0.595786	0.031145
C92	C	-0.257898	0.595784	0.031148
C93	C	-0.195410	0.470819	-0.031343
C94	C	-0.144392	0.470823	-0.031341
C95	C	-0.150129	0.533308	-0.000098
C96	C	0.273940	0.470862	-0.031302
C97	C	0.324957	0.470871	-0.031291
C98	C	0.262465	0.595835	0.031196
C99	C	0.211453	0.595826	0.031188
C100	C	0.217194	0.533334	-0.000066
O101	O	0.104193	0.648916	0.057744
O102	O	0.219766	0.417715	-0.057894
C103	C	0.693528	0.533308	-0.000093
C104	C	0.747831	0.533302	-0.000100
C105	C	0.533530	0.533308	0.159909
C106	C	0.533530	0.533302	0.214206
C107	C	0.533548	0.693308	-0.000075
C108	C	0.533555	0.747604	-0.000076
C109	C	0.564770	0.470837	0.417671
C110	C	0.564772	0.470833	0.366649
O111	O	0.591353	0.417697	0.313690
N112	N	0.533534	0.533311	0.372374
C113	C	0.502298	0.595797	0.429126
O114	O	0.475728	0.648939	0.429311
C115	C	0.502299	0.595800	0.480147
C116	C	0.533534	0.533318	0.474417
C117	C	0.596002	0.408360	0.411943
C118	C	0.595999	0.408364	0.462962
C119	C	0.564763	0.470845	0.519709
C120	C	0.533531	0.533322	0.525436
C121	C	0.471066	0.658285	0.536899
C122	C	0.471071	0.658283	0.587920
C123	C	0.502306	0.595801	0.582190
C124	C	0.502292	0.595807	0.633202
N125	N	0.533529	0.533329	0.627476
C126	C	0.564765	0.470848	0.570730
C127	C	0.502297	0.595786	0.321977
C128	C	0.502292	0.595783	0.270957
C129	C	0.564767	0.470819	0.208482
C130	C	0.564769	0.470822	0.259503
C131	C	0.533535	0.533308	0.316251
C132	C	0.564755	0.470862	0.677875
C133	C	0.564747	0.470871	0.728902
C134	C	0.502275	0.595835	0.791371
C135	C	0.502280	0.595826	0.740350
C136	C	0.533525	0.533334	0.683600
O137	O	0.475726	0.648916	0.686179
O138	O	0.591336	0.417715	0.570555
C139	C	0.533522	0.533346	0.839945
C140	C	0.533511	0.533352	0.785648
C141	C	0.693508	0.373328	-0.000091
C142	C	0.747804	0.319026	-0.000097
C143	C	0.533504	0.373366	-0.160054
C144	C	0.533497	0.319076	-0.214349
C145	C	0.693505	0.373347	-0.160074
C146	C	0.747801	0.319051	-0.214376
C147	C	0.373549	0.693308	0.159927
C148	C	0.319254	0.747603	0.214230
C149	C	0.373547	0.693326	-0.000055
C150	C	0.319251	0.747629	-0.000049
C151	C	0.533550	0.693289	0.159907
C152	C	0.533558	0.747578	0.214203
C153	C	0.742059	0.293525	0.031149
C154	C	0.793071	0.242509	0.031155
C155	C	0.849827	0.216992	-0.000089
C156	C	0.855571	0.242498	-0.031336
C157	C	0.804559	0.293516	-0.031338
C158	C	0.564736	0.293581	-0.271096
C159	C	0.564726	0.242578	-0.322118
C160	C	0.533480	0.217066	-0.316391
C161	C	0.502237	0.242566	-0.259639
C162	C	0.502244	0.293572	-0.208618
C163	C	0.804547	0.293546	-0.208642
C164	C	0.855568	0.242536	-0.259660
C165	C	0.849841	0.217029	-0.316412
C166	C	0.793088	0.242539	-0.322146
C167	C	0.742069	0.293552	-0.271128
C168	C	0.262507	0.773115	0.208495
C169	C	0.211486	0.824140	0.259514
C170	C	0.217213	0.849650	0.316266
C171	C	0.273966	0.824136	0.322000
C172	C	0.324986	0.773115	0.270982
C173	C	0.324996	0.773135	-0.031290
C174	C	0.273984	0.824165	-0.031282
C175	C	0.217228	0.849684	-0.000036
C176	C	0.211484	0.824175	0.031209
C177	C	0.262495	0.773150	0.031204
C178	C	0.564810	0.773073	0.208458
C179	C	0.564829	0.824077	0.259469
C180	C	0.533592	0.849589	0.316226
C181	C	0.502339	0.824089	0.321971
C182	C	0.502324	0.773082	0.270960
H183	H	0.590208	0.221746	0.056600
H184	H	0.590278	0.844834	0.254780
H185	H	0.257809	0.752384	0.056642
H186	H	0.476859	-0.155095	-0.056752
N187	N	0.280140	0.851647	0.383212
H188	H	0.302681	0.872813	0.387998
H189	H	0.239186	0.887809	0.414619
N190	N	0.076698	0.340966	-0.096266
H191	H	0.056930	0.338170	-0.127709
H192	H	0.120404	0.301432	-0.116014
H193	H	0.590180	0.314347	-0.275771
N194	N	0.468647	0.851609	0.383188
H195	H	0.497304	0.842726	0.405743
H196	H	0.437220	0.902813	0.405696
H197	H	0.476850	0.646663	0.275630
H198	H	0.809245	0.314272	-0.056786
N199	N	0.386192	0.745587	0.277167
H200	H	0.408769	0.754454	0.257392
H201	H	0.382026	0.769499	0.320872
N202	N	0.468615	0.663185	0.383184
H203	H	0.448831	0.702759	0.379063
H204	H	0.437202	0.665925	0.405731
N205	N	0.256321	0.745605	0.147288
H206	H	0.212627	0.769516	0.151406
H207	H	0.276134	0.754478	0.124755
H208	H	0.165281	0.844905	0.254834
H209	H	0.445633	0.709165	0.541576
H210	H	0.175696	0.891232	-0.000037
H211	H	0.695865	0.314311	-0.275806
N212	N	0.810728	0.321059	-0.147432
H213	H	0.790955	0.312179	-0.124869
H214	H	0.854432	0.297149	-0.151595
N215	N	0.468555	0.321084	-0.147404
H216	H	0.437126	0.372296	-0.124845
H217	H	0.448792	0.297145	-0.151552
N218	N	0.280184	0.851681	-0.064974
H219	H	0.260402	0.842823	-0.096407
H220	H	0.260428	0.902880	-0.036272
N221	N	0.533620	0.904599	0.371238
H222	H	0.515849	0.946930	0.371256
H223	H	0.509102	0.916841	0.408041
N224	N	0.150267	0.851691	0.064896
H225	H	0.118828	0.887879	0.060149
H226	H	0.145541	0.812726	0.048482
H227	H	0.590246	0.752310	0.162248
H228	H	0.476873	0.752330	0.275646
N229	N	0.468563	0.321050	-0.065005
H230	H	0.448772	0.297149	-0.084799
H231	H	0.437156	0.372262	-0.036319
H232	H	0.445637	0.709168	0.634126
N233	N	0.916778	0.215018	-0.253475
H234	H	0.921560	0.253939	-0.230930
H235	H	0.921512	0.193836	-0.230959
N236	N	0.598440	0.321059	0.064866
H237	H	0.618236	0.297151	0.084651
H238	H	0.629845	0.312189	0.036180
N239	N	0.629697	0.340964	0.350740
H240	H	0.649480	0.301392	0.354864
H241	H	0.601010	0.338240	0.328216
H242	H	-0.304104	0.646663	0.056595
N243	N	0.598461	0.403432	0.253322
H244	H	0.618247	0.363854	0.209628
H245	H	0.629874	0.400709	0.273120
N246	N	0.629718	0.086344	0.096093
H247	H	0.649512	0.062433	0.115877
H248	H	0.661125	0.077469	0.067406
N249	N	0.468542	0.215044	-0.253467
H250	H	0.473286	0.178860	-0.294402
H251	H	0.484951	0.193903	-0.230915
H252	H	0.788434	0.221764	-0.368360
N253	N	0.598429	0.215072	-0.383326
H254	H	0.582052	0.254001	-0.388099
H255	H	0.642126	0.193890	-0.388066
N256	N	0.629731	-0.019698	0.096089
H257	H	0.649518	0.004211	0.115875
H258	H	0.601048	-0.010820	0.127502
N259	N	0.598497	-0.148351	0.064854
H260	H	0.569846	-0.097141	0.096295
H261	H	0.618287	-0.172305	0.084604
H262	H	0.476837	0.646704	0.745017
H263	H	0.533480	0.175534	-0.357940
H264	H	0.371205	0.752361	-0.056737
H265	H	0.476842	0.646706	0.837583
N266	N	0.904842	0.161958	-0.000089
H267	H	0.941672	0.149657	-0.024624
H268	H	0.904808	0.179752	0.042240
H269	H	0.590242	-0.247661	0.056598
H270	H	0.891389	0.175492	-0.357949
H271	H	0.175665	0.891194	0.357803
N272	N	0.916788	0.214973	-0.065033
H273	H	0.948227	0.178782	-0.060288
H274	H	0.921516	0.193841	-0.108723
N275	N	0.680847	0.321038	0.064848
H276	H	0.676069	0.342205	0.108552
H277	H	0.649436	0.357200	0.060061
N278	N	0.468605	-0.254386	-0.065000
H279	H	0.448813	-0.230479	-0.084787
H280	H	0.497292	-0.305597	-0.096412
N281	N	0.437360	0.086336	-0.096264
H282	H	0.393657	0.107495	-0.079874
H283	H	0.442141	0.122502	-0.091517
N284	N	0.182729	0.340971	-0.096273
H285	H	0.214185	0.350444	-0.091536
H286	H	0.187452	0.313679	-0.079875
H287	H	0.445618	-0.012954	-0.088004
H288	H	0.590201	0.419944	0.162268
N289	N	0.786868	0.215006	0.064859
H290	H	0.743172	0.238911	0.084645
H291	H	0.806671	0.163794	0.036177
H292	H	0.371166	0.419989	-0.056733
N293	N	0.468564	0.214997	-0.064996
H294	H	0.424859	0.253916	-0.048602
H295	H	0.484993	0.193830	-0.108693
N296	N	0.280131	0.403465	-0.065006
H297	H	0.302675	0.376150	-0.108709
H298	H	0.302648	0.376207	-0.048567
N299	N	-0.083185	0.403432	-0.065034
H300	H	-0.087301	0.363854	-0.084825
H301	H	-0.060652	0.400709	-0.096444
N302	N	-0.213072	0.663185	0.064853
H303	H	-0.256766	0.702759	0.084645
H304	H	-0.193269	0.665904	0.096262
H305	H	-0.100659	0.709165	0.087834
N306	N	-0.189235	0.403429	-0.065043
H307	H	-0.209009	0.400652	-0.096480
H308	H	-0.145533	0.363883	-0.084799
N309	N	-0.009618	0.725678	0.096093
H310	H	-0.032152	0.752995	0.079706
H311	H	-0.032143	0.752935	0.139789
N312	N	0.150240	0.663215	0.064892
H313	H	0.154352	0.702796	0.084688
H314	H	0.127716	0.665941	0.036205
H315	H	0.257807	0.646705	0.056637
N316	N	0.598445	0.403476	0.722717
H317	H	0.593705	0.412955	0.763648
H318	H	0.582038	0.376193	0.700161
H319	H	0.590198	0.419975	0.631673
N320	N	0.629706	0.340973	0.456778
H321	H	0.649497	0.301396	0.413084
H322	H	0.661115	0.338262	0.476579
