data_functionalizedCrystal
_audit_creation_method	'MofGen! by Chris Wilmer'
_symmetry_space_group_name_H-M	'P1'
_symmetry_Int_Tables_number	1
_symmetry_cell_setting	triclinic
loop_
_symmetry_equiv_pos_as_xyz
  x,y,z
_cell_length_a	23.532407
_cell_length_b	14.044220
_cell_length_c	12.503572
_cell_angle_alpha	86.156832
_cell_angle_beta	93.490724
_cell_angle_gamma	88.018778
loop_
_atom_site_label
_atom_site_type_symbol
_atom_site_fract_x
_atom_site_fract_y
_atom_site_fract_z
O1	O	-0.764493	-0.109506	-0.089188
O2	O	-0.514493	0.140494	0.160812
O3	O	-0.264493	0.390494	0.410812
O4	O	-0.014493	0.640494	0.660812
O5	O	-0.599532	-0.126145	-0.089220
O6	O	-0.349532	0.123855	0.160780
O7	O	-0.099532	0.373855	0.410780
O8	O	0.150468	0.623855	0.660780
O9	O	-0.679536	0.020135	-0.089194
O10	O	-0.429536	0.270135	0.160806
O11	O	-0.179536	0.520135	0.410806
O12	O	0.070464	0.770135	0.660806
O13	O	-0.684489	-0.255786	-0.089214
O14	O	-0.434489	-0.005786	0.160786
O15	O	-0.184489	0.244214	0.410786
O16	O	0.065511	0.494214	0.660786
O17	O	-0.673520	0.009116	0.089446
O18	O	-0.423520	0.259116	0.339446
O19	O	-0.173520	0.509116	0.589446
O20	O	0.076480	0.759116	0.839446
O21	O	-0.593517	-0.137164	0.089420
O22	O	-0.343517	0.112836	0.339420
O23	O	-0.093517	0.362836	0.589420
O24	O	0.156483	0.612836	0.839420
O25	O	-0.758477	-0.120525	0.089452
O26	O	-0.508477	0.129475	0.339452
O27	O	-0.258477	0.379475	0.589452
O28	O	-0.008477	0.629475	0.839452
Cu29	Cu	-0.675447	-0.129851	0.105747
Cu30	Cu	-0.425447	0.120149	0.355747
Cu31	Cu	-0.175447	0.370149	0.605747
Cu32	Cu	0.074553	0.620149	0.855747
Cu33	Cu	-0.682562	-0.116819	-0.105515
Cu34	Cu	-0.432562	0.133181	0.144485
Cu35	Cu	-0.182562	0.383181	0.394485
Cu36	Cu	0.067438	0.633181	0.644485
O37	O	-0.678473	-0.266805	0.089426
O38	O	-0.428473	-0.016805	0.339426
O39	O	-0.178473	0.233195	0.589426
O40	O	0.071527	0.483195	0.839426
C41	C	-0.575286	-0.131230	0.000096
C42	C	-0.325286	0.118770	0.250096
C43	C	-0.075286	0.368770	0.500096
C44	C	0.174714	0.618770	0.750096
C45	C	-0.512000	-0.129956	0.000084
C46	C	-0.262000	0.120044	0.250084
C47	C	-0.012000	0.370044	0.500084
C48	C	0.238000	0.620044	0.750084
C49	C	-0.674361	0.049920	0.000126
C50	C	-0.424361	0.299920	0.250126
C51	C	-0.174361	0.549920	0.500126
C52	C	0.075639	0.799920	0.750126
C53	C	-0.667895	0.155085	0.000126
C54	C	-0.417895	0.405085	0.250126
C55	C	-0.167895	0.655085	0.500126
C56	C	0.082105	0.905085	0.750126
C57	C	-0.782724	-0.115439	0.000134
C58	C	-0.532724	0.134561	0.250134
C59	C	-0.282724	0.384561	0.500134
C60	C	-0.032724	0.634561	0.750134
C61	C	-0.846010	-0.116714	0.000138
C62	C	-0.596010	0.133286	0.250138
C63	C	-0.346010	0.383286	0.500138
C64	C	-0.096010	0.633286	0.750138
C65	C	-0.117154	-0.208534	0.000127
C66	C	0.132846	0.041466	0.250127
C67	C	0.382846	0.291466	0.500127
C68	C	0.632846	0.541466	0.750127
C69	C	-0.057690	-0.207350	0.000134
C70	C	0.192310	0.042650	0.250134
C71	C	0.442310	0.292650	0.500134
C72	C	0.692310	0.542650	0.750134
O73	O	-0.024892	-0.280193	0.000168
O74	O	0.225108	-0.030193	0.250168
O75	O	0.475108	0.219807	0.500168
O76	O	0.725108	0.469807	0.750168
N77	N	-0.030350	-0.120386	0.000139
N78	N	0.219650	0.129614	0.250139
N79	N	0.469650	0.379614	0.500139
N80	N	0.719650	0.629614	0.750139
C81	C	-0.062477	-0.034600	0.000147
C82	C	0.187523	0.215400	0.250147
C83	C	0.437523	0.465400	0.500147
C84	C	0.687523	0.715400	0.750147
O85	O	-0.033762	0.039478	0.000153
O86	O	0.216238	0.289478	0.250153
O87	O	0.466238	0.539478	0.500153
O88	O	0.716238	0.789478	0.750153
C89	C	-0.121941	-0.035785	0.000148
C90	C	0.128059	0.214215	0.250148
C91	C	0.378059	0.464215	0.500148
C92	C	0.628059	0.714215	0.750148
C93	C	-0.149278	-0.122754	0.000133
C94	C	0.100722	0.127246	0.250133
C95	C	0.350722	0.377246	0.500133
C96	C	0.600722	0.627246	0.750133
C97	C	-0.144492	-0.295496	0.000113
C98	C	0.105508	-0.045496	0.250113
C99	C	0.355508	0.204504	0.500113
C100	C	0.605508	0.454504	0.750113
C101	C	-0.203952	-0.296678	0.000104
C102	C	0.046048	-0.046678	0.250104
C103	C	0.296048	0.203322	0.500104
C104	C	0.546048	0.453322	0.750104
C105	C	-0.236075	-0.210899	0.000110
C106	C	0.013925	0.039101	0.250110
C107	C	0.263925	0.289101	0.500110
C108	C	0.513925	0.539101	0.750110
C109	C	-0.208738	-0.123937	0.000124
C110	C	0.041262	0.126063	0.250124
C111	C	0.291262	0.376063	0.500124
C112	C	0.541262	0.626063	0.750124
C113	C	-0.154067	0.050000	0.000165
C114	C	0.095933	0.300000	0.250165
C115	C	0.345933	0.550000	0.500165
C116	C	0.595933	0.800000	0.750165
C117	C	-0.213534	0.048807	0.000167
C118	C	0.036466	0.298807	0.250167
C119	C	0.286466	0.548807	0.500167
C120	C	0.536466	0.798807	0.750167
C121	C	-0.240871	-0.038162	0.000151
C122	C	0.009129	0.211838	0.250151
C123	C	0.259129	0.461838	0.500151
C124	C	0.509129	0.711838	0.750151
C125	C	-0.300322	-0.039340	0.000121
C126	C	-0.050322	0.210660	0.250121
C127	C	0.199678	0.460660	0.500121
C128	C	0.449678	0.710660	0.750121
N129	N	-0.327662	-0.126304	0.000117
N130	N	-0.077662	0.123696	0.250117
N131	N	0.172338	0.373696	0.500117
N132	N	0.422338	0.623696	0.750117
C133	C	-0.295539	-0.212083	0.000111
C134	C	-0.045539	0.037917	0.250111
C135	C	0.204461	0.287917	0.500111
C136	C	0.454461	0.537917	0.750111
C137	C	0.062400	-0.032119	0.000147
C138	C	0.312400	0.217881	0.250147
C139	C	0.562400	0.467881	0.500147
C140	C	0.812400	0.717881	0.750147
C141	C	0.121862	-0.030933	0.000138
C142	C	0.371862	0.219067	0.250138
C143	C	0.621862	0.469067	0.500138
C144	C	0.871862	0.719067	0.750138
C145	C	0.126645	-0.203684	0.000127
C146	C	0.376645	0.046316	0.250127
C147	C	0.626645	0.296316	0.500127
C148	C	0.876645	0.546316	0.750127
C149	C	0.067182	-0.204868	0.000128
C150	C	0.317182	0.045132	0.250128
C151	C	0.567182	0.295132	0.500128
C152	C	0.817182	0.545132	0.750128
C153	C	0.035060	-0.119083	0.000143
C154	C	0.285060	0.130917	0.250143
C155	C	0.535060	0.380917	0.500143
C156	C	0.785060	0.630917	0.750143
C157	C	-0.420410	-0.214560	0.000092
C158	C	-0.170410	0.035440	0.250092
C159	C	0.079590	0.285440	0.500092
C160	C	0.329590	0.535440	0.750092
C161	C	-0.479877	-0.215735	0.000079
C162	C	-0.229877	0.034265	0.250079
C163	C	0.020123	0.284265	0.500079
C164	C	0.270123	0.534265	0.750079
C165	C	-0.484655	-0.042985	0.000096
C166	C	-0.234655	0.207015	0.250096
C167	C	0.015345	0.457015	0.500096
C168	C	0.265345	0.707015	0.750096
C169	C	-0.425194	-0.041810	0.000103
C170	C	-0.175194	0.208190	0.250103
C171	C	0.074806	0.458190	0.500103
C172	C	0.324806	0.708190	0.750103
C173	C	-0.393073	-0.127605	0.000105
C174	C	-0.143073	0.122395	0.250105
C175	C	0.106927	0.372395	0.500105
C176	C	0.356927	0.622395	0.750105
O177	O	-0.333156	0.033464	0.000092
O178	O	-0.083156	0.283464	0.250092
O179	O	0.166844	0.533464	0.500092
O180	O	0.416844	0.783464	0.750092
O181	O	-0.324261	-0.286150	0.000120
O182	O	-0.074261	-0.036150	0.250120
O183	O	0.175739	0.213850	0.500120
O184	O	0.425739	0.463850	0.750120
C185	C	-0.683649	-0.296589	0.000104
C186	C	-0.433649	-0.046589	0.250104
C187	C	-0.183649	0.203411	0.500104
C188	C	0.066351	0.453411	0.750104
C189	C	-0.690115	-0.401754	0.000097
C190	C	-0.440115	-0.151754	0.250097
C191	C	-0.190115	0.098246	0.500097
C192	C	0.059885	0.348246	0.750097
N193	N	-0.670448	-0.139016	0.254338
N194	N	-0.420448	0.110984	0.504338
N195	N	-0.170448	0.360984	0.754338
N196	N	0.079552	0.610984	1.004338
C197	C	-0.656074	0.347636	0.000109
C198	C	-0.406074	0.597636	0.250109
C199	C	-0.156074	0.847636	0.500109
C200	C	0.093926	1.097636	0.750109
C201	C	-0.701933	0.405701	0.000114
C202	C	-0.451933	0.655701	0.250114
C203	C	-0.201933	0.905701	0.500114
C204	C	0.048067	1.155701	0.750114
C205	C	-0.695356	0.512843	0.000104
C206	C	-0.445356	0.762843	0.250104
C207	C	-0.195356	1.012843	0.500104
C208	C	0.054644	1.262843	0.750104
C209	C	-0.662650	0.240484	0.000119
C210	C	-0.412650	0.490484	0.250119
C211	C	-0.162650	0.740484	0.500119
C212	C	0.087350	0.990484	0.750119
N213	N	-0.687566	-0.107646	-0.254106
N214	N	-0.437566	0.142354	-0.004106
N215	N	-0.187566	0.392354	0.245894
N216	N	0.062434	0.642354	0.495894
C217	C	-0.663093	-0.152506	0.473451
C218	C	-0.413093	0.097494	0.723451
C219	C	-0.163093	0.347494	0.973451
C220	C	0.086907	0.597494	1.223451
C221	C	-0.694919	-0.094159	0.526788
C222	C	-0.444919	0.155841	0.776788
C223	C	-0.194919	0.405841	1.026788
C224	C	0.055081	0.655841	1.276788
C225	C	-0.690826	-0.101666	0.648710
C226	C	-0.440826	0.148334	0.898710
C227	C	-0.190826	0.398334	1.148710
C228	C	0.059174	0.648334	1.398710
C229	C	-0.667185	-0.145001	0.351518
C230	C	-0.417185	0.104999	0.601518
C231	C	-0.167185	0.354999	0.851518
C232	C	0.082815	0.604999	1.101518
H233	H	-0.502131	-0.286559	0.000066
H234	H	-0.252131	-0.036559	0.250066
H235	H	-0.002131	0.213441	0.500066
H236	H	0.247869	0.463441	0.750066
H237	H	-0.394264	-0.284424	0.000097
H238	H	-0.144264	-0.034424	0.250097
H239	H	0.105736	0.215576	0.500097
H240	H	0.355736	0.465576	0.750097
C241	C	-0.761646	0.364153	0.000141
C242	C	-0.511646	0.614153	0.250141
C243	C	-0.261646	0.864153	0.500141
C244	C	-0.011646	1.114153	0.750141
N245	N	-0.806620	0.332854	0.000167
N246	N	-0.556620	0.582854	0.250167
N247	N	-0.306620	0.832854	0.500167
N248	N	-0.056620	1.082854	0.750167
H249	H	-0.226204	-0.367497	0.000091
H250	H	0.023796	-0.117497	0.250091
H251	H	0.273796	0.132503	0.500091
H252	H	0.523796	0.382503	0.750091
C253	C	0.037117	-0.300541	0.000123
C254	C	0.287117	-0.050541	0.250123
C255	C	0.537117	0.199459	0.500123
C256	C	0.787117	0.449459	0.750123
N257	N	0.014476	-0.372606	0.000123
N258	N	0.264476	-0.122606	0.250123
N259	N	0.514476	0.127394	0.500123
N260	N	0.764476	0.377394	0.750123
H261	H	-0.725239	-0.038571	0.480885
H262	H	-0.475239	0.211429	0.730885
H263	H	-0.225239	0.461429	0.980885
H264	H	0.024761	0.711429	1.230885
H265	H	-0.118342	-0.365352	0.000112
H266	H	0.131658	-0.115352	0.250112
H267	H	0.381658	0.134648	0.500112
H268	H	0.631658	0.384648	0.750112
H269	H	-0.611877	0.378390	0.000098
H270	H	-0.361877	0.628390	0.250098
H271	H	-0.111877	0.878390	0.500098
H272	H	0.138123	1.128390	0.750098
C273	C	-0.248865	0.143181	0.000178
C274	C	0.001135	0.393181	0.250178
C275	C	0.251135	0.643181	0.500178
C276	C	0.501135	0.893181	0.750178
N277	N	-0.275475	0.214263	0.000183
N278	N	-0.025475	0.464263	0.250183
N279	N	0.224525	0.714263	0.500183
N280	N	0.474525	0.964263	0.750183
C281	C	0.161993	-0.298044	0.000132
C282	C	0.411993	-0.048044	0.250132
C283	C	0.661993	0.201956	0.500132
C284	C	0.911993	0.451956	0.750132
N285	N	0.188618	-0.369112	0.000137
N286	N	0.438618	-0.119112	0.250137
N287	N	0.688618	0.130888	0.500137
N288	N	0.938618	0.380888	0.750137
H289	H	0.144114	0.039887	0.000134
H290	H	0.394114	0.289887	0.250134
H291	H	0.644114	0.539887	0.500134
H292	H	0.894114	0.789887	0.750134
C293	C	0.027070	0.062259	0.000146
C294	C	0.277070	0.312259	0.250146
C295	C	0.527070	0.562259	0.500146
C296	C	0.777070	0.812259	0.750146
N297	N	0.000462	0.133344	0.000144
N298	N	0.250462	0.383344	0.250144
N299	N	0.500462	0.633344	0.500144
N300	N	0.750462	0.883344	0.750144
H301	H	-0.131819	0.120819	0.000179
H302	H	0.118181	0.370819	0.250179
H303	H	0.368181	0.620819	0.500179
H304	H	0.618181	0.870819	0.750179
C305	C	-0.395123	0.053861	0.000107
C306	C	-0.145123	0.303861	0.250107
C307	C	0.104877	0.553861	0.500107
C308	C	0.354877	0.803861	0.750107
N309	N	-0.372477	0.125921	0.000118
N310	N	-0.122477	0.375921	0.250118
N311	N	0.127523	0.625921	0.500118
N312	N	0.377523	0.875921	0.750118
C313	C	-0.520001	0.051367	0.000115
C314	C	-0.270001	0.301367	0.250115
C315	C	-0.020001	0.551367	0.500115
C316	C	0.229999	0.801367	0.750115
N317	N	-0.546626	0.122432	0.000140
N318	N	-0.296626	0.372432	0.250140
N319	N	-0.046626	0.622432	0.500140
N320	N	0.203374	0.872432	0.750140
H321	H	-0.632776	-0.208092	0.519348
H322	H	-0.382776	0.041908	0.769348
H323	H	-0.132776	0.291908	1.019348
H324	H	0.117224	0.541908	1.269348
