data_functionalizedCrystal
_audit_creation_method	'MofGen! by Chris Wilmer'
_symmetry_space_group_name_H-M	'P1'
_symmetry_Int_Tables_number	1
_symmetry_cell_setting	triclinic
loop_
_symmetry_equiv_pos_as_xyz
  x,y,z
_cell_length_a	19.077105
_cell_length_b	13.032721
_cell_length_c	19.076929
_cell_angle_alpha	99.135035
_cell_angle_beta	90.078300
_cell_angle_gamma	95.201395
loop_
_atom_site_label
_atom_site_type_symbol
_atom_site_fract_x
_atom_site_fract_y
_atom_site_fract_z
Zn1	Zn	1.013382	-0.505323	-0.481828
Zn2	Zn	1.003112	-0.673288	-0.378086
Zn3	Zn	0.901846	-0.491339	-0.358476
Zn4	Zn	0.880986	-0.672650	-0.490786
O5	O	0.949832	-0.585650	-0.427294
O6	O	1.109808	-0.533723	-0.472524
O7	O	0.994111	-0.643567	-0.276696
O8	O	0.929670	-0.347020	-0.362882
O9	O	1.102262	-0.657127	-0.396306
O10	O	1.011615	-0.357294	-0.453509
O11	O	0.919712	-0.509889	-0.262288
O12	O	0.801291	-0.509270	-0.371569
O13	O	0.894117	-0.656039	-0.588387
O14	O	0.785965	-0.642479	-0.468777
O15	O	0.991388	-0.533104	-0.581805
O16	O	0.973883	-0.819377	-0.404992
O17	O	0.884158	-0.818908	-0.487793
C18	C	0.768272	-0.574288	-0.419017
C19	C	0.690598	-0.569454	-0.415496
C20	C	0.925661	-0.857046	-0.449509
C21	C	0.915383	-0.973156	-0.459039
C22	C	0.646139	-0.636634	-0.464389
C23	C	0.573156	-0.632078	-0.461082
C24	C	0.544634	-0.560347	-0.408878
C25	C	0.589098	-0.493159	-0.359982
C26	C	0.662080	-0.497711	-0.363293
C27	C	0.327217	-0.539281	-0.393559
C28	C	0.254230	-0.534737	-0.390251
C29	C	0.238293	-0.673655	-0.491352
C30	C	0.311277	-0.678205	-0.494656
C31	C	0.355735	-0.611014	-0.445762
N32	N	0.470034	-0.555690	-0.405495
N33	N	0.430334	-0.615666	-0.449149
C34	C	0.955231	-1.025123	-0.422354
C35	C	0.944610	-1.145128	-0.432203
C36	C	1.132100	-0.597056	-0.435603
C37	C	1.209771	-0.601917	-0.439144
C38	C	0.941571	-0.596060	-0.611427
C39	C	0.938050	-0.600496	-0.689893
C40	C	0.974115	-0.313196	-0.405009
C41	C	0.984464	-0.197093	-0.395512
C42	C	0.912799	-0.632397	-1.131949
C43	C	0.916106	-0.628214	-1.058220
C44	C	0.968405	-0.562122	-1.017933
C45	C	1.017398	-0.500203	-1.051378
C46	C	1.014088	-0.504382	-1.125105
C47	C	0.983733	-0.542756	-0.797065
C48	C	0.987040	-0.538584	-0.723333
C49	C	0.885747	-0.666593	-0.730181
C50	C	0.882444	-0.670771	-0.803909
C51	C	0.931434	-0.608848	-0.837347
N52	N	0.971788	-0.557847	-0.942571
N53	N	0.928048	-0.613119	-0.912708
C54	C	0.958107	-0.575207	-0.243873
C55	C	0.961789	-0.570485	-0.165389
H56	H	0.669356	-0.695049	-0.506898
H57	H	0.873407	-1.017508	-0.497741
H58	H	0.902631	-1.189477	-0.470907
H59	H	1.053978	-0.453963	-1.152330
H60	H	0.536961	-0.686784	-0.500896
H61	H	0.202088	-0.728357	-0.531160
C62	C	0.288191	-0.815056	-0.594262
C63	C	0.342627	-0.757052	-0.552042
H64	H	0.307547	-0.863731	-0.629691
H65	H	0.257551	-0.851422	-0.565433
H66	H	0.262564	-0.769352	-0.616304
H67	H	0.368250	-0.802756	-0.529996
H68	H	0.373279	-0.720685	-0.580875
H69	H	1.026448	-1.152745	-0.356813
C70	C	0.185112	-0.388523	-0.365401
C71	C	0.222887	-0.455854	-0.332875
H72	H	0.165763	-0.339825	-0.329983
H73	H	0.215762	-0.352185	-0.394236
H74	H	0.148185	-0.427899	-0.394035
H75	H	0.259819	-0.416478	-0.304246
H76	H	0.192236	-0.492195	-0.304028
C77	C	0.856503	-0.815394	-0.897841
C78	C	0.824959	-0.743443	-0.848183
H79	H	0.821016	-0.860271	-0.925168
H80	H	0.885191	-0.779119	-0.928313
H81	H	0.884686	-0.855599	-0.873717
H82	H	0.796780	-0.703233	-0.872307
H83	H	0.796259	-0.779721	-0.817707
H84	H	0.363407	-0.484577	-0.353742
H85	H	0.997213	-0.980773	-0.383657
H86	H	0.870213	-0.686220	-1.164747
H87	H	0.876219	-0.678641	-1.030998
H88	H	0.845861	-0.717006	-0.702947
H89	H	1.029630	-0.484759	-0.690533
H90	H	1.023627	-0.492340	-0.824282
C91	C	0.484300	-0.424498	-0.310016
C92	C	0.557748	-0.414306	-0.302600
H93	H	0.464949	-0.375820	-0.274586
H94	H	0.471577	-0.411260	-0.355676
H95	H	0.466565	-0.493326	-0.304803
H96	H	0.575484	-0.345480	-0.307818
H97	H	0.570477	-0.427537	-0.256928
H98	H	1.059979	-0.446386	-1.018570
H99	H	0.698278	-0.443000	-0.323481
