data_functionalizedCrystal
_audit_creation_method	'MofGen! by Chris Wilmer'
_symmetry_space_group_name_H-M	'P1'
_symmetry_Int_Tables_number	1
_symmetry_cell_setting	triclinic
loop_
_symmetry_equiv_pos_as_xyz
  x,y,z
_cell_length_a	12.594517
_cell_length_b	16.994747
_cell_length_c	12.594509
_cell_angle_alpha	90.008624
_cell_angle_beta	90.021327
_cell_angle_gamma	90.010859
loop_
_atom_site_label
_atom_site_type_symbol
_atom_site_fract_x
_atom_site_fract_y
_atom_site_fract_z
Zn1	Zn	1.627304	-0.314008	0.602005
Zn2	Zn	1.627210	-0.445929	0.424087
Zn3	Zn	1.449308	-0.314042	0.424034
Zn4	Zn	1.449306	-0.445874	0.602017
O5	O	1.538282	-0.379963	0.513036
O6	O	1.776237	-0.331517	0.578421
O7	O	1.603573	-0.428471	0.275134
O8	O	1.472960	-0.203657	0.447615
O9	O	1.776169	-0.428438	0.447706
O10	O	1.603733	-0.203632	0.578369
O11	O	1.472869	-0.331574	0.275095
O12	O	1.300362	-0.331521	0.447627
O13	O	1.472956	-0.428345	0.750962
O14	O	1.300360	-0.428377	0.578390
O15	O	1.603730	-0.331464	0.750953
O16	O	1.603571	-0.556303	0.447718
O17	O	1.472865	-0.556262	0.578442
C18	C	1.261741	-0.379947	0.513005
C19	C	1.143435	-0.379960	0.513016
C20	C	1.538220	-0.584903	0.513084
C21	C	1.538228	-0.674225	0.513081
Zn22	Zn	1.449338	-0.945129	0.424004
Zn23	Zn	1.627351	-0.945073	0.601958
Zn24	Zn	1.449342	-0.813266	0.602000
Zn25	Zn	1.627230	-0.813184	0.424053
O26	O	1.538315	-0.879163	0.513004
O27	O	1.473002	-1.055503	0.447572
O28	O	1.603790	-0.927600	0.750910
O29	O	1.300396	-0.830816	0.578385
O30	O	1.603787	-1.055462	0.578315
O31	O	1.300393	-0.927694	0.447612
O32	O	1.473008	-0.830762	0.750940
O33	O	1.472890	-0.702874	0.578432
O34	O	1.603580	-0.830675	0.275100
O35	O	1.603583	-0.702814	0.447695
O36	O	1.472884	-0.927615	0.275065
O37	O	1.776281	-0.927520	0.578362
O38	O	1.776192	-0.830622	0.447655
C39	C	1.074152	-0.327208	0.442030
C40	C	1.003350	-0.399158	0.415883
C41	C	1.003439	-0.308044	0.539181
C42	C	1.074191	-0.451948	0.486819
C43	C	1.074287	-0.360785	0.610163
C44	C	1.003516	-0.432786	0.584053
C45	C	1.815903	-0.379980	0.513068
C46	C	1.934208	-0.379987	0.513082
C47	C	1.538353	-0.379894	0.790657
C48	C	1.538384	-0.379865	0.908962
C49	C	1.538349	-0.174223	0.512982
C50	C	1.538382	-0.084901	0.512959
C51	C	1.538272	-0.379975	0.236495
C52	C	1.538448	-0.379782	0.118190
C53	C	1.467278	-0.432528	0.978221
C54	C	1.564400	-0.451801	1.049020
C55	C	1.441336	-0.360544	1.048962
C56	C	1.635557	-0.399176	0.978204
C57	C	1.512428	-0.307885	0.978140
C58	C	1.609618	-0.327130	1.048907
C59	C	1.814856	-0.879058	0.513012
C60	C	1.933162	-0.879036	0.513047
C61	C	1.538218	-0.879142	0.235383
C62	C	1.538176	-0.879133	0.117077
C63	C	1.260695	-0.879270	0.512998
C64	C	1.142389	-0.879316	0.512995
C65	C	1.538337	-0.879229	0.789545
C66	C	1.538081	-0.879389	0.907850
C67	C	2.002405	-0.826292	0.442036
C68	C	2.073198	-0.807062	0.539194
C69	C	2.073167	-0.898228	0.415965
C70	C	2.002397	-0.859769	0.610256
C71	C	2.002360	-0.950969	0.486961
C72	C	2.073121	-0.931766	0.584186
C73	C	1.609217	-0.826403	0.047843
C74	C	1.635243	-0.898353	-0.022970
C75	C	1.512072	-0.807176	-0.022909
C76	C	1.564254	-0.951121	0.047822
C77	C	1.441037	-0.859895	0.047889
C78	C	1.467027	-0.931895	-0.022892
H79	H	1.105168	-0.282641	0.381924
H80	H	1.669847	-0.282559	1.079749
O81	O	1.343050	-0.840554	0.084939
C82	C	1.156993	-0.873449	0.089521
C83	C	1.267896	-0.895442	0.047462
H84	H	1.096204	-0.917824	0.059257
H85	H	1.134814	-0.812078	0.060490
H86	H	1.157876	-0.874191	0.180029
H87	H	1.267097	-0.894746	-0.043043
H88	H	1.290031	-0.956800	0.076575
H89	H	1.490046	-0.746329	-0.053982
H90	H	1.669393	-0.781874	0.078901
H91	H	1.105140	-0.512796	0.464625
O92	O	1.590805	-1.023739	0.084589
C93	C	1.722836	-1.126276	0.089448
C94	C	1.692884	-1.044041	0.047721
H95	H	1.805377	-1.142709	0.059676
H96	H	1.662672	-1.171297	0.059674
H97	H	1.722656	-1.125678	0.179962
H98	H	1.693075	-1.044562	-0.042789
H99	H	1.753054	-0.999055	0.077577
O100	O	2.110506	-0.734549	0.565593
C101	C	2.264548	-0.653494	0.596017
C102	C	2.222447	-0.735658	0.566140
H103	H	2.355056	-0.654359	0.596447
H104	H	2.234300	-0.636679	0.678250
H105	H	2.235443	-0.608597	0.535391
H106	H	2.251534	-0.780610	0.626694
H107	H	2.252686	-0.752406	0.483880
H108	H	0.972193	-0.415393	0.333756
H109	H	2.104255	-0.914461	0.333838
O110	O	0.966786	-0.486184	0.655582
C111	C	0.961412	-0.622302	0.708855
C112	C	1.003062	-0.561914	0.627766
H113	H	0.990743	-0.683541	0.686408
H114	H	0.870898	-0.621630	0.708852
H115	H	0.991824	-0.606428	0.791392
H116	H	0.972729	-0.577746	0.545190
H117	H	1.093575	-0.562597	0.627863
H118	H	1.971357	-0.781655	0.382031
O119	O	1.111446	-0.341257	0.708077
C120	C	1.117567	-0.243351	0.846358
C121	C	1.075432	-0.265371	0.735451
H122	H	1.088448	-0.182003	0.868534
H123	H	1.208077	-0.244043	0.845594
H124	H	1.087307	-0.287740	0.907089
H125	H	1.105613	-0.221004	0.674658
H126	H	0.984923	-0.264704	0.736304
O127	O	0.966309	-0.235456	0.565373
C128	C	0.861028	-0.123954	0.511704
C129	C	0.903021	-0.206146	0.481912
H130	H	0.809833	-0.100239	0.444253
H131	H	0.930775	-0.082484	0.525855
H132	H	0.811328	-0.128314	0.587109
H133	H	0.952705	-0.201861	0.406493
H134	H	0.833227	-0.247584	0.467830
H135	H	1.407193	-0.477134	0.947184
H136	H	1.717679	-0.415552	0.947252
O137	O	1.733243	-0.917635	-0.060061
C138	C	1.918988	-0.883907	-0.066049
C139	C	1.808059	-0.861978	-0.024000
H140	H	1.979511	-0.838930	-0.036893
H141	H	1.917856	-0.884240	-0.156561
H142	H	1.941730	-0.944830	-0.035764
H143	H	1.785249	-0.801051	-0.054207
H144	H	1.809251	-0.861699	0.066510
H145	H	1.586389	-0.512638	1.080153
H146	H	1.971440	-0.843464	0.692407
H147	H	1.490411	-0.247066	0.946983
O148	O	2.109890	-0.984888	0.656082
C149	C	2.115297	-1.024679	0.839635
C150	C	2.073604	-0.964457	0.758328
H151	H	2.085958	-1.008191	0.922315
H152	H	2.205811	-1.024653	0.838741
H153	H	2.084926	-1.085816	0.818020
H154	H	2.103896	-0.903291	0.779886
H155	H	1.983091	-0.964551	0.759237
H156	H	1.359238	-0.344237	1.080045
H157	H	1.406897	-0.976531	-0.053754
H158	H	1.971221	-1.011784	0.464834
