data_functionalizedCrystal
_audit_creation_method	'MofGen! by Chris Wilmer'
_symmetry_space_group_name_H-M	'P1'
_symmetry_Int_Tables_number	1
_symmetry_cell_setting	triclinic
loop_
_symmetry_equiv_pos_as_xyz
  x,y,z
_cell_length_a	13.635800
_cell_length_b	11.168138
_cell_length_c	11.102300
_cell_angle_alpha	88.016074
_cell_angle_beta	108.605850
_cell_angle_gamma	71.491207
loop_
_atom_site_label
_atom_site_type_symbol
_atom_site_fract_x
_atom_site_fract_y
_atom_site_fract_z
V1	V	2.055513	-0.174704	0.396267
O2	O	2.035294	0.008396	0.388713
O3	O	2.043654	-0.346410	0.393567
O4	O	2.043907	-0.172017	0.569088
O5	O	2.035038	-0.167204	0.211977
V6	V	2.294096	-0.152804	0.374223
O7	O	2.193115	-0.222746	0.444622
O8	O	2.381593	-0.104762	0.325868
O9	O	2.194352	0.018902	0.376923
O10	O	2.373014	-0.335903	0.381777
O11	O	2.373269	-0.160303	0.558513
O12	O	2.194098	-0.155491	0.201402
V13	V	2.555513	-0.174704	0.396267
O14	O	2.535294	0.008396	0.388713
O15	O	2.543654	-0.346410	0.393567
O16	O	2.543907	-0.172017	0.569088
O17	O	2.535038	-0.167204	0.211977
V18	V	2.794096	-0.152804	0.374223
O19	O	2.693115	-0.222746	0.444622
O20	O	2.881593	-0.104762	0.325868
O21	O	2.694352	0.018902	0.376923
O22	O	2.873014	-0.335903	0.381777
O23	O	2.873269	-0.160303	0.558513
O24	O	2.694098	-0.155491	0.201402
C25	C	1.968749	-0.388268	0.387319
C26	C	1.999780	-0.528639	0.386263
C27	C	1.926186	-0.585110	0.379765
C28	C	1.958256	-0.730191	0.378674
C29	C	1.969072	-0.165811	0.611211
C30	C	2.000306	-0.164750	0.752493
C31	C	2.100928	0.060753	0.383168
C32	C	2.059517	0.201123	0.384232
C33	C	2.100605	-0.161701	0.159272
C34	C	2.058989	-0.162756	0.017989
C35	C	2.468749	-0.388268	0.387319
C36	C	2.499780	-0.528639	0.386263
C37	C	2.469072	-0.165811	0.611211
C38	C	2.500306	-0.164750	0.752493
C39	C	2.106977	-0.170558	0.825342
C40	C	2.136318	-0.169556	0.958091
C41	C	1.952308	-0.156944	0.945130
C42	C	1.922967	-0.157936	0.812382
C43	C	2.600928	0.060753	0.383168
C44	C	2.559517	0.201123	0.384232
C45	C	2.600605	-0.161701	0.159272
C46	C	2.558989	-0.162756	0.017989
C47	C	2.606353	-0.601017	0.392108
C48	C	2.635506	-0.732912	0.391127
C49	C	2.451502	-0.720038	0.378449
C50	C	2.422352	-0.588147	0.379440
C51	C	2.606977	-0.170558	0.825342
C52	C	2.636318	-0.169556	0.958091
C53	C	2.452308	-0.156944	0.945130
C54	C	2.422967	-0.157936	0.812382
H55	H	1.839435	-0.526049	0.375002
C56	C	2.116978	-0.608422	0.392695
N57	N	2.205255	-0.668514	0.397544
H58	H	2.122477	-0.750299	0.389803
H59	H	2.169953	-0.176103	0.776585
H60	H	2.223176	-0.174284	1.017399
C61	C	2.305108	-0.508525	0.373007
N62	N	2.216803	-0.448554	0.368163
C63	C	2.305617	-0.151553	0.732244
N64	N	2.217233	-0.146746	0.671884
C65	C	2.366333	-0.785505	0.370921
N66	N	2.302180	-0.834812	0.365241
H67	H	1.889346	-0.151399	0.993908
H68	H	2.722286	-0.791838	0.395889
C69	C	2.691532	-0.535567	0.399637
N70	N	2.755696	-0.486276	0.405317
H71	H	1.836097	-0.153197	0.753064
H72	H	2.669953	-0.176103	0.776585
H73	H	2.723176	-0.174284	1.017399
H74	H	1.895305	-0.778780	0.373116
C75	C	2.367212	-0.149329	1.011001
N76	N	2.303104	-0.143550	1.060608
