data_functionalizedCrystal
_audit_creation_method	'MofGen! by Chris Wilmer'
_symmetry_space_group_name_H-M	'P1'
_symmetry_Int_Tables_number	1
_symmetry_cell_setting	triclinic
loop_
_symmetry_equiv_pos_as_xyz
  x,y,z
_cell_length_a	16.625547
_cell_length_b	14.909028
_cell_length_c	14.908694
_cell_angle_alpha	89.784294
_cell_angle_beta	86.678964
_cell_angle_gamma	86.719020
loop_
_atom_site_label
_atom_site_type_symbol
_atom_site_fract_x
_atom_site_fract_y
_atom_site_fract_z
Zn1	Zn	1.277830	-0.387289	-0.487879
Zn2	Zn	1.777830	0.112711	0.012121
Zn3	Zn	1.276856	-0.528987	-0.328854
Zn4	Zn	1.776856	-0.028987	0.171146
Zn5	Zn	1.134796	-0.378649	-0.337522
Zn6	Zn	1.634796	0.121351	0.162478
Zn7	Zn	1.150276	-0.537601	-0.479157
Zn8	Zn	1.650276	-0.037601	0.020843
O9	O	1.209940	-0.458131	-0.408353
O10	O	1.709940	0.041869	0.091647
O11	O	1.390535	-0.406097	-0.466807
O12	O	1.890535	0.093903	0.033193
O13	O	1.251125	-0.501824	-0.204177
O14	O	1.751125	-0.001824	0.295823
O15	O	1.147699	-0.253973	-0.364745
O16	O	1.647699	0.246027	0.135255
O17	O	1.389819	-0.510202	-0.349972
O18	O	1.889819	-0.010202	0.150028
O19	O	1.252785	-0.260320	-0.475212
O20	O	1.752785	0.239680	0.024788
O21	O	1.146754	-0.391371	-0.210545
O22	O	1.646754	0.108629	0.289455
O23	O	1.024015	-0.399723	-0.356288
O24	O	1.524015	0.100277	0.143712
O25	O	1.174083	-0.524882	-0.606142
O26	O	1.674083	-0.024882	-0.106142
O27	O	1.035389	-0.516504	-0.460346
O28	O	1.535389	-0.016504	0.039654
O29	O	1.267796	-0.414449	-0.612550
O30	O	1.767796	0.085551	-0.112550
O31	O	1.266136	-0.655952	-0.341514
O32	O	1.766136	-0.155952	0.158486
O33	O	1.173138	-0.662281	-0.451941
O34	O	1.673138	-0.162281	0.048059
C35	C	1.000446	-0.458112	-0.408312
C36	C	1.500446	0.041888	0.091688
C37	C	0.910825	-0.458126	-0.408314
C38	C	1.410825	0.041874	0.091686
C39	C	1.221234	-0.691742	-0.394860
C40	C	1.721234	-0.191742	0.105140
C41	C	1.226141	-0.791683	-0.389118
C42	C	1.726141	-0.291683	0.110882
C43	C	1.281512	-0.929224	-0.323585
C44	C	1.781512	-0.429224	0.176415
C45	C	1.276906	-0.835320	-0.328977
C46	C	1.776906	-0.335320	0.171023
C47	C	1.179978	-0.841957	-0.443870
C48	C	1.679978	-0.341957	0.056130
C49	C	1.184585	-0.935861	-0.438478
C50	C	1.684585	-0.435861	0.061522
C51	C	1.235355	-0.979491	-0.378334
C52	C	1.735355	-0.479491	0.121666
C53	C	1.239965	-1.073397	-0.372948
C54	C	1.739965	-0.573397	0.127052
C55	C	1.143034	-1.080032	-0.487835
C56	C	1.643034	-0.580032	0.012165
C57	C	1.138427	-0.986128	-0.493227
C58	C	1.638427	-0.486128	0.006773
C59	C	0.838044	-0.458128	-0.408325
C60	C	1.338044	0.041872	0.091675
C61	C	0.746737	-0.458134	-0.408347
C62	C	1.246737	0.041866	0.091653
C63	C	0.673962	-0.458144	-0.408370
C64	C	1.173962	0.041856	0.091630
C65	C	0.582649	-0.458151	-0.408391
C66	C	1.082649	0.041849	0.091609
C67	C	1.420252	-0.458152	-0.408395
C68	C	1.920252	0.041848	0.091605
C69	C	1.509874	-0.458161	-0.408413
C70	C	2.009874	0.041839	0.091587
C71	C	1.222775	-0.471590	-0.642883
C72	C	1.722775	0.028410	-0.142883
C73	C	1.228245	-0.477325	-0.742826
C74	C	1.728245	0.022675	-0.242826
C75	C	1.198624	-0.223610	-0.421919
C76	C	1.698624	0.276390	0.078081
C77	C	1.193802	-0.123671	-0.427699
C78	C	1.693802	0.376329	0.072301
C79	C	1.129823	-0.373091	-0.937262
C80	C	1.629823	0.126909	-0.437262
C81	C	1.134959	-0.378477	-1.031167
C82	C	1.634959	0.121523	-0.531167
C83	C	1.243649	-0.493487	-1.024544
C84	C	1.743649	0.006513	-0.524544
C85	C	1.238513	-0.488101	-0.930638
C86	C	1.738513	0.011899	-0.430638
C87	C	1.181599	-0.427900	-0.887001
C88	C	1.681599	0.072100	-0.387001
C89	C	1.176467	-0.422510	-0.793094
C90	C	1.676467	0.077490	-0.293094
C91	C	1.285152	-0.537525	-0.786472
C92	C	1.785152	-0.037525	-0.286472
C93	C	1.290289	-0.542910	-0.880377
C94	C	1.790289	-0.042910	-0.380377
C95	C	1.197197	-0.444660	-0.174739
C96	C	1.697197	0.055340	0.325261
C97	C	1.191871	-0.438672	-0.074812
C98	C	1.691871	0.061328	0.425188
H99	H	1.281307	-1.108919	-0.323979
H100	H	1.781307	-0.608919	0.176021
C101	C	1.078789	-0.319078	-1.085894
C102	C	1.578789	0.180922	-0.585894
C103	C	1.095451	-0.336694	-1.177472
C104	C	1.595451	0.163306	-0.677472
C105	C	1.043711	-0.282002	-1.227913
C106	C	1.543711	0.217998	-0.727913
H107	H	1.086778	-0.257751	-1.074112
H108	H	1.586778	0.242249	-0.574112
H109	H	1.024393	-0.331368	-1.069780
H110	H	1.524393	0.168632	-0.569780
H111	H	1.149833	-0.324396	-1.193581
H112	H	1.649833	0.175604	-0.693581
H113	H	1.087456	-0.398010	-1.189282
H114	H	1.587456	0.101990	-0.689282
H115	H	0.989315	-0.294292	-1.211798
H116	H	1.489315	0.205708	-0.711798
H117	H	1.051704	-0.220678	-1.216123
H118	H	1.551704	0.279322	-0.716123
H119	H	1.055004	-0.293952	-1.290053
H120	H	1.555004	0.206048	-0.790053
C121	C	1.336652	-0.976433	-0.258205
C122	C	1.836652	-0.476433	0.241795
C123	C	1.376080	-0.912310	-0.211399
C124	C	1.876080	-0.412310	0.288601
C125	C	1.426873	-0.955763	-0.151156
C126	C	1.926873	-0.455763	0.348844
H127	H	1.375501	-1.014993	-0.290444
H128	H	1.875501	-0.514993	0.209556
H129	H	1.305506	-1.010836	-0.216837
H130	H	1.805506	-0.510836	0.283163
H131	H	1.407223	-0.877922	-0.252761
H132	H	1.907223	-0.377922	0.247239
H133	H	1.337251	-0.873747	-0.179142
H134	H	1.837251	-0.373747	0.320858
H135	H	1.395728	-0.990167	-0.109788
H136	H	1.895728	-0.490167	0.390212
H137	H	1.465717	-0.994322	-0.183401
H138	H	1.965717	-0.494322	0.316599
H139	H	1.453626	-0.912263	-0.119384
H140	H	1.953626	-0.412263	0.380616
H141	H	1.097089	-0.950593	-0.542193
H142	H	1.597089	-0.450593	-0.042193
H143	H	1.105452	-1.120970	-0.532420
H144	H	1.605452	-0.620970	-0.032420
C145	C	1.341272	-0.596995	-0.731741
C146	C	1.841272	-0.096995	-0.231741
C147	C	1.324583	-0.579410	-0.640161
C148	C	1.824583	-0.079410	-0.140161
C149	C	1.376257	-0.634180	-0.589716
C150	C	1.876257	-0.134180	-0.089716
H151	H	1.395683	-0.584771	-0.747796
H152	H	1.895683	-0.084771	-0.247796
H153	H	1.333221	-0.658307	-0.743580
H154	H	1.833221	-0.158307	-0.243580
H155	H	1.332641	-0.518112	-0.628327
H156	H	1.832641	-0.018112	-0.128327
H157	H	1.270181	-0.591638	-0.624080
H158	H	1.770181	-0.091638	-0.124080
H159	H	1.368206	-0.695492	-0.601555
H160	H	1.868206	-0.195492	-0.101555
H161	H	1.430665	-0.621952	-0.605778
H162	H	1.930665	-0.121952	-0.105778
H163	H	1.364936	-0.622262	-0.527574
H164	H	1.864936	-0.122262	-0.027574
H165	H	1.336624	-0.591927	-0.915920
H166	H	1.836624	-0.091927	-0.415920
C167	C	1.124934	-0.794413	-0.509134
C168	C	1.624934	-0.294413	-0.009134
C169	C	1.130794	-0.701418	-0.502144
C170	C	1.630794	-0.201418	-0.002144
C171	C	1.080106	-0.657592	-0.562259
C172	C	1.580106	-0.157592	-0.062259
H173	H	1.070768	-0.808994	-0.495089
H174	H	1.570768	-0.308994	0.004911
H175	H	1.140754	-0.813176	-0.568706
H176	H	1.640754	-0.313176	-0.068706
H177	H	1.114969	-0.682662	-0.442585
H178	H	1.614969	-0.182662	0.057415
H179	H	1.184948	-0.686810	-0.516197
H180	H	1.684948	-0.186810	-0.016197
H181	H	1.095926	-0.676355	-0.621831
H182	H	1.595926	-0.176355	-0.121831
H183	H	1.025943	-0.672181	-0.548209
H184	H	1.525943	-0.172181	-0.048209
H185	H	1.084080	-0.594492	-0.557530
H186	H	1.584080	-0.094492	-0.057530
C187	C	1.326879	-0.780689	-0.269427
C188	C	1.826879	-0.280689	0.230573
C189	C	1.275468	-0.723550	-0.214820
C190	C	1.775468	-0.223550	0.285180
C191	C	1.321474	-0.673220	-0.159939
C192	C	1.821474	-0.173220	0.340061
H193	H	1.362078	-0.745908	-0.305867
H194	H	1.862078	-0.245908	0.194133
H195	H	1.357755	-0.820095	-0.232786
H196	H	1.857755	-0.320095	0.267214
H197	H	1.244606	-0.684150	-0.251457
H198	H	1.744606	-0.184150	0.248543
H199	H	1.240269	-0.758308	-0.178361
H200	H	1.740269	-0.258308	0.321639
H201	H	1.352350	-0.712625	-0.123298
H202	H	1.852350	-0.212625	0.376702
H203	H	1.356672	-0.638444	-0.196387
H204	H	1.856672	-0.138444	0.303613
H205	H	1.286599	-0.634452	-0.122876
H206	H	1.786599	-0.134452	0.377124
C207	C	1.114592	-0.357131	-0.745877
C208	C	1.614592	0.142869	-0.245877
C209	C	1.070333	-0.310305	-0.809997
C210	C	1.570333	0.189695	-0.309997
C211	C	1.013316	-0.250081	-0.766537
C212	C	1.513316	0.249919	-0.266537
H213	H	1.141441	-0.315771	-0.711517
H214	H	1.641441	0.184229	-0.211517
H215	H	1.079076	-0.389409	-0.707270
H216	H	1.579076	0.110591	-0.207270
H217	H	1.105843	-0.278028	-0.848589
H218	H	1.605843	0.221972	-0.348589
H219	H	1.043466	-0.351641	-0.844361
H220	H	1.543466	0.148359	-0.344361
H221	H	0.977800	-0.282359	-0.727929
H222	H	1.477800	0.217641	-0.227929
H223	H	1.040172	-0.208727	-0.732178
H224	H	1.540172	0.291273	-0.232178
H225	H	0.983274	-0.218308	-0.810035
H226	H	1.483274	0.281692	-0.310035
H227	H	1.083488	-0.324065	-0.901733
H228	H	1.583488	0.175935	-0.401733
H229	H	1.289976	-0.542512	-1.060089
H230	H	1.789976	-0.042512	-0.560089
