data_functionalizedCrystal
_audit_creation_method	'MofGen! by Chris Wilmer'
_symmetry_space_group_name_H-M	'P1'
_symmetry_Int_Tables_number	1
_symmetry_cell_setting	triclinic
loop_
_symmetry_equiv_pos_as_xyz
  x,y,z
_cell_length_a	6.817900
_cell_length_b	10.992421
_cell_length_c	10.943624
_cell_angle_alpha	91.800796
_cell_angle_beta	108.838799
_cell_angle_gamma	108.764763
loop_
_atom_site_label
_atom_site_type_symbol
_atom_site_fract_x
_atom_site_fract_y
_atom_site_fract_z
V1	V	-4.115111	-0.177727	-0.402533
O2	O	-4.073223	0.008575	-0.394889
O3	O	-4.092684	-0.352436	-0.399762
O4	O	-4.093080	-0.174978	-0.578100
O5	O	-4.072824	-0.170111	-0.215317
V6	V	-4.591957	-0.155445	-0.380143
O7	O	-4.391017	-0.226605	-0.451648
O8	O	-4.766248	-0.106567	-0.331028
O9	O	-4.391177	0.019264	-0.382914
O10	O	-4.751242	-0.341747	-0.387787
O11	O	-4.751641	-0.163061	-0.567359
O12	O	-4.390782	-0.158194	-0.204576
C13	C	-3.943150	-0.395027	-0.393408
C14	C	-4.006276	-0.537854	-0.392312
C15	C	-3.873921	-0.733142	-0.383483
C16	C	-3.807840	-0.584497	-0.384111
C17	C	-4.076627	-0.576499	-0.271911
C18	C	-4.140860	-0.725043	-0.270636
C19	C	-4.272894	-0.763604	-0.517452
C20	C	-4.203846	-0.615090	-0.520065
C21	C	-3.943653	-0.168660	-0.620893
C22	C	-4.007095	-0.167568	-0.764420
C23	C	-3.851941	-0.160217	-0.841568
C24	C	-4.041064	-0.269328	-0.947547
C25	C	-3.931042	-0.056525	-0.914182
C26	C	-4.195429	-0.276781	-0.868522
C27	C	-4.085327	-0.063882	-0.835133
C28	C	-4.274586	-0.173023	-0.941083
C29	C	-4.204054	0.061848	-0.389265
C30	C	-4.120168	0.204674	-0.390368
C31	C	-4.203550	-0.164516	-0.161776
C32	C	-4.119345	-0.165601	-0.018248
H33	H	-3.935835	-0.522269	-0.177332
H34	H	-3.848281	-0.779555	-0.468981
O35	O	-3.720233	-0.760255	-0.262016
H36	H	-3.818471	-0.817840	-0.206533
H37	H	-4.155037	-0.591186	-0.609143
H38	H	-4.266751	-0.813113	-0.608557
O39	O	-4.017160	-0.384372	-1.012384
H40	H	-4.180362	-0.446132	-1.084156
H41	H	-3.658963	-0.532063	-0.292386
O42	O	-3.993813	-0.748272	-0.144021
H43	H	-3.877579	-0.653512	-0.084279
O44	O	-4.342703	-0.400231	-0.841317
H45	H	-4.294034	-0.400117	-0.734231
H46	H	-4.353656	-0.584881	-0.533511
H47	H	-4.317071	-0.765926	-0.270446
H48	H	-4.222261	-0.546263	-0.273299
O49	O	-4.512102	-0.180276	-0.998489
H50	H	-4.621869	-0.271750	-0.980634
O51	O	-4.511147	-0.818056	-0.525823
H52	H	-4.520867	-0.867486	-0.439947
H53	H	-4.103292	0.022977	-0.786159
H54	H	-3.750901	-0.558726	-0.470142
O55	O	-3.614584	-0.153229	-0.783995
H56	H	-3.596207	-0.238679	-0.829444
O57	O	-3.783824	0.066790	-0.941635
H58	H	-3.609166	0.071849	-0.901609
