data_functionalizedCrystal
_audit_creation_method	'MofGen! by Chris Wilmer'
_symmetry_space_group_name_H-M	'P1'
_symmetry_Int_Tables_number	1
_symmetry_cell_setting	triclinic
loop_
_symmetry_equiv_pos_as_xyz
  x,y,z
_cell_length_a	15.625110
_cell_length_b	15.995292
_cell_length_c	14.185569
_cell_angle_alpha	76.851103
_cell_angle_beta	120.554511
_cell_angle_gamma	83.872582
loop_
_atom_site_label
_atom_site_type_symbol
_atom_site_fract_x
_atom_site_fract_y
_atom_site_fract_z
O1	O	1.290887	0.021549	0.386228
O2	O	1.002700	0.058399	0.281382
O3	O	1.154701	-0.082562	0.336680
O4	O	1.138886	0.162510	0.330929
O5	O	1.199603	-0.124199	0.519850
O6	O	1.047602	0.016762	0.464552
O7	O	1.335789	-0.020088	0.569398
Cu8	Cu	1.195796	-0.005465	0.533700
Cu9	Cu	1.142693	0.043776	0.317080
O10	O	1.183788	0.120873	0.514100
C11	C	0.988274	0.040039	0.359550
C12	C	0.878391	0.047356	0.319573
C13	C	0.699041	0.080365	0.163388
C14	C	0.802295	0.073487	0.200964
C15	C	0.851255	0.028099	0.400652
C16	C	0.748002	0.034977	0.363092
C17	C	0.671903	0.061110	0.244459
C18	C	0.720864	0.015722	0.444164
C19	C	0.617620	0.022596	0.406607
C20	C	0.541516	0.048725	0.287978
C21	C	0.568659	0.067984	0.206902
C22	C	0.796966	-0.010416	0.562797
C23	C	0.769827	-0.029671	0.643868
C24	C	0.666582	-0.022791	0.606311
C25	C	0.590477	0.003338	0.487683
C26	C	0.639438	-0.042050	0.687387
C27	C	0.536195	-0.035176	0.649830
C28	C	0.487234	0.010211	0.450126
C29	C	1.176507	-0.134523	0.428028
C30	C	1.174576	-0.227317	0.427318
C31	C	1.167484	-0.564478	0.424747
C32	C	1.277294	-0.550214	0.465070
C33	C	1.279277	-0.453614	0.465412
C34	C	1.171003	-0.397209	0.426023
C35	C	1.090513	-0.398057	0.301472
C36	C	1.089171	-0.494721	0.300908
C37	C	1.137993	-0.541744	0.508392
C38	C	1.142397	-0.445897	0.511249
C39	C	1.172985	-0.302673	0.426739
C40	C	1.165496	-0.659012	0.424023
C41	C	1.350214	-0.001728	0.491227
C42	C	1.460095	-0.009044	0.531197
C43	C	1.161981	0.172834	0.422749
C44	C	1.163911	0.265629	0.423452
N45	N	1.233152	-0.040099	0.686061
N46	N	1.105345	0.078403	0.164721
C47	C	0.995592	0.180122	0.967286
C48	C	1.023895	0.153892	1.082604
C49	C	1.158519	0.029111	1.131542
C50	C	1.130223	0.055328	1.016224
C51	C	1.048760	0.130835	0.934104
C52	C	1.183391	0.006041	0.983043
C53	C	1.155101	0.032259	0.867736
C54	C	1.073643	0.107764	0.785611
C55	C	1.020469	0.157053	0.818798
C56	C	1.264859	-0.069462	1.065166
C57	C	1.318027	-0.118749	1.031985
C58	C	1.289733	-0.092535	0.916675
C59	C	1.208274	-0.017030	0.834549
C60	C	1.342906	-0.141824	0.883488
C61	C	1.314616	-0.115606	0.768181
C62	C	1.179984	0.009188	0.719243
H63	H	0.831801	-0.050952	0.740460
H64	H	1.224850	-0.032366	1.198417
C65	C	0.930850	0.240100	0.728451
H66	H	0.921614	0.248648	0.655026
H67	H	0.946203	0.290823	0.751243
H68	H	0.869435	0.232051	0.723333
H69	H	1.384359	-0.180226	1.098860
H70	H	1.113641	0.070668	0.652373
C71	C	0.723153	-0.070797	0.817875
H72	H	0.788527	-0.072131	0.828630
H73	H	0.723848	-0.128409	0.855500
H74	H	0.708735	-0.029572	0.849994
C75	C	1.221965	-0.448975	0.635410
H76	H	1.272408	-0.420704	0.635320
H77	H	1.254405	-0.509203	0.684623
H78	H	1.188165	-0.418894	0.662877
C79	C	0.965407	0.208109	1.119104
H80	H	0.993926	0.181687	1.199540
H81	H	0.894719	0.208672	1.076193
H82	H	0.971514	0.267420	1.104116
H83	H	1.050613	0.129112	0.691723
H84	H	0.637074	0.101655	0.066784
H85	H	0.425266	0.031502	0.353522
C86	C	1.037733	-0.394584	0.480958
H87	H	1.009982	-0.342568	0.415639
H88	H	1.046992	-0.378119	0.545133
H89	H	0.991642	-0.431406	0.463387
H90	H	1.287893	-0.090803	1.159056
C91	C	1.029138	-0.551956	0.469663
H92	H	1.001765	-0.569990	0.402869
H93	H	0.985805	-0.496592	0.451806
H94	H	1.032693	-0.595603	0.530415
C95	C	1.432512	-0.224875	0.973821
H96	H	1.460130	-0.250472	0.937545
H97	H	1.407958	-0.267070	1.005866
H98	H	1.484743	-0.208313	1.033775
H99	H	0.457449	0.054323	0.257401
C100	C	0.905980	0.263177	0.876947
H101	H	0.878365	0.288781	0.913220
H102	H	0.853758	0.246623	0.816986
H103	H	0.930547	0.305376	0.844916
H104	H	1.009883	-0.358802	0.268599
C105	C	1.210671	-0.608045	0.632385
H106	H	1.191546	-0.593141	0.681460
H107	H	1.279577	-0.605274	0.660378
H108	H	1.205715	-0.666630	0.631809
C109	C	0.506337	-0.056351	0.739004
H110	H	0.566444	-0.072890	0.815035
H111	H	0.474638	-0.104027	0.731257
H112	H	0.459518	-0.005189	0.725745
C113	C	1.359265	-0.615724	0.587190
H114	H	1.327260	-0.652369	0.614679
H115	H	1.391647	-0.583324	0.638190
H116	H	1.409454	-0.651910	0.584039
C117	C	1.362146	-0.455668	0.587804
H118	H	1.394902	-0.515684	0.637762
H119	H	1.330762	-0.424487	0.616698
H120	H	1.411919	-0.428114	0.584459
C121	C	0.978932	-0.504049	0.254934
H122	H	0.935163	-0.448798	0.236677
H123	H	0.979352	-0.548501	0.312529
H124	H	0.954262	-0.520585	0.187204
C125	C	0.484940	0.096754	0.076405
H126	H	0.515886	0.107242	0.033495
H127	H	0.436098	0.149793	0.054876
H128	H	0.451199	0.050966	0.060338
C129	C	1.309404	-0.571134	0.384973
H130	H	1.256177	-0.588521	0.327061
H131	H	1.370993	-0.618162	0.429284
H132	H	1.320830	-0.519614	0.349136
H133	H	0.824383	0.089174	0.134937
H134	H	1.109520	-0.363411	0.237488
H135	H	0.913229	0.006818	0.497244
C136	C	1.373094	-0.169822	0.731675
H137	H	1.425655	-0.218550	0.797094
H138	H	1.403247	-0.132814	0.701670
H139	H	1.326455	-0.191564	0.673749
H140	H	0.881031	-0.016011	0.593372
C141	C	1.312782	-0.410442	0.385192
H142	H	1.314123	-0.351192	0.385138
H143	H	1.265305	-0.409673	0.308654
H144	H	1.379608	-0.443825	0.412310
C145	C	1.114539	-0.511115	0.213908
H146	H	1.125577	-0.458756	0.179251
H147	H	1.058656	-0.525904	0.155519
H148	H	1.175036	-0.558786	0.253276
