data_functionalizedCrystal
_audit_creation_method	'MofGen! by Chris Wilmer'
_symmetry_space_group_name_H-M	'P1'
_symmetry_Int_Tables_number	1
_symmetry_cell_setting	triclinic
loop_
_symmetry_equiv_pos_as_xyz
  x,y,z
_cell_length_a	10.654550
_cell_length_b	23.532407
_cell_length_c	9.730223
_cell_angle_alpha	89.990960
_cell_angle_beta	89.999957
_cell_angle_gamma	83.666804
loop_
_atom_site_label
_atom_site_type_symbol
_atom_site_fract_x
_atom_site_fract_y
_atom_site_fract_z
O1	O	1.665305	0.079985	-0.114203
O2	O	1.299585	0.087605	-0.114230
O3	O	1.493473	0.000935	-0.114191
O4	O	1.471417	0.166655	-0.114242
O5	O	1.493461	0.000933	0.114389
O6	O	1.299573	0.087603	0.114350
O7	O	1.665293	0.079982	0.114377
Zn8	Zn	1.482431	0.083792	0.150655
Zn9	Zn	1.482447	0.083795	-0.150508
O10	O	1.471404	0.166652	0.114337
C11	C	1.252799	0.087044	0.000057
C12	C	1.113408	0.085370	0.000048
C13	C	1.492905	-0.020286	0.000103
C14	C	1.491217	-0.083514	0.000113
C15	C	1.032306	0.136400	0.000036
C16	C	0.901335	0.134824	0.000060
C17	C	0.932582	0.031183	0.000103
C18	C	1.063550	0.032760	0.000089
C19	C	1.595364	-0.481938	0.000046
C20	C	1.593795	-0.541349	0.000035
O21	O	1.690341	-0.577464	-0.000009
N22	N	1.478529	-0.564726	0.000028
C23	C	1.364824	-0.528689	0.000017
O24	O	1.266636	-0.554029	0.000008
C25	C	1.366394	-0.469280	0.000018
C26	C	1.481668	-0.445906	0.000039
C27	C	1.710629	-0.458564	0.000066
C28	C	1.712197	-0.399158	0.000079
C29	C	1.598500	-0.363126	0.000072
C30	C	1.483236	-0.386500	0.000052
C31	C	1.252690	-0.433244	-0.000003
C32	C	1.254270	-0.373831	-0.000003
C33	C	1.369544	-0.350458	0.000018
C34	C	1.371107	-0.291061	0.000058
N35	N	1.486374	-0.267684	0.000066
C36	C	1.600070	-0.303716	0.000073
C37	C	1.361535	-0.653453	0.000013
C38	C	1.359964	-0.712861	0.000022
C39	C	1.588936	-0.725517	0.000038
C40	C	1.590506	-0.666108	0.000038
C41	C	1.476802	-0.630076	0.000020
C42	C	1.603355	-0.178958	0.000101
C43	C	1.604913	-0.119546	0.000120
C44	C	1.375942	-0.106896	0.000097
C45	C	1.374383	-0.166303	0.000086
C46	C	1.488100	-0.202333	0.000083
O47	O	1.274613	-0.254911	0.000096
O48	O	1.698241	-0.278369	0.000063
C49	C	1.712079	0.080543	0.000087
C50	C	1.851469	0.082217	0.000087
C51	C	1.471972	0.187873	0.000041
C52	C	1.473661	0.251101	0.000022
N53	N	1.482429	0.083790	0.356192
N54	N	1.482459	0.083793	-0.356045
C55	C	1.568311	0.045429	0.428135
C56	C	1.568324	0.045429	0.572018
C57	C	1.396567	0.122156	0.572002
C58	C	1.396550	0.122153	0.428121
H59	H	1.072896	0.179239	0.000013
C60	C	0.735944	0.193181	0.117555
C61	C	0.812187	0.190918	0.000040
H62	H	0.680914	0.227815	0.117544
H63	H	0.687507	0.161629	0.117570
H64	H	0.787708	0.191644	0.197250
H65	H	0.760422	0.192451	-0.079655
H66	H	0.860627	0.222478	0.000013
H67	H	0.891971	-0.011650	0.000144
C68	C	1.081293	-0.069847	0.000117
C69	C	1.152709	-0.023336	0.000096
H70	H	1.136339	-0.104476	0.000116
H71	H	1.029571	-0.068308	0.079827
H72	H	1.029551	-0.068304	-0.079595
H73	H	1.204445	-0.024877	0.079814
H74	H	1.204453	-0.024876	-0.079623
C75	C	1.230443	-0.579309	0.117517
C76	C	1.236542	-0.613847	0.000014
H77	H	1.153281	-0.554859	0.117508
H78	H	1.234589	-0.602755	0.197211
H79	H	1.299315	-0.556883	0.117506
H80	H	1.167674	-0.636276	0.000030
H81	H	1.232383	-0.590399	-0.079701
C82	C	1.226779	0.197991	0.557533
C83	C	1.302172	0.164324	0.651070
H84	H	1.168498	0.224022	0.606347
H85	H	1.278779	0.218697	0.501400
H86	H	1.181914	0.174086	0.501429
H87	H	1.347045	0.188230	0.707167
H88	H	1.250166	0.143617	0.707226
H89	H	1.803219	-0.487896	0.000066
H90	H	1.638237	0.014190	0.369574
H91	H	1.698787	-0.100519	0.000141
C92	C	1.829843	-0.185484	0.000137
C93	C	1.728353	-0.218557	0.000111
H94	H	1.907009	-0.209931	0.000158
H95	H	1.825695	-0.162044	-0.079567
H96	H	1.825663	-0.162053	0.079856
H97	H	1.732528	-0.241985	-0.079613
H98	H	1.732504	-0.242006	0.079823
C99	C	1.938360	-0.417653	0.000079
C100	C	1.838911	-0.373471	0.000084
H101	H	2.016591	-0.401796	0.000071
H102	H	1.932978	-0.440564	0.079785
H103	H	1.932966	-0.440556	-0.079638
H104	H	1.844300	-0.350570	0.079806
H105	H	1.844295	-0.350550	-0.079630
C106	C	1.739384	0.033797	0.733811
C107	C	1.662729	0.003263	0.651103
H108	H	1.797661	0.007763	0.782639
H109	H	1.784242	0.057688	0.677665
H110	H	1.688231	0.056642	0.797239
H111	H	1.713881	-0.019579	0.587668
H112	H	1.617867	-0.020638	0.707254
H113	H	1.684372	-0.647081	0.000055
H114	H	1.681514	-0.754865	0.000038
C115	C	1.059592	-0.344748	-0.117534
C116	C	1.129278	-0.334227	-0.000020
H117	H	0.982426	-0.320300	-0.117535
H118	H	1.106894	-0.337600	-0.197221
H119	H	1.042177	-0.383478	-0.117528
H120	H	1.146700	-0.295498	-0.000031
H121	H	1.081965	-0.341370	0.079688
H122	H	1.266096	-0.731886	0.000028
C123	C	1.239797	-0.225761	-0.117442
C124	C	1.247679	-0.192003	0.000075
H125	H	1.161578	-0.241627	-0.117450
H126	H	1.245166	-0.202836	-0.197127
H127	H	1.307295	-0.255721	-0.117431
H128	H	1.180186	-0.162040	0.000059
H129	H	1.242298	-0.214929	0.079781
H130	H	1.283373	-0.077548	0.000097
C131	C	1.368303	0.199538	0.266267
C132	C	1.302145	0.164325	0.349029
H133	H	1.310020	0.225568	0.217434
H134	H	1.420305	0.220244	0.322379
H135	H	1.419435	0.176681	0.202844
H136	H	1.251020	0.187181	0.412459
H137	H	1.250120	0.143617	0.292913
H138	H	1.158822	-0.452264	-0.000029
