data_functionalizedCrystal
_audit_creation_method	'MofGen! by Chris Wilmer'
_symmetry_space_group_name_H-M	'P1'
_symmetry_Int_Tables_number	1
_symmetry_cell_setting	triclinic
loop_
_symmetry_equiv_pos_as_xyz
  x,y,z
_cell_length_a	17.638686
_cell_length_b	12.759399
_cell_length_c	12.759401
_cell_angle_alpha	89.989880
_cell_angle_beta	101.197314
_cell_angle_gamma	101.217379
loop_
_atom_site_label
_atom_site_type_symbol
_atom_site_fract_x
_atom_site_fract_y
_atom_site_fract_z
Zn1	Zn	1.208349	0.743749	0.918191
Zn2	Zn	1.208302	0.919389	0.742497
Zn3	Zn	1.076196	0.708158	0.707072
Zn4	Zn	1.076153	0.883796	0.882681
O5	O	1.142250	0.813773	0.812610
O6	O	1.318954	0.796839	0.924571
O7	O	1.190777	0.891369	0.590776
O8	O	1.093764	0.565868	0.735113
O9	O	1.318919	0.925880	0.795489
O10	O	1.190856	0.592017	0.890221
O11	O	1.093719	0.736179	0.564750
O12	O	0.965579	0.701666	0.700681
O13	O	1.093690	0.865218	1.034413
O14	O	0.965548	0.830707	0.829700
O15	O	1.190814	0.762327	1.060502
O16	O	1.190735	1.061678	0.761058
O17	O	1.093645	1.035529	0.864050
C18	C	0.936883	0.758463	0.757494
C19	C	0.849026	0.734826	0.733940
C20	C	0.560103	0.993567	0.991812
C21	C	0.477548	0.971348	0.969653
C22	C	0.477548	0.836769	0.835514
C23	C	0.560105	0.858981	0.857658
C24	C	0.601376	0.937380	0.935809
C25	C	0.601377	0.802794	0.801655
C26	C	0.683926	0.825000	0.823801
C27	C	0.725203	0.903393	0.901951
C28	C	0.683925	0.959586	0.957956
C29	C	0.560104	0.724389	0.723509
C30	C	0.601377	0.668202	0.667506
C31	C	0.683928	0.690414	0.689647
C32	C	0.725205	0.768807	0.767797
C33	C	0.725206	0.634221	0.633642
C34	C	0.807755	0.656427	0.655789
C35	C	0.807754	0.791013	0.789943
C36	C	1.142202	1.086727	0.812573
C37	C	1.142253	1.203518	0.812612
C38	C	1.142253	0.813772	1.086644
C39	C	1.142254	0.813772	1.203421
C40	C	1.348419	0.869300	0.867942
C41	C	1.436276	0.892962	0.891522
C42	C	1.142320	0.539759	0.812676
C43	C	1.142350	0.422990	0.812704
C44	C	1.192865	1.271977	0.759076
C45	C	1.192916	1.381714	0.759125
C46	C	1.091736	1.354523	0.866247
C47	C	1.091690	1.244789	0.866204
C48	C	1.192813	0.760204	1.381597
C49	C	1.192820	0.760205	1.271875
C50	C	1.091683	0.867350	1.244696
C51	C	1.091681	0.867354	1.354418
C52	C	1.142243	0.813790	1.539641
C53	C	1.142245	0.813774	1.422865
H54	H	0.717530	1.023432	1.021589
O55	O	0.847730	0.601793	0.601248
C56	C	0.793603	0.527823	0.527534
H57	H	0.734752	0.555012	0.508041
H58	H	0.784837	0.445724	0.563780
C59	C	0.898096	0.487800	0.448324
C60	C	0.825816	0.521200	0.424375
H61	H	0.917967	0.483710	0.384692
H62	H	0.934563	0.537632	0.497989
H63	H	0.890781	0.419387	0.478531
H64	H	0.833133	0.589616	0.394181
H65	H	0.789351	0.471379	0.374703
O66	O	1.241820	0.708024	1.448104
C67	C	1.196838	0.628067	1.499530
H68	H	1.134585	0.604808	1.449756
H69	H	1.194105	0.659816	1.581947
C70	C	1.311945	0.557826	1.572742
C71	C	1.235487	0.529252	1.511604
H72	H	1.335786	0.496874	1.580195
H73	H	1.342251	0.611697	1.538099
H74	H	1.309657	0.584284	1.641416
H75	H	1.237776	0.502807	1.442928
H76	H	1.205181	0.475375	1.546236
H77	H	1.050501	0.910983	1.388018
O78	O	1.241872	1.231808	0.706884
C79	C	1.196886	1.156290	0.626903
H80	H	1.134649	1.172671	0.603651
H81	H	1.194108	1.072374	0.658614
C82	C	1.312009	1.144908	0.556666
C83	C	1.235570	1.165033	0.528101
H84	H	1.335872	1.150297	0.495722
H85	H	1.342318	1.195783	0.610553
H86	H	1.309684	1.074979	0.583093
H87	H	1.237897	1.234966	0.501687
H88	H	1.205262	1.114170	0.474207
O89	O	1.042641	1.394784	0.918203
C90	C	1.053545	1.506322	0.906782
H91	H	1.079488	1.528300	0.832697
H92	H	1.095612	1.548713	0.980444
C93	C	0.941722	1.514214	0.985870
C94	C	0.973579	1.541207	0.894872
H95	H	0.892397	1.535735	0.978528
H96	H	0.934377	1.439069	0.993569
H97	H	0.976786	1.549542	1.047246
H98	H	0.938520	1.505869	0.833500
H99	H	0.980917	1.616347	0.887162
O100	O	1.042447	1.178423	0.918226
C101	C	0.997838	1.238380	0.965552
H102	H	0.995154	1.315895	0.921820
H103	H	1.026743	1.257764	1.053135
C104	C	0.916984	1.077775	1.011726
C105	C	0.913682	1.172976	0.958007
H106	H	0.865074	1.037430	1.007077
H107	H	0.947040	1.037380	0.979845
H108	H	0.941075	1.093942	1.084707
H109	H	0.889600	1.156808	0.885025
H110	H	0.883620	1.213367	0.989876
O111	O	0.600079	1.069728	1.067794
C112	C	0.545952	1.114588	1.112456
H113	H	0.487108	1.055738	1.100385
H114	H	0.537168	1.191959	1.071488
C115	C	0.650452	1.210851	1.247718
C116	C	0.578181	1.138567	1.232900
H117	H	0.670333	1.225648	1.322012
H118	H	0.686919	1.180632	1.217626
H119	H	0.643122	1.275318	1.213570
H120	H	0.585513	1.074097	1.267035
H121	H	0.541716	1.168776	1.263000
H122	H	1.050515	0.910970	1.188954
O123	O	0.805392	0.924877	0.923637
C124	C	0.832980	0.905500	1.031784
H125	H	0.785416	0.846965	1.062534
H126	H	0.847620	0.983891	1.081100
C127	C	0.966008	0.929406	1.003994
C128	C	0.907591	0.857505	1.041759
H129	H	1.012033	0.899805	1.010150
H130	H	0.947422	0.942465	0.931134
H131	H	0.978198	0.994726	1.045096
H132	H	0.895395	0.792192	1.000649
H133	H	0.926176	0.844434	1.114613
H134	H	0.841359	0.854859	0.853576
H135	H	1.233999	0.716584	1.238280
H136	H	0.443947	1.017104	1.015268
H137	H	1.234131	1.437450	0.715531
H138	H	0.492887	0.706306	0.705486
O139	O	0.561246	0.592188	0.591474
C140	C	0.513468	0.639045	0.510719
H141	H	0.538337	0.728473	0.510758
H142	H	0.450909	0.625884	0.526419
C143	C	0.481646	0.477372	0.401197
C144	C	0.512194	0.587206	0.401239
H145	H	0.480857	0.445393	0.333664
H146	H	0.513832	0.445801	0.455604
H147	H	0.429516	0.466418	0.414285
H148	H	0.564326	0.598158	0.388164
H149	H	0.480017	0.618778	0.346827
H150	H	0.443934	0.772934	0.771886
O151	O	0.685074	0.558202	0.557615
C152	C	0.637291	0.605051	0.476858
H153	H	0.662158	0.694478	0.476888
H154	H	0.574734	0.591889	0.492563
C155	C	0.605469	0.443368	0.367349
C156	C	0.636015	0.553203	0.367381
H157	H	0.604678	0.411384	0.299819
H158	H	0.637659	0.411803	0.421758
H159	H	0.553341	0.432415	0.380442
H160	H	0.688146	0.564154	0.354302
H161	H	0.603834	0.584769	0.312967
