data_functionalizedCrystal
_audit_creation_method	'MofGen! by Chris Wilmer'
_symmetry_space_group_name_H-M	'P1'
_symmetry_Int_Tables_number	1
_symmetry_cell_setting	triclinic
loop_
_symmetry_equiv_pos_as_xyz
  x,y,z
_cell_length_a	14.044220
_cell_length_b	9.065218
_cell_length_c	7.540329
_cell_angle_alpha	90.001757
_cell_angle_beta	89.998075
_cell_angle_gamma	89.102381
loop_
_atom_site_label
_atom_site_type_symbol
_atom_site_fract_x
_atom_site_fract_y
_atom_site_fract_z
O1	O	-1.260762	-0.356074	-0.147280
O2	O	-0.760762	0.143926	0.352720
O3	O	-0.984682	-0.343225	-0.147326
O4	O	-0.484682	0.156775	0.352674
O5	O	-1.128428	-0.135640	-0.147298
O6	O	-0.628428	0.364360	0.352702
O7	O	-1.117015	-0.563660	-0.147308
O8	O	-0.617015	-0.063660	0.352692
O9	O	-1.128420	-0.135636	0.147667
O10	O	-0.628420	0.364364	0.647667
O11	O	-0.984673	-0.343221	0.147639
O12	O	-0.484673	0.156779	0.647639
O13	O	-1.260753	-0.356071	0.147685
O14	O	-0.760753	0.143929	0.647685
Cu15	Cu	-1.122712	-0.349646	0.174595
Cu16	Cu	-0.622712	0.150354	0.674595
Cu17	Cu	-1.122723	-0.349650	-0.174236
Cu18	Cu	-0.622723	0.150350	0.325764
O19	O	-1.117007	-0.563656	0.147657
O20	O	-0.617007	-0.063656	0.647657
C21	C	-1.127327	-0.080530	0.000181
C22	C	-0.627327	0.419470	0.500181
C23	C	-1.124048	0.083677	0.000172
C24	C	-0.624048	0.583677	0.500172
C25	C	-0.949315	-0.337599	0.000151
C26	C	-0.449315	0.162401	0.500151
C27	C	-0.843945	-0.320822	0.000133
C28	C	-0.343945	0.179178	0.500133
C29	C	-1.296120	-0.361697	0.000204
C30	C	-0.796120	0.138303	0.500204
C31	C	-1.401490	-0.378474	0.000210
C32	C	-0.901490	0.121526	0.500210
C33	C	-0.651021	-0.290150	0.000169
C34	C	-0.151021	0.209850	0.500169
C35	C	-0.594409	-0.409139	0.000174
C36	C	-0.094409	0.090861	0.500174
C37	C	-0.487059	-0.392073	0.000194
C38	C	0.012941	0.107927	0.500194
C39	C	-0.758381	-0.307214	0.000149
C40	C	-0.258381	0.192786	0.500149
C41	C	-1.118108	-0.618766	0.000174
C42	C	-0.618108	-0.118766	0.500174
C43	C	-1.121388	-0.782972	0.000171
C44	C	-0.621388	-0.282972	0.500171
N45	N	-1.122712	-0.349642	0.419943
N46	N	-0.622712	0.150358	0.919943
N47	N	-1.122730	-0.349643	-0.419584
N48	N	-0.622730	0.150357	0.080416
H49	H	-0.626565	-0.523826	0.000163
H50	H	-0.126565	-0.023826	0.500163
F51	F	-0.608994	-0.140255	0.000178
F52	F	-0.108994	0.359745	0.500178
