data_functionalizedCrystal
_audit_creation_method	'MofGen! by Chris Wilmer'
_symmetry_space_group_name_H-M	'P1'
_symmetry_Int_Tables_number	1
_symmetry_cell_setting	triclinic
loop_
_symmetry_equiv_pos_as_xyz
  x,y,z
_cell_length_a	13.032831
_cell_length_b	12.645330
_cell_length_c	13.032268
_cell_angle_alpha	97.151313
_cell_angle_beta	90.886977
_cell_angle_gamma	82.822813
loop_
_atom_site_label
_atom_site_type_symbol
_atom_site_fract_x
_atom_site_fract_y
_atom_site_fract_z
Zn1	Zn	1.498478	-0.715929	-0.780858
Zn2	Zn	1.520220	-0.873876	-0.608884
Zn3	Zn	1.348336	-0.671644	-0.587098
Zn4	Zn	1.326468	-0.868144	-0.759009
O5	O	1.423375	-0.782398	-0.683962
O6	O	1.645282	-0.757814	-0.776307
O7	O	1.515670	-0.830915	-0.462076
O8	O	1.368306	-0.529182	-0.612827
O9	O	1.661256	-0.873856	-0.649958
O10	O	1.478614	-0.561718	-0.755182
O11	O	1.389388	-0.682336	-0.446071
O12	O	1.201515	-0.676778	-0.591641
O13	O	1.331034	-0.864087	-0.905824
O14	O	1.185448	-0.821146	-0.717943
O15	O	1.457409	-0.752256	-0.921877
O16	O	1.494465	-1.021452	-0.628771
O17	O	1.352116	-1.017241	-0.739067
C18	C	1.156164	-0.743535	-0.650057
C19	C	1.041847	-0.726938	-0.635577
C20	C	0.982971	-0.791061	-0.691519
C21	C	0.864818	-0.773908	-0.676555
C22	C	1.423302	-1.057816	-0.683938
C23	C	1.423360	-1.175658	-0.683974
C24	C	1.334105	-1.340692	-0.753648
C25	C	1.333733	-1.218045	-0.753341
C26	C	1.407793	-1.203807	-0.571873
C27	C	1.407248	-1.326389	-0.572295
C28	C	1.528779	-1.361707	-0.725584
C29	C	1.527810	-1.239270	-0.727870
C30	C	1.691630	-0.821414	-0.718000
C31	C	1.805944	-0.838040	-0.732505
C32	C	1.389357	-0.812472	-0.952210
C33	C	1.374860	-0.825288	-1.066522
C34	C	1.423474	-0.505912	-0.684012
C35	C	1.423516	-0.388090	-0.684033
C36	C	1.430925	-0.775669	-1.125428
C37	C	1.415944	-0.788914	-1.243575
C38	C	1.457320	-0.752374	-0.416765
C39	C	1.472016	-0.739288	-0.302479
H40	H	0.843003	-0.905637	-0.791489
H41	H	1.356842	-0.841195	-1.280605
H42	H	1.332138	-1.159066	-0.537955
H43	H	1.595223	-1.392760	-0.675049
H44	H	1.004781	-0.659337	-0.576608
H45	H	1.341878	-1.199591	-0.836032
H46	H	1.342048	-1.381809	-0.836582
H47	H	1.256264	-1.357903	-0.725332
O48	O	1.542487	-0.676962	-1.258148
C49	C	1.621570	-0.606817	-1.099958
C50	C	1.541758	-0.677465	-1.150032
H51	H	1.620992	-0.607182	-1.012537
H52	H	1.701885	-0.639810	-1.131451
H53	H	1.600867	-0.521088	-1.118819
H54	H	1.562365	-0.763209	-1.131191
H55	H	1.461466	-0.644384	-1.118536
O56	O	1.027009	-0.871727	-0.761955
C57	C	0.999403	-1.019470	-0.890773
C58	C	0.949399	-0.928141	-0.811056
H59	H	0.936681	-1.065120	-0.930478
H60	H	1.042852	-0.984227	-0.951021
H61	H	1.055715	-1.076724	-0.849777
H62	H	0.893042	-0.870854	-0.851963
H63	H	0.906015	-0.963459	-0.750813
H64	H	1.490012	-0.723380	-1.088392
H65	H	0.827756	-0.706302	-0.617582
H66	H	1.255418	-1.175020	-0.724725
O67	O	1.304507	-0.887809	-1.110757
C68	C	1.275334	-1.042392	-1.230438
C69	C	1.355121	-0.971688	-1.180407
H70	H	1.316221	-1.110211	-1.286776
H71	H	1.235467	-1.077777	-1.167758
H72	H	1.215225	-0.991474	-1.273871
H73	H	1.415292	-1.022532	-1.136980
H74	H	1.394909	-0.936294	-1.243133
O75	O	1.315868	-1.343498	-0.532238
C76	C	1.151267	-1.263698	-0.459327
C77	C	1.254705	-1.244180	-0.504692
H78	H	1.101797	-1.183413	-0.437023
H79	H	1.108643	-1.315355	-0.519489
H80	H	1.166821	-1.306787	-0.387810
H81	H	1.239244	-1.201059	-0.576196
H82	H	1.297298	-1.192568	-0.444463
H83	H	1.470292	-1.357178	-0.517917
H84	H	1.471460	-1.175923	-0.517982
H85	H	1.545671	-1.405172	-0.806666
H86	H	1.539800	-1.222299	-0.810438
O87	O	1.610225	-1.206470	-0.673084
C88	C	1.757514	-1.256671	-0.567658
C89	C	1.664235	-1.293964	-0.629701
H90	H	1.801195	-1.327384	-0.532548
H91	H	1.811244	-1.224498	-0.621196
H92	H	1.729109	-1.190488	-0.503233
H93	H	1.692547	-1.360177	-0.694129
H94	H	1.610524	-1.326070	-0.576095
