data_functionalizedCrystal
_audit_creation_method	'MofGen! by Chris Wilmer'
_symmetry_space_group_name_H-M	'P1'
_symmetry_Int_Tables_number	1
_symmetry_cell_setting	triclinic
loop_
_symmetry_equiv_pos_as_xyz
  x,y,z
_cell_length_a	12.759395
_cell_length_b	19.805405
_cell_length_c	19.805398
_cell_angle_alpha	89.972363
_cell_angle_beta	89.988546
_cell_angle_gamma	90.026256
loop_
_atom_site_label
_atom_site_type_symbol
_atom_site_fract_x
_atom_site_fract_y
_atom_site_fract_z
Zn1	Zn	1.606100	-0.269493	-0.382632
Zn2	Zn	2.106100	0.230507	0.117368
Zn3	Zn	1.605980	-0.382678	-0.269440
Zn4	Zn	2.105980	0.117322	0.230560
Zn5	Zn	1.430423	-0.269508	-0.269465
Zn6	Zn	1.930423	0.230492	0.230535
Zn7	Zn	1.430355	-0.382645	-0.382596
Zn8	Zn	1.930355	0.117355	0.117404
O9	O	1.518215	-0.326081	-0.326033
O10	O	2.018215	0.173919	0.173967
O11	O	1.753105	-0.284515	-0.367621
O12	O	2.253105	0.215485	0.132379
O13	O	1.582670	-0.367686	-0.174727
O14	O	2.082670	0.132314	0.325273
O15	O	1.453806	-0.174789	-0.284503
O16	O	1.953806	0.325211	0.215497
O17	O	1.753017	-0.367671	-0.284460
O18	O	2.253017	0.132329	0.215540
O19	O	1.582875	-0.174778	-0.367646
O20	O	2.082875	0.325222	0.132354
O21	O	1.453689	-0.284540	-0.174745
O22	O	1.953689	0.215460	0.325255
O23	O	1.283393	-0.284508	-0.284467
O24	O	1.783393	0.215492	0.215533
O25	O	1.453690	-0.367615	-0.477317
O26	O	1.953690	0.132385	0.022683
O27	O	1.283343	-0.367630	-0.367584
O28	O	1.783343	0.132370	0.132416
O29	O	1.582810	-0.284483	-0.477344
O30	O	2.082810	0.215517	0.022656
O31	O	1.582604	-0.477390	-0.284425
O32	O	2.082604	0.022610	0.215575
O33	O	1.453573	-0.477366	-0.367560
O34	O	1.953573	0.022634	0.132440
C35	C	1.245247	-0.326067	-0.326025
C36	C	1.745247	0.173933	0.173975
C37	C	1.128470	-0.326078	-0.326037
C38	C	1.628470	0.173922	0.173963
C39	C	1.518096	-0.501937	-0.326001
C40	C	2.018096	-0.001937	0.173999
C41	C	1.518142	-0.577169	-0.326009
C42	C	2.018142	-0.077169	0.173991
C43	C	1.585393	-0.612503	-0.282766
C44	C	2.085393	-0.112503	0.217234
C45	C	1.585438	-0.683192	-0.282781
C46	C	2.085438	-0.183192	0.217219
C47	C	1.518225	-0.718544	-0.326036
C48	C	2.018225	-0.218544	0.173964
C49	C	1.450971	-0.683205	-0.369284
C50	C	1.950971	-0.183205	0.130716
C51	C	1.450932	-0.612518	-0.369272
C52	C	1.950932	-0.112518	0.130728
C53	C	1.451126	-0.968278	-0.369334
C54	C	1.951126	-0.468278	0.130666
C55	C	1.451167	-1.038971	-0.369341
C56	C	1.951167	-0.538971	0.130659
C57	C	1.585631	-1.038952	-0.282843
C58	C	2.085631	-0.538952	0.217157
C59	C	1.585593	-0.968265	-0.282831
C60	C	2.085593	-0.468265	0.217169
C61	C	1.518343	-0.932932	-0.326081
C62	C	2.018343	-0.432932	0.173919
C63	C	1.518297	-0.856283	-0.326065
C64	C	2.018297	-0.356283	0.173935
C65	C	1.518265	-0.795192	-0.326049
C66	C	2.018265	-0.295192	0.173951
C67	C	1.128543	-0.239627	-0.412773
C68	C	1.628543	0.260373	0.087227
C69	C	1.073719	-0.196410	-0.456147
C70	C	1.573719	0.303590	0.043853
C71	C	0.963998	-0.196422	-0.456155
C72	C	1.463998	0.303578	0.043845
C73	C	0.909098	-0.239654	-0.412784
C74	C	1.409098	0.260346	0.087216
C75	C	0.963922	-0.282872	-0.369411
C76	C	1.463922	0.217128	0.130589
C77	C	1.073646	-0.282856	-0.369408
C78	C	1.573646	0.217144	0.130592
C79	C	0.963849	-0.369318	-0.282672
C80	C	1.463849	0.130682	0.217328
C81	C	1.073571	-0.369311	-0.282666
C82	C	1.573571	0.130689	0.217334
C83	C	0.908949	-0.412551	-0.239301
C84	C	1.408949	0.087449	0.260699
C85	C	0.963773	-0.455772	-0.195930
C86	C	1.463773	0.044228	0.304070
C87	C	1.073502	-0.455759	-0.195924
C88	C	1.573502	0.044241	0.304076
C89	C	1.128395	-0.412528	-0.239293
C90	C	1.628395	0.087472	0.260707
C91	C	1.792248	-0.326095	-0.326042
C92	C	2.292248	0.173905	0.173958
C93	C	1.909025	-0.326101	-0.326046
C94	C	2.409025	0.173899	0.173954
C95	C	1.518256	-0.326043	-0.502576
C96	C	2.018256	0.173957	-0.002576
C97	C	1.518273	-0.326027	-0.577808
C98	C	2.018273	0.173973	-0.077808
C99	C	1.518362	-0.149538	-0.326081
C100	C	2.018362	0.350462	0.173919
C101	C	1.518425	-0.074306	-0.326101
C102	C	2.018425	0.425694	0.173899
C103	C	1.585632	-0.282621	-1.039614
C104	C	2.085632	0.217379	-0.539614
C105	C	1.585616	-0.282641	-0.968926
C106	C	2.085616	0.217359	-0.468926
C107	C	1.518381	-0.325933	-0.933570
C108	C	2.018381	0.174067	-0.433570
C109	C	1.451166	-0.369212	-0.968906
C110	C	1.951166	0.130788	-0.468906
C111	C	1.451188	-0.369194	-1.039594
C112	C	1.951188	0.130806	-0.539594
C113	C	1.451074	-0.369286	-0.683833
C114	C	1.951074	0.130714	-0.183833
C115	C	1.451055	-0.369299	-0.613141
C116	C	1.951055	0.130701	-0.113141
C117	C	1.585502	-0.282733	-0.613165
C118	C	2.085502	0.217267	-0.113165
C119	C	1.585525	-0.282715	-0.683852
C120	C	2.085525	0.217285	-0.183852
C121	C	1.518314	-0.325996	-0.719183
C122	C	2.018314	0.174004	-0.219183
C123	C	1.518334	-0.325974	-0.795831
C124	C	2.018334	0.174026	-0.295831
C125	C	1.518355	-0.325952	-0.856923
C126	C	2.018355	0.174048	-0.356923
C127	C	1.518234	-0.326069	-0.150177
C128	C	2.018234	0.173931	0.349823
C129	C	1.518420	-0.325895	-0.074946
C130	C	2.018420	0.174105	0.425054
H131	H	1.640121	-0.583724	-0.247540
H132	H	2.140121	-0.083724	0.252460
Br133	Br	0.889263	-0.514432	-0.137070
Br134	Br	1.389263	-0.014432	0.362930
Br135	Br	1.676718	-0.731143	-0.224096
Br136	Br	2.176718	-0.231143	0.275904
Br137	Br	0.889588	-0.137764	-0.515012
Br138	Br	1.389588	0.362236	-0.015012
Br139	Br	1.359867	-0.428029	-0.731772
Br140	Br	1.859867	0.071971	-0.231772
H141	H	1.118133	-0.490950	-0.160602
H142	H	1.618133	0.009050	0.339398
Br143	Br	0.760189	-0.239659	-0.412785
Br144	Br	1.260189	0.260341	0.087215
H145	H	1.118431	-0.161210	-0.491457
H146	H	1.618431	0.338790	0.008543
H147	H	0.819608	-0.412555	-0.239309
H148	H	1.319608	0.087445	0.260691
Br149	Br	1.676784	-0.223965	-0.731832
Br150	Br	2.176784	0.276035	-0.231832
H151	H	1.396366	-0.939516	-0.404548
H152	H	1.896366	-0.439516	0.095452
H153	H	1.217736	-0.412509	-0.239289
H154	H	1.717736	0.087491	0.260711
Br155	Br	1.359921	-0.427969	-0.920924
Br156	Br	1.859921	0.072031	-0.420924
Br157	Br	1.676871	-0.223854	-1.087590
Br158	Br	2.176871	0.276146	-0.587590
Br159	Br	1.676812	-0.920289	-0.224125
Br160	Br	2.176812	-0.420289	0.275875
H161	H	1.640350	-0.247405	-0.940162
H162	H	2.140350	0.252595	-0.440162
H163	H	1.640231	-0.247493	-0.584391
H164	H	2.140231	0.252507	-0.084391
H165	H	1.396249	-0.711995	-0.404506
H166	H	1.896249	-0.211995	0.095494
H167	H	1.396435	-1.067753	-0.404570
H168	H	1.896435	-0.567753	0.095430
H169	H	1.217885	-0.239610	-0.412768
H170	H	1.717885	0.260390	0.087232
H171	H	1.396297	-0.404552	-0.584356
H172	H	1.896297	0.095448	-0.084356
H173	H	1.396171	-0.583750	-0.404486
H174	H	1.896171	-0.083750	0.095514
Br175	Br	1.359973	-0.427929	-1.087544
Br176	Br	1.859973	0.072071	-0.587544
H177	H	1.640394	-1.067729	-0.247630
H178	H	2.140394	-0.567729	0.252370
