data_functionalizedCrystal
_audit_creation_method	'MofGen! by Chris Wilmer'
_symmetry_space_group_name_H-M	'P1'
_symmetry_Int_Tables_number	1
_symmetry_cell_setting	triclinic
loop_
_symmetry_equiv_pos_as_xyz
  x,y,z
_cell_length_a	15.995350
_cell_length_b	11.792241
_cell_length_c	10.868271
_cell_angle_alpha	90.000107
_cell_angle_beta	89.997096
_cell_angle_gamma	96.157105
loop_
_atom_site_label
_atom_site_type_symbol
_atom_site_fract_x
_atom_site_fract_y
_atom_site_fract_z
O1	O	0.114763	-1.505951	-0.102196
O2	O	0.126591	-1.175511	-0.102224
O3	O	-0.001170	-1.349764	-0.102208
O4	O	0.242524	-1.331698	-0.102212
O5	O	-0.001175	-1.349750	0.102436
O6	O	0.126586	-1.175497	0.102420
O7	O	0.114758	-1.505937	0.102448
Zn8	Zn	0.120671	-1.340715	0.134926
Zn9	Zn	0.120678	-1.340734	-0.134702
O10	O	0.242519	-1.331684	0.102432
C11	C	0.125845	-1.133220	0.000094
C12	C	0.123621	-1.007224	0.000084
C13	C	-0.032370	-1.349010	0.000112
C14	C	-0.125331	-1.346771	0.000104
C15	C	0.115504	-1.548229	0.000127
C16	C	0.117727	-1.674224	0.000130
C17	C	-0.463115	-1.338730	0.000108
C18	C	-0.416244	-1.214630	-0.000362
C19	C	-0.319544	-1.216870	0.000100
C20	C	-0.295536	-1.342718	0.000105
C21	C	-0.336339	-1.403921	0.116971
C22	C	-0.432989	-1.400803	0.117068
C23	C	-0.433329	-1.403383	-0.115651
C24	C	-0.336384	-1.403354	-0.117195
C25	C	-0.200829	-1.344979	0.000108
C26	C	-0.557823	-1.336473	0.000113
C27	C	0.273719	-1.332438	0.000110
C28	C	0.366680	-1.334677	0.000109
N29	N	0.120666	-1.340710	0.318940
C30	C	0.119532	-0.776546	0.000119
C31	C	0.121804	-0.904913	0.000099
N32	N	0.120676	-1.340747	-0.318716
C33	C	0.120676	-1.340728	0.569946
C34	C	0.120673	-1.340714	0.430269
H35	H	-0.291338	-1.168760	-0.083674
H36	H	-0.320605	-1.495128	-0.124247
H37	H	-0.464675	-1.494881	-0.116432
H38	H	-0.309336	-1.358607	-0.203649
O39	O	-0.319096	-1.514261	0.122333
C40	C	-0.356620	-1.566611	0.228290
H41	H	-0.411338	-1.518754	0.258687
H42	H	-0.380762	-1.658914	0.206539
H43	H	-0.308104	-1.564496	0.305324
O44	O	-0.458153	-1.355151	-0.221357
C45	C	-0.510403	-1.436588	-0.288928
H46	H	-0.539558	-1.505873	-0.224106
H47	H	-0.562398	-1.393255	-0.335446
H48	H	-0.471506	-1.476488	-0.361871
O49	O	-0.302661	-1.353033	0.220599
C50	C	-0.242191	-1.262166	0.187862
H51	H	-0.255688	-1.231937	0.090951
H52	H	-0.245152	-1.188778	0.255454
H53	H	-0.176839	-1.292305	0.190710
H54	H	-0.464823	-1.491915	0.122375
O55	O	-0.438495	-1.155308	-0.100301
C56	C	-0.395452	-1.044540	-0.097966
H57	H	-0.336108	-1.044601	-0.039895
H58	H	-0.377577	-1.016599	-0.195755
H59	H	-0.437864	-0.982849	-0.056363
O60	O	-0.439942	-1.155887	0.099148
C61	C	-0.498744	-1.226436	0.169166
H62	H	-0.491115	-1.319688	0.149295
H63	H	-0.487529	-1.208399	0.271226
H64	H	-0.565135	-1.208268	0.143597
O65	O	-0.286506	-1.158927	0.100073
C66	C	-0.229095	-1.066812	0.061178
H67	H	-0.244490	-1.042662	-0.037182
H68	H	-0.233891	-0.990611	0.124358
H69	H	-0.162480	-1.092674	0.064906
O70	O	-0.455133	-1.347719	0.221354
C71	C	-0.511161	-1.423114	0.290534
H72	H	-0.502574	-1.514819	0.264610
H73	H	-0.497645	-1.409587	0.392778
H74	H	-0.578567	-1.405902	0.270158
