data_functionalizedCrystal
_audit_creation_method	'MofGen! by Chris Wilmer'
_symmetry_space_group_name_H-M	'P1'
_symmetry_Int_Tables_number	1
_symmetry_cell_setting	triclinic
loop_
_symmetry_equiv_pos_as_xyz
  x,y,z
_cell_length_a	17.077404
_cell_length_b	29.839125
_cell_length_c	17.077402
_cell_angle_alpha	89.984422
_cell_angle_beta	90.023108
_cell_angle_gamma	89.987843
loop_
_atom_site_label
_atom_site_type_symbol
_atom_site_fract_x
_atom_site_fract_y
_atom_site_fract_z
Zn1	Zn	1.199998	-0.254014	-0.312613
Zn2	Zn	1.199922	-0.178887	-0.443856
Zn3	Zn	1.068746	-0.178896	-0.312608
Zn4	Zn	1.068698	-0.253988	-0.443842
O5	O	1.134341	-0.216446	-0.378230
O6	O	1.309835	-0.244055	-0.330031
O7	O	1.182510	-0.116021	-0.426449
O8	O	1.086209	-0.188876	-0.202762
O9	O	1.309779	-0.188859	-0.426454
O10	O	1.182639	-0.244064	-0.202766
O11	O	1.086136	-0.116028	-0.330023
O12	O	0.958893	-0.188851	-0.330009
O13	O	1.086126	-0.316859	-0.426430
O14	O	0.958857	-0.244020	-0.426425
O15	O	1.182592	-0.316878	-0.330017
O16	O	1.182462	-0.188834	-0.553701
O17	O	1.086052	-0.244011	-0.553691
C18	C	0.930393	-0.216434	-0.378216
C19	C	0.843143	-0.216439	-0.378228
C20	C	0.802155	-0.245120	-0.428508
C21	C	0.720174	-0.245127	-0.428510
C22	C	0.679184	-0.216451	-0.378235
C23	C	0.720178	-0.187769	-0.327950
C24	C	0.802157	-0.187764	-0.327945
C25	C	0.549308	-0.187780	-0.327965
C26	C	0.467323	-0.187784	-0.327971
C27	C	0.467325	-0.245142	-0.428530
C28	C	0.549304	-0.245138	-0.428525
C29	C	0.590293	-0.216455	-0.378241
C30	C	1.134362	-0.333625	-0.378223
C31	C	1.134371	-0.383559	-0.378220
C32	C	1.184654	-0.693216	-0.327886
C33	C	1.184693	-0.880889	-0.327819
O34	O	1.227386	-0.905165	-0.285098
N35	N	1.134475	-0.904344	-0.378010
C36	C	1.084241	-0.880879	-0.428217
O37	O	1.041523	-0.905136	-0.470899
C38	C	1.084199	-0.693207	-0.428279
C39	C	1.134425	-0.669753	-0.378091
C40	C	1.234875	-0.669762	-0.277702
C41	C	1.234868	-0.622847	-0.277722
C42	C	1.184639	-0.599385	-0.327927
C43	C	1.134418	-0.622838	-0.378111
C44	C	1.033961	-0.669742	-0.478481
C45	C	1.033953	-0.622821	-0.478491
C46	C	1.084180	-0.599368	-0.428303
C47	C	1.084182	-0.552460	-0.428336
N48	N	1.134399	-0.529005	-0.378146
C49	C	1.184628	-0.552467	-0.327941
C50	C	1.084268	-0.979410	-0.428181
C51	C	1.084279	-1.026327	-0.428167
C52	C	1.184730	-1.026334	-0.327768
C53	C	1.184722	-0.979415	-0.327787
C54	C	1.134485	-0.955954	-0.377991
C55	C	1.184609	-0.453941	-0.327988
C56	C	1.184600	-0.407021	-0.328015
C57	C	1.084146	-0.407019	-0.428410
C58	C	1.084158	-0.453934	-0.428387
C59	C	1.134392	-0.477394	-0.378169
O60	O	1.041504	-0.528156	-0.471029
O61	O	1.227327	-0.528202	-0.285253
C62	C	1.184661	-0.740131	-0.327866
C63	C	1.134439	-0.763584	-0.378050
C64	C	1.084210	-0.740122	-0.428255
C65	C	1.134451	-0.810502	-0.378036
C66	C	1.184679	-0.833964	-0.327831
C67	C	1.234897	-0.810509	-0.277641
C68	C	1.234890	-0.763593	-0.277661
C69	C	1.033993	-0.763578	-0.478446
C70	C	1.034005	-0.810493	-0.478422
C71	C	1.084234	-0.833956	-0.428217
C72	C	1.339085	-0.216459	-0.378245
C73	C	1.426335	-0.216464	-0.378251
C74	C	1.134265	-0.216428	-0.582178
C75	C	1.134304	-0.216436	-0.669428
C76	C	1.134365	-0.099724	-0.378180
C77	C	1.134508	-0.049790	-0.377962
C78	C	1.184556	-0.187736	-0.710397
C79	C	1.184595	-0.187748	-0.792377
C80	C	1.134377	-0.216457	-0.833387
C81	C	1.084123	-0.245159	-0.792412
C82	C	1.084089	-0.245150	-0.710433
C83	C	1.084195	-0.245177	-0.963282
C84	C	1.084228	-0.245186	-1.045266
C85	C	1.184701	-0.187774	-1.045226
C86	C	1.184667	-0.187765	-0.963247
C87	C	1.134412	-0.216467	-0.922278
C88	C	1.134438	-0.216474	-0.173486
C89	C	1.134480	-0.216486	-0.086236
H90	H	1.225512	-0.473036	-0.287094
C91	C	1.290107	-0.597052	-0.222507
H92	H	1.282918	-0.565748	-0.229703
H93	H	1.278640	-0.604747	-0.169765
H94	H	1.342848	-0.604745	-0.233998
H95	H	0.433951	-0.164439	-0.287024
H96	H	0.582678	-0.164427	-0.287011
C97	C	0.675094	-0.156226	-0.272646
H98	H	0.711249	-0.139147	-0.242695
H99	H	0.643093	-0.136622	-0.302621
H100	H	0.643136	-0.173452	-0.238489
C101	C	1.029036	-1.052121	-0.483379
H102	H	0.999117	-1.031424	-0.513273
H103	H	1.059045	-1.070424	-0.517580
H104	H	0.994847	-1.070422	-0.453338
C105	C	1.239982	-1.052148	-0.272546
H106	H	1.232789	-1.083449	-0.279728
H107	H	1.292719	-1.044462	-0.284036
H108	H	1.228511	-1.044464	-0.219802
C109	C	1.239798	-0.156156	-0.665294
H110	H	1.269737	-0.139069	-0.701438
H111	H	1.209785	-0.136562	-0.633353
H112	H	1.273969	-0.173360	-0.633274
C113	C	1.239868	-0.156176	-0.837441
H114	H	1.269763	-0.139072	-0.801276
H115	H	1.274066	-0.173380	-0.869378
H116	H	1.209870	-0.136589	-0.869461
H117	H	0.835524	-0.268470	-0.469450
C118	C	1.028813	-0.276720	-0.665366
H119	H	0.998906	-0.293818	-0.701530
H120	H	1.058807	-0.296306	-0.633347
H121	H	0.994615	-0.259513	-0.633427
C122	C	1.029005	-0.953608	-0.483411
H123	H	0.999108	-0.974301	-0.513300
H124	H	0.994809	-0.935306	-0.453391
H125	H	1.059012	-0.935305	-0.517628
C126	C	1.239846	-0.381225	-0.272801
H127	H	1.269754	-0.401921	-0.242893
H128	H	1.274034	-0.362923	-0.302834
H129	H	1.209826	-0.362923	-0.238601
C130	C	0.978739	-0.737776	-0.533675
H131	H	0.948840	-0.758468	-0.563563
H132	H	0.944545	-0.719471	-0.503658
H133	H	1.008751	-0.719476	-0.567893
H134	H	1.043267	-0.473031	-0.469261
H135	H	1.043275	-0.268551	-0.929927
H136	H	0.686805	-0.268481	-0.469454
H137	H	0.993061	-0.688830	-0.519350
C138	C	1.290136	-0.695564	-0.222476
H139	H	1.320044	-0.674870	-0.192600
H140	H	1.260142	-0.713869	-0.188259
H141	H	1.324335	-0.713863	-0.252507
C142	C	1.239972	-0.156197	-1.090289
H143	H	1.232804	-0.160315	-1.144986
H144	H	1.228501	-0.126007	-1.076883
H145	H	1.292707	-0.162793	-1.076809
H146	H	0.835528	-0.164412	-0.286998
C147	C	0.594393	-0.276681	-0.483825
H148	H	0.558242	-0.293767	-0.513768
H149	H	0.626354	-0.259459	-0.517978
H150	H	0.626391	-0.296285	-0.453839
H151	H	0.993035	-0.603721	-0.519366
C152	C	1.239962	-0.953621	-0.272573
H153	H	1.269871	-0.974318	-0.242670
H154	H	1.274147	-0.935315	-0.302601
H155	H	1.209939	-0.935322	-0.238368
C156	C	1.028895	-0.381205	-0.483627
H157	H	1.036082	-0.349904	-0.476440
H158	H	1.040349	-0.388889	-0.536371
H159	H	0.976158	-0.388890	-0.472121
H160	H	1.043238	-0.268537	-0.825808
C161	C	1.028999	-0.276770	-1.090376
H162	H	0.999074	-0.293868	-1.054236
H163	H	0.994828	-0.259575	-1.122400
H164	H	1.059031	-0.296362	-1.122312
H165	H	1.225555	-0.164385	-0.929858
H166	H	0.433949	-0.268498	-0.469472
H167	H	1.275797	-0.829620	-0.236765
C168	C	0.978751	-0.836287	-0.533631
H169	H	0.948833	-0.815590	-0.563526
H170	H	1.008754	-0.854594	-0.567833
H171	H	0.944562	-0.854584	-0.503584
H172	H	1.275789	-0.744502	-0.236793
