data_functionalizedCrystal
_audit_creation_method	'MofGen! by Chris Wilmer'
_symmetry_space_group_name_H-M	'P1'
_symmetry_Int_Tables_number	1
_symmetry_cell_setting	triclinic
loop_
_symmetry_equiv_pos_as_xyz
  x,y,z
_cell_length_a	18.215407
_cell_length_b	15.297327
_cell_length_c	18.215399
_cell_angle_alpha	99.648308
_cell_angle_beta	89.983101
_cell_angle_gamma	99.703952
loop_
_atom_site_label
_atom_site_type_symbol
_atom_site_fract_x
_atom_site_fract_y
_atom_site_fract_z
Zn1	Zn	1.074350	-0.359235	-0.466749
Zn2	Zn	1.052956	-0.510105	-0.364971
Zn3	Zn	0.951279	-0.359256	-0.343706
Zn4	Zn	0.929954	-0.510047	-0.487994
O5	O	1.002135	-0.434661	-0.415855
O6	O	1.174494	-0.379263	-0.453256
O7	O	1.039440	-0.490128	-0.259171
O8	O	0.985483	-0.233007	-0.342236
O9	O	1.158776	-0.490107	-0.378481
O10	O	1.075902	-0.232991	-0.432636
O11	O	0.964738	-0.379300	-0.243547
O12	O	0.845468	-0.379244	-0.362837
O13	O	0.949137	-0.490008	-0.588156
O14	O	0.829801	-0.490029	-0.468846
O15	O	1.055224	-0.379207	-0.572547
O16	O	1.018762	-0.636344	-0.399082
O17	O	0.928393	-0.636302	-0.489466
C18	C	0.810932	-0.434633	-0.415840
C19	C	0.729132	-0.434643	-0.415854
C20	C	0.968962	-0.669057	-0.448903
C21	C	0.954837	-0.769333	-0.463066
C22	C	0.455920	-0.492442	-0.471002
C23	C	0.532780	-0.492434	-0.470998
C24	C	0.549088	-0.376900	-0.360723
C25	C	0.472229	-0.376913	-0.360726
C26	C	0.425647	-0.434683	-0.415869
C27	C	0.579366	-0.434662	-0.415862
C28	C	0.662701	-0.434653	-0.415857
C29	C	0.342307	-0.434693	-0.415874
C30	C	1.103387	-1.051957	-0.314882
C31	C	1.116657	-0.957743	-0.301572
C32	C	1.076204	-0.910636	-0.341944
C33	C	1.022477	-0.957752	-0.395629
C34	C	1.009201	-1.051976	-0.408937
C35	C	0.982018	-0.910654	-0.435999
C36	C	0.928291	-0.957770	-0.489684
C37	C	0.915019	-1.051984	-0.502990
C38	C	0.955472	-1.099092	-0.462617
C39	C	0.995294	-0.816431	-0.422692
C40	C	0.901108	-0.816449	-0.516746
C41	C	0.887838	-0.910663	-0.530057
C42	C	1.194084	-0.434689	-0.415871
C43	C	1.275881	-0.434701	-0.415878
C44	C	1.002188	-0.434599	-0.607799
C45	C	1.002211	-0.434572	-0.689594
C46	C	1.035458	-0.199349	-0.382694
C47	C	1.049658	-0.099073	-0.368562
C48	C	1.057475	-0.376824	-0.869654
C49	C	1.057488	-0.376798	-0.946509
C50	C	0.947019	-0.492181	-0.962753
C51	C	0.947004	-0.492202	-0.885898
C52	C	1.002236	-0.434525	-0.839351
C53	C	1.002264	-0.434478	-0.993061
C54	C	1.002277	-0.434449	-1.076391
C55	C	1.002223	-0.434552	-0.756016
C56	C	1.002133	-0.434658	-0.224648
C57	C	1.002289	-0.434430	-0.142818
H58	H	0.417995	-0.539482	-0.515904
C59	C	0.855913	-1.103818	-0.562035
C60	C	0.878652	-1.168522	-0.628974
C61	C	0.819545	-1.220355	-0.688017
C62	C	0.737700	-1.207484	-0.680120
C63	C	0.714958	-1.142777	-0.613178
C64	C	0.774065	-1.090944	-0.554135
H65	H	0.939242	-1.178052	-0.634823
H66	H	0.836381	-1.268255	-0.737572
H67	H	0.693946	-1.245854	-0.723827
H68	H	0.654368	-1.133246	-0.607329
H69	H	0.757229	-1.043043	-0.504579
H70	H	1.087011	-0.833923	-0.331103
C71	C	0.856606	-0.764643	-0.561163
C72	C	0.771111	-0.777675	-0.556927
C73	C	0.726611	-0.725863	-0.601340
C74	C	0.767606	-0.661018	-0.649988
C75	C	0.853106	-0.647983	-0.654226
C76	C	0.897606	-0.699795	-0.609814
H77	H	0.740760	-0.825680	-0.520913
H78	H	0.663318	-0.735513	-0.598202
H79	H	0.734665	-0.622664	-0.682865
H80	H	0.883457	-0.599979	-0.690240
H81	H	0.960899	-0.690146	-0.612951
H82	H	0.902017	-0.539188	-0.861226
H83	H	1.102468	-0.329810	-0.971178
H84	H	0.557424	-0.539468	-0.515892
C85	C	0.438923	-0.313373	-0.300076
C86	C	0.354381	-0.313391	-0.300077
C87	C	0.321074	-0.249858	-0.239428
C88	C	0.372310	-0.186305	-0.178778
C89	C	0.456858	-0.186284	-0.178774
C90	C	0.490164	-0.249818	-0.239423
H91	H	0.316448	-0.360439	-0.344976
H92	H	0.258486	-0.249873	-0.239432
H93	H	0.347654	-0.139274	-0.133882
H94	H	0.494790	-0.139237	-0.133875
H95	H	0.552753	-0.249803	-0.239420
C96	C	0.886271	-0.555630	-1.013957
C97	C	0.886287	-0.555615	-1.098495
C98	C	0.825538	-0.619069	-1.149698
C99	C	0.764775	-0.682537	-1.116363
C100	C	0.764757	-0.682555	-1.031821
C101	C	0.825505	-0.619102	-0.980618
H102	H	0.931269	-0.508629	-1.123176
H103	H	0.825552	-0.619055	-1.212282
H104	H	0.719805	-0.729509	-1.154266
H105	H	0.719774	-0.729541	-1.007140
H106	H	0.825492	-0.619115	-0.918034
C107	C	1.118224	-0.313373	-0.818451
C108	C	1.178982	-0.249899	-0.851787
C109	C	1.239731	-0.186444	-0.800585
C110	C	1.239720	-0.186464	-0.716048
C111	C	1.178959	-0.249940	-0.682708
C112	C	1.118211	-0.313395	-0.733909
H113	H	1.178992	-0.249883	-0.914371
H114	H	1.284710	-0.139455	-0.825267
H115	H	1.284690	-0.139490	-0.678146
H116	H	1.178950	-0.249957	-0.620124
H117	H	1.073232	-0.360385	-0.709228
H118	H	0.587024	-0.329865	-0.315828
H119	H	1.039038	-0.778077	-0.378981
H120	H	0.944672	-1.175809	-0.473453
H121	H	1.160400	-0.919385	-0.257862
H122	H	1.136314	-1.090321	-0.282012
H123	H	0.844093	-0.949039	-0.573767
