data_functionalizedCrystal
_audit_creation_method	'MofGen! by Chris Wilmer'
_symmetry_space_group_name_H-M	'P1'
_symmetry_Int_Tables_number	1
_symmetry_cell_setting	triclinic
loop_
_symmetry_equiv_pos_as_xyz
  x,y,z
_cell_length_a	19.288859
_cell_length_b	14.044190
_cell_length_c	17.766277
_cell_angle_alpha	89.989261
_cell_angle_beta	89.989768
_cell_angle_gamma	88.162751
loop_
_atom_site_label
_atom_site_type_symbol
_atom_site_fract_x
_atom_site_fract_y
_atom_site_fract_z
O1	O	0.928952	0.118187	-0.062618
O2	O	0.727716	0.134140	-0.062617
O3	O	0.825311	-0.011809	-0.062602
O4	O	0.831357	0.264135	-0.062632
O5	O	0.825291	-0.011816	0.062586
O6	O	0.727696	0.134132	0.062572
O7	O	0.928932	0.118179	0.062571
Cu8	Cu	0.828313	0.126155	0.074002
Cu9	Cu	0.828335	0.126164	-0.074048
O10	O	0.831338	0.264128	0.062556
C11	C	0.701797	0.133624	-0.000022
C12	C	0.624594	0.132086	-0.000022
C13	C	0.065388	0.207317	-0.000031
C14	C	0.137928	0.208771	-0.000035
C15	C	0.177131	0.123135	-0.000024
C16	C	0.143789	0.036039	-0.000029
C17	C	0.071250	0.034588	-0.000032
C18	C	0.294290	0.059266	0.043845
C19	C	0.366827	0.060720	0.043853
C20	C	0.400865	0.127607	-0.000017
C21	C	0.362355	0.193054	-0.043885
C22	C	0.289817	0.191603	-0.043888
C23	C	0.255788	0.124699	-0.000021
C24	C	0.512855	0.216273	-0.000022
C25	C	0.585396	0.217722	-0.000031
C26	C	0.591255	0.044988	-0.000017
C27	C	0.518715	0.043541	-0.000016
C28	C	0.479519	0.129186	-0.000015
C29	C	0.822656	-0.047115	-0.000006
C30	C	0.814766	-0.152308	0.000001
C31	C	0.856298	-0.402773	-0.000029
C32	C	0.800353	-0.344903	-0.000024
C33	C	0.808375	-0.237733	-0.000010
C34	C	0.848278	-0.509952	-0.000042
C35	C	0.954851	0.118695	-0.000025
C36	C	1.032054	0.120233	-0.000031
C37	C	0.833992	0.299434	-0.000042
C38	C	0.841882	0.404626	-0.000053
N39	N	0.828302	0.126148	0.178132
N40	N	0.828351	0.126163	-0.178178
C41	C	0.871534	0.061554	0.217526
C42	C	0.871538	0.061550	0.296327
C43	C	0.828317	0.126156	0.335733
C44	C	0.785076	0.190755	0.296330
C45	C	0.785068	0.190751	0.217530
C46	C	0.824567	0.212499	0.460562
C47	C	0.824580	0.212504	0.539360
C48	C	0.828336	0.126167	0.578779
C49	C	0.832095	0.039822	0.539389
C50	C	0.832087	0.039818	0.460589
C51	C	0.828320	0.126167	0.421179
C52	C	0.871575	0.061563	0.703618
C53	C	0.871574	0.061557	0.782422
C54	C	0.785116	0.190771	0.782423
C55	C	0.785113	0.190768	0.703621
C56	C	0.828346	0.126165	0.664224
H57	H	0.165074	0.279687	-0.000027
H58	H	0.910214	-0.371831	-0.000021
H59	H	0.906744	0.008947	0.328407
O60	O	0.736010	-0.381763	-0.000157
C61	C	0.626808	-0.392399	-0.064979
C62	C	0.699658	-0.350606	-0.064935
H63	H	0.597391	-0.367209	-0.117338
H64	H	0.631670	-0.473514	-0.065035
H65	H	0.597413	-0.367361	-0.012558
H66	H	0.729093	-0.375571	-0.117346
H67	H	0.694746	-0.269496	-0.064839
O68	O	0.913544	-0.001298	0.179373
C69	C	0.999329	-0.129417	0.187692
C70	C	0.951778	-0.058303	0.230995
H71	H	1.030264	-0.175511	0.229409
H72	H	0.966446	-0.176724	0.150841
H73	H	1.036519	-0.088610	0.150758
H74	H	0.914580	-0.099033	0.267970
H75	H	0.984705	-0.010997	0.267798
H76	H	0.612535	0.288640	-0.000037
H77	H	0.835145	-0.030488	0.428521
O78	O	0.835620	-0.044038	0.577699
C79	C	0.780348	-0.146518	0.666722
C80	C	0.776255	-0.051531	0.623370
H81	H	0.732365	-0.152598	0.703669
H82	H	0.782990	-0.208261	0.625062
H83	H	0.828754	-0.148987	0.703568
H84	H	0.727854	-0.048968	0.586522
H85	H	0.773651	0.010168	0.665070
O86	O	0.913584	-0.001288	0.665459
C87	C	0.999365	-0.129413	0.673773
C88	C	0.951813	-0.058301	0.717079
H89	H	1.030296	-0.175513	0.715488
H90	H	0.966481	-0.176713	0.636917
H91	H	1.036557	-0.088603	0.636844
H92	H	0.914613	-0.099033	0.754048
H93	H	0.984740	-0.011002	0.753887
O94	O	0.743053	0.253597	0.179376
C95	C	0.657269	0.381718	0.187693
C96	C	0.704827	0.310609	0.230997
H97	H	0.626340	0.427817	0.229409
H98	H	0.690148	0.429019	0.150806
H99	H	0.620075	0.340905	0.150795
H100	H	0.742029	0.351344	0.267935
H101	H	0.671905	0.263308	0.267836
O102	O	0.181942	-0.047085	-0.000118
C103	C	0.267226	-0.145707	-0.064985
C104	C	0.224073	-0.051521	-0.064964
H105	H	0.301289	-0.149333	-0.117416
H106	H	0.301369	-0.149366	-0.012626
H107	H	0.230925	-0.208186	-0.064949
H108	H	0.260323	0.011011	-0.065027
H109	H	0.189923	-0.047945	-0.117318
O110	O	0.743028	0.253437	0.820657
C111	C	0.625729	0.309427	0.844754
C112	C	0.673316	0.238392	0.801416
H113	H	0.569357	0.297301	0.829202
H114	H	0.633096	0.298336	0.907851
H115	H	0.639513	0.385287	0.829252
H116	H	0.659561	0.162503	0.816855
H117	H	0.665940	0.249566	0.738329
H118	H	0.821524	0.282812	0.571426
H119	H	0.480940	0.286010	-0.000023
O120	O	0.743200	0.253656	0.665386
C121	C	0.712689	0.418577	0.641296
C122	C	0.760216	0.347459	0.684628
H123	H	0.726420	0.494432	0.656849
H124	H	0.720110	0.407564	0.578197
H125	H	0.656311	0.406376	0.656800
H126	H	0.816612	0.359618	0.669187
H127	H	0.752735	0.358490	0.747716
O128	O	0.404260	-0.002725	0.086551
C129	C	0.486988	-0.025147	0.187120
C130	C	0.444624	0.046808	0.138831
H131	H	0.519644	0.014872	0.229390
H132	H	0.450236	-0.073202	0.218523
H133	H	0.522485	-0.070390	0.149152
H134	H	0.409124	0.092115	0.176745
H135	H	0.481416	0.094797	0.107421
O136	O	0.820954	0.296460	0.422391
C137	C	0.813486	0.467737	0.430679
C138	C	0.817587	0.372727	0.473999
H139	H	0.810748	0.529423	0.472385
H140	H	0.861502	0.473942	0.393796
H141	H	0.765117	0.470177	0.393775
H142	H	0.865926	0.370222	0.510944
H143	H	0.769538	0.366562	0.510834
O144	O	0.743055	0.253384	0.334689
C145	C	0.649454	0.273888	0.423651
C146	C	0.697012	0.202859	0.380271
H147	H	0.612206	0.233067	0.460503
H148	H	0.682331	0.321115	0.460574
H149	H	0.618583	0.320077	0.381943
H150	H	0.727891	0.156608	0.421925
H151	H	0.664095	0.155699	0.343337
O152	O	0.629297	-0.038226	-0.000141
C153	C	0.656477	-0.185433	-0.064964
C154	C	0.613362	-0.091215	-0.064923
H155	H	0.643599	-0.228310	-0.117327
H156	H	0.714060	-0.169496	-0.065013
H157	H	0.643657	-0.228272	-0.012547
H158	H	0.626123	-0.048329	-0.117331
H159	H	0.555791	-0.107219	-0.064835
O160	O	0.027420	0.290597	-0.000069
C161	C	0.029267	0.462075	-0.000032
C162	C	0.072352	0.367833	-0.000004
H163	H	0.065577	0.524545	0.000037
H164	H	-0.004812	0.465790	-0.052438
H165	H	-0.004869	0.465655	0.052344
H166	H	0.106528	0.364190	-0.052345
H167	H	0.106386	0.364157	0.052437
H168	H	0.258465	0.244892	-0.079608
H169	H	0.390067	0.247522	-0.079606
H170	H	0.491574	-0.027372	-0.000012
H171	H	0.044110	-0.036328	-0.000033
O172	O	0.261339	-0.005750	0.086531
C173	C	0.273431	-0.136889	0.173522
C174	C	0.310835	-0.063297	0.125234
H175	H	0.313433	-0.183448	0.204814
H176	H	0.238148	-0.098303	0.215888
H177	H	0.241017	-0.183440	0.135565
H178	H	0.343286	-0.016725	0.163132
H179	H	0.346077	-0.101943	0.082862
H180	H	0.906776	0.008952	0.814496
