data_functionalizedCrystal
_audit_creation_method	'MofGen! by Chris Wilmer'
_symmetry_space_group_name_H-M	'P1'
_symmetry_Int_Tables_number	1
_symmetry_cell_setting	triclinic
loop_
_symmetry_equiv_pos_as_xyz
  x,y,z
_cell_length_a	16.625546
_cell_length_b	16.625548
_cell_length_c	12.759393
_cell_angle_alpha	90.022328
_cell_angle_beta	89.963602
_cell_angle_gamma	89.977673
loop_
_atom_site_label
_atom_site_type_symbol
_atom_site_fract_x
_atom_site_fract_y
_atom_site_fract_z
Zn1	Zn	-0.320955	-1.232680	-0.594086
Zn2	Zn	0.179045	-0.732680	-0.094086
Zn3	Zn	-0.455813	-1.232584	-0.418392
Zn4	Zn	0.044187	-0.732584	0.081608
Zn5	Zn	-0.320997	-1.097842	-0.418410
Zn6	Zn	0.179003	-0.597842	0.081590
Zn7	Zn	-0.455749	-1.097813	-0.594018
Zn8	Zn	0.044251	-0.597813	-0.094018
O9	O	-0.388379	-1.165230	-0.506227
O10	O	0.111621	-0.665230	-0.006227
O11	O	-0.338853	-1.345500	-0.570801
O12	O	0.161147	-0.845500	-0.070801
O13	O	-0.437973	-1.214682	-0.271373
O14	O	0.062027	-0.714682	0.228627
O15	O	-0.208159	-1.115782	-0.441750
O16	O	0.291841	-0.615782	0.058250
O17	O	-0.437932	-1.345429	-0.441719
O18	O	0.062068	-0.845429	0.058281
O19	O	-0.208129	-1.214847	-0.570819
O20	O	0.291871	-0.714847	-0.070819
O21	O	-0.338925	-1.115688	-0.271387
O22	O	0.161075	-0.615688	0.228613
O23	O	-0.338864	-0.985006	-0.441685
O24	O	0.161136	-0.485006	0.058315
O25	O	-0.437825	-1.115731	-0.741049
O26	O	0.062175	-0.615731	-0.241049
O27	O	-0.437865	-0.984984	-0.570703
O28	O	0.062135	-0.484984	-0.070703
O29	O	-0.338792	-1.214818	-0.741098
O30	O	0.161208	-0.714818	-0.241098
O31	O	-0.568637	-1.214653	-0.441653
O32	O	-0.068637	-0.714653	0.058347
O33	O	-0.568590	-1.115637	-0.570685
O34	O	-0.068590	-0.615637	-0.070685
C35	C	-0.388363	-0.955739	-0.506189
C36	C	0.111637	-0.455739	-0.006189
C37	C	-0.388375	-0.866118	-0.506198
C38	C	0.111625	-0.366118	-0.006198
C39	C	-0.388374	-0.537942	-0.506229
C40	C	0.111626	-0.037942	-0.006229
C41	C	-0.388372	-0.629251	-0.506217
C42	C	0.111628	-0.129251	-0.006217
C43	C	-0.388375	-0.702027	-0.506213
C44	C	0.111625	-0.202027	-0.006213
C45	C	-0.388372	-0.793341	-0.506202
C46	C	0.111628	-0.293341	-0.006202
C47	C	-0.597870	-1.165153	-0.506183
C48	C	-0.097870	-0.665153	-0.006183
C49	C	-0.687491	-1.165194	-0.506199
C50	C	-0.187491	-0.665194	-0.006199
C51	C	-1.015666	-1.165335	-0.506309
C52	C	-0.515666	-0.665335	-0.006309
C53	C	-0.924358	-1.165293	-0.506281
C54	C	-0.424358	-0.665293	-0.006281
C55	C	-0.851581	-1.165264	-0.506253
C56	C	-0.351581	-0.665264	-0.006253
C57	C	-0.760267	-1.165224	-0.506227
C58	C	-0.260267	-0.665224	-0.006227
C59	C	-0.178070	-1.165328	-0.506294
C60	C	0.321930	-0.665328	-0.006294
C61	C	-0.088449	-1.165370	-0.506323
C62	C	0.411551	-0.665370	-0.006323
C63	C	-0.388297	-1.165282	-0.780260
C64	C	0.111703	-0.665282	-0.280260
C65	C	-0.388262	-1.165304	-0.897037
C66	C	0.111738	-0.665304	-0.397037
C67	C	-0.388390	-0.375539	-0.506255
C68	C	0.111610	0.124461	-0.006255
C69	C	-0.388381	-0.465160	-0.506241
C70	C	0.111619	0.034840	-0.006241
C71	C	-0.336678	-1.113780	-0.951912
C72	C	0.163322	-0.613780	-0.451912
C73	C	-0.336654	-1.113804	-1.061636
C74	C	0.163346	-0.613804	-0.561636
C75	C	-0.439800	-1.216884	-1.061601
C76	C	0.060200	-0.716884	-0.561601
C77	C	-0.439827	-1.216855	-0.951878
C78	C	0.060173	-0.716855	-0.451878
C79	C	-0.285112	-1.062229	-0.897071
C80	C	0.214888	-0.562229	-0.397071
C81	C	-0.233523	-1.010701	-0.951946
C82	C	0.266477	-0.510701	-0.451946
C83	C	-0.233499	-1.010726	-1.061670
C84	C	0.266501	-0.510726	-0.561670
C85	C	-0.285064	-1.062278	-1.116519
C86	C	0.214936	-0.562278	-0.616519
C87	C	-0.388402	-1.165224	-0.233259
C88	C	0.111598	-0.665224	0.266741
C89	C	-0.388210	-1.165358	-0.116483
C90	C	0.111790	-0.665358	0.383517
H91	H	-0.285124	-1.062205	-0.807728
H92	H	0.214876	-0.562205	-0.307728
H93	H	-0.481779	-1.258858	-1.106267
H94	H	0.018221	-0.758858	-0.606267
N95	N	-0.177869	-0.955146	-1.120860
N96	N	0.322131	-0.455146	-0.620860
H97	H	-0.145210	-0.922486	-1.069465
H98	H	0.354790	-0.422486	-0.569465
H99	H	-0.140549	-0.987996	-1.166406
H100	H	0.359451	-0.487996	-0.666406
H101	H	-0.285042	-1.062292	-1.205864
H102	H	0.214958	-0.562292	-0.705864
N103	N	-0.177917	-0.955094	-0.892796
N104	N	0.322083	-0.455094	-0.392796
H105	H	-0.185757	-0.962896	-0.814960
H106	H	0.314243	-0.462896	-0.314960
H107	H	-0.120328	-0.967676	-0.912003
H108	H	0.379672	-0.467676	-0.412003
N109	N	-0.495467	-1.272425	-0.892687
N110	N	0.004533	-0.772425	-0.392687
H111	H	-0.528124	-1.305088	-0.944081
H112	H	-0.028124	-0.805088	-0.444081
H113	H	-0.462664	-1.309744	-0.847176
H114	H	0.037336	-0.809744	-0.347176
