data_functionalizedCrystal
_audit_creation_method	'MofGen! by Chris Wilmer'
_symmetry_space_group_name_H-M	'P1'
_symmetry_Int_Tables_number	1
_symmetry_cell_setting	triclinic
loop_
_symmetry_equiv_pos_as_xyz
  x,y,z
_cell_length_a	12.759399
_cell_length_b	12.759401
_cell_length_c	12.759393
_cell_angle_alpha	89.979062
_cell_angle_beta	90.030906
_cell_angle_gamma	89.983359
loop_
_atom_site_label
_atom_site_type_symbol
_atom_site_fract_x
_atom_site_fract_y
_atom_site_fract_z
Zn1	Zn	-0.418173	-1.606263	0.594017
Zn2	Zn	-0.593888	-1.606153	0.418336
Zn3	Zn	-0.418229	-1.430562	0.418352
Zn4	Zn	-0.593815	-1.430553	0.593973
O5	O	-0.506026	-1.518383	0.506170
O6	O	-0.441489	-1.753270	0.570724
O7	O	-0.570641	-1.582818	0.271317
O8	O	-0.271200	-1.453919	0.441680
O9	O	-0.570587	-1.753189	0.441652
O10	O	-0.271159	-1.583006	0.570740
O11	O	-0.441584	-1.453812	0.271329
O12	O	-0.441513	-1.283540	0.441637
O13	O	-0.570461	-1.453903	0.741000
O14	O	-0.570516	-1.283533	0.570665
O15	O	-0.441418	-1.582997	0.741032
O16	O	-0.740900	-1.582809	0.441609
O17	O	-0.740846	-1.453796	0.570649
C18	C	-0.506013	-1.245415	0.506149
C19	C	-0.506033	-1.128639	0.506165
C20	C	-0.778994	-1.518318	0.506146
C21	C	-0.895770	-1.518387	0.506171
C22	C	-0.505925	-1.518461	0.780203
C23	C	-0.505882	-1.518495	0.896980
C24	C	-0.950625	-1.585641	0.439056
C25	C	-1.060349	-1.585708	0.439091
C26	C	-1.060353	-1.451259	0.573359
C27	C	-0.950631	-1.451198	0.573328
C28	C	-1.210225	-1.709717	0.401704
C29	C	-1.265084	-1.776961	0.334573
C30	C	-1.229543	-1.793124	0.232062
C31	C	-1.139145	-1.742027	0.196662
C32	C	-1.084292	-1.674775	0.263788
C33	C	-1.119831	-1.658632	0.366313
C34	C	-0.800754	-1.327188	0.610705
C35	C	-0.745899	-1.259930	0.677826
C36	C	-0.781437	-1.243756	0.780338
C37	C	-0.871838	-1.294835	0.815734
C38	C	-0.926694	-1.362093	0.748613
C39	C	-0.891147	-1.378268	0.646102
C40	C	-0.231993	-1.518476	0.506217
C41	C	-0.115216	-1.518516	0.506237
C42	C	-0.506040	-1.792416	0.506191
C43	C	-0.506046	-1.909193	0.506200
C44	C	-0.573307	-1.073801	0.573244
C45	C	-0.573311	-0.964077	0.573265
C46	C	-0.438764	-0.964038	0.439118
C47	C	-0.438756	-1.073760	0.439104
C48	C	-0.506051	-1.518365	0.233202
C49	C	-0.505798	-1.518535	0.116426
C50	C	-0.438679	-1.585719	0.951860
C51	C	-0.438633	-1.585737	1.061584
C52	C	-0.573004	-1.451303	1.061538
C53	C	-0.573044	-1.451281	0.951816
H54	H	-0.905960	-1.640352	0.384374
C55	C	-0.646896	-1.377395	1.121869
C56	C	-0.766336	-1.385941	1.106757
C57	C	-0.840236	-1.312041	1.167090
C58	C	-0.794697	-1.229595	1.242534
C59	C	-0.675251	-1.221045	1.257649
C60	C	-0.601350	-1.294945	1.197316
H61	H	-0.800053	-1.446976	1.050906
H62	H	-0.928659	-1.318371	1.155900
H63	H	-0.849402	-1.174890	1.287195
H64	H	-0.641534	-1.160010	1.313500
H65	H	-0.512928	-1.288616	1.208506
H66	H	-1.010691	-1.633174	0.234967
H67	H	-1.338685	-1.818565	0.363405
C68	C	-0.364753	-1.134088	0.365306
C69	C	-0.245328	-1.119033	0.374084
C70	C	-0.171327	-1.179360	0.300292
C71	C	-0.216750	-1.254743	0.217722
C72	C	-0.336182	-1.269801	0.208941
C73	C	-0.410183	-1.209474	0.282733
H74	H	-0.211697	-1.063228	0.435210
H75	H	-0.082915	-1.168213	0.306793
H76	H	-0.161970	-1.299400	0.163097
H77	H	-0.369813	-1.325607	0.147815
H78	H	-0.498594	-1.220622	0.276232
H79	H	-1.110222	-1.755184	0.113184
H80	H	-0.383908	-1.640476	1.106263
H81	H	-0.627768	-1.396532	0.907131
C82	C	-0.910936	-1.277053	0.928501
C83	C	-1.010372	-1.333238	0.967436
C84	C	-1.049468	-1.315451	1.080204
C85	C	-0.989128	-1.241479	1.154038
C86	C	-0.889686	-1.185288	1.115104
C87	C	-0.850590	-1.203075	1.002336
H88	H	-1.055045	-1.388002	0.912778
H89	H	-1.123082	-1.357047	1.109024
H90	H	-1.018070	-1.228311	1.237515
H91	H	-0.845014	-1.130525	1.169762
H92	H	-0.776976	-1.161479	0.973516
H93	H	-0.383989	-1.640446	0.907216
H94	H	-1.274216	-1.847877	0.177404
H95	H	-1.239164	-1.696573	0.485179
H96	H	-1.105035	-1.396555	0.628034
H97	H	-1.000300	-1.403688	0.777443
H98	H	-0.672285	-1.218345	0.649000
C99	C	-0.721101	-1.169766	0.854173
C100	C	-0.706778	-1.053614	0.824664
C101	C	-0.646447	-0.979629	0.898501
C102	C	-0.600439	-1.021796	1.001849
C103	C	-0.614760	-1.137954	1.031364
C104	C	-0.675091	-1.211939	0.957526
H105	H	-0.740838	-1.022395	0.748155
H106	H	-0.635846	-0.893642	0.876652
H107	H	-0.555778	-0.967028	1.056508
H108	H	-0.580701	-1.169173	1.107872
H109	H	-0.685692	-1.297926	0.979375
C110	C	-0.647317	-0.903756	0.647051
C111	C	-0.766741	-0.918810	0.638260
C112	C	-0.840749	-0.858490	0.712051
C113	C	-0.795333	-0.783116	0.794633
C114	C	-0.675903	-0.768059	0.803427
C115	C	-0.601895	-0.828379	0.729636
H116	H	-0.800366	-0.974608	0.577124
H117	H	-0.929160	-0.869636	0.705540
H118	H	-0.850119	-0.738464	0.849257
H119	H	-0.642278	-0.712261	0.864563
H120	H	-0.513484	-0.817233	0.736147
H121	H	-0.771804	-1.340359	0.527233
H122	H	-0.628086	-1.118479	0.627852
H123	H	-0.383991	-0.919343	0.384518
