data_functionalizedCrystal
_audit_creation_method	'MofGen! by Chris Wilmer'
_symmetry_space_group_name_H-M	'P1'
_symmetry_Int_Tables_number	1
_symmetry_cell_setting	triclinic
loop_
_symmetry_equiv_pos_as_xyz
  x,y,z
_cell_length_a	11.169417
_cell_length_b	16.625539
_cell_length_c	11.169416
_cell_angle_alpha	89.976662
_cell_angle_beta	90.011398
_cell_angle_gamma	89.983071
loop_
_atom_site_label
_atom_site_type_symbol
_atom_site_fract_x
_atom_site_fract_y
_atom_site_fract_z
Zn1	Zn	1.834933	-0.455859	-0.477765
Zn2	Zn	2.168267	-0.122526	-0.144432
Zn3	Zn	2.501600	0.210808	0.188902
Zn4	Zn	1.834832	-0.321038	-0.678477
Zn5	Zn	2.168166	0.012296	-0.345144
Zn6	Zn	2.501499	0.345629	-0.011811
Zn7	Zn	1.634228	-0.321048	-0.477811
Zn8	Zn	1.967562	0.012285	-0.144478
Zn9	Zn	2.300895	0.345619	0.188855
Zn10	Zn	1.634227	-0.455836	-0.678409
Zn11	Zn	1.967561	-0.122503	-0.345076
Zn12	Zn	2.300894	0.210830	-0.011742
O13	O	1.734555	-0.388445	-0.578116
O14	O	2.067889	-0.055112	-0.244782
O15	O	2.401222	0.278221	0.088551
O16	O	2.002870	-0.437980	-0.504399
O17	O	2.336203	-0.104646	-0.171066
O18	O	2.669536	0.228687	0.162268
O19	O	1.808180	-0.208207	-0.651907
O20	O	2.141513	0.125127	-0.318573
O21	O	2.474847	0.458460	0.014760
O22	O	1.660895	-0.338945	-0.309856
O23	O	1.994228	-0.005611	0.023478
O24	O	2.327561	0.327722	0.356811
O25	O	2.002795	-0.338927	-0.651862
O26	O	2.336129	-0.005594	-0.318528
O27	O	2.669462	0.327739	0.014805
O28	O	1.808352	-0.437990	-0.309821
O29	O	2.141685	-0.104656	0.023512
O30	O	2.475019	0.228677	0.356845
O31	O	1.660797	-0.208214	-0.504478
O32	O	1.994130	0.125119	-0.171145
O33	O	2.327464	0.458452	0.162189
O34	O	1.466278	-0.338923	-0.504412
O35	O	1.799612	-0.005589	-0.171079
O36	O	2.132945	0.327744	0.162255
O37	O	1.660893	-0.568672	-0.651745
O38	O	1.994227	-0.235338	-0.318412
O39	O	2.327560	0.097995	0.014921
O40	O	1.466278	-0.437951	-0.651790
O41	O	1.799611	-0.104618	-0.318457
O42	O	2.132944	0.228716	0.014876
O43	O	1.808351	-0.568688	-0.504333
O44	O	2.141684	-0.235355	-0.171000
O45	O	2.475018	0.097978	0.162334
O46	O	1.808179	-0.338905	-0.846418
O47	O	2.141512	-0.005572	-0.513085
O48	O	2.474846	0.327761	-0.179751
O49	O	1.660795	-0.437941	-0.846368
O50	O	1.994129	-0.104608	-0.513035
O51	O	2.327462	0.228725	-0.179701
C52	C	1.422731	-0.388436	-0.578100
C53	C	1.756064	-0.055103	-0.244766
C54	C	2.089397	0.278231	0.088567
C55	C	1.289331	-0.388451	-0.578122
C56	C	1.622664	-0.055118	-0.244788
C57	C	1.955997	0.278215	0.088545
C58	C	1.734633	-0.598754	-0.578026
C59	C	2.067967	-0.265421	-0.244693
C60	C	2.401300	0.067912	0.088640
C61	C	1.734667	-0.688375	-0.577988
C62	C	2.068000	-0.355042	-0.244655
C63	C	2.401333	-0.021709	0.088678
C64	C	1.734722	-1.016551	-0.577854
C65	C	2.068055	-0.683218	-0.244520
C66	C	2.401389	-0.349885	0.088813
C67	C	1.734703	-0.925243	-0.577895
C68	C	2.068036	-0.591909	-0.244562
C69	C	2.401370	-0.258576	0.088772
C70	C	1.734695	-0.852466	-0.577922
C71	C	2.068028	-0.519133	-0.244589
C72	C	2.401362	-0.185800	0.088745
C73	C	1.734675	-0.761152	-0.577961
C74	C	2.068008	-0.427819	-0.244628
C75	C	2.401342	-0.094485	0.088705
C76	C	2.047598	-0.388455	-0.578133
C77	C	2.380931	-0.055122	-0.244800
C78	C	2.714264	0.278212	0.088534
C79	C	2.180998	-0.388459	-0.578140
C80	C	2.514331	-0.055126	-0.244807
C81	C	2.847664	0.278208	0.088527
C82	C	1.734509	-0.388437	-0.889940
C83	C	2.067842	-0.055104	-0.556607
C84	C	2.401175	0.278229	-0.223274
C85	C	1.734599	-0.388461	-1.023340
C86	C	2.067932	-0.055128	-0.690007
C87	C	2.401265	0.278206	-0.356674
C88	C	1.734547	-0.178954	-0.578118
C89	C	2.067880	0.154379	-0.244785
C90	C	2.401213	0.487712	0.088548
C91	C	1.734746	-0.089334	-0.577818
C92	C	2.068079	0.244000	-0.244485
C93	C	2.401413	0.577333	0.088848
C94	C	1.734635	-0.388471	-0.265073
C95	C	2.067968	-0.055138	0.068260
C96	C	2.401301	0.278196	0.401593
C97	C	1.734669	-0.388482	-0.131673
C98	C	2.068002	-0.055148	0.201660
C99	C	2.401335	0.278185	0.534993
