data_functionalizedCrystal
_audit_creation_method	'MofGen! by Chris Wilmer'
_symmetry_space_group_name_H-M	'P1'
_symmetry_Int_Tables_number	1
_symmetry_cell_setting	triclinic
loop_
_symmetry_equiv_pos_as_xyz
  x,y,z
_cell_length_a	14.908979
_cell_length_b	14.908968
_cell_length_c	19.805407
_cell_angle_alpha	86.697368
_cell_angle_beta	86.714368
_cell_angle_gamma	89.788607
loop_
_atom_site_label
_atom_site_type_symbol
_atom_site_fract_x
_atom_site_fract_y
_atom_site_fract_z
Zn1	Zn	1.395190	0.278689	0.310335
Zn2	Zn	1.895190	0.778689	0.810335
Zn3	Zn	1.403799	0.429014	0.190283
Zn4	Zn	1.903799	0.929014	0.690283
Zn5	Zn	1.244858	0.287362	0.203288
Zn6	Zn	1.744858	0.787362	0.703288
Zn7	Zn	1.253478	0.437688	0.309557
Zn8	Zn	1.753478	0.937688	0.809557
O9	O	1.324331	0.358188	0.253366
O10	O	1.824331	0.858188	0.753366
O11	O	1.522156	0.291371	0.289293
O12	O	2.022156	0.791371	0.789293
O13	O	1.382711	0.410223	0.097292
O14	O	1.882711	0.910223	0.597292
O15	O	1.257589	0.160388	0.223256
O16	O	1.757589	0.660388	0.723256
O17	O	1.528481	0.401814	0.201091
O18	O	2.028481	0.901814	0.701091
O19	O	1.368037	0.154016	0.301904
O20	O	1.868037	0.654016	0.801904
O21	O	1.265938	0.306152	0.106846
O22	O	1.765938	0.806152	0.606846
O23	O	1.120177	0.314563	0.222502
O24	O	1.620177	0.814563	0.722502
O25	O	1.272281	0.416598	0.404377
O26	O	1.772281	0.916598	0.904377
O27	O	1.126510	0.425007	0.300577
O28	O	1.626510	0.925007	0.800577
O29	O	1.376396	0.299782	0.404948
O30	O	1.876396	0.799782	0.904948
O31	O	1.391069	0.555989	0.200336
O32	O	1.891069	1.055989	0.700336
O33	O	1.280629	0.562361	0.287967
O34	O	1.780629	1.062361	0.787967
C35	C	1.090719	0.371668	0.262867
C36	C	1.590719	0.871668	0.762867
C37	C	0.990780	0.377456	0.266946
C38	C	1.490780	0.877456	0.766946
C39	C	0.853246	0.443204	0.313264
C40	C	1.353246	0.943204	0.813264
C41	C	0.947148	0.437766	0.309437
C42	C	1.447148	0.937766	0.809437
C43	C	0.940503	0.322582	0.228279
C44	C	1.440503	0.822582	0.728279
C45	C	0.846601	0.328020	0.232106
C46	C	1.346601	0.828020	0.732106
C47	C	0.802976	0.388332	0.274601
C48	C	1.302976	0.888332	0.774601
C49	C	0.709073	0.393765	0.278431
C50	C	1.209073	0.893765	0.778431
C51	C	0.702430	0.278586	0.197270
C52	C	1.202430	0.778586	0.697270
C53	C	0.796331	0.273148	0.193443
C54	C	1.296331	0.773148	0.693443
C55	C	1.337743	0.591798	0.242670
C56	C	1.837743	1.091798	0.742670
C57	C	1.343563	0.691733	0.238113
C58	C	1.843563	1.191733	0.738113
C59	C	1.409303	0.829236	0.186105
C60	C	1.909303	1.329236	0.686105
C61	C	1.403840	0.735338	0.190384
C62	C	1.903840	1.235338	0.690384
C63	C	1.288744	0.742032	0.281566
C64	C	1.788744	1.242032	0.781566
C65	C	1.294208	0.835930	0.277287
C66	C	1.794208	1.335930	0.777287
C67	C	1.354490	0.879528	0.229556
C68	C	1.854490	1.379528	0.729556
C69	C	1.359958	0.973427	0.225281
C70	C	1.859958	1.473427	0.725281
C71	C	1.244859	0.980120	0.316459
C72	C	1.744859	1.480120	0.816459
C73	C	1.239395	0.886222	0.320738
C74	C	1.739395	1.386222	0.820738
C75	C	1.558856	0.344657	0.243828
C76	C	2.058856	0.844657	0.743828
C77	C	1.658796	0.338891	0.239764
C78	C	2.158796	0.838891	0.739764
C79	C	1.324339	0.358190	0.429908
C80	C	1.824339	0.858190	0.929908
C81	C	1.324343	0.358190	0.505140
C82	C	1.824343	0.858190	1.005140
C83	C	1.310885	1.123665	0.264126
C84	C	1.810885	1.623665	0.764126
C85	C	1.305139	1.023727	0.268734
C86	C	1.805139	1.523727	0.768734
C87	C	1.378549	0.297374	0.540783
C88	C	1.878549	0.797374	1.040783
C89	C	1.378541	0.297371	0.611472
C90	C	1.878541	0.797371	1.111472
C91	C	1.324331	0.358191	0.646516
C92	C	1.824331	0.858191	1.146516
C93	C	1.270119	0.419010	0.610868
C94	C	1.770119	0.919010	1.110868
C95	C	1.270123	0.419008	0.540181
C96	C	1.770123	0.919008	1.040181
C97	C	1.270102	0.419022	0.895942
C98	C	1.770102	0.919022	1.395942
C99	C	1.270104	0.419022	0.966634
C100	C	1.770104	0.919022	1.466634
C101	C	1.378520	0.297385	0.967232
C102	C	1.878520	0.797385	1.467232
C103	C	1.378524	0.297383	0.896545
C104	C	1.878524	0.797383	1.396545
C105	C	1.324308	0.358199	0.860904
C106	C	1.824308	0.858199	1.360904
C107	C	1.324316	0.358199	0.784255
C108	C	1.824316	0.858199	1.284255
C109	C	1.324327	0.358195	0.723163
C110	C	1.824327	0.858195	1.223163
C111	C	1.324316	0.358206	1.077510
C112	C	1.824316	0.858206	1.577510
C113	C	1.324306	0.358200	1.002278
C114	C	1.824306	0.858200	1.502278
H115	H	1.409046	1.008923	0.186418
H116	H	1.909046	1.508923	0.686418
H117	H	1.422683	0.247850	0.640489
H118	H	1.922683	0.747850	1.140489
O119	O	0.843392	0.208106	0.147609
O120	O	1.343392	0.708106	0.647609
H121	H	0.792658	0.170869	0.121363
H122	H	1.292658	0.670869	0.621363
O123	O	1.223728	0.694995	0.333039
O124	O	1.723728	1.194995	0.833039
H125	H	1.186523	0.745740	0.362534
H126	H	1.686523	1.245740	0.862534
H127	H	0.817726	0.492304	0.347871
H128	H	1.317726	0.992304	0.847871
H129	H	1.458395	0.864733	0.147246
H130	H	1.958395	1.364733	0.647246
H131	H	0.661490	0.233902	0.165790
H132	H	1.161490	0.733902	0.665790
O133	O	1.462968	0.681087	0.143528
O134	O	1.962968	1.181087	0.643528
H135	H	1.448665	0.700036	0.090196
H136	H	1.948665	1.200036	0.590196
H137	H	1.422661	0.247863	0.996260
H138	H	1.922661	0.747863	1.496260
H139	H	1.422670	0.247860	0.868015
H140	H	1.922670	0.747860	1.368015
O141	O	1.437022	0.231779	0.502984
O142	O	1.937022	0.731779	1.002984
H143	H	1.417552	0.162100	0.520408
H144	H	1.917552	0.662100	1.020408
H145	H	0.976039	0.273486	0.193676
H146	H	1.476039	0.773486	0.693676
H147	H	0.673555	0.442871	0.313035
H148	H	1.173555	0.942871	0.813035
O149	O	1.174376	0.839201	0.372218
O150	O	1.674376	1.339201	0.872218
H151	H	1.212091	0.794051	0.406999
H152	H	1.712091	1.294051	0.906999
H153	H	1.225973	0.468523	0.511162
H154	H	1.725973	0.968523	1.011162
O155	O	1.211640	0.484603	0.648664
O156	O	1.711640	0.984603	1.148664
H157	H	1.254499	0.528037	0.677133
H158	H	1.754499	1.028037	1.177133
H159	H	1.200229	1.021078	0.351842
H160	H	1.700229	1.521078	0.851842
O161	O	1.211622	0.484613	1.004437
O162	O	1.711622	0.984613	1.504437
H163	H	1.173914	0.526895	0.967779
H164	H	1.673914	1.026895	1.467779
O165	O	1.211582	0.484570	0.857507
O166	O	1.711582	0.984570	1.357507
H167	H	1.173876	0.526849	0.893755
H168	H	1.673876	1.026849	1.393755
O169	O	1.001372	0.496941	0.351142
O170	O	1.501372	0.996941	0.851142
H171	H	0.955257	0.539785	0.381337
H172	H	1.455257	1.039785	0.881337
