data_functionalizedCrystal
_audit_creation_method	'MofGen! by Chris Wilmer'
_symmetry_space_group_name_H-M	'P1'
_symmetry_Int_Tables_number	1
_symmetry_cell_setting	triclinic
loop_
_symmetry_equiv_pos_as_xyz
  x,y,z
_cell_length_a	9.798715
_cell_length_b	10.723024
_cell_length_c	10.723024
_cell_angle_alpha	84.467869
_cell_angle_beta	90.005403
_cell_angle_gamma	89.999966
loop_
_atom_site_label
_atom_site_type_symbol
_atom_site_fract_x
_atom_site_fract_y
_atom_site_fract_z
O1	O	-0.113478	-1.657180	-0.175031
O2	O	-0.113483	-1.294028	-0.191785
O3	O	-0.113475	-1.483981	-0.001832
O4	O	-0.113486	-1.467228	-0.364984
O5	O	0.113507	-1.483980	-0.001818
O6	O	0.113499	-1.294028	-0.191770
O7	O	0.113504	-1.657180	-0.175017
Zn8	Zn	0.149540	-1.475604	-0.183391
Zn9	Zn	-0.149519	-1.475604	-0.183410
O10	O	0.113496	-1.467227	-0.364970
C11	C	0.000008	-1.247528	-0.190558
C12	C	0.000006	-1.108974	-0.186911
N13	N	-0.353619	-1.475606	-0.183414
C14	C	0.000014	-1.482762	0.044675
C15	C	0.000009	-1.479114	0.183229
C16	C	-0.421392	-1.555535	-0.103480
C17	C	-0.578555	-1.555540	-0.103460
N18	N	0.353640	-1.475612	-0.183378
C19	C	0.000010	-1.703680	-0.176243
C20	C	0.000003	-1.842234	-0.179891
C21	C	0.000002	-1.033991	-0.293198
C22	C	0.000001	-0.890788	-0.289431
C23	C	0.000004	-1.468447	-0.411477
C24	C	-0.000000	-1.472094	-0.550031
C25	C	0.000009	-1.585401	0.258212
C26	C	0.000004	-1.581634	0.401415
H27	H	-0.363067	-1.623969	-0.035064
H28	H	-0.000002	-0.906659	-0.088896
C29	C	-0.657280	-1.647992	-0.011003
C30	C	-0.814436	-1.647874	-0.011124
C31	C	-0.893164	-1.740329	0.081336
C32	C	-0.814736	-1.832903	0.173918
C33	C	-0.657571	-1.833024	0.174043
C34	C	-0.578843	-1.740568	0.081583
H35	H	-0.872502	-1.579343	-0.079662
H36	H	-1.009509	-1.740239	0.081243
H37	H	-0.873015	-1.901344	0.242363
H38	H	-0.599506	-1.901555	0.242581
H39	H	-0.462498	-1.740658	0.081676
H40	H	0.000018	-1.679187	0.216390
C41	C	-0.432401	-1.383158	-0.275851
C42	C	-0.530658	-1.287381	-0.226149
C43	C	-0.609436	-1.194930	-0.318590
C44	C	-0.589959	-1.198256	-0.460731
C45	C	-0.491698	-1.294037	-0.510440
C46	C	-0.412920	-1.386488	-0.418000
H47	H	-0.545080	-1.284915	-0.120921
H48	H	-0.682175	-1.124027	-0.281791
H49	H	-0.648276	-1.129819	-0.529161
H50	H	-0.477276	-1.296503	-0.615668
H51	H	-0.340181	-1.457391	-0.454798
H52	H	-0.588087	-1.407173	-0.251812
C53	C	-0.000010	-1.090481	-0.419903
C54	C	0.117849	-1.176216	-0.453371
C55	C	0.117832	-1.232703	-0.580079
C56	C	-0.000044	-1.203455	-0.673318
C57	C	-0.117911	-1.117716	-0.639852
C58	C	-0.117895	-1.061228	-0.513144
H59	H	0.205115	-1.197871	-0.384348
H60	H	0.205086	-1.296174	-0.604852
H61	H	-0.000056	-1.245271	-0.767114
H62	H	-0.205178	-1.096061	-0.708875
H63	H	-0.205149	-0.997758	-0.488371
H64	H	0.000010	-1.381099	0.385544
H65	H	-0.000008	-0.826355	-0.380421
C66	C	0.000009	-1.052490	-0.060204
C67	C	0.117877	-1.081739	0.033043
C68	C	0.117880	-1.025259	0.159754
C69	C	0.000014	-0.939530	0.193219
C70	C	-0.117863	-0.910276	0.099971
C71	C	-0.117866	-0.966756	-0.026741
H72	H	0.205137	-1.145205	0.008272
H73	H	0.205142	-1.046915	0.228783
H74	H	0.000017	-0.897720	0.287019
H75	H	-0.205122	-0.846811	0.124741
H76	H	-0.205127	-0.945100	-0.095770
H77	H	0.000009	-1.672624	0.465848
H78	H	-0.000001	-1.385328	0.225051
