data_functionalizedCrystal
_audit_creation_method	'MofGen! by Chris Wilmer'
_symmetry_space_group_name_H-M	'P1'
_symmetry_Int_Tables_number	1
_symmetry_cell_setting	triclinic
loop_
_symmetry_equiv_pos_as_xyz
  x,y,z
_cell_length_a	29.917948
_cell_length_b	29.917021
_cell_length_c	29.913391
_cell_angle_alpha	60.005297
_cell_angle_beta	60.010472
_cell_angle_gamma	59.993667
loop_
_atom_site_label
_atom_site_type_symbol
_atom_site_fract_x
_atom_site_fract_y
_atom_site_fract_z
O1	O	0.061938	-0.653075	0.546110
O2	O	0.023328	-0.508466	0.440017
O3	O	0.114898	-0.599963	0.439941
O4	O	-0.029633	-0.561578	0.546186
O5	O	0.145278	-0.569587	0.470242
O6	O	0.053708	-0.478090	0.470318
O7	O	0.092318	-0.622699	0.576411
Zn8	Zn	0.077836	-0.545572	0.528175
Zn9	Zn	0.037809	-0.585593	0.488253
O10	O	0.000747	-0.531202	0.576487
N11	N	0.105154	-0.518262	0.555424
N12	N	0.010496	-0.612908	0.461004
C13	C	0.164136	-0.309209	0.614352
C14	C	0.164251	-0.459335	0.764424
C15	C	0.164150	-0.459313	0.614341
C16	C	0.314282	-0.459305	0.614278
C17	C	0.180666	-0.358742	0.630849
C18	C	0.180732	-0.442815	0.714891
C19	C	0.264747	-0.442797	0.630809
C20	C	0.180676	-0.442802	0.630843
C21	C	0.143097	-0.246161	0.593354
C22	C	0.143120	-0.480326	0.593337
C23	C	0.201706	-0.421790	0.651848
C24	C	0.405963	-0.443499	0.565998
C25	C	0.463273	-0.462598	0.546874
C26	C	0.463297	-0.555329	0.582235
C27	C	0.405988	-0.536228	0.601360
C28	C	0.156905	-0.217495	0.537012
C29	C	0.137776	-0.160180	0.517926
C30	C	0.091035	-0.160201	0.611524
C31	C	0.110164	-0.217516	0.630611
C32	C	0.086772	-0.466488	0.607209
C33	C	0.067659	-0.485590	0.588108
C34	C	0.161236	-0.532368	0.541277
C35	C	0.180352	-0.513266	0.560371
C36	C	0.086942	-0.466529	0.856152
C37	C	0.067877	-0.485647	0.913465
C38	C	0.161489	-0.532436	0.913415
C39	C	0.180552	-0.513318	0.856101
C40	C	0.143277	-0.480363	0.827471
C41	C	0.377323	-0.480313	0.593239
C42	C	-0.111377	-0.650681	0.422736
C43	C	-0.027364	-0.650787	0.422929
C44	C	-0.048335	-0.671770	0.401835
C45	C	-0.064214	-0.763416	0.450041
C46	C	-0.045160	-0.820731	0.469172
C47	C	0.047573	-0.820841	0.433980
C48	C	0.028517	-0.763527	0.414847
C49	C	-0.140115	-0.664483	0.479060
C50	C	-0.197425	-0.645309	0.498058
C51	C	-0.197256	-0.598535	0.404405
C52	C	-0.139946	-0.617709	0.385407
C53	C	-0.041168	-0.594444	0.409067
C54	C	-0.022104	-0.575374	0.428250
C55	C	0.024568	-0.668986	0.475143
C56	C	0.005504	-0.688059	0.455967
C57	C	-0.041000	-0.594453	0.310105
C58	C	-0.021803	-0.575386	0.252792
C59	C	0.024951	-0.669004	0.252854
C60	C	0.005755	-0.688070	0.310168
C61	C	-0.027222	-0.650793	0.338792
C62	C	-0.027377	-0.734817	0.422881
N63	N	0.491125	-0.518235	0.555255
O64	O	0.678406	-0.527360	0.420422
O65	O	0.678588	-0.633782	0.564887
O66	O	0.678516	-0.633539	0.473265
O67	O	0.678478	-0.527602	0.512044
O68	O	0.587469	-0.603251	0.503685
O69	O	0.587541	-0.603493	0.595307
O70	O	0.587359	-0.497071	0.450842
Zn71	Zn	0.572994	-0.545473	0.527905
Zn72	Zn	0.692953	-0.585380	0.487825
O73	O	0.587431	-0.497313	0.542465
N74	N	0.774821	-0.612618	0.460470
N75	N	0.105125	-0.132348	0.555445
O76	O	-0.029633	0.055031	0.546198
O77	O	0.114837	0.055047	0.439777
O78	O	0.023189	0.055024	0.440050
O79	O	0.062016	0.055054	0.545925
O80	O	0.053572	-0.036031	0.470398
O81	O	0.145220	-0.036008	0.470125
O82	O	0.000750	-0.036024	0.576546
Zn83	Zn	0.077809	-0.050473	0.528154
Zn84	Zn	0.037778	0.069496	0.488169
O85	O	0.092399	-0.036001	0.576273
N86	N	0.010456	0.151371	0.460879
N87	N	0.105414	-0.518315	0.941279
O88	O	0.096182	-0.653057	1.128644
O89	O	-0.010215	-0.508539	1.128670
O90	O	-0.009968	-0.600172	1.128636
O91	O	0.095935	-0.561424	1.128678
O92	O	0.020367	-0.569808	1.037586
O93	O	0.020121	-0.478175	1.037620
O94	O	0.126517	-0.622693	1.037594
Zn95	Zn	0.078135	-0.545613	1.023151
Zn96	Zn	0.038167	-0.585619	1.143113
O97	O	0.126270	-0.531061	1.037628
N98	N	0.010887	-0.612923	1.224985
C99	C	0.034899	-0.475056	0.440551
C100	C	0.148298	-0.588365	0.440456
C101	C	0.080746	-0.656109	0.575876
C102	C	-0.032653	-0.542801	0.575971
C103	C	0.633086	-0.633292	0.598298
C104	C	0.632998	-0.632993	0.484834
C105	C	0.632857	-0.497559	0.417433
C106	C	0.632949	-0.497860	0.530895
C107	C	0.148191	0.009634	0.440259
C108	C	0.034733	0.009493	0.440634
C109	C	-0.032641	0.009502	0.576027
C110	C	0.080854	0.009529	0.575690
C111	C	-0.009699	-0.475150	1.083148
C112	C	-0.009388	-0.588620	1.083088
C113	C	0.126001	-0.656082	1.083116
C114	C	0.125697	-0.542605	1.083155
H115	H	0.022003	-0.474373	0.936811
H116	H	0.632798	-0.464146	0.375944
C117	C	0.170647	-0.531410	1.083163
C118	C	0.160533	-0.516304	1.130452
C119	C	0.205483	-0.505109	1.130460
C120	C	0.260547	-0.509021	1.083179
C121	C	0.270664	-0.524128	1.035887
C122	C	0.225713	-0.535323	1.035879
H123	H	0.119769	-0.513407	1.165456
H124	H	0.197995	-0.493925	1.165469
H125	H	0.293822	-0.500733	1.083185
H126	H	0.311427	-0.527025	1.000883
H127	H	0.233202	-0.546507	1.000869
C128	C	-0.077324	-0.553443	0.372730
C129	C	-0.055307	-0.512252	0.317475
C130	C	-0.091463	-0.471249	0.281135
C131	C	-0.149636	-0.471437	0.300050
C132	C	-0.171656	-0.512629	0.355308
C133	C	-0.135500	-0.553632	0.391648
H134	H	-0.012241	-0.512112	0.303470
H135	H	-0.075162	-0.440756	0.240230
H136	H	-0.176401	-0.441084	0.273149
H137	H	-0.214722	-0.512769	0.369313
H138	H	-0.151801	-0.584125	0.432553
H139	H	0.633014	-0.666272	0.476534
C140	C	0.632932	-0.452899	0.542101
C141	C	0.585614	-0.397844	0.538234
C142	C	0.585597	-0.352883	0.549439
C143	C	0.632898	-0.362977	0.564512
C144	C	0.680219	-0.418034	0.568380
C145	C	0.680236	-0.462995	0.557174
H146	H	0.550596	-0.390370	0.527075
H147	H	0.550567	-0.312126	0.546576
H148	H	0.632885	-0.329694	0.572807
H149	H	0.715237	-0.425509	0.579539
H150	H	0.715266	-0.503752	0.560038
H151	H	-0.042644	-0.596897	1.083039
C152	C	0.091882	-0.712226	0.620894
C153	C	0.148002	-0.757244	0.609778
C154	C	0.159139	-0.813361	0.654795
C155	C	0.114155	-0.824461	0.710928
C156	C	0.058031	-0.779442	0.722047
C157	C	0.046895	-0.723325	0.677030
H158	H	0.181305	-0.749028	0.568222
H159	H	0.200685	-0.846687	0.646564
H160	H	0.122399	-0.866002	0.744253
H161	H	0.024729	-0.787658	0.763602
H162	H	0.005348	-0.689999	0.685261
H163	H	0.093086	-0.844219	0.427442
C164	C	0.023761	-0.418940	0.395533
C165	C	0.027693	-0.415135	0.340477
C166	C	0.016555	-0.359019	0.295458
C167	C	0.001486	-0.306708	0.305496
C168	C	-0.002446	-0.310511	0.360554
C169	C	0.008691	-0.366627	0.405573
H170	H	0.038849	-0.453860	0.333044
H171	H	0.019466	-0.356204	0.254701
H172	H	-0.006759	-0.265168	0.272170
H173	H	-0.013602	-0.271786	0.367987
H174	H	0.005780	-0.369443	0.446331
C175	C	0.092081	0.009536	0.620628
C176	C	0.088202	-0.037745	0.675700
C177	C	0.099429	-0.037738	0.720638
C178	C	0.114534	0.009552	0.710505
C179	C	0.118413	0.056837	0.655431
C180	C	0.107186	0.056829	0.610493
H181	H	0.077020	-0.072755	0.683203
H182	H	0.096557	-0.072741	0.761408
H183	H	0.122844	0.009557	0.743771
H184	H	0.129595	0.091847	0.647928
H185	H	0.110058	0.091833	0.569723
H186	H	-0.043102	-0.433644	1.083156
C187	C	0.171130	-0.712152	1.083107
C188	C	0.194692	-0.747414	1.130389
C189	C	0.239821	-0.803484	1.130380
C190	C	0.261388	-0.824292	1.083088
C191	C	0.237826	-0.789029	1.035801
C192	C	0.192697	-0.732959	1.035811
H193	H	0.178727	-0.732012	1.165401
H194	H	0.257263	-0.829588	1.165385
H195	H	0.294795	-0.865798	1.083081
H196	H	0.253791	-0.804432	1.000790
H197	H	0.175255	-0.706856	1.000806
C198	C	0.204123	0.009985	0.395006
C199	C	0.249196	0.010171	0.405869
C200	C	0.305128	0.010523	0.360617
C201	C	0.315988	0.010688	0.304502
C202	C	0.270914	0.010502	0.293636
C203	C	0.214982	0.010150	0.338889
H204	H	0.241158	0.010049	0.447412
H205	H	0.338495	0.010661	0.368661
H206	H	0.357393	0.010948	0.271003
H207	H	0.278952	0.010624	0.252094
H208	H	0.181615	0.010013	0.330845
C209	C	0.202195	-0.568607	0.505017
C210	C	0.243453	-0.623888	0.526922
C211	C	0.284409	-0.660125	0.490662
C212	C	0.284108	-0.641081	0.432497
C213	C	0.242850	-0.585797	0.410589
C214	C	0.201893	-0.549560	0.446849
H215	H	0.243676	-0.637988	0.569983
H216	H	0.314951	-0.701050	0.506881
H217	H	0.314427	-0.667905	0.405655
H218	H	0.242626	-0.571696	0.367528
H219	H	0.171351	-0.508635	0.430630
C220	C	0.094974	-0.249046	0.692588
C221	C	0.111670	-0.241169	0.728558
C222	C	0.096477	-0.272700	0.790538
C223	C	0.064588	-0.312108	0.816548
C224	C	0.047890	-0.319987	0.780577
C225	C	0.063083	-0.288456	0.718597
H226	H	0.135278	-0.211995	0.709305
H227	H	0.108839	-0.266867	0.817166
H228	H	0.053341	-0.335449	0.862429
H229	H	0.024282	-0.349161	0.799831
H230	H	0.050721	-0.294288	0.691970
H231	H	0.026418	0.009490	0.407371
C232	C	-0.088690	0.009498	0.621164
C233	C	-0.092386	-0.037781	0.676237
C234	C	-0.148435	-0.037786	0.721375
C235	C	-0.200789	0.009489	0.711439
C236	C	-0.197095	0.056772	0.656364
C237	C	-0.141046	0.056776	0.611226
H238	H	-0.053629	-0.072780	0.683594
H239	H	-0.151169	-0.072788	0.762145
H240	H	-0.242280	0.009486	0.744852
H241	H	-0.235852	0.091771	0.649007
H242	H	-0.138312	0.091778	0.570456
C243	C	0.045936	-0.430276	0.824661
C244	C	-0.016032	-0.415058	0.856211
C245	C	-0.057037	-0.378808	0.824720
C246	C	-0.036073	-0.357777	0.761679
C247	C	0.025899	-0.372995	0.730126
C248	C	0.066903	-0.409244	0.761617
H249	H	-0.031554	-0.430627	0.902881
H250	H	-0.102912	-0.367543	0.848078
H251	H	-0.066426	-0.330943	0.738367
H252	H	0.041421	-0.357426	0.683456
H253	H	0.112779	-0.420510	0.738258
H254	H	0.191844	-0.559260	0.936723
H255	H	0.226428	-0.524588	0.832752
C256	C	0.633154	-0.678430	0.654348
C257	C	0.633195	-0.734510	0.665283
C258	C	0.633262	-0.779648	0.721333
C259	C	0.633288	-0.768706	0.766448
C260	C	0.633246	-0.712624	0.755515
C261	C	0.633179	-0.667486	0.699464
H262	H	0.633176	-0.742612	0.631885
H263	H	0.633293	-0.821163	0.729427
H264	H	0.633338	-0.802120	0.807940
H265	H	0.633265	-0.704522	0.788913
H266	H	0.633148	-0.625971	0.691371
C267	C	0.005676	-0.470375	0.603360
C268	C	-0.030268	-0.487073	0.663899
C269	C	-0.092249	-0.471858	0.679150
C270	C	-0.118286	-0.439945	0.633863
C271	C	-0.082341	-0.423245	0.573321
C272	C	-0.020360	-0.438460	0.558070
H273	H	-0.010994	-0.510699	0.697426
H274	H	-0.118857	-0.484221	0.723967
H275	H	-0.164168	-0.428682	0.645153
H276	H	-0.101615	-0.399619	0.539793
H277	H	0.006248	-0.426097	0.513252
H278	H	0.056452	-0.439666	0.634048
H279	H	-0.074166	-0.534620	0.609333
H280	H	0.226235	-0.524529	0.549071
H281	H	-0.075156	-0.844016	0.491279
C282	C	0.069041	-0.732066	0.384972
C283	C	0.103796	-0.739981	0.414385
C284	C	0.144320	-0.708519	0.384508
C285	C	0.150087	-0.669143	0.325219
C286	C	0.115330	-0.661226	0.295803
C287	C	0.074807	-0.692687	0.325680
H288	H	0.099528	-0.769131	0.458277
H289	H	0.170049	-0.714380	0.406284
H290	H	0.180085	-0.645853	0.303103
H291	H	0.119599	-0.632076	0.251911
H292	H	0.049078	-0.686827	0.303904
C293	C	0.374486	-0.576726	0.631318
C294	C	0.406022	-0.638229	0.640237
C295	C	0.374520	-0.678728	0.670191
C296	C	0.311481	-0.657724	0.691225
C297	C	0.279941	-0.596218	0.682306
C298	C	0.311443	-0.555719	0.652353
H299	H	0.452690	-0.653780	0.624666
H300	H	0.397869	-0.724259	0.676793
H301	H	0.288162	-0.687704	0.713398
H302	H	0.233273	-0.580667	0.697877
H303	H	0.288095	-0.510188	0.645750
H304	H	0.189808	-0.596548	0.407092
H305	H	0.486634	-0.600858	0.588843
H306	H	0.486593	-0.432619	0.524694
H307	H	0.183721	-0.240813	0.506671
C308	C	0.374429	-0.381990	0.557068
C309	C	0.405937	-0.341497	0.527104
C310	C	0.374406	-0.279988	0.518171
C311	C	0.311368	-0.258972	0.539201
C312	C	0.279856	-0.299466	0.569167
C313	C	0.311387	-0.360974	0.578100
H314	H	0.452605	-0.357053	0.511534
H315	H	0.397734	-0.250012	0.495988
H316	H	0.288027	-0.213440	0.532589
H317	H	0.233188	-0.283909	0.584737
H318	H	0.288060	-0.390950	0.600283
H319	H	0.149018	-0.136838	0.472047
H320	H	0.064226	-0.136878	0.641864
H321	H	-0.067855	-0.564093	0.333408
C322	C	-0.036969	-0.513406	0.221242
C323	C	0.008375	-0.487464	0.181923
C324	C	-0.006790	-0.425486	0.150373
C325	C	-0.067299	-0.389450	0.158142
C326	C	-0.112647	-0.415392	0.197463
C327	C	-0.097482	-0.477370	0.229014
H328	H	0.053172	-0.514141	0.176170
H329	H	0.026780	-0.406282	0.121265
H330	H	-0.078525	-0.343570	0.134787
H331	H	-0.157443	-0.388715	0.203216
H332	H	-0.131052	-0.496574	0.258122
C333	C	0.061216	-0.710010	0.221370
C334	C	0.042254	-0.709726	0.181891
C335	C	0.078521	-0.750733	0.150407
C336	C	0.133748	-0.792023	0.158402
C337	C	0.152712	-0.792308	0.197882
C338	C	0.116446	-0.751302	0.229366
H339	H	0.001369	-0.679159	0.175972
H340	H	0.064482	-0.750522	0.121181
H341	H	0.160594	-0.822379	0.135095
H342	H	0.193597	-0.822875	0.203802
H343	H	0.130485	-0.751513	0.258592
C344	C	0.020913	-0.750049	0.341723
C345	C	0.081420	-0.786092	0.333955
C346	C	0.096578	-0.848069	0.365509
C347	C	0.051229	-0.874004	0.404831
C348	C	-0.009283	-0.837961	0.412601
C349	C	-0.024441	-0.775983	0.381047
H350	H	0.114994	-0.766894	0.304845
H351	H	0.141373	-0.874750	0.359757
H352	H	0.062449	-0.919883	0.428189
H353	H	-0.042857	-0.857159	0.441711
H354	H	-0.069236	-0.749302	0.386799
H355	H	-0.033345	-0.529494	0.416965
H356	H	0.051334	-0.699339	0.502037
C357	C	-0.108686	-0.700749	0.520118
C358	C	-0.116624	-0.678812	0.561377
C359	C	-0.085195	-0.715079	0.602437
C360	C	-0.045829	-0.773282	0.602237
C361	C	-0.037890	-0.795223	0.560976
C362	C	-0.069318	-0.758956	0.519916
H363	H	-0.145767	-0.635723	0.561527
H364	H	-0.091073	-0.698836	0.632981
H365	H	-0.022564	-0.800129	0.632632
H366	H	-0.008747	-0.838311	0.560827
H367	H	-0.063441	-0.775198	0.489372
C368	C	-0.229043	-0.660484	0.560018
C369	C	-0.221228	-0.643820	0.596058
C370	C	-0.252846	-0.658994	0.658017
C371	C	-0.292280	-0.690832	0.683936
C372	C	-0.300097	-0.707498	0.647896
C373	C	-0.268479	-0.692324	0.585937
H374	H	-0.192035	-0.620250	0.576872
H375	H	-0.247059	-0.646657	0.684696
H376	H	-0.315686	-0.702065	0.729802
H377	H	-0.329290	-0.731068	0.667082
H378	H	-0.274266	-0.704661	0.559258
H379	H	0.016742	-0.733938	0.467255
H380	H	-0.220518	-0.571693	0.374008
H381	H	-0.116547	-0.606465	0.339541
H382	H	-0.109727	-0.740044	0.456586
