data_functionalizedCrystal
_audit_creation_method	'MofGen! by Chris Wilmer'
_symmetry_space_group_name_H-M	'P1'
_symmetry_Int_Tables_number	1
_symmetry_cell_setting	triclinic
loop_
_symmetry_equiv_pos_as_xyz
  x,y,z
_cell_length_a	25.427154
_cell_length_b	25.426324
_cell_length_c	25.422586
_cell_angle_alpha	60.006367
_cell_angle_beta	60.012446
_cell_angle_gamma	59.992398
loop_
_atom_site_label
_atom_site_type_symbol
_atom_site_fract_x
_atom_site_fract_y
_atom_site_fract_z
O1	O	0.072968	-0.768436	0.642532
O2	O	0.027520	-0.598284	0.517710
O3	O	0.135268	-0.705940	0.517611
O4	O	-0.034780	-0.660780	0.642632
O5	O	0.171018	-0.670200	0.553260
O6	O	0.063270	-0.562544	0.553360
O7	O	0.108718	-0.732696	0.678182
Zn8	Zn	0.091670	-0.641945	0.621431
Zn9	Zn	0.044568	-0.689034	0.574461
O10	O	0.000970	-0.625039	0.678281
N11	N	0.123818	-0.609812	0.653490
N12	N	0.012426	-0.721173	0.542402
C13	C	0.168482	-0.466269	0.698103
C14	C	0.168494	-0.565177	0.698095
C15	C	0.193243	-0.540453	0.722807
C16	C	0.301113	-0.521853	0.665993
C17	C	0.368545	-0.544324	0.643486
C18	C	0.368579	-0.653434	0.685090
C19	C	0.301149	-0.630961	0.707599
C20	C	0.184722	-0.432539	0.631812
C21	C	0.162210	-0.365100	0.609357
C22	C	0.107225	-0.365129	0.719489
C23	C	0.129737	-0.432567	0.741943
C24	C	0.102194	-0.548896	0.714421
C25	C	0.079702	-0.571372	0.691949
C26	C	0.189805	-0.626409	0.636839
C27	C	0.212300	-0.603934	0.659303
C28	C	0.102289	-0.548918	0.830735
C29	C	0.079866	-0.571415	0.898171
C30	C	0.190015	-0.626466	0.898104
C31	C	0.212437	-0.603971	0.830666
C32	C	0.168573	-0.565195	0.796984
C33	C	0.267418	-0.565170	0.698047
C34	C	-0.130981	-0.765617	0.497386
C35	C	-0.032127	-0.765741	0.497606
C36	C	-0.056804	-0.790430	0.472789
C37	C	-0.075480	-0.898263	0.529507
C38	C	-0.053057	-0.965702	0.552014
C39	C	0.056052	-0.965829	0.510599
C40	C	0.033627	-0.898392	0.488091
C41	C	-0.164787	-0.781859	0.563659
C42	C	-0.232219	-0.759299	0.586018
C43	C	-0.232034	-0.704261	0.475827
C44	C	-0.164602	-0.726821	0.453469
C45	C	-0.048372	-0.699446	0.481299
C46	C	-0.025938	-0.677008	0.503867
C47	C	0.028987	-0.787155	0.559036
C48	C	0.006552	-0.809596	0.536475
C49	C	-0.048188	-0.699454	0.364860
C50	C	-0.025608	-0.677017	0.297425
C51	C	0.029406	-0.787170	0.297492
C52	C	0.006827	-0.809605	0.364929
C53	C	-0.031972	-0.765745	0.398611
C54	C	-0.032140	-0.864611	0.497548
N55	N	0.401319	-0.609788	0.653344
O56	O	0.621664	-0.620517	0.494685
O57	O	0.621901	-0.745740	0.664659
O58	O	0.621803	-0.745452	0.556857
O59	O	0.621762	-0.620805	0.602487
O60	O	0.514676	-0.709815	0.592658
O61	O	0.514774	-0.710104	0.700460
O62	O	0.514537	-0.584881	0.530485
Zn63	Zn	0.497647	-0.641834	0.621157
Zn64	Zn	0.638791	-0.688787	0.573988
O65	O	0.514635	-0.585169	0.638287
N66	N	0.735119	-0.720834	0.541794
N67	N	0.123794	-0.332357	0.653504
O68	O	-0.034774	-0.111885	0.642639
O69	O	0.135202	-0.111860	0.517412
O70	O	0.027364	-0.111888	0.517742
O71	O	0.073064	-0.111857	0.642310
O72	O	0.063120	-0.219026	0.553444
O73	O	0.170958	-0.218998	0.553115
O74	O	0.000983	-0.219022	0.678342
Zn75	Zn	0.091647	-0.236020	0.621397
Zn76	Zn	0.044537	-0.094862	0.574357
O77	O	0.108821	-0.218994	0.678013
N78	N	0.012383	0.001474	0.542251
N79	N	0.124036	-0.609854	0.930891
O80	O	0.113202	-0.768401	1.151342
O81	O	-0.011992	-0.598359	1.151385
O82	O	-0.011700	-0.706176	1.151343
O83	O	0.112910	-0.660584	1.151384
O84	O	0.023980	-0.670446	1.044212
O85	O	0.023689	-0.562630	1.044253
O86	O	0.148882	-0.732671	1.044211
Zn87	Zn	0.091951	-0.641977	1.027223
Zn88	Zn	0.044940	-0.689053	1.168373
O89	O	0.148590	-0.624854	1.044252
N90	N	0.012853	-0.721183	1.264704
C91	C	0.041135	-0.558973	0.518338
C92	C	0.174567	-0.692292	0.518215
C93	C	0.095103	-0.772007	0.677553
C94	C	-0.038330	-0.638687	0.677677
C95	C	0.568366	-0.745166	0.703974
C96	C	0.568246	-0.744810	0.570474
C97	C	0.568069	-0.585454	0.491172
C98	C	0.568192	-0.585812	0.624671
C99	C	0.174449	-0.165294	0.517975
C100	C	0.040949	-0.165460	0.518427
C101	C	-0.038309	-0.165456	0.677735
C102	C	0.095236	-0.165423	0.677328
C103	C	-0.011393	-0.559072	1.097824
C104	C	-0.011024	-0.692583	1.097752
C105	C	0.148283	-0.771958	1.097772
C106	C	0.147922	-0.638440	1.097820
H107	H	0.066565	-0.517338	0.803314
O108	O	0.106843	-0.165305	0.724000
C109	C	0.062680	-0.109830	0.741357
H110	H	0.043762	-0.071049	0.700103
H111	H	0.087796	-0.091199	0.751776
H112	H	0.020771	-0.122383	0.786226
O113	O	0.568067	-0.538527	0.432935
C114	C	0.623523	-0.521198	0.404381
H115	H	0.642070	-0.534245	0.443418
H116	H	0.610981	-0.467122	0.377432
H117	H	0.662361	-0.548213	0.369203
H118	H	0.223163	-0.164989	0.478564
H119	H	0.104814	-0.820885	0.716757
O120	O	-0.096620	-0.627094	0.724455
C121	C	-0.136660	-0.563803	0.701169
H122	H	-0.105648	-0.533212	0.659796
H123	H	-0.167513	-0.542235	0.741594
H124	H	-0.169198	-0.564783	0.683287
H125	H	0.031425	-0.510094	0.479136
O126	O	0.568472	-0.792007	0.762237
C127	C	0.568473	-0.768807	0.802329
H128	H	0.588704	-0.727432	0.771357
H129	H	0.599628	-0.809279	0.833157
H130	H	0.517091	-0.750952	0.834892
O131	O	0.568236	-0.791446	0.558732
C132	C	0.568179	-0.767982	0.495421
H133	H	0.547847	-0.713113	0.478497
H134	H	0.537085	-0.787619	0.494512
H135	H	0.619558	-0.784241	0.462061
O136	O	0.194568	-0.626691	1.097796
C137	C	0.171098	-0.563374	1.097831
H138	H	0.129739	-0.532890	1.077555
H139	H	0.211432	-0.541704	1.066732
H140	H	0.153146	-0.564326	1.149232
O141	O	0.029376	-0.165442	0.471656
C142	C	0.084671	-0.165453	0.416063
H143	H	0.115436	-0.145160	0.416592
H144	H	0.069538	-0.134355	0.371351
H145	H	0.113752	-0.216853	0.415289
O146	O	0.568147	-0.539157	0.636430
C147	C	0.568239	-0.562632	0.699730
H148	H	0.548010	-0.604007	0.730210
H149	H	0.537131	-0.522301	0.721427
H150	H	0.619650	-0.580571	0.698738
O151	O	-0.096592	-0.165423	0.724555
C152	C	-0.136696	-0.165449	0.701392
H153	H	-0.119275	-0.145178	0.646523
H154	H	-0.188292	-0.134338	0.721143
H155	H	-0.134953	-0.216849	0.717782
O156	O	-0.058225	-0.500787	1.097866
C157	C	-0.035034	-0.460699	1.097868
H158	H	0.006323	-0.491678	1.118149
H159	H	-0.075511	-0.429838	1.128981
H160	H	-0.017162	-0.428164	1.046477
O161	O	-0.057687	-0.704299	1.097769
C162	C	-0.072505	-0.756456	1.153231
H163	H	-0.029942	-0.787314	1.171762
H164	H	-0.082780	-0.786873	1.140698
H165	H	-0.116772	-0.737357	1.192078
O166	O	0.015453	-0.555509	0.930850
C167	C	-0.018449	-0.516474	0.886657
H168	H	0.013684	-0.491953	0.838579
H169	H	-0.063445	-0.478322	0.906163
H170	H	-0.033001	-0.547580	0.879494
O171	O	0.232713	-0.664138	0.930718
C172	C	0.296024	-0.673659	0.886464
H173	H	0.295863	-0.666119	0.838405
H174	H	0.328073	-0.724802	0.905920
H175	H	0.315332	-0.637757	0.879282
H176	H	0.187590	-0.820792	1.097751
H177	H	0.266414	-0.617231	0.803190
H178	H	0.066522	-0.517340	0.746005
H179	H	0.025716	-0.558101	0.705227
O180	O	-0.139338	-0.865372	0.538570
C181	C	-0.148394	-0.826384	0.478321
H182	H	-0.101992	-0.816352	0.440820
H183	H	-0.188858	-0.778927	0.482147
H184	H	-0.161656	-0.852346	0.463278
O185	O	0.232446	-0.664030	0.599146
C186	C	0.295785	-0.673593	0.589576
H187	H	0.295665	-0.632939	0.597115
H188	H	0.327770	-0.673935	0.538424
H189	H	0.315140	-0.721638	0.625450
O190	O	-0.132226	-0.819514	0.606405
C191	C	-0.176526	-0.829019	0.669696
H192	H	-0.224562	-0.788317	0.669491
H193	H	-0.157101	-0.829395	0.701781
H194	H	-0.183736	-0.877030	0.688994
H195	H	0.273715	-0.666239	0.733700
O196	O	0.401251	-0.717368	0.694438
C197	C	0.357051	-0.750782	0.727540
H198	H	0.308992	-0.721371	0.755193
H199	H	0.376571	-0.799415	0.762726
H200	H	0.349849	-0.758581	0.691470
O201	O	0.276695	-0.619627	0.643377
C202	C	0.292943	-0.562950	0.609455
H203	H	0.254896	-0.522444	0.586660
H204	H	0.341879	-0.571815	0.570139
H205	H	0.295193	-0.548762	0.644132
H206	H	0.395978	-0.509050	0.617384
H207	H	0.223406	-0.701920	0.478955
H208	H	0.273654	-0.468282	0.658214
H209	H	0.216267	-0.459978	0.596113
H210	H	0.175430	-0.337636	0.555374
H211	H	0.116505	-0.460032	0.795926
O212	O	0.069577	-0.332485	0.762160
C213	C	0.060097	-0.376719	0.825489
H214	H	0.067637	-0.424791	0.825368
H215	H	0.008969	-0.357248	0.857532
H216	H	0.096016	-0.383885	0.844776
H217	H	-0.038823	-0.623033	0.269953
H218	H	0.060986	-0.822887	0.270075
O219	O	-0.085838	-0.656758	0.397479
C220	C	-0.095320	-0.593435	0.353229
H221	H	-0.054617	-0.593611	0.305203
H222	H	-0.095683	-0.561433	0.372740
H223	H	-0.143326	-0.574055	0.345964
O224	O	0.022504	-0.874010	0.397685
C225	C	-0.000513	-0.901978	0.381114
H226	H	-0.042047	-0.863544	0.362486
H227	H	-0.018085	-0.941695	0.425443
H228	H	0.039980	-0.923309	0.342016
O229	O	-0.086040	-0.656817	0.443644
C230	C	-0.142607	-0.617765	0.477621
H231	H	-0.152066	-0.643787	0.531585
H232	H	-0.185043	-0.607518	0.465456
H233	H	-0.136455	-0.570414	0.463295
H234	H	-0.039168	-0.623025	0.490592
H235	H	0.060486	-0.822870	0.590677
H236	H	0.068924	-0.870994	0.462067
O237	O	0.022416	-0.874016	0.552347
C238	C	0.061353	-0.907914	0.591504
H239	H	0.085872	-0.875795	0.582968
H240	H	0.099501	-0.952947	0.578911
H241	H	0.030173	-0.922412	0.644295
H242	H	-0.088349	-0.993100	0.578027
O243	O	0.119960	-0.998621	0.501303
C244	C	0.154838	-0.982179	0.434745
H245	H	0.121761	-0.963606	0.406801
H246	H	0.196734	-1.026563	0.423887
H247	H	0.174220	-0.943076	0.419725
O248	O	-0.265136	-0.775101	0.650383
C249	C	-0.304140	-0.809000	0.666583
H250	H	-0.314158	-0.796826	0.622085
H251	H	-0.351599	-0.794599	0.705628
H252	H	-0.278205	-0.862984	0.685138
H253	H	-0.259410	-0.672678	0.440065
H254	H	-0.137077	-0.713589	0.399501
