data_functionalizedCrystal
_audit_creation_method	'MofGen! by Chris Wilmer'
_symmetry_space_group_name_H-M	'P1'
_symmetry_Int_Tables_number	1
_symmetry_cell_setting	triclinic
loop_
_symmetry_equiv_pos_as_xyz
  x,y,z
_cell_length_a	6.817900
_cell_length_b	13.563541
_cell_length_c	17.329378
_cell_angle_alpha	106.374193
_cell_angle_beta	103.025558
_cell_angle_gamma	104.704624
loop_
_atom_site_label
_atom_site_type_symbol
_atom_site_fract_x
_atom_site_fract_y
_atom_site_fract_z
V1	V	-4.035423	-0.128344	-0.272860
O2	O	-3.992410	0.029060	-0.234063
O3	O	-4.016082	-0.276502	-0.303311
O4	O	-3.977478	-0.116325	-0.377119
O5	O	-4.031281	-0.132226	-0.159744
V6	V	-4.516523	-0.110703	-0.255404
O7	O	-4.301998	-0.167040	-0.311150
O8	O	-4.700145	-0.072008	-0.217114
O9	O	-4.312658	0.037454	-0.224953
O10	O	-4.676933	-0.268107	-0.294201
O11	O	-4.638062	-0.106822	-0.368520
O12	O	-4.351261	-0.122723	-0.151145
C13	C	-3.868460	-0.312933	-0.307346
C14	C	-3.933870	-0.433989	-0.332939
C15	C	-3.969546	-0.739185	-0.109381
C16	C	-3.908076	-0.625447	-0.085334
C17	C	-3.914522	-0.577577	-0.147233
C18	C	-3.982442	-0.643457	-0.233184
C19	C	-4.043902	-0.757206	-0.257233
C20	C	-3.988878	-0.595597	-0.295085
C21	C	-4.056799	-0.661477	-0.381036
C22	C	-4.118253	-0.775216	-0.405081
C23	C	-4.111807	-0.823086	-0.343182
C24	C	-3.927419	-0.481848	-0.271035
C25	C	-4.001775	-0.499869	-0.418887
C26	C	-4.063244	-0.613607	-0.442935
C27	C	-3.819216	-0.108610	-0.401494
C28	C	-3.853315	-0.099764	-0.486939
C29	C	-3.928105	-0.194263	-0.559697
C30	C	-3.960152	-0.185949	-0.639981
C31	C	-3.917395	-0.083134	-0.647505
C32	C	-3.842605	0.011371	-0.574739
C33	C	-3.810573	0.003056	-0.494457
C34	C	-4.011183	-0.053092	-0.888273
C35	C	-4.043215	-0.044783	-0.968563
C36	C	-4.160764	-0.242104	-1.033799
C37	C	-4.128714	-0.250410	-0.953512
C38	C	-4.053938	-0.155905	-0.880754
C39	C	-3.950145	-0.074634	-0.729567
C40	C	-4.021204	-0.164407	-0.798694
C41	C	-4.123622	0.073880	-0.220917
C42	C	-4.037451	0.194935	-0.195330
C43	C	-4.172866	-0.130441	-0.126767
C44	C	-4.118004	-0.139282	-0.041320
H45	H	-3.852783	-0.571815	-0.015353
C46	C	-3.846918	-0.452460	-0.120778
N47	N	-3.796006	-0.358218	-0.100848
H48	H	-4.221650	-0.319045	-1.093046
H49	H	-3.749676	0.080007	-0.435215
H50	H	-4.056025	-0.248118	-0.792564
C51	C	-3.996192	0.068325	-0.976834
N52	N	-3.960777	0.153513	-0.983065
C53	C	-4.179858	-0.948217	-0.369642
N54	N	-4.231268	-1.042472	-0.389574
C55	C	-4.192945	-0.847680	-0.499629
N56	N	-4.249206	-0.902259	-0.570843
C57	C	-4.137931	-0.686089	-0.537478
N58	N	-4.194177	-0.740683	-0.608688
H59	H	-4.007021	-0.460894	-0.469291
C60	C	-3.903082	0.038461	-0.737852
N61	N	-3.867631	0.123644	-0.744094
C62	C	-3.795561	0.124468	-0.583018
N63	N	-3.760114	0.209656	-0.589251
C64	C	-3.975148	-0.307367	-0.551431
N65	N	-4.010594	-0.392561	-0.545209
H66	H	-4.021059	-0.262900	-0.699220
H67	H	-3.872117	-0.428219	-0.201054
C68	C	-4.175774	-0.363514	-0.945245
N69	N	-4.211221	-0.448706	-0.939019
H70	H	-3.950298	0.023861	-0.829041
H71	H	-3.964294	-0.778172	-0.058992
