data_functionalizedCrystal
_audit_creation_method	'MofGen! by Chris Wilmer'
_symmetry_space_group_name_H-M	'P1'
_symmetry_Int_Tables_number	1
_symmetry_cell_setting	triclinic
loop_
_symmetry_equiv_pos_as_xyz
  x,y,z
_cell_length_a	16.109301
_cell_length_b	9.798715
_cell_length_c	10.723023
_cell_angle_alpha	89.998183
_cell_angle_beta	96.035486
_cell_angle_gamma	90.000966
loop_
_atom_site_label
_atom_site_type_symbol
_atom_site_fract_x
_atom_site_fract_y
_atom_site_fract_z
O1	O	1.104075	0.113401	-0.160390
O2	O	0.862130	0.113422	-0.180350
O3	O	0.988683	0.113406	0.011281
O4	O	0.977521	0.113416	-0.352020
O5	O	0.988674	-0.113576	0.011281
O6	O	0.862121	-0.113560	-0.180350
O7	O	1.104065	-0.113582	-0.160389
Zn8	Zn	0.983091	-0.149609	-0.170369
Zn9	Zn	0.983104	0.149450	-0.170370
O10	O	0.977512	-0.113566	-0.352020
C11	C	0.831146	-0.000067	-0.179541
C12	C	0.738836	-0.000058	-0.177117
N13	N	0.983089	-0.353709	-0.170368
C14	C	0.517199	-0.000071	-0.285190
C15	C	0.430466	-0.000080	-0.282903
C16	C	0.449002	-0.000081	-0.055540
C17	C	0.535735	-0.000082	-0.057829
C18	C	0.569831	-0.000070	-0.172658
C19	C	0.396365	-0.000078	-0.168081
C20	C	0.302324	-0.000087	-0.165601
C21	C	0.663877	-0.000063	-0.175139
C22	C	1.036225	-0.421492	-0.089556
C23	C	1.036238	-0.578655	-0.089552
C24	C	1.135049	-0.000090	-0.161198
C25	C	1.227359	-0.000089	-0.163622
C26	C	0.987867	-0.000083	0.057770
C27	C	0.985437	-0.000078	0.196292
N28	N	0.983113	0.353549	-0.170361
C29	C	0.978329	-0.000074	-0.398509
C30	C	0.980758	-0.000070	-0.537031
C31	C	0.984348	-0.117659	0.258055
C32	C	0.981837	-0.117656	0.401225
H33	H	0.544957	-0.000072	-0.378691
H34	H	0.985280	-0.218326	0.204942
N35	N	1.096466	-0.344231	0.002083
H36	H	1.155616	-0.368997	-0.012032
H37	H	1.086165	-0.369053	0.090566
H38	H	0.937603	-0.412028	-0.239547
H39	H	0.387616	-0.000084	-0.374539
H40	H	1.081734	-0.636946	-0.020370
H41	H	0.937621	-0.588169	-0.239556
H42	H	0.980896	-0.218321	0.454340
H43	H	0.421231	-0.000098	0.037950
H44	H	0.981687	0.100600	0.409861
N45	N	0.984223	0.133284	0.266624
H46	H	0.931831	0.138754	0.310502
H47	H	0.985331	0.211660	0.205651
N48	N	0.592509	-0.000096	0.063551
H49	H	0.557750	-0.000096	0.136642
H50	H	0.628904	0.084044	0.067554
