data_functionalizedCrystal
_audit_creation_method	'MofGen! by Chris Wilmer'
_symmetry_space_group_name_H-M	'P1'
_symmetry_Int_Tables_number	1
_symmetry_cell_setting	triclinic
loop_
_symmetry_equiv_pos_as_xyz
  x,y,z
_cell_length_a	15.698487
_cell_length_b	18.760487
_cell_length_c	18.760492
_cell_angle_alpha	90.032780
_cell_angle_beta	59.999789
_cell_angle_gamma	60.019852
loop_
_atom_site_label
_atom_site_type_symbol
_atom_site_fract_x
_atom_site_fract_y
_atom_site_fract_z
Zr1	Zr	0.932397	0.686686	-0.093102
O2	O	1.110107	0.572874	-0.206985
O3	O	0.754686	0.721576	-0.058193
O4	O	0.932396	0.721582	-0.206897
O5	O	0.932397	0.572863	0.059022
O6	O	0.932396	0.838885	-0.206824
O7	O	0.932397	0.572868	-0.058281
O8	O	0.614505	0.838874	0.059179
O9	O	1.250289	0.572874	-0.206982
O10	O	0.827781	0.823997	-0.043248
O11	O	0.827781	0.736452	0.044240
O12	O	1.037012	0.736459	-0.130840
O13	O	1.037013	0.648913	-0.043352
Zr14	Zr	0.932397	0.873763	0.094097
Zr15	Zr	0.932396	0.873771	-0.092987
Zr16	Zr	0.932397	0.686678	0.093982
Zr17	Zr	1.155970	0.686686	-0.093098
Zr18	Zr	0.708824	0.873763	0.094093
O19	O	1.110107	0.838873	0.059189
O20	O	1.110107	0.838884	-0.206821
O21	O	1.110108	0.572863	0.059025
O22	O	0.754686	0.987574	0.207980
O23	O	0.754686	0.987586	-0.058029
O24	O	0.754686	0.721564	0.207817
O25	O	0.932396	0.987586	-0.058026
O26	O	0.932397	0.838867	0.207892
O27	O	0.932397	0.721564	0.207820
O28	O	0.932396	0.987580	0.059277
O29	O	1.250288	0.721581	-0.206891
O30	O	0.614505	0.838867	0.207886
O31	O	0.614505	0.987574	0.207978
O32	O	0.614504	0.987581	0.059271
O33	O	1.250289	0.572868	-0.058275
O34	O	1.250289	0.721575	-0.058184
O35	O	0.827781	0.823990	0.131835
O36	O	0.827781	0.911535	0.044347
O37	O	1.037012	0.823997	-0.043244
O38	O	1.037013	0.736451	0.044244
C39	C	0.652741	0.780225	0.000492
C40	C	0.557828	0.780225	0.000491
C41	C	0.384046	0.780222	0.000506
C42	C	0.480750	0.780222	0.000500
C43	C	0.932397	0.546210	0.000354
C44	C	0.932397	0.466788	0.000305
C45	C	0.932396	0.780234	-0.233516
C46	C	0.932396	0.780238	-0.312938
C47	C	1.212052	0.780224	0.000503
C48	C	1.306965	0.780224	0.000505
C49	C	1.041618	0.085277	-0.045072
C50	C	0.823176	0.176673	0.046375
C51	C	0.823174	0.251295	0.046300
C52	C	0.932396	0.242910	0.000537
C53	C	1.041619	0.159904	-0.045151
C54	C	0.713953	0.334306	0.091980
C55	C	0.713947	0.408934	0.091906
C56	C	0.823170	0.400551	0.046147
C57	C	0.932397	0.317538	0.000459
C58	C	1.041619	0.309154	-0.045304
C59	C	1.150848	0.226142	-0.090989
C60	C	1.150842	0.151521	-0.090909
C61	C	0.823176	0.475172	0.046068
C62	C	1.041620	0.383781	-0.045383
C63	C	0.932396	1.014239	0.000642
C64	C	0.932396	1.093661	0.000691
C65	C	0.823176	0.825909	-0.603030
C66	C	1.041617	0.734517	-0.694473
C67	C	1.041619	0.734523	-0.619852
C68	C	0.932397	0.780222	-0.536817
C69	C	0.823174	0.825914	-0.528401
C70	C	1.150840	0.688824	-0.628261
C71	C	1.150846	0.688828	-0.553638
C72	C	1.041624	0.734532	-0.470600
C73	C	0.932396	0.780227	-0.462188
C74	C	0.823174	0.825925	-0.379152
C75	C	0.713945	0.871626	-0.370738
C76	C	0.713951	0.871618	-0.445364
C77	C	1.041618	0.734539	-0.395974
C78	C	0.823173	0.825930	-0.304523
C79	C	0.932397	0.780214	0.234512
C80	C	0.932397	0.780211	0.313934
C81	C	0.652741	1.014239	0.000636
C82	C	0.557828	1.093661	0.000684
C83	C	0.652741	0.780214	0.234506
C84	C	0.557829	0.780211	0.313927
C85	C	0.652741	1.014229	0.234650
C86	C	0.557828	1.093648	0.314120
C87	C	1.212052	0.546220	-0.233655
C88	C	1.306965	0.466801	-0.313124
C89	C	1.212053	0.546210	0.000359
C90	C	1.306965	0.466787	0.000312
C91	C	1.212052	0.780234	-0.233511
C92	C	1.306964	0.780237	-0.312931
C93	C	0.513256	1.085265	-0.045026
C94	C	0.424088	1.159884	-0.044999
C95	C	0.379487	1.242898	0.000743
C96	C	0.424068	1.251292	0.046454
C97	C	0.513240	1.176675	0.046421
C98	C	0.513257	0.825903	0.396955
C99	C	0.424089	0.825897	0.471586
C100	C	0.379489	0.780203	0.463187
C101	C	0.424069	0.734505	0.380150
C102	C	0.513242	0.734507	0.305521
C103	C	0.513256	1.176650	0.305771
C104	C	0.424088	1.251279	0.380434
C105	C	0.379488	1.242905	0.463444
C106	C	0.424069	1.159895	0.471790
C107	C	0.513241	1.085267	0.397129
C108	C	1.351548	0.383799	-0.304776
C109	C	1.440744	0.309169	-0.379438
C110	C	1.485349	0.317543	-0.462448
C111	C	1.440762	0.400554	-0.470795
C112	C	1.351574	0.475182	-0.396133
C113	C	1.351547	0.475184	0.046014
C114	C	1.440740	0.400565	0.045967
C115	C	1.485343	0.317551	0.000222
C116	C	1.440758	0.309156	-0.045486
C117	C	1.351573	0.383774	-0.045443
C118	C	1.351537	0.825941	-0.304504
C119	C	1.440705	0.825961	-0.379120
C120	C	1.485306	0.780272	-0.462164
C121	C	1.440725	0.734568	-0.470589
C122	C	1.351552	0.734553	-0.395973
H123	H	1.130563	0.376944	-0.082639
H124	H	0.306879	0.780208	0.523962
C125	C	1.270983	0.060207	-0.141169
N126	N	1.361472	-0.008573	-0.179029
C127	C	1.270975	0.638558	-0.719601
N128	N	1.361465	0.600697	-0.788404
C129	C	1.583445	0.235477	0.000188
N130	N	1.657331	0.173662	0.000169
C131	C	0.281386	1.325007	0.545566
N132	N	0.207491	1.386850	0.607418
H133	H	0.549520	1.017686	0.403938
C134	C	1.489756	0.684349	-0.561945
N135	N	1.526678	0.646535	-0.630757
C136	C	0.593810	0.921875	-0.436118
N137	N	0.503321	0.959723	-0.429157
C138	C	1.302549	0.684259	-0.405258
N139	N	1.265647	0.646373	-0.412258
C140	C	0.562307	1.185882	0.214467
N141	N	0.599252	1.192844	0.145699
H142	H	0.734244	0.863120	-0.596184
C143	C	1.489819	0.217832	-0.095787
N144	N	1.526765	0.149044	-0.133666
C145	C	1.302507	0.374566	-0.213471
N146	N	1.265581	0.367605	-0.144703
C147	C	1.302505	0.566493	0.096336
N148	N	1.265578	0.635265	0.134236
C149	C	1.302486	0.876211	-0.213163
N150	N	1.265540	0.914082	-0.144367
H151	H	0.387799	1.318863	0.373623
H152	H	0.549520	1.183523	0.083649
C153	C	1.489733	0.876236	-0.369833
N154	N	1.526660	0.914103	-0.362835
C155	C	1.270988	0.216930	-0.141328
N156	N	1.361474	0.209997	-0.179243
H157	H	0.387742	0.697302	0.373324
C158	C	0.562248	0.684249	0.214191
N159	N	0.599153	0.646394	0.145402
H160	H	1.557971	0.256769	-0.523236
C161	C	1.583401	0.780295	-0.544235
N162	N	1.657289	0.780314	-0.606049
H163	H	1.130549	0.017686	-0.082264
C164	C	0.593818	0.343521	0.142311
N165	N	0.503328	0.350459	0.180225
H166	H	0.734253	0.183493	0.083630
C167	C	1.489757	0.409819	0.096258
N168	N	1.526672	0.416791	0.134140
H169	H	1.315278	0.376925	-0.082656
C170	C	0.593794	0.500241	0.142165
N171	N	0.503293	0.569014	0.180024
H172	H	0.734230	0.863147	-0.236914
H173	H	1.130540	0.697308	-0.762083
C174	C	0.374985	1.150698	0.563110
N175	N	0.338006	1.143774	0.631894
H176	H	0.387802	0.863113	0.539191
H177	H	0.734243	0.542756	0.083271
H178	H	0.549561	0.863113	0.403811
H179	H	0.625017	0.908829	-0.303120
C180	C	1.270999	0.638565	-0.562901
N181	N	1.361500	0.600711	-0.569878
H182	H	1.477031	0.241586	-0.372626
C183	C	0.374985	1.342616	0.096774
N184	N	0.338006	1.411404	0.134680
C185	C	0.562306	0.993956	-0.095355
N186	N	0.599252	0.925184	-0.133271
C187	C	1.489830	0.409751	-0.562114
N188	N	1.526783	0.416675	-0.630898
C189	C	0.375055	1.150630	-0.095278
N190	N	0.338123	1.143657	-0.133146
H191	H	1.130550	0.697324	-0.402828
H192	H	1.315275	0.542763	-0.402941
H193	H	0.306876	1.303649	0.000763
