data_functionalizedCrystal
_audit_creation_method	'MofGen! by Chris Wilmer'
_symmetry_space_group_name_H-M	'P1'
_symmetry_Int_Tables_number	1
_symmetry_cell_setting	triclinic
loop_
_symmetry_equiv_pos_as_xyz
  x,y,z
_cell_length_a	11.169417
_cell_length_b	12.759399
_cell_length_c	11.169409
_cell_angle_alpha	89.967363
_cell_angle_beta	89.980176
_cell_angle_gamma	90.016624
loop_
_atom_site_label
_atom_site_type_symbol
_atom_site_fract_x
_atom_site_fract_y
_atom_site_fract_z
Zn1	Zn	1.834917	-0.418157	-0.678540
Zn2	Zn	1.834788	-0.593882	-0.477856
Zn3	Zn	1.634203	-0.418221	-0.477875
Zn4	Zn	1.634192	-0.593797	-0.678501
O5	O	1.734525	-0.506014	-0.578193
O6	O	2.002850	-0.441476	-0.651928
O7	O	1.808130	-0.570643	-0.309909
O8	O	1.660887	-0.271191	-0.504518
O9	O	2.002755	-0.570581	-0.504486
O10	O	1.808351	-0.271144	-0.651946
O11	O	1.660762	-0.441585	-0.309922
O12	O	1.466252	-0.441502	-0.504479
O13	O	1.660868	-0.570435	-0.846456
O14	O	1.466244	-0.570497	-0.651879
O15	O	1.808340	-0.441393	-0.846485
O16	O	1.808119	-0.740892	-0.504448
O17	O	1.660742	-0.740829	-0.651861
C18	C	1.422700	-0.505998	-0.578178
C19	C	1.289300	-0.506017	-0.578199
C20	C	1.734448	-0.778981	-0.578174
C21	C	1.734525	-0.895758	-0.578206
C22	C	1.657774	-0.950626	-0.654909
C23	C	1.657849	-1.060350	-0.654931
C24	C	1.811436	-1.060329	-0.501547
C25	C	1.811354	-0.950607	-0.501519
C26	C	1.516396	-1.210387	-0.697731
C27	C	1.439656	-1.265258	-0.774452
C28	C	1.421144	-1.229581	-0.891535
C29	C	1.479389	-1.139035	-0.931921
C30	C	1.556139	-1.084169	-0.855206
C31	C	1.574628	-1.119845	-0.738107
C32	C	1.952809	-0.800568	-0.458731
C33	C	2.029565	-0.745700	-0.382022
C34	C	2.048089	-0.781375	-0.264937
C35	C	1.989864	-0.871924	-0.224556
C36	C	1.913108	-0.926792	-0.301265
C37	C	1.894582	-0.891110	-0.418349
C38	C	2.047567	-0.506031	-0.578209
C39	C	2.180967	-0.506038	-0.578216
C40	C	1.734617	-0.505897	-0.891236
C41	C	1.734656	-0.505848	-1.024636
C42	C	1.734635	-0.231981	-0.578238
C43	C	1.734682	-0.115204	-0.578257
C44	C	1.734502	-0.506054	-0.266368
C45	C	1.734695	-0.505808	-0.132969
H46	H	1.603562	-1.010449	-0.888088
N47	N	1.338365	-1.288748	-0.974286
H48	H	1.384450	-1.313097	-1.046939
H49	H	1.304295	-1.351473	-0.930847
H50	H	2.110594	-0.736692	-0.202482
N51	N	1.459419	-1.100567	-1.058211
H52	H	1.424686	-1.027517	-1.056023
H53	H	1.538269	-1.099408	-1.102479
H54	H	2.004953	-0.900976	-0.129218
N55	N	1.376833	-1.362914	-0.730900
H56	H	1.400192	-1.377186	-0.645079
H57	H	1.287348	-1.352514	-0.736051
H58	H	2.076977	-0.671971	-0.414912
H59	H	1.937712	-0.771500	-0.554064
H60	H	1.595213	-0.905970	-0.717351
N61	N	1.536321	-1.248863	-0.571437
H62	H	1.571055	-1.321913	-0.573616
H63	H	1.593735	-1.200299	-0.529017
H64	H	1.873989	-1.105000	-0.439111
N65	N	1.850307	-1.024459	-0.257718
H66	H	1.873687	-1.038738	-0.171904
H67	H	1.760820	-1.014064	-0.262846
