data_functionalizedCrystal
_audit_creation_method	'MofGen! by Chris Wilmer'
_symmetry_space_group_name_H-M	'P1'
_symmetry_Int_Tables_number	1
_symmetry_cell_setting	triclinic
loop_
_symmetry_equiv_pos_as_xyz
  x,y,z
_cell_length_a	16.109302
_cell_length_b	17.000371
_cell_length_c	14.586319
_cell_angle_alpha	89.995789
_cell_angle_beta	89.994552
_cell_angle_gamma	79.530514
loop_
_atom_site_label
_atom_site_type_symbol
_atom_site_fract_x
_atom_site_fract_y
_atom_site_fract_z
O1	O	1.095680	0.102312	-0.076282
O2	O	1.595680	0.602312	0.423718
O3	O	0.852691	0.115044	-0.076275
O4	O	1.352691	0.615044	0.423725
O5	O	0.989273	-0.007192	-0.076272
O6	O	1.489273	0.492808	0.423728
O7	O	0.959098	0.224548	-0.076284
O8	O	1.459098	0.724548	0.423716
O9	O	0.989264	-0.007194	0.076209
O10	O	1.489264	0.492806	0.576209
O11	O	0.852682	0.115042	0.076206
O12	O	1.352682	0.615042	0.576206
O13	O	1.095671	0.102310	0.076199
O14	O	1.595671	0.602310	0.576199
Cu15	Cu	0.974176	0.108676	0.090125
Cu16	Cu	1.474176	0.608676	0.590125
Cu17	Cu	0.974186	0.108678	-0.090201
Cu18	Cu	1.474186	0.608678	0.409799
O19	O	0.959089	0.224546	0.076197
O20	O	1.459089	0.724546	0.576197
C21	C	0.821749	0.114527	-0.000033
C22	C	1.321749	0.614527	0.499967
C23	C	0.729566	0.112981	-0.000030
C24	C	1.229566	0.612981	0.499970
C25	C	0.517481	0.109404	0.083078
C26	C	1.017481	0.609404	0.583078
C27	C	0.430867	0.107942	0.083075
C28	C	0.930867	0.607942	0.583075
C29	C	0.430887	0.107948	-0.083168
C30	C	0.930887	0.607948	0.416832
C31	C	0.517500	0.109404	-0.083164
C32	C	1.017500	0.609404	0.416836
C33	C	0.560794	0.110136	-0.000038
C34	C	1.060794	0.610136	0.499962
C35	C	0.387567	0.107218	-0.000045
C36	C	0.887567	0.607218	0.499955
C37	C	0.293657	0.105634	-0.000049
C38	C	0.793657	0.605634	0.499951
C39	C	0.654711	0.111719	-0.000034
C40	C	1.154711	0.611719	0.499966
C41	C	0.990889	-0.036847	-0.000032
C42	C	1.490889	0.463153	0.499968
C43	C	0.995709	-0.125207	-0.000033
C44	C	1.495709	0.374793	0.499967
C45	C	0.921542	-0.157214	-0.000035
C46	C	1.421542	0.342786	0.499965
C47	C	0.926076	-0.240238	-0.000032
C48	C	1.426076	0.259762	0.499968
C49	C	1.004776	-0.291254	-0.000035
C50	C	1.504776	0.208746	0.499965
C51	C	1.078949	-0.259242	-0.000030
C52	C	1.578949	0.240758	0.499970
C53	C	1.074414	-0.176220	-0.000026
C54	C	1.574414	0.323780	0.499974
C55	C	1.022291	-0.542404	-0.000042
C56	C	1.522291	-0.042404	0.499958
C57	C	1.026820	-0.625432	-0.000049
C58	C	1.526820	-0.125432	0.499951
C59	C	0.873946	-0.606422	-0.000049
C60	C	1.373946	-0.106422	0.499951
C61	C	0.869419	-0.523398	-0.000050
C62	C	1.369419	-0.023398	0.499950
C63	C	0.943591	-0.491394	-0.000041
C64	C	1.443591	0.008606	0.499959
C65	C	1.009412	-0.376118	-0.000035
C66	C	1.509412	0.123882	0.499965
C67	C	0.938954	-0.406531	-0.000034
C68	C	1.438954	0.093469	0.499966
C69	C	1.126613	0.102827	-0.000044
C70	C	1.626613	0.602827	0.499956
C71	C	1.218795	0.104374	-0.000053
C72	C	1.718795	0.604374	0.499947
C73	C	0.957472	0.254201	-0.000045
C74	C	1.457472	0.754201	0.499955
C75	C	0.952653	0.342561	-0.000050
C76	C	1.452653	0.842561	0.499950
N77	N	0.974175	0.108674	0.216957
N78	N	1.474175	0.608674	0.716957
N79	N	0.974194	0.108674	-0.217033
N80	N	1.474194	0.608674	0.282967
C81	C	1.034670	0.054566	0.451965
C82	C	1.534670	0.554566	0.951965
C83	C	1.034673	0.054564	0.547946
C84	C	1.534673	0.554564	1.047946
C85	C	0.913692	0.162784	0.547953
C86	C	1.413692	0.662784	1.047953
C87	C	0.913687	0.162782	0.451974
C88	C	1.413687	0.662782	0.951974
C89	C	0.974180	0.108674	0.403982
C90	C	1.474180	0.608674	0.903982
C91	C	0.974188	0.108674	0.595943
C92	C	1.474188	0.608674	1.095943
C93	C	0.974191	0.108673	0.700010
C94	C	1.474191	0.608673	1.200010
C95	C	0.974177	0.108674	0.299908
C96	C	1.474177	0.608674	0.799908
H97	H	0.395606	0.107346	0.150757
H98	H	0.895606	0.607346	0.650757
H99	H	0.857455	-0.115681	-0.000037
H100	H	1.357455	0.384319	0.499963
H101	H	1.073491	-0.417665	-0.000039
H102	H	1.573491	0.082335	0.499961
N103	N	0.851908	0.218046	0.596992
N104	N	1.351908	0.718046	1.096992
N105	N	0.851920	0.218042	0.682687
N106	N	1.351920	0.718042	1.182687
H107	H	0.808284	0.257073	0.717320
H108	H	1.308284	0.757073	1.217320
H109	H	0.552767	0.109998	-0.150851
H110	H	1.052767	0.609998	0.349149
H111	H	0.865681	-0.266293	-0.000041
H112	H	1.365681	0.233707	0.499959
H113	H	0.395627	0.107353	-0.150846
H114	H	0.895627	0.607353	0.349154
H115	H	0.864424	0.206843	0.412904
H116	H	1.364424	0.706843	0.912904
H117	H	1.083927	0.010507	0.412892
H118	H	1.583927	0.510507	0.912892
H119	H	0.552728	0.110000	0.150764
H120	H	1.052728	0.610000	0.650764
N121	N	0.789025	-0.471292	-0.000056
N122	N	1.289025	0.028708	0.499944
N123	N	0.738355	-0.474196	-0.064330
N124	N	1.238355	0.025804	0.435670
H125	H	0.681574	-0.437397	-0.064336
H126	H	1.181574	0.062603	0.435664
N127	N	0.798195	-0.639130	-0.000040
N128	N	1.298195	-0.139130	0.499960
N129	N	0.783673	-0.683343	0.064236
N130	N	1.283673	-0.183343	0.564236
H131	H	0.730172	-0.706445	0.064247
H132	H	1.230172	-0.206445	0.564247
N133	N	1.107222	-0.677535	-0.000052
N134	N	1.607222	-0.177535	0.499948
N135	N	1.173440	-0.648951	-0.000043
N136	N	1.673440	-0.148951	0.499957
H137	H	1.230222	-0.685747	-0.000046
H138	H	1.730222	-0.185747	0.499954
H139	H	1.083929	0.010504	0.587011
H140	H	1.583929	0.510504	1.087011
N141	N	1.098061	-0.509733	-0.000035
N142	N	1.598061	-0.009733	0.499965
N143	N	1.168322	-0.555294	-0.000042
N144	N	1.668322	-0.055294	0.499958
H145	H	1.221840	-0.532219	-0.000039
H146	H	1.721840	-0.032219	0.499961
N147	N	1.159334	-0.311363	-0.000023
N148	N	1.659334	0.188637	0.499977
N149	N	1.163373	-0.385488	-0.000027
N150	N	1.663373	0.114512	0.499973
H151	H	1.220147	-0.422299	-0.000024
H152	H	1.720147	0.077701	0.499976
H153	H	1.134809	-0.150162	-0.000023
H154	H	1.634809	0.349838	0.499977
N155	N	0.858573	-0.354411	-0.000043
N156	N	1.358573	0.145589	0.499957
N157	N	0.839008	-0.305956	-0.064317
N158	N	1.339008	0.194044	0.435683
H159	H	0.782239	-0.269138	-0.064328
H160	H	1.282239	0.230862	0.435672
