data_functionalizedCrystal
_audit_creation_method	'MofGen! by Chris Wilmer'
_symmetry_space_group_name_H-M	'P1'
_symmetry_Int_Tables_number	1
_symmetry_cell_setting	triclinic
loop_
_symmetry_equiv_pos_as_xyz
  x,y,z
_cell_length_a	13.339070
_cell_length_b	15.944551
_cell_length_c	12.376457
_cell_angle_alpha	101.276265
_cell_angle_beta	75.589755
_cell_angle_gamma	99.564016
loop_
_atom_site_label
_atom_site_type_symbol
_atom_site_fract_x
_atom_site_fract_y
_atom_site_fract_z
O1	O	1.361721	0.409519	-0.094056
O2	O	1.861721	0.909519	0.405944
O3	O	1.067189	0.354248	-0.094048
O4	O	1.567189	0.854248	0.405952
O5	O	1.222496	0.261484	-0.094042
O6	O	1.722496	0.761484	0.405958
O7	O	1.206414	0.502283	-0.094062
O8	O	1.706414	1.002283	0.405938
O9	O	1.183683	0.284634	0.093969
O10	O	1.683683	0.784634	0.593969
O11	O	1.028376	0.377398	0.093963
O12	O	1.528376	0.877398	0.593963
O13	O	1.322908	0.432670	0.093955
O14	O	1.822908	0.932670	0.593955
Zn15	Zn	1.169480	0.408710	0.123810
Zn16	Zn	1.669480	0.908710	0.623810
Zn17	Zn	1.220618	0.378208	-0.123903
Zn18	Zn	1.720618	0.878208	0.376097
O19	O	1.167601	0.525433	0.093949
O20	O	1.667601	1.025433	0.593949
C21	C	1.010092	0.356487	-0.000041
C22	C	1.510092	0.856487	0.499959
C23	C	0.897788	0.328657	-0.000038
C24	C	1.397788	0.828657	0.499962
C25	C	0.533017	0.545045	-0.000074
C26	C	1.033017	1.045045	0.499926
C27	C	0.638533	0.571195	-0.000081
C28	C	1.138533	1.071195	0.499919
C29	C	0.703352	0.510563	-0.000069
C30	C	1.203352	1.010563	0.499931
C31	C	0.662645	0.423776	-0.000053
C32	C	1.162645	0.923776	0.499947
C33	C	0.557120	0.397623	-0.000055
C34	C	1.057120	0.897623	0.499945
C35	C	0.727455	0.363140	-0.000050
C36	C	1.227455	0.863140	0.499950
C37	C	0.686748	0.276354	-0.000033
C38	C	1.186748	0.776354	0.499967
C39	C	0.581233	0.250205	-0.000035
C40	C	1.081233	0.750205	0.499965
C41	C	0.516415	0.310837	-0.000046
C42	C	1.016415	0.810837	0.499954
C43	C	0.832979	0.389294	-0.000048
C44	C	1.332979	0.889294	0.499952
C45	C	0.857082	0.241871	-0.000029
C46	C	1.357082	0.741871	0.499971
C47	C	0.751566	0.215722	-0.000022
C48	C	1.251566	0.715722	0.499978
C49	C	1.202422	0.241610	-0.000036
C50	C	1.702422	0.741610	0.499964
C51	C	1.200420	0.147897	-0.000036
C52	C	1.700420	0.647897	0.499964
C53	C	1.099369	-0.090507	-0.000048
C54	C	1.599369	0.409493	0.499952
C55	C	1.127158	-0.129176	0.092651
C56	C	1.627158	0.370824	0.592651
C57	C	1.196799	-0.023674	-0.000044
C58	C	1.696799	0.476326	0.499956
C59	C	1.165448	-0.151979	-0.092713
C60	C	1.665448	0.348021	0.407287
C61	C	1.193296	-0.189405	-0.000057
C62	C	1.693296	0.310595	0.499943
C63	C	1.224599	-0.061099	0.092732
C64	C	1.724599	0.438901	0.592732
C65	C	1.262892	-0.083908	-0.092715
C66	C	1.762892	0.416092	0.407285
C67	C	1.290747	-0.122540	0.000007
C68	C	1.790747	0.377460	0.500007
C69	C	1.198814	0.071800	-0.000036
C70	C	1.698814	0.571800	0.499964
C71	C	1.191287	-0.284874	-0.000058
C72	C	1.691287	0.215126	0.499942
C73	C	1.380005	0.430431	-0.000054
C74	C	1.880005	0.930431	0.499946
C75	C	1.492311	0.458260	-0.000065
C76	C	1.992311	0.958260	0.499935
C77	C	1.187676	0.545308	-0.000059
C78	C	1.687676	1.045308	0.499941
C79	C	1.189680	0.639019	-0.000067
C80	C	1.689680	1.139019	0.499933
N81	N	1.134587	0.429527	0.292867
N82	N	1.634587	0.929527	0.792867
N83	N	1.255518	0.357386	-0.292960
N84	N	1.755518	0.857386	0.207040
C85	C	1.336516	0.309045	0.647859
C86	C	1.836516	0.809045	1.147859
C87	C	1.360931	0.294473	0.529520
C88	C	1.860931	0.794473	1.029520
C89	C	1.304347	0.328235	0.470351
C90	C	1.804347	0.828235	0.970351
C91	C	1.223343	0.376572	0.529532
C92	C	1.723343	0.876572	1.029532
C93	C	1.198930	0.391151	0.647883
C94	C	1.698930	0.891151	1.147883
C95	C	1.166762	0.410341	0.470375
C96	C	1.666762	0.910341	0.970375
C97	C	1.085758	0.458678	0.529556
C98	C	1.585758	0.958678	1.029556
C99	C	1.061349	0.473254	0.647895
C100	C	1.561349	0.973254	1.147895
C101	C	1.117933	0.439492	0.707064
C102	C	1.617933	0.939492	1.207064
C103	C	1.191175	0.395762	0.352024
C104	C	1.691175	0.895762	0.852024
C105	C	1.053590	0.477868	0.352048
C106	C	1.553590	0.977868	0.852048
C107	C	1.029174	0.492440	0.470387
C108	C	1.529174	0.992440	0.970387
H109	H	0.866111	0.459956	-0.000057
H110	H	1.366111	0.959956	0.499943
H111	H	0.430494	0.289550	-0.000040
H112	H	0.930494	0.789550	0.499960
H113	H	1.249577	-0.021853	0.171188
H114	H	1.749577	0.478147	0.671188
H115	H	0.909859	0.192498	-0.000025
H116	H	1.409859	0.692498	0.499975
F117	F	1.396531	-0.141223	0.000069
F118	F	1.896531	0.358777	0.500069
H119	H	0.548096	0.179536	-0.000034
H120	H	1.048096	0.679536	0.499966
F121	F	0.942965	0.543883	0.533384
F122	F	1.442965	1.043883	1.033384
H123	H	0.789267	0.531859	-0.000078
H124	H	1.289267	1.031859	0.499922
H125	H	1.426885	0.255119	0.481339
H126	H	1.926885	0.755119	0.981339
F127	F	1.132707	-0.203407	-0.195140
F128	F	1.632707	0.296593	0.304860
F129	F	0.681850	0.663555	-0.000103
F130	F	1.181850	1.163555	0.499897
F131	F	0.708230	0.123359	-0.000005
F132	F	1.208230	0.623359	0.499995
F133	F	1.091944	0.454996	0.833016
F134	F	1.591944	0.954996	1.333016
H135	H	1.320246	-0.063834	-0.171092
H136	H	1.820246	0.436166	0.328908
H137	H	1.257129	0.356407	0.303849
H138	H	1.757129	0.856407	0.803849
H139	H	1.018478	-0.076032	0.000046
H140	H	1.518478	0.423968	0.500046
F141	F	0.975148	0.524708	0.710880
F142	F	1.475148	1.024708	1.210880
H143	H	1.007515	0.505362	0.303873
H144	H	1.507515	1.005362	0.803873
H145	H	1.382585	0.281565	0.696043
H146	H	1.882585	0.781565	1.196043
F147	F	0.464031	0.609562	-0.000101
F148	F	0.964031	1.109562	0.499899
F149	F	1.052149	-0.155396	0.195090
F150	F	1.552149	0.344604	0.695090
F151	F	1.330333	0.312724	0.344404
F152	F	1.830333	0.812724	0.844404
