data_functionalizedCrystal
_audit_creation_method	'MofGen! by Chris Wilmer'
_symmetry_space_group_name_H-M	'P1'
_symmetry_Int_Tables_number	1
_symmetry_cell_setting	triclinic
loop_
_symmetry_equiv_pos_as_xyz
  x,y,z
_cell_length_a	12.759401
_cell_length_b	19.805406
_cell_length_c	19.805399
_cell_angle_alpha	89.983420
_cell_angle_beta	90.017303
_cell_angle_gamma	89.999420
loop_
_atom_site_label
_atom_site_type_symbol
_atom_site_fract_x
_atom_site_fract_y
_atom_site_fract_z
Zn1	Zn	-1.606308	-0.269525	-0.382730
Zn2	Zn	-1.606248	-0.382713	-0.269564
Zn3	Zn	-1.430620	-0.269538	-0.269559
Zn4	Zn	-1.430634	-0.382672	-0.382715
O5	O	-1.518452	-0.326112	-0.326142
O6	O	-1.753321	-0.284551	-0.367727
O7	O	-1.582919	-0.367723	-0.174847
O8	O	-1.453944	-0.174820	-0.284576
O9	O	-1.753277	-0.367710	-0.284584
O10	O	-1.583022	-0.174810	-0.367723
O11	O	-1.453885	-0.284574	-0.174843
O12	O	-1.283601	-0.284534	-0.284562
O13	O	-1.453970	-0.367640	-0.477434
O14	O	-1.283611	-0.367653	-0.367697
O15	O	-1.583036	-0.284511	-0.477445
O16	O	-1.582933	-0.477424	-0.284569
O17	O	-1.453911	-0.477394	-0.367701
C18	C	-1.245485	-0.326091	-0.326127
C19	C	-1.128708	-0.326099	-0.326137
C20	C	-1.518445	-0.501968	-0.326149
C21	C	-1.518538	-0.577200	-0.326174
C22	C	-1.518511	-0.326069	-0.502685
C23	C	-1.518536	-0.326051	-0.577917
C24	C	-0.964140	-0.282880	-0.369500
C25	C	-1.073864	-0.282874	-0.369495
C26	C	-1.073823	-0.369337	-0.282785
C27	C	-0.964101	-0.369347	-0.282794
C28	C	-0.909301	-0.239647	-0.412856
C29	C	-0.964179	-0.196409	-0.456209
C30	C	-1.073903	-0.196403	-0.456205
C31	C	-1.128749	-0.239635	-0.412847
C32	C	-0.792486	-0.326126	-0.326154
C33	C	-0.909262	-0.326114	-0.326150
C34	C	-1.518488	-0.149569	-0.326151
C35	C	-1.518504	-0.074337	-0.326154
C36	C	-1.451330	0.387450	-0.282885
C37	C	-1.451328	0.316761	-0.282879
C38	C	-1.518530	0.281425	-0.326167
C39	C	-1.585745	0.316780	-0.369458
C40	C	-1.585752	0.387467	-0.369460
C41	C	-1.585721	0.031707	-0.369451
C42	C	-1.585707	-0.038985	-0.369448
C43	C	-1.451298	-0.038999	-0.282871
C44	C	-1.451304	0.031688	-0.282872
C45	C	-1.518523	0.067037	-0.326161
C46	C	-1.518526	0.143686	-0.326165
C47	C	-1.518522	0.204777	-0.326166
C48	C	-1.585743	-0.282764	-0.613268
C49	C	-1.585754	-0.282744	-0.683957
C50	C	-1.518563	-0.326016	-0.719293
C51	C	-1.451349	-0.369305	-0.683937
C52	C	-1.451333	-0.369321	-0.613249
C53	C	-1.451408	-0.369242	-0.969010
C54	C	-1.451431	-0.369224	-1.039702
C55	C	-1.585828	-0.282665	-1.039717
C56	C	-1.585813	-0.282681	-0.969030
C57	C	-1.518596	-0.325967	-0.933680
C58	C	-1.518583	-0.325987	-0.857032
C59	C	-1.518579	-0.326000	-0.795940
C60	C	-1.518454	-0.326106	-0.150286
C61	C	-1.518633	-0.325933	-0.075055
H62	H	-0.819958	-0.239645	-0.412862
H63	H	-1.396603	0.416216	-0.247638
C64	C	-1.133557	-0.416194	-0.235735
C65	C	-1.241393	-0.406918	-0.244993
C66	C	-1.296450	-0.450063	-0.201654
H67	H	-1.115720	-0.461714	-0.245525
H68	H	-1.115604	-0.406222	-0.190261
H69	H	-1.259339	-0.416894	-0.290457
H70	H	-1.259261	-0.361407	-0.235198
H71	H	-1.278497	-0.440091	-0.156179
H72	H	-1.278605	-0.495580	-0.211447
H73	H	-1.369622	-0.443771	-0.207925
H74	H	-0.919419	-0.404553	-0.247496
H75	H	-1.640483	-0.247497	-0.712736
C76	C	-1.378241	0.278503	-0.235854
C77	C	-1.319367	0.324579	-0.197961
C78	C	-1.252017	0.289360	-0.154639
H79	H	-1.418298	0.250918	-0.206302
H80	H	-1.332417	0.250949	-0.261729
H81	H	-1.365185	0.352121	-0.172089
H82	H	-1.279288	0.352165	-0.227496
H83	H	-1.206192	0.261806	-0.180514
H84	H	-1.292082	0.261776	-0.125091
H85	H	-1.212056	0.320617	-0.128928
C86	C	-1.378304	0.069931	-0.235799
C87	C	-1.319464	0.023842	-0.197872
C88	C	-1.252218	0.059045	-0.154492
H89	H	-1.332445	0.097518	-0.261612
H90	H	-1.418467	0.097481	-0.206275
H91	H	-1.279304	-0.003697	-0.227392
H92	H	-1.365295	-0.003747	-0.172045
H93	H	-1.292381	0.086595	-0.124968
H94	H	-1.206366	0.086631	-0.180310
H95	H	-1.212294	0.027779	-0.128749
H96	H	-0.919516	-0.161215	-0.491513
C97	C	-1.658740	-0.235550	-1.078012
C98	C	-1.635895	-0.168586	-1.060801
C99	C	-1.703049	-0.125168	-1.096055
H100	H	-1.649195	-0.241641	-1.125182
H101	H	-1.729343	-0.245427	-1.066419
H102	H	-1.565309	-0.158713	-1.072398
H103	H	-1.645447	-0.162473	-1.013637
H104	H	-1.773652	-0.135045	-1.084462
H105	H	-1.693498	-0.131265	-1.143223
H106	H	-1.687564	-0.079729	-1.084378
H107	H	-1.396711	-0.404463	-1.068471
C108	C	-1.133297	-0.149390	-0.503299
C109	C	-1.061782	-0.111522	-0.541256
C110	C	-1.116455	-0.068196	-0.584639
H111	H	-1.176125	-0.175239	-0.532809
H112	H	-1.176057	-0.119826	-0.477466
H113	H	-1.019040	-0.141081	-0.567088
H114	H	-1.018952	-0.085658	-0.511765
H115	H	-1.159215	-0.038633	-0.558805
H116	H	-1.159281	-0.094051	-0.614144
H117	H	-1.067941	-0.042493	-0.610394
H118	H	-1.218094	-0.239621	-0.412842
C119	C	-1.658526	0.278376	-0.416541
C120	C	-1.599036	0.237824	-0.459928
C121	C	-1.666040	0.202443	-0.503318
H122	H	-1.704309	0.250734	-0.390731
H123	H	-1.698539	0.309529	-0.442366
H124	H	-1.559040	0.206674	-0.434106
H125	H	-1.553255	0.265450	-0.485753
H126	H	-1.706054	0.233597	-0.529143
H127	H	-1.711820	0.174805	-0.477503
H128	H	-1.625686	0.174930	-0.532765
H129	H	-1.396568	-0.067789	-0.247621
C130	C	-1.658789	-0.077231	-0.416474
C131	C	-1.717678	-0.031145	-0.454373
C132	C	-1.785013	-0.066352	-0.497692
H133	H	-1.618720	-0.104796	-0.446023
H134	H	-1.704605	-0.104803	-0.390597
H135	H	-1.671868	-0.003584	-0.480247
H136	H	-1.757767	-0.003578	-0.424841
H137	H	-1.830829	-0.093924	-0.471816
H138	H	-1.744937	-0.093916	-0.527237
H139	H	-1.824984	-0.035088	-0.523407
H140	H	-1.640461	-0.247529	-0.584503
C141	C	-1.658755	0.425728	-0.416538
C142	C	-1.717584	0.379654	-0.454462
C143	C	-1.784839	0.414875	-0.497844
H144	H	-1.704619	0.453298	-0.390727
H145	H	-1.618598	0.453297	-0.446064
H146	H	-1.757738	0.352097	-0.424941
H147	H	-1.671747	0.352083	-0.480288
H148	H	-1.744682	0.442444	-0.527370
H149	H	-1.830696	0.442444	-0.472027
H150	H	-1.824755	0.383619	-0.523585
C151	C	-1.658584	-0.235649	-0.930585
C152	C	-1.599080	-0.192285	-0.889995
C153	C	-1.666074	-0.148948	-0.854567
H154	H	-1.698626	-0.209800	-0.961691
H155	H	-1.704341	-0.261521	-0.902969
H156	H	-1.553341	-0.166415	-0.917609
H157	H	-1.559040	-0.218115	-0.858877
H158	H	-1.711832	-0.174820	-0.826951
H159	H	-1.706114	-0.123104	-0.885678
H160	H	-1.625712	-0.119525	-0.827018
C161	C	-1.378376	-0.416302	-0.930758
C162	C	-1.319553	-0.454200	-0.976836
C163	C	-1.252263	-0.497561	-0.941621
H164	H	-1.332509	-0.390476	-0.903186
H165	H	-1.418507	-0.445844	-0.903192
H166	H	-1.279425	-0.424661	-1.004391
H167	H	-1.365392	-0.480039	-1.004410
H168	H	-1.292394	-0.527103	-0.914054
H169	H	-1.206403	-0.471730	-0.914050
H170	H	-1.212350	-0.523285	-0.972879
C171	C	-1.378509	-0.416260	-0.722421
C172	C	-1.392926	-0.406996	-0.791893
C173	C	-1.325854	-0.450247	-0.827364
H174	H	-1.307875	-0.406393	-0.710912
H175	H	-1.393881	-0.461756	-0.710873
H176	H	-1.377545	-0.361510	-0.803436
H177	H	-1.463545	-0.416868	-0.803422
H178	H	-1.341227	-0.495743	-0.815816
H179	H	-1.255224	-0.440376	-0.815850
H180	H	-1.335633	-0.443972	-0.874504
H181	H	-1.640451	0.060482	-0.404699
C182	C	-1.378407	-0.416247	-0.574743
C183	C	-1.392752	-0.406986	-0.505276
C184	C	-1.325576	-0.450195	-0.469784
H185	H	-1.393707	-0.461751	-0.586244
H186	H	-1.307799	-0.406325	-0.586283
H187	H	-1.463345	-0.416913	-0.493741
H188	H	-1.377445	-0.361491	-0.493756
H189	H	-1.254968	-0.440273	-0.481324
H190	H	-1.340881	-0.495696	-0.481290
H191	H	-1.335293	-0.443913	-0.422647
