data_functionalizedCrystal
_audit_creation_method	'MofGen! by Chris Wilmer'
_symmetry_space_group_name_H-M	'P1'
_symmetry_Int_Tables_number	1
_symmetry_cell_setting	triclinic
loop_
_symmetry_equiv_pos_as_xyz
  x,y,z
_cell_length_a	17.038272
_cell_length_b	16.109301
_cell_length_c	14.586319
_cell_angle_alpha	90.000787
_cell_angle_beta	89.995924
_cell_angle_gamma	92.713482
loop_
_atom_site_label
_atom_site_type_symbol
_atom_site_fract_x
_atom_site_fract_y
_atom_site_fract_z
O1	O	0.100495	-1.110268	-0.076183
O2	O	0.113001	-0.869094	-0.076198
O3	O	-0.007067	-0.988248	-0.076183
O4	O	0.220564	-0.991114	-0.076198
O5	O	-0.007069	-0.988239	0.076298
O6	O	0.113000	-0.869085	0.076283
O7	O	0.100493	-1.110259	0.076298
Cu8	Cu	0.106746	-0.989671	0.090213
Cu9	Cu	0.106748	-0.989682	-0.090113
O10	O	0.220562	-0.991105	0.076283
C11	C	0.112494	-0.838079	0.000041
C12	C	0.110975	-0.745676	0.000035
N13	N	0.106744	-0.989670	0.217045
C14	C	-0.036196	-0.985636	0.000057
C15	C	-0.122989	-0.977857	0.000056
C16	C	-0.173104	-1.049277	0.000062
C17	C	-0.254654	-1.041963	0.000052
C18	C	-0.286089	-0.963228	0.000044
C19	C	-0.235967	-0.891802	0.000036
C20	C	-0.154418	-0.899116	0.000039
C21	C	-0.531846	-0.937385	0.000030
C22	C	-0.613402	-0.930076	0.000031
C23	C	-0.632083	-1.080238	0.000045
C24	C	-0.550532	-1.087546	0.000053
C25	C	-0.500418	-1.016120	0.000040
C26	C	-0.369446	-0.955749	0.000038
C27	C	-0.417062	-1.023599	0.000040
C28	C	0.249691	-0.993717	0.000041
C29	C	0.336484	-1.001496	0.000036
C30	C	0.101001	-1.141274	0.000057
C31	C	0.102519	-1.233677	0.000057
C32	C	0.178690	-0.528212	0.000042
C33	C	0.177257	-0.441390	0.000048
C34	C	0.034799	-0.451147	0.000053
C35	C	0.036233	-0.537968	0.000054
C36	C	0.108181	-0.576498	0.000043
C37	C	0.105314	-0.402855	0.000049
C38	C	0.103759	-0.308719	0.000055
C39	C	0.109736	-0.670640	0.000039
N40	N	0.106744	-0.989689	-0.216945
C41	C	0.053596	-1.042451	0.452058
C42	C	0.053594	-1.042453	0.548039
C43	C	0.159895	-0.936902	0.548036
C44	C	0.159893	-0.936896	0.452056
C45	C	0.106744	-0.989675	0.404070
C46	C	0.106744	-0.989684	0.596030
C47	C	0.106743	-0.989686	0.700098
C48	C	0.106744	-0.989672	0.299996
H49	H	-0.295455	-1.100122	0.000059
C50	C	-0.040265	-0.590501	-0.000090
C51	C	-0.043588	-0.640647	-0.078525
C52	C	-0.114038	-0.689059	-0.078679
H53	H	-0.083384	-0.555220	-0.000138
H54	H	-0.042673	-0.624619	0.053057
H55	H	-0.041188	-0.606532	-0.131658
H56	H	-0.000486	-0.675945	-0.078494
H57	H	-0.116446	-0.723178	-0.025532
H58	H	-0.157151	-0.653772	-0.078724
H59	H	-0.116299	-0.723095	-0.131891
C60	C	-0.516254	-1.172958	0.000097
C61	C	-0.434111	-1.164077	0.000121
C62	C	-0.402508	-1.242741	0.000176
H63	H	-0.533367	-1.202680	-0.053061
H64	H	-0.533416	-1.202619	0.053293
H65	H	-0.416956	-1.134429	-0.053069
H66	H	-0.416976	-1.134370	0.053276
H67	H	-0.419669	-1.272402	0.053371
H68	H	-0.419626	-1.272456	-0.052984
H69	H	-0.346770	-1.236726	0.000200
H70	H	0.203169	-0.893932	0.587116
C71	C	0.256881	-0.569890	0.000087
C72	C	0.318322	-0.509016	0.000112
C73	C	0.390365	-0.547376	0.000169
H74	H	0.260519	-0.603552	-0.053072
H75	H	0.260441	-0.603535	0.053282
H76	H	0.314765	-0.475386	-0.053077
H77	H	0.314711	-0.475351	0.053267
H78	H	0.393924	-0.581020	0.053364
H79	H	0.393994	-0.581037	-0.052991
H80	H	0.432061	-0.506079	0.000195
H81	H	0.234672	-0.402079	0.000048
H82	H	0.203173	-0.893916	0.412982
C83	C	-0.043336	-0.409359	0.000241
C84	C	-0.085957	-0.433401	0.078700
C85	C	-0.157936	-0.394916	0.078906
H86	H	-0.072457	-0.425567	-0.052871
H87	H	-0.034127	-0.350730	0.000286
H88	H	-0.095168	-0.492017	0.078646
H89	H	-0.056860	-0.417192	0.131824
H90	H	-0.148727	-0.336287	0.078951
H91	H	-0.187049	-0.411127	0.025791
H92	H	-0.186860	-0.411217	0.132144
H93	H	-0.147517	-1.113392	0.000074
H94	H	-0.672894	-1.138389	0.000053
C95	C	-0.647380	-0.844512	-0.000036
C96	C	-0.586039	-0.783524	-0.000075
C97	C	-0.617310	-0.704699	-0.000150
H98	H	-0.678796	-0.838410	0.053121
H99	H	-0.678779	-0.838508	-0.053233
H100	H	-0.554653	-0.789525	0.053116
H101	H	-0.554618	-0.789599	-0.053229
H102	H	-0.648709	-0.698696	-0.053346
H103	H	-0.648726	-0.698606	0.053008
H104	H	-0.575696	-0.663310	-0.000185
C105	C	-0.004200	-1.099776	0.400123
C106	C	-0.050760	-1.145978	0.462697
C107	C	-0.104020	-1.198785	0.414892
H108	H	0.023839	-1.136446	0.362671
H109	H	-0.036798	-1.067582	0.362708
H110	H	-0.018166	-1.178169	0.500096
H111	H	-0.078816	-1.109330	0.500151
H112	H	-0.136617	-1.166591	0.377477
H113	H	-0.075974	-1.235449	0.377441
H114	H	-0.135621	-1.230134	0.457341
H115	H	-0.491053	-0.879224	0.000020
C116	C	-0.270244	-0.806389	0.000075
C117	C	-0.352388	-0.815267	0.000101
C118	C	-0.383989	-0.736602	0.000152
H119	H	-0.253125	-0.776672	-0.053086
H120	H	-0.253087	-0.776725	0.053268
H121	H	-0.369539	-0.844918	-0.053087
H122	H	-0.369529	-0.844970	0.053258
H123	H	-0.366831	-0.706939	0.053345
H124	H	-0.366864	-0.706891	-0.053010
H125	H	-0.439726	-0.742615	0.000178
H126	H	-0.391465	-1.087705	0.000026
C127	C	-0.004199	-1.099615	0.600189
C128	C	-0.052088	-1.051948	0.655279
C129	C	-0.105346	-1.104578	0.703322
H130	H	0.023843	-1.136228	0.637701
H131	H	-0.035896	-1.131030	0.557889
H132	H	-0.020395	-1.020548	0.697573
H133	H	-0.080148	-1.015337	0.617789
H134	H	-0.137043	-1.135992	0.661023
H135	H	-0.077297	-1.141188	0.740829
H136	H	-0.137850	-1.072243	0.740700
H137	H	-0.113615	-0.840958	0.000035
H138	H	-0.395049	-0.891642	0.000034
