data_functionalizedCrystal
_audit_creation_method	'MofGen! by Chris Wilmer'
_symmetry_space_group_name_H-M	'P1'
_symmetry_Int_Tables_number	1
_symmetry_cell_setting	triclinic
loop_
_symmetry_equiv_pos_as_xyz
  x,y,z
_cell_length_a	13.032831
_cell_length_b	13.897448
_cell_length_c	13.897441
_cell_angle_alpha	90.030599
_cell_angle_beta	97.193526
_cell_angle_gamma	82.822399
loop_
_atom_site_label
_atom_site_type_symbol
_atom_site_fract_x
_atom_site_fract_y
_atom_site_fract_z
Zn1	Zn	1.597719	-0.571548	0.732369
Zn2	Zn	2.097719	-0.071548	1.232369
Zn3	Zn	1.597604	-0.732856	0.571057
Zn4	Zn	2.097604	-0.232856	1.071057
Zn5	Zn	1.422952	-0.551073	0.550633
Zn6	Zn	1.922952	-0.051073	1.050633
Zn7	Zn	1.422932	-0.712283	0.711867
Zn8	Zn	1.922932	-0.212283	1.211867
O9	O	1.510302	-0.641940	0.641481
O10	O	2.010302	-0.141940	1.141481
O11	O	1.743946	-0.610124	0.728098
O12	O	2.243946	-0.110124	1.228098
O13	O	1.574397	-0.708783	0.433361
O14	O	2.074397	-0.208783	0.933361
O15	O	1.446192	-0.418814	0.574774
O16	O	1.946192	0.081186	1.074774
O17	O	1.743861	-0.728636	0.609582
O18	O	2.243861	-0.228636	1.109582
O19	O	1.574592	-0.433857	0.708294
O20	O	2.074592	0.066143	1.208294
O21	O	1.446080	-0.575228	0.418356
O22	O	1.946080	-0.075228	0.918356
O23	O	1.276708	-0.555280	0.554894
O24	O	1.776708	-0.055280	1.054894
O25	O	1.446158	-0.693573	0.849573
O26	O	1.946158	-0.193573	1.349573
O27	O	1.276694	-0.673720	0.673351
O28	O	1.776694	-0.173720	1.173351
O29	O	1.574573	-0.590175	0.864635
O30	O	2.074573	-0.090175	1.364635
O31	O	1.574377	-0.865102	0.589702
O32	O	2.074377	-0.365102	1.089702
O33	O	1.446047	-0.849987	0.693155
O34	O	1.946047	-0.349987	1.193155
C35	C	1.238782	-0.610047	0.609682
C36	C	1.738782	-0.110047	1.109682
C37	C	1.122625	-0.596426	0.596101
C38	C	1.622625	-0.096426	1.096101
C39	C	1.070858	-0.649049	0.648569
C40	C	1.570858	-0.149049	1.148569
C41	C	0.950803	-0.634972	0.634534
C42	C	1.450803	-0.134972	1.134534
C43	C	1.510226	-0.892545	0.641444
C44	C	2.010226	-0.392545	1.141444
C45	C	1.510289	-0.999767	0.641472
C46	C	2.010289	-0.499767	1.141472
C47	C	1.510399	-1.196075	0.641545
C48	C	2.010399	-0.696075	1.141545
C49	C	1.510335	-1.086835	0.641507
C50	C	2.010335	-0.586835	1.141507
C51	C	1.782882	-0.673959	0.673405
C52	C	2.282882	-0.173959	1.173405
C53	C	1.899040	-0.687603	0.687009
C54	C	2.399040	-0.187603	1.187009
C55	C	1.510376	-0.641863	0.893083
C56	C	2.010376	-0.141863	1.393083
C57	C	1.510408	-0.641831	1.000301
C58	C	2.010408	-0.141831	1.500301
C59	C	1.510407	-0.390359	0.641543
C60	C	2.010407	0.109641	1.141543
C61	C	1.510452	-0.283151	0.641569
C62	C	2.010452	0.216849	1.141569
C63	C	1.510288	-0.641954	0.390865
C64	C	2.010288	-0.141954	0.890865
C65	C	1.510459	-0.641738	0.283672
C66	C	2.010459	-0.141738	0.783672
C67	C	1.510436	-0.641769	1.196599
C68	C	2.010436	-0.141769	1.696599
C69	C	1.510417	-0.641806	1.087365
C70	C	2.010417	-0.141806	1.587365
H71	H	1.115419	-0.704520	0.703883
H72	H	1.615419	-0.204520	1.203883
H73	H	1.078063	-0.540948	0.540795
H74	H	1.578063	-0.040948	1.040795
N75	N	0.954908	-0.757214	0.756399
N76	N	1.454908	-0.257214	1.256399
N77	N	0.906298	-0.806697	0.805730
N78	N	1.406298	-0.306697	1.305730
H79	H	0.945754	-0.855860	0.854736
H80	H	1.445754	-0.355860	1.354736
H81	H	0.906246	-0.579491	0.579224
H82	H	1.406246	-0.079491	1.079224
