data_functionalizedCrystal
_audit_creation_method	'MofGen! by Chris Wilmer'
_symmetry_space_group_name_H-M	'P1'
_symmetry_Int_Tables_number	1
_symmetry_cell_setting	triclinic
loop_
_symmetry_equiv_pos_as_xyz
  x,y,z
_cell_length_a	16.109301
_cell_length_b	14.853567
_cell_length_c	14.586319
_cell_angle_alpha	90.000002
_cell_angle_beta	89.999213
_cell_angle_gamma	83.548205
loop_
_atom_site_label
_atom_site_type_symbol
_atom_site_fract_x
_atom_site_fract_y
_atom_site_fract_z
O1	O	1.103294	0.115881	-0.076175
O2	O	1.603294	0.615881	0.423825
O3	O	0.861252	0.130302	-0.076188
O4	O	1.361252	0.630302	0.423812
O5	O	0.988738	-0.008149	-0.076184
O6	O	1.488738	0.491851	0.423816
O7	O	0.975807	0.254332	-0.076179
O8	O	1.475807	0.754332	0.423821
O9	O	0.988729	-0.008151	0.076297
O10	O	1.488729	0.491849	0.576297
O11	O	0.861243	0.130300	0.076293
O12	O	1.361243	0.630300	0.576293
O13	O	1.103285	0.115879	0.076306
O14	O	1.603285	0.615879	0.576306
Cu15	Cu	0.982263	0.123089	0.090222
Cu16	Cu	1.482263	0.623089	0.590222
Cu17	Cu	0.982274	0.123091	-0.090104
Cu18	Cu	1.482274	0.623091	0.409896
O19	O	0.975799	0.254330	0.076302
O20	O	1.475799	0.754330	0.576302
C21	C	0.830272	0.129717	0.000050
C22	C	1.330272	0.629717	0.500050
C23	C	0.737974	0.127965	0.000045
C24	C	1.237974	0.627965	0.500045
C25	C	0.515811	0.206047	0.000057
C26	C	1.015811	0.706047	0.500057
C27	C	0.429089	0.204395	0.000063
C28	C	0.929089	0.704395	0.500063
C29	C	0.448732	0.040127	0.000056
C30	C	0.948732	0.540127	0.500056
C31	C	0.535453	0.041781	0.000057
C32	C	1.035453	0.541781	0.500057
C33	C	0.568990	0.124743	0.000052
C34	C	1.068990	0.624743	0.500052
C35	C	0.395546	0.121437	0.000058
C36	C	0.895546	0.621437	0.500058
C37	C	0.301518	0.119645	0.000064
C38	C	0.801518	0.619645	0.500064
C39	C	0.663025	0.126536	0.000048
C40	C	1.163025	0.626536	0.500048
C41	C	0.988148	-0.041738	0.000054
C42	C	1.488148	0.458262	0.500054
C43	C	0.986392	-0.141819	0.000046
C44	C	1.486392	0.358181	0.500046
C45	C	0.903241	-0.554215	0.000059
C46	C	1.403241	-0.054215	0.500059
C47	C	1.054697	-0.575746	0.000067
C48	C	1.554697	-0.075746	0.500067
C49	C	1.056348	-0.481715	0.000062
C50	C	1.556348	0.018285	0.500062
C51	C	0.981444	-0.423930	0.000056
C52	C	1.481444	0.076070	0.500056
C53	C	0.904889	-0.460175	0.000056
C54	C	1.404889	0.039825	0.500056
C55	C	1.132901	-0.445463	0.000071
C56	C	1.632901	0.054537	0.500071
C57	C	1.134555	-0.351426	0.000067
C58	C	1.634555	0.148574	0.500067
C59	C	1.059650	-0.293639	0.000055
C60	C	1.559650	0.206361	0.500055
C61	C	0.983093	-0.329890	0.000054
C62	C	1.483093	0.170110	0.500054
C63	C	0.908189	-0.272104	0.000048
C64	C	1.408189	0.227896	0.500048
C65	C	0.831630	-0.308353	0.000040
C66	C	1.331630	0.191647	0.500040
C67	C	0.829984	-0.402388	0.000044
C68	C	1.329984	0.097612	0.500044
C69	C	1.061296	-0.199604	0.000051
C70	C	1.561296	0.300396	0.500051
C71	C	0.909837	-0.178064	0.000046
C72	C	1.409837	0.321936	0.500046
C73	C	1.134265	0.116464	0.000066
C74	C	1.634265	0.616464	0.500066
C75	C	1.226563	0.118215	0.000065
C76	C	1.726563	0.618215	0.500065
C77	C	0.976389	0.287918	0.000062
C78	C	1.476389	0.787918	0.500062
C79	C	0.978145	0.387999	0.000064
C80	C	1.478145	0.887999	0.500064
N81	N	0.982262	0.123087	0.217054
N82	N	1.482262	0.623087	0.717054
N83	N	0.982281	0.123087	-0.216936
N84	N	1.482281	0.623087	0.283064
C85	C	1.038731	0.061801	0.452062
C86	C	1.538731	0.561801	0.952062
C87	C	1.038734	0.061799	0.548044
C88	C	1.538734	0.561799	1.048044
C89	C	0.925806	0.184375	0.548049
C90	C	1.425806	0.684375	1.048049
C91	C	0.925800	0.184372	0.452070
C92	C	1.425800	0.684372	0.952070
C93	C	0.982268	0.123086	0.404079
C94	C	1.482268	0.623086	0.904079
C95	C	0.982276	0.123087	0.596039
C96	C	1.482276	0.623087	1.096039
C97	C	0.982278	0.123085	0.700107
C98	C	1.482278	0.623085	1.200107
C99	C	0.982265	0.123087	0.300005
C100	C	1.482265	0.623087	0.800005
H101	H	0.385793	0.270600	0.000068
H102	H	0.885793	0.770600	0.500068
C103	C	0.411838	-0.051124	0.000049
C104	C	0.911838	0.448876	0.500049
H105	H	0.352573	-0.040466	0.000039
H106	H	0.852573	0.459534	0.500039
H107	H	0.430083	-0.084606	0.053219
H108	H	0.930083	0.415394	0.553219
H109	H	0.430088	-0.084593	-0.053135
H110	H	0.930088	0.415407	0.446865
H111	H	0.578754	-0.024431	0.000056
H112	H	1.078754	0.475569	0.500056
H113	H	0.848840	-0.131020	0.000037
H114	H	1.348840	0.368980	0.500037
H115	H	1.084709	0.011897	0.412990
H116	H	1.584709	0.511897	0.912990
H117	H	0.879816	0.234278	0.412999
H118	H	1.379816	0.734278	0.912999
H119	H	1.084711	0.011894	0.587109
H120	H	1.584711	0.511894	1.087109
H121	H	0.770643	-0.261292	0.000042
H122	H	1.270643	0.238708	0.500042
H123	H	1.123629	-0.170094	0.000064
H124	H	1.623629	0.329906	0.500064
H125	H	0.767654	-0.431911	0.000039
H126	H	1.267654	0.068089	0.500039
C127	C	0.819033	-0.594084	0.000054
C128	C	1.319033	-0.094084	0.500054
H129	H	0.828774	-0.658364	0.000061
H130	H	1.328774	-0.158364	0.500061
H131	H	0.788189	-0.574247	-0.053119
H132	H	1.288189	-0.074247	0.446881
H133	H	0.788188	-0.574248	0.053234
H134	H	1.288188	-0.074248	0.553234
H135	H	1.115680	-0.622800	0.000079
H136	H	1.615680	-0.122800	0.500079
H137	H	0.879832	0.234274	0.587133
H138	H	1.379832	0.734274	1.087133
C139	C	1.215287	-0.509025	0.000084
C140	C	1.715287	-0.009025	0.500084
H141	H	1.203339	-0.570219	0.000075
H142	H	1.703339	-0.070219	0.500075
H143	H	1.246667	-0.498040	0.053261
H144	H	1.746667	0.001960	0.553261
H145	H	1.246679	-0.498041	-0.053092
H146	H	1.746679	0.001959	0.446908
C147	C	1.218764	-0.311560	0.000063
C148	C	1.718764	0.188440	0.500063
H149	H	1.263137	-0.359444	0.000060
H150	H	1.763137	0.140556	0.500060
H151	H	1.222558	-0.275317	0.053231
H152	H	1.722558	0.224683	0.553231
H153	H	1.222555	-0.275333	-0.053123
H154	H	1.722555	0.224667	0.446877
H155	H	0.543114	0.273601	0.000060
H156	H	1.043114	0.773601	0.500060
