data_functionalizedCrystal
_audit_creation_method	'MofGen! by Chris Wilmer'
_symmetry_space_group_name_H-M	'P1'
_symmetry_Int_Tables_number	1
_symmetry_cell_setting	triclinic
loop_
_symmetry_equiv_pos_as_xyz
  x,y,z
_cell_length_a	27.732048
_cell_length_b	27.732048
_cell_length_c	7.540329
_cell_angle_alpha	89.991480
_cell_angle_beta	90.002547
_cell_angle_gamma	82.642655
loop_
_atom_site_label
_atom_site_type_symbol
_atom_site_fract_x
_atom_site_fract_y
_atom_site_fract_z
O1	O	0.640926	0.057516	-0.147273
O2	O	0.500133	0.066262	-0.147329
O3	O	0.574902	-0.008508	-0.147265
O4	O	0.566157	0.132286	-0.147336
O5	O	0.574898	-0.008509	0.147700
O6	O	0.500128	0.066261	0.147636
O7	O	0.640922	0.057515	0.147692
Cu8	Cu	0.570525	0.061888	0.174597
Cu9	Cu	0.570530	0.061889	-0.174234
O10	O	0.566152	0.132285	0.147629
C11	C	0.482124	0.066078	0.000147
C12	C	0.428469	0.065525	0.000127
C13	C	0.574716	-0.026515	0.000222
C14	C	0.574164	-0.080170	0.000236
C15	C	0.614867	-0.418985	0.000162
C16	C	0.612816	-0.620645	0.000136
O17	O	0.650037	-0.651900	0.000073
N18	N	0.568481	-0.639768	0.000120
C19	C	0.524656	-0.608474	0.000099
O20	O	0.486899	-0.629367	0.000066
C21	C	0.526707	-0.406815	0.000111
C22	C	0.571045	-0.387694	0.000145
C23	C	0.659202	-0.399864	0.000194
C24	C	0.659714	-0.349452	0.000210
C25	C	0.615892	-0.318161	0.000194
C26	C	0.571557	-0.337282	0.000162
C27	C	0.482882	-0.375521	0.000077
C28	C	0.483399	-0.325104	0.000076
C29	C	0.527737	-0.305983	0.000110
C30	C	0.528248	-0.255580	0.000162
N31	N	0.572583	-0.236456	0.000178
C32	C	0.616405	-0.267747	0.000194
C33	C	0.523582	-0.714348	0.000095
C34	C	0.523069	-0.764762	0.000095
C35	C	0.611230	-0.776930	0.000129
C36	C	0.611742	-0.726514	0.000142
C37	C	0.567917	-0.695224	0.000111
C38	C	0.617477	-0.161878	0.000229
C39	C	0.617986	-0.111461	0.000252
C40	C	0.529825	-0.099298	0.000209
C41	C	0.529316	-0.149710	0.000195
C42	C	0.573147	-0.180999	0.000199
O43	O	0.491047	-0.224296	0.000204
O44	O	0.654156	-0.246844	0.000187
C45	C	0.614355	-0.469397	0.000145
C46	C	0.570021	-0.488518	0.000113
C47	C	0.526198	-0.457228	0.000097
C48	C	0.569508	-0.538933	0.000113
C49	C	0.613330	-0.570223	0.000129
C50	C	0.657665	-0.551100	0.000145
C51	C	0.658177	-0.500688	0.000161
C52	C	0.481863	-0.476351	0.000081
C53	C	0.481355	-0.526764	0.000067
C54	C	0.525177	-0.558054	0.000083
C55	C	0.089654	0.106229	0.000183
C56	C	-0.112006	0.104178	0.000200
O57	O	-0.143262	0.141398	0.000258
N58	N	-0.131130	0.059843	0.000219
C59	C	-0.099835	0.016017	0.000246
O60	O	-0.120728	-0.021740	0.000281
C61	C	0.101824	0.018068	0.000241
C62	C	0.120944	0.062407	0.000204
C63	C	0.108775	0.150563	0.000148
C64	C	0.159187	0.151075	0.000134
C65	C	0.190477	0.107253	0.000155
C66	C	0.171356	0.062919	0.000190
C67	C	0.133117	-0.025757	0.000281
C68	C	0.183535	-0.025240	0.000284
C69	C	0.202655	0.019098	0.000247
C70	C	0.253059	0.019609	0.000198
N71	N	0.272183	0.063944	0.000179
C72	C	0.240892	0.107766	0.000157
C73	C	-0.205709	0.014943	0.000244
C74	C	-0.256124	0.014430	0.000242
C75	C	-0.268291	0.102591	0.000200
C76	C	-0.217876	0.103104	0.000189
C77	C	-0.186585	0.059278	0.000225
C78	C	0.346761	0.108839	0.000127
C79	C	0.397178	0.109347	0.000105
C80	C	0.409341	0.021186	0.000157
C81	C	0.358929	0.020678	0.000169
C82	C	0.327639	0.064508	0.000160
O83	O	0.284343	-0.017592	0.000160
O84	O	0.261794	0.145518	0.000162
C85	C	0.039242	0.105716	0.000197
C86	C	0.020120	0.061382	0.000232
C87	C	0.051411	0.017560	0.000253
C88	C	-0.030294	0.060869	0.000230
C89	C	-0.061585	0.104691	0.000209
C90	C	-0.042461	0.149026	0.000189
C91	C	0.007951	0.149539	0.000176
C92	C	0.032287	-0.026775	0.000273
C93	C	-0.018125	-0.027284	0.000284
C94	C	-0.049416	0.016538	0.000263
C95	C	0.658931	0.057699	0.000213
C96	C	0.712586	0.058252	0.000221
C97	C	0.566338	0.150292	0.000137
C98	C	0.566891	0.203947	0.000111
N99	N	0.570524	0.061887	0.419945
N100	N	0.570534	0.061886	-0.419582
H101	H	0.653168	-0.187348	0.000225
O102	O	0.114493	-0.068796	0.000560
C103	C	0.064673	-0.120558	0.153485
C104	C	0.085723	-0.071791	0.153367
H105	H	0.041417	-0.122999	0.277035
H106	H	0.041342	-0.123016	0.030133
H107	H	0.095711	-0.151778	0.153424
H108	H	0.054716	-0.040542	0.153490
H109	H	0.109068	-0.069374	0.276708
O110	O	-0.072793	0.191640	0.000092
C111	C	-0.079558	0.279138	0.000167
C112	C	-0.045149	0.230918	0.000224
H113	H	-0.057222	0.310907	0.000312
H114	H	-0.103460	0.281134	-0.123299
H115	H	-0.103470	0.281069	0.123586
H116	H	-0.021206	0.228955	-0.123111
H117	H	-0.021281	0.228943	0.123772
H118	H	0.023514	0.185643	0.000148
O119	O	-0.199384	0.146216	0.000244
C120	C	-0.216788	0.233604	0.000086
C121	C	-0.237790	0.184812	0.000061
H122	H	-0.247828	0.264822	-0.000099
H123	H	-0.193508	0.236084	0.123561
H124	H	-0.193473	0.236024	-0.123324
H125	H	-0.261126	0.182359	0.123388
H126	H	-0.261042	0.182353	-0.123495
H127	H	0.447710	-0.299629	0.000048
H128	H	-0.271687	-0.021674	0.000245
H129	H	0.654093	-0.095896	0.000285
O130	O	0.702827	-0.330962	0.000149
C131	C	0.790215	-0.348370	0.000279
C132	C	0.741422	-0.369369	0.000312
H133	H	0.821432	-0.379412	0.000449
H134	H	0.792697	-0.325085	-0.123190
H135	H	0.792637	-0.325061	0.123695
H136	H	0.738967	-0.392700	-0.123019
H137	H	0.738961	-0.392627	0.123864
O138	O	0.479956	-0.783252	0.000003
C139	C	0.392567	-0.765849	0.000063
C140	C	0.441359	-0.744847	0.000140
H141	H	0.361349	-0.734809	0.000211
H142	H	0.390090	-0.789124	-0.123412
H143	H	0.390144	-0.789170	0.123473
H144	H	0.443815	-0.721505	-0.123187
H145	H	0.443816	-0.721600	0.123696
O146	O	0.654799	-0.707920	0.000473
C147	C	0.706537	-0.658051	0.153237
C148	C	0.657760	-0.679082	0.153111
H149	H	0.708942	-0.634724	0.276613
H150	H	0.737786	-0.689062	0.153366
H151	H	0.708979	-0.634771	0.029734
H152	H	0.655271	-0.702357	0.276593
H153	H	0.626535	-0.648049	0.152890
O154	O	-0.036638	-0.070388	0.000081
C155	C	-0.041681	-0.145889	-0.152708
C156	C	-0.020677	-0.097098	-0.152699
H157	H	-0.028793	-0.167494	-0.276236
H158	H	-0.028745	-0.167554	-0.029334
H159	H	-0.083088	-0.138723	-0.152610
H160	H	0.020731	-0.104221	-0.152859
H161	H	-0.033650	-0.075449	-0.276062
H162	H	0.174750	0.187180	0.000103
O163	O	0.481019	-0.683937	-0.000237
C164	C	0.430434	-0.619936	-0.153007
C165	C	0.478649	-0.654353	-0.152881
H166	H	0.428507	-0.596002	-0.276387
H167	H	0.398645	-0.642247	-0.153128
H168	H	0.428471	-0.596057	-0.029508
H169	H	0.480659	-0.678240	-0.276359
H170	H	0.510415	-0.632014	-0.152667
O171	O	0.701762	-0.430274	-0.000102
C172	C	0.752355	-0.494263	-0.152816
C173	C	0.704139	-0.459847	-0.152740
H174	H	0.754288	-0.518188	-0.276192
H175	H	0.784143	-0.471951	-0.152910
H176	H	0.754314	-0.518151	-0.029313
H177	H	0.702132	-0.435952	-0.276222
H178	H	0.672373	-0.482188	-0.152554
O179	O	0.316391	0.151427	-0.000209
C180	C	0.290595	0.226633	-0.153035
C181	C	0.325008	0.178416	-0.152878
H182	H	0.297557	0.248471	-0.276436
H183	H	0.251266	0.218688	-0.153137
H184	H	0.297510	0.248452	-0.029557
H185	H	0.318137	0.156573	-0.276335
H186	H	0.364326	0.186395	-0.152684
O187	O	0.439824	-0.394112	0.000339
C188	C	0.388073	-0.443992	0.153011
C189	C	0.436850	-0.422962	0.152967
H190	H	0.385657	-0.467330	0.276378
H191	H	0.356825	-0.412980	0.153098
H192	H	0.385641	-0.467261	0.029499
H193	H	0.439330	-0.399699	0.276457
H194	H	0.468075	-0.453996	0.152787
H195	H	0.209009	-0.060929	0.000315
H196	H	-0.293777	0.138273	0.000183
H197	H	0.493213	-0.165279	0.000216
H198	H	0.494146	-0.073812	0.000202
H199	H	0.694282	-0.485125	0.000189
O200	O	0.700222	-0.581520	-0.000158
C201	C	0.750784	-0.645520	-0.152928
C202	C	0.702580	-0.611086	-0.152812
H203	H	0.752702	-0.669440	-0.276316
H204	H	0.782583	-0.623223	-0.153026
H205	H	0.752738	-0.669413	-0.029437
H206	H	0.700578	-0.587186	-0.276281
H207	H	0.670803	-0.633413	-0.152621
H208	H	0.646911	-0.802415	0.000143
H209	H	-0.180236	-0.020747	0.000274
H210	H	0.445246	-0.542327	0.000055
H211	H	0.446177	-0.450879	0.000064
O212	O	0.078452	0.193180	0.000042
C213	C	0.071721	0.280677	0.000072
C214	C	0.106113	0.232445	0.000169
H215	H	0.094071	0.312435	0.000212
H216	H	0.047824	0.282677	-0.123407
H217	H	0.047804	0.282622	0.123478
H218	H	0.130061	0.230467	-0.123153
H219	H	0.129977	0.230465	0.123730
H220	H	0.343360	-0.015426	0.000173
H221	H	0.412743	0.145454	0.000074
O222	O	0.439692	-0.021413	0.000413
C223	C	0.465549	-0.096589	0.153339
C224	C	0.431141	-0.048368	0.153235
H225	H	0.458656	-0.118391	0.276901
H226	H	0.458633	-0.118463	0.029999
H227	H	0.504861	-0.088591	0.153244
H228	H	0.391817	-0.056321	0.153393
H229	H	0.438100	-0.026508	0.276564
O230	O	0.062727	-0.069316	0.000044
C231	C	0.126673	-0.119921	-0.152844
C232	C	0.092238	-0.071718	-0.152768
H233	H	0.150535	-0.121883	-0.276398
H234	H	0.150620	-0.121901	-0.029496
H235	H	0.104329	-0.151683	-0.152743
H236	H	0.114544	-0.039928	-0.152931
H237	H	0.068290	-0.069780	-0.276105
