data_functionalizedCrystal
_audit_creation_method	'MofGen! by Chris Wilmer'
_symmetry_space_group_name_H-M	'P1'
_symmetry_Int_Tables_number	1
_symmetry_cell_setting	triclinic
loop_
_symmetry_equiv_pos_as_xyz
  x,y,z
_cell_length_a	18.215407
_cell_length_b	19.077068
_cell_length_c	18.215385
_cell_angle_alpha	92.204791
_cell_angle_beta	89.935053
_cell_angle_gamma	92.327501
loop_
_atom_site_label
_atom_site_type_symbol
_atom_site_fract_x
_atom_site_fract_y
_atom_site_fract_z
Zn1	Zn	1.113645	-0.279734	-0.427850
Zn2	Zn	1.446978	0.053599	-0.094517
Zn3	Zn	1.780311	0.386932	0.238816
Zn4	Zn	1.108505	-0.397565	-0.309726
Zn5	Zn	1.441838	-0.064231	0.023607
Zn6	Zn	1.775171	0.269102	0.356941
Zn7	Zn	0.990474	-0.279891	-0.304804
Zn8	Zn	1.323807	0.053442	0.028529
Zn9	Zn	1.657140	0.386775	0.361863
Zn10	Zn	0.985599	-0.397392	-0.432744
Zn11	Zn	1.318932	-0.064058	-0.099411
Zn12	Zn	1.652265	0.269275	0.233923
O13	O	1.049555	-0.338645	-0.368781
O14	O	1.382889	-0.005312	-0.035448
O15	O	1.716222	0.328021	0.297886
O16	O	1.215947	-0.295372	-0.412193
O17	O	1.549280	0.037962	-0.078859
O18	O	1.882613	0.371295	0.254474
O19	O	1.092736	-0.382093	-0.206094
O20	O	1.426070	-0.048760	0.127239
O21	O	1.759403	0.284573	0.460572
O22	O	1.011004	-0.181384	-0.317018
O23	O	1.344337	0.151949	0.016315
O24	O	1.677671	0.485283	0.349648
O25	O	1.212170	-0.381941	-0.325407
O26	O	1.545504	-0.048608	0.007926
O27	O	1.878837	0.284726	0.341259
O28	O	1.101497	-0.181268	-0.407420
O29	O	1.434830	0.152065	-0.074087
O30	O	1.768164	0.485398	0.259247
O31	O	1.006020	-0.295639	-0.202478
O32	O	1.339353	0.037694	0.130855
O33	O	1.672686	0.371027	0.464189
O34	O	0.886843	-0.295471	-0.321763
O35	O	1.220176	0.037862	0.011570
O36	O	1.553510	0.371195	0.344903
O37	O	1.002695	-0.381646	-0.535073
O38	O	1.336029	-0.048313	-0.201740
O39	O	1.669362	0.285021	0.131593
O40	O	0.883261	-0.381798	-0.415760
O41	O	1.216595	-0.048465	-0.082427
O42	O	1.549928	0.284869	0.250906
O43	O	1.096770	-0.295204	-0.531478
O44	O	1.430103	0.038130	-0.198145
O45	O	1.763437	0.371463	0.135189
O46	O	1.088010	-0.496028	-0.330152
O47	O	1.421343	-0.162695	0.003181
O48	O	1.754676	0.170638	0.336514
O49	O	0.997711	-0.495901	-0.420533
O50	O	1.331045	-0.162568	-0.087200
O51	O	1.664378	0.170765	0.246133
C52	C	0.858350	-0.338633	-0.368759
C53	C	1.191683	-0.005300	-0.035426
C54	C	1.525016	0.328033	0.297907
C55	C	0.776550	-0.338645	-0.368768
C56	C	1.109884	-0.005312	-0.035435
C57	C	1.443217	0.328021	0.297898
C58	C	0.586508	-0.383666	-0.417656
C59	C	0.919841	-0.050333	-0.084323
C60	C	1.253174	0.283000	0.249010
C61	C	0.509649	-0.383669	-0.417666
C62	C	0.842982	-0.050335	-0.084332
C63	C	1.176315	0.282998	0.249001
C64	C	0.513355	-0.293637	-0.319922
C65	C	0.846688	0.039696	0.013411
C66	C	1.180021	0.373029	0.346745
C67	C	0.590212	-0.293632	-0.319917
C68	C	0.923546	0.039701	0.013416
C69	C	1.256879	0.373035	0.346750
C70	C	0.626787	-0.338651	-0.368783
C71	C	0.960120	-0.005317	-0.035450
C72	C	1.293453	0.328016	0.297883
C73	C	0.473070	-0.338658	-0.368798
C74	C	0.806404	-0.005325	-0.035464
C75	C	1.139737	0.328009	0.297869
C76	C	0.389736	-0.338660	-0.368807
C77	C	0.723070	-0.005327	-0.035474
C78	C	1.056403	0.328007	0.297859
C79	C	0.710126	-0.338648	-0.368775
C80	C	1.043459	-0.005315	-0.035441
C81	C	1.376792	0.328019	0.297892
C82	C	1.041794	-0.521501	-0.376424
C83	C	1.375127	-0.188168	-0.043091
C84	C	1.708460	0.145165	0.290243
C85	C	1.038540	-0.599728	-0.379718
C86	C	1.371874	-0.266394	-0.046385
C87	C	1.705207	0.066939	0.286948
C88	C	1.084062	-0.636522	-0.334249
C89	C	1.417395	-0.303188	-0.000915
C90	C	1.750729	0.030145	0.332418
C91	C	1.081007	-0.710024	-0.337351
C92	C	1.414340	-0.376690	-0.004018
C93	C	1.747673	-0.043357	0.329315
C94	C	1.032425	-0.746730	-0.385921
C95	C	1.365759	-0.413397	-0.052587
C96	C	1.699092	-0.080064	0.280746
C97	C	0.986902	-0.709932	-0.431395
C98	C	1.320235	-0.376598	-0.098062
C99	C	1.653568	-0.043265	0.235271
C100	C	0.989961	-0.636431	-0.428296
C101	C	1.323295	-0.303097	-0.094963
C102	C	1.656628	0.030236	0.238371
C103	C	1.018233	-0.966549	-0.400236
C104	C	1.351566	-0.633216	-0.066903
C105	C	1.684899	-0.299883	0.266430
C106	C	1.015175	-1.040055	-0.403331
C107	C	1.348508	-0.706722	-0.069998
C108	C	1.681842	-0.373389	0.263336
C109	C	1.109281	-1.040142	-0.309288
C110	C	1.442615	-0.706809	0.024046
C111	C	1.775948	-0.373476	0.357379
C112	C	1.112333	-0.966640	-0.306189
C113	C	1.445667	-0.633307	0.027144
C114	C	1.779000	-0.299974	0.360477
C115	C	1.066813	-0.929848	-0.351666
C116	C	1.400146	-0.596514	-0.018333
C117	C	1.733479	-0.263181	0.315000
N118	N	1.029299	-0.821861	-0.389092
N119	N	1.362633	-0.488528	-0.055759
N120	N	1.695966	-0.155195	0.277575
N121	N	1.069943	-0.854718	-0.348499
N122	N	1.403276	-0.521385	-0.015165
N123	N	1.736610	-0.188051	0.318168
C124	C	1.241508	-0.338658	-0.368803
C125	C	1.574841	-0.005325	-0.035470
C126	C	1.908174	0.328009	0.297864
C127	C	1.323306	-0.338663	-0.368813
C128	C	1.656640	-0.005330	-0.035479
C129	C	1.989973	0.328003	0.297854
C130	C	1.049762	-0.338388	-0.560724
C131	C	1.383096	-0.005055	-0.227390
C132	C	1.716429	0.328279	0.105943
C133	C	1.049850	-0.338278	-0.642518
C134	C	1.383184	-0.004945	-0.309185
C135	C	1.716517	0.328389	0.024148
C136	C	1.057368	-0.155076	-0.361124
C137	C	1.390701	0.178258	-0.027791
C138	C	1.724034	0.511591	0.305542
C139	C	1.060697	-0.076849	-0.357861
C140	C	1.394030	0.256484	-0.024528
C141	C	1.727363	0.589818	0.308805
C142	C	1.049394	-0.338851	-0.177583
C143	C	1.382727	-0.005518	0.155750
C144	C	1.716060	0.327815	0.489084
C145	C	1.049457	-0.338763	-0.095780
C146	C	1.382790	-0.005429	0.237553
C147	C	1.716123	0.327904	0.570886
C148	C	1.004119	-0.293877	0.094256
C149	C	1.337452	0.039457	0.427589
C150	C	1.670786	0.372790	0.760923
C151	C	1.004187	-0.293793	0.171118
C152	C	1.337520	0.039540	0.504451
C153	C	1.670853	0.372874	0.837785
C154	C	1.095193	-0.383166	0.167440
C155	C	1.428527	-0.049833	0.500773
C156	C	1.761860	0.283501	0.834107
C157	C	1.095129	-0.383246	0.090579
C158	C	1.428462	-0.049913	0.423913
C159	C	1.761795	0.283421	0.757246
C160	C	1.049587	-0.338602	0.053989
C161	C	1.382921	-0.005269	0.387323
C162	C	1.716254	0.328064	0.720656
C163	C	1.049720	-0.338439	0.207712
C164	C	1.383053	-0.005105	0.541045
C165	C	1.716386	0.328228	0.874379
C166	C	1.049793	-0.338348	0.291049
C167	C	1.383127	-0.005015	0.624383
C168	C	1.716460	0.328319	0.957716
C169	C	1.049514	-0.338692	-0.029353
C170	C	1.382848	-0.005359	0.303980
C171	C	1.716181	0.327975	0.637314
H172	H	0.616284	-0.420322	-0.457448
H173	H	0.949618	-0.086988	-0.124115
H174	H	1.282951	0.246345	0.209218
H175	H	1.132159	-0.419667	0.057793
H176	H	1.465492	-0.086334	0.391127
H177	H	1.798825	0.246999	0.724460
O178	O	0.969115	-0.926869	-0.449262
O179	O	1.302449	-0.593536	-0.115928
O180	O	1.635782	-0.260203	0.217405
H181	H	0.934809	-0.964745	-0.483541
H182	H	1.268142	-0.631411	-0.150208
H183	H	1.601475	-0.298078	0.183126
O184	O	0.955145	-0.245553	0.214549
O185	O	1.288478	0.087780	0.547882
O186	O	1.621812	0.421114	0.881215
H187	H	0.989379	-0.209480	0.250904
H188	H	1.322712	0.123853	0.584237
H189	H	1.656046	0.457186	0.917570
H190	H	1.118075	-0.739978	-0.300325
H191	H	1.451408	-0.406644	0.033009
H192	H	1.784741	-0.073311	0.366342
O193	O	1.164738	-0.927048	-0.253811
O194	O	1.498072	-0.593715	0.079523
O195	O	1.831405	-0.260382	0.412856
H196	H	1.195886	-0.964983	-0.222719
H197	H	1.529219	-0.631649	0.110615
H198	H	1.862553	-0.298316	0.443948
H199	H	0.483566	-0.256986	-0.280136
H200	H	0.816900	0.076348	0.053197
H201	H	1.150233	0.409681	0.386531
H202	H	0.476857	-0.420324	-0.457464
H203	H	0.810190	-0.086991	-0.124131
H204	H	1.143524	0.246343	0.209202
H205	H	0.623009	-0.256970	-0.280118
H206	H	0.956342	0.076363	0.053215
H207	H	1.289675	0.409696	0.386548
O208	O	1.144309	-0.431320	0.206902
O209	O	1.477643	-0.097987	0.540236
O210	O	1.810976	0.235347	0.873569
H211	H	1.110138	-0.467321	0.240568
H212	H	1.443472	-0.133988	0.573901
H213	H	1.776805	0.199346	0.907234
H214	H	1.123619	-0.606640	-0.294695
H215	H	1.456952	-0.273306	0.038638
H216	H	1.790286	0.060027	0.371972
H217	H	1.146343	-1.070107	-0.272264
H218	H	1.479676	-0.736773	0.061070
H219	H	1.813009	-0.403440	0.394403
H220	H	0.967039	-0.257523	0.064467
H221	H	1.300372	0.075811	0.397800
H222	H	1.633706	0.409144	0.731133
O223	O	0.962776	-1.079657	-0.455716
O224	O	1.296110	-0.746323	-0.122383
O225	O	1.629443	-0.412990	0.210950
H226	H	0.976007	-1.065453	-0.512891
H227	H	1.309340	-0.732119	-0.179558
H228	H	1.642674	-0.398786	0.153776
O229	O	0.934496	-0.749524	-0.483773
O230	O	1.267829	-0.416191	-0.150439
O231	O	1.601162	-0.082857	0.182894
H232	H	0.966046	-0.782929	-0.522649
H233	H	1.299379	-0.449595	-0.189316
H234	H	1.632713	-0.116262	0.144017
O235	O	0.940855	-0.596740	-0.477329
O236	O	1.274189	-0.263407	-0.143996
O237	O	1.607522	0.069926	0.189338
H238	H	0.906552	-0.634612	-0.511616
H239	H	1.239885	-0.301278	-0.178283
H240	H	1.573219	0.032055	0.155050
