data_functionalizedCrystal
_audit_creation_method	'MofGen! by Chris Wilmer'
_symmetry_space_group_name_H-M	'P1'
_symmetry_Int_Tables_number	1
_symmetry_cell_setting	triclinic
loop_
_symmetry_equiv_pos_as_xyz
  x,y,z
_cell_length_a	12.594517
_cell_length_b	12.594516
_cell_length_c	12.645323
_cell_angle_alpha	89.976054
_cell_angle_beta	89.976317
_cell_angle_gamma	90.015485
loop_
_atom_site_label
_atom_site_type_symbol
_atom_site_fract_x
_atom_site_fract_y
_atom_site_fract_z
Zn1	Zn	1.627282	-0.423750	-0.599482
Zn2	Zn	1.627169	-0.601753	-0.422225
Zn3	Zn	1.449282	-0.423787	-0.422223
Zn4	Zn	1.449268	-0.601685	-0.599437
O5	O	1.538250	-0.512744	-0.510841
O6	O	1.776213	-0.447375	-0.575988
O7	O	1.603530	-0.578190	-0.273877
O8	O	1.472947	-0.274836	-0.445755
O9	O	1.776130	-0.578153	-0.445757
O10	O	1.603723	-0.274809	-0.575986
O11	O	1.472837	-0.447439	-0.273876
O12	O	1.300334	-0.447373	-0.445711
O13	O	1.472924	-0.578037	-0.747790
O14	O	1.300324	-0.578074	-0.575910
O15	O	1.603711	-0.447309	-0.747823
O16	O	1.603517	-0.750690	-0.445714
O17	O	1.472814	-0.750640	-0.575911
C18	C	1.261709	-0.512721	-0.510806
C19	C	1.143404	-0.512736	-0.510816
C20	C	1.003362	-0.441570	-0.440163
C21	C	1.074223	-0.415641	-0.536898
C22	C	1.074114	-0.538618	-0.414092
C23	C	1.003480	-0.486799	-0.607680
C24	C	1.003365	-0.609821	-0.484808
C25	C	1.074194	-0.583928	-0.581610
C26	C	1.538181	-0.789285	-0.510831
C27	C	1.538248	-0.907590	-0.510862
C28	C	1.467152	-0.976855	-0.581626
C29	C	1.441216	-1.047716	-0.484893
C30	C	1.564281	-1.047528	-0.607612
C31	C	1.512261	-0.976893	-0.414078
C32	C	1.635371	-0.976699	-0.536861
C33	C	1.609472	-1.047528	-0.440062
C34	C	1.815871	-0.512768	-0.510878
C35	C	1.934177	-0.512778	-0.510893
C36	C	1.538329	-0.512661	-0.787347
C37	C	1.538362	-0.512626	-0.905177
C38	C	1.538349	-0.235123	-0.510875
C39	C	1.538392	-0.116817	-0.510889
C40	C	1.455831	-0.594480	-1.072720
C41	C	1.456047	-0.594885	-0.950160
C42	C	1.650513	-0.543068	-0.949699
C43	C	1.650061	-0.543582	-1.072298
C44	C	1.509803	-0.399873	-1.072373
C45	C	1.507301	-0.400549	-0.949766
C46	C	1.538233	-0.512749	-0.235412
C47	C	1.538406	-0.512484	-0.117582
H48	H	1.105328	-0.333552	-0.558947
C49	C	1.330340	-1.089858	-0.455192
N50	N	1.246827	-1.121596	-0.432828
C51	C	0.961740	-0.457113	-0.718261
N52	N	0.930299	-0.434748	-0.801548
C53	C	1.736012	-0.466422	-1.112395
N54	N	1.800756	-0.408314	-1.142592
C55	C	1.343142	-0.568987	-1.112525
N56	N	1.258261	-0.549784	-1.142514
C57	C	1.401237	-0.362392	-1.114108
N58	N	1.319460	-0.334173	-1.145543
C59	C	1.682805	-0.654796	-1.110954
N60	N	1.707465	-0.738566	-1.140066
H61	H	1.717420	-0.945484	-0.558876
C62	C	1.481100	-0.706562	-1.114341
N63	N	1.500142	-0.790984	-1.145685
C64	C	1.115935	-0.665265	-0.662460
N65	N	1.147372	-0.726527	-0.723359
C66	C	1.591056	-0.317344	-1.111565
N67	N	1.652261	-0.255191	-1.141088
C68	C	1.481538	-0.707673	-0.910556
N69	N	1.500718	-0.792634	-0.880727
C70	C	1.385784	-0.934920	-0.662349
N71	N	1.324495	-0.903330	-0.723143
C72	C	1.690776	-1.089196	-0.359140
N73	N	1.752008	-1.120584	-0.298187
C74	C	1.735864	-0.464945	-0.910334
N75	N	1.800149	-0.406102	-0.880681
H76	H	1.490205	-0.945994	-0.332246
H77	H	0.972218	-0.691882	-0.462743
H78	H	1.586242	-1.078555	-0.689421
C79	C	1.343696	-0.569146	-0.909489
N80	N	1.259068	-0.549764	-0.878861
H81	H	1.675173	-0.624526	-0.919012
H82	H	1.424767	-0.377591	-0.920665
C83	C	1.582601	-0.313647	-0.908379
N84	N	1.639320	-0.248193	-0.877199
C85	C	0.961337	-0.360182	-0.359507
N86	N	0.929681	-0.298878	-0.298763
C87	C	1.116030	-0.568172	-0.303540
N88	N	1.147596	-0.590425	-0.220271
