data_functionalizedCrystal
_audit_creation_method	'MofGen! by Chris Wilmer'
_symmetry_space_group_name_H-M	'P1'
_symmetry_Int_Tables_number	1
_symmetry_cell_setting	triclinic
loop_
_symmetry_equiv_pos_as_xyz
  x,y,z
_cell_length_a	10.654550
_cell_length_b	9.065218
_cell_length_c	7.540329
_cell_angle_alpha	90.003038
_cell_angle_beta	89.996554
_cell_angle_gamma	95.249592
loop_
_atom_site_label
_atom_site_type_symbol
_atom_site_fract_x
_atom_site_fract_y
_atom_site_fract_z
O1	O	0.184158	-1.959392	-0.147487
O2	O	0.199263	-1.530024	-0.147489
O3	O	0.009010	-1.754580	-0.147477
O4	O	0.374410	-1.734836	-0.147499
O5	O	0.009008	-1.754567	0.147488
O6	O	0.199261	-1.530011	0.147476
O7	O	0.184155	-1.959378	0.147478
Cu8	Cu	0.191708	-1.744693	0.174410
Cu9	Cu	0.191711	-1.744709	-0.174421
O10	O	0.374408	-1.734823	0.147466
C11	C	0.197810	-1.475039	-0.000007
C12	C	0.193469	-1.311220	-0.000008
C13	C	-0.037795	-1.753124	0.000005
C14	C	-0.177255	-1.748786	0.000002
N15	N	0.191705	-1.744693	0.419758
C16	C	-0.256217	-1.881001	0.000002
C17	C	-0.387254	-1.876917	-0.000019
C18	C	-0.360354	-1.608391	-0.000034
C19	C	-0.229320	-1.612477	-0.000025
C20	C	-0.582481	-2.032639	-0.103368
C21	C	-0.661449	-2.164861	-0.103337
C22	C	-0.630803	-2.284719	0.000031
C23	C	-0.521192	-2.272361	0.103411
C24	C	-0.442232	-2.140137	0.103397
C25	C	-0.472876	-2.020284	-0.000013
C26	C	-0.034091	-1.456764	0.103338
C27	C	0.044872	-1.324539	0.103336
C28	C	0.014230	-1.204668	-0.000021
C29	C	-0.095383	-1.217012	-0.103375
C30	C	-0.174347	-1.349237	-0.103373
C31	C	-0.143695	-1.469109	-0.000019
C32	C	0.421213	-1.736279	-0.000020
C33	C	0.560673	-1.740616	-0.000028
C34	C	0.185608	-2.014364	-0.000008
C35	C	0.189949	-2.178183	-0.000019
N36	N	0.191703	-1.744721	-0.419769
H37	H	-0.213831	-1.991993	0.000020
C38	C	-0.780294	-2.178303	-0.215901
C39	C	-0.747834	-2.156370	-0.394511
C40	C	-0.857281	-2.168765	-0.498246
H41	H	-0.833903	-2.105687	-0.179838
H42	H	-0.822939	-2.274228	-0.201196
H43	H	-0.705209	-2.060459	-0.409208
H44	H	-0.694241	-2.228978	-0.430628
H45	H	-0.899925	-2.264690	-0.483540
H46	H	-0.910882	-2.096148	-0.462167
H47	H	-0.835270	-2.153899	-0.619445
C48	C	-0.323253	-2.127023	0.215668
C49	C	-0.313299	-2.260301	0.306184
C50	C	-0.203699	-2.248289	0.409600
H51	H	-0.327059	-2.048883	0.298879
H52	H	-0.251844	-2.106631	0.141194
H53	H	-0.384690	-2.280675	0.380652
H54	H	-0.309472	-2.338461	0.223016
H55	H	-0.132290	-2.227898	0.335126
H56	H	-0.207515	-2.170145	0.492800
H57	H	-0.196924	-2.338718	0.471014
C58	C	-0.000902	-1.586784	0.215852
C59	C	0.005025	-1.544512	0.394471
C60	C	0.035574	-1.664255	0.498168
H61	H	0.078519	-1.616169	0.179759
H62	H	-0.063642	-1.667300	0.201145
H63	H	0.067762	-1.464022	0.409169
H64	H	-0.074383	-1.515141	0.430618
H65	H	-0.027166	-1.744770	0.483460
H66	H	0.114994	-1.693631	0.462059
H67	H	0.039589	-1.635594	0.619372
H68	H	-0.496258	-2.369960	0.187596
C69	C	-0.293261	-1.362387	-0.215793
C70	C	-0.303185	-1.229124	-0.306354
C71	C	-0.412698	-1.241192	-0.409951
H72	H	-0.364738	-1.382798	-0.141488
H73	H	-0.289328	-1.440552	-0.298972
H74	H	-0.307128	-1.150982	-0.223185
H75	H	-0.231735	-1.208689	-0.380691
H76	H	-0.408766	-1.319357	-0.493130
H77	H	-0.484166	-1.261606	-0.335633
H78	H	-0.419440	-1.150782	-0.471421
C79	C	-0.128410	-1.086730	-0.215556
C80	C	-0.035779	-0.968307	-0.193479
C81	C	-0.066148	-0.848269	-0.296805
H82	H	-0.207771	-1.057248	-0.179338
H83	H	-0.132462	-1.115114	-0.336858
H84	H	-0.031740	-0.939926	-0.072203
H85	H	0.043591	-0.997741	-0.229708
H86	H	-0.070201	-0.876653	-0.418106
H87	H	-0.145511	-0.818801	-0.260578
H88	H	-0.003298	-0.767910	-0.281852
H89	H	-0.695107	-2.392377	0.000053
H90	H	-0.607436	-1.935056	-0.187564
H91	H	-0.402762	-1.497413	-0.000052
H92	H	0.078524	-1.096996	0.000009
H93	H	0.134117	-1.314490	0.187515
