data_functionalizedCrystal
_audit_creation_method	'MofGen! by Chris Wilmer'
_symmetry_space_group_name_H-M	'P1'
_symmetry_Int_Tables_number	1
_symmetry_cell_setting	triclinic
loop_
_symmetry_equiv_pos_as_xyz
  x,y,z
_cell_length_a	10.654556
_cell_length_b	9.730223
_cell_length_c	10.654549
_cell_angle_alpha	90.003420
_cell_angle_beta	95.513843
_cell_angle_gamma	89.998368
loop_
_atom_site_label
_atom_site_type_symbol
_atom_site_fract_x
_atom_site_fract_y
_atom_site_fract_z
O1	O	1.667834	-0.114235	-0.176437
O2	O	1.302357	-0.114249	-0.193234
O3	O	1.493499	-0.114236	-0.002097
O4	O	1.476692	-0.114248	-0.367575
O5	O	1.493486	0.114344	-0.002091
O6	O	1.302344	0.114331	-0.193229
O7	O	1.667822	0.114345	-0.176431
Zn8	Zn	1.485081	0.150630	-0.184830
Zn9	Zn	1.485097	-0.150534	-0.184836
O10	O	1.476680	0.114332	-0.367569
C11	C	1.255553	0.000040	-0.191997
C12	C	1.116110	0.000034	-0.188302
C13	C	0.919571	-0.124554	-0.183102
C14	C	1.050593	-0.124562	-0.186566
C15	C	1.050599	0.124648	-0.186560
C16	C	0.919580	0.124655	-0.183087
C17	C	1.492259	0.000053	0.044704
C18	C	1.488567	0.000048	0.184147
C19	C	1.714626	0.000054	-0.177669
C20	C	1.854069	0.000050	-0.181364
N21	N	1.485079	0.356167	-0.184824
N22	N	1.485109	-0.356070	-0.184832
C23	C	1.569746	0.428098	-0.100224
C24	C	1.569758	0.571981	-0.100225
C25	C	1.400433	0.571988	-0.269436
C26	C	1.400416	0.428108	-0.269428
C27	C	1.477920	0.000041	-0.414370
C28	C	1.481612	0.000036	-0.553813
C29	C	1.597630	0.000043	0.394660
C30	C	1.601108	0.000054	0.263639
C31	C	1.372539	0.000046	0.235682
C32	C	1.369062	0.000044	0.366701
H33	H	1.103953	0.226097	-0.187965
Br34	Br	1.758569	0.000063	0.193715
Br35	Br	1.285540	0.669627	-0.384254
Br36	Br	1.684662	0.669600	0.014600
Br37	Br	1.285493	0.330475	-0.384240
H38	H	1.689275	0.000036	0.459374
Br39	Br	1.684643	0.330469	0.014598
H40	H	0.866246	0.226129	-0.181671
Br41	Br	1.211597	0.000050	0.436637
Br42	Br	0.830667	-0.293659	-0.180761
Br43	Br	1.139487	-0.293675	-0.188914
H44	H	1.280906	0.000049	0.170950
