data_functionalizedCrystal
_audit_creation_method	'MofGen! by Chris Wilmer'
_symmetry_space_group_name_H-M	'P1'
_symmetry_Int_Tables_number	1
_symmetry_cell_setting	triclinic
loop_
_symmetry_equiv_pos_as_xyz
  x,y,z
_cell_length_a	12.645330
_cell_length_b	21.395362
_cell_length_c	12.645324
_cell_angle_alpha	89.953742
_cell_angle_beta	90.031766
_cell_angle_gamma	89.964044
loop_
_atom_site_label
_atom_site_type_symbol
_atom_site_fract_x
_atom_site_fract_y
_atom_site_fract_z
Zn1	Zn	-0.421442	-0.957905	0.600106
Zn2	Zn	0.078558	-0.457905	1.100106
Zn3	Zn	-0.598751	-0.957835	0.422846
Zn4	Zn	-0.098751	-0.457835	0.922846
Zn5	Zn	-0.421559	-0.853123	0.422778
Zn6	Zn	0.078441	-0.353123	0.922778
Zn7	Zn	-0.598720	-0.853113	0.599989
Zn8	Zn	-0.098720	-0.353113	1.099989
O9	O	-0.510118	-0.905494	0.511429
O10	O	-0.010118	-0.405494	1.011429
O11	O	-0.444926	-1.045574	0.576669
O12	O	0.055074	-0.545574	1.076669
O13	O	-0.575308	-0.943919	0.274489
O14	O	-0.075308	-0.443919	0.774489
O15	O	-0.273196	-0.867057	0.446321
O16	O	0.226804	-0.367057	0.946321
O17	O	-0.575195	-1.045522	0.446437
O18	O	-0.075195	-0.545522	0.946437
O19	O	-0.273110	-0.944039	0.576603
O20	O	0.226890	-0.444039	1.076603
O21	O	-0.445125	-0.866988	0.274439
O22	O	0.054875	-0.366988	0.774439
O23	O	-0.445096	-0.765444	0.446208
O24	O	0.054904	-0.265444	0.946208
O25	O	-0.575142	-0.867039	0.748352
O26	O	-0.075142	-0.367039	1.248352
O27	O	-0.575255	-0.765437	0.576404
O28	O	-0.075255	-0.265437	1.076404
O29	O	-0.444896	-0.944030	0.748437
O30	O	0.055104	-0.444030	1.248437
O31	O	-0.747094	-0.943909	0.446324
O32	O	-0.247094	-0.443909	0.946324
O33	O	-0.747072	-0.866971	0.576470
O34	O	-0.247072	-0.366971	1.076470
C35	C	-0.510186	-0.742706	0.511287
C36	C	-0.010186	-0.242706	1.011287
C37	C	-0.510240	-0.673065	0.511251
C38	C	-0.010240	-0.173065	1.011251
C39	C	-0.578106	-0.640365	0.578939
C40	C	-0.078106	-0.140365	1.078939
C41	C	-0.578085	-0.574929	0.578978
C42	C	-0.078085	-0.074929	1.078978
C43	C	-0.510208	-0.542197	0.511311
C44	C	-0.010208	-0.042197	1.011311
C45	C	-0.442329	-0.574905	0.443618
C46	C	0.057671	-0.074905	0.943618
C47	C	-0.442345	-0.640340	0.443588
C48	C	0.057655	-0.140340	0.943588
C49	C	-0.501708	-0.438473	0.415862
C50	C	-0.001708	0.061527	0.915862
C51	C	-0.501700	-0.373040	0.415890
C52	C	-0.001700	0.126960	0.915890
C53	C	-0.510153	-0.340376	0.511403
C54	C	-0.010153	0.159624	1.011403
C55	C	-0.518638	-0.373154	0.606891
C56	C	-0.018638	0.126846	1.106891
C57	C	-0.518654	-0.438588	0.606862
C58	C	-0.018654	0.061412	1.106862
C59	C	-0.510183	-0.471245	0.511336
C60	C	-0.010183	0.028755	1.011336
C61	C	-0.578000	-0.236723	0.579139
C62	C	-0.078000	0.263277	1.079139
C63	C	-0.577971	-0.171286	0.579180
C64	C	-0.077971	0.328714	1.079180
C65	C	-0.442221	-0.171264	0.443811
C66	C	0.057779	0.328736	0.943811
C67	C	-0.442244	-0.236699	0.443779
C68	C	0.057756	0.263301	0.943779
C69	C	-0.510139	-0.269425	0.511442
C70	C	-0.010139	0.230575	1.011442
C71	C	-0.785548	-0.905448	0.511415
C72	C	-0.285548	-0.405448	1.011415
C73	C	-0.903378	-0.905486	0.511444
C74	C	-0.403378	-0.405486	1.011444
C75	C	-1.070971	-0.857284	0.593572
C76	C	-0.570971	-0.357284	1.093572
C77	C	-0.948412	-0.857037	0.593307
C78	C	-0.448412	-0.357037	1.093307
C79	C	-0.947995	-0.887610	0.399709
C80	C	-0.447995	-0.387610	0.899709
C81	C	-1.070593	-0.887316	0.400208
C82	C	-0.570593	-0.387316	0.900208
C83	C	-1.070428	-0.971860	0.540144
C84	C	-0.570428	-0.471860	1.040144
C85	C	-0.947821	-0.971453	0.542587
C86	C	-0.447821	-0.471453	1.042587
C87	C	-0.233613	-0.905557	0.511468
C88	C	0.266387	-0.405557	1.011468
C89	C	-0.115783	-0.905584	0.511484
C90	C	0.384217	-0.405584	1.011484
C91	C	-0.510003	-0.905541	0.787935
C92	C	-0.010003	-0.405541	1.287935
C93	C	-0.509954	-0.905561	0.905765
C94	C	-0.009954	-0.405561	1.405765
C95	C	-0.510069	-0.068917	0.511543
C96	C	-0.010069	0.431083	1.011543
C97	C	-0.510093	-0.138559	0.511514
C98	C	-0.010093	0.361441	1.011514
C99	C	-0.510156	-0.905483	0.236000
C100	C	-0.010156	-0.405483	0.736000
C101	C	-0.509907	-0.905585	0.118170
C102	C	-0.009907	-0.405585	0.618170
C103	C	-0.428253	-0.954184	1.073383
C104	C	0.071747	-0.454184	1.573383
C105	C	-0.427958	-0.954028	0.950823
C106	C	0.072042	-0.454028	1.450823
C107	C	-0.479631	-0.839553	0.950198
C108	C	0.020369	-0.339553	1.450198
C109	C	-0.479011	-0.839849	1.072796
C110	C	0.020989	-0.339849	1.572796
C111	C	-0.622096	-0.922410	1.072975
C112	C	-0.122096	-0.422410	1.572975
C113	C	-0.621531	-0.923854	0.950370
C114	C	-0.121531	-0.423854	1.450370
H115	H	-0.494819	-0.465062	0.338078
H116	H	0.005181	0.034938	0.838078
Cl117	Cl	-0.356993	-0.533757	0.358556
Cl118	Cl	0.143007	-0.033757	0.858556
H119	H	-0.494798	-0.346357	0.338137
H120	H	0.005202	0.153643	0.838137
H121	H	-0.633234	-0.144663	0.634306
H122	H	-0.133234	0.355337	1.134306
Cl123	Cl	-0.903312	-0.781177	0.563990
Cl124	Cl	-0.403312	-0.281177	1.063990
H125	H	-1.100240	-0.920969	0.336958
H126	H	-0.600240	-0.420969	0.836958
Cl127	Cl	-0.356924	-0.277811	0.358678
Cl128	Cl	0.143076	0.222189	0.858678
H129	H	-1.099314	-0.838868	0.375934
H130	H	-0.599314	-0.338868	0.875934
H131	H	-0.345604	-0.943187	1.104199
H132	H	0.154396	-0.443187	1.604199
H133	H	-1.099404	-1.007845	0.480357
H134	H	-0.599404	-0.507845	0.980357
Cl135	Cl	-0.356882	-0.130121	0.358749
Cl136	Cl	0.143118	0.369879	0.858749
Cl137	Cl	-0.902790	-0.992270	0.669545
Cl138	Cl	-0.402790	-0.492270	1.169545
Cl139	Cl	-1.118017	-0.997036	0.663805
Cl140	Cl	-0.618017	-0.497036	1.163805
Cl141	Cl	-0.664680	-0.995454	1.120776
Cl142	Cl	-0.164680	-0.495454	1.620776
Cl143	Cl	-0.352412	-0.817800	1.116957
Cl144	Cl	0.147588	-0.317800	1.616957
Cl145	Cl	-0.720513	-0.873171	0.903023
Cl146	Cl	-0.220513	-0.373171	1.403023
H147	H	-0.398538	-0.825030	0.919492
H148	H	0.101462	-0.325030	1.419492
Cl149	Cl	-0.656834	-0.998854	0.905548
Cl150	Cl	-0.156834	-0.498854	1.405548
H151	H	-0.918826	-0.921674	0.336874
H152	H	-0.418826	-0.421674	0.836874
H153	H	-0.387076	-0.666964	0.388469
H154	H	0.112924	-0.166964	0.888469
H155	H	-0.535898	-0.802406	1.102418
H156	H	-0.035898	-0.302406	1.602418
Cl157	Cl	-0.457187	-1.030006	1.118975
Cl158	Cl	0.042813	-0.530006	1.618975
H159	H	-0.917157	-1.009334	0.487156
H160	H	-0.417157	-0.509334	0.987156
H161	H	-0.446944	-1.002974	0.920786
H162	H	0.053056	-0.502974	1.420786
Cl163	Cl	-0.716026	-0.867758	1.117682
Cl164	Cl	-0.216026	-0.367758	1.617682
Cl165	Cl	-0.299645	-0.936828	0.905546
Cl166	Cl	0.200355	-0.436828	1.405546
Cl167	Cl	-0.901827	-0.874302	0.721221
Cl168	Cl	-0.401827	-0.374302	1.221221
H169	H	-0.633391	-0.667006	0.634036
H170	H	-0.133391	-0.167006	1.134036
Cl171	Cl	-1.116360	-0.874388	0.721908
Cl172	Cl	-0.616360	-0.374388	1.221908
Cl173	Cl	-0.663410	-0.533811	0.664077
Cl174	Cl	-0.163410	-0.033811	1.164077
H175	H	-0.917413	-0.839667	0.374998
H176	H	-0.417413	-0.339667	0.874998
Cl177	Cl	-1.118746	-0.781900	0.564648
Cl178	Cl	-0.618746	-0.281900	1.064648
H179	H	-0.525520	-0.346560	0.684668
H180	H	-0.025520	0.153440	1.184668
Cl181	Cl	-0.529312	-0.479791	0.726898
Cl182	Cl	-0.029312	0.020209	1.226898
Cl183	Cl	-0.663346	-0.277867	0.664205
Cl184	Cl	-0.163346	0.222133	1.164205
Cl185	Cl	-0.568638	-0.782124	0.905141
Cl186	Cl	-0.068638	-0.282124	1.405141
