data_functionalizedCrystal
_audit_creation_method	'MofGen! by Chris Wilmer'
_symmetry_space_group_name_H-M	'P1'
_symmetry_Int_Tables_number	1
_symmetry_cell_setting	triclinic
loop_
_symmetry_equiv_pos_as_xyz
  x,y,z
_cell_length_a	10.489741
_cell_length_b	8.559649
_cell_length_c	7.681459
_cell_angle_alpha	85.087351
_cell_angle_beta	84.200176
_cell_angle_gamma	102.841081
loop_
_atom_site_label
_atom_site_type_symbol
_atom_site_fract_x
_atom_site_fract_y
_atom_site_fract_z
O1	O	-0.029686	-2.104683	-0.146400
O2	O	0.036113	-1.640236	-0.146410
O3	O	-0.183498	-1.883029	-0.146394
O4	O	0.189925	-1.861890	-0.146416
O5	O	-0.210580	-1.912908	0.146465
O6	O	0.009031	-1.670115	0.146450
O7	O	-0.056767	-2.134563	0.146459
Zn8	Zn	-0.028168	-1.907083	0.192952
Zn9	Zn	0.007513	-1.867715	-0.192903
O10	O	0.162844	-1.891770	0.146444
C11	C	0.027558	-1.595703	0.000019
C12	C	0.042401	-1.418493	0.000015
C13	C	-0.244402	-1.896372	0.000034
C14	C	-0.385529	-1.891596	0.000031
N15	N	-0.052521	-1.933962	0.456288
C16	C	-0.437401	-1.737113	0.000015
C17	C	-0.550560	-1.824821	0.144412
C18	C	-0.523838	-1.795398	-0.144325
C19	C	-0.496840	-1.979379	0.144547
C20	C	-0.470095	-1.949922	-0.144320
C21	C	-0.583242	-2.037746	0.000112
C22	C	0.223748	-1.878426	0.000011
C23	C	0.364876	-1.883201	0.000003
C24	C	-0.048212	-2.179095	0.000027
C25	C	-0.063054	-2.356304	0.000019
N26	N	0.031867	-1.840836	0.543761
H27	H	-0.374389	-1.610114	0.000158
O28	O	-0.592700	-1.761439	0.289914
C29	C	-0.565099	-1.531387	0.454492
C30	C	-0.517277	-1.602966	0.289626
H31	H	-0.504124	-1.403265	0.454332
H32	H	-0.673338	-1.529319	0.453754
H33	H	-0.553183	-1.608648	0.577520
H34	H	-0.529105	-1.525767	0.166511
H35	H	-0.409057	-1.605064	0.290519
H36	H	-0.138653	-2.029040	0.531500
O37	O	-0.481516	-2.072056	0.290297
C38	C	-0.330490	-2.180614	0.453770
C39	C	-0.347659	-2.075596	0.288656
H40	H	-0.222277	-2.183538	0.452479
H41	H	-0.364319	-2.127746	0.576733
H42	H	-0.392198	-2.308410	0.454272
H43	H	-0.285956	-1.947779	0.287983
H44	H	-0.313873	-2.128595	0.165768
O45	O	-0.658168	-2.189471	0.000515
C46	C	-0.729963	-2.457774	0.153065
C47	C	-0.645074	-2.286006	0.152839
H48	H	-0.719385	-2.535880	0.276187
H49	H	-0.837638	-2.453017	0.152009
H50	H	-0.695637	-2.511617	0.031077
H51	H	-0.679284	-2.232062	0.274806
H52	H	-0.537416	-2.290869	0.153804
H53	H	-0.434638	-2.002776	-0.266400
O54	O	-0.184314	-1.454411	-0.000285
C55	C	-0.376147	-1.520358	-0.151943
C56	C	-0.238826	-1.409149	-0.151836
H57	H	-0.420273	-1.483782	-0.274440
H58	H	-0.366985	-1.650591	-0.152055
H59	H	-0.442888	-1.508960	-0.029323
H60	H	-0.172011	-1.420405	-0.274435
H61	H	-0.248091	-1.278960	-0.151633
O62	O	0.163726	-1.320314	-0.000308
C63	C	0.383611	-1.223433	-0.151991
C64	C	0.246266	-1.334660	-0.151864
H65	H	0.450391	-1.235019	-0.274492
H66	H	0.374475	-1.093174	-0.152111
H67	H	0.427673	-1.259850	-0.029375
H68	H	0.202126	-1.298388	-0.274459
H69	H	0.255488	-1.464892	-0.151653
H70	H	0.118000	-1.745776	0.468558
H71	H	-0.536628	-1.717558	-0.266413
