data_functionalizedCrystal
_audit_creation_method	'MofGen! by Chris Wilmer'
_symmetry_space_group_name_H-M	'P1'
_symmetry_Int_Tables_number	1
_symmetry_cell_setting	triclinic
loop_
_symmetry_equiv_pos_as_xyz
  x,y,z
_cell_length_a	12.594516
_cell_length_b	18.215407
_cell_length_c	18.215399
_cell_angle_alpha	89.982223
_cell_angle_beta	90.022106
_cell_angle_gamma	89.988327
loop_
_atom_site_label
_atom_site_type_symbol
_atom_site_fract_x
_atom_site_fract_y
_atom_site_fract_z
Zn1	Zn	-0.423877	-1.125117	0.416105
Zn2	Zn	-0.173877	-0.875117	0.666105
Zn3	Zn	0.076123	-0.625117	0.916105
Zn4	Zn	0.326123	-0.375117	1.166105
Zn5	Zn	-0.601875	-1.125044	0.293052
Zn6	Zn	-0.351875	-0.875044	0.543052
Zn7	Zn	-0.101875	-0.625044	0.793052
Zn8	Zn	0.148125	-0.375044	1.043052
Zn9	Zn	-0.423897	-1.002050	0.293057
Zn10	Zn	-0.173897	-0.752050	0.543057
Zn11	Zn	0.076103	-0.502050	0.793057
Zn12	Zn	0.326103	-0.252050	1.043057
Zn13	Zn	-0.601801	-1.002035	0.416081
Zn14	Zn	-0.351801	-0.752035	0.666081
Zn15	Zn	-0.101801	-0.502035	0.916081
Zn16	Zn	0.148199	-0.252035	1.166081
O17	O	-0.512863	-1.063561	0.354574
O18	O	-0.262863	-0.813561	0.604574
O19	O	-0.012863	-0.563561	0.854574
O20	O	0.237137	-0.313561	1.104574
O21	O	-0.447512	-1.228092	0.399790
O22	O	-0.197512	-0.978092	0.649790
O23	O	0.052488	-0.728092	0.899790
O24	O	0.302488	-0.478092	1.149790
O25	O	-0.578305	-1.108705	0.190068
O26	O	-0.328305	-0.858705	0.440068
O27	O	-0.078305	-0.608705	0.690068
O28	O	0.171695	-0.358705	0.940068
O29	O	-0.274949	-1.018412	0.309392
O30	O	-0.024949	-0.768412	0.559392
O31	O	0.225051	-0.518412	0.809392
O32	O	0.475051	-0.268412	1.059392
O33	O	-0.578286	-1.228038	0.309383
O34	O	-0.328286	-0.978038	0.559383
O35	O	-0.078286	-0.728038	0.809383
O36	O	0.171714	-0.478038	1.059383
O37	O	-0.274934	-1.108829	0.399795
O38	O	-0.024934	-0.858829	0.649795
O39	O	0.225066	-0.608829	0.899795
O40	O	0.475066	-0.358829	1.149795
O41	O	-0.447546	-1.018341	0.190072
O42	O	-0.197546	-0.768341	0.440072
O43	O	0.052454	-0.518341	0.690072
O44	O	0.302454	-0.268341	0.940072
O45	O	-0.447474	-0.899063	0.309369
O46	O	-0.197474	-0.649063	0.559369
O47	O	0.052526	-0.399063	0.809369
O48	O	0.302526	-0.149063	1.059369
O49	O	-0.578159	-1.018386	0.519068
O50	O	-0.328159	-0.768386	0.769068
O51	O	-0.078159	-0.518386	1.019068
O52	O	0.171841	-0.268386	1.269068
O53	O	-0.578179	-0.899052	0.399754
O54	O	-0.328179	-0.649052	0.649754
O55	O	-0.078179	-0.399052	0.899754
O56	O	0.171821	-0.149052	1.149754
O57	O	-0.447440	-1.108814	0.519086
O58	O	-0.197440	-0.858814	0.769086
O59	O	0.052560	-0.608814	1.019086
O60	O	0.302560	-0.358814	1.269086
O61	O	-0.750811	-1.108690	0.309359
O62	O	-0.500811	-0.858690	0.559359
O63	O	-0.250811	-0.608690	0.809359
O64	O	-0.000811	-0.358690	1.059359
O65	O	-0.750756	-1.018315	0.399748
O66	O	-0.500756	-0.768315	0.649748
O67	O	-0.250756	-0.518315	0.899748
O68	O	-0.000756	-0.268315	1.149748
C69	C	-0.512821	-0.872355	0.354560
C70	C	-0.262821	-0.622355	0.604560
C71	C	-0.012821	-0.372355	0.854560
C72	C	0.237179	-0.122355	1.104560
C73	C	-0.512829	-0.790556	0.354571
C74	C	-0.262829	-0.540556	0.604571
C75	C	-0.012829	-0.290556	0.854571
C76	C	0.237171	-0.040556	1.104571
C77	C	-0.444866	-0.602389	0.401719
C78	C	-0.194866	-0.352389	0.651719
C79	C	0.055134	-0.102389	0.901719
C80	C	0.305134	0.147611	1.151719
C81	C	-0.444872	-0.525530	0.401721
C82	C	-0.194872	-0.275530	0.651721
C83	C	0.055128	-0.025530	0.901721
C84	C	0.305128	0.224470	1.151721
C85	C	-0.580843	-0.525486	0.307434
C86	C	-0.330843	-0.275486	0.557434
C87	C	-0.080843	-0.025486	0.807434
C88	C	0.169157	0.224514	1.057434
C89	C	-0.580831	-0.602343	0.307429
C90	C	-0.330831	-0.352343	0.557429
C91	C	-0.080831	-0.102343	0.807429
C92	C	0.169169	0.147657	1.057429
C93	C	-0.512844	-0.640793	0.354576
C94	C	-0.262844	-0.390793	0.604576
C95	C	-0.012844	-0.140793	0.854576
C96	C	0.237156	0.109207	1.104576
C97	C	-0.512862	-0.487077	0.354583
C98	C	-0.262862	-0.237077	0.604583
C99	C	-0.012862	0.012923	0.854583
C100	C	0.237138	0.262923	1.104583
C101	C	-0.512868	-0.403743	0.354585
C102	C	-0.262868	-0.153743	0.604585
C103	C	-0.012868	0.096257	0.854585
C104	C	0.237132	0.346257	1.104585
C105	C	-0.512836	-0.724132	0.354573
C106	C	-0.262836	-0.474132	0.604573
C107	C	-0.012836	-0.224132	0.854573
C108	C	0.237164	0.025868	1.104573
C109	C	-0.789404	-1.063513	0.354567
C110	C	-0.539404	-0.813513	0.604567
C111	C	-0.289404	-0.563513	0.854567
C112	C	-0.039404	-0.313513	1.104567
C113	C	-0.907709	-1.063560	0.354588
C114	C	-0.657709	-0.813560	0.604588
C115	C	-0.407709	-0.563560	0.854588
C116	C	-0.157709	-0.313560	1.104588
C117	C	-0.976971	-1.014400	0.403716
C118	C	-0.726971	-0.764400	0.653716
C119	C	-0.476971	-0.514400	0.903716
C120	C	-0.226971	-0.264400	1.153716
C121	C	-1.047828	-0.996471	0.336564
C122	C	-0.797828	-0.746471	0.586564
C123	C	-0.547828	-0.496471	0.836564
C124	C	-0.297828	-0.246471	1.086564
C125	C	-1.047652	-1.081556	0.421752
C126	C	-0.797652	-0.831556	0.671752
C127	C	-0.547652	-0.581556	0.921752
C128	C	-0.297652	-0.331556	1.171752
C129	C	-0.977007	-1.045595	0.287400
C130	C	-0.727007	-0.795595	0.537400
C131	C	-0.477007	-0.545595	0.787400
C132	C	-0.227007	-0.295595	1.037400
C133	C	-0.976825	-1.130712	0.372634
C134	C	-0.726825	-0.880712	0.622634
C135	C	-0.476825	-0.630712	0.872634
C136	C	-0.226825	-0.380712	1.122634
C137	C	-1.047649	-1.112808	0.305435
C138	C	-0.797649	-0.862808	0.555435
C139	C	-0.547649	-0.612808	0.805435
C140	C	-0.297649	-0.362808	1.055435
C141	C	-0.235242	-1.063630	0.354597
C142	C	0.014758	-0.813630	0.604597
C143	C	0.264758	-0.563630	0.854597
C144	C	0.514758	-0.313630	1.104597
C145	C	-0.116936	-1.063659	0.354607
C146	C	0.133064	-0.813659	0.604607
C147	C	0.383064	-0.563659	0.854607
C148	C	0.633064	-0.313659	1.104607
C149	C	-0.512789	-1.063606	0.546527
C150	C	-0.262789	-0.813606	0.796527
C151	C	-0.012789	-0.563606	1.046527
C152	C	0.237211	-0.313606	1.296527
C153	C	-0.512758	-1.063625	0.628326
C154	C	-0.262758	-0.813625	0.878326
C155	C	-0.012758	-0.563625	1.128326
C156	C	0.237242	-0.313625	1.378326
C157	C	-0.512893	-0.255514	0.354587
C158	C	-0.262893	-0.005514	0.604587
C159	C	-0.012893	0.244486	0.854587
C160	C	0.237107	0.494486	1.104587
C161	C	-0.512877	-0.337313	0.354588
C162	C	-0.262877	-0.087313	0.604588
C163	C	-0.012877	0.162687	0.854588
C164	C	0.237123	0.412687	1.104588
C165	C	-0.512859	-1.063559	0.163368
C166	C	-0.262859	-0.813559	0.413368
C167	C	-0.012859	-0.563559	0.663368
C168	C	0.237141	-0.313559	0.913368
C169	C	-0.512590	-1.063683	0.081569
C170	C	-0.262590	-0.813683	0.331569
C171	C	-0.012590	-0.563683	0.581569
C172	C	0.237410	-0.313683	0.831569
C173	C	-0.444629	-1.110728	0.816530
C174	C	-0.194629	-0.860728	1.066530
C175	C	0.055371	-0.610728	1.316530
C176	C	0.305371	-0.360728	1.566530
C177	C	-0.444598	-1.110737	0.893389
C178	C	-0.194598	-0.860737	1.143389
C179	C	0.055402	-0.610737	1.393389
C180	C	0.305402	-0.360737	1.643389
C181	C	-0.580723	-1.016574	0.893359
C182	C	-0.330723	-0.766574	1.143359
C183	C	-0.080723	-0.516574	1.393359
C184	C	0.169277	-0.266574	1.643359
C185	C	-0.580747	-1.016563	0.816502
C186	C	-0.330747	-0.766563	1.066502
C187	C	-0.080747	-0.516563	1.316502
C188	C	0.169253	-0.266563	1.566502
C189	C	-0.512702	-1.063644	0.778089
C190	C	-0.262702	-0.813644	1.028089
C191	C	-0.012702	-0.563644	1.278089
C192	C	0.237298	-0.313644	1.528089
C193	C	-0.512646	-1.063664	0.931805
C194	C	-0.262646	-0.813664	1.181805
C195	C	-0.012646	-0.563664	1.431805
C196	C	0.237354	-0.313664	1.681805
C197	C	-0.512613	-1.063674	1.015139
C198	C	-0.262613	-0.813674	1.265139
C199	C	-0.012613	-0.563674	1.515139
C200	C	0.237387	-0.313674	1.765139
C201	C	-0.512733	-1.063634	0.694750
C202	C	-0.262733	-0.813634	0.944750
C203	C	-0.012733	-0.563634	1.194750
C204	C	0.237267	-0.313634	1.444750
H205	H	-0.636196	-0.494171	0.269050
H206	H	-0.386196	-0.244171	0.519050
H207	H	-0.136196	0.005829	0.769050
H208	H	0.113804	0.255829	1.019050
H209	H	-0.636188	-0.633612	0.269036
H210	H	-0.386188	-0.383612	0.519036
H211	H	-0.136188	-0.133612	0.769036
H212	H	0.113812	0.116388	1.019036
H213	H	-0.636180	-0.978215	0.785202
H214	H	-0.386180	-0.728215	1.035202
H215	H	-0.136180	-0.478215	1.285202
H216	H	0.113820	-0.228215	1.535202
H217	H	-0.389164	-1.149077	0.924684
H218	H	-0.139164	-0.899077	1.174684
H219	H	0.110836	-0.649077	1.424684
H220	H	0.360836	-0.399077	1.674684
H221	H	-0.945936	-0.972753	0.445202
H222	H	-0.695936	-0.722753	0.695202
H223	H	-0.445936	-0.472753	0.945202
H224	H	-0.195936	-0.222753	1.195202
H225	H	-0.946104	-1.030348	0.230593
H226	H	-0.696104	-0.780348	0.480593
H227	H	-0.446104	-0.530348	0.730593
H228	H	-0.196104	-0.280348	0.980593
H229	H	-0.389504	-0.633693	0.440106
H230	H	-0.139504	-0.383693	0.690106
H231	H	0.110496	-0.133693	0.940106
H232	H	0.360496	0.116307	1.190106
H233	H	-0.389516	-0.494266	0.440108
H234	H	-0.139516	-0.244266	0.690108
H235	H	0.110484	0.005734	0.940108
H236	H	0.360484	0.255734	1.190108
H237	H	-0.636125	-0.978244	0.924644
H238	H	-0.386125	-0.728244	1.174644
H239	H	-0.136125	-0.478244	1.424644
H240	H	0.113875	-0.228244	1.674644
H241	H	-1.079039	-0.939728	0.321316
H242	H	-0.829039	-0.689728	0.571316
H243	H	-0.579039	-0.439728	0.821316
H244	H	-0.329039	-0.189728	1.071316
H245	H	-1.078488	-1.154423	0.263849
H246	H	-0.828488	-0.904423	0.513849
H247	H	-0.578488	-0.654423	0.763849
H248	H	-0.328488	-0.404423	1.013849
H249	H	-0.945617	-1.187442	0.387913
H250	H	-0.695617	-0.937442	0.637913
H251	H	-0.445617	-0.687442	0.887913
H252	H	-0.195617	-0.437442	1.137913
H253	H	-1.078683	-1.096738	0.478544
H254	H	-0.828683	-0.846738	0.728544
H255	H	-0.578683	-0.596738	0.978544
H256	H	-0.328683	-0.346738	1.228544
H257	H	-0.389219	-1.149063	0.785257
H258	H	-0.139219	-0.899063	1.035257
H259	H	0.110781	-0.649063	1.285257
H260	H	0.360781	-0.399063	1.535257
