data_functionalizedCrystal
_audit_creation_method	'MofGen! by Chris Wilmer'
_symmetry_space_group_name_H-M	'P1'
_symmetry_Int_Tables_number	1
_symmetry_cell_setting	triclinic
loop_
_symmetry_equiv_pos_as_xyz
  x,y,z
_cell_length_a	12.827893
_cell_length_b	12.827892
_cell_length_c	12.827885
_cell_angle_alpha	90.029786
_cell_angle_beta	90.021379
_cell_angle_gamma	90.013411
loop_
_atom_site_label
_atom_site_type_symbol
_atom_site_fract_x
_atom_site_fract_y
_atom_site_fract_z
Zn1	Zn	-1.597672	0.416038	-0.590902
Zn2	Zn	-1.097672	0.916038	-0.090902
Zn3	Zn	-1.597565	0.590815	-0.416162
Zn4	Zn	-1.097565	1.090815	0.083838
Zn5	Zn	-1.422912	0.416083	-0.416170
Zn6	Zn	-0.922912	0.916083	0.083830
Zn7	Zn	-1.422898	0.590731	-0.590857
Zn8	Zn	-0.922898	1.090731	-0.090857
O9	O	-1.510262	0.503417	-0.503523
O10	O	-1.010262	1.003417	-0.003523
O11	O	-1.743893	0.439238	-0.567738
O12	O	-1.243893	0.939238	-0.067738
O13	O	-1.574358	0.567690	-0.269927
O14	O	-1.074358	1.067690	0.230073
O15	O	-1.446145	0.269841	-0.439371
O16	O	-0.946145	0.769841	0.060629
O17	O	-1.743815	0.567647	-0.439358
O18	O	-1.243815	1.067647	0.060642
O19	O	-1.574540	0.269808	-0.567746
O20	O	-1.074540	0.769808	-0.067746
O21	O	-1.446042	0.439315	-0.269933
O22	O	-0.946042	0.939315	0.230067
O23	O	-1.276674	0.439234	-0.439327
O24	O	-0.776674	0.939234	0.060673
O25	O	-1.446121	0.567504	-0.737099
O26	O	-0.946121	1.067504	-0.237099
O27	O	-1.276664	0.567548	-0.567668
O28	O	-0.776664	1.067548	-0.067668
O29	O	-1.574526	0.439157	-0.737132
O30	O	-1.074526	0.939157	-0.237132
O31	O	-1.574345	0.737040	-0.439314
O32	O	-1.074345	1.237040	0.060686
O33	O	-1.446018	0.736978	-0.567661
O34	O	-0.946018	1.236978	-0.067661
C35	C	-1.238752	0.503387	-0.503494
C36	C	-0.738752	1.003387	-0.003494
C37	C	-1.122599	0.503400	-0.503506
C38	C	-0.622599	1.003400	-0.003506
C39	C	-1.510196	0.774927	-0.503504
C40	C	-1.010196	1.274927	-0.003504
C41	C	-1.510264	0.891080	-0.503531
C42	C	-1.010264	1.391080	-0.003531
C43	C	-1.510334	0.503316	-0.776093
C44	C	-1.010334	1.003316	-0.276093
C45	C	-1.510365	0.503274	-0.892246
C46	C	-1.010365	1.003274	-0.392246
C47	C	-1.070837	0.566991	-0.566914
C48	C	-0.570837	1.066991	-0.066914
C49	C	-0.950786	0.567005	-0.566928
C50	C	-0.450786	1.067005	-0.066928
C51	C	-0.782832	0.503438	-0.503544
C52	C	-0.282832	1.003438	-0.003544
C53	C	-0.898985	0.503426	-0.503532
C54	C	-0.398985	1.003426	-0.003532
C55	C	-1.510356	0.230846	-0.503564
C56	C	-1.010356	0.730846	-0.003564
C57	C	-1.510396	0.114693	-0.503582
C58	C	-1.010396	0.614693	-0.003582
C59	C	-1.573840	0.942860	-0.440092
C60	C	-1.073840	1.442860	0.059908
C61	C	-1.573911	1.062910	-0.440118
C62	C	-1.073911	1.562910	0.059882
C63	C	-1.446890	0.439737	-0.944034
C64	C	-0.946890	0.939737	-0.444034
C65	C	-1.446920	0.439691	-1.064084
C66	C	-0.946920	0.939691	-0.564084
C67	C	-1.510250	0.503441	-0.232013
C68	C	-1.010250	1.003441	0.267987
C69	C	-1.510422	0.503190	-0.115860
C70	C	-1.010422	1.003190	0.384140
H71	H	-1.115398	0.621419	-0.621193
H72	H	-0.615398	1.121419	-0.121193
H73	H	-1.078038	0.448964	-0.449235
H74	H	-0.578038	0.948964	0.050765
N75	N	-1.645881	0.883868	-0.368125
N76	N	-1.145881	1.383868	0.131875
H77	H	-1.635621	0.806470	-0.378310
H78	H	-1.135621	1.306470	0.121690
H79	H	-1.629688	0.902958	-0.293462
H80	H	-1.129688	1.402958	0.206538
N81	N	-1.374875	0.367717	-0.885053
N82	N	-0.874875	0.867717	-0.385053
H83	H	-1.300191	0.383913	-0.903982
H84	H	-0.800191	0.883913	-0.403982
H85	H	-1.385149	0.377988	-0.807673
H86	H	-0.885149	0.877988	-0.307673
N87	N	-0.891834	0.639133	-0.638834
N88	N	-0.391834	1.139133	-0.138834
H89	H	-0.814431	0.628922	-0.628649
H90	H	-0.314431	1.128922	-0.128649
H91	H	-0.910894	0.622973	-0.713511
H92	H	-0.410894	1.122973	-0.213511
H93	H	-1.564729	0.557637	-0.936786
H94	H	-1.064729	1.057637	-0.436786
H95	H	-1.628338	1.107441	-0.385802
H96	H	-1.128338	1.607441	0.114198
H97	H	-1.455959	1.070171	-0.557894
H98	H	-0.955959	1.570171	-0.057894
H99	H	-1.455892	0.935625	-0.557868
H100	H	-0.955892	1.435625	-0.057868
H101	H	-1.392581	0.385291	-1.108620
H102	H	-0.892581	0.885291	-0.608620
H103	H	-0.943493	0.448984	-0.449239
H104	H	-0.443493	0.948984	0.050761
H105	H	-1.564772	0.557584	-1.071331
H106	H	-1.064772	1.057584	-0.571331
