data_functionalizedCrystal
_audit_creation_method	'MofGen! by Chris Wilmer'
_symmetry_space_group_name_H-M	'P1'
_symmetry_Int_Tables_number	1
_symmetry_cell_setting	triclinic
loop_
_symmetry_equiv_pos_as_xyz
  x,y,z
_cell_length_a	14.971486
_cell_length_b	11.792241
_cell_length_c	13.448316
_cell_angle_alpha	89.993264
_cell_angle_beta	89.998199
_cell_angle_gamma	83.903772
loop_
_atom_site_label
_atom_site_type_symbol
_atom_site_fract_x
_atom_site_fract_y
_atom_site_fract_z
O1	O	1.187540	0.147909	-0.082578
O2	O	0.927211	0.165622	-0.082605
O3	O	1.063693	-0.008446	-0.082584
O4	O	1.051058	0.321977	-0.082599
O5	O	1.063676	-0.008456	0.082800
O6	O	0.927194	0.165611	0.082779
O7	O	1.187523	0.147899	0.082806
Cu8	Cu	1.057357	0.156754	0.097893
Cu9	Cu	1.057377	0.156767	-0.097692
O10	O	1.051041	0.321966	0.082785
C11	C	0.893874	0.164824	0.000084
C12	C	0.794568	0.162451	0.000073
C13	C	0.737752	0.264710	0.000070
C14	C	0.644444	0.262473	0.000085
C15	C	0.607953	0.157975	0.000096
C16	C	0.664776	0.055707	0.000102
C17	C	0.758082	0.057946	0.000095
C18	C	0.470294	0.051049	0.000116
C19	C	0.376981	0.048810	0.000122
C20	C	0.356656	0.255577	0.000107
C21	C	0.449963	0.257815	0.000099
C22	C	0.506779	0.155547	0.000103
C23	C	1.062891	-0.050737	0.000108
C24	C	1.060515	-0.176735	0.000107
C25	C	1.056147	-0.407419	0.000089
C26	C	1.058574	-0.279050	0.000099
C27	C	1.220859	0.148696	0.000115
C28	C	1.320166	0.151070	0.000119
C29	C	1.051843	0.364257	0.000091
C30	C	1.054218	0.490256	0.000086
N31	N	1.057349	0.156744	0.235458
N32	N	1.057392	0.156767	-0.235257
C33	C	1.117802	0.079699	0.287507
C34	C	1.117808	0.079698	0.391611
C35	C	1.057363	0.156749	0.443662
C36	C	0.996904	0.233798	0.391605
C37	C	0.996895	0.233792	0.287504
C38	C	0.996929	0.233805	0.608585
C39	C	0.996939	0.233813	0.712694
C40	C	1.117842	0.079711	0.712692
C41	C	1.117832	0.079706	0.608591
C42	C	1.057374	0.156756	0.556541
H43	H	0.516553	-0.032229	0.000121
H44	H	0.947693	0.296545	0.566210
C45	C	0.931173	0.317500	0.447935
C46	C	0.878210	0.384949	0.380067
C47	C	0.817639	0.462059	0.431919
H48	H	0.963469	0.364928	0.488538
H49	H	0.893701	0.276617	0.488534
H50	H	0.915676	0.425828	0.339485
H51	H	0.845893	0.337552	0.339462
H52	H	0.780168	0.421176	0.472518
H53	H	0.849943	0.509479	0.472520
H54	H	0.781691	0.507825	0.385878
C55	C	0.777539	0.378054	0.000003
C56	C	0.871414	0.358133	-0.000032
C57	C	0.908093	0.462520	-0.000105
H58	H	0.758173	0.420251	0.057659
H59	H	0.758116	0.420176	-0.057695
H60	H	0.890829	0.316029	0.057660
H61	H	0.890805	0.315954	-0.057683
H62	H	0.888670	0.504642	-0.057803
H63	H	0.888721	0.504709	0.057551
H64	H	0.971790	0.449018	-0.000138
H65	H	0.598187	0.345744	0.000081
H66	H	0.479670	0.342907	0.000080
H67	H	0.310391	0.338847	0.000108
C68	C	0.819814	-0.053046	0.000299
C69	C	0.873961	-0.057820	0.085395
C70	C	0.930830	-0.160058	0.085628
H71	H	0.856718	-0.056578	-0.057308
H72	H	0.784750	-0.115635	0.000358
H73	H	0.909022	0.004752	0.085326
H74	H	0.837081	-0.054307	0.143016
H75	H	0.895765	-0.222646	0.085688
H76	H	0.967728	-0.163581	0.028017
H77	H	0.967569	-0.163315	0.143369
H78	H	0.347274	-0.036282	0.000133
H79	H	0.635057	-0.029377	0.000126
C80	C	1.183490	-0.003763	0.448255
C81	C	1.238513	0.056826	0.508024
C82	C	1.299024	-0.020022	0.560231
H83	H	1.219580	-0.049683	0.402466
H84	H	1.151117	-0.051062	0.488934
H85	H	1.270883	0.104106	0.467349
H86	H	1.202448	0.102742	0.553832
H87	H	1.266651	-0.067321	0.600910
H88	H	1.335108	-0.065937	0.514434
H89	H	1.336358	0.021076	0.600797
C90	C	1.183468	-0.004086	0.231179
C91	C	1.236394	-0.071580	0.299049
C92	C	1.296887	-0.148789	0.247199
H93	H	1.220979	0.036684	0.190553
H94	H	1.151085	-0.051466	0.190602
H95	H	1.268775	-0.024206	0.339608
H96	H	1.198908	-0.112375	0.339677
H97	H	1.264504	-0.196169	0.206623
H98	H	1.334392	-0.108010	0.206575
H99	H	1.332799	-0.194600	0.293241
H100	H	1.167055	0.016971	0.566210
H101	H	1.167069	0.016974	0.755077
C102	C	0.931199	0.317498	0.769030
C103	C	0.878224	0.384942	0.701169
C104	C	0.817642	0.462030	0.753029
H105	H	0.963488	0.364932	0.809637
H106	H	0.893737	0.276599	0.809626
H107	H	0.915681	0.425839	0.660590
H108	H	0.845916	0.337540	0.660560
H109	H	0.780180	0.421130	0.793625
H110	H	0.849938	0.509456	0.793634
H111	H	0.781686	0.507793	0.706993
H112	H	0.947666	0.296529	0.245126
