data_functionalizedCrystal
_audit_creation_method	'MofGen! by Chris Wilmer'
_symmetry_space_group_name_H-M	'P1'
_symmetry_Int_Tables_number	1
_symmetry_cell_setting	triclinic
loop_
_symmetry_equiv_pos_as_xyz
  x,y,z
_cell_length_a	9.482900
_cell_length_b	16.992694
_cell_length_c	16.992695
_cell_angle_alpha	89.331777
_cell_angle_beta	99.973796
_cell_angle_gamma	99.926526
loop_
_atom_site_label
_atom_site_type_symbol
_atom_site_fract_x
_atom_site_fract_y
_atom_site_fract_z
O1	O	-0.120712	-1.062330	0.155377
O2	O	-0.120755	-0.833934	0.153542
O3	O	-0.120722	-0.947215	0.040261
O4	O	-0.120745	-0.949049	0.268659
O5	O	0.121064	-0.924211	0.063369
O6	O	0.121031	-0.810930	0.176651
O7	O	0.121074	-1.039326	0.178486
Cu8	Cu	0.143129	-0.923028	0.179678
Cu9	Cu	-0.142810	-0.950232	0.152350
O10	O	0.121041	-0.926045	0.291767
C11	C	0.000133	-0.793072	0.162740
C12	C	0.000117	-0.705589	0.155710
N13	N	0.344244	-0.903899	0.198900
N14	N	-0.343925	-0.969367	0.133123
C15	C	0.416455	-0.944585	0.158015
C16	C	0.583868	-0.928675	0.174014
C17	C	0.000170	-0.933358	0.022455
C18	C	0.000169	-0.926329	-0.065030
C19	C	0.000183	-1.080188	0.169288
C20	C	0.000190	-1.167672	0.176317
C21	C	0.000111	-0.659599	0.223527
C22	C	0.000132	-0.577396	0.216920
C23	C	0.000148	-0.541186	0.142494
C24	C	0.000158	-0.587183	0.074672
C25	C	0.000147	-0.669383	0.081281
C26	C	0.000189	-0.295868	0.115104
C27	C	0.000195	-0.213662	0.108500
C28	C	0.000172	-0.203881	0.250749
C29	C	0.000153	-0.286085	0.257350
C30	C	0.000171	-0.332073	0.189529
N31	N	0.000164	-0.457163	0.135739
N32	N	0.000164	-0.416094	0.196286
C33	C	0.000183	-0.994146	-0.111019
C34	C	0.000168	-0.987538	-0.193222
C35	C	0.000149	-0.913112	-0.229432
C36	C	0.000130	-0.845291	-0.183436
C37	C	0.000135	-0.851900	-0.101237
C38	C	0.000124	-0.885720	-0.474748
C39	C	0.000124	-0.879116	-0.556954
C40	C	0.000158	-1.021364	-0.566733
C41	C	0.000172	-1.027966	-0.484531
C42	C	0.000145	-0.960145	-0.438544
N43	N	0.000138	-0.906356	-0.313455
N44	N	0.000146	-0.966903	-0.354523
C45	C	0.000146	-0.939903	0.309573
C46	C	0.000138	-0.946932	0.397057
H47	H	0.645979	-0.882059	0.220861
H48	H	0.000161	-0.166429	0.305965
O49	O	0.000211	-0.345462	0.041955
H50	H	-0.098335	-0.341404	-0.002837
H51	H	0.593964	-1.015977	0.086269
H52	H	0.000207	-0.184184	0.047890
H53	H	0.000177	-1.076579	-0.604185
H54	H	0.000191	-0.557692	0.014075
H55	H	0.000126	-0.539954	0.272145
O56	O	0.000173	-0.325137	0.337627
H57	H	0.000195	-0.279344	0.383679
O58	O	0.000149	-0.718993	0.008136
H59	H	0.000149	-0.680008	-0.044730
H60	H	0.000132	-0.818504	-0.586431
H61	H	0.354340	-0.991192	0.111164
H62	H	0.000207	-1.054750	-0.081543
O63	O	0.426505	-0.842159	0.260960
H64	H	0.545089	-0.839357	0.263793
O65	O	0.000108	-0.698652	0.303803
H66	H	0.000127	-0.652856	0.349852
O67	O	0.000207	-1.060680	-0.242825
H68	H	0.000248	-1.113540	-0.203834
H69	H	0.000106	-0.784693	-0.212926
O70	O	0.000157	-1.108242	-0.445478
H71	H	0.000142	-1.154293	-0.491271
H72	H	0.000103	-0.830495	-0.437315
H73	H	0.000123	-0.796677	-0.063793
