data_functionalizedCrystal
_audit_creation_method	'MofGen! by Chris Wilmer'
_symmetry_space_group_name_H-M	'P1'
_symmetry_Int_Tables_number	1
_symmetry_cell_setting	triclinic
loop_
_symmetry_equiv_pos_as_xyz
  x,y,z
_cell_length_a	23.532355
_cell_length_b	10.654550
_cell_length_c	22.610064
_cell_angle_alpha	90.005285
_cell_angle_beta	90.002356
_cell_angle_gamma	96.343799
loop_
_atom_site_label
_atom_site_type_symbol
_atom_site_fract_x
_atom_site_fract_y
_atom_site_fract_z
O1	O	0.756274	-0.152111	0.049103
O2	O	1.256274	0.347889	0.549103
O3	O	0.590550	-0.174235	0.049121
O4	O	1.090550	0.325765	0.549121
O5	O	0.677222	0.019688	0.049109
O6	O	1.177222	0.519688	0.549109
O7	O	0.669602	-0.346035	0.049115
O8	O	1.169602	0.153965	0.549115
O9	O	0.677207	0.019660	-0.049260
O10	O	1.177207	0.519660	0.450740
O11	O	0.590535	-0.174264	-0.049248
O12	O	1.090535	0.325736	0.450752
O13	O	0.756258	-0.152139	-0.049266
O14	O	1.256258	0.347861	0.450734
Zn15	Zn	0.673394	-0.163206	-0.064875
Zn16	Zn	1.173394	0.336794	0.435125
Zn17	Zn	0.673414	-0.163169	0.064730
Zn18	Zn	1.173414	0.336831	0.564730
O19	O	0.669586	-0.346063	-0.049255
O20	O	1.169586	0.153937	0.450745
C21	C	0.569322	-0.173697	-0.000061
C22	C	1.069322	0.326303	0.499939
C23	C	0.506093	-0.172034	-0.000054
C24	C	1.006093	0.327966	0.499946
C25	C	0.114003	-0.161602	-0.053700
C26	C	0.614003	0.338398	0.446300
C27	C	0.054593	-0.160020	-0.053702
C28	C	0.554593	0.339980	0.446298
O29	O	0.023862	-0.159172	-0.099304
O30	O	0.523862	0.340828	0.400696
N31	N	0.024888	-0.159220	-0.000081
N32	N	0.524888	0.340780	0.499919
C33	C	0.054596	-0.159990	0.053545
C34	C	0.554596	0.340010	0.553545
O35	O	0.023874	-0.159163	0.099154
O36	O	0.523874	0.340837	0.599154
C37	C	0.114005	-0.161563	0.053547
C38	C	0.614005	0.338437	0.553547
C39	C	0.143707	-0.162375	-0.000077
C40	C	0.643707	0.337625	0.499923
C41	C	0.143704	-0.162413	-0.107320
C42	C	0.643704	0.337587	0.392680
C43	C	0.203110	-0.163997	-0.107317
C44	C	0.703110	0.336003	0.392683
C45	C	0.232814	-0.164770	-0.053695
C46	C	0.732814	0.335230	0.446305
C47	C	0.203112	-0.163959	-0.000075
C48	C	0.703112	0.336041	0.499925
C49	C	0.143713	-0.162323	0.107173
C50	C	0.643713	0.337677	0.607173
C51	C	0.203126	-0.163895	0.107170
C52	C	0.703126	0.336105	0.607170
C53	C	0.232828	-0.164707	0.053546
C54	C	0.732828	0.335293	0.553546
C55	C	0.292222	-0.166317	0.053550
C56	C	0.792222	0.333683	0.553550
N57	N	0.321927	-0.167116	-0.000070
N58	N	0.821927	0.332884	0.499930
C59	C	0.292223	-0.166343	-0.053693
C60	C	0.792223	0.333657	0.446307
C61	C	-0.070167	-0.156684	0.053538
C62	C	0.429833	0.343316	0.553538
C63	C	-0.129576	-0.155121	0.053537
C64	C	0.370424	0.344879	0.553537
C65	C	-0.129574	-0.155149	-0.053711
C66	C	0.370426	0.344851	0.446289
C67	C	-0.070165	-0.156722	-0.053709
C68	C	0.429835	0.343278	0.446291
C69	C	-0.040462	-0.157484	-0.000083
C70	C	0.459538	0.342516	0.499917
C71	C	0.416979	-0.169671	-0.053684
C72	C	0.916979	0.330329	0.446316
C73	C	0.476389	-0.171261	-0.053676
C74	C	0.976389	0.328739	0.446324
C75	C	0.476383	-0.171226	0.053571
C76	C	0.976383	0.328774	0.553571
C77	C	0.416977	-0.169643	0.053564
C78	C	0.916977	0.330357	0.553564
C79	C	0.387277	-0.168862	-0.000068
C80	C	0.887277	0.331138	0.499932
O81	O	0.322991	-0.167160	0.099129
O82	O	0.822991	0.332840	0.599129
O83	O	0.322953	-0.167154	-0.099294
O84	O	0.822953	0.332846	0.400706
C85	C	0.676655	0.066454	-0.000074
C86	C	1.176655	0.566454	0.499926
C87	C	0.674981	0.205844	-0.000072
C88	C	1.174981	0.705844	0.499928
C89	C	0.777486	-0.152678	-0.000083
C90	C	1.277486	0.347322	0.499917
C91	C	0.840716	-0.154341	-0.000086
C92	C	1.340716	0.345659	0.499914
C93	C	0.670154	-0.392829	-0.000069
C94	C	1.170154	0.107171	0.499931
C95	C	0.671828	-0.532218	-0.000068
C96	C	1.171828	-0.032218	0.499932
C97	C	0.726012	0.286967	-0.000080
C98	C	1.226012	0.786967	0.499920
C99	C	0.724436	0.417937	-0.000075
C100	C	1.224436	0.917937	0.499925
C101	C	0.620793	0.386648	-0.000058
C102	C	1.120793	0.886648	0.499942
C103	C	0.622370	0.255680	-0.000059
C104	C	1.122370	0.755680	0.499941
C105	C	0.785850	0.305033	-0.000092
C106	C	1.285850	0.805033	0.499908
C107	C	0.784273	0.436003	-0.000088
C108	C	1.284273	0.936003	0.499912
N109	N	0.673385	-0.163231	-0.153328
N110	N	1.173385	0.336769	0.346672
C111	C	0.711795	-0.077312	-0.561975
C112	C	1.211795	0.422688	-0.061975
C113	C	0.711798	-0.077303	-0.623894
C114	C	1.211798	0.422697	-0.123894
O115	O	0.744431	-0.004271	-0.655918
O116	O	1.244431	0.495729	-0.155918
N117	N	0.673414	-0.163143	-0.654865
N118	N	1.173414	0.336857	-0.154865
C119	C	0.635021	-0.248988	-0.623912
C120	C	1.135021	0.251012	-0.123912
O121	O	0.602373	-0.322000	-0.655941
O122	O	1.102373	0.178000	-0.155941
C123	C	0.635016	-0.248991	-0.561994
C124	C	1.135016	0.251009	-0.061994
C125	C	0.673406	-0.163154	-0.531026
C126	C	1.173406	0.336846	-0.031026
C127	C	0.750181	0.008518	-0.531007
C128	C	1.250181	0.508518	-0.031007
C129	C	0.750179	0.008507	-0.469091
C130	C	1.250179	0.508507	0.030909
C131	C	0.711790	-0.077334	-0.438143
C132	C	1.211790	0.422666	0.061857
C133	C	0.673404	-0.163165	-0.469111
C134	C	1.173404	0.336835	0.030889
C135	C	0.596621	-0.334829	-0.531042
C136	C	1.096621	0.165171	-0.031042
C137	C	0.596619	-0.334823	-0.469119
C138	C	1.096619	0.165177	0.030881
C139	C	0.635009	-0.248987	-0.438152
C140	C	1.135009	0.251013	0.061848
C141	C	0.635013	-0.249018	-0.376247
C142	C	1.135013	0.250982	0.123753
N143	N	0.673396	-0.163178	-0.345276
N144	N	1.173396	0.336822	0.154724
C145	C	0.711785	-0.077336	-0.376224
C146	C	1.211785	0.422664	0.123776
C147	C	0.635034	-0.248976	-0.753946
C148	C	1.135034	0.251024	-0.253946
C149	C	0.635042	-0.248981	-0.815864
C150	C	1.135042	0.251019	-0.315864
C151	C	0.711818	-0.077294	-0.815841
C152	C	1.211818	0.422706	-0.315841
C153	C	0.711812	-0.077296	-0.753923
C154	C	1.211812	0.422704	-0.253923
C155	C	0.673418	-0.163136	-0.722975
C156	C	1.173418	0.336864	-0.222975
C157	C	0.711777	-0.077367	-0.246197
C158	C	1.211777	0.422633	0.253803
C159	C	0.711773	-0.077389	-0.184276
C160	C	1.211773	0.422611	0.315724
C161	C	0.634996	-0.249071	-0.184304
C162	C	1.134996	0.250929	0.315696
C163	C	0.635002	-0.249054	-0.246219
C164	C	1.135002	0.250946	0.253781
C165	C	0.673395	-0.163191	-0.277165
C166	C	1.173395	0.336809	0.222835
O167	O	0.602394	-0.322009	-0.344184
O168	O	1.102394	0.177991	0.155816
O169	O	0.744423	-0.004326	-0.344188
O170	O	1.244423	0.495674	0.155812
N171	N	0.673429	-0.163134	0.153183
N172	N	1.173429	0.336866	0.653183
H173	H	-0.045987	-0.157317	0.097209
H174	H	0.454013	0.342683	0.597209
H175	H	0.580815	0.189633	-0.000044
H176	H	1.080815	0.689633	0.499956
H177	H	0.577958	0.427241	-0.000047
H178	H	1.077958	0.927241	0.499953
C179	C	0.792419	0.102899	-0.435032
C180	C	1.292419	0.602899	0.064968
H181	H	0.786932	0.090598	-0.393722
H182	H	1.286932	0.590598	0.106278
H183	H	0.785921	0.186650	-0.445171
H184	H	1.285921	0.686650	0.054829
H185	H	0.830474	0.089657	-0.445189
H186	H	1.330474	0.589657	0.054811
C187	C	0.235774	-0.164885	-0.166304
C188	C	0.735774	0.335115	0.333696
H189	H	0.209569	-0.164189	-0.198236
H190	H	0.709569	0.335811	0.301764
H191	H	0.254892	-0.238740	-0.168536
H192	H	0.754892	0.261260	0.331464
H193	H	0.263006	-0.092253	-0.168538
H194	H	0.763006	0.407747	0.331462
H195	H	0.227308	-0.164517	0.150840
H196	H	0.727308	0.335483	0.650840
C197	C	0.792412	0.102949	-0.565044
C198	C	1.292412	0.602949	-0.065044
H199	H	0.786922	0.090678	-0.606357
H200	H	1.286922	0.590678	-0.106357
H201	H	0.830468	0.089745	-0.554886
H202	H	1.330468	0.589745	-0.054886
H203	H	0.785894	0.186689	-0.554889
H204	H	1.285894	0.686689	-0.054889
H205	H	0.603747	-0.318962	-0.271434
H206	H	1.103747	0.181038	0.228566
H207	H	0.806813	0.478475	-0.041257
H208	H	1.306813	0.978475	0.458743
C209	C	0.509060	-0.172151	-0.112664
C210	C	1.009060	0.327849	0.387336
H211	H	0.548696	-0.173217	-0.104986
H212	H	1.048696	0.326783	0.395014
H213	H	0.503381	-0.098660	-0.134698
H214	H	1.003381	0.401340	0.365302
H215	H	0.495263	-0.245147	-0.134693
H216	H	0.995263	0.254853	0.365307
C217	C	0.817474	0.266387	0.055510
C218	C	1.317474	0.766387	0.555510
H219	H	0.818548	0.177513	0.055503
H220	H	1.318548	0.677513	0.555503
H221	H	0.797990	0.290230	0.089823
H222	H	1.297990	0.790230	0.589823
H223	H	0.855400	0.307563	0.055499
H224	H	1.355400	0.807563	0.555499
C225	C	0.509066	-0.172065	0.112551
C226	C	1.009066	0.327935	0.612551
H227	H	0.548701	-0.173108	0.104868
H228	H	1.048701	0.326892	0.604868
H229	H	0.495278	-0.245031	0.134593
H230	H	0.995278	0.254969	0.634593
H231	H	0.503389	-0.098544	0.134576
H232	H	1.003389	0.401456	0.634576
H233	H	0.802364	0.482239	0.042383
H234	H	1.302364	0.982239	0.542383
C235	C	0.554389	-0.429242	-0.565096
C236	C	1.054389	0.070758	-0.065096
H237	H	0.559885	-0.416965	-0.606407
H238	H	1.059885	0.083035	-0.106407
H239	H	0.516333	-0.416032	-0.554945
H240	H	1.016333	0.083968	-0.054945
H241	H	0.560902	-0.512987	-0.554950
H242	H	1.060902	-0.012987	-0.054950
C243	C	0.754001	0.017040	-0.150215
C244	C	1.254001	0.517040	0.349785
H245	H	0.776859	0.068173	-0.177519
H246	H	1.276859	0.568173	0.322481
H247	H	0.777884	-0.027855	-0.126061
H248	H	1.277884	0.472145	0.373939
H249	H	0.733307	0.069080	-0.126060
H250	H	1.233307	0.569080	0.373940
H251	H	0.804898	0.270006	-0.042568
H252	H	1.304898	0.770006	0.457432
H253	H	0.743040	-0.007448	-0.271386
H254	H	1.243040	0.492552	0.228614
C255	C	0.592805	-0.343424	-0.719909
C256	C	1.092805	0.156576	-0.219909
H257	H	0.569953	-0.394548	-0.747226
H258	H	1.069953	0.105452	-0.247226
H259	H	0.568917	-0.298541	-0.695753
H260	H	1.068917	0.201459	-0.195753
H261	H	0.613498	-0.395470	-0.695758
H262	H	1.113498	0.104530	-0.195758
C263	C	0.754036	0.017133	-0.719864
C264	C	1.254036	0.517133	-0.219864
H265	H	0.776896	0.068257	-0.747169
H266	H	1.276896	0.568257	-0.247169
H267	H	0.777918	-0.027758	-0.695706
H268	H	1.277918	0.472242	-0.195706
H269	H	0.733341	0.069180	-0.695713
H270	H	1.233341	0.569180	-0.195713
H271	H	0.603742	-0.318966	-0.159096
H272	H	1.103742	0.181034	0.340904
C273	C	0.754039	0.017144	-0.849892
C274	C	1.254039	0.517144	-0.349892
H275	H	0.748536	0.004855	-0.891203
H276	H	1.248536	0.504855	-0.391203
H277	H	0.792101	0.003960	-0.839747
H278	H	1.292101	0.503960	-0.339747
H279	H	0.747518	0.100884	-0.839741
H280	H	1.247518	0.600884	-0.339741
C281	C	0.592813	-0.343402	-0.849921
C282	C	1.092813	0.156598	-0.349921
H283	H	0.569948	-0.394515	-0.822616
H284	H	1.069948	0.105485	-0.322616
H285	H	0.613497	-0.395443	-0.874081
H286	H	1.113497	0.104557	-0.374081
H287	H	0.568929	-0.298486	-0.874070
H288	H	1.068929	0.201514	-0.374070
C289	C	0.554386	-0.429252	-0.435078
C290	C	1.054386	0.070748	0.064922
H291	H	0.559877	-0.416965	-0.393766
H292	H	1.059877	0.083035	0.106234
H293	H	0.560898	-0.512989	-0.445233
H294	H	1.060898	-0.012989	0.054767
H295	H	0.516327	-0.416039	-0.445229
H296	H	1.016327	0.083961	0.054771
H297	H	0.119526	-0.161781	-0.150988
H298	H	0.619526	0.338219	0.349012
C299	C	0.384316	-0.168825	-0.112677
C300	C	0.884316	0.331175	0.387323
H301	H	0.410519	-0.169547	-0.144607
H302	H	0.910519	0.330453	0.355393
H303	H	0.365197	-0.094973	-0.114918
H304	H	0.865197	0.405027	0.385082
H305	H	0.357084	-0.241460	-0.114906
H306	H	0.857084	0.258540	0.385094
C307	C	0.111052	-0.161422	0.166159
C308	C	0.611052	0.338578	0.666159
H309	H	0.071414	-0.160381	0.158488
H310	H	0.571414	0.339619	0.658488
H311	H	0.124852	-0.088432	0.188186
H312	H	0.624852	0.411568	0.688186
H313	H	0.116734	-0.234919	0.188194
H314	H	0.616734	0.265081	0.688194
H315	H	0.392792	-0.169002	0.097229
H316	H	0.892792	0.330998	0.597229
H317	H	-0.153770	-0.154517	-0.097373
H318	H	0.346230	0.345483	0.402627
C319	C	-0.037497	-0.157583	-0.112695
C320	C	0.462503	0.342417	0.387305
H321	H	-0.063701	-0.156885	-0.144628
H322	H	0.436299	0.343115	0.355372
H323	H	-0.018372	-0.231427	-0.114932
H324	H	0.481628	0.268573	0.385068
H325	H	-0.010271	-0.084939	-0.114921
H326	H	0.489729	0.415061	0.385079
H327	H	-0.153755	-0.154479	0.097203
H328	H	0.346245	0.345521	0.597203
