data_functionalizedCrystal
_audit_creation_method	'MofGen! by Chris Wilmer'
_symmetry_space_group_name_H-M	'P1'
_symmetry_Int_Tables_number	1
_symmetry_cell_setting	triclinic
loop_
_symmetry_equiv_pos_as_xyz
  x,y,z
_cell_length_a	12.759401
_cell_length_b	21.295417
_cell_length_c	12.759393
_cell_angle_alpha	90.038123
_cell_angle_beta	90.018567
_cell_angle_gamma	90.028746
loop_
_atom_site_label
_atom_site_type_symbol
_atom_site_fract_x
_atom_site_fract_y
_atom_site_fract_z
Zn1	Zn	1.606146	-0.250588	0.593935
Zn2	Zn	1.605994	-0.355872	0.418235
Zn3	Zn	1.430448	-0.250619	0.418275
Zn4	Zn	1.430390	-0.355822	0.593877
O5	O	1.518245	-0.303225	0.506081
O6	O	1.753147	-0.264563	0.570637
O7	O	1.582668	-0.341944	0.271219
O8	O	1.453842	-0.162526	0.441617
O9	O	1.753035	-0.341914	0.441551
O10	O	1.582927	-0.162503	0.570675
O11	O	1.453695	-0.264615	0.271248
O12	O	1.283419	-0.264566	0.441560
O13	O	1.453744	-0.341828	0.740906
O14	O	1.283377	-0.341858	0.570574
O15	O	1.582871	-0.264514	0.740949
O16	O	1.582612	-0.443955	0.441494
O17	O	1.453597	-0.443918	0.570536
C18	C	1.245277	-0.303210	0.506066
C19	C	1.128501	-0.303219	0.506085
C20	C	1.073690	-0.263018	0.573404
C21	C	0.963966	-0.263030	0.573410
C22	C	0.963873	-0.343450	0.438776
C23	C	1.073595	-0.343434	0.438765
C24	C	1.128595	-0.222803	0.640724
C25	C	1.073784	-0.182600	0.708049
C26	C	0.964060	-0.182612	0.708056
C27	C	0.909147	-0.222828	0.640737
C28	C	1.518111	-0.466777	0.506027
C29	C	1.518150	-0.536745	0.506040
C30	C	1.585325	-0.569543	0.573288
C31	C	1.585362	-0.635285	0.573314
C32	C	1.518235	-0.668227	0.506073
C33	C	1.451046	-0.635422	0.438820
C34	C	1.451003	-0.569681	0.438803
N35	N	1.510296	-0.771497	0.414126
N36	N	1.510342	-0.833948	0.414145
C37	C	1.518357	-0.866302	0.506120
N38	N	1.526345	-0.833846	0.598078
N39	N	1.526303	-0.771388	0.598058
C40	C	1.518273	-0.739513	0.506084
C41	C	1.585577	-0.970385	0.573402
C42	C	1.585607	-1.036129	0.573430
C43	C	1.451296	-1.036265	0.438927
C44	C	1.451260	-0.970522	0.438908
C45	C	1.518407	-0.937586	0.506145
C46	C	1.792278	-0.303241	0.506096
C47	C	1.909054	-0.303247	0.506102
C48	C	1.518318	-0.303162	0.780114
C49	C	1.518350	-0.303135	0.896891
C50	C	1.518408	-0.139035	0.506157
C51	C	1.518477	-0.069067	0.506189
C52	C	1.518232	-0.303243	0.233113
C53	C	1.518404	-0.303093	0.116337
C54	C	1.585595	-0.262873	0.951777
C55	C	1.585620	-0.262850	1.061501
C56	C	1.451151	-0.343356	1.061443
C57	C	1.451122	-0.343375	0.951721
C58	C	1.652823	-0.222633	0.896947
C59	C	1.720075	-0.182368	0.951833
C60	C	1.720100	-0.182345	1.061557
C61	C	1.652873	-0.222587	1.116395
H62	H	0.919436	-0.149871	0.762868
H63	H	1.396388	-0.662248	0.384074
H64	H	1.396632	-1.063086	0.384184
C65	C	1.792927	-0.138571	0.892358
C66	C	1.770101	-0.076281	0.919061
C67	C	1.837182	-0.035916	0.864287
H68	H	1.863550	-0.147701	0.910297
H69	H	1.783277	-0.144307	0.819139
H70	H	1.779760	-0.070548	0.992263
H71	H	1.699490	-0.067132	0.901119
H72	H	1.827531	-0.041652	0.791069
H73	H	1.907801	-0.045052	0.882231
H74	H	1.821697	0.006352	0.882390
H75	H	1.640309	-1.062832	0.628196
C76	C	1.378000	-0.386972	1.120924
C77	C	1.274053	-0.373254	1.094263
C78	C	1.206640	-0.413417	1.149045
H79	H	1.393190	-0.429293	1.102961
H80	H	1.387581	-0.381189	1.194141
H81	H	1.264477	-0.379042	1.021063
H82	H	1.258830	-0.330940	1.112229
H83	H	1.216220	-0.407634	1.222263
H84	H	1.221839	-0.455736	1.131078
H85	H	1.136104	-0.404111	1.130972
H86	H	0.819802	-0.222821	0.640725
H87	H	1.639997	-0.542728	0.628038
C88	C	1.133455	-0.139043	0.781262
C89	C	1.196432	-0.174728	0.848505
C90	C	1.251403	-0.134624	0.915972
H91	H	1.176343	-0.111569	0.741278
H92	H	1.085128	-0.115111	0.821416
H93	H	1.244753	-0.198648	0.808355
H94	H	1.153570	-0.202200	0.888512
H95	H	1.203076	-0.110693	0.956127
H96	H	1.294285	-0.107153	0.875980
H97	H	1.294131	-0.158831	0.961611
H98	H	1.396564	-0.943816	0.384144
H99	H	0.919154	-0.376193	0.383970
H100	H	1.396299	-0.542976	0.384041
C101	C	1.378268	-0.387202	0.892165
C102	C	1.401125	-0.449480	0.918795
C103	C	1.334049	-0.489872	0.863936
H104	H	1.307645	-0.378076	0.910085
H105	H	1.387902	-0.381487	0.818958
H106	H	1.391482	-0.455191	0.991984
H107	H	1.471736	-0.458625	0.900871
H108	H	1.343683	-0.484158	0.790729
H109	H	1.263430	-0.480741	0.881860
H110	H	1.349555	-0.532132	0.881989
C111	C	1.658191	-0.671018	0.646284
C112	C	1.643839	-0.735640	0.631921
C113	C	1.710902	-0.768575	0.699130
H114	H	1.728824	-0.660289	0.631026
H115	H	1.642769	-0.660257	0.716885
H116	H	1.659269	-0.746397	0.561336
H117	H	1.573220	-0.746388	0.647187
H118	H	1.695480	-0.757814	0.769732
H119	H	1.781531	-0.757841	0.683866
H120	H	1.701166	-0.812424	0.689401
H121	H	1.640249	-0.943568	0.628154
C122	C	1.652913	-0.222541	0.777818
C123	C	1.726160	-0.178673	0.741544
C124	C	1.726262	-0.178567	0.631811
H125	H	1.671065	-0.263133	0.752846
H126	H	1.585139	-0.211621	0.752959
H127	H	1.793919	-0.189596	0.766393
H128	H	1.708024	-0.138075	0.766488
H129	H	1.658488	-0.167648	0.606951
H130	H	1.744412	-0.219161	0.606849
H131	H	1.775952	-0.148800	0.607185
H132	H	1.118223	-0.376169	0.383947
C133	C	1.792988	-0.138650	1.121339
C134	C	1.778605	-0.147229	1.229166
C135	C	1.845724	-0.106981	1.284267
H136	H	1.863609	-0.147830	1.103488
H137	H	1.777638	-0.096345	1.103436
H138	H	1.793963	-0.189525	1.247062
H139	H	1.707998	-0.138045	1.247049
H140	H	1.830374	-0.064676	1.266364
H141	H	1.916341	-0.116164	1.266407
H142	H	1.835968	-0.112792	1.357433
H143	H	1.217938	-0.222789	0.640726
H144	H	1.652887	-0.222558	1.205740
