data_functionalizedCrystal
_audit_creation_method	'MofGen! by Chris Wilmer'
_symmetry_space_group_name_H-M	'P1'
_symmetry_Int_Tables_number	1
_symmetry_cell_setting	triclinic
loop_
_symmetry_equiv_pos_as_xyz
  x,y,z
_cell_length_a	18.215407
_cell_length_b	16.120484
_cell_length_c	18.215399
_cell_angle_alpha	92.869789
_cell_angle_beta	89.980167
_cell_angle_gamma	92.926015
loop_
_atom_site_label
_atom_site_type_symbol
_atom_site_fract_x
_atom_site_fract_y
_atom_site_fract_z
Zn1	Zn	1.110213	-0.331906	-0.430960
Zn2	Zn	1.360213	-0.081906	-0.180960
Zn3	Zn	1.610213	0.168094	0.069040
Zn4	Zn	1.860213	0.418094	0.319040
Zn5	Zn	1.103879	-0.471328	-0.314129
Zn6	Zn	1.353879	-0.221328	-0.064129
Zn7	Zn	1.603879	0.028672	0.185871
Zn8	Zn	1.853879	0.278672	0.435871
Zn9	Zn	0.987144	-0.331934	-0.307908
Zn10	Zn	1.237144	-0.081934	-0.057908
Zn11	Zn	1.487144	0.168066	0.192092
Zn12	Zn	1.737144	0.418066	0.442092
Zn13	Zn	0.980871	-0.471282	-0.437152
Zn14	Zn	1.230871	-0.221282	-0.187152
Zn15	Zn	1.480871	0.028718	0.062848
Zn16	Zn	1.730871	0.278718	0.312848
O17	O	1.045527	-0.401612	-0.372537
O18	O	1.295527	-0.151612	-0.122537
O19	O	1.545527	0.098388	0.127463
O20	O	1.795527	0.348388	0.377463
O21	O	1.212356	-0.350409	-0.415474
O22	O	1.462356	-0.100409	-0.165474
O23	O	1.712356	0.149591	0.084526
O24	O	1.962356	0.399591	0.334526
O25	O	1.088368	-0.452868	-0.210321
O26	O	1.338368	-0.202868	0.039679
O27	O	1.588368	0.047132	0.289679
O28	O	1.838368	0.297132	0.539679
O29	O	1.008745	-0.215264	-0.319037
O30	O	1.258745	0.034736	-0.069037
O31	O	1.508745	0.284736	0.180963
O32	O	1.758745	0.534736	0.430963
O33	O	1.207703	-0.452841	-0.329639
O34	O	1.457703	-0.202841	-0.079639
O35	O	1.707703	0.047159	0.170361
O36	O	1.957703	0.297159	0.420361
O37	O	1.099163	-0.215244	-0.409442
O38	O	1.349163	0.034756	-0.159442
O39	O	1.599163	0.284756	0.090558
O40	O	1.849163	0.534756	0.340558
O41	O	1.002604	-0.350456	-0.205751
O42	O	1.252604	-0.100456	0.044249
O43	O	1.502604	0.149544	0.294249
O44	O	1.752604	0.399544	0.544249
O45	O	0.883328	-0.350411	-0.325041
O46	O	1.133328	-0.100411	-0.075041
O47	O	1.383328	0.149589	0.174959
O48	O	1.633328	0.399589	0.424959
O49	O	0.998054	-0.452762	-0.539313
O50	O	1.248054	-0.202762	-0.289313
O51	O	1.498054	0.047238	-0.039313
O52	O	1.748054	0.297238	0.210687
O53	O	0.878719	-0.452789	-0.419995
O54	O	1.128719	-0.202789	-0.169995
O55	O	1.378719	0.047211	0.080005
O56	O	1.628719	0.297211	0.330005
O57	O	1.093081	-0.350364	-0.534764
O58	O	1.343081	-0.100364	-0.284764
O59	O	1.593081	0.149636	-0.034764
O60	O	1.843081	0.399636	0.215236
O61	O	1.082286	-0.587988	-0.335643
O62	O	1.332286	-0.337988	-0.085643
O63	O	1.582286	-0.087988	0.164357
O64	O	1.832286	0.162012	0.414357
O65	O	0.991913	-0.587954	-0.426027
O66	O	1.241913	-0.337954	-0.176027
O67	O	1.491913	-0.087954	0.073973
O68	O	1.741913	0.162046	0.323973
C69	C	0.854321	-0.401598	-0.372516
C70	C	1.104321	-0.151598	-0.122516
C71	C	1.354321	0.098402	0.127484
C72	C	1.604321	0.348402	0.377484
C73	C	0.772522	-0.401612	-0.372525
C74	C	1.022522	-0.151612	-0.122525
C75	C	1.272522	0.098388	0.127475
C76	C	1.522522	0.348388	0.377475
C77	C	0.581943	-0.455004	-0.421912
C78	C	0.831943	-0.205004	-0.171912
C79	C	1.081943	0.044996	0.078088
C80	C	1.331943	0.294996	0.328088
C81	C	0.505085	-0.455007	-0.421921
C82	C	0.755085	-0.205007	-0.171921
C83	C	1.005085	0.044993	0.078079
C84	C	1.255085	0.294993	0.328079
C85	C	0.509861	-0.348236	-0.323179
C86	C	0.759861	-0.098236	-0.073179
C87	C	1.009861	0.151764	0.176821
C88	C	1.259861	0.401764	0.426821
C89	C	0.586719	-0.348229	-0.323174
C90	C	0.836719	-0.098229	-0.073174
C91	C	1.086719	0.151771	0.176826
C92	C	1.336719	0.401771	0.426826
C93	C	0.622758	-0.401619	-0.372540
C94	C	0.872758	-0.151619	-0.122540
C95	C	1.122758	0.098381	0.127460
C96	C	1.372758	0.348381	0.377460
C97	C	0.469041	-0.401627	-0.372554
C98	C	0.719041	-0.151627	-0.122554
C99	C	0.969041	0.098373	0.127446
C100	C	1.219041	0.348373	0.377446
C101	C	0.385708	-0.401630	-0.372564
C102	C	0.635708	-0.151630	-0.122564
C103	C	0.885708	0.098370	0.127436
C104	C	1.135708	0.348370	0.377436
C105	C	0.706097	-0.401615	-0.372531
C106	C	0.956097	-0.151615	-0.122531
C107	C	1.206097	0.098385	0.127469
C108	C	1.456097	0.348385	0.377469
C109	C	1.035751	-0.618221	-0.382198
C110	C	1.285751	-0.368221	-0.132198
C111	C	1.535751	-0.118221	0.117802
C112	C	1.785751	0.131779	0.367802
C113	C	1.031637	-0.710887	-0.386356
C114	C	1.281637	-0.460887	-0.136356
C115	C	1.531637	-0.210887	0.113644
C116	C	1.781637	0.039113	0.363644
C117	C	1.024129	-0.880549	-0.393961
C118	C	1.274129	-0.630549	-0.143961
C119	C	1.524129	-0.380549	0.106039
C120	C	1.774129	-0.130549	0.356039
C121	C	1.067056	-0.921836	-0.351125
C122	C	1.317056	-0.671836	-0.101125
C123	C	1.567056	-0.421836	0.148875
C124	C	1.817056	-0.171836	0.398875
C125	C	1.062879	-1.016241	-0.355357
C126	C	1.312879	-0.766241	-0.105357
C127	C	1.562879	-0.516241	0.144643
C128	C	1.812879	-0.266241	0.394643
C129	C	1.028305	-0.786135	-0.389730
C130	C	1.278305	-0.536135	-0.139730
C131	C	1.528305	-0.286135	0.110270
C132	C	1.778305	-0.036135	0.360270
C133	C	1.237479	-0.401627	-0.372560
C134	C	1.487479	-0.151627	-0.122560
C135	C	1.737479	0.098373	0.127440
C136	C	1.987479	0.348373	0.377440
C137	C	1.319277	-0.401634	-0.372569
C138	C	1.569277	-0.151634	-0.122569
C139	C	1.819277	0.098366	0.127431
C140	C	2.069277	0.348366	0.377431
C141	C	1.045574	-0.401555	-0.564488
C142	C	1.295574	-0.151555	-0.314488
C143	C	1.545574	0.098445	-0.064488
C144	C	1.795574	0.348445	0.185512
C145	C	1.045594	-0.401530	-0.646286
C146	C	1.295594	-0.151530	-0.396286
C147	C	1.545594	0.098470	-0.146286
C148	C	1.795594	0.348470	0.103714
C149	C	1.055360	-0.184158	-0.362855
C150	C	1.305360	0.065842	-0.112855
C151	C	1.555360	0.315842	0.137145
C152	C	1.805360	0.565842	0.387145
C153	C	1.059551	-0.091492	-0.358729
C154	C	1.309551	0.158508	-0.108729
C155	C	1.559551	0.408508	0.141271
C156	C	1.809551	0.658508	0.391271
C157	C	1.095094	-0.348162	-0.832110
C158	C	1.345094	-0.098162	-0.582110
C159	C	1.595094	0.151838	-0.332110
C160	C	1.845094	0.401838	-0.082110
C161	C	1.095104	-0.348138	-0.908967
C162	C	1.345104	-0.098138	-0.658967
C163	C	1.595104	0.151862	-0.408967
C164	C	1.845104	0.401862	-0.158967
C165	C	0.996153	-0.454770	-0.913694
C166	C	1.246153	-0.204770	-0.663694
C167	C	1.496153	0.045230	-0.413694
C168	C	1.746153	0.295230	-0.163694
C169	C	0.996140	-0.454790	-0.836837
C170	C	1.246140	-0.204790	-0.586837
C171	C	1.496140	0.045210	-0.336837
C172	C	1.746140	0.295210	-0.086837
C173	C	1.045615	-0.401487	-0.796047
C174	C	1.295615	-0.151487	-0.546047
C175	C	1.545615	0.098513	-0.296047
C176	C	1.795615	0.348513	-0.046047
C177	C	1.045637	-0.401443	-0.949761
C178	C	1.295637	-0.151443	-0.699761
C179	C	1.545637	0.098557	-0.449761
C180	C	1.795637	0.348557	-0.199761
C181	C	1.045648	-0.401417	-1.033094
C182	C	1.295648	-0.151417	-0.783094
C183	C	1.545648	0.098583	-0.533094
C184	C	1.795648	0.348583	-0.283094
C185	C	1.045603	-0.401511	-0.712709
C186	C	1.295603	-0.151511	-0.462709
C187	C	1.545603	0.098489	-0.212709
C188	C	1.795603	0.348489	0.037291
C189	C	1.045524	-0.401610	-0.181331
C190	C	1.295524	-0.151610	0.068669
C191	C	1.545524	0.098390	0.318669
C192	C	1.795524	0.348390	0.568669
C193	C	1.045657	-0.401399	-0.099523
C194	C	1.295657	-0.151399	0.150477
C195	C	1.545657	0.098601	0.400477
C196	C	1.795657	0.348601	0.650477
H197	H	0.471857	-0.498478	-0.462126
H198	H	0.721857	-0.248478	-0.212126
H199	H	0.971857	0.001522	0.037874
H200	H	1.221857	0.251522	0.287874
C201	C	0.970240	-0.928573	-0.447786
C202	C	1.220240	-0.678573	-0.197786
C203	C	1.470240	-0.428573	0.052214
C204	C	1.720240	-0.178573	0.302214
H205	H	0.974463	-0.986643	-0.443596
H206	H	1.224463	-0.736643	-0.193596
H207	H	1.474463	-0.486643	0.056404
H208	H	1.724463	-0.236643	0.306404
H209	H	0.981591	-0.914308	-0.496619
H210	H	1.231591	-0.664308	-0.246619
H211	H	1.481591	-0.414308	0.003381
H212	H	1.731591	-0.164308	0.253381
H213	H	0.921412	-0.914413	-0.436336
H214	H	1.171412	-0.664413	-0.186336
H215	H	1.421412	-0.414413	0.063664
H216	H	1.671412	-0.164413	0.313664
H217	H	1.135377	-0.304757	-0.798901
H218	H	1.385377	-0.054757	-0.548901
H219	H	1.635377	0.195243	-0.298901
H220	H	1.885377	0.445243	-0.048901
C221	C	0.941711	-0.513448	-0.797162
C222	C	1.191711	-0.263448	-0.547162
C223	C	1.441711	-0.013448	-0.297162
C224	C	1.691711	0.236552	-0.047162
H225	H	0.948785	-0.505817	-0.745547
H226	H	1.198785	-0.255817	-0.495547
H227	H	1.448785	-0.005817	-0.245547
H228	H	1.698785	0.244183	0.004453
H229	H	0.949949	-0.569462	-0.812248
H230	H	1.199949	-0.319462	-0.562248
H231	H	1.449949	-0.069462	-0.312248
H232	H	1.699949	0.180538	-0.062248
H233	H	0.892816	-0.501235	-0.809205
H234	H	1.142816	-0.251235	-0.559205
H235	H	1.392816	-0.001235	-0.309205
H236	H	1.642816	0.248765	-0.059205
C237	C	1.120921	-0.873811	-0.297269
C238	C	1.370921	-0.623811	-0.047269
C239	C	1.620921	-0.373811	0.202731
C240	C	1.870921	-0.123811	0.452731
H241	H	1.116686	-0.815740	-0.301441
H242	H	1.366686	-0.565740	-0.051441
H243	H	1.616686	-0.315740	0.198559
H244	H	1.866686	-0.065740	0.448559
H245	H	1.169755	-0.887959	-0.308684
H246	H	1.419755	-0.637959	-0.058684
H247	H	1.669755	-0.387959	0.191316
H248	H	1.919755	-0.137959	0.441316
H249	H	1.109534	-0.888094	-0.248444
H250	H	1.359534	-0.638094	0.001556
H251	H	1.609534	-0.388094	0.251556
H252	H	1.859534	-0.138094	0.501556
C253	C	1.149537	-0.289491	-0.948637
C254	C	1.399537	-0.039491	-0.698637
C255	C	1.649537	0.210509	-0.448637
C256	C	1.899537	0.460509	-0.198637
H257	H	1.142458	-0.297107	-1.000252
H258	H	1.392458	-0.047107	-0.750252
H259	H	1.642458	0.202893	-0.500252
H260	H	1.892458	0.452893	-0.250252
H261	H	1.198428	-0.301705	-0.936592
H262	H	1.448428	-0.051705	-0.686592
H263	H	1.698428	0.198295	-0.436592
H264	H	1.948428	0.448295	-0.186592
H265	H	1.141299	-0.233473	-0.933548
H266	H	1.391299	0.016527	-0.683548
H267	H	1.641299	0.266527	-0.433548
H268	H	1.891299	0.516527	-0.183548
C269	C	0.470216	-0.289522	-0.268874
C270	C	0.720216	-0.039522	-0.018874
C271	C	0.970216	0.210478	0.231126
C272	C	1.220216	0.460478	0.481126
H273	H	0.418596	-0.297177	-0.275942
H274	H	0.668596	-0.047177	-0.025942
H275	H	0.918596	0.202823	0.224058
H276	H	1.168596	0.452823	0.474058
H277	H	0.485339	-0.233519	-0.277220
H278	H	0.735339	0.016481	-0.027220
H279	H	0.985339	0.266481	0.222780
H280	H	1.235339	0.516481	0.472780
H281	H	0.482246	-0.301662	-0.219949
H282	H	0.732246	-0.051662	0.030051
H283	H	0.982246	0.198338	0.280051
H284	H	1.232246	0.448338	0.530051
H285	H	0.955874	-0.498169	-0.946914
H286	H	1.205874	-0.248169	-0.696914
H287	H	1.455874	0.001831	-0.446914
H288	H	1.705874	0.251831	-0.196914
C289	C	0.631618	-0.289503	-0.268861
C290	C	0.881618	-0.039503	-0.018861
C291	C	1.131618	0.210497	0.231139
C292	C	1.381618	0.460497	0.481139
H293	H	0.599147	-0.257716	-0.239454
H294	H	0.849147	-0.007716	0.010546
H295	H	1.099147	0.242284	0.260546
H296	H	1.349147	0.492284	0.510546
H297	H	0.663248	-0.253217	-0.295444
H298	H	0.913248	-0.003217	-0.045444
H299	H	1.163248	0.246783	0.204556
H300	H	1.413248	0.496783	0.454556
H301	H	0.660149	-0.321354	-0.238167
H302	H	0.910149	-0.071354	0.011833
H303	H	1.160149	0.178646	0.261833
H304	H	1.410149	0.428646	0.511833
H305	H	0.611284	-0.498475	-0.462110
H306	H	0.861284	-0.248475	-0.212110
H307	H	1.111284	0.001525	0.037890
H308	H	1.361284	0.251525	0.287890
