data_functionalizedCrystal
_audit_creation_method	'MofGen! by Chris Wilmer'
_symmetry_space_group_name_H-M	'P1'
_symmetry_Int_Tables_number	1
_symmetry_cell_setting	triclinic
loop_
_symmetry_equiv_pos_as_xyz
  x,y,z
_cell_length_a	14.044220
_cell_length_b	10.540539
_cell_length_c	12.503572
_cell_angle_alpha	93.560877
_cell_angle_beta	86.164750
_cell_angle_gamma	88.857185
loop_
_atom_site_label
_atom_site_type_symbol
_atom_site_fract_x
_atom_site_fract_y
_atom_site_fract_z
O1	O	1.265193	0.299541	-0.089197
O2	O	1.765193	0.799541	0.410803
O3	O	0.989150	0.288487	-0.089224
O4	O	1.489150	0.788487	0.410776
O5	O	1.133469	0.109945	-0.089208
O6	O	1.633469	0.609945	0.410792
O7	O	1.120874	0.478084	-0.089212
O8	O	1.620874	0.978084	0.410788
O9	O	1.122616	0.123396	0.089432
O10	O	1.622616	0.623396	0.589432
O11	O	0.978297	0.301939	0.089417
O12	O	1.478297	0.801939	0.589417
O13	O	1.254339	0.312993	0.089444
O14	O	1.754339	0.812993	0.589444
Cu15	Cu	1.115327	0.308694	0.105742
Cu16	Cu	1.615327	0.808694	0.605742
Cu17	Cu	1.128163	0.292786	-0.105522
Cu18	Cu	1.628163	0.792786	0.394478
O19	O	1.110020	0.491536	0.089428
O20	O	1.610020	0.991536	0.589428
C21	C	0.948377	0.290375	0.000093
C22	C	1.448377	0.790375	0.500093
C23	C	0.843054	0.275945	0.000082
C24	C	1.343054	0.775945	0.500082
C25	C	0.650213	0.249566	0.000104
C26	C	1.150213	0.749566	0.500104
C27	C	0.593272	0.351908	0.000107
C28	C	1.093272	0.851908	0.500107
C29	C	0.485969	0.337231	0.000119
C30	C	0.985969	0.837231	0.500119
C31	C	0.757526	0.264241	0.000092
C32	C	1.257526	0.764241	0.500092
C33	C	1.127098	0.069272	0.000110
C34	C	1.627098	0.569272	0.500110
C35	C	1.124272	-0.071962	0.000104
C36	C	1.624272	0.428038	0.500104
C37	C	1.016008	-0.266368	-0.000308
C38	C	1.516008	0.233632	0.499692
C39	C	1.018848	-0.119430	0.000095
C40	C	1.518848	0.380570	0.500095
C41	C	1.168809	-0.120809	0.102122
C42	C	1.668809	0.379191	0.602122
C43	C	1.165206	-0.267711	0.102207
C44	C	1.665206	0.232289	0.602207
C45	C	1.179693	-0.283309	-0.100941
C46	C	1.679693	0.216691	0.399059
C47	C	1.180746	-0.136331	-0.102289
C48	C	1.680746	0.363669	0.397711
C49	C	1.295113	0.311105	0.000125
C50	C	1.795113	0.811105	0.500125
C51	C	1.400436	0.325535	0.000129
C52	C	1.900436	0.825535	0.500129
C53	C	1.116392	0.532208	0.000108
C54	C	1.616392	1.032208	0.500108
C55	C	1.119218	0.673442	0.000107
C56	C	1.619218	1.173442	0.500107
N57	N	1.106306	0.319883	0.254333
N58	N	1.606306	0.819883	0.754333
N59	N	1.137191	0.281588	-0.254113
N60	N	1.637191	0.781588	0.245887
C61	C	1.093036	0.336354	0.473447
C62	C	1.593036	0.836354	0.973447
C63	C	1.150458	0.265121	0.526780
C64	C	1.650458	0.765121	1.026780
C65	C	1.143074	0.274286	0.648703
C66	C	1.643074	0.774286	1.148703
C67	C	1.100419	0.327191	0.351513
C68	C	1.600419	0.827191	0.851513
H69	H	0.983371	-0.086369	-0.073036
H70	H	1.483371	0.413631	0.426964
H71	H	0.625111	0.450550	0.000101
H72	H	1.125111	0.950550	0.500101
H73	H	0.974198	-0.076223	0.073339
H74	H	1.474198	0.423777	0.573339
N75	N	1.222935	0.175240	0.465979
N76	N	1.722935	0.675240	0.965979
H77	H	1.260231	0.128982	0.518562
H78	H	1.760231	0.628982	1.018562
H79	H	1.188954	0.111567	0.419315
H80	H	1.688954	0.611567	0.919315
N81	N	1.020586	0.426253	0.534253
N82	N	1.520586	0.926253	1.034253
H83	H	1.033403	0.516185	0.514752
H84	H	1.533403	1.016185	1.014752
H85	H	0.954323	0.402562	0.514738
H86	H	1.454323	0.902562	1.014738
N87	N	1.116009	-0.061532	0.202669
N88	N	1.616009	0.438468	0.702669
H89	H	1.087637	-0.130605	0.246427
H90	H	1.587637	0.369395	0.746427
H91	H	1.161815	-0.011226	0.246498
H92	H	1.661815	0.488774	0.746498
N93	N	0.608037	0.118915	0.000100
N94	N	1.108037	0.618915	0.500100
H95	H	0.633814	0.066213	-0.066127
H96	H	1.133814	0.566213	0.433873
H97	H	0.625793	0.076276	0.066361
H98	H	1.125793	0.576276	0.566361
H99	H	0.978808	-0.304687	-0.073467
H100	H	1.478808	0.195313	0.426533
N101	N	0.955207	-0.304668	0.096043
N102	N	1.455207	0.195332	0.596043
H103	H	0.994228	-0.360839	0.139959
H104	H	1.494228	0.139161	0.639959
H105	H	0.932284	-0.226043	0.141511
H106	H	1.432284	0.273957	0.641511
H107	H	1.150270	-0.324134	-0.178263
H108	H	1.650270	0.175866	0.321737
H109	H	1.123078	-0.293959	0.178460
H110	H	1.623078	0.206041	0.678460
H111	H	1.240744	-0.307665	0.106843
H112	H	1.740744	0.192335	0.606843
N113	N	1.283058	-0.094584	-0.110447
N114	N	1.783058	0.405416	0.389553
H115	H	1.284556	0.000696	-0.114997
H116	H	1.784556	0.500696	0.385003
H117	H	1.315594	-0.119121	-0.044858
H118	H	1.815594	0.380879	0.455142
H119	H	1.148208	-0.104908	-0.177759
H120	H	1.648208	0.395092	0.322241
N121	N	1.271068	-0.080503	0.107145
N122	N	1.771068	0.419497	0.607145
H123	H	1.289550	-0.030063	0.043187
H124	H	1.789550	0.469937	0.543187
H125	H	1.277798	-0.026143	0.175507
H126	H	1.777798	0.473857	0.675507
N127	N	1.280614	-0.335728	-0.101847
N128	N	1.780614	0.164272	0.398153
H129	H	1.287174	-0.387242	-0.037158
H130	H	1.787174	0.112758	0.462842
H131	H	1.295706	-0.391801	-0.169565
H132	H	1.795706	0.108199	0.330435
