data_functionalizedCrystal
_audit_creation_method	'MofGen! by Chris Wilmer'
_symmetry_space_group_name_H-M	'P1'
_symmetry_Int_Tables_number	1
_symmetry_cell_setting	triclinic
loop_
_symmetry_equiv_pos_as_xyz
  x,y,z
_cell_length_a	10.654550
_cell_length_b	19.188930
_cell_length_c	9.730223
_cell_angle_alpha	89.990488
_cell_angle_beta	89.999957
_cell_angle_gamma	83.814856
loop_
_atom_site_label
_atom_site_type_symbol
_atom_site_fract_x
_atom_site_fract_y
_atom_site_fract_z
O1	O	1.665764	0.098062	-0.114205
O2	O	2.165764	0.598062	0.385795
O3	O	1.300088	0.107404	-0.114232
O4	O	1.800088	0.607404	0.385768
O5	O	1.493479	0.001147	-0.114191
O6	O	1.993479	0.501147	0.385809
O7	O	1.472373	0.204320	-0.114246
O8	O	1.972373	0.704320	0.385754
O9	O	1.493466	0.001144	0.114389
O10	O	1.993466	0.501144	0.614389
O11	O	1.300076	0.107402	0.114348
O12	O	1.800076	0.607402	0.614348
O13	O	1.665752	0.098059	0.114375
O14	O	2.165752	0.598059	0.614375
Zn15	Zn	1.482912	0.102730	0.150654
Zn16	Zn	1.982912	0.602730	0.650654
Zn17	Zn	1.482928	0.102734	-0.150510
Zn18	Zn	1.982928	0.602734	0.349490
O19	O	1.472361	0.204317	0.114334
O20	O	1.972361	0.704317	0.614334
C21	C	1.253298	0.106717	0.000055
C22	C	1.753298	0.606717	0.500055
C23	C	1.113898	0.104665	0.000046
C24	C	1.613898	0.604665	0.500046
C25	C	1.033089	0.167228	0.000033
C26	C	1.533089	0.667228	0.500033
C27	C	0.902109	0.165295	0.000058
C28	C	1.402109	0.665295	0.500058
C29	C	0.932761	0.038231	0.000103
C30	C	1.432761	0.538231	0.500103
C31	C	1.063738	0.040164	0.000088
C32	C	1.563738	0.540164	0.500088
C33	C	1.492789	-0.024870	0.000103
C34	C	1.992789	0.475130	0.500103
C35	C	1.490737	-0.102388	0.000115
C36	C	1.990737	0.397612	0.500115
C37	C	1.604213	-0.146570	0.000130
C38	C	2.104213	0.353430	0.500130
C39	C	1.602285	-0.219407	0.000108
C40	C	2.102285	0.280593	0.500108
C41	C	1.486876	-0.248058	0.000098
C42	C	1.986876	0.251942	0.500098
C43	C	1.373386	-0.203866	0.000076
C44	C	1.873386	0.296134	0.500076
C45	C	1.375316	-0.131032	0.000084
C46	C	1.875316	0.368968	0.500084
N47	N	1.398655	-0.356641	0.077882
N48	N	1.898655	0.143359	0.577882
N49	N	1.396829	-0.425831	0.077877
N50	N	1.896829	0.074169	0.577877
C51	C	1.481052	-0.467505	0.000070
C52	C	1.981052	0.032495	0.500070
N53	N	1.567189	-0.437375	-0.077714
N54	N	2.067189	0.062625	0.422286
N55	N	1.569019	-0.368178	-0.077703
N56	N	2.069019	0.131822	0.422297
C57	C	1.484770	-0.327034	0.000088
C58	C	1.984770	0.172966	0.500088
C59	C	1.592445	-0.590665	0.000059
C60	C	2.092445	-0.090665	0.500059
C61	C	1.590513	-0.663502	0.000028
C62	C	2.090513	-0.163502	0.500028
C63	C	1.361610	-0.647960	0.000010
C64	C	1.861610	-0.147960	0.500010
C65	C	1.363545	-0.575124	0.000027
C66	C	1.863545	-0.075124	0.500027
C67	C	1.478966	-0.546481	0.000058
C68	C	1.978966	-0.046481	0.500058
C69	C	1.712541	0.098746	0.000085
C70	C	2.212541	0.598746	0.500085
C71	C	1.851941	0.100799	0.000085
C72	C	2.351941	0.600799	0.500085
C73	C	1.473051	0.230334	0.000037
C74	C	1.973051	0.730334	0.500037
C75	C	1.475102	0.307852	0.000017
C76	C	1.975102	0.807852	0.500017
N77	N	1.482910	0.102727	0.356190
N78	N	1.982910	0.602727	0.856190
N79	N	1.482940	0.102731	-0.356047
N80	N	1.982940	0.602731	0.143953
C81	C	1.568572	0.055696	0.428134
C82	C	2.068572	0.555696	0.928134
C83	C	1.568584	0.055696	0.572017
C84	C	2.068584	0.555696	1.072017
C85	C	1.397269	0.149764	0.571999
C86	C	1.897269	0.649764	1.071999
C87	C	1.397251	0.149760	0.428119
C88	C	1.897251	0.649760	0.928119
H89	H	1.698197	-0.123254	0.000150
H90	H	2.198197	0.376746	0.500150
H91	H	1.327529	0.188059	0.630578
H92	H	1.827529	0.688059	1.130578
H93	H	1.327489	0.188059	0.369538
H94	H	1.827489	0.688059	0.869538
H95	H	1.073924	0.219748	0.000010
H96	H	1.573924	0.719748	0.500010
N97	N	0.814980	0.232785	0.000099
N98	N	1.314980	0.732785	0.500099
H99	H	0.831056	0.260908	-0.084634
H100	H	1.331056	0.760908	0.415366
H101	H	0.724420	0.221736	0.000190
H102	H	1.224420	0.721736	0.500190
H103	H	1.638319	0.017397	0.369573
H104	H	2.138319	0.517397	0.869573
H105	H	1.271141	-0.539150	0.000022
H106	H	1.771141	-0.039150	0.500022
N107	N	0.878645	-0.031330	0.000148
N108	N	1.378645	0.468670	0.500148
H109	H	0.824978	-0.034966	-0.084579
H110	H	1.324978	0.465034	0.415421
H111	H	0.949779	-0.070633	0.000213
H112	H	1.449779	0.429367	0.500213
N113	N	1.150909	-0.027317	0.000118
N114	N	1.650909	0.472683	0.500118
H115	H	1.099261	-0.068471	0.000139
H116	H	1.599261	0.431529	0.500139
H117	H	1.205919	-0.029285	-0.084620
H118	H	1.705919	0.470715	0.415380
H119	H	1.694693	-0.255386	0.000114
H120	H	2.194693	0.244614	0.500114
N121	N	1.248907	-0.234764	0.000058
N122	N	1.748907	0.265236	0.500058
H123	H	1.264901	-0.287609	0.000059
H124	H	1.764901	0.212391	0.500059
H125	H	1.199259	-0.218647	0.084790
H126	H	1.699259	0.281353	0.584790
N127	N	1.252921	-0.083373	0.000067
N128	N	1.752921	0.416627	0.500067
H129	H	1.179513	-0.112572	0.000053
H130	H	1.679513	0.387428	0.500053
H131	H	1.248731	-0.052826	0.084810
H132	H	1.748731	0.447174	0.584810
N133	N	1.716926	-0.559764	0.000087
N134	N	2.216926	-0.059764	0.500087
H135	H	1.788523	-0.598808	0.000081
H136	H	2.288523	-0.098808	0.500081
H137	H	1.722717	-0.529870	-0.084643
H138	H	2.222717	-0.029870	0.415357
H139	H	1.638337	0.017398	0.630590
H140	H	2.138337	0.517398	1.130590
N141	N	1.712915	-0.711155	0.000048
N142	N	2.212915	-0.211155	0.500048
H143	H	1.717200	-0.741731	0.084777
H144	H	2.217200	-0.241731	0.584777
H145	H	1.717159	-0.741664	-0.084748
H146	H	2.217159	-0.241664	0.415252
H147	H	1.267641	-0.671287	-0.000005
H148	H	1.767641	-0.171287	0.499995
