data_functionalizedCrystal
_audit_creation_method	'MofGen! by Chris Wilmer'
_symmetry_space_group_name_H-M	'P1'
_symmetry_Int_Tables_number	1
_symmetry_cell_setting	triclinic
loop_
_symmetry_equiv_pos_as_xyz
  x,y,z
_cell_length_a	10.654550
_cell_length_b	15.944551
_cell_length_c	9.130313
_cell_angle_alpha	89.997799
_cell_angle_beta	89.996220
_cell_angle_gamma	83.991820
loop_
_atom_site_label
_atom_site_type_symbol
_atom_site_fract_x
_atom_site_fract_y
_atom_site_fract_z
O1	O	1.666308	0.117973	-0.121923
O2	O	1.300684	0.129213	-0.121900
O3	O	1.493480	0.001376	-0.121899
O4	O	1.473511	0.245810	-0.121924
O5	O	1.493478	0.001379	0.121700
O6	O	1.300681	0.129216	0.121699
O7	O	1.666305	0.117976	0.121676
Cu8	Cu	1.483493	0.123596	0.143930
Cu9	Cu	1.483496	0.123592	-0.144154
O10	O	1.473509	0.245813	0.121675
C11	C	1.253895	0.128389	-0.000098
C12	C	1.114484	0.125920	-0.000088
C13	C	1.034024	0.201188	-0.000117
C14	C	0.903034	0.198863	-0.000142
C15	C	0.932975	0.045995	-0.000116
C16	C	1.063963	0.048321	-0.000080
C17	C	1.016737	0.289446	-0.000139
C18	C	0.885746	0.287121	-0.000164
C19	C	1.492650	-0.029921	-0.000099
C20	C	1.490165	-0.123182	-0.000098
C21	C	1.364720	-0.338765	-0.000111
C22	C	1.422971	-0.399443	0.119995
C23	C	1.485668	-0.293934	-0.000109
C24	C	1.423002	-0.399430	-0.120175
C25	C	1.481317	-0.458872	-0.000126
C26	C	1.543953	-0.353384	0.120095
C27	C	1.543967	-0.353364	-0.120182
C28	C	1.602306	-0.414024	-0.000048
C29	C	1.488172	-0.198917	-0.000098
C30	C	1.478822	-0.553887	-0.000127
C31	C	1.713094	0.118800	-0.000130
C32	C	1.852505	0.121269	-0.000149
C33	C	1.474339	0.277110	-0.000128
C34	C	1.476824	0.370371	-0.000139
N35	N	1.483500	0.123599	0.346552
N36	N	1.483499	0.123583	-0.346777
C37	C	1.568892	0.067012	0.423205
C38	C	1.568889	0.067002	0.576542
C39	C	1.398098	0.180173	0.576560
C40	C	1.398096	0.180178	0.423226
C41	C	1.667501	0.001676	0.423195
C42	C	1.667498	0.001666	0.576532
H43	H	1.264327	-0.306038	0.000016
H44	H	1.595080	-0.332939	-0.221733
C45	C	1.790323	0.029313	0.358926
C46	C	1.917867	-0.021236	0.394302
C47	C	2.040687	0.006407	0.330034
C48	C	2.035962	0.084599	0.230389
C49	C	1.908412	0.135153	0.195008
C50	C	1.785593	0.107511	0.259276
H51	H	1.921370	-0.079123	0.468070
H52	H	2.135107	-0.031017	0.356227
H53	H	2.126880	0.105062	0.182814
H54	H	1.904910	0.193040	0.121240
H55	H	1.691172	0.144935	0.233084
H56	H	1.702787	-0.446602	0.000014
C57	C	1.797608	0.021122	0.632772
C58	C	1.876924	-0.043300	0.729738
C59	C	2.007023	-0.023837	0.785985
C60	C	2.057807	0.060049	0.745265
C61	C	1.978490	0.124477	0.648294
C62	C	1.848391	0.105014	0.592047
H63	H	1.839332	-0.105403	0.759886
H64	H	2.065738	-0.071532	0.857770
H65	H	2.154114	0.074457	0.786902
H66	H	2.016082	0.186579	0.618146
H67	H	1.789676	0.152708	0.520263
C68	C	1.304162	0.242412	0.660904
C69	C	1.304371	0.242555	0.829565
C70	C	1.210433	0.304797	0.913904
C71	C	1.116287	0.366895	0.829583
C72	C	1.116074	0.366753	0.660912
C73	C	1.210011	0.304512	0.576573
H74	H	1.374067	0.196584	0.891993
H75	H	1.210592	0.304901	1.038766
H76	H	1.046748	0.412969	0.892016
H77	H	1.046377	0.412724	0.598484
H78	H	1.209853	0.304408	0.451711
H79	H	1.129470	-0.012970	-0.000035
H80	H	0.891824	-0.017184	-0.000131
H81	H	1.045620	0.323965	0.101809
H82	H	1.052030	0.317547	-0.105314
H83	H	1.371831	-0.419804	-0.221721
C84	C	1.353867	-0.427016	0.257173
C85	C	1.214812	-0.393627	0.283567
C86	C	1.145699	-0.421196	0.420738
C87	C	1.215641	-0.482155	0.531514
C88	C	1.354703	-0.515547	0.505122
C89	C	1.423817	-0.487978	0.367952
H90	H	1.163030	-0.348498	0.201561
H91	H	1.042755	-0.396476	0.440274
H92	H	1.164479	-0.502563	0.633056
H93	H	1.406486	-0.560676	0.587128
H94	H	1.526760	-0.512698	0.348416
C95	C	0.823566	0.323151	0.141902
C96	C	0.905240	0.356420	0.263664
C97	C	0.843058	0.392445	0.405729
C98	C	0.699203	0.395200	0.426032
C99	C	0.617520	0.361929	0.304265
C100	C	0.679702	0.325905	0.162200
H101	H	1.011738	0.354382	0.248638
H102	H	0.903526	0.417074	0.495868
H103	H	0.653172	0.421867	0.531196
H104	H	0.511022	0.363968	0.319291
H105	H	0.619234	0.301276	0.072061
H106	H	0.843584	0.320373	-0.102121
H107	H	1.328553	0.226248	0.360817
C108	C	1.612998	-0.325985	0.257426
C109	C	1.628051	-0.232086	0.282845
C110	C	1.697089	-0.204685	0.420176
C111	C	1.751075	-0.271182	0.532089
C112	C	1.736023	-0.365086	0.506673
C113	C	1.666985	-0.392487	0.369342
H114	H	1.588087	-0.182856	0.199998
H115	H	1.708231	-0.135170	0.438990
H116	H	1.802181	-0.250897	0.633750
H117	H	1.775987	-0.414316	0.589521
H118	H	1.655843	-0.462002	0.350528
H119	H	1.646893	-0.062886	0.381583
H120	H	1.637774	-0.059344	0.624087
