data_functionalizedCrystal
_audit_creation_method	'MofGen! by Chris Wilmer'
_symmetry_space_group_name_H-M	'P1'
_symmetry_Int_Tables_number	1
_symmetry_cell_setting	triclinic
loop_
_symmetry_equiv_pos_as_xyz
  x,y,z
_cell_length_a	18.101398
_cell_length_b	18.101389
_cell_length_c	19.805405
_cell_angle_alpha	89.981663
_cell_angle_beta	90.022283
_cell_angle_gamma	89.990255
loop_
_atom_site_label
_atom_site_type_symbol
_atom_site_fract_x
_atom_site_fract_y
_atom_site_fract_z
Zn1	Zn	1.132143	-0.418551	-0.269614
Zn2	Zn	1.132049	-0.294710	-0.382786
Zn3	Zn	1.008302	-0.294744	-0.269608
Zn4	Zn	1.008263	-0.418530	-0.382758
O5	O	1.070189	-0.356634	-0.326192
O6	O	1.235764	-0.402118	-0.284642
O7	O	1.115611	-0.191081	-0.367782
O8	O	1.024786	-0.311190	-0.174892
O9	O	1.235694	-0.311132	-0.367789
O10	O	1.115772	-0.402151	-0.174897
O11	O	1.024695	-0.191106	-0.284631
O12	O	0.904664	-0.311169	-0.284603
O13	O	1.024719	-0.522166	-0.367740
O14	O	0.904635	-0.402115	-0.367734
O15	O	1.115733	-0.522181	-0.284614
O16	O	1.115572	-0.311112	-0.477499
O17	O	1.024627	-0.402082	-0.477478
C18	C	0.877779	-0.356644	-0.326165
C19	C	0.795465	-0.356666	-0.326170
C20	C	0.496374	-0.356635	-0.326210
C21	C	0.527705	-0.413573	-0.378766
C22	C	0.613324	-0.413807	-0.378602
C23	C	0.644756	-0.356650	-0.326191
C24	C	0.613696	-0.377978	-0.254903
C25	C	0.528051	-0.378383	-0.255219
C26	C	0.527923	-0.278232	-0.344313
C27	C	0.613573	-0.278651	-0.345877
C28	C	0.728616	-0.356658	-0.326175
C29	C	0.412514	-0.356629	-0.326220
C30	C	1.070232	-0.549796	-0.326175
C31	C	1.070250	-0.632110	-0.326167
C32	C	1.070293	-0.931201	-0.326040
C33	C	1.012832	-0.899866	-0.378175
C34	C	1.012988	-0.814247	-0.378417
C35	C	1.070271	-0.782818	-0.326103
C36	C	1.148298	-0.813904	-0.345470
C37	C	1.147978	-0.899549	-0.345813
C38	C	1.050406	-0.899630	-0.254423
C39	C	1.048670	-0.813979	-0.254837
C40	C	1.070264	-0.698959	-0.326138
C41	C	1.070306	-1.015060	-0.326008
C42	C	1.263351	-0.356624	-0.326219
C43	C	1.345665	-0.356619	-0.326231
C44	C	1.070105	-0.356607	-0.502048
C45	C	1.070137	-0.356620	-0.577280
C46	C	1.070189	-0.164223	-0.326160
C47	C	1.070315	-0.081909	-0.325977
C48	C	1.117485	-0.404020	-0.612568
C49	C	1.117511	-0.404034	-0.683257
C50	C	1.070193	-0.356643	-0.718655
C51	C	1.022840	-0.309241	-0.683362
C52	C	1.022810	-0.309231	-0.612675
C53	C	1.022959	-0.309279	-0.968435
C54	C	1.022994	-0.309290	-1.039127
C55	C	1.117660	-0.404082	-1.039017
C56	C	1.117630	-0.404072	-0.968330
C57	C	1.070275	-0.356673	-0.933043
C58	C	1.070245	-0.356659	-0.856394
C59	C	1.070226	-0.356652	-0.795302
C60	C	1.070294	-0.356677	-0.149649
C61	C	1.070339	-0.356695	-0.074417
H62	H	0.633825	-0.471898	-0.366625
H63	H	1.192243	-0.920278	-0.309489
H64	H	0.507094	-0.400355	-0.431803
H65	H	0.634323	-0.400440	-0.431466
C66	C	0.501080	-0.455810	-0.234460
N67	N	0.480770	-0.514128	-0.218820
C68	C	0.500544	-0.220918	-0.292600
N69	N	0.479917	-0.177754	-0.253649
H70	H	0.984402	-0.270683	-0.939710
C71	C	0.641025	-0.256910	-0.416737
N72	N	0.661716	-0.240530	-0.470105
H73	H	0.635159	-0.434671	-0.239270
H74	H	0.506194	-0.471328	-0.366942
C75	C	0.498723	-0.252044	-0.413334
N76	N	0.476730	-0.232328	-0.465324
C77	C	0.970834	-0.257065	-0.722303
N78	N	0.931681	-0.217747	-0.751633
C79	C	1.169541	-0.456154	-0.573636
N80	N	1.208749	-0.495424	-0.544314
C81	C	0.641174	-0.323682	-0.200571
N82	N	0.661861	-0.282777	-0.159651
C83	C	0.500050	-0.324808	-0.200521
N84	N	0.478962	-0.284460	-0.159320
C85	C	0.642468	-0.218261	-0.297909
N86	N	0.664228	-0.172778	-0.261772
C87	C	0.934427	-0.927689	-0.361966
N88	N	0.875370	-0.948651	-0.349757
H89	H	1.156073	-0.442627	-0.711985
H90	H	1.156164	-0.442660	-0.939510
H91	H	1.156217	-0.442679	-1.067756
C92	C	0.934821	-0.785851	-0.362041
N93	N	0.875943	-0.764467	-0.349709
C94	C	1.171467	-0.784937	-0.415448
N95	N	1.188913	-0.763120	-0.468158
H96	H	1.026118	-0.793762	-0.431502
H97	H	1.025832	-0.921388	-0.430936
C98	C	1.170747	-0.926542	-0.416541
N99	N	1.187895	-0.946869	-0.469816
C100	C	1.207694	-0.786399	-0.295788
N101	N	1.252429	-0.765680	-0.258367
H102	H	0.994497	-0.921230	-0.236779
C103	C	1.106948	-0.927005	-0.201949
N104	N	1.149538	-0.947626	-0.162431
C105	C	0.970933	-0.257159	-1.078065
N106	N	0.931722	-0.217896	-1.107392
H107	H	0.991249	-0.793662	-0.240232
C108	C	1.101073	-0.785064	-0.199571
N109	N	1.140546	-0.763280	-0.157945
C110	C	0.970724	-0.257087	-0.573858
N111	N	0.931489	-0.217811	-0.544622
