data_functionalizedCrystal
_audit_creation_method	'MofGen! by Chris Wilmer'
_symmetry_space_group_name_H-M	'P1'
_symmetry_Int_Tables_number	1
_symmetry_cell_setting	triclinic
loop_
_symmetry_equiv_pos_as_xyz
  x,y,z
_cell_length_a	16.120530
_cell_length_b	19.077068
_cell_length_c	19.076919
_cell_angle_alpha	85.529249
_cell_angle_beta	90.500157
_cell_angle_gamma	89.537851
loop_
_atom_site_label
_atom_site_type_symbol
_atom_site_fract_x
_atom_site_fract_y
_atom_site_fract_z
Zn1	Zn	1.235622	-0.351862	0.464893
Zn2	Zn	1.235519	-0.465010	0.351733
Zn3	Zn	1.102611	-0.341206	0.341097
Zn4	Zn	1.090943	-0.463251	0.463136
O5	O	1.166174	-0.405332	0.405215
O6	O	1.351779	-0.372067	0.455068
O7	O	1.222729	-0.444865	0.251890
O8	O	1.125182	-0.244190	0.353803
O9	O	1.351704	-0.455197	0.371930
O10	O	1.222904	-0.252019	0.444755
O11	O	1.125082	-0.353906	0.244077
O12	O	0.984893	-0.352200	0.352100
O13	O	1.105295	-0.452198	0.561800
O14	O	0.976320	-0.441866	0.441761
O15	O	1.211590	-0.370361	0.563091
O16	O	1.211415	-0.563206	0.370226
O17	O	1.105196	-0.561914	0.452074
C18	C	1.157050	-0.588083	0.412130
C19	C	1.153221	-0.666269	0.415115
C20	C	0.950485	-0.395686	0.395586
C21	C	0.858210	-0.391577	0.391484
C22	C	1.206765	-0.703654	0.373943
C23	C	1.203168	-0.777118	0.376755
C24	C	1.146024	-0.813196	0.420736
C25	C	1.092478	-0.775806	0.461912
C26	C	1.096079	-0.702343	0.459104
C27	C	1.129324	-1.032836	0.433705
C28	C	1.125725	-1.106304	0.436509
C29	C	1.236417	-1.107611	0.351353
C30	C	1.240009	-1.034146	0.348545
C31	C	1.186467	-0.996763	0.389724
N32	N	1.142345	-0.888288	0.423610
N33	N	1.190150	-0.921673	0.386853
C34	C	0.689263	-0.384058	0.384001
C35	C	0.643920	-0.426660	0.426481
C36	C	0.549913	-0.422477	0.422318
C37	C	0.783280	-0.388241	0.388164
C38	C	1.382706	-0.415017	0.414881
C39	C	1.474979	-0.419144	0.419000
C40	C	1.157153	-0.412272	0.588681
C41	C	1.153308	-0.415229	0.666864
C42	C	1.175356	-0.221869	0.398289
C43	C	1.179269	-0.143688	0.395338
C44	C	1.175211	-0.398371	0.222462
C45	C	1.179226	-0.395223	0.144279
C46	C	1.206841	-0.374012	0.704267
C47	C	1.203219	-0.376787	0.777728
C48	C	1.146067	-0.420784	0.813784
C49	C	1.092528	-0.462002	0.776375
C50	C	1.096147	-0.459223	0.702916
C51	C	1.129306	-0.433662	1.033411
C52	C	1.125693	-0.436440	1.106876
C53	C	1.236383	-0.351224	1.108223
C54	C	1.240000	-0.348451	1.034763
C55	C	1.186458	-0.389667	0.997360
N56	N	1.142365	-0.423623	0.888872
N57	N	1.190157	-0.386823	0.922273
H58	H	1.253294	-0.674284	0.338126
O59	O	1.044238	-0.499373	0.666615
C60	C	0.999045	-0.616368	0.646875
C61	C	1.057890	-0.570982	0.688023
H62	H	1.010050	-0.674272	0.664179
H63	H	1.011455	-0.606882	0.588174
H64	H	0.932016	-0.601539	0.657844
H65	H	1.124941	-0.585784	0.677113
H66	H	1.045409	-0.580473	0.746711
O67	O	0.651487	-0.336744	0.336861
C68	C	0.669201	-0.244426	0.244732
C69	C	0.712102	-0.297961	0.298097
H70	H	0.718188	-0.213065	0.213366
H71	H	0.628877	-0.207101	0.273895
H72	H	0.628768	-0.273519	0.207392
H73	H	0.752576	-0.268927	0.335451
H74	H	0.752376	-0.335283	0.268888
H75	H	0.675703	-0.466273	0.465978
H76	H	1.286541	-1.004773	0.312732
H77	H	1.085726	-1.002404	0.467234
H78	H	1.253383	-0.338187	0.674916
O79	O	1.070236	-0.479157	1.142012
C80	C	1.015566	-0.521156	1.254582
C81	C	1.078420	-0.472768	1.214879
H82	H	1.022149	-0.515995	1.313500
H83	H	1.027997	-0.578000	1.242987
H84	H	0.949970	-0.505258	1.236639
H85	H	1.144039	-0.488603	1.232799
H86	H	1.065916	-0.415936	1.226474
O87	O	1.037078	-0.810934	0.504678
C88	C	1.017087	-0.896903	0.602329
C89	C	1.079919	-0.857183	0.553938
H90	H	1.051700	-0.934293	0.642177
H91	H	0.973620	-0.928228	0.569425
H92	H	0.979420	-0.857547	0.631241
H93	H	1.117643	-0.896490	0.525016
H94	H	1.123330	-0.825847	0.586879
H95	H	1.246813	-0.343226	0.808179
O96	O	1.295540	-0.305649	0.999848
C97	C	1.404980	-0.221450	1.008942
C98	C	1.342105	-0.269878	1.048570
H99	H	1.442657	-0.192527	1.048317
H100	H	1.370443	-0.181621	0.971477
H101	H	1.448429	-0.254395	0.977689
H102	H	1.298639	-0.236991	1.079862
H103	H	1.376696	-0.309709	1.085993
H104	H	1.246769	-0.807554	0.343228
O105	O	1.288300	-0.311208	1.144662
C106	C	1.331815	-0.277747	1.258430
C107	C	1.272959	-0.323095	1.217250
H108	H	1.319444	-0.287352	1.317125
H109	H	1.320780	-0.219819	1.241244
H110	H	1.398842	-0.292534	1.247402
H111	H	1.205910	-0.308369	1.228258
H112	H	1.284065	-0.381011	1.234442
O113	O	1.044033	-0.665944	0.498996
C114	C	0.935508	-0.578457	0.500217
C115	C	0.994415	-0.619615	0.454951
H116	H	0.895363	-0.541000	0.464625
H117	H	0.973424	-0.547066	0.537391
H118	H	0.894084	-0.616877	0.532150
H119	H	1.035851	-0.581244	0.422974
H120	H	0.956448	-0.651016	0.417821
O121	O	1.077370	-0.473801	0.997130
C122	C	1.032115	-0.590785	0.977414
C123	C	1.091003	-0.545413	1.018538
H124	H	1.043104	-0.648691	0.994717
H125	H	1.044498	-0.581307	0.918708
H126	H	0.965098	-0.575936	0.988406
H127	H	1.158041	-0.560235	1.007604
H128	H	1.078548	-0.554897	1.077231
O129	O	1.288550	-1.143852	0.311395
C130	C	1.430377	-1.171289	0.284546
C131	C	1.371423	-1.130197	0.329832
H132	H	1.497392	-1.160276	0.299446
H133	H	1.419421	-1.154073	0.226610
H134	H	1.417952	-1.229987	0.294091
H135	H	1.383812	-1.071491	0.320348
H136	H	1.382391	-1.147472	0.387753
O137	O	1.070193	-1.141244	0.479301
C138	C	0.960759	-1.132197	0.563448
C139	C	1.023618	-1.092541	0.515034
H140	H	0.923075	-1.092838	0.592340
H141	H	0.995311	-1.169623	0.603306
H142	H	0.917316	-1.163495	0.530498
H143	H	1.067078	-1.061204	0.547926
H144	H	0.989012	-1.055157	0.475174
H145	H	1.045991	-0.497823	0.805737
