data_functionalizedCrystal
_audit_creation_method	'MofGen! by Chris Wilmer'
_symmetry_space_group_name_H-M	'P1'
_symmetry_Int_Tables_number	1
_symmetry_cell_setting	triclinic
loop_
_symmetry_equiv_pos_as_xyz
  x,y,z
_cell_length_a	17.699083
_cell_length_b	14.519731
_cell_length_c	16.776229
_cell_angle_alpha	89.992369
_cell_angle_beta	89.998886
_cell_angle_gamma	83.485934
loop_
_atom_site_label
_atom_site_type_symbol
_atom_site_fract_x
_atom_site_fract_y
_atom_site_fract_z
O1	O	1.004420	0.116623	-0.066178
O2	O	0.784086	0.131796	-0.066205
O3	O	0.900086	-0.010052	-0.066183
O4	O	0.888419	0.258471	-0.066199
O5	O	0.900071	-0.010061	0.066393
O6	O	0.784070	0.131787	0.066372
O7	O	1.004404	0.116614	0.066398
Zn8	Zn	0.894235	0.124200	0.087435
Zn9	Zn	0.894255	0.124211	-0.087241
O10	O	0.888404	0.258463	0.066377
C11	C	0.755879	0.131248	0.000080
C12	C	0.671857	0.129617	0.000071
C13	C	0.623479	0.212879	0.000066
C14	C	0.544531	0.211341	0.000076
C15	C	0.513962	0.126540	0.000086
C16	C	0.562346	0.043272	0.000093
C17	C	0.641292	0.044811	0.000088
C18	C	0.243965	0.037063	0.000113
C19	C	0.165012	0.035531	0.000115
C20	C	0.147204	0.203594	0.000101
C21	C	0.226150	0.205133	0.000096
C22	C	0.274527	0.121865	0.000108
C23	C	0.360131	0.123533	0.000098
C24	C	0.428360	0.124870	0.000090
C25	C	0.899532	-0.044414	0.000105
C26	C	0.897894	-0.146787	0.000105
C27	C	0.896563	-0.229926	0.000103
C28	C	0.894899	-0.334227	0.000097
C29	C	0.893579	-0.417361	0.000092
C30	C	0.891916	-0.521669	0.000087
C31	C	1.032611	0.117162	0.000112
C32	C	1.116633	0.118793	0.000116
C33	C	0.888958	0.292824	0.000087
C34	C	0.890596	0.395198	0.000082
N35	N	0.894226	0.124191	0.206646
N36	N	0.894269	0.124212	-0.206452
C37	C	0.945607	0.061406	0.248372
C38	C	0.945611	0.061406	0.331824
C39	C	0.894238	0.124195	0.373549
C40	C	0.842852	0.186982	0.331816
C41	C	0.842844	0.186978	0.248366
C42	C	0.842879	0.187001	0.668364
C43	C	0.842892	0.187002	0.751820
C44	C	0.945646	0.061428	0.751822
C45	C	0.945639	0.061424	0.668372
C46	C	0.894250	0.124208	0.626647
C47	C	0.894245	0.124207	0.536158
C48	C	0.894246	0.124201	0.464035
H49	H	0.505145	0.279141	0.000072
H50	H	0.987444	0.010280	0.214406
Cl51	Cl	1.010227	-0.017511	0.615921
H52	H	0.987449	0.010281	0.365798
Cl53	Cl	0.304771	-0.067617	0.000126
Cl54	Cl	1.010247	-0.017506	0.804281
Cl55	Cl	0.778302	0.265942	0.804273
H56	H	0.680681	-0.022990	0.000091
H57	H	0.648362	0.281934	0.000058
H58	H	0.537451	-0.025775	0.000112
Cl59	Cl	0.778281	0.265930	0.615915
Cl60	Cl	0.264575	0.311743	0.000080
H61	H	0.107806	0.271394	0.000096
H62	H	0.140127	-0.033529	0.000124
Cl63	Cl	0.778263	0.265915	0.384268
Cl64	Cl	0.778246	0.265908	0.195910
