data_functionalizedCrystal
_audit_creation_method	'MofGen! by Chris Wilmer'
_symmetry_space_group_name_H-M	'P1'
_symmetry_Int_Tables_number	1
_symmetry_cell_setting	triclinic
loop_
_symmetry_equiv_pos_as_xyz
  x,y,z
_cell_length_a	26.374263
_cell_length_b	26.373608
_cell_length_c	26.370205
_cell_angle_alpha	60.005297
_cell_angle_beta	60.010839
_cell_angle_gamma	59.993700
loop_
_atom_site_label
_atom_site_type_symbol
_atom_site_fract_x
_atom_site_fract_y
_atom_site_fract_z
O1	O	0.070152	-0.740800	0.619517
O2	O	0.570152	-0.240800	1.119517
O3	O	0.026377	-0.576764	0.499159
O4	O	0.526377	-0.076764	0.999159
O5	O	0.130245	-0.680560	0.499088
O6	O	0.630245	-0.180560	0.999088
O7	O	-0.033715	-0.637003	0.619589
O8	O	0.466285	-0.137003	1.119589
O9	O	0.164701	-0.646107	0.533470
O10	O	0.664701	-0.146107	1.033470
O11	O	0.060833	-0.542310	0.533541
O12	O	0.560833	-0.042310	1.033541
O13	O	0.104608	-0.706346	0.653899
O14	O	0.604608	-0.206346	1.153899
Cu15	Cu	0.085867	-0.621182	0.596859
Cu16	Cu	0.585867	-0.121182	1.096859
Cu17	Cu	0.045119	-0.661927	0.556199
Cu18	Cu	0.545119	-0.161927	1.056199
O19	O	0.000741	-0.602549	0.653971
O20	O	0.500741	-0.102549	1.153971
N21	N	0.114528	-0.592529	0.625461
N22	N	0.614528	-0.092529	1.125461
N23	N	0.016463	-0.690587	0.527598
N24	N	0.516463	-0.190587	1.027598
C25	C	0.181428	-0.355400	0.692330
C26	C	0.681428	0.144600	1.192330
C27	C	0.181530	-0.525690	0.862573
C28	C	0.681530	-0.025690	1.362573
C29	C	0.181440	-0.525667	0.692313
C30	C	0.681440	-0.025667	1.192313
C31	C	0.351736	-0.525673	0.692271
C32	C	0.851736	-0.025673	1.192271
C33	C	0.200174	-0.411588	0.711047
C34	C	0.700174	0.088412	1.211047
C35	C	0.200232	-0.506954	0.806384
C36	C	0.700232	-0.006954	1.306384
C37	C	0.295546	-0.506943	0.711016
C38	C	0.795546	-0.006943	1.211016
C39	C	0.200182	-0.506940	0.711037
C40	C	0.700182	-0.006940	1.211037
C41	C	0.157567	-0.283881	0.668507
C42	C	0.657567	0.216119	1.168507
C43	C	0.157587	-0.549500	0.668479
C44	C	0.657587	-0.049500	1.168479
C45	C	0.224035	-0.483107	0.734871
C46	C	0.724035	0.016893	1.234871
C47	C	0.455739	-0.507754	0.637520
C48	C	0.955739	-0.007754	1.137520
C49	C	0.520749	-0.529425	0.615835
C50	C	1.020749	-0.029425	1.115835
C51	C	0.520768	-0.634611	0.655947
C52	C	1.020768	-0.134611	1.155947
C53	C	0.455759	-0.612939	0.677633
C54	C	0.955759	-0.112939	1.177633
C55	C	0.173240	-0.251367	0.604595
C56	C	0.673240	0.248633	1.104595
C57	C	0.151546	-0.186351	0.582941
C58	C	0.651546	0.313649	1.082941
C59	C	0.098512	-0.186369	0.689113
C60	C	0.598512	0.313631	1.189113
C61	C	0.120206	-0.251385	0.710768
C62	C	0.620206	0.248615	1.210768
C63	C	0.093669	-0.533798	0.684205
C64	C	0.593669	-0.033798	1.184205
C65	C	0.071992	-0.555464	0.662532
C66	C	0.571992	-0.055464	1.162532
C67	C	0.178144	-0.608536	0.609422
C68	C	0.678144	-0.108536	1.109422
C69	C	0.199825	-0.586869	0.631088
C70	C	0.699825	-0.086869	1.131088
C71	C	0.093821	-0.533842	0.966616
C72	C	0.593821	-0.033842	1.466616
C73	C	0.072187	-0.555526	1.031630
C74	C	0.572187	-0.055526	1.531630
C75	C	0.178370	-0.608608	1.031591
C76	C	0.678370	-0.108608	1.531591
C77	C	0.200004	-0.586926	0.966576
C78	C	0.700004	-0.086926	1.466576
C79	C	0.157728	-0.549541	0.934090
C80	C	0.657728	-0.049541	1.434090
C81	C	0.423247	-0.549509	0.668416
C82	C	0.923247	-0.049509	1.168416
C83	C	-0.097522	-0.709158	0.508557
C84	C	0.402478	-0.209158	1.008557
C85	C	-0.002050	-0.709295	0.413344
C86	C	0.497950	-0.209295	0.913344
C87	C	-0.002241	-0.804604	0.508735
C88	C	0.497759	-0.304604	1.008735
C89	C	-0.002225	-0.709288	0.508793
C90	C	0.497775	-0.209288	1.008793
C91	C	-0.026009	-0.733087	0.484858
C92	C	0.473991	-0.233087	0.984858
N93	N	0.552340	-0.592538	0.625346
N94	N	1.052340	-0.092538	1.125346
O95	O	0.750867	-0.598274	0.477076
O96	O	1.250867	-0.098274	0.977076
O97	O	0.751048	-0.718989	0.640960
O98	O	1.251048	-0.218989	1.140960
O99	O	0.750981	-0.718715	0.537020
O100	O	1.250981	-0.218715	1.037020
O101	O	0.750934	-0.598547	0.581017
O102	O	1.250934	-0.098547	1.081017
O103	O	0.647701	-0.684348	0.571512
O104	O	1.147701	-0.184348	1.071512
O105	O	0.647768	-0.684622	0.675452
O106	O	1.147768	-0.184622	1.175452
O107	O	0.647587	-0.563907	0.511569
O108	O	1.147587	-0.063907	1.011569
Cu109	Cu	0.638247	-0.621127	0.596660
Cu110	Cu	1.138247	-0.121127	1.096660
Cu111	Cu	0.760388	-0.661769	0.555869
Cu112	Cu	1.260388	-0.161769	1.055869
O113	O	0.647654	-0.564181	0.615509
O114	O	1.147654	-0.064181	1.115509
N115	N	0.846295	-0.690358	0.527176
N116	N	1.346295	-0.190358	1.027176
N117	N	0.114503	-0.154778	0.625499
N118	N	0.614503	0.345222	1.125499
O119	O	-0.033701	0.043855	0.619632
O120	O	0.466299	0.543855	1.119632
O121	O	0.130190	0.043858	0.498933
O122	O	0.630190	0.543858	0.998933
O123	O	0.026233	0.043841	0.499224
O124	O	0.526233	0.543841	0.999224
O125	O	0.070257	0.043872	0.619341
O126	O	0.570257	0.543872	1.119341
O127	O	0.060690	-0.059448	0.533654
O128	O	0.560690	0.440552	1.033654
O129	O	0.164647	-0.059431	0.533363
O130	O	0.664647	0.440569	1.033363
O131	O	0.000756	-0.059434	0.654062
O132	O	0.500756	0.440566	1.154062
Cu133	Cu	0.085848	-0.068863	0.596857
Cu134	Cu	0.585848	0.431137	1.096857
Cu135	Cu	0.045099	0.053287	0.556138
Cu136	Cu	0.545099	0.553287	1.056138
O137	O	0.104714	-0.059417	0.653771
O138	O	0.604714	0.440583	1.153771
N139	N	0.016435	0.139202	0.527497
N140	N	0.516435	0.639202	1.027497
N141	N	0.114760	-0.592585	1.063190
N142	N	0.614760	-0.092585	1.563190
O143	O	0.108896	-0.740779	1.261808
O144	O	0.608896	-0.240779	1.761808
O145	O	-0.011787	-0.576838	1.261822
O146	O	0.488213	-0.076838	1.761822
O147	O	-0.011509	-0.680779	1.261780
O148	O	0.488491	-0.180779	1.761780
O149	O	0.108618	-0.636838	1.261850
O150	O	0.608618	-0.136838	1.761850
O151	O	0.022916	-0.646341	1.158496
O152	O	0.522916	-0.146341	1.658496
O153	O	0.022638	-0.542399	1.158538
O154	O	0.522638	-0.042399	1.658538
O155	O	0.143321	-0.706341	1.158524
O156	O	0.643321	-0.206341	1.658524
Cu157	Cu	0.086123	-0.621225	1.149100
Cu158	Cu	0.586123	-0.121225	1.649100
Cu159	Cu	0.045411	-0.661953	1.271246
Cu160	Cu	0.545411	-0.161953	1.771246
O161	O	0.143044	-0.602399	1.158566
O162	O	0.643044	-0.102399	1.658566
N163	N	0.016774	-0.690600	1.357156
N164	N	0.516774	-0.190600	1.857156
C165	C	0.039504	-0.538867	0.499769
C166	C	0.539504	-0.038867	0.999769
C167	C	0.168130	-0.667407	0.499680
C168	C	0.668130	-0.167407	0.999680
C169	C	0.091482	-0.744243	0.653289
C170	C	0.591482	-0.244243	1.153289
C171	C	-0.037145	-0.615703	0.653378
C172	C	0.462855	-0.115703	1.153378
C173	C	0.699429	-0.718429	0.678853
C174	C	1.199429	-0.218429	1.178853
C175	C	0.699348	-0.718091	0.550135
C176	C	1.199348	-0.218091	1.050135
C177	C	0.699202	-0.564465	0.473677
C178	C	1.199202	-0.064465	0.973677
C179	C	0.699287	-0.564805	0.602393
C180	C	1.199287	-0.064805	1.102393
C181	C	0.168023	-0.007659	0.499484
C182	C	0.668023	0.492341	0.999484
C183	C	0.039327	-0.007807	0.499887
C184	C	0.539327	0.492193	0.999887
C185	C	-0.037119	-0.007789	0.653468
C186	C	0.462881	0.492211	1.153468
C187	C	0.091620	-0.007770	0.653109
C188	C	0.591620	0.492230	1.153109
C189	C	-0.011194	-0.538964	1.210181
C190	C	0.488806	-0.038964	1.710181
C191	C	-0.010843	-0.667676	1.210109
C192	C	0.489157	-0.167676	1.710109
C193	C	0.142729	-0.744214	1.210165
C194	C	0.642729	-0.244214	1.710165
C195	C	0.142386	-0.615494	1.210214
C196	C	0.642386	-0.115494	1.710214
H197	H	0.020147	-0.542732	1.058106
H198	H	0.520147	-0.042732	1.558106
H199	H	0.699278	-0.527058	0.611808
H200	H	1.199278	-0.027058	1.111808
H201	H	0.100832	-0.791364	0.691090
H202	H	0.600832	-0.291364	1.191090
C203	C	-0.100704	-0.007788	0.704663
C204	C	0.399296	0.492212	1.204663
C205	C	-0.151895	-0.007797	0.692265
C206	C	0.348105	0.492203	1.192265
C207	C	-0.215479	-0.007796	0.743459
C208	C	0.284521	0.492204	1.243459
C209	C	-0.227873	-0.007785	0.807051
C210	C	0.272127	0.492215	1.307051
C211	C	-0.176681	-0.007775	0.819452
C212	C	0.323319	0.492225	1.319452
C213	C	-0.113096	-0.007776	0.768258
C214	C	0.386904	0.492224	1.268258
H215	H	-0.142721	-0.007806	0.645188
H216	H	0.357279	0.492194	1.145188
H217	H	-0.253375	-0.007803	0.734279
H218	H	0.246625	0.492197	1.234279
H219	H	-0.274942	-0.007784	0.844948
H220	H	0.225058	0.492216	1.344948
H221	H	-0.185854	-0.007767	0.866529
H222	H	0.314146	0.492233	1.366529
H223	H	-0.075200	-0.007769	0.777438
H224	H	0.424800	0.492231	1.277438
C225	C	0.699126	-0.513262	0.410096
C226	C	1.199126	-0.013262	0.910096
C227	C	0.752713	-0.486498	0.370088
C228	C	1.252713	0.013502	0.870088
C229	C	0.752637	-0.435294	0.306507
C230	C	1.252637	0.064706	0.806507
C231	C	0.698974	-0.410854	0.282935
C232	C	1.198974	0.089146	0.782935
C233	C	0.645383	-0.437618	0.322945
C234	C	1.145383	0.062382	0.822945
C235	C	0.645459	-0.488822	0.386525
C236	C	1.145459	0.011178	0.886525
H237	H	0.792441	-0.504590	0.387536
H238	H	1.292441	-0.004590	0.887536
H239	H	0.792309	-0.415482	0.276889
H240	H	1.292309	0.084518	0.776889
H241	H	0.698918	-0.372950	0.235869
H242	H	1.198918	0.127050	0.735869
H243	H	0.605655	-0.419526	0.305496
H244	H	1.105655	0.080474	0.805496
H245	H	0.605787	-0.508634	0.416143
H246	H	1.105787	-0.008634	0.916143
C247	C	-0.061808	-0.680347	1.210020
C248	C	0.438192	-0.180347	1.710020
C249	C	-0.125494	-0.629337	1.209982
C250	C	0.374506	-0.129337	1.709982
C251	C	-0.176458	-0.642008	1.209892
C252	C	0.323542	-0.142008	1.709892
C253	C	-0.163736	-0.705688	1.209841
C254	C	0.336264	-0.205688	1.709841
C255	C	-0.100047	-0.756702	1.209880
C256	C	0.399953	-0.256702	1.709880
C257	C	-0.049083	-0.744031	1.209969
C258	C	0.450917	-0.244031	1.709969
H259	H	-0.134914	-0.582194	1.210019
H260	H	0.365086	-0.082194	1.710019
H261	H	-0.223605	-0.604244	1.209864
H262	H	0.276395	-0.104244	1.709864
H263	H	-0.201463	-0.715068	1.209775
H264	H	0.298537	-0.215068	1.709775
H265	H	-0.090627	-0.803845	1.209842
H266	H	0.409373	-0.303845	1.709842
H267	H	-0.001936	-0.781795	1.209997
H268	H	0.498064	-0.281795	1.709997
H269	H	0.214995	-0.007372	0.461496
H270	H	0.714995	0.492628	0.961496
H271	H	-0.049082	-0.491880	1.210184
H272	H	0.450918	0.008120	1.710184
H273	H	-0.084239	-0.606419	0.691217
H274	H	0.415761	-0.106419	1.191217
C275	C	0.026601	-0.007818	0.448905
C276	C	0.526601	0.492182	0.948905
C277	C	-0.037092	-0.007825	0.461624
C278	C	0.462908	0.492175	0.961624
C279	C	-0.049818	-0.007836	0.410643
C280	C	0.450182	0.492164	0.910643
C281	C	0.001149	-0.007839	0.346942
C282	C	0.501149	0.492161	0.846942
C283	C	0.064846	-0.007832	0.334220
C284	C	0.564846	0.492168	0.834220
C285	C	0.077572	-0.007821	0.385202
C286	C	0.577572	0.492179	0.885202
H287	H	-0.074824	-0.007822	0.508782
H288	H	0.425176	0.492178	1.008782
H289	H	-0.096971	-0.007841	0.420061
H290	H	0.403029	0.492159	0.920061
H291	H	-0.008272	-0.007847	0.309203
H292	H	0.491728	0.492153	0.809203
H293	H	0.102578	-0.007835	0.287063
H294	H	0.602578	0.492165	0.787063
H295	H	0.124725	-0.007816	0.375784
H296	H	0.624725	0.492184	0.875784
C297	C	0.699495	-0.769630	0.742437
C298	C	1.199495	-0.269630	1.242437
C299	C	0.753153	-0.794074	0.766017
C300	C	1.253153	-0.294074	1.266017
C301	C	0.753219	-0.845274	0.829600
C302	C	1.253219	-0.345274	1.329600
C303	C	0.699627	-0.872031	0.869604
C304	C	1.199627	-0.372031	1.369604
C305	C	0.645965	-0.847587	0.846025
C306	C	1.145965	-0.347587	1.346025
C307	C	0.645899	-0.796387	0.782441
C308	C	1.145899	-0.296387	1.282441
H309	H	0.792829	-0.774266	0.736403
H310	H	1.292829	-0.274266	1.236403
H311	H	0.792943	-0.863369	0.847055
H312	H	1.292943	-0.363369	1.347055
H313	H	0.699676	-0.909932	0.916673
H314	H	1.199676	-0.409932	1.416673
H315	H	0.606290	-0.867394	0.875639
H316	H	1.106290	-0.367394	1.375639
H317	H	0.606175	-0.778292	0.764986
H318	H	1.106175	-0.278292	1.264986
H319	H	0.101045	-0.007760	0.690842
H320	H	0.601045	0.492240	1.190842
C321	C	0.193918	-0.807820	1.210162
C322	C	0.693918	-0.307820	1.710162
C323	C	0.181513	-0.858995	1.210136
C324	C	0.681513	-0.358995	1.710136
C325	C	0.232702	-0.922601	1.210132
C326	C	0.732702	-0.422601	1.710132
C327	C	0.296295	-0.935032	1.210154
C328	C	0.796295	-0.435032	1.710154
C329	C	0.308703	-0.883857	1.210181
C330	C	0.808703	-0.383857	1.710181
C331	C	0.257514	-0.820251	1.210184
C332	C	0.757514	-0.320251	1.710184
H333	H	0.134435	-0.849793	1.210119
H334	H	0.634435	-0.349793	1.710119
H335	H	0.223517	-0.960484	1.210113
H336	H	0.723517	-0.460484	1.710113
H337	H	0.334189	-0.982118	1.210152
H338	H	0.834189	-0.482118	1.710152
H339	H	0.355781	-0.893058	1.210197
H340	H	0.855781	-0.393058	1.710197
H341	H	0.266699	-0.782367	1.210204
H342	H	0.766699	-0.282367	1.710204
C343	C	0.419973	-0.437979	0.627385
C344	C	0.919973	0.062021	1.127385
C345	C	0.455718	-0.392051	0.593400
C346	C	0.955718	0.107949	1.093400
C347	C	0.419955	-0.322277	0.583262
C348	C	0.919955	0.177723	1.083262
C349	C	0.348447	-0.298431	0.607108
C350	C	0.848447	0.201569	1.107108
C351	C	0.312697	-0.344360	0.641095
C352	C	0.812697	0.155640	1.141095
C353	C	0.348460	-0.414134	0.651233
C354	C	0.848460	0.085866	1.151233
H355	H	0.508657	-0.409702	0.575746
H356	H	1.008657	0.090298	1.075746
H357	H	0.446420	-0.288277	0.558103
H358	H	0.946420	0.211723	1.058103
H359	H	0.321973	-0.246780	0.599603
H360	H	0.821973	0.253220	1.099603
H361	H	0.259759	-0.326709	0.658749
H362	H	0.759759	0.173291	1.158749
H363	H	0.321996	-0.448134	0.676392
H364	H	0.821996	0.051866	1.176392
H365	H	0.030155	-0.491745	0.461969
H366	H	0.530155	0.008255	0.961969
H367	H	0.699366	-0.755841	0.540718
H368	H	1.199366	-0.255841	1.040718
H369	H	0.180125	-0.606093	1.210228
H370	H	0.680125	-0.106093	1.710228
C371	C	0.047314	-0.492716	0.930885
C372	C	0.547314	0.007284	1.430885
C373	C	-0.022982	-0.475447	0.966665
C374	C	0.477018	0.024553	1.466665
C375	C	-0.069488	-0.434324	0.930933
C376	C	0.430512	0.065676	1.430933
C377	C	-0.045697	-0.410470	0.859422
C378	C	0.454303	0.089530	1.359422
C379	C	0.024603	-0.427739	0.823638
C380	C	0.524603	0.072261	1.323638
C381	C	0.071109	-0.468862	0.859370
C382	C	0.571109	0.031138	1.359370
H383	H	-0.040596	-0.493105	1.019605
H384	H	0.459404	0.006895	1.519605
H385	H	-0.121528	-0.421541	0.957423
H386	H	0.378472	0.078459	1.457423
H387	H	-0.080123	-0.380028	0.832971
H388	H	0.419877	0.119972	1.332971
H389	H	0.042217	-0.410080	0.770698
H390	H	0.542217	0.089920	1.270698
H391	H	0.123149	-0.481645	0.832880
H392	H	0.623149	0.018355	1.332880
C393	C	0.224874	-0.649720	1.067325
C394	C	0.724874	-0.149720	1.567325
C395	C	0.295171	-0.666984	1.031549
C396	C	0.795171	-0.166984	1.531549
C397	C	0.341674	-0.708098	1.067284
C398	C	0.841674	-0.208098	1.567284
C399	C	0.317880	-0.731948	1.138795
C400	C	0.817880	-0.231948	1.638795
C401	C	0.247580	-0.714684	1.174575
C402	C	0.747580	-0.214684	1.674575
C403	C	0.201077	-0.673570	1.138841
C404	C	0.701077	-0.173570	1.638841
H405	H	0.312788	-0.649329	0.978609
H406	H	0.812788	-0.149329	1.478609
H407	H	0.393716	-0.720878	1.040796
H408	H	0.893716	-0.220878	1.540796
H409	H	0.352305	-0.762383	1.165248
H410	H	0.852305	-0.262383	1.665248
H411	H	0.229963	-0.732339	1.227516
H412	H	0.729963	-0.232339	1.727516
H413	H	0.149036	-0.660790	1.165328
H414	H	0.649036	-0.160790	1.665328
H415	H	0.252044	-0.599714	0.940097
H416	H	0.752044	-0.099714	1.440097
H417	H	0.059274	-0.503369	0.714648
H418	H	0.559274	-0.003369	1.214648
H419	H	0.019945	-0.542665	0.675322
H420	H	0.519945	-0.042665	1.175322
H421	H	0.212545	-0.638970	0.578981
H422	H	0.712545	-0.138970	1.078981
H423	H	0.251872	-0.599651	0.618278
H424	H	0.751872	-0.099651	1.118278
H425	H	0.429307	-0.646943	0.702793
H426	H	0.929307	-0.146943	1.202793
H427	H	0.547237	-0.686258	0.663446
H428	H	1.047237	-0.186258	1.163446
H429	H	0.547206	-0.495421	0.590679
H430	H	1.047206	0.004579	1.090679
H431	H	0.203661	-0.277820	0.570179
H432	H	0.703661	0.222180	1.070179
H433	H	0.068098	-0.159910	0.723527
H434	H	0.568098	0.340090	1.223527
C435	C	0.168783	-0.150577	0.512634
C436	C	0.668783	0.349423	1.012634
C437	C	0.204953	-0.105873	0.483137
C438	C	0.704953	0.394127	0.983137
C439	C	0.222189	-0.070102	0.412830
C440	C	0.722189	0.429898	0.912830
C441	C	0.203254	-0.079034	0.372021
C442	C	0.703254	0.420966	0.872021
C443	C	0.167081	-0.123741	0.401518
C444	C	0.667081	0.376259	0.901518
C445	C	0.149846	-0.159512	0.471825
C446	C	0.649846	0.340488	0.971825
H447	H	0.218972	-0.099259	0.513347
H448	H	0.718972	0.400741	1.013347
H449	H	0.248966	-0.037007	0.390995
H450	H	0.748966	0.462993	0.890995
H451	H	0.216012	-0.052554	0.319976
H452	H	0.716012	0.447446	0.819976
H453	H	0.153063	-0.130355	0.371309
H454	H	0.653063	0.369645	0.871309
H455	H	0.123068	-0.192607	0.493660
H456	H	0.623068	0.307393	0.993660
C457	C	0.102964	-0.287148	0.781073
C458	C	0.602964	0.212852	1.281073
C459	C	0.121898	-0.278214	0.821883
C460	C	0.621898	0.221786	1.321883
C461	C	0.104653	-0.313979	0.892191
C462	C	0.604653	0.186021	1.392191
C463	C	0.068475	-0.358677	0.921689
C464	C	0.568475	0.141323	1.421689
C465	C	0.049540	-0.367612	0.880879
C466	C	0.549540	0.132388	1.380879
C467	C	0.066785	-0.331848	0.810571
C468	C	0.566785	0.168152	1.310571
H469	H	0.148680	-0.245125	0.800047
H470	H	0.648680	0.254875	1.300047
H471	H	0.118670	-0.307364	0.922401
H472	H	0.618670	0.192636	1.422401
H473	H	0.055710	-0.385151	0.973735
H474	H	0.555710	0.114849	1.473735
H475	H	0.022757	-0.400702	0.902715
H476	H	0.522757	0.099298	1.402715
H477	H	0.052767	-0.338463	0.780361
H478	H	0.552767	0.161537	1.280361
C479	C	0.231747	-0.679945	0.448555
C480	C	0.731747	-0.179945	0.948555
C481	C	0.282870	-0.743581	0.461076
C482	C	0.782870	-0.243581	0.961076
C483	C	0.346487	-0.756120	0.409951
C484	C	0.846487	-0.256120	0.909951
C485	C	0.358980	-0.705022	0.346306
C486	C	0.858980	-0.205022	0.846306
C487	C	0.307856	-0.641381	0.333782
C488	C	0.807856	-0.141381	0.833782
C489	C	0.244239	-0.628843	0.384907
C490	C	0.744239	-0.128843	0.884907
H491	H	0.273623	-0.781411	0.508192
H492	H	0.773623	-0.281411	1.008192
H493	H	0.384333	-0.803231	0.419222
H494	H	0.884333	-0.303231	0.919222
H495	H	0.406073	-0.714303	0.308460
H496	H	0.906073	-0.214303	0.808460
H497	H	0.317103	-0.603552	0.286666
H498	H	0.817103	-0.103552	0.786666
H499	H	0.206393	-0.581732	0.375636
H500	H	0.706393	-0.081732	0.875636
