data_functionalizedCrystal
_audit_creation_method	'MofGen! by Chris Wilmer'
_symmetry_space_group_name_H-M	'P1'
_symmetry_Int_Tables_number	1
_symmetry_cell_setting	triclinic
loop_
_symmetry_equiv_pos_as_xyz
  x,y,z
_cell_length_a	18.050589
_cell_length_b	21.395362
_cell_length_c	21.395355
_cell_angle_alpha	90.043940
_cell_angle_beta	90.012902
_cell_angle_gamma	90.044101
loop_
_atom_site_label
_atom_site_type_symbol
_atom_site_fract_x
_atom_site_fract_y
_atom_site_fract_z
Zn1	Zn	-0.295431	0.957870	0.354610
Zn2	Zn	-0.045431	1.207870	0.604610
Zn3	Zn	0.204569	1.457870	0.854610
Zn4	Zn	0.454569	1.707870	1.104610
Zn5	Zn	-0.419603	0.957777	0.249843
Zn6	Zn	-0.169603	1.207777	0.499843
Zn7	Zn	0.080397	1.457777	0.749843
Zn8	Zn	0.330397	1.707777	0.999843
Zn9	Zn	-0.295465	0.853085	0.249811
Zn10	Zn	-0.045465	1.103085	0.499811
Zn11	Zn	0.204535	1.353085	0.749811
Zn12	Zn	0.454535	1.603085	0.999811
Zn13	Zn	-0.419618	0.853059	0.354548
Zn14	Zn	-0.169618	1.103059	0.604548
Zn15	Zn	0.080382	1.353059	0.854548
Zn16	Zn	0.330382	1.603059	1.104548
O17	O	-0.357529	0.905448	0.302203
O18	O	-0.107529	1.155448	0.552203
O19	O	0.142471	1.405448	0.802203
O20	O	0.392471	1.655448	1.052203
O21	O	-0.311882	1.045536	0.340752
O22	O	-0.061882	1.295536	0.590752
O23	O	0.188118	1.545536	0.840752
O24	O	0.438118	1.795536	1.090752
O25	O	-0.403144	0.943862	0.162161
O26	O	-0.153144	1.193862	0.412161
O27	O	0.096856	1.443862	0.662161
O28	O	0.346856	1.693862	0.912161
O29	O	-0.191536	0.867035	0.263726
O30	O	0.058464	1.117035	0.513726
O31	O	0.308464	1.367035	0.763726
O32	O	0.558464	1.617035	1.013726
O33	O	-0.403110	1.045468	0.263780
O34	O	-0.153110	1.295468	0.513780
O35	O	0.096890	1.545468	0.763780
O36	O	0.346890	1.795468	1.013780
O37	O	-0.191511	0.944020	0.340721
O38	O	0.058489	1.194020	0.590721
O39	O	0.308489	1.444020	0.840721
O40	O	0.558489	1.694020	1.090721
O41	O	-0.311940	0.866945	0.162138
O42	O	-0.061940	1.116945	0.412138
O43	O	0.188060	1.366945	0.662138
O44	O	0.438060	1.616945	0.912138
O45	O	-0.311955	0.765404	0.263665
O46	O	-0.061955	1.015404	0.513665
O47	O	0.188045	1.265404	0.763665
O48	O	0.438045	1.515404	1.013665
O49	O	-0.403136	0.866990	0.442234
O50	O	-0.153136	1.116990	0.692234
O51	O	0.096864	1.366990	0.942234
O52	O	0.346864	1.616990	1.192234
O53	O	-0.403170	0.765385	0.340615
O54	O	-0.153170	1.015385	0.590615
O55	O	0.096830	1.265385	0.840615
O56	O	0.346830	1.515385	1.090615
O57	O	-0.311896	0.943995	0.442280
O58	O	-0.061896	1.193995	0.692280
O59	O	0.188104	1.443995	0.942280
O60	O	0.438104	1.693995	1.192280
O61	O	-0.523529	0.943836	0.263719
O62	O	-0.273529	1.193836	0.513719
O63	O	-0.023529	1.443836	0.763719
O64	O	0.226471	1.693836	1.013719
O65	O	-0.523540	0.866900	0.340645
O66	O	-0.273540	1.116900	0.590645
O67	O	-0.023540	1.366900	0.840645
O68	O	0.226460	1.616900	1.090645
C69	C	-0.357568	0.742660	0.302130
C70	C	-0.107568	0.992660	0.552130
C71	C	0.142432	1.242660	0.802130
C72	C	0.392432	1.492660	1.052130
C73	C	-0.357603	0.673019	0.302114
C74	C	-0.107603	0.923019	0.552114
C75	C	0.142397	1.173019	0.802114
C76	C	0.392397	1.423019	1.052114
C77	C	-0.405161	0.640312	0.342121
C78	C	-0.155161	0.890312	0.592121
C79	C	0.094839	1.140312	0.842121
C80	C	0.344839	1.390312	1.092121
C81	C	-0.405143	0.574877	0.342149
C82	C	-0.155143	0.824877	0.592149
C83	C	0.094857	1.074877	0.842149
C84	C	0.344857	1.324877	1.092149
C85	C	-0.357574	0.542151	0.302159
C86	C	-0.107574	0.792151	0.552159
C87	C	0.142426	1.042151	0.802159
C88	C	0.392426	1.292151	1.052159
C89	C	-0.310007	0.574865	0.262148
C90	C	-0.060007	0.824865	0.512148
C91	C	0.189993	1.074865	0.762148
C92	C	0.439993	1.324865	1.012148
C93	C	-0.310021	0.640300	0.262126
C94	C	-0.060021	0.890300	0.512126
C95	C	0.189979	1.140300	0.762126
C96	C	0.439979	1.390300	1.012126
C97	C	-0.351592	0.438426	0.245753
C98	C	-0.101592	0.688426	0.495753
C99	C	0.148408	0.938426	0.745753
C100	C	0.398408	1.188426	0.995753
C101	C	-0.351583	0.372993	0.245774
C102	C	-0.101583	0.622993	0.495774
C103	C	0.148417	0.872993	0.745774
C104	C	0.398417	1.122993	0.995774
C105	C	-0.357526	0.340330	0.302228
C106	C	-0.107526	0.590330	0.552228
C107	C	0.142474	0.840330	0.802228
C108	C	0.392474	1.090330	1.052228
C109	C	-0.363494	0.373108	0.358662
C110	C	-0.113494	0.623108	0.608662
C111	C	0.136506	0.873108	0.858662
C112	C	0.386506	1.123108	1.108662
C113	C	-0.363508	0.438542	0.358640
C114	C	-0.113508	0.688542	0.608640
C115	C	0.136492	0.938542	0.858640
C116	C	0.386492	1.188542	1.108640
C117	C	-0.357553	0.471198	0.302179
C118	C	-0.107553	0.721198	0.552179
C119	C	0.142447	0.971198	0.802179
C120	C	0.392447	1.221198	1.052179
C121	C	-0.405067	0.236671	0.342269
C122	C	-0.155067	0.486671	0.592269
C123	C	0.094933	0.736671	0.842269
C124	C	0.344933	0.986671	1.092269
C125	C	-0.405044	0.171234	0.342298
C126	C	-0.155044	0.421234	0.592298
C127	C	0.094956	0.671234	0.842298
C128	C	0.344956	0.921234	1.092298
C129	C	-0.309911	0.171224	0.262291
C130	C	-0.059911	0.421224	0.512291
C131	C	0.190089	0.671224	0.762291
C132	C	0.440089	0.921224	1.012291
C133	C	-0.309931	0.236659	0.262268
C134	C	-0.059931	0.486659	0.512268
C135	C	0.190069	0.736659	0.762268
C136	C	0.440069	0.986659	1.012268
C137	C	-0.357513	0.269379	0.302256
C138	C	-0.107513	0.519379	0.552256
C139	C	0.142487	0.769379	0.802256
C140	C	0.392487	1.019379	1.052256
C141	C	-0.550481	0.905372	0.302192
C142	C	-0.300481	1.155372	0.552192
C143	C	-0.050481	1.405372	0.802192
C144	C	0.199519	1.655372	1.052192
C145	C	-0.633027	0.905397	0.302209
C146	C	-0.383027	1.155397	0.552209
C147	C	-0.133027	1.405397	0.802209
C148	C	0.116973	1.655397	1.052209
C149	C	-0.832511	0.863601	0.344027
C150	C	-0.582511	1.113601	0.594027
C151	C	-0.332511	1.363601	0.844027
C152	C	-0.082511	1.613601	1.094027
C153	C	-0.881943	0.848322	0.286848
C154	C	-0.631943	1.098322	0.536848
C155	C	-0.381943	1.348322	0.786848
C156	C	-0.131943	1.598322	1.036848
C157	C	-0.784157	0.905459	0.302217
C158	C	-0.534157	1.155459	0.552217
C159	C	-0.284157	1.405459	0.802217
C160	C	-0.034157	1.655459	1.052217
C161	C	-0.881806	0.920768	0.359402
C162	C	-0.631806	1.170768	0.609402
C163	C	-0.381806	1.420768	0.859402
C164	C	-0.131806	1.670768	1.109402
C165	C	-0.930142	0.905517	0.302230
C166	C	-0.680142	1.155517	0.552230
C167	C	-0.430142	1.405517	0.802230
C168	C	-0.180142	1.655517	1.052230
C169	C	-0.832503	0.890151	0.245009
C170	C	-0.582503	1.140151	0.495009
C171	C	-0.332503	1.390151	0.745009
C172	C	-0.082503	1.640151	0.995009
C173	C	-0.832361	0.962623	0.317601
C174	C	-0.582361	1.212623	0.567601
C175	C	-0.332361	1.462623	0.817601
C176	C	-0.082361	1.712623	1.067601
C177	C	-0.881772	0.947366	0.260383
C178	C	-0.631772	1.197366	0.510383
C179	C	-0.381772	1.447366	0.760383
C180	C	-0.131772	1.697366	1.010383
C181	C	-0.700059	0.905424	0.302211
C182	C	-0.450059	1.155424	0.552211
C183	C	-0.200059	1.405424	0.802211
C184	C	0.049941	1.655424	1.052211
C185	C	-1.014239	0.905552	0.302230
C186	C	-0.764239	1.155552	0.552230
C187	C	-0.514239	1.405552	0.802230
C188	C	-0.264239	1.655552	1.052230
C189	C	-0.163823	0.905541	0.302227
C190	C	0.086177	1.155541	0.552227
C191	C	0.336177	1.405541	0.802227
C192	C	0.586177	1.655541	1.052227
C193	C	-0.081278	0.905581	0.302237
C194	C	0.168722	1.155581	0.552237
C195	C	0.418722	1.405581	0.802237
C196	C	0.668722	1.655581	1.052237
C197	C	-0.357514	0.905500	0.465626
C198	C	-0.107514	1.155500	0.715626
C199	C	0.142486	1.405500	0.965626
C200	C	0.392486	1.655500	1.215626
C201	C	-0.357508	0.905522	0.535268
C202	C	-0.107508	1.155522	0.785268
C203	C	0.142492	1.405522	1.035268
C204	C	0.392492	1.655522	1.285268
C205	C	-0.357490	1.068871	0.302276
C206	C	-0.107490	1.318871	0.552276
C207	C	0.142510	1.568871	0.802276
C208	C	0.392510	1.818871	1.052276
C209	C	-0.357474	1.138513	0.302307
C210	C	-0.107474	1.388513	0.552307
C211	C	0.142526	1.638513	0.802307
C212	C	0.392526	1.888513	1.052307
C213	C	-0.357490	0.905432	0.139415
C214	C	-0.107490	1.155432	0.389415
C215	C	0.142510	1.405432	0.639415
C216	C	0.392510	1.655432	0.889415
C217	C	-0.357288	0.905531	0.069774
C218	C	-0.107288	1.155531	0.319774
C219	C	0.142712	1.405531	0.569774
C220	C	0.392712	1.655531	0.819774
C221	C	-0.309997	0.945617	0.568006
C222	C	-0.059997	1.195617	0.818006
C223	C	0.190003	1.445617	1.068006
C224	C	0.440003	1.695617	1.318006
C225	C	-0.309965	0.945616	0.633441
C226	C	-0.059965	1.195616	0.883441
C227	C	0.190035	1.445616	1.133441
C228	C	0.440035	1.695616	1.383441
C229	C	-0.357457	0.905527	0.666136
C230	C	-0.107457	1.155527	0.916136
C231	C	0.142543	1.405527	1.166136
C232	C	0.392543	1.655527	1.416136
C233	C	-0.404971	0.865425	0.633390
C234	C	-0.154971	1.115425	0.883390
C235	C	0.095029	1.365425	1.133390
C236	C	0.345029	1.615425	1.383390
C237	C	-0.404996	0.865422	0.567956
C238	C	-0.154996	1.115422	0.817956
C239	C	0.095004	1.365422	1.067956
C240	C	0.345004	1.615422	1.317956
C241	C	-0.424328	0.900554	0.769805
C242	C	-0.174328	1.150554	1.019805
C243	C	0.075672	1.400554	1.269805
C244	C	0.325672	1.650554	1.519805
C245	C	-0.424304	0.900560	0.835238
C246	C	-0.174304	1.150560	1.085238
C247	C	0.075696	1.400560	1.335238
C248	C	0.325696	1.650560	1.585238
C249	C	-0.357379	0.905531	0.867957
C250	C	-0.107379	1.155531	1.117957
C251	C	0.142621	1.405531	1.367957
C252	C	0.392621	1.655531	1.617957
C253	C	-0.290475	0.910508	0.835234
C254	C	-0.040475	1.160508	1.085234
C255	C	0.209525	1.410508	1.335234
C256	C	0.459525	1.660508	1.585234
C257	C	-0.290501	0.910505	0.769800
C258	C	-0.040501	1.160505	1.019800
C259	C	0.209499	1.410505	1.269800
C260	C	0.459499	1.660505	1.519800
C261	C	-0.357435	0.905525	0.737088
C262	C	-0.107435	1.155525	0.987088
C263	C	0.142565	1.405525	1.237088
C264	C	0.392565	1.655525	1.487088
C265	C	-0.309829	0.945627	0.971647
C266	C	-0.059829	1.195627	1.221647
C267	C	0.190171	1.445627	1.471647
C268	C	0.440171	1.695627	1.721647
C269	C	-0.309796	0.945621	1.037084
C270	C	-0.059796	1.195621	1.287084
C271	C	0.190204	1.445621	1.537084
C272	C	0.440204	1.695621	1.787084
C273	C	-0.404809	0.865434	1.037032
C274	C	-0.154809	1.115434	1.287032
C275	C	0.095191	1.365434	1.537032
C276	C	0.345191	1.615434	1.787032
C277	C	-0.404835	0.865436	0.971596
C278	C	-0.154835	1.115436	1.221596
C279	C	0.095165	1.365436	1.471596
C280	C	0.345165	1.615436	1.721596
C281	C	-0.357347	0.905535	0.938908
C282	C	-0.107347	1.155535	1.188908
C283	C	0.142653	1.405535	1.438908
C284	C	0.392653	1.655535	1.688908
H285	H	-0.443870	0.548242	0.374731
H286	H	-0.193870	0.798242	0.624731
H287	H	0.056130	1.048242	0.874731
H288	H	0.306130	1.298242	1.124731
Br289	Br	-0.469587	0.126845	0.396604
Br290	Br	-0.219587	0.376845	0.646604
Br291	Br	0.030413	0.626845	0.896604
Br292	Br	0.280413	0.876845	1.146604
H293	H	-0.236026	0.914556	0.743160
H294	H	0.013974	1.164556	0.993160
H295	H	0.263974	1.414556	1.243160
H296	H	0.513974	1.664556	1.493160
Br297	Br	-0.917598	1.006411	0.201398
Br298	Br	-0.667598	1.256411	0.451398
Br299	Br	-0.417598	1.506411	0.701398
Br300	Br	-0.167598	1.756411	0.951398
H301	H	-0.271291	0.666929	0.229547
H302	H	-0.021291	0.916929	0.479547
H303	H	0.228709	1.166929	0.729547
H304	H	0.478709	1.416929	0.979547
Br305	Br	-0.796562	0.868518	0.164389
Br306	Br	-0.546562	1.118518	0.414389
Br307	Br	-0.296562	1.368518	0.664389
Br308	Br	-0.046562	1.618518	0.914389
H309	H	-0.443637	0.832782	0.660014
H310	H	-0.193637	1.082782	0.910014
H311	H	0.056363	1.332782	1.160014
H312	H	0.306363	1.582782	1.410014
H313	H	-0.271177	0.144579	0.229733
H314	H	-0.021177	0.394579	0.479733
H315	H	0.228823	0.644579	0.729733
H316	H	0.478823	0.894579	0.979733
H317	H	-0.368366	0.465228	0.404590
H318	H	-0.118366	0.715228	0.654590
H319	H	0.131634	0.965228	0.904590
H320	H	0.381634	1.215228	1.154590
Br321	Br	-0.796036	1.043133	0.339313
Br322	Br	-0.546036	1.293133	0.589313
Br323	Br	-0.296036	1.543133	0.839313
Br324	Br	-0.046036	1.793133	1.089313
Br325	Br	-0.796455	0.804519	0.402876
Br326	Br	-0.546455	1.054519	0.652876
Br327	Br	-0.296455	1.304519	0.902876
Br328	Br	-0.046455	1.554519	1.152876
H329	H	-0.903463	0.933693	0.407758
H330	H	-0.653463	1.183693	0.657758
H331	H	-0.403463	1.433693	0.907758
H332	H	-0.153463	1.683693	1.157758
H333	H	-0.271327	0.978268	0.541395
H334	H	-0.021327	1.228268	0.791395
H335	H	0.228673	1.478268	1.041395
H336	H	0.478673	1.728268	1.291395
H337	H	-0.478780	0.896512	0.861876
H338	H	-0.228780	1.146512	1.111876
H339	H	0.021220	1.396512	1.361876
H340	H	0.271220	1.646512	1.611876
H341	H	-0.271272	0.978264	0.660102
H342	H	-0.021272	1.228264	0.910102
H343	H	0.228728	1.478264	1.160102
H344	H	0.478728	1.728264	1.410102
Br345	Br	-0.199642	0.917259	0.879629
Br346	Br	0.050358	1.167259	1.129629
Br347	Br	0.300358	1.417259	1.379629
Br348	Br	0.550358	1.667259	1.629629
Br349	Br	-0.245380	1.000044	0.927281
Br350	Br	0.004620	1.250044	1.177281
Br351	Br	0.254620	1.500044	1.427281
Br352	Br	0.504620	1.750044	1.677281
Br353	Br	-0.371558	0.328789	0.435284
Br354	Br	-0.121558	0.578789	0.685284
Br355	Br	0.128442	0.828789	0.935284
Br356	Br	0.378442	1.078789	1.185284
Br357	Br	-0.245323	1.000050	1.081516
Br358	Br	0.004677	1.250050	1.331516
Br359	Br	0.254677	1.500050	1.581516
Br360	Br	0.504677	1.750050	1.831516
H361	H	-0.443470	0.832786	1.063651
H362	H	-0.193470	1.082786	1.313651
H363	H	0.056530	1.332786	1.563651
H364	H	0.306530	1.582786	1.813651
H365	H	-0.346749	0.465014	0.199778
H366	H	-0.096749	0.715014	0.449778
H367	H	0.153251	0.965014	0.699778
H368	H	0.403251	1.215014	0.949778
H369	H	-0.443528	0.832790	0.944941
H370	H	-0.193528	1.082790	1.194941
H371	H	0.056472	1.332790	1.444941
H372	H	0.306472	1.582790	1.694941
H373	H	-0.271208	0.263290	0.229686
H374	H	-0.021208	0.513290	0.479686
H375	H	0.228792	0.763290	0.729686
H376	H	0.478792	1.013290	0.979686
Br377	Br	-0.515165	0.893826	0.725408
Br378	Br	-0.265165	1.143826	0.975408
Br379	Br	-0.015165	1.393826	1.225408
Br380	Br	0.234835	1.643826	1.475408
H381	H	-0.443684	0.832770	0.541301
H382	H	-0.193684	1.082770	0.791301
H383	H	0.056316	1.332770	1.041301
H384	H	0.306316	1.582770	1.291301
H385	H	-0.443905	0.666948	0.374684
H386	H	-0.193905	0.916948	0.624684
H387	H	0.056095	1.166948	0.874684
H388	H	0.306095	1.416948	1.124684
Br389	Br	-0.469637	0.281080	0.396539
Br390	Br	-0.219637	0.531080	0.646539
Br391	Br	0.030363	0.781080	0.896539
Br392	Br	0.280363	1.031080	1.146539
H393	H	-0.346728	0.346310	0.199822
H394	H	-0.096728	0.596310	0.449822
H395	H	0.153272	0.846310	0.699822
H396	H	0.403272	1.096310	0.949822
H397	H	-0.271275	0.548216	0.229589
H398	H	-0.021275	0.798216	0.479589
H399	H	0.228725	1.048216	0.729589
H400	H	0.478725	1.298216	0.979589
H401	H	-0.903738	0.800008	0.273849
H402	H	-0.653738	1.050008	0.523849
H403	H	-0.403738	1.300008	0.773849
H404	H	-0.153738	1.550008	1.023849
