data_functionalizedCrystal
_audit_creation_method	'MofGen! by Chris Wilmer'
_symmetry_space_group_name_H-M	'P1'
_symmetry_Int_Tables_number	1
_symmetry_cell_setting	triclinic
loop_
_symmetry_equiv_pos_as_xyz
  x,y,z
_cell_length_a	15.944545
_cell_length_b	19.188930
_cell_length_c	14.421503
_cell_angle_alpha	89.999163
_cell_angle_beta	89.995153
_cell_angle_gamma	83.320477
loop_
_atom_site_label
_atom_site_type_symbol
_atom_site_fract_x
_atom_site_fract_y
_atom_site_fract_z
O1	O	1.114196	0.090017	-0.077062
O2	O	1.447529	0.423351	0.256271
O3	O	1.780862	0.756684	0.589604
O4	O	0.869604	0.101124	-0.077079
O5	O	1.202937	0.434457	0.256255
O6	O	1.536271	0.767791	0.589588
O7	O	0.998958	-0.006067	-0.077052
O8	O	1.332292	0.327266	0.256281
O9	O	1.665625	0.660600	0.589615
O10	O	0.984841	0.197208	-0.077089
O11	O	1.318175	0.530542	0.256244
O12	O	1.651508	0.863875	0.589578
O13	O	0.998937	-0.006051	0.077171
O14	O	1.332270	0.327282	0.410505
O15	O	1.665603	0.660616	0.743838
O16	O	0.869582	0.101140	0.077145
O17	O	1.202916	0.434473	0.410478
O18	O	1.536249	0.767807	0.743811
O19	O	1.114174	0.090033	0.077161
O20	O	1.447508	0.423367	0.410494
O21	O	1.780841	0.756700	0.743828
Cu22	Cu	0.991876	0.095588	0.091235
Cu23	Cu	1.325210	0.428921	0.424568
Cu24	Cu	1.658543	0.762255	0.757901
Cu25	Cu	0.991902	0.095569	-0.091152
Cu26	Cu	1.325235	0.428903	0.242181
Cu27	Cu	1.658568	0.762236	0.575514
O28	O	0.984820	0.197224	0.077134
O29	O	1.318153	0.530557	0.410468
O30	O	1.651487	0.863891	0.743801
C31	C	0.838301	0.100672	0.000031
C32	C	1.171634	0.434005	0.333365
C33	C	1.504967	0.767338	0.666698
C34	C	0.745060	0.099292	0.000026
C35	C	1.078393	0.432625	0.333359
C36	C	1.411726	0.765958	0.666692
C37	C	0.474691	0.028726	0.000048
C38	C	0.808024	0.362060	0.333382
C39	C	1.141358	0.695393	0.666715
C40	C	0.525135	0.062755	0.076085
C41	C	0.858468	0.396088	0.409418
C42	C	1.191801	0.729422	0.742751
C43	C	0.409434	0.094370	0.000043
C44	C	0.742768	0.427704	0.333376
C45	C	1.076101	0.761037	0.666709
C46	C	0.525136	0.062757	-0.075967
C47	C	0.858470	0.396090	0.257366
C48	C	1.191803	0.729424	0.590699
C49	C	0.574339	0.096785	0.000033
C50	C	0.907672	0.430118	0.333366
C51	C	1.241005	0.763451	0.666699
C52	C	0.458650	0.128381	0.076142
C53	C	0.791983	0.461715	0.409475
C54	C	1.125316	0.795048	0.742808
C55	C	0.458648	0.128374	-0.075979
C56	C	0.791981	0.461707	0.257354
C57	C	1.125315	0.795040	0.590688
C58	C	0.509059	0.162451	0.000076
C59	C	0.842392	0.495784	0.333409
C60	C	1.175726	0.829117	0.666743
C61	C	0.314437	0.092977	0.000049
C62	C	0.647771	0.426311	0.333382
C63	C	0.981104	0.759644	0.666716
C64	C	0.669333	0.098183	0.000033
C65	C	1.002666	0.431516	0.333366
C66	C	1.336000	0.764849	0.666700
C67	C	0.998490	-0.032071	0.000062
C68	C	1.331824	0.301262	0.333396
C69	C	1.665157	0.634596	0.666729
C70	C	0.997118	-0.109579	0.000070
C71	C	1.330451	0.223754	0.333404
C72	C	1.663785	0.557088	0.666737
C73	C	1.073019	-0.154308	0.000080
C74	C	1.406352	0.179025	0.333413
C75	C	1.739686	0.512358	0.666746
C76	C	1.071730	-0.227135	0.000065
C77	C	1.405063	0.106198	0.333398
C78	C	1.738396	0.439531	0.666732
C79	C	0.994535	-0.255230	0.000059
C80	C	1.327869	0.078103	0.333392
C81	C	1.661202	0.411437	0.666726
C82	C	0.918624	-0.210491	0.000044
C83	C	1.251958	0.122842	0.333378
C84	C	1.585291	0.456176	0.666711
C85	C	0.919916	-0.137666	0.000050
C86	C	1.253249	0.195668	0.333383
C87	C	1.586582	0.529001	0.666717
N88	N	0.935522	-0.363381	0.052540
N89	N	1.268855	-0.030048	0.385874
N90	N	1.602189	0.303286	0.719207
N91	N	0.934300	-0.432563	0.052537
N92	N	1.267634	-0.099229	0.385870
N93	N	1.600967	0.234104	0.719204
C94	C	0.990640	-0.474649	0.000040
C95	C	1.323973	-0.141315	0.333373
C96	C	1.657306	0.192018	0.666707
N97	N	1.048259	-0.444941	-0.052442
N98	N	1.381593	-0.111607	0.280892
N99	N	1.714926	0.221726	0.614225
N100	N	1.049484	-0.375753	-0.052434
N101	N	1.382817	-0.042420	0.280899
N102	N	1.716150	0.290914	0.614232
C103	C	0.993126	-0.334196	0.000052
C104	C	1.326460	-0.000863	0.333386
C105	C	1.659793	0.332470	0.666719
C106	C	1.065148	-0.598346	0.000032
C107	C	1.398481	-0.265013	0.333365
C108	C	1.731814	0.068321	0.666699
C109	C	1.063855	-0.671174	0.000011
C110	C	1.397189	-0.337841	0.333345
C111	C	1.730522	-0.004507	0.666678
C112	C	0.910748	-0.654528	0.000000
C113	C	1.244081	-0.321195	0.333333
C114	C	1.577414	0.012139	0.666667
C115	C	0.912042	-0.581702	0.000011
C116	C	1.245376	-0.248368	0.333345
C117	C	1.578709	0.084965	0.666678
C118	C	0.989245	-0.553615	0.000032
C119	C	1.322578	-0.220282	0.333365
C120	C	1.655911	0.113052	0.666698
C121	C	1.145477	0.090486	0.000049
C122	C	1.478811	0.423819	0.333382
C123	C	1.812144	0.757152	0.666716
C124	C	1.238719	0.091866	0.000048
C125	C	1.572052	0.425199	0.333382
C126	C	1.905385	0.758532	0.666715
C127	C	0.985288	0.223228	0.000018
C128	C	1.318621	0.556562	0.333351
C129	C	1.651955	0.889895	0.666685
C130	C	0.986660	0.300736	0.000004
C131	C	1.319993	0.634070	0.333337
C132	C	1.653327	0.967403	0.666671
N133	N	0.991865	0.095601	0.219516
N134	N	1.325198	0.428934	0.552849
N135	N	1.658531	0.762268	0.886183
N136	N	0.991920	0.095551	-0.219434
N137	N	1.325253	0.428884	0.113900
N138	N	1.658587	0.762217	0.447233
C139	C	0.932041	0.145144	0.469157
C140	C	1.265374	0.478477	0.802491
C141	C	1.598707	0.811810	1.135824
C142	C	1.007890	0.158697	0.530962
C143	C	1.341224	0.492031	0.864295
C144	C	1.674557	0.825364	1.197629
C145	C	0.991885	0.095584	0.408677
C146	C	1.325219	0.428918	0.742011
C147	C	1.658552	0.762251	1.075344
C148	C	0.916055	0.082047	0.530967
C149	C	1.249389	0.415380	0.864300
C150	C	1.582722	0.748714	1.197633
C151	C	0.991898	0.095570	0.591399
C152	C	1.325232	0.428903	0.924732
C153	C	1.658565	0.762236	1.258065
C154	C	1.067773	0.109169	0.469121
C155	C	1.401106	0.442503	0.802455
C156	C	1.734440	0.775836	1.135788
C157	C	0.975888	0.032492	0.469120
C158	C	1.309221	0.365825	0.802454
C159	C	1.642555	0.699158	1.135787
C160	C	1.051792	0.046018	0.530897
C161	C	1.385126	0.379352	0.864231
C162	C	1.718459	0.712685	1.197564
C163	C	0.991877	0.095594	0.303416
C164	C	1.325210	0.428928	0.636750
C165	C	1.658543	0.762261	0.970083
C166	C	0.991916	0.095559	0.696658
C167	C	1.325249	0.428892	1.029991
C168	C	1.658582	0.762226	1.363324
H169	H	0.554166	0.035016	-0.140246
H170	H	0.887500	0.368349	0.193087
H171	H	1.220833	0.701683	0.526420
H172	H	0.459249	-0.027807	0.000133
H173	H	0.792582	0.305526	0.333466
H174	H	1.125916	0.638860	0.666799
H175	H	0.847895	-0.677402	-0.000009
H176	H	1.181228	-0.344069	0.333324
H177	H	1.514561	-0.010735	0.666657
Cl178	Cl	0.414002	0.171162	0.175498
Cl179	Cl	0.747335	0.504495	0.508831
Cl180	Cl	1.080669	0.837828	0.842165
Cl181	Cl	0.816618	-0.525467	0.000004
Cl182	Cl	1.149952	-0.192134	0.333337
Cl183	Cl	1.483285	0.141199	0.666670
Cl184	Cl	1.130018	-0.018701	0.572496
Cl185	Cl	1.463352	0.314632	0.905830
Cl186	Cl	1.796685	0.647966	1.239163
Cl187	Cl	1.028801	0.241063	0.572903
Cl188	Cl	1.362135	0.574397	0.906236
Cl189	Cl	1.695468	0.907730	1.239569
H190	H	0.881484	0.187088	0.442049
H191	H	1.214817	0.520421	0.775382
H192	H	1.548150	0.853755	1.108716
H193	H	0.962321	-0.020841	0.441935
H194	H	1.295655	0.312492	0.775269
H195	H	1.628988	0.645826	1.108602
H196	H	1.131920	0.120677	0.442070
H197	H	1.465254	0.454010	0.775403
H198	H	1.798587	0.787343	1.108736
Cl199	Cl	1.170073	-0.119003	0.000079
Cl200	Cl	1.503406	0.214330	0.333413
Cl201	Cl	1.836740	0.547663	0.666746
H202	H	0.851922	0.070604	0.558135
H203	H	1.185255	0.403937	0.891468
H204	H	1.518588	0.737271	1.224802
H205	H	1.133539	-0.263561	0.000069
H206	H	1.466873	0.069773	0.333402
H207	H	1.800206	0.403106	0.666736
H208	H	0.554160	0.035038	0.140378
H209	H	0.887494	0.368372	0.473711
H210	H	1.220827	0.701705	0.807044
Cl211	Cl	0.821580	-0.245809	0.000029
Cl212	Cl	1.154913	0.087524	0.333363
Cl213	Cl	1.488246	0.420858	0.666696
Cl214	Cl	0.413806	0.171129	-0.175246
Cl215	Cl	0.747140	0.504462	0.158087
Cl216	Cl	1.080473	0.837795	0.491420
Cl217	Cl	0.532651	0.249801	0.000122
Cl218	Cl	0.865984	0.583134	0.333455
Cl219	Cl	1.199317	0.916468	0.666789
H220	H	0.858106	-0.101246	0.000043
H221	H	1.191439	0.232087	0.333376
H222	H	1.524773	0.565420	0.666709
Cl223	Cl	1.162200	-0.563034	0.000063
Cl224	Cl	1.495533	-0.229700	0.333396
Cl225	Cl	1.828867	0.103633	0.666730
Cl226	Cl	1.159283	-0.727407	0.000017
Cl227	Cl	1.492616	-0.394073	0.333350
Cl228	Cl	1.825950	-0.060740	0.666684
