data_functionalizedCrystal
_audit_creation_method	'MofGen! by Chris Wilmer'
_symmetry_space_group_name_H-M	'P1'
_symmetry_Int_Tables_number	1
_symmetry_cell_setting	triclinic
loop_
_symmetry_equiv_pos_as_xyz
  x,y,z
_cell_length_a	15.944499
_cell_length_b	15.021413
_cell_length_c	13.339070
_cell_angle_alpha	90.007525
_cell_angle_beta	80.446548
_cell_angle_gamma	90.009905
loop_
_atom_site_label
_atom_site_type_symbol
_atom_site_fract_x
_atom_site_fract_y
_atom_site_fract_z
O1	O	1.144895	0.074084	-0.130204
O2	O	0.904101	0.074074	-0.146343
O3	O	0.996863	0.074075	0.008986
O4	O	1.052134	0.074083	-0.285533
O5	O	0.996847	-0.073989	0.008964
O6	O	0.904085	-0.073990	-0.146366
O7	O	1.144880	-0.073980	-0.130226
Zn8	Zn	1.024480	-0.097494	-0.138299
Zn9	Zn	1.024500	0.097587	-0.138270
O10	O	1.052118	-0.073982	-0.285555
C11	C	0.872644	0.000040	-0.145694
C12	C	0.778934	0.000036	-0.143713
C13	C	0.508426	0.000052	-0.233955
C14	C	0.558532	0.073056	-0.187034
C15	C	0.441621	0.000057	-0.136515
C16	C	0.558497	-0.072924	-0.187029
C17	C	0.607355	0.000045	-0.140057
C18	C	0.490492	0.073121	-0.089567
C19	C	0.490454	-0.072924	-0.089577
C20	C	0.540526	0.000097	-0.042585
C21	C	0.346146	0.000064	-0.134478
C22	C	0.702827	0.000044	-0.142087
N23	N	1.024472	-0.230631	-0.138319
C24	C	0.981562	-0.470315	-0.210109
C25	C	1.062037	-0.529646	-0.229731
C26	C	1.024488	-0.412238	-0.138293
C27	C	0.944039	-0.529649	-0.118694
C28	C	1.024497	-0.587662	-0.138271
C29	C	1.105011	-0.470263	-0.157961
C30	C	0.986955	-0.470261	-0.046884
C31	C	1.067475	-0.529565	-0.066467
C32	C	1.024482	-0.311181	-0.138309
C33	C	1.024511	-0.688718	-0.138255
C34	C	1.176336	0.000055	-0.130875
C35	C	1.270046	0.000065	-0.132857
C36	C	0.987519	0.000044	0.046662
C37	C	0.959689	0.000046	0.158960
N38	N	1.024513	0.230725	-0.138243
C39	C	1.061462	0.000052	-0.323232
C40	C	1.089292	0.000055	-0.435529
C41	C	1.176076	0.000055	0.523786
C42	C	1.202226	0.000047	0.418278
C43	C	1.141594	0.000047	0.353443
C44	C	1.054808	0.000054	0.394127
C45	C	1.028655	0.000054	0.499646
C46	C	0.994173	0.000047	0.329303
C47	C	0.907387	0.000054	0.369987
C48	C	0.881239	0.000055	0.475496
C49	C	0.941871	0.000055	0.540331
C50	C	1.020325	0.000047	0.223784
C51	C	0.872905	0.000046	0.199644
C52	C	0.846755	0.000054	0.305153
H53	H	0.588173	-0.134640	-0.228268
N54	N	0.451086	-0.154682	-0.035039
H55	H	0.421218	-0.190618	-0.082564
H56	H	0.408662	-0.136014	0.026197
H57	H	0.823533	0.000042	0.146855
H58	H	0.460925	0.134909	-0.048383
N59	N	0.853920	-0.564213	-0.096743
H60	H	0.821551	-0.542662	-0.151048
H61	H	0.825293	-0.541679	-0.028213
H62	H	0.554843	0.000134	0.038353
H63	H	1.103834	-0.555417	-0.005722
N64	N	0.933550	-0.435857	-0.290610
H65	H	0.962013	-0.457463	-0.359625
H66	H	0.933430	-0.368629	-0.289535
H67	H	1.093790	-0.555730	-0.307024
H68	H	1.173085	-0.444286	-0.174621
N69	N	1.113924	0.000038	0.179913
H70	H	1.141607	0.054925	0.203559
H71	H	1.121223	0.000002	0.103241
H72	H	0.920584	0.000064	0.626246
H73	H	1.162890	0.000041	0.267534
H74	H	0.810572	0.000053	0.508618
H75	H	0.493939	0.000125	-0.314820
H76	H	0.955183	-0.444156	0.030384
N77	N	1.295823	0.000036	0.374398
H78	H	1.330265	0.000037	0.431477
H79	H	1.309894	0.054923	0.331149
N80	N	1.241465	0.000039	0.593711
H81	H	1.211727	0.000036	0.666725
H82	H	1.278236	0.054926	0.580556
H83	H	0.776092	0.000059	0.338293
H84	H	0.588241	0.134773	-0.228241
