data_functionalizedCrystal
_audit_creation_method	'MofGen! by Chris Wilmer'
_symmetry_space_group_name_H-M	'P1'
_symmetry_Int_Tables_number	1
_symmetry_cell_setting	triclinic
loop_
_symmetry_equiv_pos_as_xyz
  x,y,z
_cell_length_a	21.295418
_cell_length_b	21.295420
_cell_length_c	21.295411
_cell_angle_alpha	90.025571
_cell_angle_beta	89.980044
_cell_angle_gamma	89.975185
loop_
_atom_site_label
_atom_site_type_symbol
_atom_site_fract_x
_atom_site_fract_y
_atom_site_fract_z
Zn1	Zn	-0.250724	-0.962369	-0.355936
Zn2	Zn	0.249276	-0.462369	0.144064
Zn3	Zn	-0.355976	-0.962277	-0.250664
Zn4	Zn	0.144024	-0.462277	0.249336
Zn5	Zn	-0.250720	-0.857092	-0.250679
Zn6	Zn	0.249280	-0.357092	0.249321
Zn7	Zn	-0.355955	-0.857067	-0.355894
Zn8	Zn	0.144045	-0.357067	0.144106
O9	O	-0.303344	-0.909701	-0.303293
O10	O	0.196656	-0.409701	0.196707
O11	O	-0.264697	-1.050446	-0.341983
O12	O	0.235303	-0.550446	0.158017
O13	O	-0.342021	-0.948296	-0.162577
O14	O	0.157979	-0.448296	0.337423
O15	O	-0.162631	-0.871106	-0.264665
O16	O	0.337369	-0.371106	0.235335
O17	O	-0.342025	-1.050379	-0.264640
O18	O	0.157975	-0.550379	0.235360
O19	O	-0.162634	-0.948453	-0.341997
O20	O	0.337366	-0.448453	0.158003
O21	O	-0.264690	-0.871017	-0.162588
O22	O	0.235310	-0.371017	0.337412
O23	O	-0.264669	-0.768999	-0.264625
O24	O	0.235331	-0.268999	0.235375
O25	O	-0.341989	-0.871064	-0.443989
O26	O	0.158011	-0.371064	0.056011
O27	O	-0.341985	-0.768981	-0.341926
O28	O	0.158015	-0.268981	0.158074
O29	O	-0.264676	-0.948428	-0.444020
O30	O	0.235324	-0.448428	0.055980
O31	O	-0.444063	-0.948272	-0.264600
O32	O	0.055937	-0.448272	0.235400
O33	O	-0.444047	-0.870975	-0.341912
O34	O	0.055953	-0.370975	0.158088
C35	C	-0.303324	-0.746150	-0.303273
C36	C	0.196676	-0.246150	0.196727
C37	C	-0.303331	-0.676182	-0.303279
C38	C	0.196669	-0.176182	0.196721
C39	C	-0.343665	-0.176731	-0.343494
C40	C	0.156335	0.323269	0.156506
C41	C	-0.343667	-0.242473	-0.343488
C42	C	0.156333	0.257527	0.156512
C43	C	-0.303349	-0.275342	-0.303303
C44	C	0.196651	0.224658	0.196697
C45	C	-0.263038	-0.242463	-0.263110
C46	C	0.236962	0.257537	0.236890
C47	C	-0.263043	-0.176722	-0.263112
C48	C	0.236957	0.323278	0.236888
N49	N	-0.248233	-0.378580	-0.298571
N50	N	0.251767	0.121420	0.201429
N51	N	-0.248231	-0.441031	-0.298572
N52	N	0.251769	0.058969	0.201428
C53	C	-0.303334	-0.473417	-0.303293
C54	C	0.196666	0.026583	0.196707
N55	N	-0.358441	-0.440992	-0.308025
N56	N	0.141559	0.059008	0.191975
N57	N	-0.358443	-0.378535	-0.308026
N58	N	0.141557	0.121465	0.191974
C59	C	-0.303340	-0.346628	-0.303296
C60	C	0.196660	0.153372	0.196704
C61	C	-0.343646	-0.577573	-0.343475
C62	C	0.156354	-0.077573	0.156525
C63	C	-0.343649	-0.643317	-0.343465
C64	C	0.156351	-0.143317	0.156535
C65	C	-0.263015	-0.643306	-0.263090
C66	C	0.236985	-0.143306	0.236910
C67	C	-0.263018	-0.577564	-0.263096
C68	C	0.236982	-0.077564	0.236904
C69	C	-0.303333	-0.544701	-0.303292
C70	C	0.196667	-0.044701	0.196708
C71	C	-0.466895	-0.909628	-0.303263
C72	C	0.033105	-0.409628	0.196737
C73	C	-0.536864	-0.909654	-0.303271
C74	C	-0.036864	-0.409654	0.196729
C75	C	-1.036309	-0.950101	-0.263138
C76	C	-0.536309	-0.450101	0.236862
C77	C	-0.970566	-0.950077	-0.263124
C78	C	-0.470566	-0.450077	0.236876
C79	C	-0.937703	-0.909790	-0.303337
C80	C	-0.437703	-0.409790	0.196663
C81	C	-0.970588	-0.869512	-0.343558
C82	C	-0.470588	-0.369512	0.156442
C83	C	-1.036329	-0.869533	-0.343567
C84	C	-0.536329	-0.369533	0.156433
N85	N	-0.834460	-0.904901	-0.358420
N86	N	-0.334460	-0.404901	0.141580
N87	N	-0.772008	-0.904885	-0.358410
N88	N	-0.272008	-0.404885	0.141590
C89	C	-0.739628	-0.909724	-0.303311
C90	C	-0.239628	-0.409724	0.196689
N91	N	-0.772059	-0.914593	-0.248222
N92	N	-0.272059	-0.414593	0.251778
N93	N	-0.834516	-0.914612	-0.248233
N94	N	-0.334516	-0.414612	0.251767
C95	C	-0.866418	-0.909763	-0.303332
C96	C	-0.366418	-0.409763	0.196668
C97	C	-0.635466	-0.949970	-0.263074
C98	C	-0.135466	-0.449970	0.236926
C99	C	-0.569722	-0.949942	-0.263058
C100	C	-0.069722	-0.449942	0.236942
C101	C	-0.569745	-0.869381	-0.343498
C102	C	-0.069745	-0.369381	0.156502
C103	C	-0.635487	-0.869406	-0.343508
C104	C	-0.135487	-0.369406	0.156492
C105	C	-0.668344	-0.909704	-0.303297
C106	C	-0.168344	-0.409704	0.196703
C107	C	-0.139154	-0.909792	-0.303337
C108	C	0.360846	-0.409792	0.196663
C109	C	-0.069185	-0.909831	-0.303356
C110	C	0.430815	-0.409831	0.196644
C111	C	-0.303331	-0.909754	-0.467484
C112	C	0.196669	-0.409754	0.032516
C113	C	-0.303325	-0.909776	-0.537452
C114	C	0.196675	-0.409776	-0.037452
C115	C	-0.303360	-0.073892	-0.303310
C116	C	0.196640	0.426108	0.196690
C117	C	-0.303358	-0.143860	-0.303308
C118	C	0.196642	0.356140	0.196692
C119	C	-0.263067	-0.950058	-0.570335
C120	C	0.236933	-0.450058	-0.070335
C121	C	-0.263039	-0.950057	-0.636078
C122	C	0.236961	-0.450057	-0.136078
C123	C	-0.303282	-0.909781	-0.668934
C124	C	0.196718	-0.409781	-0.168934
C125	C	-0.343543	-0.869491	-0.636043
C126	C	0.156457	-0.369491	-0.136043
C127	C	-0.343564	-0.869488	-0.570301
C128	C	0.156436	-0.369488	-0.070301
N129	N	-0.358349	-0.904927	-0.772151
N130	N	0.141651	-0.404927	-0.272151
N131	N	-0.358327	-0.904933	-0.834603
N132	N	0.141673	-0.404933	-0.334603
C133	C	-0.303218	-0.909785	-0.867009
C134	C	0.196782	-0.409785	-0.367009
N135	N	-0.248131	-0.914642	-0.834605
N136	N	0.251869	-0.414642	-0.334605
N137	N	-0.248154	-0.914640	-0.772148
N138	N	0.251846	-0.414640	-0.272148
C139	C	-0.303262	-0.909779	-0.740220
C140	C	0.196738	-0.409779	-0.240220
C141	C	-0.262926	-0.950068	-0.971178
C142	C	0.237074	-0.450068	-0.471178
C143	C	-0.262898	-0.950063	-1.036922
C144	C	0.237102	-0.450063	-0.536922
C145	C	-0.343407	-0.869500	-1.036886
C146	C	0.156593	-0.369500	-0.536886
C147	C	-0.343430	-0.869502	-0.971143
C148	C	0.156570	-0.369502	-0.471143
C149	C	-0.303190	-0.909789	-0.938293
C150	C	0.196810	-0.409789	-0.438293
C151	C	-0.303312	-0.909686	-0.139742
C152	C	0.196688	-0.409686	0.360258
C153	C	-0.303140	-0.909785	-0.069774
C154	C	0.196860	-0.409785	0.430226
H155	H	-0.230212	-0.269229	-0.230390
H156	H	0.269788	0.230771	0.269610
C157	C	-0.388003	-0.679478	-0.387656
C158	C	0.111997	-0.179478	0.112344
H159	H	-0.382236	-0.723339	-0.381889
H160	H	0.117764	-0.223339	0.118111
H161	H	-0.378861	-0.668738	-0.429972
H162	H	0.121139	-0.168738	0.070028
H163	H	-0.430283	-0.668675	-0.378356
H164	H	0.069717	-0.168675	0.121644
H165	H	-0.230253	-0.982858	-0.662857
H166	H	0.269747	-0.482858	-0.162857
C167	C	-0.387677	-0.825201	-1.073020
C168	C	0.112323	-0.325201	-0.573020
H169	H	-0.381903	-0.830974	-1.116883
H170	H	0.118097	-0.330974	-0.616883
H171	H	-0.378469	-0.782909	-1.062230
H172	H	0.121531	-0.282909	-0.562230
H173	H	-0.429978	-0.834399	-1.062247
H174	H	0.070022	-0.334399	-0.562247
C175	C	-0.218698	-0.140562	-0.218911
C176	C	0.281302	0.359438	0.281089
H177	H	-0.194683	-0.169551	-0.194978
H178	H	0.305317	0.330449	0.305022
H179	H	-0.242738	-0.114891	-0.191443
H180	H	0.257262	0.385109	0.308557
H181	H	-0.191303	-0.114943	-0.243047
H182	H	0.308697	0.385057	0.256953
H183	H	-0.376474	-0.550815	-0.376204
H184	H	0.123526	-0.050815	0.123796
C185	C	-0.218665	-0.679454	-0.218888
C186	C	0.281335	-0.179454	0.281112
H187	H	-0.224432	-0.723316	-0.224644
H188	H	0.275568	-0.223316	0.275356
H189	H	-0.227815	-0.668656	-0.176577
H190	H	0.272185	-0.168656	0.323423
H191	H	-0.176382	-0.668700	-0.228182
H192	H	0.323618	-0.168700	0.271818
C193	C	-0.533558	-0.994242	-0.218817
C194	C	-0.033558	-0.494242	0.281183
H195	H	-0.562544	-1.018247	-0.194877
H196	H	-0.062544	-0.518247	0.305123
H197	H	-0.507944	-0.970172	-0.191358
H198	H	-0.007944	-0.470172	0.308642
H199	H	-0.507879	-1.021647	-0.242928
H200	H	-0.007879	-0.521647	0.257072
C201	C	-0.934444	-0.825200	-0.387796
C202	C	-0.434444	-0.325200	0.112204
H203	H	-0.963443	-0.801216	-0.411748
H204	H	-0.463443	-0.301216	0.088252
H205	H	-0.908769	-0.849258	-0.415244
H206	H	-0.408769	-0.349258	0.084756
H207	H	-0.908829	-0.797775	-0.363683
H208	H	-0.408829	-0.297775	0.136317
H209	H	-0.376216	-0.836703	-0.944369
H210	H	0.123784	-0.336703	-0.444369
C211	C	-0.387810	-0.825187	-0.672179
C212	C	0.112190	-0.325187	-0.172179
H213	H	-0.411787	-0.801192	-0.643176
H214	H	0.088213	-0.301192	-0.143176
H215	H	-0.415233	-0.849252	-0.697834
H216	H	0.084767	-0.349252	-0.197834
H217	H	-0.363713	-0.797773	-0.697814
H218	H	0.136287	-0.297773	-0.197814
C219	C	-0.388039	-0.140585	-0.387678
C220	C	0.111961	0.359415	0.112322
H221	H	-0.412057	-0.169582	-0.411599
H222	H	0.087943	0.330418	0.088401
H223	H	-0.364025	-0.114947	-0.415157
H224	H	0.135975	0.385053	0.084843
H225	H	-0.415430	-0.114934	-0.363523
H226	H	0.084570	0.385066	0.136477
H227	H	-1.063097	-0.836741	-0.376319
H228	H	-0.563097	-0.336741	0.123681
C229	C	-0.218800	-0.994364	-0.534201
C230	C	0.281200	-0.494364	-0.034201
H231	H	-0.224579	-0.988598	-0.490337
H232	H	0.275421	-0.488598	0.009663
H233	H	-0.176501	-0.985176	-0.544975
H234	H	0.323499	-0.485176	-0.044975
H235	H	-0.228018	-1.036657	-0.544991
H236	H	0.271982	-0.536657	-0.044991
C237	C	-0.388003	-0.278639	-0.387698
C238	C	0.111997	0.221361	0.112302
H239	H	-0.412010	-0.249651	-0.411640
H240	H	0.087990	0.250349	0.088360
H241	H	-0.415395	-0.304266	-0.363573
H242	H	0.084605	0.195734	0.136427
H243	H	-0.363949	-0.304303	-0.415166
H244	H	0.136051	0.195697	0.084834
C245	C	-0.387859	-0.825185	-0.534128
C246	C	0.112141	-0.325185	-0.034128
H247	H	-0.411827	-0.801200	-0.563109
H248	H	0.088173	-0.301200	-0.063109
H249	H	-0.363791	-0.797770	-0.508465
H250	H	0.136209	-0.297770	-0.008465
H251	H	-0.415300	-0.849260	-0.508498
H252	H	0.084700	-0.349260	-0.008498
H253	H	-0.230193	-0.550800	-0.230375
H254	H	0.269807	-0.050800	0.269625
H255	H	-0.662256	-0.836615	-0.376259
H256	H	-0.162256	-0.336615	0.123741
H257	H	-1.063056	-0.982913	-0.230393
H258	H	-0.563056	-0.482913	0.269607
H259	H	-0.230157	-0.982869	-0.944431
H260	H	0.269843	-0.482869	-0.444431
H261	H	-0.943793	-0.982871	-0.230372
H262	H	-0.443793	-0.482871	0.269628
H263	H	-0.662219	-0.982783	-0.230331
H264	H	-0.162219	-0.482783	0.269669
C265	C	-0.533603	-0.825066	-0.387733
C266	C	-0.033603	-0.325066	0.112267
H267	H	-0.489741	-0.830823	-0.381971
H268	H	0.010259	-0.330823	0.118029
H269	H	-0.544414	-0.782779	-0.378483
H270	H	-0.044414	-0.282779	0.121517
H271	H	-0.544350	-0.834265	-0.430041
H272	H	-0.044350	-0.334265	0.069959
H273	H	-0.230111	-0.982864	-1.063695
H274	H	0.269889	-0.482864	-0.563695
