data_functionalizedCrystal
_audit_creation_method	'MofGen! by Chris Wilmer'
_symmetry_space_group_name_H-M	'P1'
_symmetry_Int_Tables_number	1
_symmetry_cell_setting	triclinic
loop_
_symmetry_equiv_pos_as_xyz
  x,y,z
_cell_length_a	14.971482
_cell_length_b	15.711784
_cell_length_c	14.048226
_cell_angle_alpha	89.997727
_cell_angle_beta	89.994098
_cell_angle_gamma	101.600705
loop_
_atom_site_label
_atom_site_type_symbol
_atom_site_fract_x
_atom_site_fract_y
_atom_site_fract_z
O1	O	1.223691	0.112670	-0.079143
O2	O	1.723691	0.612670	0.420857
O3	O	0.967692	0.126167	-0.079147
O4	O	1.467692	0.626167	0.420853
O5	O	1.061625	-0.006448	-0.079144
O6	O	1.561625	0.493552	0.420856
O7	O	1.129757	0.245285	-0.079146
O8	O	1.629757	0.745285	0.420854
O9	O	1.061606	-0.006456	0.079177
O10	O	1.561606	0.493544	0.579177
O11	O	0.967673	0.126159	0.079174
O12	O	1.467673	0.626159	0.579174
O13	O	1.223672	0.112662	0.079178
O14	O	1.723672	0.612662	0.579178
Zn15	Zn	1.095669	0.119409	0.104313
Zn16	Zn	1.595669	0.619409	0.604313
Zn17	Zn	1.095694	0.119420	-0.104282
Zn18	Zn	1.595694	0.619420	0.395718
O19	O	1.129738	0.245277	0.079175
O20	O	1.629738	0.745277	0.579175
C21	C	0.934161	0.125560	0.000013
C22	C	1.434161	0.625560	0.500013
C23	C	0.834274	0.123753	0.000011
C24	C	1.334274	0.623753	0.500011
C25	C	0.787341	0.122898	0.086313
C26	C	1.287341	0.622898	0.586313
C27	C	0.693485	0.121186	0.086314
C28	C	1.193485	0.621186	0.586314
C29	C	0.646564	0.120335	0.000012
C30	C	1.146564	0.620335	0.500012
C31	C	0.693502	0.121188	-0.086297
C32	C	1.193502	0.621188	0.413703
C33	C	0.787356	0.122894	-0.086297
C34	C	1.287356	0.622894	0.413703
C35	C	0.497882	0.117635	-0.086290
C36	C	0.997882	0.617635	0.413710
C37	C	0.404022	0.115931	-0.086291
C38	C	0.904022	0.615931	0.413709
C39	C	0.404010	0.115927	0.086320
C40	C	0.904010	0.615927	0.586320
C41	C	0.497864	0.117633	0.086320
C42	C	0.997864	0.617633	0.586320
C43	C	0.544797	0.118487	0.000011
C44	C	1.044797	0.618487	0.500011
C45	C	1.050486	-0.038668	0.000014
C46	C	1.550486	0.461332	0.500014
C47	C	1.017312	-0.134660	0.000009
C48	C	1.517312	0.365340	0.500009
C49	C	0.892424	-0.259735	0.000001
C50	C	1.392424	0.240265	0.500001
C51	C	0.923605	-0.169537	0.000006
C52	C	1.423605	0.330463	0.500006
C53	C	1.079876	-0.189974	0.000012
C54	C	1.579876	0.310026	0.500012
C55	C	1.048708	-0.280176	0.000012
C56	C	1.548708	0.219824	0.500012
C57	C	0.954981	-0.315049	0.000006
C58	C	1.454981	0.184951	0.500006
C59	C	1.111265	-0.335490	0.000017
C60	C	1.611265	0.164510	0.500017
C61	C	1.080099	-0.425683	0.000012
C62	C	1.580099	0.074317	0.500012
C63	C	0.986376	-0.460563	0.000002
C64	C	1.486376	0.039437	0.500002
C65	C	0.923815	-0.405242	0.000001
C66	C	1.423815	0.094758	0.500001
C67	C	1.204991	-0.300615	0.000017
C68	C	1.704991	0.199385	0.500017
C69	C	1.267548	-0.355929	0.000021
C70	C	1.767548	0.144071	0.500021
C71	C	1.236382	-0.446124	0.000023
C72	C	1.736382	0.053876	0.500023
C73	C	1.142660	-0.481004	0.000014
C74	C	1.642660	0.018996	0.500014
C75	C	1.298943	-0.501445	0.000025
C76	C	1.798943	-0.001445	0.500025
C77	C	1.267777	-0.591638	0.000020
C78	C	1.767777	-0.091638	0.500020
C79	C	1.111494	-0.571198	0.000009
C80	C	1.611494	-0.071198	0.500009
C81	C	1.257203	0.113269	0.000016
C82	C	1.757203	0.613269	0.500016
C83	C	1.357089	0.115076	0.000011
C84	C	1.857089	0.615076	0.500011
C85	C	1.140877	0.277497	0.000014
C86	C	1.640877	0.777497	0.500014
C87	C	1.174051	0.373489	0.000013
C88	C	1.674051	0.873489	0.500013
N89	N	1.095658	0.119402	0.246674
N90	N	1.595658	0.619402	0.746674
N91	N	1.095710	0.119420	-0.246643
N92	N	1.595710	0.619420	0.253357
C93	C	1.137279	0.060704	0.296493
C94	C	1.637279	0.560704	0.796493
C95	C	1.137285	0.060703	0.396151
C96	C	1.637285	0.560703	0.896151
C97	C	1.095675	0.119406	0.445987
C98	C	1.595675	0.619406	0.945987
C99	C	1.054049	0.178106	0.396161
C100	C	1.554049	0.678106	0.896161
C101	C	1.054038	0.178102	0.296505
C102	C	1.554038	0.678102	0.796505
C103	C	1.054077	0.178112	0.603875
C104	C	1.554077	0.678112	1.103875
C105	C	1.054089	0.178118	0.703538
C106	C	1.554089	0.678118	1.203538
C107	C	1.137324	0.060714	0.703521
C108	C	1.637324	0.560714	1.203521
C109	C	1.137313	0.060710	0.603865
C110	C	1.637313	0.560710	1.103865
C111	C	1.095688	0.119412	0.554045
C112	C	1.595688	0.619412	1.054045
H113	H	1.035172	-0.599593	0.000025
H114	H	1.535172	-0.099593	0.500025
H115	H	0.536091	0.118331	-0.156572
H116	H	1.036091	0.618331	0.343428
Br117	Br	0.851013	0.124060	0.203444
Br118	Br	1.351013	0.624060	0.703444
H119	H	0.816103	-0.288130	0.000017
H120	H	1.316103	0.211870	0.500017
H121	H	1.171175	0.012907	0.436713
H122	H	1.671175	0.512907	0.936713
Br123	Br	0.340343	0.114778	-0.203416
Br124	Br	0.840343	0.614778	0.296584
H125	H	1.171168	0.012905	0.255923
H126	H	1.671168	0.512905	0.755923
H127	H	1.020144	0.225898	0.255943
H128	H	1.520144	0.725898	0.755943
H129	H	1.318718	-0.636677	0.000019
H130	H	1.818718	-0.136677	0.500019
Br131	Br	0.629796	0.120039	0.203443
Br132	Br	1.129796	0.620039	0.703443
H133	H	0.536066	0.118330	0.156595
H134	H	1.036066	0.618330	0.656595
H135	H	1.171200	0.012914	0.563288
H136	H	1.671200	0.512914	1.063288
Br137	Br	0.340319	0.114771	0.203454
Br138	Br	0.840319	0.614771	0.703454
Br139	Br	0.629817	0.119996	-0.203423
Br140	Br	1.129817	0.619996	0.296577
H141	H	1.230363	-0.227173	0.000023
H142	H	1.730363	0.272827	0.500023
Br143	Br	0.997568	0.257769	0.463792
Br144	Br	1.497568	0.757769	0.963792
H145	H	0.825568	0.123592	-0.156573
H146	H	1.325568	0.623592	0.343427
H147	H	0.961002	-0.534005	-0.000007
H148	H	1.461002	-0.034005	0.499993
H149	H	0.847494	-0.433637	0.000017
H150	H	1.347494	0.066363	0.500017
H151	H	0.872656	-0.124502	0.000004
H152	H	1.372656	0.375498	0.500004
Br153	Br	1.207072	-0.142639	0.000014
Br154	Br	1.707072	0.357361	0.500014
H155	H	1.343861	-0.327522	0.000031
H156	H	1.843861	0.172478	0.500031
Br157	Br	1.426139	-0.454106	0.000014
Br158	Br	1.926139	0.045894	0.500014
H159	H	1.171216	0.012917	0.744089
H160	H	1.671216	0.512917	1.244089
Br161	Br	0.997616	0.257789	0.771166
Br162	Br	1.497616	0.757789	1.271166
Br163	Br	0.997578	0.257777	0.536266
Br164	Br	1.497578	0.757777	1.036266
