data_functionalizedCrystal
_audit_creation_method	'MofGen! by Chris Wilmer'
_symmetry_space_group_name_H-M	'P1'
_symmetry_Int_Tables_number	1
_symmetry_cell_setting	triclinic
loop_
_symmetry_equiv_pos_as_xyz
  x,y,z
_cell_length_a	12.777686
_cell_length_b	15.624803
_cell_length_c	15.625605
_cell_angle_alpha	39.022070
_cell_angle_beta	97.079234
_cell_angle_gamma	82.921597
loop_
_atom_site_label
_atom_site_type_symbol
_atom_site_fract_x
_atom_site_fract_y
_atom_site_fract_z
O1	O	0.351563	0.482423	0.711725
O2	O	0.328324	0.351061	0.580354
O3	O	0.188479	0.421488	0.650797
O4	O	0.491408	0.411995	0.641282
O5	O	0.119372	0.650769	0.421531
O6	O	0.259218	0.580342	0.351088
O7	O	0.282457	0.711703	0.482459
Zn8	Zn	0.259865	0.682426	0.380372
Zn9	Zn	0.350916	0.380339	0.682440
O10	O	0.422302	0.641276	0.412016
C11	C	0.287973	0.448913	0.448931
C12	C	0.270684	0.398889	0.398905
C13	C	0.495991	0.526626	0.526649
C14	C	0.614793	0.526626	0.526651
C15	C	0.114793	0.536127	0.536175
C16	C	-0.004007	0.536121	0.536178
C17	C	0.402158	-0.390581	0.859377
C18	C	0.385892	-0.437582	0.812369
C19	C	0.310551	-0.187641	0.562421
C20	C	0.326806	-0.140617	0.609409
C21	C	0.372611	-0.242096	0.757889
C22	C	0.297259	0.007868	0.507920
C23	C	0.313518	0.054887	0.554905
C24	C	0.359325	-0.046579	0.703378
C25	C	0.388871	-0.195077	0.804873
C26	C	0.251461	0.109344	0.359440
C27	C	0.221914	0.257830	0.257952
C28	C	0.238166	0.304851	0.304936
C29	C	0.283972	0.203385	0.453409
C30	C	0.208620	0.453349	0.203441
C31	C	0.224879	0.500368	0.250425
C32	C	0.300232	0.250404	0.500394
O33	O	0.991407	0.421486	0.650802
O34	O	0.688469	0.411993	0.641274
O35	O	0.828320	0.482409	0.711734
O36	O	0.851557	0.351070	0.580341
O37	O	0.759224	0.711694	0.482473
O38	O	0.619374	0.641277	0.412012
O39	O	0.922312	0.650771	0.421540
Zn40	Zn	0.759873	0.682428	0.380376
Zn41	Zn	0.850909	0.380335	0.682438
O42	O	0.782462	0.580354	0.351080
C43	C	0.322809	0.613848	0.613884
C44	C	0.340100	0.663863	0.663920
C45	C	0.787975	0.613835	0.613897
C46	C	0.770688	0.663845	0.663936
C47	C	0.822804	0.448938	0.448907
C48	C	0.840082	0.398956	0.398839
C49	C	0.902122	0.203460	1.453320
C50	C	0.885865	0.250494	1.500297
C51	C	0.810543	0.500443	1.250357
C52	C	0.826799	0.453430	1.203357
C53	C	0.872587	0.304937	1.304847
C54	C	0.797264	0.554906	1.054884
C55	C	0.813513	0.507896	1.007889
C56	C	0.859296	0.359409	1.109367
C57	C	0.888836	0.257926	1.257852
C58	C	0.751468	0.703399	0.953396
C59	C	0.721934	0.804875	0.804923
C60	C	0.738190	0.757866	0.757926
C61	C	0.783973	0.609379	0.859404
C62	C	0.708650	0.859349	0.609441
C63	C	0.724899	0.812338	0.562446
C64	C	0.800222	0.562369	0.812409
N65	N	0.197726	0.888596	0.174223
N66	N	0.413048	0.174173	0.888594
N67	N	0.697751	0.888600	0.174228
N68	N	0.913041	0.174168	0.888591
C69	C	0.114084	0.991915	0.133309
C70	C	0.070564	1.136249	-0.010996
C71	C	0.110694	1.177263	-0.114382
C72	C	0.194341	1.073930	-0.073462
C73	C	0.237854	0.929597	0.070838
C74	C	0.373015	0.133297	0.991965
C75	C	0.416496	-0.011017	1.136290
C76	C	0.500004	-0.114455	1.177239
C77	C	0.540041	-0.073571	1.073856
C78	C	0.496566	0.070743	0.929536
C79	C	0.603978	0.987543	0.128877
C80	C	0.560484	1.131873	-0.015432
C81	C	0.610770	1.177259	-0.114385
C82	C	0.704550	1.078303	-0.069028
C83	C	0.748037	0.933973	0.075277
C84	C	1.006547	0.075093	0.933805
C85	C	1.050048	-0.069234	1.078117
C86	C	1.000047	-0.114480	1.177215
C87	C	0.906530	-0.015393	1.131992
C88	C	0.863025	0.128928	0.987679
H89	H	0.337527	0.167768	0.621301
H90	H	0.939419	0.082543	1.535966
H91	H	0.305017	0.217501	0.958648
H92	H	0.383881	-0.044284	1.220450
Br93	Br	0.838679	-0.076824	1.266498
Br94	Br	0.736112	0.263371	0.926335
Br95	Br	0.925949	0.112758	1.701811
Br96	Br	0.875197	0.799653	0.136747
Br97	Br	1.176889	-0.203717	1.139422
H98	H	0.227008	1.107342	-0.157657
Br99	Br	0.381401	0.017227	0.767149
H100	H	0.484123	1.212425	-0.052338
H101	H	0.305965	0.845480	0.104139
H102	H	0.535396	-0.231960	1.294757
H103	H	0.608039	-0.157807	1.107215
Br104	Br	0.184786	0.701889	0.112691
Br105	Br	0.772725	1.139893	-0.203370
H106	H	0.238230	0.071050	0.321190
Br107	Br	1.074429	0.136461	0.799344
H108	H	0.529168	0.104010	0.845374
Br109	Br	0.535713	0.925985	0.263144
Br110	Br	0.951000	0.056398	1.395585
H111	H	0.426166	-0.277713	0.925780
Br112	Br	0.748406	0.701963	1.112634
H113	H	0.575356	1.294789	-0.231879
H114	H	0.409960	-0.558500	0.895024
Br115	Br	0.464305	-0.528296	1.060890
Br116	Br	0.248397	-0.049935	0.360918
H117	H	1.035475	-0.232003	1.294716
H118	H	0.184623	0.340441	0.137059
H119	H	0.171335	0.535959	0.082548
H120	H	0.872531	0.321136	1.071095
Br121	Br	0.862386	0.360840	0.950141
H122	H	0.684648	0.925779	0.722302
Br123	Br	0.646498	1.060867	0.471721
Br124	Br	0.684789	0.950054	0.360940
Br125	Br	0.059601	0.936295	0.273590
H126	H	0.738244	0.741670	0.991670
H127	H	0.002458	1.220370	-0.044290
H128	H	0.075255	1.294793	-0.231877
