data_functionalizedCrystal
_audit_creation_method	'MofGen! by Chris Wilmer'
_symmetry_space_group_name_H-M	'P1'
_symmetry_Int_Tables_number	1
_symmetry_cell_setting	triclinic
loop_
_symmetry_equiv_pos_as_xyz
  x,y,z
_cell_length_a	19.121063
_cell_length_b	16.120542
_cell_length_c	16.120297
_cell_angle_alpha	89.872913
_cell_angle_beta	95.179432
_cell_angle_gamma	90.317046
loop_
_atom_site_label
_atom_site_type_symbol
_atom_site_fract_x
_atom_site_fract_y
_atom_site_fract_z
Zn1	Zn	-0.355825	-1.228532	-0.551617
Zn2	Zn	0.144175	-0.728532	-0.051617
Zn3	Zn	-0.467608	-1.229541	-0.417908
Zn4	Zn	0.032392	-0.729541	0.082092
Zn5	Zn	-0.343951	-1.097153	-0.404964
Zn6	Zn	0.156049	-0.597153	0.095036
Zn7	Zn	-0.466953	-1.083532	-0.549843
Zn8	Zn	0.033047	-0.583532	-0.049843
O9	O	-0.408584	-1.159690	-0.481083
O10	O	0.091416	-0.659690	0.018917
O11	O	-0.375897	-1.344754	-0.540040
O12	O	0.124103	-0.844754	-0.040040
O13	O	-0.446510	-1.218102	-0.299601
O14	O	0.053490	-0.718102	0.200399
O15	O	-0.247268	-1.119858	-0.419744
O16	O	0.252732	-0.619858	0.080256
O17	O	-0.458024	-1.345495	-0.441805
O18	O	0.041976	-0.845495	0.058195
O19	O	-0.255991	-1.216382	-0.527489
O20	O	0.244009	-0.716382	-0.027489
O21	O	-0.355660	-1.120837	-0.290092
O22	O	0.144340	-0.620837	0.209908
O23	O	-0.355024	-0.979258	-0.418023
O24	O	0.144976	-0.479258	0.081977
O25	O	-0.456906	-1.096644	-0.666668
O26	O	0.043094	-0.596644	-0.166668
O27	O	-0.445392	-0.969251	-0.524465
O28	O	0.054608	-0.469251	-0.024465
O29	O	-0.375261	-1.203175	-0.667972
O30	O	0.124739	-0.703175	-0.167972
O31	O	-0.565780	-1.204895	-0.440085
O32	O	-0.065780	-0.704895	0.059915
O33	O	-0.565298	-1.097623	-0.537016
O34	O	-0.065298	-0.597623	-0.037016
C35	C	-0.398849	-0.944154	-0.469647
C36	C	0.101151	-0.444154	0.030353
C37	C	-0.394702	-0.851945	-0.464776
C38	C	0.105298	-0.351945	0.035224
C39	C	-0.591018	-1.149912	-0.489782
C40	C	-0.091018	-0.649912	0.010218
C41	C	-0.669068	-1.145803	-0.493535
C42	C	-0.169068	-0.645803	0.006465
C43	C	-0.430074	-0.637104	-0.506308
C44	C	0.069926	-0.137104	-0.006308
C45	C	-0.387137	-0.683123	-0.455880
C46	C	0.112863	-0.183123	0.044120
C47	C	-0.391347	-0.777064	-0.460831
C48	C	0.108653	-0.277064	0.039169
C49	C	-0.425864	-0.543154	-0.501358
C50	C	0.074136	-0.043154	-0.001358
C51	C	-0.705968	-1.199763	-0.444877
C52	C	-0.205968	-0.699763	0.055123
C53	C	-0.779305	-1.195904	-0.448412
C54	C	-0.279305	-0.695904	0.051588
C55	C	-0.815741	-1.138080	-0.500601
C56	C	-0.315741	-0.638080	-0.000601
C57	C	-0.778836	-1.084118	-0.549264
C58	C	-0.278836	-0.584118	-0.049264
C59	C	-0.705501	-1.087982	-0.545733
C60	C	-0.205501	-0.587982	-0.045733
C61	C	-1.037155	-1.123621	-0.513789
C62	C	-0.537155	-0.623621	-0.013789
C63	C	-1.110495	-1.119759	-0.517315
C64	C	-0.610495	-0.619759	-0.017315
C65	C	-1.110959	-1.231547	-0.416464
C66	C	-0.610959	-0.731547	0.083536
C67	C	-1.037622	-1.235402	-0.412934
C68	C	-0.537622	-0.735402	0.087066
C69	C	-1.000724	-1.181443	-0.461600
C70	C	-0.500724	-0.681443	0.038400
C71	C	-0.890703	-1.134132	-0.504214
C72	C	-0.390703	-0.634132	-0.004214
C73	C	-0.925764	-1.185396	-0.457991
C74	C	-0.425764	-0.685396	0.042009
C75	C	-0.225440	-1.169527	-0.472370
C76	C	0.274560	-0.669527	0.027630
C77	C	-0.147395	-1.173719	-0.468657
C78	C	0.352605	-0.673719	0.031343
C79	C	-0.417335	-1.148277	-0.698396
C80	C	0.082665	-0.648277	-0.198396
C81	C	-0.421064	-1.143414	-0.791002
C82	C	0.078936	-0.643414	-0.291002
C83	C	-0.418354	-0.376067	-0.492553
C84	C	0.081646	0.123933	0.007447
C85	C	-0.422506	-0.468277	-0.497410
C86	C	0.077494	0.031723	0.002590
C87	C	-0.427855	-1.134505	-0.960551
C88	C	0.072145	-0.634505	-0.460551
C89	C	-0.389110	-1.185048	-1.002466
C90	C	0.110890	-0.685048	-0.502466
C91	C	-0.392889	-1.180092	-1.096809
C92	C	0.107111	-0.680092	-0.596809
C93	C	-0.424077	-1.139461	-0.866199
C94	C	0.075923	-0.639461	-0.366199
C95	C	-0.399819	-1.171108	-0.264616
C96	C	0.100181	-0.671108	0.235384
C97	C	-0.395899	-1.176142	-0.172010
C98	C	0.104101	-0.676142	0.327990
H99	H	-0.469992	-0.668256	-0.553194
H100	H	0.030008	-0.168256	-0.053194
H101	H	-0.353101	-1.232042	-0.967497
H102	H	0.146899	-0.732042	-0.467497
O103	O	-0.670688	-1.256006	-0.394161
O104	O	-0.170688	-0.756006	0.105839
C105	C	-0.718985	-1.302789	-0.351958
C106	C	-0.218985	-0.802789	0.148042
H107	H	-0.772748	-1.301089	-0.388756
H108	H	-0.272748	-0.801089	0.111244
H109	H	-0.700347	-1.369741	-0.345567
H110	H	-0.200347	-0.869741	0.154433
H111	H	-0.722914	-1.275371	-0.287426
H112	H	-0.222914	-0.775371	0.212574
H113	H	-0.920377	-1.087050	-0.546704
H114	H	-0.420377	-0.587050	-0.046704
O115	O	-0.815143	-1.248510	-0.401335
O116	O	-0.315143	-0.748510	0.098665
C117	C	-0.861775	-1.297311	-0.453787
C118	C	-0.361775	-0.797311	0.046213
H119	H	-0.842510	-1.299927	-0.518618
H120	H	-0.342510	-0.799927	-0.018618
H121	H	-0.864149	-1.362774	-0.427254
H122	H	-0.364149	-0.862774	0.072746
H123	H	-0.916371	-1.268695	-0.457902
H124	H	-0.416371	-0.768695	0.042098
H125	H	-0.347215	-0.651969	-0.408989
H126	H	0.152785	-0.151969	0.091011
O127	O	-1.002342	-1.291653	-0.362228
O128	O	-0.502342	-0.791653	0.137772
C129	C	-1.050636	-1.338442	-0.320025
C130	C	-0.550636	-0.838442	0.179975
H131	H	-1.104401	-1.336737	-0.356817
H132	H	-0.604401	-0.836737	0.143183
H133	H	-1.031999	-1.405394	-0.313644
H134	H	-0.531999	-0.905394	0.186356
H135	H	-1.054559	-1.311031	-0.255488
H136	H	-0.554559	-0.811031	0.244512
O137	O	-1.146913	-1.283933	-0.369286
O138	O	-0.646913	-0.783933	0.130714
C139	C	-1.219453	-1.268116	-0.383578
C140	C	-0.719453	-0.768116	0.116422
H141	H	-1.230824	-1.236982	-0.446886
H142	H	-0.730824	-0.736982	0.053114
H143	H	-1.249857	-1.329090	-0.382625
H144	H	-0.749857	-0.829090	0.117375
H145	H	-1.236335	-1.225487	-0.332779
H146	H	-0.736335	-0.725487	0.167221
H147	H	-0.463862	-1.087516	-0.995518
H148	H	0.036138	-0.587516	-0.495518
H149	H	-1.140160	-1.072682	-0.559828
H150	H	-0.640160	-0.572682	-0.059828
H151	H	-1.007118	-1.079684	-0.553414
H152	H	-0.507118	-0.579684	-0.053414
O153	O	-0.814206	-1.028033	-0.600084
O154	O	-0.314206	-0.528033	-0.100084
C155	C	-0.800390	-1.042669	-0.683229
C156	C	-0.300390	-0.542669	-0.183229
H157	H	-0.783344	-1.109780	-0.690032
H158	H	-0.283344	-0.609780	-0.190032
H159	H	-0.849943	-1.030789	-0.726324
H160	H	-0.349943	-0.530789	-0.226324
H161	H	-0.756714	-0.999275	-0.700564
H162	H	-0.256714	-0.499275	-0.200564
O163	O	-0.669630	-1.035681	-0.593091
O164	O	-0.169630	-0.535681	-0.093091
C165	C	-0.631443	-1.082284	-0.647383
C166	C	-0.131443	-0.582284	-0.147383
H167	H	-0.656656	-1.146180	-0.657109
H168	H	-0.156656	-0.646180	-0.157109
H169	H	-0.631831	-1.048909	-0.709844
H170	H	-0.131831	-0.548909	-0.209844
H171	H	-0.574964	-1.089446	-0.619102
H172	H	-0.074964	-0.589446	-0.119102
O173	O	-0.890332	-1.241450	-0.407199
O174	O	-0.390332	-0.741450	0.092801
C175	C	-0.843654	-1.199314	-0.348827
C176	C	-0.343654	-0.699314	0.151173
H177	H	-0.862650	-1.133089	-0.341232
H178	H	-0.362650	-0.633089	0.158768
H179	H	-0.841592	-1.232773	-0.286285
H180	H	-0.341592	-0.732773	0.213715
H181	H	-0.788977	-1.198007	-0.371763
H182	H	-0.288977	-0.698007	0.128237
