data_functionalizedCrystal
_audit_creation_method	'MofGen! by Chris Wilmer'
_symmetry_space_group_name_H-M	'P1'
_symmetry_Int_Tables_number	1
_symmetry_cell_setting	triclinic
loop_
_symmetry_equiv_pos_as_xyz
  x,y,z
_cell_length_a	12.759395
_cell_length_b	16.120484
_cell_length_c	12.759387
_cell_angle_alpha	92.863576
_cell_angle_beta	89.979491
_cell_angle_gamma	92.926975
loop_
_atom_site_label
_atom_site_type_symbol
_atom_site_fract_x
_atom_site_fract_y
_atom_site_fract_z
Zn1	Zn	1.584987	-0.331828	-0.615167
Zn2	Zn	2.084987	0.168172	-0.115167
Zn3	Zn	1.575935	-0.471265	-0.448379
Zn4	Zn	2.075935	0.028735	0.051621
Zn5	Zn	1.409282	-0.331874	-0.439506
Zn6	Zn	1.909282	0.168126	0.060494
Zn7	Zn	1.400339	-0.471205	-0.624015
Zn8	Zn	1.900339	0.028795	-0.124015
O9	O	1.492636	-0.401543	-0.531767
O10	O	1.992636	0.098457	-0.031767
O11	O	1.730807	-0.350331	-0.593052
O12	O	2.230807	0.149669	-0.093052
O13	O	1.553783	-0.452818	-0.300184
O14	O	2.053783	0.047182	0.199816
O15	O	1.440121	-0.215202	-0.455392
O16	O	1.940121	0.284798	0.044608
O17	O	1.724157	-0.452774	-0.470514
O18	O	2.224157	0.047226	0.029486
O19	O	1.569211	-0.215169	-0.584449
O20	O	2.069211	0.284831	-0.084449
O21	O	1.431344	-0.350408	-0.293665
O22	O	1.931344	0.149592	0.206335
O23	O	1.261075	-0.350350	-0.463971
O24	O	1.761075	0.149650	0.036029
O25	O	1.424878	-0.452673	-0.769859
O26	O	1.924878	0.047327	-0.269859
O27	O	1.254504	-0.452717	-0.599529
O28	O	1.754504	0.047283	-0.099529
O29	O	1.560539	-0.350273	-0.763359
O30	O	2.060539	0.149727	-0.263359
O31	O	1.545111	-0.587922	-0.479094
O32	O	2.045111	-0.087922	0.020906
O33	O	1.416101	-0.587879	-0.608132
O34	O	1.916101	-0.087879	-0.108132
C35	C	1.219669	-0.401533	-0.531748
C36	C	1.719669	0.098467	-0.031748
C37	C	1.102891	-0.401549	-0.531766
C38	C	1.602891	0.098451	-0.031766
C39	C	1.096077	-0.508315	-0.672716
C40	C	1.596077	-0.008315	-0.172716
C41	C	1.037808	-0.561705	-0.743194
C42	C	1.537808	-0.061705	-0.243194
C43	C	0.928086	-0.561715	-0.743207
C44	C	1.428086	-0.061715	-0.243207
C45	C	0.876630	-0.508328	-0.672737
C46	C	1.376630	-0.008328	-0.172737
C47	C	0.934899	-0.454938	-0.602259
C48	C	1.434899	0.045062	-0.102259
C49	C	1.044623	-0.454935	-0.602251
C50	C	1.544623	0.045065	-0.102251
C51	C	0.941713	-0.348169	-0.461316
C52	C	1.441713	0.151831	0.038684
C53	C	1.051436	-0.348161	-0.461296
C54	C	1.551436	0.151839	0.038704
C55	C	0.890258	-0.294781	-0.390846
C56	C	1.390258	0.205219	0.109154
C57	C	0.948526	-0.241394	-0.320361
C58	C	1.448526	0.258606	0.179639
C59	C	1.058255	-0.241387	-0.320350
C60	C	1.558255	0.258613	0.179650
C61	C	1.109704	-0.294771	-0.390818
C62	C	1.609704	0.205229	0.109182
C63	C	1.478681	-0.618150	-0.545559
C64	C	1.978681	-0.118150	-0.045559
C65	C	1.472808	-0.710816	-0.551495
C66	C	1.972808	-0.210816	-0.051495
C67	C	1.462090	-0.880477	-0.562353
C68	C	1.962090	-0.380477	-0.062353
C69	C	1.523370	-0.921768	-0.501198
C70	C	2.023370	-0.421768	-0.001198
C71	C	1.517406	-1.016173	-0.507239
C72	C	2.017406	-0.516173	-0.007239
C73	C	1.468052	-0.786063	-0.556313
C74	C	1.968052	-0.286063	-0.056313
C75	C	1.766669	-0.401554	-0.531786
C76	C	2.266669	0.098446	-0.031786
C77	C	1.883445	-0.401558	-0.531794
C78	C	2.383445	0.098442	-0.031794
C79	C	1.492720	-0.401461	-0.805795
C80	C	1.992720	0.098539	-0.305795
C81	C	1.492756	-0.401426	-0.922570
C82	C	1.992756	0.098574	-0.422570
C83	C	1.506673	-0.184090	-0.517944
C84	C	2.006673	0.315910	-0.017944
C85	C	1.512655	-0.091424	-0.512053
C86	C	2.012655	0.408576	-0.012053
C87	C	1.634028	-0.294805	-0.915821
C88	C	2.134028	0.205195	-0.415821
C89	C	1.704680	-0.241481	-0.967306
C90	C	2.204680	0.258519	-0.467306
C91	C	1.704707	-0.241451	-1.077026
C92	C	2.204707	0.258549	-0.577026
C93	C	1.634074	-0.294748	-1.135263
C94	C	2.134074	0.205252	-0.635263
C95	C	1.563422	-0.348071	-1.083777
C96	C	2.063422	0.151929	-0.583777
C97	C	1.563404	-0.348098	-0.974055
C98	C	2.063404	0.151902	-0.474055
C99	C	1.422147	-0.454688	-1.090526
C100	C	1.922147	0.045312	-0.590526
C101	C	1.422123	-0.454723	-0.980807
C102	C	1.922123	0.045277	-0.480807
C103	C	1.351514	-0.507985	-1.148763
C104	C	1.851514	-0.007985	-0.648763
C105	C	1.280866	-0.561313	-1.097278
C106	C	1.780866	-0.061313	-0.597278
C107	C	1.280842	-0.561342	-0.987551
C108	C	1.780842	-0.061342	-0.487551
C109	C	1.351472	-0.508047	-0.929321
C110	C	1.851472	-0.008047	-0.429321
C111	C	1.492616	-0.401564	-0.258801
C112	C	1.992616	0.098436	0.241199
C113	C	1.492798	-0.401364	-0.142012
C114	C	1.992798	0.098636	0.357988
H115	H	0.787289	-0.508334	-0.672763
H116	H	1.287289	-0.008334	-0.172763
H117	H	1.405153	-0.916025	-0.619241
H118	H	1.905153	-0.416025	-0.119241
H119	H	1.079716	-0.605170	-0.800571
H120	H	1.579716	-0.105170	-0.300571
C121	C	1.782419	-0.182799	-1.133668
C122	C	2.282419	0.317201	-0.633668
H123	H	1.772310	-0.190414	-1.207352
H124	H	2.272310	0.309586	-0.707352
H125	H	1.852217	-0.195010	-1.116475
H126	H	2.352217	0.304990	-0.616475
H127	H	1.770655	-0.126782	-1.112131
H128	H	2.270655	0.373218	-0.612131
H129	H	1.580310	-0.886218	-0.444303
H130	H	2.080310	-0.386218	0.055697
H131	H	1.105691	-0.197905	-0.262965
H132	H	1.605691	0.302095	0.237035
H133	H	0.800916	-0.294790	-0.390866
H134	H	1.300916	0.205210	0.109134
H135	H	1.199045	-0.294773	-0.390812
H136	H	1.699045	0.205227	0.109188
C137	C	1.634005	-0.294839	-0.795132
C138	C	2.134005	0.205161	-0.295132
H139	H	1.686184	-0.255459	-0.767823
H140	H	2.186184	0.244541	-0.267823
H141	H	1.648684	-0.348648	-0.773732
H142	H	2.148684	0.151352	-0.273732
H143	H	1.567132	-0.280413	-0.769384
H144	H	2.067132	0.219587	-0.269384
H145	H	0.880644	-0.605185	-0.800602
H146	H	1.380644	-0.105185	-0.300602
C147	C	1.782374	-0.182862	-0.903246
C148	C	2.282374	0.317138	-0.403246
H149	H	1.772250	-0.190520	-0.830527
H150	H	2.272250	0.309480	-0.330527
H151	H	1.770631	-0.126839	-0.917665
H152	H	2.270631	0.373161	-0.417665
H153	H	1.852181	-0.195076	-0.922017
H154	H	2.352181	0.304924	-0.422017
H155	H	0.906622	-0.197927	-0.262995
H156	H	1.406622	0.302073	0.237005
C157	C	1.634099	-0.294709	-1.255951
C158	C	2.134099	0.205291	-0.755951
H159	H	1.686294	-0.255320	-1.278273
H160	H	2.186294	0.244680	-0.778273
H161	H	1.567238	-0.280281	-1.279844
H162	H	2.067238	0.219719	-0.779844
H163	H	1.648802	-0.348507	-1.284194
H164	H	2.148802	0.151493	-0.784194
C165	C	1.203124	-0.619996	-0.930920
C166	C	1.703124	-0.119996	-0.430920
H167	H	1.213217	-0.612380	-0.857233
H168	H	1.713217	-0.112380	-0.357233
H169	H	1.214875	-0.676009	-0.952465
H170	H	1.714875	-0.176009	-0.452465
H171	H	1.133325	-0.607772	-0.948115
H172	H	1.633325	-0.107772	-0.448115
C173	C	1.351544	-0.507953	-1.269451
C174	C	1.851544	-0.007953	-0.769451
H175	H	1.403744	-0.468570	-1.291776
H176	H	1.903744	0.031430	-0.791776
H177	H	1.284686	-0.493523	-1.293351
H178	H	1.784686	0.006477	-0.793351
H179	H	1.366243	-0.561754	-1.297685
H180	H	1.866243	-0.061754	-0.797685
H181	H	1.351463	-0.508069	-0.839981
H182	H	1.851463	-0.008069	-0.339981
C183	C	1.216768	-0.508303	-0.672708
C184	C	1.716768	-0.008303	-0.172708
H185	H	1.239068	-0.547737	-0.724775
H186	H	1.739068	-0.047737	-0.224775
H187	H	1.240644	-0.522644	-0.605791
H188	H	1.740644	-0.022644	-0.105791
H189	H	1.245051	-0.454515	-0.687579
H190	H	1.745051	0.045485	-0.187579
C191	C	1.203182	-0.619933	-1.161337
C192	C	1.703182	-0.119933	-0.661337
H193	H	1.213318	-0.612278	-1.234055
H194	H	1.713318	-0.112278	-0.734055
H195	H	1.133375	-0.607735	-1.142568
H196	H	1.633375	-0.107735	-0.642568
H197	H	1.214943	-0.675959	-1.146923
H198	H	1.714943	-0.175959	-0.646923
