data_functionalizedCrystal
_audit_creation_method	'MofGen! by Chris Wilmer'
_symmetry_space_group_name_H-M	'P1'
_symmetry_Int_Tables_number	1
_symmetry_cell_setting	triclinic
loop_
_symmetry_equiv_pos_as_xyz
  x,y,z
_cell_length_a	19.188905
_cell_length_b	19.188930
_cell_length_c	11.804365
_cell_angle_alpha	101.784974
_cell_angle_beta	78.186848
_cell_angle_gamma	83.139668
loop_
_atom_site_label
_atom_site_type_symbol
_atom_site_fract_x
_atom_site_fract_y
_atom_site_fract_z
O1	O	0.940335	0.072913	-0.099237
O2	O	1.273668	0.406246	0.234096
O3	O	1.607001	0.739579	0.567430
O4	O	0.737015	0.084671	-0.099198
O5	O	1.070349	0.418004	0.234135
O6	O	1.403682	0.751337	0.567469
O7	O	0.844539	-0.022861	-0.099195
O8	O	1.177872	0.310472	0.234138
O9	O	1.511206	0.643805	0.567471
O10	O	0.832811	0.180445	-0.099240
O11	O	1.166144	0.513778	0.234094
O12	O	1.499478	0.847111	0.567427
O13	O	0.816232	0.005419	0.098860
O14	O	1.149566	0.338753	0.432193
O15	O	1.482899	0.672086	0.765526
O16	O	0.708709	0.112951	0.098857
O17	O	1.042042	0.446285	0.432190
O18	O	1.375375	0.779618	0.765524
O19	O	0.912028	0.101193	0.098818
O20	O	1.245361	0.434526	0.432152
O21	O	1.578695	0.767860	0.765485
Cu22	Cu	0.807784	0.109654	0.116922
Cu23	Cu	1.141117	0.442988	0.450255
Cu24	Cu	1.474450	0.776321	0.783588
Cu25	Cu	0.841260	0.076209	-0.117302
Cu26	Cu	1.174593	0.409543	0.216032
Cu27	Cu	1.507926	0.742876	0.549365
O28	O	0.804504	0.208725	0.098816
O29	O	1.137837	0.542059	0.432149
O30	O	1.471171	0.875392	0.765482
C31	C	0.696850	0.098434	-0.000165
C32	C	1.030183	0.431767	0.333168
C33	C	1.363517	0.765101	0.666501
C34	C	0.619342	0.097303	-0.000149
C35	C	0.952675	0.430636	0.333184
C36	C	1.286009	0.763969	0.666517
C37	C	0.830005	-0.034732	-0.000164
C38	C	1.163338	0.298602	0.333169
C39	C	1.496672	0.631935	0.666502
C40	C	0.828863	-0.112235	-0.000154
C41	C	1.162196	0.221099	0.333179
C42	C	1.495530	0.554432	0.666513
C43	C	0.598381	0.081342	-0.108112
C44	C	0.931714	0.414675	0.225221
C45	C	1.265047	0.748008	0.558554
C46	C	0.525559	0.080267	-0.108127
C47	C	0.858893	0.413600	0.225206
C48	C	1.192226	0.746933	0.558540
C49	C	0.473703	0.095139	-0.000172
C50	C	0.807036	0.428472	0.333161
C51	C	1.140370	0.761806	0.666494
C52	C	0.494670	0.111106	0.107805
C53	C	0.828004	0.444439	0.441138
C54	C	1.161337	0.777773	0.774472
C55	C	0.567490	0.112188	0.107816
C56	C	0.900823	0.445521	0.441150
C57	C	1.234157	0.778854	0.774483
N58	N	0.353199	0.065184	0.080177
N59	N	0.686532	0.398517	0.413510
N60	N	1.019865	0.731850	0.746843
N61	N	0.284024	0.064154	0.080158
N62	N	0.617358	0.397487	0.413492
N63	N	0.950691	0.730820	0.746825
C64	C	0.254300	0.091883	-0.000200
C65	C	0.587634	0.425216	0.333133
C66	C	0.920967	0.758549	0.666466
N67	N	0.296367	0.120669	-0.080558
N68	N	0.629701	0.454002	0.252775
N69	N	0.963034	0.787336	0.586108
N70	N	0.365549	0.121696	-0.080544
N71	N	0.698882	0.455029	0.252790
N72	N	1.032216	0.788362	0.586123
C73	C	0.394740	0.093968	-0.000173
C74	C	0.728074	0.427302	0.333161
C75	C	1.061407	0.760635	0.666494
C76	C	0.154378	0.074756	-0.108187
C77	C	0.487712	0.408089	0.225147
C78	C	0.821045	0.741423	0.558480
C79	C	0.081554	0.073686	-0.108197
C80	C	0.414888	0.407019	0.225137
C81	C	0.748221	0.740352	0.558470
C82	C	0.050667	0.104519	0.107738
C83	C	0.384001	0.437852	0.441072
C84	C	0.717334	0.771185	0.774405
C85	C	0.123489	0.105595	0.107745
C86	C	0.456823	0.438929	0.441078
C87	C	0.790156	0.772262	0.774412
C88	C	0.175342	0.090710	-0.000221
C89	C	0.508675	0.424043	0.333113
C90	C	0.842008	0.757377	0.666446
C91	C	0.891955	-0.157165	-0.000160
C92	C	1.225289	0.176168	0.333173
C93	C	1.558622	0.509502	0.666506
C94	C	0.890886	-0.229991	-0.000179
C95	C	1.224220	0.103342	0.333154
C96	C	1.557553	0.436675	0.666488
C97	C	0.826718	-0.257881	-0.000168
C98	C	1.160051	0.075453	0.333166
C99	C	1.493385	0.408786	0.666499
C100	C	0.763618	-0.212941	-0.000168
C101	C	1.096951	0.120392	0.333165
C102	C	1.430285	0.453725	0.666499
C103	C	0.764691	-0.140118	-0.000161
C104	C	1.098024	0.193215	0.333172
C105	C	1.431357	0.526549	0.666506
N106	N	0.768035	-0.356255	0.067244
N107	N	1.101369	-0.022922	0.400577
N108	N	1.434702	0.310411	0.733910
N109	N	0.767020	-0.425435	0.067240
N110	N	1.100354	-0.092101	0.400573
N111	N	1.433687	0.241232	0.733906
C112	C	0.823483	-0.477292	-0.000191
C113	C	1.156816	-0.143959	0.333142
C114	C	1.490150	0.189374	0.666476
N115	N	0.881008	-0.457357	-0.067603
N116	N	1.214341	-0.124024	0.265730
N117	N	1.547674	0.209310	0.599064
N118	N	0.882024	-0.388171	-0.067593
N119	N	1.215357	-0.054838	0.265740
N120	N	1.548690	0.278496	0.599073
C121	C	0.825548	-0.336844	-0.000176
C122	C	1.158881	-0.003511	0.333157
C123	C	1.492215	0.329822	0.666491
C124	C	0.885421	-0.601190	-0.000220
C125	C	1.218754	-0.267857	0.333114
C126	C	1.552088	0.065476	0.666447
C127	C	0.884351	-0.674019	-0.000246
C128	C	1.217684	-0.340685	0.333087
C129	C	1.551017	-0.007352	0.666421
C130	C	0.757079	-0.656965	-0.000223
C131	C	1.090412	-0.323632	0.333110
C132	C	1.423745	0.009701	0.666444
C133	C	0.758153	-0.584140	-0.000209
C134	C	1.091486	-0.250807	0.333125
C135	C	1.424819	0.082527	0.666458
C136	C	0.822325	-0.556257	-0.000201
C137	C	1.155658	-0.222923	0.333132
C138	C	1.488992	0.110410	0.666465
C139	C	0.952194	0.087429	-0.000217
C140	C	1.285527	0.420763	0.333116
C141	C	1.618860	0.754096	0.666449
C142	C	1.029703	0.088560	-0.000241
C143	C	1.363036	0.421893	0.333092
C144	C	1.696369	0.755226	0.666426
C145	C	0.819038	0.220595	-0.000218
C146	C	1.152372	0.553928	0.333115
C147	C	1.485705	0.887262	0.666448
C148	C	0.820182	0.298097	-0.000237
C149	C	1.153515	0.631430	0.333097
C150	C	1.486848	0.964763	0.666430
N151	N	0.784243	0.133177	0.281662
N152	N	1.117577	0.466511	0.614995
N153	N	1.450910	0.799844	0.948328
N154	N	0.864805	0.052681	-0.282042
N155	N	1.198139	0.386014	0.051292
N156	N	1.531472	0.719347	0.384625
C157	C	0.921334	-0.003820	0.655614
C158	C	1.254667	0.329513	0.988947
C159	C	1.588001	0.662846	1.322280
C160	C	0.939141	-0.021618	0.530953
C161	C	1.272475	0.311715	0.864286
C162	C	1.605808	0.645048	1.197619
C163	C	0.900418	0.017079	0.468624
C164	C	1.233751	0.350412	0.801957
C165	C	1.567085	0.683746	1.135290
C166	C	0.843885	0.073578	0.530968
C167	C	1.177218	0.406911	0.864302
C168	C	1.510552	0.740244	1.197635
C169	C	0.826080	0.091381	0.655642
C170	C	1.159413	0.424715	0.988975
C171	C	1.492746	0.758048	1.322308
C172	C	0.805164	0.112280	0.468652
C173	C	1.138497	0.445614	0.801985
C174	C	1.471830	0.778947	1.135318
C175	C	0.748631	0.168779	0.530996
C176	C	1.081964	0.502113	0.864330
C177	C	1.415297	0.835446	1.197663
C178	C	0.730828	0.186580	0.655658
C179	C	1.064161	0.519913	0.988991
C180	C	1.397495	0.853246	1.322324
C181	C	0.769551	0.147882	0.717986
C182	C	1.102884	0.481216	1.051320
C183	C	1.436218	0.814549	1.384653
C184	C	0.822969	0.094477	0.343978
C185	C	1.156302	0.427810	0.677312
C186	C	1.489636	0.761144	1.010645
C187	C	0.727715	0.189678	0.344006
C188	C	1.061048	0.523012	0.677340
C189	C	1.394382	0.856345	1.010673
C190	C	0.709908	0.207477	0.468668
C191	C	1.043241	0.540810	0.802001
C192	C	1.376574	0.874143	1.135334
H193	H	0.640595	0.069221	-0.196026
H194	H	0.973929	0.402554	0.137307
H195	H	1.307262	0.735888	0.470640
H196	H	0.508489	0.067270	-0.196046
H197	H	0.841822	0.400604	0.137287
H198	H	1.175156	0.733937	0.470621
H199	H	0.452444	0.123217	0.195702
H200	H	0.785777	0.456550	0.529035
H201	H	1.119111	0.789884	0.862369
H202	H	0.868999	0.048476	0.293228
H203	H	1.202332	0.381809	0.626562
H204	H	1.535665	0.715142	0.959895
H205	H	0.952861	-0.035319	0.706370
H206	H	1.286194	0.298014	1.039703
H207	H	1.619527	0.631348	1.373037
H208	H	0.713311	-0.103535	-0.000156
H209	H	1.046645	0.229799	0.333178
H210	H	1.379978	0.563132	0.666511
H211	H	0.663877	0.253479	0.519444
H212	H	0.997210	0.586813	0.852777
H213	H	1.330544	0.920146	1.186111
H214	H	0.935731	-0.710602	-0.000258
H215	H	1.269065	-0.377269	0.333076
H216	H	1.602398	-0.043936	0.666409
H217	H	0.696184	0.221191	0.293259
H218	H	1.029517	0.554524	0.626592
H219	H	1.362851	0.887857	0.959926
H220	H	0.584554	0.125186	0.195736
H221	H	0.917887	0.458519	0.529069
H222	H	1.251221	0.791853	0.862402
H223	H	0.914919	0.002585	0.367119
H224	H	1.248253	0.335918	0.700452
H225	H	1.581586	0.669252	1.033786
H226	H	0.684801	0.232589	0.706419
H227	H	1.018134	0.565923	1.039752
H228	H	1.351467	0.899256	1.373085
H229	H	0.196598	0.062643	-0.196099
H230	H	0.529931	0.395976	0.137235
H231	H	0.863264	0.729310	0.470568
H232	H	0.937675	-0.578487	-0.000219
H233	H	1.271008	-0.245154	0.333114
H234	H	1.604342	0.088179	0.666447
H235	H	0.985170	-0.067618	0.480196
H236	H	1.318504	0.265715	0.813529
H237	H	1.651837	0.599048	1.146863
H238	H	0.064491	0.060692	-0.196117
H239	H	0.397824	0.394026	0.137217
H240	H	0.731157	0.727359	0.470550
H241	H	0.944210	-0.134468	-0.000158
H242	H	1.277543	0.198865	0.333175
H243	H	1.610877	0.532199	0.666508
H244	H	0.704832	-0.679673	-0.000219
H245	H	1.038166	-0.346339	0.333114
H246	H	1.371499	-0.013006	0.666447
H247	H	0.755051	0.162371	0.819496
H248	H	1.088384	0.495705	1.152829
H249	H	1.421717	0.829038	1.486163
H250	H	0.706775	-0.547555	-0.000197
H251	H	1.040108	-0.214222	0.333137
H252	H	1.373442	0.119111	0.666470
H253	H	0.008446	0.116632	0.195637
H254	H	0.341779	0.449966	0.528970
H255	H	0.675112	0.783299	0.862304
H256	H	0.140555	0.118588	0.195660
H257	H	0.473889	0.451921	0.528994
H258	H	0.807222	0.785254	0.862327
H259	H	0.711372	-0.235654	-0.000161
H260	H	1.044705	0.097680	0.333172
H261	H	1.378039	0.431013	0.666505
H262	H	0.942266	-0.266582	-0.000189
H263	H	1.275600	0.066752	0.333144
H264	H	1.608933	0.400085	0.666478
