data_functionalizedCrystal
_audit_creation_method	'MofGen! by Chris Wilmer'
_symmetry_space_group_name_H-M	'P1'
_symmetry_Int_Tables_number	1
_symmetry_cell_setting	triclinic
loop_
_symmetry_equiv_pos_as_xyz
  x,y,z
_cell_length_a	14.908571
_cell_length_b	29.839131
_cell_length_c	14.908308
_cell_angle_alpha	93.261283
_cell_angle_beta	90.175053
_cell_angle_gamma	86.737317
loop_
_atom_site_label
_atom_site_type_symbol
_atom_site_fract_x
_atom_site_fract_y
_atom_site_fract_z
Zn1	Zn	1.345126	-0.234441	-0.587534
Zn2	Zn	1.353655	-0.305498	-0.437159
Zn3	Zn	1.203447	-0.225812	-0.428533
Zn4	Zn	1.194683	-0.304964	-0.578811
O5	O	1.274228	-0.267679	-0.508009
O6	O	1.472080	-0.247701	-0.574847
O7	O	1.340967	-0.291540	-0.310191
O8	O	1.222340	-0.164094	-0.449665
O9	O	1.478346	-0.299907	-0.464367
O10	O	1.326430	-0.170433	-0.566482
O11	O	1.230610	-0.232995	-0.303854
O12	O	1.076461	-0.232477	-0.441208
O13	O	1.207402	-0.298997	-0.705792
O14	O	1.070022	-0.290630	-0.551616
O15	O	1.317932	-0.247184	-0.712201
O16	O	1.332468	-0.368290	-0.455909
O17	O	1.215672	-0.367898	-0.559980
C18	C	1.040617	-0.260560	-0.494530
C19	C	0.940676	-0.257526	-0.488784
C20	C	0.746229	-0.312463	-0.592802
C21	C	0.652326	-0.309614	-0.587407
C22	C	0.658964	-0.248976	-0.472604
C23	C	0.752867	-0.251825	-0.477999
C24	C	0.796497	-0.283570	-0.538099
C25	C	0.890402	-0.286422	-0.543489
C26	C	0.897038	-0.225781	-0.428692
C27	C	0.803135	-0.222932	-0.423297
C28	C	1.274068	-0.384395	-0.507955
C29	C	1.274080	-0.434330	-0.507967
C30	C	1.335143	-0.744176	-0.453910
C31	C	1.335252	-0.931853	-0.453951
O32	O	1.387043	-0.956286	-0.407948
N33	N	1.274410	-0.955128	-0.508088
C34	C	1.213541	-0.931481	-0.562223
O35	O	1.161800	-0.955585	-0.608278
C36	C	1.213437	-0.743805	-0.562186
C37	C	1.274276	-0.720532	-0.508038
C38	C	1.395978	-0.720903	-0.399768
C39	C	1.395947	-0.673987	-0.399754
C40	C	1.335081	-0.650343	-0.453883
C41	C	1.274245	-0.673615	-0.508025
C42	C	1.152572	-0.720159	-0.616325
C43	C	1.152553	-0.673237	-0.616312
C44	C	1.213393	-0.649964	-0.562165
C45	C	1.213348	-0.603055	-0.562140
N46	N	1.274189	-0.579780	-0.508003
C47	C	1.335056	-0.603424	-0.453875
C48	C	1.213598	-1.030014	-0.562237
C49	C	1.213623	-1.076933	-0.562245
C50	C	1.335336	-1.077302	-0.453975
C51	C	1.335306	-1.030382	-0.453962
C52	C	1.274440	-1.006739	-0.508100
C53	C	1.334986	-0.504895	-0.453850
C54	C	1.334947	-0.457974	-0.453839
C55	C	1.213238	-0.457609	-0.562112
C56	C	1.213273	-0.504526	-0.562121
C57	C	1.274154	-0.528168	-0.507987
O58	O	1.161590	-0.578594	-0.608127
O59	O	1.386803	-0.579313	-0.407842
C60	C	1.335174	-0.791093	-0.453923
C61	C	1.274339	-0.814366	-0.508065
C62	C	1.213472	-0.790722	-0.562194
C63	C	1.274363	-0.861284	-0.508074
C64	C	1.335230	-0.884928	-0.453945
C65	C	1.396072	-0.861654	-0.399808
C66	C	1.396041	-0.814737	-0.399794
C67	C	1.152630	-0.813996	-0.616331
C68	C	1.152666	-0.860913	-0.616339
C69	C	1.213532	-0.884557	-0.562211
C70	C	1.508750	-0.274826	-0.521542
C71	C	1.608690	-0.277872	-0.527309
C72	C	1.260738	-0.273993	-0.742533
C73	C	1.254989	-0.276684	-0.842474
C74	C	1.274411	-0.150508	-0.508085
C75	C	1.274490	-0.100577	-0.508117
C76	C	1.359279	-0.227777	-1.036946
C77	C	1.353881	-0.230304	-1.130849
C78	C	1.238790	-0.284262	-1.124184
C79	C	1.244189	-0.281735	-1.030281
C80	C	1.304436	-0.253492	-0.986666
C81	C	1.309839	-0.250968	-0.892761
C82	C	1.194744	-0.304924	-0.886097
C83	C	1.189345	-0.307450	-0.980000
C84	C	1.287717	-0.261358	-0.274401
C85	C	1.293639	-0.258546	-0.174471
H86	H	0.781753	-0.338314	-0.641733
H87	H	1.445491	-0.655041	-0.355666
N88	N	0.948373	-0.196260	-0.372808
N89	N	0.909403	-0.167919	-0.319154
H90	H	0.945656	-0.147071	-0.279684
N91	N	1.458156	-0.745042	-0.344456
N92	N	1.457019	-0.737396	-0.261144
H93	H	1.500932	-0.754440	-0.222071
N94	N	0.934972	-0.318853	-0.604864
N95	N	0.924787	-0.359819	-0.598149
H96	H	0.956263	-0.382724	-0.641497
H97	H	1.189739	-0.307256	-1.159711
N98	N	1.397456	-1.006618	-0.398645
N99	N	1.451789	-1.027740	-0.350318
H100	H	1.495686	-1.010959	-0.311248
H101	H	1.384896	-1.096561	-0.409901
H102	H	1.164073	-1.095877	-0.606329
N103	N	0.614399	-0.216543	-0.411228
N104	N	0.624585	-0.175578	-0.417949
H105	H	0.593110	-0.152671	-0.374604
H106	H	1.358896	-0.227972	-0.857251
N107	N	0.600991	-0.339129	-0.643295
N108	N	0.639961	-0.367468	-0.696951
H109	H	0.603707	-0.388314	-0.736427
H110	H	0.767599	-0.197085	-0.374367
N111	N	1.397097	-0.434209	-0.398515
N112	N	1.451437	-0.455329	-0.350192
H113	H	1.495331	-0.438547	-0.311120
H114	H	1.150089	-0.325864	-0.845148
H115	H	1.384563	-0.524139	-0.409771
H116	H	1.164032	-1.010767	-0.606324
N117	N	1.151065	-0.433445	-0.617388
N118	N	1.151055	-0.391554	-0.617361
H119	H	1.107148	-0.374486	-0.656402
N120	N	1.127807	-0.336293	-1.024569
N121	N	1.122991	-0.338544	-1.108410
H122	H	1.079529	-0.358916	-1.139888
H123	H	1.103026	-0.739099	-0.660413
N124	N	1.458191	-0.790975	-0.344476
N125	N	1.512526	-0.812099	-0.296154
H126	H	1.556424	-0.795320	-0.257082
H127	H	1.163735	-0.523476	-0.606215
N128	N	1.090377	-0.649094	-0.671626
N129	N	1.036068	-0.669883	-0.719965
H130	H	0.992155	-0.652834	-0.759030
N131	N	1.458233	-0.885810	-0.344502
N132	N	1.429950	-0.909514	-0.285369
H133	H	1.473850	-0.926577	-0.246313
N134	N	1.090501	-0.884675	-0.671651
N135	N	1.036164	-0.863553	-0.719974
H136	H	0.992265	-0.880334	-0.759042
N137	N	1.409890	-0.204030	-1.182211
N138	N	1.404583	-0.162114	-1.171403
H139	H	1.444139	-0.143556	-1.207678
N140	N	1.420830	-0.198931	-0.992404
N141	N	1.469799	-0.175976	-1.037309
H142	H	1.513271	-0.155603	-1.005853
N143	N	1.090450	-0.789856	-0.671634
N144	N	1.036138	-0.810647	-0.719964
H145	H	0.992216	-0.793600	-0.759023
