data_functionalizedCrystal
_audit_creation_method	'MofGen! by Chris Wilmer'
_symmetry_space_group_name_H-M	'P1'
_symmetry_Int_Tables_number	1
_symmetry_cell_setting	triclinic
loop_
_symmetry_equiv_pos_as_xyz
  x,y,z
_cell_length_a	10.654541
_cell_length_b	17.038272
_cell_length_c	9.730217
_cell_angle_alpha	89.996329
_cell_angle_beta	89.999932
_cell_angle_gamma	87.797742
loop_
_atom_site_label
_atom_site_type_symbol
_atom_site_fract_x
_atom_site_fract_y
_atom_site_fract_z
O1	O	1.678040	0.109868	-0.114249
O2	O	1.313533	0.120338	-0.114261
O3	O	1.493620	0.001275	-0.114245
O4	O	1.497953	0.228930	-0.114266
O5	O	1.493614	0.001274	0.114336
O6	O	1.313527	0.120337	0.114319
O7	O	1.678034	0.109867	0.114331
Zn8	Zn	1.495780	0.115102	0.150617
Zn9	Zn	1.495788	0.115103	-0.150547
O10	O	1.497947	0.228929	0.114314
C11	C	1.266661	0.119569	0.000027
C12	C	1.127004	0.117270	0.000023
C13	C	1.112253	0.259642	-0.000008
C14	C	1.039268	0.329744	-0.000029
C15	C	0.908049	0.327580	-0.000030
C16	C	0.849813	0.255304	-0.000006
C17	C	0.922798	0.185202	0.000015
C18	C	1.054019	0.187374	0.000012
C19	C	0.937548	0.042832	0.000055
C20	C	1.068768	0.044995	0.000047
C21	C	0.879312	-0.029443	0.000079
C22	C	0.952297	-0.099548	0.000090
C23	C	1.083524	-0.097380	0.000090
C24	C	1.141753	-0.025108	0.000067
C25	C	1.489677	-0.027875	0.000045
C26	C	1.477920	-0.114734	0.000044
C27	C	1.585864	-0.164246	0.000049
C28	C	1.574809	-0.245858	0.000036
C29	C	1.455809	-0.277957	0.000027
C30	C	1.347857	-0.228439	0.000018
C31	C	1.358913	-0.146828	0.000022
C32	C	1.416751	-0.523933	0.000007
C33	C	1.405704	-0.605550	0.000008
C34	C	1.632657	-0.622963	0.000023
C35	C	1.643703	-0.541350	0.000035
C36	C	1.535750	-0.491839	0.000018
C37	C	1.444507	-0.361377	0.000018
C38	C	1.547054	-0.408420	0.000018
C39	C	1.724907	0.110635	0.000039
C40	C	1.864564	0.112934	0.000034
C41	C	1.501891	0.258080	0.000021
C42	C	1.513648	0.344939	0.000013
N43	N	1.495784	0.115100	0.356153
N44	N	1.495793	0.115098	-0.356084
C45	C	1.655323	0.009701	0.356159
C46	C	1.735102	-0.042996	0.428101
C47	C	1.735115	-0.042997	0.571981
C48	C	1.655338	0.009704	0.643922
C49	C	1.575559	0.062402	0.571979
C50	C	1.575558	0.062398	0.428096
C51	C	1.416015	0.167796	0.571973
C52	C	1.416007	0.167801	0.428094
C53	C	1.336238	0.220496	0.643914
C54	C	1.256464	0.273199	0.571971
C55	C	1.256455	0.273198	0.428083
C56	C	1.336228	0.220498	0.356151
H57	H	1.142941	-0.154466	0.000112
H58	H	1.250964	-0.254580	0.000003
N59	N	1.300322	-0.470538	-0.000005
H60	H	1.223263	-0.503259	-0.000003
H61	H	1.299962	-0.436300	0.084733
H62	H	1.347616	-0.387521	0.000014
N63	N	1.691234	-0.299261	0.000049
H64	H	1.768297	-0.266543	0.000068
H65	H	1.691577	-0.333504	0.084787
N66	N	1.772052	-0.506731	0.000052
H67	H	1.838760	-0.550481	0.000054
H68	H	1.781589	-0.473244	-0.084681
N69	N	1.242498	-0.093413	0.000022
H70	H	1.190964	-0.103802	-0.084714
H71	H	1.191057	-0.103832	0.084812
H72	H	1.643943	-0.382282	-0.000005
N73	N	1.283280	-0.022770	0.000061
H74	H	1.309093	0.033651	0.000044
H75	H	1.317685	-0.050227	0.084810
H76	H	1.336233	0.220495	0.238996
H77	H	1.720546	-0.663284	0.000034
N78	N	1.655308	0.009714	0.200975
H79	H	1.741889	0.021598	0.166311
H80	H	1.631309	-0.043555	0.166426
N81	N	1.170433	0.330036	0.649564
H82	H	1.119896	0.363423	0.582161
H83	H	1.111693	0.299758	0.709262
N84	N	0.889476	-0.177490	0.000132
H85	H	0.835353	-0.181565	-0.084594
H86	H	0.955688	-0.221529	0.000193
H87	H	1.219098	0.261412	-0.000037
N88	N	1.821113	-0.099854	0.350512
H89	H	1.808996	-0.091865	0.248447
H90	H	1.911225	-0.090312	0.375638
N91	N	0.708284	0.252977	0.000025
H92	H	0.673769	0.280403	-0.084708
H93	H	0.682560	0.196540	0.000097
N94	N	1.714215	-0.129628	0.000072
H95	H	1.780918	-0.173380	0.000071
H96	H	1.723751	-0.096141	-0.084662
H97	H	1.191485	0.316107	0.369514
H98	H	1.800072	-0.085910	0.630557
N99	N	1.277348	-0.640173	-0.000003
H100	H	1.210637	-0.596425	-0.000017
H101	H	1.267833	-0.673654	-0.084741
N102	N	1.655336	0.009704	0.799105
H103	H	1.631389	-0.043556	0.833768
H104	H	1.741941	0.021615	0.833650
N105	N	1.336251	0.220505	0.799097
H106	H	1.249670	0.208625	0.833768
H107	H	1.398954	0.179134	0.833651
N108	N	1.102072	0.407698	-0.000057
H109	H	1.156188	0.411778	0.084674
H110	H	1.156116	0.411719	-0.084851
H111	H	0.772466	-0.031201	0.000086
H112	H	0.848624	0.384663	-0.000037
