data_functionalizedCrystal
_audit_creation_method	'MofGen! by Chris Wilmer'
_symmetry_space_group_name_H-M	'P1'
_symmetry_Int_Tables_number	1
_symmetry_cell_setting	triclinic
loop_
_symmetry_equiv_pos_as_xyz
  x,y,z
_cell_length_a	15.944551
_cell_length_b	17.019294
_cell_length_c	15.021413
_cell_angle_alpha	86.125043
_cell_angle_beta	89.997174
_cell_angle_gamma	83.446674
loop_
_atom_site_label
_atom_site_type_symbol
_atom_site_fract_x
_atom_site_fract_y
_atom_site_fract_z
O1	O	1.114401	0.101727	-0.081736
O2	O	1.614401	0.601727	0.418264
O3	O	0.869836	0.114270	-0.082720
O4	O	1.369836	0.614270	0.417280
O5	O	0.998941	-0.006833	-0.073420
O6	O	1.498941	0.493167	0.426580
O7	O	0.985297	0.222829	-0.091036
O8	O	1.485297	0.722829	0.408964
O9	O	0.998920	-0.006816	0.074643
O10	O	1.498920	0.493184	0.574643
O11	O	0.869816	0.114287	0.065343
O12	O	1.369816	0.614287	0.565343
O13	O	1.114381	0.101744	0.066327
O14	O	1.614381	0.601744	0.566327
Zn15	Zn	0.992095	0.108018	0.089343
Zn16	Zn	1.492095	0.608018	0.589343
Zn17	Zn	0.992122	0.107996	-0.105736
Zn18	Zn	1.492122	0.607996	0.394264
O19	O	0.985276	0.222847	0.057027
O20	O	1.485276	0.722847	0.557027
C21	C	0.838533	0.113758	-0.008651
C22	C	1.338533	0.613758	0.491349
C23	C	0.745288	0.112197	-0.008540
C24	C	1.245288	0.612197	0.491460
C25	C	0.530530	0.033400	-0.002479
C26	C	1.030530	0.533400	0.497521
C27	C	0.469475	0.069982	-0.078288
C28	C	0.969475	0.569982	0.421712
C29	C	0.574566	0.109372	-0.008313
C30	C	1.074566	0.609372	0.491687
C31	C	0.469477	0.070017	0.067689
C32	C	0.969477	0.570017	0.567689
C33	C	0.409657	0.106639	-0.008089
C34	C	0.909657	0.606639	0.491911
C35	C	0.514738	0.145975	-0.084184
C36	C	1.014738	0.645975	0.415816
C37	C	0.514747	0.146000	0.061859
C38	C	1.014747	0.646000	0.561859
C39	C	0.453709	0.182637	-0.013972
C40	C	0.953709	0.682637	0.486028
C41	C	0.669566	0.110945	-0.008442
C42	C	1.169566	0.610945	0.491558
C43	C	0.314658	0.105072	-0.007966
C44	C	0.814658	0.605072	0.492034
C45	C	0.998413	-0.036213	0.002863
C46	C	1.498413	0.463787	0.502863
C47	C	0.996860	-0.123783	0.009574
C48	C	1.496860	0.376217	0.509574
C49	C	0.996144	-0.164928	-0.067982
C50	C	1.496144	0.335072	0.432018
C51	C	0.994680	-0.247208	-0.061674
C52	C	1.494680	0.252792	0.438326
C53	C	0.993938	-0.288343	0.022191
C54	C	1.493938	0.211657	0.522191
C55	C	0.994652	-0.247191	0.099753
C56	C	1.494652	0.252809	0.599753
C57	C	0.996110	-0.164912	0.093444
C58	C	1.496110	0.335088	0.593444
C59	C	0.989529	-0.536773	0.045278
C60	C	1.489529	-0.036773	0.545278
C61	C	0.988073	-0.619058	0.051581
C62	C	1.488073	-0.119058	0.551581
C63	C	0.988100	-0.619069	-0.109846
C64	C	1.488100	-0.119069	0.390154
C65	C	0.989563	-0.536789	-0.116148
C66	C	1.489563	-0.036789	0.383852
C67	C	0.990272	-0.495644	-0.038586
C68	C	1.490272	0.004356	0.461414
C69	C	0.992444	-0.372446	0.028641
C70	C	1.492444	0.127554	0.528641
C71	C	0.991760	-0.411541	-0.045037
C72	C	1.491760	0.088459	0.454963
C73	C	1.145684	0.102256	-0.007744
C74	C	1.645684	0.602256	0.492256
C75	C	1.238929	0.103817	-0.007861
C76	C	1.738929	0.603817	0.492139
C77	C	0.985804	0.252227	-0.019259
C78	C	1.485804	0.752227	0.480741
C79	C	0.987357	0.339797	-0.025975
C80	C	1.487357	0.839797	0.474025
N81	N	0.992083	0.108033	0.222480
N82	N	1.492083	0.608033	0.722480
N83	N	0.992141	0.107974	-0.238872
N84	N	1.492141	0.607974	0.261128
C85	C	0.932376	0.164005	0.457865
C86	C	1.432376	0.664005	0.957865
C87	C	1.008257	0.179319	0.516031
C88	C	1.508257	0.679319	1.016031
C89	C	0.992104	0.108014	0.404088
C90	C	1.492104	0.608014	0.904088
C91	C	0.916243	0.092717	0.522662
C92	C	1.416243	0.592717	1.022662
C93	C	0.992118	0.107996	0.579513
C94	C	1.492118	0.607996	1.079513
C95	C	1.068024	0.123363	0.460945
C96	C	1.568024	0.623363	0.960945
C97	C	0.975960	0.036730	0.467573
C98	C	1.475960	0.536730	0.967573
C99	C	1.051897	0.052014	0.525715
C100	C	1.551897	0.552014	1.025715
C101	C	0.992095	0.108026	0.303030
C102	C	1.492095	0.608026	0.803030
C103	C	0.992136	0.107984	0.680569
C104	C	1.492136	0.607984	1.180569
H105	H	0.420471	0.245753	-0.018854
H106	H	0.920471	0.745753	0.481146
H107	H	0.534694	0.178077	-0.148432
H108	H	1.034694	0.678077	0.351568
H109	H	0.449413	0.037842	-0.137542
H110	H	0.949413	0.537842	0.362458
O111	O	1.026377	0.259147	0.544492
O112	O	1.526377	0.759147	1.044492
H113	H	1.026823	0.258201	0.618446
H114	H	1.526823	0.758201	1.118446
O115	O	1.118877	-0.010717	0.564796
O116	O	1.618877	0.489283	1.064796
H117	H	1.181752	0.002166	0.539905
H118	H	1.681752	0.502166	1.039905
O119	O	0.957831	-0.043085	0.439098
O120	O	1.457831	0.456915	0.939098
H121	H	0.894788	-0.055640	0.463793
H122	H	1.394788	0.444360	0.963793
O123	O	0.831261	0.075578	0.558521
O124	O	1.331261	0.575578	1.058521
H125	H	0.781792	0.122144	0.531205
H126	H	1.281792	0.622144	1.031205
O127	O	0.996938	-0.120569	-0.158441
O128	O	1.496938	0.379431	0.341559
H129	H	1.054828	-0.090114	-0.164642
H130	H	1.554828	0.409886	0.335358
H131	H	0.563942	-0.029651	0.002267
H132	H	1.063942	0.470349	0.502267
O133	O	0.541371	0.188534	0.140349
O134	O	1.041371	0.688534	0.640349
H135	H	0.523461	0.156881	0.203292
H136	H	1.023461	0.656881	0.703292
H137	H	0.449422	0.037877	0.131871
H138	H	0.949422	0.537877	0.631871
O139	O	1.153029	0.140589	0.425231
O140	O	1.653029	0.640589	0.925231
H141	H	1.202582	0.094351	0.453065
H142	H	1.702582	0.594351	0.953065
O143	O	0.987316	-0.663442	-0.193500
O144	O	1.487316	-0.163442	0.306500
H145	H	1.043867	-0.707963	-0.193952
H146	H	1.543867	-0.207963	0.306048
O147	O	0.993865	-0.291585	-0.145323
O148	O	1.493865	0.208415	0.354677
H149	H	0.994621	-0.249158	-0.204698
H150	H	1.494621	0.250842	0.295302
H151	H	0.990168	-0.503303	-0.184439
H152	H	1.490168	-0.003303	0.315561
H153	H	0.987465	-0.652547	0.119877
H154	H	1.487465	-0.152547	0.619877
H155	H	0.994042	-0.280688	0.168037
H156	H	1.494042	0.219312	0.668037
O157	O	0.990316	-0.492401	0.128929
O158	O	1.490316	0.007599	0.628929
H159	H	0.989570	-0.534832	0.188303
H160	H	1.489570	-0.034832	0.688303
O161	O	0.992560	-0.367174	-0.135487
O162	O	1.492560	0.132826	0.364513
H163	H	0.935062	-0.375935	-0.173525
H164	H	1.435062	0.124065	0.326475
H165	H	0.996681	-0.131411	0.156598
H166	H	1.496681	0.368589	0.656598
H167	H	0.991842	-0.405947	0.096924
H168	H	1.491842	0.094053	0.596924
O169	O	0.865536	0.226768	0.418570
O170	O	1.365536	0.726768	0.918570
H171	H	0.879152	0.285877	0.437825
H172	H	1.379152	0.785877	0.937825
