data_functionalizedCrystal
_audit_creation_method	'MofGen! by Chris Wilmer'
_symmetry_space_group_name_H-M	'P1'
_symmetry_Int_Tables_number	1
_symmetry_cell_setting	triclinic
loop_
_symmetry_equiv_pos_as_xyz
  x,y,z
_cell_length_a	12.645331
_cell_length_b	16.625546
_cell_length_c	16.625539
_cell_angle_alpha	89.971468
_cell_angle_beta	89.982734
_cell_angle_gamma	90.021447
loop_
_atom_site_label
_atom_site_type_symbol
_atom_site_fract_x
_atom_site_fract_y
_atom_site_fract_z
Zn1	Zn	1.620639	-0.321037	-0.455902
Zn2	Zn	2.120639	0.178963	0.044098
Zn3	Zn	1.620523	-0.455876	-0.321064
Zn4	Zn	2.120523	0.044124	0.178936
Zn5	Zn	1.443371	-0.321058	-0.321082
Zn6	Zn	1.943371	0.178942	0.178918
Zn7	Zn	1.443321	-0.455829	-0.455854
Zn8	Zn	1.943321	0.044171	0.044146
O9	O	1.531964	-0.388450	-0.388476
O10	O	2.031964	0.111550	0.111524
O11	O	1.768971	-0.338934	-0.438028
O12	O	2.268971	0.161066	0.061972
O13	O	1.596996	-0.438020	-0.208234
O14	O	2.096996	0.061980	0.291766
O15	O	1.466955	-0.208223	-0.338994
O16	O	1.966955	0.291777	0.161006
O17	O	1.768886	-0.438000	-0.338964
O18	O	2.268886	0.062000	0.161036
O19	O	1.597194	-0.208207	-0.438046
O20	O	2.097194	0.291793	0.061954
O21	O	1.466843	-0.338971	-0.208247
O22	O	1.966843	0.161029	0.291753
O23	O	1.295017	-0.338925	-0.338947
O24	O	1.795017	0.161075	0.161053
O25	O	1.466871	-0.437920	-0.568693
O26	O	1.966871	0.062080	-0.068693
O27	O	1.294980	-0.437941	-0.437963
O28	O	1.794980	0.062059	0.062037
O29	O	1.597146	-0.338889	-0.568728
O30	O	2.097146	0.161111	-0.068728
O31	O	1.596947	-0.568702	-0.338917
O32	O	2.096947	-0.068702	0.161083
O33	O	1.466758	-0.568668	-0.437946
O34	O	1.966758	-0.068668	0.062054
C35	C	1.531863	-0.597941	-0.388442
C36	C	2.031863	-0.097941	0.111558
C37	C	1.531917	-0.687562	-0.388454
C38	C	2.031917	-0.187562	0.111546
C39	C	1.256534	-0.388431	-0.388452
C40	C	1.756534	0.111569	0.111548
C41	C	1.138704	-0.388442	-0.388461
C42	C	1.638704	0.111558	0.111539
C43	C	1.532102	-1.015738	-0.388538
C44	C	2.032102	-0.515738	0.111462
C45	C	1.532047	-0.924429	-0.388517
C46	C	2.032047	-0.424429	0.111483
C47	C	1.532009	-0.851653	-0.388496
C48	C	2.032009	-0.351653	0.111504
C49	C	1.531956	-0.760338	-0.388476
C50	C	2.031956	-0.260338	0.111524
C51	C	0.971127	-0.325865	-0.326514
C52	C	1.471127	0.174135	0.173486
C53	C	1.093687	-0.326027	-0.326241
C54	C	1.593687	0.173973	0.173759
C55	C	1.094177	-0.473380	-0.365243
C56	C	1.594177	0.026620	0.134757
C57	C	0.971579	-0.473038	-0.364820
C58	C	1.471579	0.026962	0.135180
C59	C	0.971546	-0.366890	-0.473867
C60	C	1.471546	0.133110	0.026133
C61	C	1.094152	-0.364992	-0.473392
C62	C	1.594152	0.135008	0.026608
C63	C	1.808469	-0.388470	-0.388499
C64	C	2.308469	0.111530	0.111501
C65	C	1.926299	-0.388478	-0.388510
C66	C	2.426299	0.111522	0.111490
C67	C	1.532016	-0.388397	-0.598785
C68	C	2.032016	0.111603	-0.098785
C69	C	1.532038	-0.388374	-0.688406
C70	C	2.032038	0.111626	-0.188406
C71	C	1.532093	-0.178141	-0.388527
C72	C	2.032093	0.321859	0.111473
C73	C	1.532148	-0.088520	-0.388549
C74	C	2.032148	0.411480	0.111451
C75	C	1.532055	-0.388356	-0.761188
C76	C	2.032055	0.111644	-0.261188
C77	C	1.532080	-0.388326	-0.852497
C78	C	2.032080	0.111674	-0.352497
C79	C	1.532105	-0.388298	-0.925273
C80	C	2.032105	0.111702	-0.425273
C81	C	1.532131	-0.388269	-1.016588
C82	C	2.032131	0.111731	-0.516588
C83	C	1.531973	-0.388445	-0.178985
C84	C	2.031973	0.111555	0.321015
C85	C	1.532156	-0.388240	-0.089364
C86	C	2.032156	0.111760	0.410636
H87	H	0.941668	-0.262691	-0.340912
H88	H	1.441668	0.237309	0.159088
N89	N	1.134733	-0.420998	-0.537854
N90	N	1.634733	0.079002	-0.037854
H91	H	1.104805	-0.404464	-0.591695
H92	H	1.604805	0.095536	-0.091695
H93	H	1.214475	-0.418150	-0.539774
H94	H	1.714475	0.081850	-0.039774
H95	H	0.942557	-0.412495	-0.520059
H96	H	1.442557	0.087505	-0.020059
H97	H	0.940286	-0.339975	-0.263633
H98	H	1.440286	0.160025	0.236367
N99	N	1.134762	-0.498054	-0.283468
N100	N	1.634762	0.001946	0.216532
H101	H	1.176396	-0.549643	-0.288450
H102	H	1.676396	-0.049643	0.211550
H103	H	1.181940	-0.454295	-0.261387
H104	H	1.681940	0.045705	0.238613
N105	N	0.932302	-0.536935	-0.422012
N106	N	1.432302	-0.036935	0.077988
H107	H	0.888014	-0.577305	-0.391535
H108	H	1.388014	-0.077305	0.108465
H109	H	0.887997	-0.511054	-0.465423
H110	H	1.387997	-0.011054	0.034577
N111	N	1.132757	-0.536827	-0.423192
N112	N	1.632757	-0.036827	0.076808
H113	H	1.179589	-0.511061	-0.465151
H114	H	1.679589	-0.011061	0.034849
H115	H	1.174292	-0.578893	-0.392820
H116	H	1.674292	-0.078893	0.107180
H117	H	1.123793	-0.263042	-0.340795
H118	H	1.623793	0.236958	0.159205
H119	H	0.942939	-0.491346	-0.302420
H120	H	1.442939	0.008654	0.197580
H121	H	1.122971	-0.340295	-0.262988
H122	H	1.622971	0.159705	0.237012
N123	N	0.930626	-0.286284	-0.501843
N124	N	1.430626	0.213716	-0.001843
H125	H	0.882335	-0.262943	-0.459464
H126	H	1.382335	0.237057	0.040536
H127	H	0.992134	-0.248635	-0.511127
H128	H	1.492134	0.251365	-0.011127
N129	N	1.132692	-0.282194	-0.496587
N130	N	1.632692	0.217806	0.003413
H131	H	1.178821	-0.259961	-0.452271
H132	H	1.678821	0.240039	0.047729
H133	H	1.174954	-0.285758	-0.548016
H134	H	1.674954	0.214242	-0.048016
