data_functionalizedCrystal
_audit_creation_method	'MofGen! by Chris Wilmer'
_symmetry_space_group_name_H-M	'P1'
_symmetry_Int_Tables_number	1
_symmetry_cell_setting	triclinic
loop_
_symmetry_equiv_pos_as_xyz
  x,y,z
_cell_length_a	17.077404
_cell_length_b	18.215405
_cell_length_c	17.077396
_cell_angle_alpha	90.031591
_cell_angle_beta	90.019501
_cell_angle_gamma	90.025110
loop_
_atom_site_label
_atom_site_type_symbol
_atom_site_fract_x
_atom_site_fract_y
_atom_site_fract_z
Zn1	Zn	1.200044	-0.292980	0.443826
Zn2	Zn	1.700044	0.207020	0.943826
Zn3	Zn	1.199946	-0.416053	0.312553
Zn4	Zn	1.699946	0.083947	0.812553
Zn5	Zn	1.068776	-0.293006	0.312574
Zn6	Zn	1.568776	0.206994	0.812574
Zn7	Zn	1.068739	-0.416010	0.443776
Zn8	Zn	1.568739	0.083990	0.943776
O9	O	1.134376	-0.354512	0.378182
O10	O	1.634376	0.145488	0.878182
O11	O	1.309878	-0.309313	0.426424
O12	O	1.809878	0.190687	0.926424
O13	O	1.182521	-0.399760	0.202708
O14	O	1.682521	0.100240	0.702708
O15	O	1.086245	-0.190018	0.330014
O16	O	1.586245	0.309982	0.830014
O17	O	1.309806	-0.399735	0.329978
O18	O	1.809806	0.100265	0.829978
O19	O	1.182687	-0.189999	0.426444
O20	O	1.682687	0.310001	0.926444
O21	O	1.086150	-0.309357	0.202724
O22	O	1.586150	0.190643	0.702724
O23	O	0.958924	-0.309315	0.329966
O24	O	1.458924	0.190685	0.829966
O25	O	1.086182	-0.399660	0.553630
O26	O	1.586182	0.100340	1.053630
O27	O	0.958897	-0.399685	0.426360
O28	O	1.458897	0.100315	0.926360
O29	O	1.182651	-0.309271	0.553666
O30	O	1.682651	0.190729	1.053666
O31	O	1.182485	-0.519032	0.329930
O32	O	1.682485	-0.019032	0.829930
O33	O	1.086088	-0.519000	0.426340
O34	O	1.586088	-0.019000	0.926340
C35	C	0.930428	-0.354499	0.378160
C36	C	1.430428	0.145501	0.878160
C37	C	0.843178	-0.354511	0.378170
C38	C	1.343178	0.145489	0.878170
C39	C	0.802195	-0.401638	0.428282
C40	C	1.302195	0.098362	0.928282
C41	C	0.720214	-0.401639	0.428294
C42	C	1.220214	0.098361	0.928294
C43	C	0.679219	-0.354517	0.378190
C44	C	1.179219	0.145483	0.878190
C45	C	0.720208	-0.307385	0.328076
C46	C	1.220208	0.192615	0.828076
C47	C	0.802187	-0.307380	0.328068
C48	C	1.302187	0.192620	0.828068
C49	C	0.549338	-0.307400	0.328095
C50	C	1.049338	0.192600	0.828095
C51	C	0.467354	-0.307405	0.328102
C52	C	0.967354	0.192595	0.828102
C53	C	0.467365	-0.401659	0.428321
C54	C	0.967365	0.098341	0.928321
C55	C	0.549344	-0.401654	0.428313
C56	C	1.049344	0.098346	0.928313
C57	C	0.590328	-0.354522	0.378198
C58	C	1.090328	0.145478	0.878198
C59	C	1.134293	-0.545718	0.378144
C60	C	1.634293	-0.045718	0.878144
C61	C	1.134330	-0.627517	0.378154
C62	C	1.634330	-0.127517	0.878154
C63	C	1.184642	-0.815703	0.328046
C64	C	1.684642	-0.315703	0.828046
C65	C	1.184677	-0.892562	0.328065
C66	C	1.684677	-0.392562	0.828065
C67	C	1.084211	-0.892569	0.428374
C68	C	1.584211	-0.392569	0.928374
C69	C	1.084180	-0.815711	0.428359
C70	C	1.584180	-0.315711	0.928359
C71	C	1.134395	-0.777281	0.378190
C72	C	1.634395	-0.277281	0.878190
C73	C	1.134460	-0.930997	0.378225
C74	C	1.634460	-0.430997	0.878225
C75	C	1.134498	-1.014330	0.378246
C76	C	1.634498	-0.514330	0.878246
C77	C	1.134358	-0.693942	0.378170
C78	C	1.634358	-0.193942	0.878170
C79	C	1.339120	-0.354526	0.378204
C80	C	1.839120	0.145474	0.878204
C81	C	1.426370	-0.354532	0.378214
C82	C	1.926370	0.145468	0.878214
C83	C	1.134424	-0.354458	0.582926
C84	C	1.634424	0.145542	1.082926
C85	C	1.134444	-0.354435	0.670176
C86	C	1.634444	0.145565	1.170176
C87	C	1.134481	-0.162559	0.378237
C88	C	1.634481	0.337441	0.878237
C89	C	1.134525	-0.080760	0.378261
C90	C	1.634525	0.419240	0.878261
C91	C	1.134374	-0.354513	0.174234
C92	C	1.634374	0.145487	0.674234
C93	C	1.134506	-0.354329	0.086985
C94	C	1.634506	0.145671	0.586985
C95	C	1.184677	-0.307365	0.711187
C96	C	1.684677	0.192635	1.211187
C97	C	1.184687	-0.307341	0.793167
C98	C	1.684687	0.192659	1.293167
C99	C	1.134466	-0.354390	0.834136
C100	C	1.634466	0.145610	1.334136
C101	C	1.084227	-0.401462	0.793120
C102	C	1.584227	0.098538	1.293120
C103	C	1.084214	-0.401482	0.711141
C104	C	1.584214	0.098518	1.211141
C105	C	1.084259	-0.401418	0.963990
C106	C	1.584259	0.098582	1.463990
C107	C	1.084273	-0.401399	1.045974
C108	C	1.584273	0.098601	1.545974
C109	C	1.184731	-0.307276	1.046016
C110	C	1.684731	0.192724	1.546016
C111	C	1.184718	-0.307296	0.964037
C112	C	1.684718	0.192704	1.464037
C113	C	1.134480	-0.354369	0.923027
C114	C	1.634480	0.145631	1.423027
H115	H	0.433978	-0.269025	0.287312
H116	H	0.933978	0.230975	0.787312
H117	H	1.043327	-0.923868	0.469218
H118	H	1.543327	-0.423868	0.969218
H119	H	0.582705	-0.269014	0.287293
H120	H	1.082705	0.230986	0.787293
C121	C	1.028997	-0.453203	0.918880
C122	C	1.528997	0.046797	1.418880
N123	N	0.987378	-0.492211	0.884904
N124	N	1.487378	0.007789	1.384904
C125	C	1.028918	-0.773444	0.483540
C126	C	1.528918	-0.273444	0.983540
N127	N	0.987303	-0.741608	0.525107
N128	N	1.487303	-0.241608	1.025107
H129	H	0.835567	-0.440013	0.469079
H130	H	1.335567	0.059987	0.969079
H131	H	1.225575	-0.269054	0.677836
H132	H	1.725575	0.230946	1.177836
C133	C	1.239949	-0.255561	0.838275
C134	C	1.739949	0.244439	1.338275
N135	N	1.281574	-0.216559	0.872249
N136	N	1.781574	0.283441	1.372249
H137	H	1.225616	-0.268989	0.930683
H138	H	1.725616	0.231011	1.430683
C139	C	0.675111	-0.255548	0.272963
C140	C	1.175111	0.244452	0.772963
N141	N	0.641144	-0.216505	0.231449
N142	N	1.141144	0.283495	0.731449
H143	H	0.835555	-0.269001	0.287266
H144	H	1.335555	0.230999	0.787266
C145	C	0.675136	-0.453497	0.483406
C146	C	1.175136	0.046503	0.983406
N147	N	0.641184	-0.492563	0.524914
N148	N	1.141184	0.007437	1.024914
H149	H	1.225635	-0.268946	1.079411
H150	H	1.725635	0.231054	1.579411
C151	C	1.239883	-0.773432	0.272864
C152	C	1.739883	-0.273432	0.772864
N153	N	1.281494	-0.741596	0.231301
N154	N	1.781494	-0.241596	0.731301
H155	H	0.582721	-0.440029	0.469108
H156	H	1.082721	0.059971	0.969108
H157	H	1.225594	-0.923843	0.287234
H158	H	1.725594	-0.423843	0.787234
H159	H	1.043377	-0.439709	1.079329
H160	H	1.543377	0.060291	1.579329
H161	H	1.043334	-0.439768	0.826483
H162	H	1.543334	0.060232	1.326483
C163	C	1.028955	-0.453264	0.666030
C164	C	1.528955	0.046736	1.166030
N165	N	0.987331	-0.492266	0.632053
N166	N	1.487331	0.007734	1.132053
H167	H	0.433993	-0.440032	0.469129
H168	H	0.933993	0.059968	0.969129
