data_functionalizedCrystal
_audit_creation_method	'MofGen! by Chris Wilmer'
_symmetry_space_group_name_H-M	'P1'
_symmetry_Int_Tables_number	1
_symmetry_cell_setting	triclinic
loop_
_symmetry_equiv_pos_as_xyz
  x,y,z
_cell_length_a	12.759401
_cell_length_b	12.759400
_cell_length_c	12.759387
_cell_angle_alpha	89.937651
_cell_angle_beta	89.960095
_cell_angle_gamma	90.014845
loop_
_atom_site_label
_atom_site_type_symbol
_atom_site_fract_x
_atom_site_fract_y
_atom_site_fract_z
Zn1	Zn	1.606478	-0.417881	-0.593982
Zn2	Zn	1.606306	-0.593694	-0.418302
Zn3	Zn	1.430714	-0.418030	-0.418321
Zn4	Zn	1.430768	-0.593519	-0.593944
O5	O	1.518566	-0.505781	-0.506137
O6	O	1.753476	-0.441213	-0.570686
O7	O	1.582919	-0.570528	-0.271283
O8	O	1.454078	-0.270989	-0.441647
O9	O	1.753350	-0.570383	-0.441614
O10	O	1.583211	-0.270879	-0.570704
O11	O	1.453912	-0.441468	-0.271297
O12	O	1.283700	-0.441298	-0.441610
O13	O	1.454171	-0.570084	-0.740970
O14	O	1.283740	-0.570229	-0.570639
O15	O	1.583264	-0.441044	-0.740998
O16	O	1.582972	-0.740692	-0.441577
O17	O	1.454005	-0.740563	-0.570620
C18	C	1.245599	-0.505761	-0.506123
C19	C	1.128822	-0.505778	-0.506142
C20	C	1.518504	-0.778748	-0.506115
C21	C	1.518574	-0.895525	-0.506141
C22	C	1.074009	-0.573020	-0.573216
C23	C	0.964285	-0.573034	-0.573227
C24	C	0.964198	-0.438560	-0.439081
C25	C	1.073920	-0.438543	-0.439076
C26	C	1.074058	-0.650661	-0.650661
C27	C	0.964334	-0.650674	-0.650673
C28	C	1.585801	-0.950419	-0.439023
C29	C	1.585866	-1.060143	-0.439055
C30	C	1.451466	-1.060069	-0.573327
C31	C	1.451407	-0.950347	-0.573299
C32	C	1.663393	-0.950463	-0.361498
C33	C	1.663457	-1.060187	-0.361531
C34	C	1.792600	-0.505801	-0.506152
C35	C	1.909376	-0.505810	-0.506158
C36	C	1.518742	-0.505528	-0.780171
C37	C	1.518817	-0.505420	-0.896948
C38	C	1.518658	-0.231747	-0.506182
C39	C	1.518697	-0.114971	-0.506201
C40	C	1.518452	-0.505957	-0.233170
C41	C	1.518580	-0.505769	-0.116393
C42	C	1.586408	-0.572213	0.048253
C43	C	1.586293	-0.572386	-0.061471
C44	C	1.450986	-0.438968	-0.061587
C45	C	1.451108	-0.438791	0.048135
C46	C	1.664523	-0.649244	0.048319
C47	C	1.664408	-0.649417	-0.061404
H48	H	1.118545	-0.383781	-0.384465
H49	H	1.396077	-0.384393	0.092748
H50	H	1.103897	-0.628918	-0.732068
H51	H	0.919483	-0.383818	-0.384480
H52	H	1.396782	-1.104719	-0.628006
H53	H	1.634239	-0.916557	-0.284172
O54	O	1.630585	-0.741713	0.089179
C55	C	1.657915	-0.928188	0.101350
C56	C	1.696495	-0.823541	0.055035
H57	H	1.711171	-0.994377	0.073745
H58	H	1.659618	-0.923865	0.190573
H59	H	1.574334	-0.943801	0.073962
H60	H	1.780085	-0.807864	0.082343
H61	H	1.694715	-0.827916	-0.034183
H62	H	1.741466	-0.619776	-0.095653
H63	H	1.108061	-0.727929	-0.621377
H64	H	0.930365	-0.621588	-0.728025
H65	H	1.643143	-0.730989	-0.090925
H66	H	1.745774	-0.626821	0.077888
H67	H	1.395860	-0.384721	-0.106313
H68	H	0.934530	-0.732035	-0.628740
O69	O	1.386007	-0.897185	-0.638535
C70	C	1.252757	-0.908695	-0.771767
C71	C	1.326755	-0.969031	-0.697922
H72	H	1.204848	-0.966756	-0.819816
H73	H	1.197726	-0.857465	-0.723525
H74	H	1.300975	-0.857183	-0.826681
H75	H	1.278621	-1.020599	-0.642993
H76	H	1.381788	-1.020195	-0.746229
H77	H	1.641690	-1.090093	-0.280150
H78	H	1.744744	-0.920593	-0.383350
H79	H	1.740772	-1.094115	-0.390742
