data_functionalizedCrystal
_audit_creation_method	'MofGen! by Chris Wilmer'
_symmetry_space_group_name_H-M	'P1'
_symmetry_Int_Tables_number	1
_symmetry_cell_setting	triclinic
loop_
_symmetry_equiv_pos_as_xyz
  x,y,z
_cell_length_a	18.101398
_cell_length_b	18.101395
_cell_length_c	19.076919
_cell_angle_alpha	92.272317
_cell_angle_beta	92.285692
_cell_angle_gamma	90.029256
loop_
_atom_site_label
_atom_site_type_symbol
_atom_site_fract_x
_atom_site_fract_y
_atom_site_fract_z
Zn1	Zn	1.115284	-0.311701	-0.397871
Zn2	Zn	1.365284	-0.061701	-0.147871
Zn3	Zn	1.615284	0.188299	0.102129
Zn4	Zn	1.865284	0.438299	0.352129
Zn5	Zn	1.120161	-0.430570	-0.280179
Zn6	Zn	1.370161	-0.180570	-0.030179
Zn7	Zn	1.620161	0.069430	0.219821
Zn8	Zn	1.870161	0.319430	0.469821
Zn9	Zn	0.996423	-0.306743	-0.280199
Zn10	Zn	1.246423	-0.056743	-0.030199
Zn11	Zn	1.496423	0.193257	0.219801
Zn12	Zn	1.746423	0.443257	0.469801
Zn13	Zn	0.991395	-0.435500	-0.397845
Zn14	Zn	1.241395	-0.185500	-0.147845
Zn15	Zn	1.491395	0.064500	0.102155
Zn16	Zn	1.741395	0.314500	0.352155
O17	O	1.055816	-0.371128	-0.339024
O18	O	1.305816	-0.121128	-0.089024
O19	O	1.555816	0.128872	0.160976
O20	O	1.805816	0.378872	0.410976
O21	O	1.219564	-0.327480	-0.382262
O22	O	1.469564	-0.077480	-0.132262
O23	O	1.719564	0.172520	0.117738
O24	O	1.969564	0.422520	0.367738
O25	O	1.107891	-0.410006	-0.181693
O26	O	1.357891	-0.160006	0.068307
O27	O	1.607891	0.089994	0.318307
O28	O	1.857891	0.339994	0.568307
O29	O	1.012253	-0.203769	-0.295828
O30	O	1.262253	0.046231	-0.045828
O31	O	1.512253	0.296231	0.204172
O32	O	1.762253	0.546231	0.454172
O33	O	1.223146	-0.414813	-0.295794
O34	O	1.473146	-0.164813	-0.045794
O35	O	1.723146	0.085187	0.204206
O36	O	1.973146	0.335187	0.454206
O37	O	1.099581	-0.207411	-0.382281
O38	O	1.349581	0.042589	-0.132281
O39	O	1.599581	0.292589	0.117719
O40	O	1.849581	0.542589	0.367719
O41	O	1.016982	-0.319031	-0.181707
O42	O	1.266982	-0.069031	0.068293
O43	O	1.516982	0.180969	0.318293
O44	O	1.766982	0.430969	0.568293
O45	O	0.892123	-0.323812	-0.295802
O46	O	1.142123	-0.073812	-0.045802
O47	O	1.392123	0.176188	0.204198
O48	O	1.642123	0.426188	0.454198
O49	O	1.003685	-0.423216	-0.496338
O50	O	1.253685	-0.173216	-0.246338
O51	O	1.503685	0.076784	0.003662
O52	O	1.753685	0.326784	0.253662
O53	O	0.888429	-0.418409	-0.382236
O54	O	1.138429	-0.168409	-0.132236
O55	O	1.388429	0.081591	0.117764
O56	O	1.638429	0.331591	0.367764
O57	O	1.094705	-0.332261	-0.496357
O58	O	1.344705	-0.082261	-0.246357
O59	O	1.594705	0.167739	0.003643
O60	O	1.844705	0.417739	0.253643
O61	O	1.103016	-0.534856	-0.295769
O62	O	1.353016	-0.284856	-0.045769
O63	O	1.603016	-0.034856	0.204231
O64	O	1.853016	0.215144	0.454231
O65	O	1.008413	-0.538478	-0.382217
O66	O	1.258413	-0.288478	-0.132217
O67	O	1.508413	-0.038478	0.117783
O68	O	1.758413	0.211522	0.367783
C69	C	0.863405	-0.371108	-0.339019
C70	C	1.113405	-0.121108	-0.089019
C71	C	1.363405	0.128892	0.160981
C72	C	1.613405	0.378892	0.410981
C73	C	0.781091	-0.371118	-0.339033
C74	C	1.031091	-0.121118	-0.089033
C75	C	1.281091	0.128882	0.160967
C76	C	1.531091	0.378882	0.410967
C77	C	0.630382	-0.371131	-0.339032
C78	C	0.880382	-0.121131	-0.089032
C79	C	1.130382	0.128869	0.160968
C80	C	1.380382	0.378869	0.410968
C81	C	0.596733	-0.430734	-0.393330
C82	C	0.846733	-0.180734	-0.143330
C83	C	1.096733	0.069266	0.106670
C84	C	1.346733	0.319266	0.356670
C85	C	0.511121	-0.430959	-0.393169
C86	C	0.761121	-0.180959	-0.143169
C87	C	1.011121	0.069041	0.106831
C88	C	1.261121	0.319041	0.356831
C89	C	0.482000	-0.371145	-0.339032
C90	C	0.732000	-0.121145	-0.089032
C91	C	0.982000	0.128855	0.160968
C92	C	1.232000	0.378855	0.410968
C93	C	0.516195	-0.388830	-0.264769
C94	C	0.766195	-0.138830	-0.014769
C95	C	1.016195	0.111170	0.235231
C96	C	1.266195	0.361170	0.485231
C97	C	0.601827	-0.389252	-0.265083
C98	C	0.851827	-0.139252	-0.015083
C99	C	1.101827	0.110748	0.234917
C100	C	1.351827	0.360748	0.484917
C101	C	0.598044	-0.293674	-0.358349
C102	C	0.848044	-0.043674	-0.108349
C103	C	1.098044	0.206326	0.141651
C104	C	1.348044	0.456326	0.391651
C105	C	0.512324	-0.294172	-0.359985
C106	C	0.762324	-0.044172	-0.109985
C107	C	1.012324	0.205828	0.140015
C108	C	1.262324	0.455828	0.390015
C109	C	0.398140	-0.371151	-0.339028
C110	C	0.648140	-0.121151	-0.089028
C111	C	0.898140	0.128849	0.160972
C112	C	1.148140	0.378849	0.410972
C113	C	0.714242	-0.371127	-0.339032
C114	C	0.964242	-0.121127	-0.089032
C115	C	1.214242	0.128873	0.160968
C116	C	1.464242	0.378873	0.410968
C117	C	1.055718	-0.563538	-0.339003
C118	C	1.305718	-0.313538	-0.089003
C119	C	1.555718	-0.063538	0.160997
C120	C	1.805718	0.186462	0.410997
C121	C	1.055742	-0.645853	-0.339018
C122	C	1.305742	-0.395853	-0.089018
C123	C	1.555742	-0.145853	0.160982
C124	C	1.805742	0.104147	0.410982
C125	C	1.055903	-0.944945	-0.339056
C126	C	1.305903	-0.694945	-0.089056
C127	C	1.555903	-0.444945	0.160944
C128	C	1.805903	-0.194945	0.410944
C129	C	0.996508	-0.915936	-0.393581
C130	C	1.246508	-0.665936	-0.143581
C131	C	1.496508	-0.415936	0.106419
C132	C	1.746508	-0.165936	0.356419
C133	C	0.996244	-0.830311	-0.393411
C134	C	1.246244	-0.580311	-0.143411
C135	C	1.496244	-0.330311	0.106589
C136	C	1.746244	-0.080311	0.356589
C137	C	1.055823	-0.796562	-0.339037
C138	C	1.305823	-0.546562	-0.089037
C139	C	1.555823	-0.296562	0.160963
C140	C	1.805823	-0.046562	0.410963
C141	C	1.037833	-0.824575	-0.264863
C142	C	1.287833	-0.574575	-0.014863
C143	C	1.537833	-0.324575	0.235137
C144	C	1.787833	-0.074575	0.485137
C145	C	1.037451	-0.910234	-0.265190
C146	C	1.287451	-0.660234	-0.015190
C147	C	1.537451	-0.410234	0.234810
C148	C	1.787451	-0.160234	0.484810
C149	C	1.133441	-0.914095	-0.358051
C150	C	1.383441	-0.664095	-0.108051
C151	C	1.633441	-0.414095	0.141949
C152	C	1.883441	-0.164095	0.391949
C153	C	1.132912	-0.828513	-0.359678
C154	C	1.382912	-0.578513	-0.109678
C155	C	1.632912	-0.328513	0.140322
C156	C	1.882912	-0.078513	0.390322
C157	C	1.055780	-0.712702	-0.339023
C158	C	1.305780	-0.462702	-0.089023
C159	C	1.555780	-0.212702	0.160977
C160	C	1.805780	0.037298	0.410977
C161	C	1.055945	-1.028805	-0.339065
C162	C	1.305945	-0.778805	-0.089065
C163	C	1.555945	-0.528805	0.160935
C164	C	1.805945	-0.278805	0.410935
C165	C	1.248977	-0.371150	-0.339029
C166	C	1.498977	-0.121150	-0.089029
C167	C	1.748977	0.128850	0.160971
C168	C	1.998977	0.378850	0.410971
C169	C	1.331291	-0.371159	-0.339031
C170	C	1.581291	-0.121159	-0.089031
C171	C	1.831291	0.128841	0.160969
C172	C	2.081291	0.378841	0.410969
C173	C	1.048090	-0.378841	-0.522599
C174	C	1.298090	-0.128841	-0.272599
C175	C	1.548090	0.121159	-0.022599
C176	C	1.798090	0.371159	0.227401
C177	C	1.044798	-0.382128	-0.600827
C178	C	1.294798	-0.132128	-0.350827
C179	C	1.544798	0.117872	-0.100827
C180	C	1.794798	0.367872	0.149173
C181	C	1.055934	-0.177968	-0.339060
C182	C	1.305934	0.072032	-0.089060
C183	C	1.555934	0.322032	0.160940
C184	C	1.805934	0.572032	0.410940
C185	C	1.055984	-0.095655	-0.339075
C186	C	1.305984	0.154345	-0.089075
C187	C	1.555984	0.404345	0.160925
C188	C	1.805984	0.654345	0.410925
C189	C	1.090639	-0.336319	-0.637591
C190	C	1.340639	-0.086319	-0.387591
C191	C	1.590639	0.163681	-0.137591
C192	C	1.840639	0.413681	0.112409
C193	C	1.087536	-0.339405	-0.711095
C194	C	1.337536	-0.089405	-0.461095
C195	C	1.587536	0.160595	-0.211095
C196	C	1.837536	0.410595	0.038905
C197	C	1.038597	-0.388303	-0.747834
C198	C	1.288597	-0.138303	-0.497834
C199	C	1.538597	0.111697	-0.247834
C200	C	1.788597	0.361697	0.002166
C201	C	0.992751	-0.434114	-0.711066
C202	C	1.242751	-0.184114	-0.461066
C203	C	1.492751	0.065886	-0.211066
C204	C	1.742751	0.315886	0.038934
C205	C	0.995850	-0.431024	-0.637563
C206	C	1.245850	-0.181024	-0.387563
C207	C	1.495850	0.068976	-0.137563
C208	C	1.745850	0.318976	0.112437
C209	C	1.024243	-0.402618	-0.967663
C210	C	1.274243	-0.152618	-0.717663
C211	C	1.524243	0.097382	-0.467663
C212	C	1.774243	0.347382	-0.217663
C213	C	1.021149	-0.405706	-1.041171
C214	C	1.271149	-0.155706	-0.791171
C215	C	1.521149	0.094294	-0.541171
C216	C	1.771149	0.344294	-0.291171
C217	C	1.115934	-0.310995	-1.041195
C218	C	1.365934	-0.060995	-0.791195
C219	C	1.615934	0.189005	-0.541195
C220	C	1.865934	0.439005	-0.291195
C221	C	1.119031	-0.307913	-0.967691
C222	C	1.369031	-0.057913	-0.717691
C223	C	1.619031	0.192087	-0.467691
C224	C	1.869031	0.442087	-0.217691
C225	C	1.073183	-0.353721	-0.930929
C226	C	1.323183	-0.103721	-0.680929
C227	C	1.573183	0.146279	-0.430929
C228	C	1.823183	0.396279	-0.180929
N229	N	1.035426	-0.391460	-0.822968
N230	N	1.285426	-0.141460	-0.572968
N231	N	1.535426	0.108540	-0.322968
N232	N	1.785426	0.358540	-0.072968
N233	N	1.076351	-0.350560	-0.855797
N234	N	1.326351	-0.100560	-0.605797
N235	N	1.576351	0.149440	-0.355797
N236	N	1.826351	0.399440	-0.105797
C237	C	1.063554	-0.363392	-0.156163
C238	C	1.313554	-0.113392	0.093837
C239	C	1.563554	0.136608	0.343837
C240	C	1.813554	0.386608	0.593837
C241	C	1.066989	-0.359897	-0.077935
C242	C	1.316989	-0.109897	0.172065
C243	C	1.566989	0.140103	0.422065
C244	C	1.816989	0.390103	0.672065
H245	H	0.624337	-0.347527	-0.223240
H246	H	0.874337	-0.097527	0.026760
H247	H	1.124337	0.152473	0.276760
H248	H	1.374337	0.402473	0.526760
Br249	Br	0.479263	-0.216664	-0.298936
Br250	Br	0.729263	0.033336	-0.048936
Br251	Br	0.979263	0.283336	0.201064
Br252	Br	1.229263	0.533336	0.451064
Br253	Br	0.901189	-0.951055	-0.372894
Br254	Br	1.151189	-0.701055	-0.122894
Br255	Br	1.401189	-0.451055	0.127106
Br256	Br	1.651189	-0.201055	0.377106
H257	H	1.079005	-0.929175	-0.223179
H258	H	1.329005	-0.679175	0.026821
H259	H	1.579005	-0.429175	0.276821
H260	H	1.829005	-0.179175	0.526821
H261	H	0.617417	-0.276898	-0.411589
H262	H	0.867417	-0.026898	-0.161589
H263	H	1.117417	0.223102	0.088411
H264	H	1.367417	0.473102	0.338411
H265	H	0.619994	-0.249309	-0.318806
H266	H	0.869994	0.000691	-0.068806
H267	H	1.119994	0.250691	0.181194
H268	H	1.369994	0.500691	0.431194
Br269	Br	1.157066	-0.269959	-0.587737
Br270	Br	1.407066	-0.019959	-0.337737
Br271	Br	1.657066	0.230041	-0.087737
Br272	Br	1.907066	0.480041	0.162263
H273	H	1.150455	-0.937893	-0.411217
H274	H	1.400455	-0.687893	-0.161217
H275	H	1.650455	-0.437893	0.088783
H276	H	1.900455	-0.187893	0.338783
H277	H	0.622460	-0.445768	-0.248757
H278	H	0.872460	-0.195768	0.001243
H279	H	1.122460	0.054232	0.251243
H280	H	1.372460	0.304232	0.501243
Br281	Br	0.474650	-0.271835	-0.451079
Br282	Br	0.724650	-0.021835	-0.201079
Br283	Br	0.974650	0.228165	0.048921
Br284	Br	1.224650	0.478165	0.298921
Br285	Br	0.627230	-0.413247	-0.485378
Br286	Br	0.877230	-0.163247	-0.235378
Br287	Br	1.127230	0.086753	0.014622
Br288	Br	1.377230	0.336753	0.264622
H289	H	0.981294	-0.445527	-1.071083
H290	H	1.231294	-0.195527	-0.821083
H291	H	1.481294	0.054473	-0.571083
H292	H	1.731294	0.304473	-0.321083
Br293	Br	1.185455	-0.241550	-0.917835
Br294	Br	1.435455	0.008450	-0.667835
Br295	Br	1.685455	0.258450	-0.417835
Br296	Br	1.935455	0.508450	-0.167835
Br297	Br	0.633442	-0.525967	-0.372235
Br298	Br	0.883442	-0.275967	-0.122235
Br299	Br	1.133442	-0.025967	0.127765
Br300	Br	1.383442	0.224033	0.377765
Br301	Br	0.485219	-0.318467	-0.195484
Br302	Br	0.735219	-0.068467	0.054516
Br303	Br	0.985219	0.181533	0.304516
Br304	Br	1.235219	0.431533	0.554516
Br305	Br	1.107897	-0.787687	-0.195301
Br306	Br	1.357897	-0.537687	0.054699
Br307	Br	1.607897	-0.287687	0.304699
Br308	Br	1.857897	-0.037687	0.554699
Br309	Br	0.477813	-0.526742	-0.371832
Br310	Br	0.727813	-0.276742	-0.121832
Br311	Br	0.977813	-0.026742	0.128168
Br312	Br	1.227813	0.223258	0.378168
H313	H	0.952901	-0.473926	-0.740985
H314	H	1.202901	-0.223926	-0.490985
H315	H	1.452901	0.026074	-0.240985
H316	H	1.702901	0.276074	0.009015
Br317	Br	0.944548	-0.787779	-0.237559
Br318	Br	1.194548	-0.537779	0.012441
Br319	Br	1.444548	-0.287779	0.262441
Br320	Br	1.694548	-0.037779	0.512441
Br321	Br	0.481563	-0.481966	-0.237086
Br322	Br	0.731563	-0.231966	0.012914
Br323	Br	0.981563	0.018034	0.262914
Br324	Br	1.231563	0.268034	0.512914
H325	H	1.007136	-0.811574	-0.448410
H326	H	1.257136	-0.561574	-0.198410
H327	H	1.507136	-0.311574	0.051590
H328	H	1.757136	-0.061574	0.301590
Br329	Br	1.149786	-0.277267	-0.760986
Br330	Br	1.399786	-0.027267	-0.510986
Br331	Br	1.649786	0.222733	-0.260986
Br332	Br	1.899786	0.472733	-0.010986
H333	H	1.177654	-0.932666	-0.318338
H334	H	1.427654	-0.682666	-0.068338
H335	H	1.677654	-0.432666	0.181662
H336	H	1.927654	-0.182666	0.431662
H337	H	1.153260	-0.273700	-1.071135
H338	H	1.403260	-0.023700	-0.821135
H339	H	1.653260	0.226300	-0.571135
H340	H	1.903260	0.476300	-0.321135
H341	H	1.146535	-0.810460	-0.414266
H342	H	1.396535	-0.560460	-0.164266
H343	H	1.646535	-0.310460	0.085734
H344	H	1.896535	-0.060460	0.335734
Br345	Br	1.210156	-0.790224	-0.298316
Br346	Br	1.460156	-0.540224	-0.048316
Br347	Br	1.710156	-0.290224	0.201684
Br348	Br	1.960156	-0.040224	0.451684
H349	H	0.986921	-0.439929	-0.937740
H350	H	1.236921	-0.189929	-0.687740
H351	H	1.486921	0.060071	-0.437740
H352	H	1.736921	0.310071	-0.187740
H353	H	0.958514	-0.468319	-0.607631
H354	H	1.208514	-0.218319	-0.357631
H355	H	1.458514	0.031681	-0.107631
H356	H	1.708514	0.281681	0.142369
H357	H	0.487797	-0.420296	-0.448225
H358	H	0.737797	-0.170296	-0.198225
H359	H	0.987797	0.079704	0.051775
H360	H	1.237797	0.329704	0.301775
Br361	Br	0.900344	-0.795373	-0.372446
Br362	Br	1.150344	-0.545373	-0.122446
Br363	Br	1.400344	-0.295373	0.127554
Br364	Br	1.650344	-0.045373	0.377554
Br365	Br	1.014425	-0.954076	-0.485552
Br366	Br	1.264425	-0.704076	-0.235552
Br367	Br	1.514425	-0.454076	0.014448
Br368	Br	1.764425	-0.204076	0.264448
Br369	Br	0.943138	-0.942506	-0.238368
Br370	Br	1.193138	-0.692506	0.011632
Br371	Br	1.443138	-0.442506	0.261632
Br372	Br	1.693138	-0.192506	0.511632
