data_functionalizedCrystal
_audit_creation_method	'MofGen! by Chris Wilmer'
_symmetry_space_group_name_H-M	'P1'
_symmetry_Int_Tables_number	1
_symmetry_cell_setting	triclinic
loop_
_symmetry_equiv_pos_as_xyz
  x,y,z
_cell_length_a	15.995300
_cell_length_b	14.421503
_cell_length_c	15.995292
_cell_angle_alpha	89.995243
_cell_angle_beta	83.470212
_cell_angle_gamma	89.994505
loop_
_atom_site_label
_atom_site_type_symbol
_atom_site_fract_x
_atom_site_fract_y
_atom_site_fract_z
O1	O	1.110976	0.077139	0.107723
O2	O	0.867192	0.077133	0.121095
O3	O	0.995773	0.077137	-0.007484
O4	O	0.982395	0.077134	0.236301
O5	O	0.995789	-0.077086	-0.007475
O6	O	0.867208	-0.077091	0.121103
O7	O	1.110992	-0.077084	0.107731
Cu8	Cu	0.989101	-0.091169	0.114418
Cu9	Cu	0.989083	0.091218	0.114408
O10	O	0.982410	-0.077089	0.236309
C11	C	0.836005	0.000020	0.120553
C12	C	0.743052	0.000018	0.118918
C13	C	0.572870	0.000025	0.115899
C14	C	0.525385	0.000022	0.207449
C15	C	0.428697	0.000374	0.205779
C16	C	0.405314	0.000031	0.112927
C17	C	0.446447	0.087927	0.067501
C18	C	0.543080	0.087998	0.069817
C19	C	0.543377	-0.087388	0.068471
C20	C	0.446433	-0.088541	0.068480
C21	C	0.310619	0.000038	0.111242
C22	C	0.667565	0.000025	0.117580
N23	N	0.989120	-0.219451	0.114424
C24	C	1.048589	-0.469077	0.054957
C25	C	0.972933	-0.530876	0.038709
C26	C	0.989101	-0.408612	0.114414
C27	C	1.064740	-0.530907	0.130613
C28	C	0.989090	-0.591334	0.114402
C29	C	0.913407	-0.469050	0.098129
C30	C	1.005264	-0.469076	0.190066
C31	C	0.929553	-0.530847	0.173850
C32	C	0.989109	-0.303351	0.114419
C33	C	0.989074	-0.696592	0.114398
C34	C	1.142179	0.000030	0.108272
C35	C	1.235131	0.000038	0.109907
C36	C	0.995237	0.000028	-0.038675
C37	C	0.993604	0.000035	-0.131627
N38	N	0.989070	0.219499	0.114395
C39	C	0.987603	0.000026	-0.469365
C40	C	1.080409	-0.000316	-0.446069
C41	C	1.082173	0.000035	-0.349394
C42	C	0.990581	0.000030	-0.301809
C43	C	0.944173	0.088095	-0.330907
C44	C	0.943056	0.088165	-0.427697
C45	C	0.941178	-0.087216	-0.427545
C46	C	0.944618	-0.088376	-0.331053
C47	C	0.992259	0.000035	-0.207114
C48	C	0.985922	0.000027	-0.564060
C49	C	0.982947	0.000022	0.267500
C50	C	0.984579	0.000021	0.360453
H51	H	0.543875	-0.062999	0.244244
H52	H	0.849421	-0.441993	0.084350
H53	H	0.544980	0.062957	0.243689
C54	C	0.861517	-0.567269	0.241772
C55	C	0.768408	-0.542618	0.237595
C56	C	0.700371	-0.579045	0.305511
C57	C	0.725441	-0.640122	0.377605
C58	C	0.818554	-0.664776	0.381785
C59	C	0.886592	-0.628350	0.313869
H60	H	0.749846	-0.497402	0.184224
H61	H	0.631442	-0.560794	0.302416
H62	H	0.675075	-0.667087	0.427881
H63	H	0.837117	-0.709992	0.435156
H64	H	0.955521	-0.646601	0.316964
C65	C	0.391049	0.085986	0.253782
C66	C	0.448974	0.154249	0.293753
C67	C	0.411326	0.239865	0.341759
C68	C	0.315753	0.257217	0.349794
C69	C	0.257822	0.188952	0.309822
C70	C	0.295470	0.103336	0.261816
H71	H	0.519729	0.141406	0.287806
H72	H	0.454211	0.290399	0.371348
H73	H	0.287883	0.320595	0.385331
H74	H	0.187067	0.201795	0.315769
H75	H	0.252585	0.052802	0.232226
H76	H	1.018969	-0.441910	0.254028
C77	C	0.586701	0.093077	-0.020998
C78	C	0.645419	0.174885	-0.048278
C79	C	0.689033	0.179973	-0.139092
C80	C	0.673928	0.103252	-0.202626
C81	C	0.615207	0.021438	-0.175347
C82	C	0.571593	0.016350	-0.084534
H83	H	0.656602	0.231684	-0.001245
H84	H	0.732502	0.240538	-0.159285
H85	H	0.706214	0.107019	-0.269852
H86	H	0.604024	-0.035361	-0.222380
H87	H	0.528124	-0.044215	-0.064341
C88	C	0.427419	0.092022	-0.024667
C89	C	0.461626	0.172720	-0.081662
C90	C	0.442596	0.176813	-0.173830
C91	C	0.389358	0.100208	-0.209003
C92	C	0.355148	0.019504	-0.152007
C93	C	0.374178	0.015411	-0.059839
H94	H	0.501038	0.229433	-0.055626
H95	H	0.467921	0.236556	-0.216022
H96	H	0.375271	0.103238	-0.277231
H97	H	0.315736	-0.037209	-0.178043
H98	H	0.348853	-0.044332	-0.017647
C99	C	0.571063	-0.177421	0.109195
C100	C	0.620816	-0.172713	0.186043
C101	C	0.648501	-0.262739	0.226777
C102	C	0.626432	-0.357472	0.190664
C103	C	0.576677	-0.362184	0.113812
C104	C	0.548992	-0.272158	0.073077
H105	H	0.637155	-0.102582	0.212780
H106	H	0.685334	-0.259250	0.283669
H107	H	0.646926	-0.424115	0.220818
H108	H	0.560338	-0.432315	0.087074
H109	H	0.512159	-0.275646	0.016186
H110	H	1.128711	-0.558079	0.144320
C111	C	0.987691	0.176642	-0.303830
C112	C	1.065274	0.169223	-0.255356
C113	C	1.108797	0.257767	-0.228281
C114	C	1.074739	0.353730	-0.249682
C115	C	0.997152	0.361152	-0.298159
C116	C	0.953629	0.272608	-0.325233
H117	H	1.090489	0.098183	-0.239512
H118	H	1.166232	0.252272	-0.192395
H119	H	1.106957	0.419275	-0.229640
H120	H	0.971936	0.432193	-0.314003
H121	H	0.896194	0.278103	-0.361119
H122	H	1.098842	-0.441955	0.004647
C123	C	0.848894	-0.088033	-0.446429
C124	C	0.815344	-0.170037	-0.494481
C125	C	0.723064	-0.170847	-0.513370
C126	C	0.664333	-0.089654	-0.484208
C127	C	0.697882	-0.007644	-0.436154
C128	C	0.790162	-0.006834	-0.417264
H129	H	0.858821	-0.230147	-0.516071
H130	H	0.698229	-0.231557	-0.548943
H131	H	0.596021	-0.090253	-0.498191
H132	H	0.654405	0.052466	-0.414564
H133	H	0.814997	0.053876	-0.381691
C134	C	0.586332	-0.088539	-0.022713
C135	C	0.567755	-0.167632	-0.082583
C136	C	0.610713	-0.168773	-0.173764
C137	C	0.672246	-0.090820	-0.205075
C138	C	0.690826	-0.011721	-0.145204
C139	C	0.647869	-0.010581	-0.054023
H140	H	0.522202	-0.225342	-0.059406
H141	H	0.596958	-0.227327	-0.218085
H142	H	0.704046	-0.091664	-0.272573
H143	H	0.736379	0.045989	-0.168382
H144	H	0.661623	0.047974	-0.009703
H145	H	1.118518	-0.063092	-0.330372
H146	H	0.418049	0.153585	0.098637
H147	H	1.116188	-0.063471	-0.474070
C148	C	0.986463	0.177096	-0.463945
C149	C	1.021900	0.247556	-0.404789
C150	C	1.065310	0.336488	-0.441033
C151	C	1.073284	0.354960	-0.536432
C152	C	1.037847	0.284498	-0.595593
C153	C	0.994436	0.195566	-0.559350
H154	H	1.015998	0.233884	-0.334164
H155	H	1.091543	0.388648	-0.397237
H156	H	1.105419	0.420793	-0.563261
H157	H	1.043749	0.298171	-0.666219
H158	H	0.968203	0.143406	-0.603146
C159	C	0.390231	-0.084720	0.253999
C160	C	0.447437	-0.153243	0.294639
C161	C	0.408973	-0.238337	0.342866
C162	C	0.313303	-0.254907	0.350453
C163	C	0.256092	-0.186382	0.309812
C164	C	0.294556	-0.101288	0.261585
H165	H	0.518263	-0.140978	0.289024
H166	H	0.451325	-0.289063	0.372952
H167	H	0.284830	-0.317898	0.386154
H168	H	0.185266	-0.198646	0.315427
H169	H	0.252203	-0.050562	0.231500
H170	H	1.115976	0.062487	-0.475097
C171	C	0.954446	-0.567556	-0.047723
C172	C	1.013868	-0.543179	-0.127284
C173	C	0.995387	-0.579854	-0.213717
C174	C	0.917485	-0.640908	-0.220589
C175	C	0.858058	-0.665289	-0.141025
C176	C	0.876539	-0.628613	-0.054592
H177	H	1.071540	-0.497981	-0.122199
H178	H	1.039379	-0.561806	-0.272615
H179	H	0.903805	-0.668057	-0.284572
H180	H	0.800386	-0.710487	-0.146110
H181	H	0.832547	-0.646662	0.004306
H182	H	0.561386	0.153950	0.102549
C183	C	0.409500	-0.176389	0.113295
C184	C	0.314380	-0.195835	0.118631
C185	C	0.277442	-0.283679	0.163452
C186	C	0.335625	-0.352077	0.202937
C187	C	0.430751	-0.332632	0.197603
C188	C	0.467689	-0.244789	0.152781
H189	H	0.271304	-0.145202	0.089401
H190	H	0.207023	-0.298072	0.167401
H191	H	0.308281	-0.417104	0.236117
H192	H	0.473827	-0.383266	0.226833
H193	H	0.538108	-0.230395	0.148832
H194	H	0.875009	0.092152	-0.442235
H195	H	0.431110	-0.094108	0.000784
C196	C	0.980461	-0.177394	-0.465714
C197	C	1.055203	-0.172964	-0.535358
C198	C	1.094496	-0.263136	-0.573530
C199	C	1.059047	-0.357739	-0.542058
C200	C	0.984301	-0.362173	-0.472410
C201	C	0.945008	-0.272001	-0.434238
H202	H	1.081447	-0.102930	-0.558660
H203	H	1.149828	-0.259853	-0.625088
H204	H	1.088134	-0.424490	-0.570315
H205	H	0.958056	-0.432207	-0.449109
H206	H	0.889676	-0.275284	-0.382680
C207	C	0.990264	-0.176384	-0.305955
C208	C	0.998870	-0.195827	-0.212655
C209	C	1.044521	-0.283828	-0.187544
C210	C	1.081566	-0.352387	-0.255733
C211	C	1.072961	-0.332946	-0.349040
C212	C	1.027310	-0.244944	-0.374151
H213	H	0.971447	-0.145075	-0.162171
H214	H	1.050891	-0.298220	-0.118472
H215	H	1.115359	-0.417531	-0.237145
H216	H	1.100384	-0.383698	-0.399523
H217	H	1.020940	-0.230553	-0.443223
H218	H	1.118720	0.063276	-0.330999
H219	H	0.876773	0.091366	-0.299027
H220	H	0.877765	-0.093698	-0.298071
