data_functionalizedCrystal
_audit_creation_method	'MofGen! by Chris Wilmer'
_symmetry_space_group_name_H-M	'P1'
_symmetry_Int_Tables_number	1
_symmetry_cell_setting	triclinic
loop_
_symmetry_equiv_pos_as_xyz
  x,y,z
_cell_length_a	13.032831
_cell_length_b	18.101395
_cell_length_c	13.032268
_cell_angle_alpha	97.146252
_cell_angle_beta	90.886977
_cell_angle_gamma	82.835691
loop_
_atom_site_label
_atom_site_type_symbol
_atom_site_fract_x
_atom_site_fract_y
_atom_site_fract_z
Zn1	Zn	1.498320	-0.500117	-0.780796
Zn2	Zn	1.998320	-0.000117	-0.280796
Zn3	Zn	1.520028	-0.610451	-0.608808
Zn4	Zn	2.020028	-0.110451	-0.108808
Zn5	Zn	1.348189	-0.469181	-0.587040
Zn6	Zn	1.848189	0.030819	-0.087040
Zn7	Zn	1.326277	-0.606447	-0.758934
Zn8	Zn	1.826277	-0.106447	-0.258934
O9	O	1.423203	-0.546549	-0.683894
O10	O	1.923203	-0.046549	-0.183894
O11	O	1.645116	-0.529375	-0.776242
O12	O	2.145116	-0.029375	-0.276242
O13	O	1.515487	-0.580440	-0.462005
O14	O	2.015487	-0.080440	0.037995
O15	O	1.368189	-0.369663	-0.612782
O16	O	1.868189	0.130337	-0.112782
O17	O	1.661064	-0.610437	-0.649882
O18	O	2.161064	-0.110437	-0.149882
O19	O	1.478491	-0.392391	-0.755134
O20	O	1.978491	0.107609	-0.255134
O21	O	1.389238	-0.476650	-0.446012
O22	O	1.889238	0.023350	0.053988
O23	O	1.201366	-0.472767	-0.591582
O24	O	1.701366	0.027233	-0.091582
O25	O	1.330844	-0.603613	-0.905750
O26	O	1.830844	-0.103613	-0.405750
O27	O	1.185268	-0.573616	-0.717872
O28	O	1.685268	-0.073616	-0.217872
O29	O	1.457244	-0.525493	-0.921812
O30	O	1.957244	-0.025493	-0.421812
O31	O	1.494241	-0.713541	-0.628683
O32	O	1.994241	-0.213541	-0.128683
O33	O	1.351893	-0.710600	-0.738979
O34	O	1.851893	-0.210600	-0.238979
C35	C	1.156001	-0.519401	-0.649993
C36	C	1.656001	-0.019401	-0.149993
C37	C	1.041687	-0.507806	-0.635514
C38	C	1.541687	-0.007806	-0.135514
C39	C	0.982797	-0.552600	-0.691451
C40	C	1.482797	-0.052600	-0.191451
C41	C	0.864648	-0.540618	-0.676488
C42	C	1.364648	-0.040618	-0.176488
C43	C	1.423070	-0.738943	-0.683847
C44	C	1.923070	-0.238943	-0.183847
C45	C	1.423102	-0.821262	-0.683873
C46	C	1.923102	-0.321262	-0.183873
C47	C	1.423321	-1.120381	-0.683957
C48	C	1.923321	-0.620381	-0.183957
C49	C	1.333919	-1.087270	-0.753573
C50	C	1.833919	-0.587270	-0.253573
C51	C	1.333573	-1.001594	-0.753276
C52	C	1.833573	-0.501594	-0.253276
C53	C	1.423212	-0.971985	-0.683916
C54	C	1.923212	-0.471985	-0.183916
C55	C	1.407642	-0.991648	-0.571811
C56	C	1.907642	-0.491648	-0.071811
C57	C	1.407070	-1.077279	-0.572223
C58	C	1.907070	-0.577279	-0.072223
C59	C	1.528588	-1.101951	-0.725513
C60	C	2.028588	-0.601951	-0.225513
C61	C	1.527646	-1.016421	-0.727809
C62	C	2.027646	-0.516421	-0.227809
C63	C	1.423153	-0.888117	-0.683886
C64	C	1.923153	-0.388117	-0.183886
C65	C	1.423378	-1.204247	-0.683979
C66	C	1.923378	-0.704247	-0.183979
C67	C	1.691449	-0.573804	-0.717929
C68	C	2.191449	-0.073804	-0.217929
C69	C	1.805759	-0.585418	-0.732432
C70	C	2.305759	-0.085418	-0.232432
C71	C	1.389178	-0.567557	-0.952140
C72	C	1.889178	-0.067557	-0.452140
C73	C	1.374679	-0.576509	-1.066450
C74	C	1.874679	-0.076509	-0.566450
C75	C	1.423363	-0.353408	-0.683968
C76	C	1.923363	0.146592	-0.183968
C77	C	1.423431	-0.271103	-0.684000
C78	C	1.923431	0.228897	-0.184000
C79	C	1.430755	-0.541848	-1.125361
C80	C	1.930755	-0.041848	-0.625361
C81	C	1.415770	-0.551100	-1.243507
C82	C	1.915770	-0.051100	-0.743507
C83	C	1.457155	-0.525575	-0.416700
C84	C	1.957155	-0.025575	0.083300
C85	C	1.471854	-0.516434	-0.302416
C86	C	1.971854	-0.016434	0.197584
H87	H	1.019848	-0.599818	-0.750422
H88	H	1.519848	-0.099818	-0.250422
H89	H	0.842804	-0.632638	-0.791410
H90	H	1.342804	-0.132638	-0.291410
H91	H	0.827601	-0.493392	-0.617521
H92	H	1.327601	0.006608	-0.117521
H93	H	1.470108	-1.098787	-0.517844
H94	H	1.970108	-0.598787	-0.017844
H95	H	1.004636	-0.460583	-0.576551
H96	H	1.504636	0.039417	-0.076551
H97	H	1.341720	-0.988702	-0.835969
H98	H	1.841720	-0.488702	-0.335969
H99	H	1.530954	-0.479903	-1.265390
H100	H	2.030954	0.020097	-0.765390
H101	H	1.356658	-0.587621	-1.280533
H102	H	1.856658	-0.087621	-0.780533
H103	H	1.341850	-1.115992	-0.836504
H104	H	1.841850	-0.615992	-0.336504
H105	H	1.256075	-1.099292	-0.725253
H106	H	1.756075	-0.599292	-0.225253
H107	H	1.255269	-0.971539	-0.724662
H108	H	1.755269	-0.471539	-0.224662
H109	H	1.330530	-1.087401	-0.538622
H110	H	1.830530	-0.587401	-0.038622
H111	H	1.471316	-0.972170	-0.517925
H112	H	1.971316	-0.472170	-0.017925
H113	H	1.331997	-0.960395	-0.537896
H114	H	1.831997	-0.460395	-0.037896
H115	H	1.545469	-1.132313	-0.806592
H116	H	2.045469	-0.632313	-0.306592
H117	H	1.315571	-0.613028	-1.103481
H118	H	1.815571	-0.113028	-0.603481
H119	H	1.539638	-1.004566	-0.810379
H120	H	2.039638	-0.504566	-0.310379
H121	H	1.596674	-0.997101	-0.681897
H122	H	2.096674	-0.497101	-0.181897
H123	H	1.595027	-1.123643	-0.674977
H124	H	2.095027	-0.623643	-0.174977
H125	H	1.489853	-0.505321	-1.088329
H126	H	1.989853	-0.005321	-0.588329
