data_functionalizedCrystal
_audit_creation_method	'MofGen! by Chris Wilmer'
_symmetry_space_group_name_H-M	'P1'
_symmetry_Int_Tables_number	1
_symmetry_cell_setting	triclinic
loop_
_symmetry_equiv_pos_as_xyz
  x,y,z
_cell_length_a	11.792241
_cell_length_b	15.944486
_cell_length_c	10.268362
_cell_angle_alpha	89.996864
_cell_angle_beta	90.004128
_cell_angle_gamma	83.832914
loop_
_atom_site_label
_atom_site_type_symbol
_atom_site_fract_x
_atom_site_fract_y
_atom_site_fract_z
O1	O	-1.505918	-0.115133	0.108146
O2	O	-1.175475	-0.126998	0.108180
O3	O	-1.349758	0.001172	0.108162
O4	O	-1.331635	-0.243303	0.108164
O5	O	-1.349756	0.001180	-0.108438
O6	O	-1.175473	-0.126991	-0.108421
O7	O	-1.505916	-0.115125	-0.108454
Cu8	Cu	-1.340694	-0.121057	-0.128215
Cu9	Cu	-1.340697	-0.121066	0.127940
O10	O	-1.331633	-0.243296	-0.108437
C11	C	-1.133190	-0.126249	-0.000116
C12	C	-1.007195	-0.124018	-0.000103
C13	C	-1.349018	0.032474	-0.000135
C14	C	-1.346801	0.125733	-0.000127
C15	C	-0.776518	-0.119916	-0.000137
C16	C	-0.904884	-0.122195	-0.000118
C17	C	-0.548201	-0.115874	-0.000152
C18	C	-0.674196	-0.118105	-0.000147
N19	N	-1.340699	-0.121066	0.308106
C20	C	-1.448068	0.416814	-0.000149
C21	C	-1.395431	0.356029	-0.106943
C22	C	-1.338746	0.461408	-0.000147
C23	C	-1.395404	0.356028	0.106608
C24	C	-1.342710	0.296480	-0.000135
C25	C	-1.286079	0.401852	-0.107029
C26	C	-1.286068	0.401857	0.106618
C27	C	-1.233351	0.341091	-0.000201
C28	C	-1.336466	0.556419	-0.000155
C29	C	-1.344981	0.201471	-0.000136
C30	C	-1.332389	0.725404	-0.000141
C31	C	-1.334652	0.632149	-0.000154
N32	N	-1.340701	-0.121051	-0.308381
C33	C	-1.340696	-0.121061	0.573777
C34	C	-1.340695	-0.121067	0.425939
H35	H	-1.441671	0.335733	-0.197236
O36	O	-1.125002	0.302022	-0.000489
C37	C	-1.067798	0.325405	-0.113213
H38	H	-1.132957	0.347040	-0.191563
H39	H	-1.014939	0.379114	-0.088747
C40	C	-0.908669	0.222596	-0.067330
C41	C	-0.988698	0.249162	-0.163564
H42	H	-0.859872	0.175568	-0.098387
H43	H	-0.947206	0.206845	0.008617
H44	H	-0.864632	0.267361	-0.046950
H45	H	-1.032742	0.204402	-0.183930
H46	H	-0.950166	0.264905	-0.239516
O47	O	-1.231034	0.426082	-0.214815
C48	C	-1.229582	0.514384	-0.213528
H49	H	-1.302441	0.544267	-0.150248
H50	H	-1.144833	0.530492	-0.172223
C51	C	-1.154571	0.512013	-0.431122
C52	C	-1.244064	0.548716	-0.353409
H53	H	-1.163499	0.533191	-0.517406
H54	H	-1.155545	0.452521	-0.431988
H55	H	-1.083956	0.525439	-0.396685
H56	H	-1.314675	0.535281	-0.387836
H57	H	-1.243102	0.608206	-0.352552
O58	O	-1.230796	0.425989	0.214300
C59	C	-1.118247	0.385896	0.215218
H60	H	-1.113634	0.326155	0.153599
H61	H	-1.058117	0.430396	0.173286
C62	C	-1.088428	0.436063	0.431785
C63	C	-1.082764	0.362684	0.356111
H64	H	-1.066537	0.421747	0.518694
H65	H	-1.164253	0.463077	0.431165
H66	H	-1.038320	0.473139	0.396826
H67	H	-1.132882	0.325614	0.391061
H68	H	-1.006947	0.335663	0.356740
O69	O	-1.450735	0.331934	0.214277
C70	C	-1.563901	0.370847	0.213840
H71	H	-1.569331	0.430229	0.151321
H72	H	-1.622774	0.325350	0.172149
C73	C	-1.593985	0.321665	0.430920
C74	C	-1.600652	0.394603	0.354142
H75	H	-1.616658	0.336316	0.517464
H76	H	-1.517744	0.295446	0.431214
H77	H	-1.643046	0.283758	0.396162
H78	H	-1.551580	0.432504	0.388890
H79	H	-1.676885	0.420829	0.353857
H80	H	-1.538798	0.449734	-0.000261
