data_functionalizedCrystal
_audit_creation_method	'MofGen! by Chris Wilmer'
_symmetry_space_group_name_H-M	'P1'
_symmetry_Int_Tables_number	1
_symmetry_cell_setting	triclinic
loop_
_symmetry_equiv_pos_as_xyz
  x,y,z
_cell_length_a	10.654554
_cell_length_b	14.971486
_cell_length_c	9.130313
_cell_angle_alpha	89.999788
_cell_angle_beta	89.997682
_cell_angle_gamma	95.949563
loop_
_atom_site_label
_atom_site_type_symbol
_atom_site_fract_x
_atom_site_fract_y
_atom_site_fract_z
O1	O	0.163652	-1.187838	-0.121629
O2	O	0.183251	-0.927544	-0.121669
O3	O	-0.009352	-1.063674	-0.121640
O4	O	0.356255	-1.051708	-0.121658
O5	O	-0.009350	-1.063661	0.121959
O6	O	0.183252	-0.927531	0.121930
O7	O	0.163654	-1.187825	0.121970
Cu8	Cu	0.173453	-1.057677	0.144192
Cu9	Cu	0.173451	-1.057692	-0.143892
O10	O	0.356256	-1.051695	0.121941
C11	C	0.182375	-0.894208	0.000125
C12	C	0.179748	-0.794897	0.000110
N13	N	0.173453	-1.057672	0.346815
C14	C	-0.056139	-1.062788	0.000158
C15	C	-0.195554	-1.060157	0.000154
C16	C	-0.406896	-1.137838	0.000147
C17	C	-0.275901	-1.140311	0.000163
C18	C	-0.246208	-0.977524	0.000145
C19	C	-0.377200	-0.975052	0.000140
C20	C	-0.424038	-1.231822	0.000151
C21	C	-0.293043	-1.234295	0.000167
C22	C	0.403044	-1.052581	0.000139
C23	C	0.542458	-1.055212	0.000133
C24	C	0.164529	-1.221161	0.000172
C25	C	0.167156	-1.320472	0.000177
C26	C	0.292897	-0.738289	0.000107
C27	C	0.290422	-0.644976	0.000129
C28	C	0.174796	-0.608273	0.000144
C29	C	0.061639	-0.664888	0.000152
C30	C	0.064116	-0.758200	0.000140
C31	C	0.056485	-0.470398	0.000172
C32	C	0.054007	-0.377080	0.000181
C33	C	0.282791	-0.357174	0.000161
C34	C	0.285267	-0.450485	0.000149
C35	C	0.172109	-0.507094	0.000154
N36	N	0.173441	-1.057704	-0.346514
C37	C	0.258700	-0.997386	0.423492
C38	C	0.258697	-0.997404	0.576829
C39	C	0.088190	-1.117996	0.576798
C40	C	0.088200	-1.117982	0.423464
C41	C	0.357137	-0.927760	0.423510
C42	C	0.357135	-0.927778	0.576847
H43	H	-0.418430	-0.907771	0.000142
H44	H	0.336355	-0.859045	0.618479
H45	H	-0.180779	-0.912261	0.000153
C46	C	-0.067987	-0.532672	0.000175
C47	C	-0.162703	-0.528064	0.126671
C48	C	-0.287171	-0.590338	0.126665
C49	C	-0.316922	-0.657221	0.000164
C50	C	-0.222204	-0.661831	-0.126341
C51	C	-0.097736	-0.599557	-0.126336
H52	H	-0.140682	-0.478551	0.220323
H53	H	-0.357287	-0.586925	0.220313
H54	H	-0.409060	-0.703320	0.000160
H55	H	-0.244225	-0.711344	-0.219993
H56	H	-0.027620	-0.602970	-0.219984
C57	C	-0.005562	-1.184303	0.339113
C58	C	-0.005549	-1.184291	0.170452
C59	C	-0.099313	-1.250614	0.086098
C60	C	-0.193090	-1.316951	0.170406
C61	C	-0.193106	-1.316966	0.339077
C62	C	-0.099342	-1.250642	0.423430
H63	H	0.063872	-1.135182	0.108034
H64	H	-0.099301	-1.250603	-0.038764
H65	H	-0.262499	-1.366048	0.107962
H66	H	-0.262528	-1.366074	0.401495
H67	H	-0.099354	-1.250653	0.548292
H68	H	0.387052	-0.768164	0.000094
H69	H	-0.466174	-1.267234	0.102094
C70	C	0.487323	-0.948392	0.367279
C71	C	0.538353	-1.037679	0.407992
C72	C	0.668534	-1.058311	0.351760
C73	C	0.747684	-0.989657	0.254815
C74	C	0.696655	-0.900364	0.214096
C75	C	0.566474	-0.879732	0.270328
H76	H	0.479760	-1.088506	0.479762
H77	H	0.706308	-1.124412	0.381903
H78	H	0.844052	-1.004930	0.213188
H79	H	0.755248	-0.849537	0.142327
H80	H	0.528700	-0.813631	0.240185
H81	H	0.382559	-0.598888	0.000125
C82	C	0.316769	-0.840024	0.359267
C83	C	0.199842	-0.842653	0.259612
C84	C	0.159469	-0.754917	0.195368
C85	C	0.236023	-0.664553	0.230781
C86	C	0.352957	-0.661921	0.330441
C87	C	0.393330	-0.749656	0.394684
H88	H	0.143166	-0.909549	0.233393
H89	H	0.072907	-0.756866	0.121593
H90	H	0.206137	-0.599606	0.183224
H91	H	0.409633	-0.595025	0.356660
H92	H	0.479893	-0.747707	0.468460
H93	H	-0.264067	-1.271054	-0.101771
C94	C	-0.486119	-1.270189	-0.141929
C95	C	-0.404354	-1.305611	-0.263671
C96	C	-0.466436	-1.343975	-0.405753
C97	C	-0.610282	-1.346917	-0.426093
C98	C	-0.692056	-1.311494	-0.304348
C99	C	-0.629974	-1.273131	-0.162266
H100	H	-0.297862	-1.303434	-0.248617
H101	H	-0.405901	-1.370197	-0.495877
H102	H	-0.656239	-1.375316	-0.531271
H103	H	-0.798547	-1.313671	-0.319401
H104	H	-0.690509	-1.246908	-0.072142
H105	H	-0.257743	-1.264225	0.105354
H106	H	0.018780	-1.167100	0.639223
C107	C	0.412457	-0.490856	0.000134
C108	C	0.506485	-0.469821	0.126628
C109	C	0.633678	-0.510190	0.126619
C110	C	0.666843	-0.571595	0.000116
C111	C	0.572812	-0.592634	-0.126387
C112	C	0.445620	-0.552265	-0.126378
H113	H	0.481937	-0.424362	0.220282
H114	H	0.703285	-0.494615	0.220266
H115	H	0.760998	-0.601479	0.000110
H116	H	0.597361	-0.638093	-0.220040
H117	H	0.376013	-0.567840	-0.220025
C118	C	0.480041	-0.957148	0.641095
C119	C	0.475518	-1.040418	0.740716
C120	C	0.598418	-1.069794	0.804962
C121	C	0.725840	-1.015900	0.769588
C122	C	0.730368	-0.932625	0.669962
C123	C	0.607468	-0.903248	0.605716
H124	H	0.381188	-1.080318	0.766906
H125	H	0.595065	-1.131441	0.878712
H126	H	0.816818	-1.037646	0.817147
H127	H	0.824698	-0.892724	0.643772
H128	H	0.610821	-0.841602	0.531966
H129	H	0.374928	-0.311078	0.000163
H130	H	-0.040145	-0.347200	0.000195
H131	H	-0.032505	-0.634998	0.000185
H132	H	-0.028022	-0.804290	0.000142
