data_functionalizedCrystal
_audit_creation_method	'MofGen! by Chris Wilmer'
_symmetry_space_group_name_H-M	'P1'
_symmetry_Int_Tables_number	1
_symmetry_cell_setting	triclinic
loop_
_symmetry_equiv_pos_as_xyz
  x,y,z
_cell_length_a	16.959455
_cell_length_b	16.120484
_cell_length_c	16.959447
_cell_angle_alpha	87.133462
_cell_angle_beta	90.016723
_cell_angle_gamma	92.924574
loop_
_atom_site_label
_atom_site_type_symbol
_atom_site_fract_x
_atom_site_fract_y
_atom_site_fract_z
Zn1	Zn	1.192396	-0.331913	0.462899
Zn2	Zn	1.185602	-0.471342	0.337416
Zn3	Zn	1.060223	-0.331944	0.330732
Zn4	Zn	1.053476	-0.471284	0.469547
O5	O	1.122924	-0.401621	0.400149
O6	O	1.302105	-0.350420	0.446269
O7	O	1.168951	-0.452888	0.225920
O8	O	1.083423	-0.215275	0.342685
O9	O	1.297114	-0.452857	0.354077
O10	O	1.180530	-0.215252	0.439788
O11	O	1.076835	-0.350473	0.221010
O12	O	0.948718	-0.350417	0.349131
O13	O	1.071923	-0.452760	0.579274
O14	O	0.943761	-0.452790	0.451117
O15	O	1.173987	-0.350364	0.574390
O16	O	1.162409	-0.588000	0.360523
O17	O	1.065336	-0.587958	0.457598
C18	C	0.917559	-0.401601	0.400121
C19	C	0.829702	-0.401613	0.400129
C20	C	0.790989	-0.348236	0.347107
C21	C	0.785861	-0.454996	0.453163
C22	C	0.703315	-0.455005	0.453175
C23	C	0.664602	-0.401628	0.400153
C24	C	0.708435	-0.348242	0.347119
C25	C	0.659475	-0.508385	0.506214
C26	C	0.576924	-0.508396	0.506228
C27	C	0.538209	-0.455022	0.453202
C28	C	0.582048	-0.401635	0.400165
C29	C	0.543335	-0.348258	0.347143
C30	C	0.587172	-0.294874	0.294101
C31	C	0.669721	-0.294869	0.294092
C32	C	0.455661	-0.455027	0.453211
C33	C	0.460781	-0.348264	0.347155
C34	C	1.112424	-0.618229	0.410524
C35	C	1.108005	-0.710894	0.414990
C36	C	1.099940	-0.880556	0.423158
C37	C	1.146050	-0.921846	0.377152
C38	C	1.141563	-1.016251	0.381697
C39	C	1.104426	-0.786142	0.418614
C40	C	1.329092	-0.401642	0.400177
C41	C	1.416948	-0.401650	0.400189
C42	C	1.122961	-0.401552	0.606314
C43	C	1.122976	-0.401523	0.694169
C44	C	1.133487	-0.184168	0.389749
C45	C	1.137988	-0.091502	0.385318
C46	C	1.122937	-0.401630	0.194783
C47	C	1.123086	-0.401424	0.106917
C48	C	1.069935	-0.454747	1.068186
C49	C	1.176215	-0.348122	1.063095
C50	C	1.176193	-0.348140	0.980550
C51	C	1.123042	-0.401463	0.941819
C52	C	1.069913	-0.454768	0.985633
C53	C	1.229326	-0.294842	0.936730
C54	C	1.229307	-0.294858	0.854180
C55	C	1.176152	-0.348177	0.815447
C56	C	1.123020	-0.401484	0.859266
C57	C	1.069869	-0.454807	0.820535
C58	C	1.016732	-0.508110	0.864353
C59	C	1.016757	-0.508088	0.946900
C60	C	1.176127	-0.348200	0.732900
C61	C	1.069847	-0.454828	0.737983
H62	H	0.555641	-0.251411	0.250934
N63	N	1.286655	-0.237337	0.978501
H64	H	1.278602	-0.245410	1.037443
H65	H	1.277244	-0.177797	0.961228
H66	H	1.188895	-0.886295	0.334350
H67	H	0.973460	-0.551529	0.832808
N68	N	1.012513	-0.512346	0.696222
H69	H	1.042745	-0.550998	0.663821
H70	H	0.977532	-0.478413	0.660396
N71	N	0.959436	-0.565559	0.994158
H72	H	0.967514	-0.557450	1.052328
H73	H	0.968826	-0.625111	0.982581
N74	N	1.043186	-0.927637	0.479849
H75	H	1.047987	-0.989380	0.475095
H76	H	0.987447	-0.912533	0.466773
H77	H	1.272574	-0.251454	0.818510
H78	H	0.429267	-0.304799	0.303976
H79	H	1.026670	-0.498143	1.103865
H80	H	1.219492	-0.304714	1.094635
N81	N	1.233436	-0.290723	0.685639
H82	H	1.267113	-0.256944	0.722701
H83	H	1.203129	-0.252142	0.649547
H84	H	0.826685	-0.304774	0.303920
N85	N	0.717000	-0.237293	0.236889
H86	H	0.775168	-0.245386	0.244932
H87	H	0.705456	-0.177768	0.246432
H88	H	0.817386	-0.498449	0.496334
N89	N	0.701228	-0.565957	0.563393
H90	H	0.737140	-0.532122	0.598443
H91	H	0.733543	-0.604535	0.532990
N92	N	0.529645	-0.565979	0.563425
H93	H	0.566697	-0.599794	0.597009
H94	H	0.493523	-0.604522	0.533034
N95	N	0.408379	-0.512592	0.510417
H96	H	0.445430	-0.546401	0.544007
H97	H	0.372250	-0.551141	0.480038
