data_functionalizedCrystal
_audit_creation_method	'MofGen! by Chris Wilmer'
_symmetry_space_group_name_H-M	'P1'
_symmetry_Int_Tables_number	1
_symmetry_cell_setting	triclinic
loop_
_symmetry_equiv_pos_as_xyz
  x,y,z
_cell_length_a	10.723023
_cell_length_b	8.559649
_cell_length_c	7.088929
_cell_angle_alpha	95.344185
_cell_angle_beta	96.263548
_cell_angle_gamma	102.876894
loop_
_atom_site_label
_atom_site_type_symbol
_atom_site_fract_x
_atom_site_fract_y
_atom_site_fract_z
O1	O	1.619872	-0.240132	-0.158959
O2	O	1.254521	-0.261562	-0.158966
O3	O	1.469384	-0.018598	-0.158960
O4	O	1.405009	-0.483097	-0.158965
O5	O	1.498106	0.013946	0.159016
O6	O	1.283243	-0.229019	0.159010
O7	O	1.648593	-0.207588	0.159017
Cu8	Cu	1.468540	-0.215332	0.188048
Cu9	Cu	1.434574	-0.253819	-0.187996
O10	O	1.433730	-0.450553	0.159011
C11	C	1.222542	-0.243731	0.000021
C12	C	1.084466	-0.239067	0.000018
C13	C	0.865327	-0.249024	-0.164703
C14	C	1.008036	-0.253846	-0.164704
C15	C	1.488623	0.057150	0.000025
C16	C	1.503144	0.234370	0.000015
C17	C	1.680572	-0.225419	0.000026
C18	C	1.818647	-0.230085	0.000017
C19	C	1.414491	-0.526301	0.000022
C20	C	1.399969	-0.703522	0.000020
N21	N	1.492440	-0.188261	0.452536
N22	N	1.410686	-0.280877	-0.452485
H23	H	1.300527	0.214071	0.000024
H24	H	0.884335	-0.217434	0.141038
H25	H	1.602594	0.316788	0.000032
H26	H	1.577181	-0.092290	0.534195
C27	C	0.777625	-0.266209	-0.352691
C28	C	0.675077	-0.401819	-0.362686
C29	C	0.594271	-0.417714	-0.535847
H30	H	0.744647	-0.172432	-0.359981
H31	H	0.825352	-0.278809	-0.456095
H32	H	0.627357	-0.389208	-0.259311
H33	H	0.708017	-0.495620	-0.355429
H34	H	0.641999	-0.430314	-0.639251
H35	H	0.561303	-0.323931	-0.543121
H36	H	0.524690	-0.509734	-0.542659
C37	C	1.061750	-0.275719	-0.352612
C38	C	1.108190	-0.416321	-0.362571
C39	C	1.157698	-0.436513	-0.535638
H40	H	0.995399	-0.284469	-0.456117
H41	H	1.130206	-0.185292	-0.359732
H42	H	1.039742	-0.506726	-0.355470
H43	H	1.174554	-0.407605	-0.259107
H44	H	1.226154	-0.346085	-0.542758
H45	H	1.091340	-0.445256	-0.639129
H46	H	1.189224	-0.531903	-0.542411
H47	H	1.044272	-0.222853	0.141048
H48	H	1.325958	-0.376853	0.465867
