data_functionalizedCrystal
_audit_creation_method	'MofGen! by Chris Wilmer'
_symmetry_space_group_name_H-M	'P1'
_symmetry_Int_Tables_number	1
_symmetry_cell_setting	triclinic
loop_
_symmetry_equiv_pos_as_xyz
  x,y,z
_cell_length_a	17.038278
_cell_length_b	17.019294
_cell_length_c	12.996460
_cell_angle_alpha	86.114884
_cell_angle_beta	89.994454
_cell_angle_gamma	87.243447
loop_
_atom_site_label
_atom_site_type_symbol
_atom_site_fract_x
_atom_site_fract_y
_atom_site_fract_z
O1	O	1.037222	0.171279	-0.100748
O2	O	1.370555	0.504612	0.232585
O3	O	1.703888	0.837946	0.565918
O4	O	0.809593	0.168561	-0.100508
O5	O	1.142927	0.501895	0.232826
O6	O	1.476260	0.835228	0.566159
O7	O	0.929757	0.055513	-0.090486
O8	O	1.263091	0.388846	0.242847
O9	O	1.596424	0.722180	0.576181
O10	O	0.917058	0.284327	-0.110770
O11	O	1.250391	0.617660	0.222563
O12	O	1.583724	0.950994	0.555897
O13	O	0.929745	0.055506	0.080648
O14	O	1.263078	0.388839	0.413982
O15	O	1.596412	0.722172	0.747315
O16	O	0.809581	0.168554	0.070627
O17	O	1.142914	0.501887	0.403960
O18	O	1.476247	0.835220	0.737293
O19	O	1.037209	0.171271	0.070386
O20	O	1.370543	0.504605	0.403720
O21	O	1.703876	0.837938	0.737053
Cu22	Cu	0.923394	0.169912	0.086132
Cu23	Cu	1.256727	0.503245	0.419466
Cu24	Cu	1.590061	0.836579	0.752799
Cu25	Cu	0.923409	0.169921	-0.116254
Cu26	Cu	1.256742	0.503254	0.217079
Cu27	Cu	1.590075	0.836587	0.550413
O28	O	0.917045	0.284319	0.060365
O29	O	1.250378	0.617653	0.393698
O30	O	1.583712	0.950986	0.727031
C31	C	0.780461	0.166084	-0.014721
C32	C	1.113794	0.499417	0.318612
C33	C	1.447128	0.832751	0.651945
C34	C	0.693674	0.158704	-0.014068
C35	C	1.027008	0.492038	0.319266
C36	C	1.360341	0.825371	0.652599
C37	C	0.203301	0.113368	-0.010053
C38	C	0.536635	0.446701	0.323281
C39	C	0.869968	0.780035	0.656614
C40	C	0.284846	0.120308	-0.010662
C41	C	0.618179	0.453641	0.322672
C42	C	0.951512	0.786975	0.656005
C43	C	0.316215	0.195009	-0.017288
C44	C	0.649549	0.528342	0.316045
C45	C	0.982882	0.861676	0.649378
C46	C	0.266036	0.262774	-0.023296
C47	C	0.599369	0.596107	0.310037
C48	C	0.932703	0.929441	0.643371
C49	C	0.184493	0.255833	-0.022680
C50	C	0.517826	0.589167	0.310654
C51	C	0.851160	0.922500	0.643987
C52	C	0.561952	0.219529	-0.019459
C53	C	0.895285	0.552862	0.313874
C54	C	1.228619	0.886195	0.647208
C55	C	0.643501	0.226464	-0.020078
C56	C	0.976834	0.559798	0.313255
C57	C	1.310168	0.893131	0.646589
C58	C	0.662305	0.083998	-0.007442
C59	C	0.995639	0.417331	0.325892
C60	C	1.328972	0.750664	0.659225
C61	C	0.580760	0.077064	-0.006832
C62	C	0.914093	0.410397	0.326501
C63	C	1.247427	0.743730	0.659835
C64	C	0.530588	0.144829	-0.012834
C65	C	0.863921	0.478162	0.320499
C66	C	1.197254	0.811495	0.653833
C67	C	0.399567	0.202104	-0.017914
C68	C	0.732900	0.535438	0.315419
C69	C	1.066233	0.868771	0.648752
C70	C	0.447238	0.137733	-0.012201
C71	C	0.780571	0.471066	0.321132
C72	C	1.113905	0.804399	0.654466
C73	C	0.929269	0.026088	-0.002313
C74	C	1.262603	0.359421	0.331020
C75	C	1.595936	0.692755	0.664354
C76	C	0.927825	-0.061580	0.005452
C77	C	1.261158	0.271754	0.338785
C78	C	1.594491	0.605087	0.672119
C79	C	0.927154	-0.102757	-0.084185
C80	C	1.260488	0.230576	0.249149
C81	C	1.593821	0.563909	0.582482
C82	C	0.925792	-0.185130	-0.076885
C83	C	1.259125	0.148203	0.256448
C84	C	1.592459	0.481537	0.589781
C85	C	0.925105	-0.226324	0.020052
C86	C	1.258439	0.107010	0.353385
C87	C	1.591772	0.440343	0.686718
C88	C	0.925773	-0.185140	0.109695
C89	C	1.259106	0.148193	0.443028
C90	C	1.592440	0.481526	0.776362
C91	C	0.927130	-0.102769	0.102395
C92	C	1.260463	0.230565	0.435728
C93	C	1.593797	0.563898	0.769061
C94	C	0.921003	-0.475033	0.046761
C95	C	1.254336	-0.141699	0.380094
C96	C	1.587669	0.191634	0.713427
C97	C	0.919648	-0.557410	0.054054
C98	C	1.252981	-0.224077	0.387387
C99	C	1.586315	0.109257	0.720721
C100	C	0.919666	-0.557394	-0.132527
C101	C	1.252999	-0.224061	0.200806
C102	C	1.586332	0.109273	0.534139
C103	C	0.921027	-0.475021	-0.139819
C104	C	1.254361	-0.141688	0.193514
C105	C	1.587694	0.191645	0.526848
C106	C	0.921691	-0.433845	-0.050176
C107	C	1.255024	-0.100511	0.283158
C108	C	1.588357	0.232822	0.616491
C109	C	0.923715	-0.310522	0.027515
C110	C	1.257048	0.022811	0.360848
C111	C	1.590382	0.356145	0.694182
C112	C	0.923075	-0.349647	-0.057640
C113	C	1.256409	-0.016314	0.275694
C114	C	1.589742	0.317019	0.609027
C115	C	1.066342	0.173749	-0.015402
C116	C	1.399675	0.507082	0.317931
C117	C	1.733008	0.840415	0.651264
C118	C	1.153128	0.181128	-0.016063
C119	C	1.486462	0.514462	0.317270
C120	C	1.819795	0.847795	0.650604
C121	C	0.917533	0.313745	-0.027811
C122	C	1.250866	0.647078	0.305522
C123	C	1.584200	0.980411	0.638856
C124	C	0.918978	0.401412	-0.035583
C125	C	1.252311	0.734746	0.297751
C126	C	1.585645	1.068079	0.631084
N127	N	0.923389	0.169905	0.228480
N128	N	1.256723	0.503239	0.561813
N129	N	1.590056	0.836572	0.895147
N130	N	0.923420	0.169921	-0.258601
N131	N	1.256753	0.503255	0.074732
N132	N	1.590086	0.836588	0.408066
C133	C	0.923408	0.169921	0.648293
C134	C	1.256741	0.503255	0.981626
C135	C	1.590074	0.836588	1.314960
C136	C	0.923400	0.169920	0.531488
C137	C	1.256733	0.503253	0.864821
C138	C	1.590067	0.836586	1.198155
C139	C	0.923399	0.169914	0.438390
C140	C	1.256732	0.503247	0.771724
C141	C	1.590065	0.836581	1.105057
C142	C	0.923391	0.169911	0.321578
C143	C	1.256724	0.503244	0.654911
C144	C	1.590057	0.836578	0.988245
H145	H	0.521111	0.274708	-0.024352
H146	H	0.854444	0.608042	0.308982
H147	H	1.187777	0.941375	0.642315
O148	O	0.677336	0.307040	-0.027222
O149	O	1.010669	0.640374	0.306111
O150	O	1.344002	0.973707	0.639445
H151	H	0.714040	0.313600	0.041941
H152	H	1.047374	0.646933	0.375275
H153	H	1.380707	0.980267	0.708608
H154	H	0.927665	-0.069242	0.175387
H155	H	1.260998	0.264091	0.508720
H156	H	1.594331	0.597424	0.842053
H157	H	0.919124	-0.590929	-0.205510
H158	H	1.252457	-0.257596	0.127824
H159	H	1.585790	0.075738	0.461157
H160	H	0.919085	-0.590947	0.132996
H161	H	1.252418	-0.257614	0.466329
H162	H	1.585751	0.075719	0.799662
H163	H	0.291583	0.323597	-0.028685
H164	H	0.624917	0.656930	0.304648
H165	H	0.958250	0.990264	0.637981
O166	O	0.925030	-0.229544	-0.173564
O167	O	1.258363	0.103790	0.159769
O168	O	1.591697	0.437123	0.493103
H169	H	0.925731	-0.187060	-0.242196
H170	H	1.259064	0.146273	0.091137
H171	H	1.592397	0.479606	0.424471
O172	O	0.925031	-0.229563	0.214254
O173	O	1.258364	0.103771	0.547587
O174	O	1.591697	0.437104	0.880921
H175	H	0.978544	-0.217200	0.257892
H176	H	1.311877	0.116133	0.591225
H177	H	1.645211	0.449466	0.924558
O178	O	0.921752	-0.430589	-0.244372
O179	O	1.255085	-0.097256	0.088961
O180	O	1.588418	0.236078	0.422295
H181	H	0.921046	-0.473061	-0.305478
H182	H	1.254379	-0.139728	0.027855
H183	H	1.587713	0.193606	0.361189
O184	O	0.923812	-0.305224	-0.162193
O185	O	1.257145	0.028109	0.171140
O186	O	1.590479	0.361443	0.504473
H187	H	0.977692	-0.271155	-0.169672
H188	H	1.311026	0.062179	0.163661
H189	H	1.644359	0.395512	0.496994
H190	H	0.421693	0.076912	-0.006817
H191	H	0.755027	0.410245	0.326516
H192	H	1.088360	0.743578	0.659850
H193	H	0.921559	-0.441517	0.119755
H194	H	1.254892	-0.108184	0.453088
H195	H	1.588225	0.225149	0.786422
H196	H	0.927718	-0.069224	-0.163121
H197	H	1.261051	0.264110	0.170212
H198	H	1.594385	0.597443	0.503546
O199	O	0.338961	0.047223	-0.004183
O200	O	0.672295	0.380556	0.329150
O201	O	1.005628	0.713890	0.662484
H202	H	0.376549	0.046972	0.065598
H203	H	0.709883	0.380306	0.398931
H204	H	1.043216	0.713639	0.732264
O205	O	0.922997	-0.354962	0.132063
O206	O	1.256330	-0.021629	0.465396
O207	O	1.589664	0.311704	0.798730
H208	H	0.869126	-0.389045	0.139548
H209	H	1.202459	-0.055712	0.472881
H210	H	1.535792	0.277622	0.806214
H211	H	0.425117	0.262926	-0.023313
H212	H	0.758450	0.596260	0.310021
H213	H	1.091784	0.929593	0.643354
H214	H	0.177767	0.052539	-0.004663
H215	H	0.511100	0.385872	0.328670
H216	H	0.844434	0.719205	0.662004
O217	O	0.546923	-0.003505	0.000314
O218	O	0.880256	0.329828	0.333647
O219	O	1.213590	0.663161	0.666980
H220	H	0.510210	-0.010070	0.070642
H221	H	0.843543	0.323264	0.403975
H222	H	1.176876	0.656597	0.737309
O223	O	0.716421	0.010913	-0.000946
O224	O	1.049754	0.344246	0.332387
O225	O	1.383088	0.677580	0.665721
H226	H	0.754035	0.010664	-0.070668
H227	H	1.087369	0.343997	0.262665
H228	H	1.420702	0.677330	0.595999
O229	O	0.130372	0.328916	-0.029167
O230	O	0.463705	0.662249	0.304167
O231	O	0.797038	0.995583	0.637500
H232	H	0.165882	0.382027	-0.033888
H233	H	0.499216	0.715360	0.299445
H234	H	0.832549	1.048693	0.632779
