data_functionalizedCrystal
_audit_creation_method	'MofGen! by Chris Wilmer'
_symmetry_space_group_name_H-M	'P1'
_symmetry_Int_Tables_number	1
_symmetry_cell_setting	triclinic
loop_
_symmetry_equiv_pos_as_xyz
  x,y,z
_cell_length_a	14.971482
_cell_length_b	17.699092
_cell_length_c	14.048226
_cell_angle_alpha	89.995250
_cell_angle_beta	89.994098
_cell_angle_gamma	83.449488
loop_
_atom_site_label
_atom_site_type_symbol
_atom_site_fract_x
_atom_site_fract_y
_atom_site_fract_z
O1	O	1.186614	0.098619	-0.079145
O2	O	0.926173	0.110434	-0.079149
O3	O	1.063747	-0.005644	-0.079144
O4	O	1.049039	0.214697	-0.079149
O5	O	1.063731	-0.005651	0.079177
O6	O	0.926156	0.110427	0.079173
O7	O	1.186597	0.098613	0.079177
Zn8	Zn	1.056374	0.104519	0.104312
Zn9	Zn	1.056396	0.104528	-0.104284
O10	O	1.049022	0.214691	0.079172
C11	C	0.892842	0.109903	0.000011
C12	C	0.793550	0.108321	0.000010
C13	C	0.746899	0.107572	0.086312
C14	C	0.653605	0.106074	0.086313
C15	C	0.606964	0.105329	0.000011
C16	C	0.653622	0.106076	-0.086298
C17	C	0.746914	0.107569	-0.086298
C18	C	0.459170	0.102966	-0.086292
C19	C	0.365871	0.101474	-0.086292
C20	C	0.365861	0.101471	0.086319
C21	C	0.459154	0.102964	0.086319
C22	C	0.505805	0.103712	0.000010
C23	C	1.063211	-0.033846	0.000015
C24	C	1.061626	-0.117867	0.000010
C25	C	1.060892	-0.157333	-0.086292
C26	C	1.059398	-0.236280	-0.086293
C27	C	1.058643	-0.275760	0.000009
C28	C	1.059374	-0.236289	0.086318
C29	C	1.060862	-0.157343	0.086318
C30	C	1.053370	-0.554668	0.086319
C31	C	1.051884	-0.633620	0.086312
C32	C	1.051905	-0.633605	-0.086292
C33	C	1.053394	-0.554659	-0.086292
C34	C	1.054120	-0.515194	0.000017
C35	C	1.055739	-0.429591	0.000017
C36	C	1.057030	-0.361362	0.000010
C37	C	1.219928	0.099144	0.000015
C38	C	1.319220	0.100726	0.000010
C39	C	1.049559	0.242892	0.000011
C40	C	1.051144	0.326914	0.000009
N41	N	1.056366	0.104512	0.246672
N42	N	1.056411	0.104528	-0.246644
C43	C	1.117303	0.053134	0.296492
C44	C	1.117309	0.053134	0.396150
C45	C	1.056381	0.104515	0.445986
C46	C	0.995438	0.155896	0.396159
C47	C	0.995428	0.155892	0.296503
C48	C	0.995464	0.155901	0.603873
C49	C	0.995474	0.155906	0.703536
C50	C	1.117344	0.053143	0.703520
C51	C	1.117335	0.053139	0.603864
C52	C	1.056392	0.104521	0.554044
H53	H	0.497151	0.103575	-0.156574
H54	H	0.497126	0.103574	0.156594
H55	H	0.945806	0.197728	0.255940
H56	H	1.061512	-0.125194	-0.156569
C57	C	0.928446	0.212423	0.758352
C58	C	0.928456	0.212432	0.867970
C59	C	0.861427	0.268949	0.922784
C60	C	0.794387	0.325457	0.867981
C61	C	0.794374	0.325450	0.758358
C62	C	0.861404	0.268933	0.703543
H63	H	0.978086	0.170600	0.908544
H64	H	0.861436	0.268954	1.003935
H65	H	0.744767	0.367295	0.908558
H66	H	0.744745	0.367283	0.717784
H67	H	0.861395	0.268928	0.622392
H68	H	1.051267	-0.665762	0.156594
H69	H	1.053979	-0.522547	0.156596
H70	H	0.945825	0.197730	0.436741
H71	H	1.061447	-0.125209	0.156594
H72	H	0.327873	0.100862	0.156595
H73	H	0.945834	0.197739	0.563313
C74	C	1.058544	-0.279714	0.181252
C75	C	1.056912	-0.366553	0.181258
C76	C	1.056086	-0.409977	0.276195
C77	C	1.056891	-0.366563	0.371127
C78	C	1.058522	-0.279720	0.371125
C79	C	1.059348	-0.236296	0.276188
H80	H	1.056316	-0.398694	0.110981
H81	H	1.054878	-0.474264	0.276196
H82	H	1.056279	-0.398708	0.441405
H83	H	1.059118	-0.247578	0.441402
H84	H	1.060556	-0.172009	0.276187
H85	H	1.166950	0.011304	0.563288
H86	H	1.054013	-0.522519	-0.156567
H87	H	0.784866	0.108184	0.156589
H88	H	0.327898	0.100869	-0.156567
C89	C	1.184325	-0.003388	0.241678
C90	C	1.251351	-0.059906	0.296485
C91	C	1.318373	-0.116432	0.241674
C92	C	1.318371	-0.116440	0.132056
C93	C	1.251343	-0.059921	0.077243
C94	C	1.184320	-0.003394	0.132054
H95	H	1.251355	-0.059902	0.377636
H96	H	1.367992	-0.158272	0.282251
H97	H	1.367985	-0.158284	0.091482
H98	H	1.251339	-0.059925	-0.003907
H99	H	1.134702	0.038445	0.091478
H100	H	0.615628	0.105451	0.156588
H101	H	1.166928	0.011297	0.436713
H102	H	1.166965	0.011306	0.744089
H103	H	0.784896	0.108180	-0.156574
C104	C	0.602317	0.105257	-0.181231
C105	C	0.548481	0.038564	-0.204964
C106	C	0.497177	0.037748	-0.299899
C107	C	0.499710	0.103626	-0.371102
C108	C	0.553549	0.170325	-0.347372
C109	C	0.604852	0.171140	-0.252436
H110	H	0.546604	-0.010207	-0.152254
H111	H	0.457322	-0.011627	-0.317466
H112	H	0.461732	0.103023	-0.441379
H113	H	0.555426	0.219096	-0.400082
H114	H	0.644707	0.220515	-0.234870
H115	H	1.058804	-0.268409	-0.156569
H116	H	1.051309	-0.665747	-0.156568
