data_functionalizedCrystal
_audit_creation_method	'MofGen! by Chris Wilmer'
_symmetry_space_group_name_H-M	'P1'
_symmetry_Int_Tables_number	1
_symmetry_cell_setting	triclinic
loop_
_symmetry_equiv_pos_as_xyz
  x,y,z
_cell_length_a	27.732048
_cell_length_b	27.732048
_cell_length_c	26.210047
_cell_angle_alpha	90.000479
_cell_angle_beta	89.996535
_cell_angle_gamma	97.357345
loop_
_atom_site_label
_atom_site_type_symbol
_atom_site_fract_x
_atom_site_fract_y
_atom_site_fract_z
O1	O	0.640931	-0.057510	-0.042369
O2	O	0.500138	-0.066256	-0.042385
O3	O	0.574907	0.008514	-0.042367
O4	O	0.566162	-0.132279	-0.042387
O5	O	0.574893	0.008502	0.042491
O6	O	0.500123	-0.066267	0.042473
O7	O	0.640917	-0.057522	0.042489
Cu8	Cu	0.570519	-0.061896	0.050229
Cu9	Cu	0.570536	-0.061882	-0.050125
O10	O	0.566147	-0.132291	0.042471
C11	C	0.482124	-0.066078	0.000042
C12	C	0.428469	-0.065525	0.000036
C13	C	0.089654	-0.106229	0.000053
C14	C	-0.112006	-0.104178	0.000057
O15	O	-0.143262	-0.141398	0.000074
N16	N	-0.131130	-0.059843	0.000063
C17	C	-0.099835	-0.016017	0.000071
O18	O	-0.120728	0.021740	0.000081
C19	C	0.101824	-0.018068	0.000069
C20	C	0.120944	-0.062407	0.000059
C21	C	0.108775	-0.150563	0.000043
C22	C	0.159187	-0.151076	0.000039
C23	C	0.190477	-0.107253	0.000045
C24	C	0.171356	-0.062919	0.000055
C25	C	0.133117	0.025757	0.000081
C26	C	0.183535	0.025240	0.000082
C27	C	0.202655	-0.019098	0.000071
C28	C	0.253059	-0.019609	0.000057
N29	N	0.272183	-0.063944	0.000051
C30	C	0.240892	-0.107766	0.000045
C31	C	-0.205709	-0.014943	0.000070
C32	C	-0.256124	-0.014430	0.000070
C33	C	-0.268291	-0.102591	0.000057
C34	C	-0.217876	-0.103104	0.000054
C35	C	-0.186585	-0.059278	0.000065
C36	C	0.346761	-0.108839	0.000036
C37	C	0.397178	-0.109347	0.000030
C38	C	0.409341	-0.021186	0.000045
C39	C	0.358929	-0.020678	0.000049
C40	C	0.327639	-0.064508	0.000046
O41	O	0.284343	0.017592	0.000046
O42	O	0.261794	-0.145518	0.000047
C43	C	0.039242	-0.105716	0.000057
C44	C	0.020120	-0.061382	0.000067
C45	C	0.051411	-0.017560	0.000073
C46	C	-0.030294	-0.060869	0.000066
C47	C	-0.061585	-0.104691	0.000060
C48	C	-0.042461	-0.149026	0.000054
C49	C	0.007951	-0.149539	0.000050
C50	C	0.032287	0.026775	0.000078
C51	C	-0.018125	0.027284	0.000082
C52	C	-0.049416	-0.016538	0.000076
C53	C	0.574716	0.026515	0.000064
C54	C	0.574164	0.080170	0.000068
C55	C	0.658931	-0.057699	0.000061
C56	C	0.712586	-0.058252	0.000064
C57	C	0.566338	-0.150292	0.000040
C58	C	0.566891	-0.203947	0.000032
N59	N	0.570510	-0.061905	0.120813
C60	C	0.614867	0.418985	0.000046
C61	C	0.612816	0.620645	0.000039
O62	O	0.650037	0.651900	0.000021
N63	N	0.568481	0.639768	0.000034
C64	C	0.524656	0.608474	0.000028
O65	O	0.486899	0.629367	0.000019
C66	C	0.526707	0.406815	0.000032
C67	C	0.571045	0.387694	0.000042
C68	C	0.659202	0.399864	0.000056
C69	C	0.659714	0.349452	0.000060
C70	C	0.615892	0.318161	0.000056
C71	C	0.571557	0.337282	0.000046
C72	C	0.482882	0.375521	0.000022
C73	C	0.483399	0.325104	0.000022
C74	C	0.527737	0.305983	0.000032
C75	C	0.528247	0.255580	0.000046
N76	N	0.572583	0.236456	0.000051
C77	C	0.616405	0.267747	0.000056
C78	C	0.523582	0.714348	0.000027
C79	C	0.523069	0.764762	0.000027
C80	C	0.611230	0.776930	0.000037
C81	C	0.611742	0.726514	0.000041
C82	C	0.567917	0.695224	0.000032
C83	C	0.617477	0.161878	0.000066
C84	C	0.617986	0.111461	0.000073
C85	C	0.529825	0.099298	0.000060
C86	C	0.529316	0.149710	0.000056
C87	C	0.573147	0.180999	0.000057
O88	O	0.491047	0.224296	0.000059
O89	O	0.654156	0.246844	0.000054
C90	C	0.614355	0.469397	0.000042
C91	C	0.570021	0.488518	0.000033
C92	C	0.526198	0.457228	0.000028
C93	C	0.569508	0.538933	0.000033
C94	C	0.613330	0.570223	0.000037
C95	C	0.657665	0.551100	0.000042
C96	C	0.658177	0.500688	0.000046
C97	C	0.481863	0.476351	0.000023
C98	C	0.481355	0.526764	0.000019
C99	C	0.525177	0.558054	0.000024
N100	N	0.570548	-0.061868	-0.120709
C101	C	0.603640	-0.028781	0.473336
C102	C	0.603651	-0.028774	0.686994
O103	O	0.631801	-0.000614	0.714623
N104	N	0.570538	-0.061871	0.713707
C105	C	0.537419	-0.094970	0.687003
O106	O	0.509251	-0.123117	0.714626
C107	C	0.537406	-0.094974	0.473345
C108	C	0.570524	-0.061878	0.446635
C109	C	0.636755	0.004312	0.446625
C110	C	0.636754	0.004308	0.393214
C111	C	0.603638	-0.028789	0.366513
C112	C	0.570523	-0.061882	0.393223
C113	C	0.504284	-0.128070	0.446641
C114	C	0.504283	-0.128067	0.393223
C115	C	0.537401	-0.094971	0.366513
C116	C	0.537405	-0.094983	0.313111
N117	N	0.570518	-0.061886	0.286397
C118	C	0.603634	-0.028789	0.313098
C119	C	0.537428	-0.094966	0.799176
C120	C	0.537432	-0.094965	0.852590
C121	C	0.603664	-0.028769	0.852578
C122	C	0.603662	-0.028773	0.799163
C123	C	0.570541	-0.061869	0.772463
C124	C	0.603629	-0.028800	0.200931
C125	C	0.603626	-0.028808	0.147514
C126	C	0.537393	-0.095002	0.147531
C127	C	0.537397	-0.094996	0.200943
C128	C	0.570517	-0.061891	0.227641
O129	O	0.509267	-0.123125	0.285449
O130	O	0.631790	-0.000639	0.285466
C131	C	0.603641	-0.028777	0.526747
C132	C	0.570527	-0.061871	0.553457
C133	C	0.537410	-0.094968	0.526756
C134	C	0.570530	-0.061870	0.606872
C135	C	0.603646	-0.028773	0.633573
C136	C	0.636759	0.004323	0.606859
C137	C	0.636758	0.004320	0.553448
C138	C	0.504298	-0.128064	0.553470
C139	C	0.504302	-0.128058	0.606881
C140	C	0.537418	-0.094961	0.633582
H141	H	-0.271687	0.021674	0.000070
H142	H	-0.180236	0.020747	0.000079
H143	H	0.023514	-0.185643	0.000042
N144	N	0.338302	0.027142	0.000051
H145	H	0.365776	0.054825	0.000051
H146	H	0.317651	0.029272	0.031512
H147	H	-0.033688	0.063392	0.000086
N148	N	0.672480	0.040019	0.635664
H149	H	0.667452	0.034995	0.673553
H150	H	0.667154	0.074274	0.626329
N151	N	0.434593	0.442610	0.000023
H152	H	0.432834	0.421425	0.031483
H153	H	0.432867	0.421449	-0.031452
H154	H	0.117558	0.061861	0.000090
H155	H	0.494146	0.073812	0.000058
N156	N	0.501709	-0.130669	0.770378
H157	H	0.480441	-0.112348	0.748220
H158	H	0.480769	-0.151626	0.795440
H159	H	0.486964	0.780325	0.000028
N160	N	0.476308	0.680606	0.000024
H161	H	0.474548	0.659417	0.031481
H162	H	0.474582	0.659449	-0.031454
N163	N	0.468576	-0.163753	0.635687
H164	H	0.486878	-0.185034	0.657851
H165	H	0.447607	-0.184684	0.610629
N166	N	0.704932	0.584852	0.000043
H167	H	0.724290	0.578744	0.031503
H168	H	0.697836	0.619675	0.000020
N169	N	0.664748	0.195624	0.000071
H170	H	0.684116	0.189507	-0.031381
H171	H	0.684060	0.189492	0.031553
N172	N	0.468575	-0.163761	0.524675
H173	H	0.447601	-0.184724	0.549707
H174	H	0.486916	-0.185008	0.502513
H175	H	0.321291	-0.144530	0.000036
H176	H	-0.067947	-0.184708	0.000047
N177	N	0.179806	-0.198897	0.000024
H178	H	0.152328	-0.226577	0.000021
H179	H	0.200457	-0.201040	0.031481
N180	N	0.706470	0.433610	0.000068
H181	H	0.708237	0.454801	-0.031387
H182	H	0.734602	0.413806	0.000094
N183	N	0.417801	-0.157171	0.000014
H184	H	0.390325	-0.184853	0.000011
H185	H	0.438454	-0.159311	0.031468
N186	N	0.075019	-0.197826	0.000036
H187	H	0.053830	-0.199580	0.031494
H188	H	0.094813	-0.225965	0.000013
H189	H	0.630597	-0.001858	0.125768
N190	N	0.066033	0.074043	0.000089
H191	H	0.046264	0.102203	0.000094
H192	H	0.087216	0.075758	-0.031370
N193	N	0.436129	0.291355	0.000010
H194	H	0.407967	0.311122	0.000003
H195	H	0.434412	0.270174	0.031469
H196	H	-0.202311	-0.139207	0.000049
N197	N	0.672470	0.040007	0.364407
H198	H	0.706734	0.034677	0.373703
H199	H	0.667116	0.074259	0.373719
N200	N	0.665809	0.090838	0.000086
H201	H	0.693491	0.118313	0.000087
H202	H	0.667950	0.070183	-0.031369
N203	N	-0.302045	-0.149857	0.000050
H204	H	-0.336882	-0.142800	0.000051
H205	H	-0.295894	-0.169198	0.031507
N206	N	0.481496	0.170337	0.000053
H207	H	0.453813	0.142863	0.000052
H208	H	0.479369	0.190984	-0.031410
N209	N	0.217283	0.072510	0.000096
H210	H	0.197517	0.100672	0.000104
H211	H	0.238467	0.074226	-0.031362
N212	N	0.443093	0.026078	0.000055
H213	H	0.464285	0.027836	-0.031401
H214	H	0.464246	0.027791	0.031534
N215	N	0.707536	0.328832	0.000069
H216	H	0.735215	0.356310	0.000070
H217	H	0.709677	0.308181	-0.031388
H218	H	0.445246	0.542327	0.000016
N219	N	0.639353	0.006902	0.229722
H220	H	0.660330	0.027862	0.204690
H221	H	0.660584	-0.011459	0.251880
N222	N	0.672485	0.040006	0.475417
H223	H	0.667184	0.074278	0.466120
H224	H	0.706725	0.034619	0.466093
H225	H	0.446777	0.391080	0.000011
N226	N	0.705998	0.480067	0.000051
H227	H	0.708175	0.459423	0.031509
H228	H	0.733650	0.507570	0.000033
N229	N	0.639381	0.006923	0.770356
H230	H	0.660360	0.027887	0.795381
H231	H	0.621038	0.028168	0.748198
H232	H	0.647846	0.710950	0.000048
H233	H	0.630629	-0.001821	0.874327
N234	N	0.501715	-0.130664	0.881396
H235	H	0.480735	-0.151627	0.856371
H236	H	0.480487	-0.112301	0.903558
N237	N	0.672475	0.040023	0.524649
H238	H	0.654165	0.061301	0.502490
H239	H	0.693734	0.021670	0.502514
N240	N	0.468556	-0.163758	0.475442
H241	H	0.447576	-0.184717	0.450414
H242	H	0.447330	-0.145389	0.497599
H243	H	0.477311	-0.155018	0.371487
H244	H	0.510432	-0.121951	0.125783
N245	N	0.501686	-0.130693	0.229760
H246	H	0.506996	-0.164964	0.220469
H247	H	0.467437	-0.125323	0.220456
N248	N	0.658494	0.810686	0.000043
H249	H	0.660245	0.831873	-0.031415
H250	H	0.686635	0.790894	0.000063
