data_functionalizedCrystal
_audit_creation_method	'MofGen! by Chris Wilmer'
_symmetry_space_group_name_H-M	'P1'
_symmetry_Int_Tables_number	1
_symmetry_cell_setting	triclinic
loop_
_symmetry_equiv_pos_as_xyz
  x,y,z
_cell_length_a	10.967874
_cell_length_b	15.995350
_cell_length_c	10.065875
_cell_angle_alpha	98.791555
_cell_angle_beta	69.229500
_cell_angle_gamma	84.114732
loop_
_atom_site_label
_atom_site_type_symbol
_atom_site_fract_x
_atom_site_fract_y
_atom_site_fract_z
O1	O	1.739793	0.061245	-0.522659
O2	O	1.362207	0.082032	-0.433859
O3	O	1.561321	-0.050453	-0.480685
O4	O	1.540679	0.193730	-0.475833
O5	O	1.523353	-0.025091	-0.244767
O6	O	1.324239	0.107394	-0.197941
O7	O	1.701825	0.086606	-0.286741
Zn8	Zn	1.507003	0.101027	-0.204884
Zn9	Zn	1.557028	0.067612	-0.515716
O10	O	1.502710	0.219091	-0.239915
C11	C	1.294905	0.095117	-0.304537
C12	C	1.150933	0.096309	-0.270678
C13	C	1.106415	0.083703	-0.377795
C14	C	0.957613	0.084936	-0.342803
C15	C	1.541484	-0.068950	-0.362528
C16	C	1.538927	-0.161851	-0.361935
C17	C	1.529738	-0.499417	-0.359769
C18	C	1.388017	-0.449238	-0.326948
C19	C	1.390491	-0.352541	-0.327018
C20	C	1.534296	-0.331946	-0.360844
C21	C	1.582558	-0.359923	-0.242575
C22	C	1.578978	-0.456477	-0.241624
C23	C	1.625084	-0.485733	-0.510596
C24	C	1.625337	-0.388979	-0.512369
C25	C	1.536879	-0.237300	-0.361448
C26	C	1.527158	-0.594063	-0.359156
C27	C	1.769127	0.073521	-0.416067
C28	C	1.913101	0.072328	-0.449935
C29	C	1.522548	0.237588	-0.358075
C30	C	1.525107	0.330488	-0.358678
N31	N	1.472872	0.123831	0.007248
N32	N	1.591170	0.044801	-0.727851
C33	C	1.545145	0.075541	0.058030
C34	C	1.518887	0.093098	0.221373
H35	H	1.351053	-0.333414	-0.410659
C36	C	1.053589	0.112245	-0.111785
H37	H	0.966338	0.111030	-0.109109
H38	H	1.057382	0.166758	-0.061931
H39	H	1.076978	0.068798	-0.066291
H40	H	1.346887	-0.477035	-0.410227
H41	H	1.626456	0.021197	-0.019416
H42	H	0.885567	0.096646	-0.225182
C43	C	1.409032	0.166513	0.325985
H44	H	1.405801	0.168686	0.422044
H45	H	1.326291	0.156669	0.322112
H46	H	1.427251	0.219482	0.298347
H47	H	1.672486	-0.009546	0.194705
H48	H	0.985143	0.060627	-0.567556
C49	C	1.290900	-0.460236	-0.179233
H50	H	1.336348	-0.495274	-0.137473
H51	H	1.221229	-0.486636	-0.192646
H52	H	1.255229	-0.405579	-0.116434
C53	C	1.294705	-0.299367	-0.178747
H54	H	1.254137	-0.336848	-0.118230
H55	H	1.228564	-0.262222	-0.192086
H56	H	1.342334	-0.266236	-0.134431
H57	H	1.511767	-0.462944	-0.128922
C58	C	1.718282	-0.501934	-0.266420
H59	H	1.776807	-0.461363	-0.277017
H60	H	1.749247	-0.545538	-0.351861
H61	H	1.714731	-0.526930	-0.185648
H62	H	1.595154	-0.516334	-0.601801
H63	H	1.391552	0.178169	0.084699
C64	C	1.203736	0.067887	-0.536682
H65	H	1.290982	0.069127	-0.539357
H66	H	1.180251	0.111375	-0.582037
H67	H	1.200027	0.013387	-0.586673
H68	H	1.687402	-0.347347	-0.262416
C69	C	1.495126	-0.305741	-0.091698
H70	H	1.429176	-0.266049	-0.100495
H71	H	1.548290	-0.275366	-0.051754
H72	H	1.453945	-0.342387	-0.029768
C73	C	1.578026	-0.365209	-0.630787
H74	H	1.503110	-0.320712	-0.588079
H75	H	1.554684	-0.414167	-0.676193
H76	H	1.647099	-0.346064	-0.701134
H77	H	1.731515	-0.376564	-0.545170
C78	C	1.766519	-0.531569	-0.545056
H79	H	1.767519	-0.558923	-0.467964
H80	H	1.824636	-0.490747	-0.555882
H81	H	1.794642	-0.573332	-0.632568
