data_functionalizedCrystal
_audit_creation_method	'MofGen! by Chris Wilmer'
_symmetry_space_group_name_H-M	'P1'
_symmetry_Int_Tables_number	1
_symmetry_cell_setting	triclinic
loop_
_symmetry_equiv_pos_as_xyz
  x,y,z
_cell_length_a	12.645331
_cell_length_b	12.645330
_cell_length_c	12.759393
_cell_angle_alpha	90.032183
_cell_angle_beta	90.022025
_cell_angle_gamma	90.012860
loop_
_atom_site_label
_atom_site_type_symbol
_atom_site_fract_x
_atom_site_fract_y
_atom_site_fract_z
Zn1	Zn	1.620760	-0.421971	0.594076
Zn2	Zn	2.120760	0.078029	1.094076
Zn3	Zn	1.620660	-0.599275	0.418394
Zn4	Zn	2.120660	-0.099275	0.918394
Zn5	Zn	1.443477	-0.422026	0.418404
Zn6	Zn	1.943477	0.077974	0.918404
Zn7	Zn	1.443472	-0.599193	0.594025
Zn8	Zn	1.943472	-0.099193	1.094025
O9	O	1.532092	-0.510616	0.506225
O10	O	2.032092	-0.010616	1.006225
O11	O	1.769094	-0.445501	0.570788
O12	O	2.269094	0.054499	1.070788
O13	O	1.597116	-0.575820	0.271374
O14	O	2.097116	-0.075820	0.771374
O15	O	1.467038	-0.273672	0.441733
O16	O	1.967038	0.226328	0.941733
O17	O	1.769020	-0.575766	0.441716
O18	O	2.269020	-0.075766	0.941716
O19	O	1.597287	-0.273631	0.570798
O20	O	2.097287	0.226369	1.070798
O21	O	1.466941	-0.445596	0.271382
O22	O	1.966941	0.054404	0.771382
O23	O	1.295129	-0.445517	0.441684
O24	O	1.795129	0.054483	0.941684
O25	O	1.467029	-0.575627	0.741053
O26	O	1.967029	-0.075627	1.241053
O27	O	1.295125	-0.575681	0.570711
O28	O	1.795125	-0.075681	1.070711
O29	O	1.597282	-0.445422	0.741090
O30	O	2.097282	0.054578	1.241090
O31	O	1.597111	-0.747611	0.441666
O32	O	2.097111	-0.247611	0.941666
O33	O	1.466932	-0.747551	0.570701
O34	O	1.966932	-0.247551	1.070701
C35	C	1.256663	-0.510597	0.506194
C36	C	1.756663	-0.010597	1.006194
C37	C	1.138833	-0.510614	0.506205
C38	C	1.638833	-0.010614	1.006205
C39	C	1.093917	-0.428601	0.425166
C40	C	1.593917	0.071399	0.925166
C41	C	0.971358	-0.428298	0.425444
C42	C	1.471358	0.071702	0.925444
C43	C	0.970999	-0.480812	0.617114
C44	C	1.470999	0.019188	1.117114
C45	C	1.093597	-0.480199	0.616607
C46	C	1.593597	0.019801	1.116607
C47	C	1.093628	-0.622675	0.477382
C48	C	1.593628	-0.122675	0.977382
C49	C	0.971020	-0.622090	0.474978
C50	C	1.471020	-0.122090	0.974978
C51	C	1.532039	-0.786046	0.506200
C52	C	2.032039	-0.286046	1.006200
C53	C	1.532113	-0.903876	0.506224
C54	C	2.032113	-0.403876	1.006224
C55	C	1.613878	-1.071434	0.424884
C56	C	2.113878	-0.571434	0.924884
C57	C	1.614144	-0.948873	0.425083
C58	C	2.114144	-0.448873	0.925083
C59	C	1.562412	-0.948248	0.616970
C60	C	2.062412	-0.448248	1.116970
C61	C	1.563061	-1.070846	0.616539
C62	C	2.063061	-0.570846	1.116539
C63	C	1.420019	-1.071206	0.477911
C64	C	1.920019	-0.571206	0.977911
C65	C	1.420556	-0.948602	0.475427
C66	C	1.920556	-0.448602	0.975427
C67	C	1.808597	-0.510636	0.506256
C68	C	2.308597	-0.010636	1.006256
C69	C	1.926428	-0.510645	0.506270
C70	C	2.426428	-0.010645	1.006270
C71	C	1.532166	-0.510509	0.780258
C72	C	2.032166	-0.010509	1.280258
C73	C	1.532198	-0.510464	0.897035
C74	C	2.032198	-0.010464	1.397035
C75	C	1.532174	-0.234111	0.506273
C76	C	2.032174	0.265889	1.006273
C77	C	1.532209	-0.116281	0.506293
C78	C	2.032209	0.383719	1.006293
C79	C	1.532079	-0.510646	0.233257
C80	C	2.032079	-0.010646	0.733257
C81	C	1.532253	-0.510393	0.116481
C82	C	2.032253	-0.010393	0.616481
C83	C	1.600030	-0.442660	0.951918
C84	C	2.100030	0.057340	1.451918
C85	C	1.600055	-0.442621	1.061642
C86	C	2.100055	0.057379	1.561642
C87	C	1.464414	-0.578200	1.061590
C88	C	1.964414	-0.078200	1.561590
C89	C	1.464384	-0.578232	0.951868
C90	C	1.964384	-0.078232	1.451868
C91	C	1.667844	-0.374891	0.897085
C92	C	2.167844	0.125109	1.397085
C93	C	1.735683	-0.307082	0.951968
C94	C	2.235683	0.192918	1.451968
C95	C	1.735708	-0.307044	1.061693
C96	C	2.235708	0.192956	1.561693
C97	C	1.667895	-0.374814	1.116533
C98	C	2.167895	0.125186	1.616533
H99	H	0.941217	-0.446912	0.343269
H100	H	1.441217	0.053088	0.843269
N101	N	1.724210	-0.909903	0.449950
N102	N	2.224210	-0.409903	0.949950
H103	H	1.772743	-0.972367	0.460832
H104	H	2.272743	-0.472367	0.960832
H105	H	1.722272	-0.865638	0.515831
H106	H	2.222272	-0.365638	1.015831
H107	H	1.790937	-0.251823	1.106376
H108	H	2.290937	0.248177	1.606376
N109	N	1.667917	-0.374780	1.234879
N110	N	2.167917	0.125220	1.734879
H111	H	1.595206	-0.355279	1.261301
H112	H	2.095206	0.144721	1.761301
H113	H	1.721222	-0.321549	1.261247
H114	H	2.221222	0.178451	1.761247
N115	N	1.134708	-0.319229	0.450213
N116	N	1.634708	0.180771	0.950213
H117	H	1.214492	-0.318987	0.446545
H118	H	1.714492	0.181013	0.946545
H119	H	1.111406	-0.298473	0.523076
H120	H	1.611406	0.201527	1.023076
H121	H	1.696528	-1.102162	0.443447
H122	H	2.196528	-0.602162	0.943447
N123	N	1.391226	-0.651370	0.892671
N124	N	1.891226	-0.151370	1.392671
H125	H	1.434281	-0.700511	0.847138
H126	H	1.934281	-0.200511	1.347138
H127	H	1.342115	-0.608221	0.847215
H128	H	1.842115	-0.108221	1.347215
H129	H	1.122672	-0.683773	0.536407
H130	H	1.622672	-0.183773	1.036407
H131	H	1.667834	-0.374917	0.807742
H132	H	2.167834	0.125083	1.307742
N133	N	1.391276	-0.651279	1.120749
N134	N	1.891276	-0.151279	1.620749
H135	H	1.434351	-0.700395	1.166268
H136	H	1.934351	-0.200395	1.666268
H137	H	1.348304	-0.694169	1.069272
H138	H	1.848304	-0.194169	1.569272
N139	N	1.132908	-0.452930	0.315949
N140	N	1.632908	0.047070	0.815949
H141	H	1.180066	-0.517350	0.317937
H142	H	1.680066	-0.017350	0.817937
H143	H	1.174202	-0.390534	0.288292
H144	H	1.674202	0.109466	0.788292
H145	H	0.942041	-0.345271	0.444586
H146	H	1.442041	0.154729	0.944586
H147	H	1.122208	-0.398300	0.640971
H148	H	1.622208	0.101700	1.140971
H149	H	1.359169	-1.100209	0.537204
H150	H	1.859169	-0.600209	1.037204
H151	H	1.790887	-0.251900	0.907310
H152	H	2.290887	0.248100	1.407310
H153	H	1.123316	-0.537361	0.679079
H154	H	1.623316	-0.037361	1.179079
H155	H	0.941903	-0.538729	0.679171
H156	H	1.441903	-0.038729	1.179171
N157	N	0.930355	-0.373534	0.649974
N158	N	1.430355	0.126466	1.149974
H159	H	0.883082	-0.344106	0.593230
H160	H	1.383082	0.155894	1.093230
H161	H	0.992052	-0.324151	0.661545
H162	H	1.492052	0.175849	1.161545
H163	H	1.504740	-0.919097	0.679252
H164	H	2.004740	-0.419097	1.179252
N165	N	1.487698	-1.110142	0.699628
N166	N	1.987698	-0.610142	1.199628
H167	H	1.527678	-1.154327	0.752321
H168	H	2.027678	-0.654327	1.252321
H169	H	1.430742	-1.154555	0.665776
H170	H	1.930742	-0.654555	1.165776
H171	H	1.124496	-0.649913	0.397899
H172	H	1.624496	-0.149913	0.897899
N173	N	0.932435	-0.651908	0.366921
N174	N	1.432435	-0.151908	0.866921
H175	H	0.886259	-0.593479	0.338349
H176	H	1.386259	-0.093479	0.838349
H177	H	0.890210	-0.719572	0.371158
H178	H	1.390210	-0.219572	0.871158
H179	H	0.940427	-0.686438	0.529666
H180	H	1.440427	-0.186438	1.029666
N181	N	1.589048	-0.909130	0.316311
N182	N	2.089048	-0.409130	0.816311
H183	H	1.577711	-0.971252	0.267802
H184	H	2.077711	-0.471252	0.767802
H185	H	1.649892	-0.864856	0.289805
H186	H	2.149892	-0.364856	0.789805
H187	H	1.595158	-1.100994	0.342527
H188	H	2.095158	-0.600994	0.842527
H189	H	1.645067	-1.099356	0.640580
H190	H	2.145067	-0.599356	1.140580
N191	N	1.669817	-0.907484	0.649349
N192	N	2.169817	-0.407484	1.149349
H193	H	1.699001	-0.860283	0.592451
H194	H	2.199001	-0.360283	1.092451
H195	H	1.719256	-0.969134	0.660746
H196	H	2.219256	-0.469134	1.160746
H197	H	1.392466	-1.102223	0.398561
H198	H	1.892466	-0.602223	0.898561
H199	H	1.397711	-0.919613	0.393927
H200	H	1.897711	-0.419613	0.893927
N201	N	1.335593	-0.908026	0.548186
N202	N	1.835593	-0.408026	1.048186
H203	H	1.368361	-0.859866	0.602390
H204	H	1.868361	-0.359866	1.102390
H205	H	1.300327	-0.969692	0.584328
H206	H	1.800327	-0.469692	1.084328
