data_functionalizedCrystal
_audit_creation_method	'MofGen! by Chris Wilmer'
_symmetry_space_group_name_H-M	'P1'
_symmetry_Int_Tables_number	1
_symmetry_cell_setting	triclinic
loop_
_symmetry_equiv_pos_as_xyz
  x,y,z
_cell_length_a	18.215407
_cell_length_b	10.686285
_cell_length_c	18.215399
_cell_angle_alpha	85.609148
_cell_angle_beta	89.980167
_cell_angle_gamma	85.632014
loop_
_atom_site_label
_atom_site_type_symbol
_atom_site_fract_x
_atom_site_fract_y
_atom_site_fract_z
Zn1	Zn	1.147639	-0.502344	-0.393704
Zn2	Zn	1.157027	-0.713359	-0.261223
Zn3	Zn	1.024574	-0.502385	-0.270649
Zn4	Zn	1.034014	-0.713289	-0.384251
O5	O	1.090813	-0.607844	-0.327457
O6	O	1.251869	-0.530347	-0.376141
O7	O	1.139435	-0.685420	-0.159487
O8	O	1.033019	-0.325804	-0.294874
O9	O	1.258767	-0.685380	-0.278808
O10	O	1.123434	-0.325774	-0.385281
O11	O	1.042122	-0.530418	-0.166413
O12	O	0.922841	-0.530350	-0.285708
O13	O	1.049109	-0.685260	-0.488492
O14	O	0.929777	-0.685300	-0.369171
O15	O	1.132588	-0.530279	-0.495436
O16	O	1.148589	-0.889925	-0.269642
O17	O	1.058212	-0.889873	-0.360030
C18	C	0.899606	-0.607823	-0.327437
C19	C	0.817808	-0.607844	-0.327444
C20	C	1.105463	-0.935683	-0.312804
C21	C	1.111798	-1.075934	-0.306560
C22	C	0.633251	-0.688653	-0.370839
C23	C	0.556392	-0.688657	-0.370848
C24	C	0.549129	-0.527058	-0.284090
C25	C	0.625986	-0.527049	-0.284086
C26	C	0.668045	-0.607853	-0.327459
C27	C	0.514330	-0.607867	-0.327472
C28	C	0.430996	-0.607870	-0.327482
C29	C	0.751384	-0.607848	-0.327450
C30	C	1.282767	-0.607867	-0.327478
C31	C	1.364567	-0.607876	-0.327486
C32	C	1.090854	-0.607757	-0.519414
C33	C	1.090872	-0.607720	-0.601214
C34	C	1.076126	-0.278725	-0.342183
C35	C	1.069867	-0.138474	-0.348459
C36	C	1.134353	-0.526946	-0.793029
C37	C	1.134360	-0.526909	-0.869890
C38	C	1.047434	-0.688299	-0.862646
C39	C	1.047423	-0.688328	-0.785788
C40	C	1.090887	-0.607654	-0.750981
C41	C	1.090905	-0.607588	-0.904700
C42	C	1.090912	-0.607548	-0.988036
C43	C	1.090879	-0.607691	-0.667640
C44	C	1.090811	-0.607840	-0.136251
C45	C	1.090920	-0.607521	-0.054467
H46	H	0.528066	-0.754451	-0.406173
O47	O	1.021160	-1.074415	-0.396880
C48	C	0.894159	-1.034045	-0.434303
C49	C	0.949238	-1.106656	-0.379405
H50	H	0.836000	-1.060105	-0.420203
H51	H	0.897476	-0.928548	-0.430871
H52	H	0.908238	-1.059793	-0.492517
H53	H	0.935195	-1.081014	-0.321166
H54	H	0.945910	-1.212135	-0.382901
O55	O	1.005285	-0.766916	-0.744961
C56	C	0.979112	-0.981554	-0.711854
C57	C	1.026895	-0.892709	-0.758116
H58	H	0.996555	-1.083274	-0.722484
H59	H	0.986577	-0.967820	-0.650929
H60	H	0.918784	-0.959322	-0.727939
H61	H	1.087240	-0.914885	-0.742094
H62	H	1.019367	-0.906458	-0.819029
H63	H	0.514875	-0.461271	-0.248777
H64	H	1.169742	-0.461252	-0.764692
H65	H	0.667493	-0.754447	-0.406158
O66	O	0.659906	-0.448598	-0.242010
C67	C	0.775095	-0.377026	-0.203524
C68	C	0.736775	-0.465912	-0.251217
H69	H	0.837251	-0.391012	-0.210939
H70	H	0.755497	-0.275281	-0.221091
H71	H	0.760902	-0.399044	-0.143186
H72	H	0.750950	-0.444007	-0.311567
H73	H	0.756376	-0.567630	-0.233588
O74	O	1.160414	-1.140252	-0.258140
C75	C	1.211239	-1.343372	-0.207532
C76	C	1.156151	-1.270691	-0.262393
H77	H	1.207800	-1.448845	-0.210941
H78	H	1.269424	-1.317505	-0.221682
H79	H	1.197238	-1.317561	-0.149313
H80	H	1.170085	-1.296463	-0.320632
H81	H	1.097982	-1.296565	-0.248180
H82	H	1.169754	-0.461187	-0.904122
H83	H	1.012048	-0.753984	-0.890995
