data_functionalizedCrystal
_audit_creation_method	'MofGen! by Chris Wilmer'
_symmetry_space_group_name_H-M	'P1'
_symmetry_Int_Tables_number	1
_symmetry_cell_setting	triclinic
loop_
_symmetry_equiv_pos_as_xyz
  x,y,z
_cell_length_a	18.101398
_cell_length_b	18.050589
_cell_length_c	18.101390
_cell_angle_alpha	89.971577
_cell_angle_beta	89.977223
_cell_angle_gamma	90.023488
loop_
_atom_site_label
_atom_site_type_symbol
_atom_site_fract_x
_atom_site_fract_y
_atom_site_fract_z
Zn1	Zn	1.132125	-0.295725	-0.418861
Zn2	Zn	1.132030	-0.419931	-0.295029
Zn3	Zn	1.008287	-0.295749	-0.295023
Zn4	Zn	1.008240	-0.419868	-0.418818
O5	O	1.070170	-0.357818	-0.356933
O6	O	1.235745	-0.312218	-0.402456
O7	O	1.115595	-0.403494	-0.191396
O8	O	1.024773	-0.191821	-0.311465
O9	O	1.235675	-0.403471	-0.311477
O10	O	1.115756	-0.191804	-0.402449
O11	O	1.024681	-0.312258	-0.191391
O12	O	0.904648	-0.312197	-0.311423
O13	O	1.024694	-0.403364	-0.522457
O14	O	0.904614	-0.403387	-0.402375
O15	O	1.115711	-0.312157	-0.522489
O16	O	1.115550	-0.523847	-0.311435
O17	O	1.024602	-0.523801	-0.402382
C18	C	0.877760	-0.357788	-0.356894
C19	C	0.795446	-0.357793	-0.356895
C20	C	0.496355	-0.357840	-0.356957
C21	C	0.527677	-0.300179	-0.300012
C22	C	0.613295	-0.300333	-0.299769
C23	C	0.644737	-0.357816	-0.356927
C24	C	0.613624	-0.436049	-0.335608
C25	C	0.527979	-0.435728	-0.335212
C26	C	0.527966	-0.337948	-0.435355
C27	C	0.613617	-0.336206	-0.434927
C28	C	0.728597	-0.357807	-0.356910
C29	C	0.412495	-0.357853	-0.356972
C30	C	1.070081	-0.550770	-0.356921
C31	C	1.070111	-0.633316	-0.356940
C32	C	1.020702	-0.832769	-0.406380
C33	C	1.002652	-0.882213	-0.338801
C34	C	1.070183	-0.784447	-0.356950
C35	C	1.088270	-0.882084	-0.424536
C36	C	1.070252	-0.930432	-0.356965
C37	C	1.052098	-0.832804	-0.289335
C38	C	1.137747	-0.832670	-0.375116
C39	C	1.119723	-0.882092	-0.307491
C40	C	1.070142	-0.700348	-0.356942
C41	C	1.070294	-1.014528	-0.356965
C42	C	1.263332	-0.357849	-0.356972
C43	C	1.345646	-0.357862	-0.356989
C44	C	1.070208	-0.357751	-0.550095
C45	C	1.070224	-0.357722	-0.632409
C46	C	1.070280	-0.164113	-0.356961
C47	C	1.070327	-0.081567	-0.356974
C48	C	1.070251	-0.357699	-0.783117
C49	C	1.127518	-0.300309	-0.814491
C50	C	1.127757	-0.300464	-0.900110
C51	C	1.070277	-0.357675	-0.931500
C52	C	1.091156	-0.436008	-0.900397
C53	C	1.091557	-0.435690	-0.814753
C54	C	0.991964	-0.337435	-0.814666
C55	C	0.992399	-0.335695	-0.900317
C56	C	1.070290	-0.357666	-1.015360
C57	C	1.070239	-0.357713	-0.699258
C58	C	1.070176	-0.357832	-0.164522
C59	C	1.070303	-0.357652	-0.082209
H60	H	0.634332	-0.242321	-0.313131
H61	H	1.036762	-0.811247	-0.232168
H62	H	1.114630	-0.242057	-0.793913
Br63	Br	0.920851	-0.407088	-0.780830
H64	H	1.161597	-0.903613	-0.265648
Br65	Br	0.907470	-0.918481	-0.313190
Br66	Br	1.224452	-0.322863	-0.934289
Br67	Br	0.647396	-0.322246	-0.202943
H68	H	0.978795	-0.811111	-0.448122
Br69	Br	0.649316	-0.464656	-0.241115
H70	H	0.507103	-0.241989	-0.313227
H71	H	1.051628	-0.479906	-0.793995
Br72	Br	0.917524	-0.400236	-0.935926
H73	H	1.147743	-0.453447	-0.921877
H74	H	1.148775	-0.452829	-0.794789
Br75	Br	0.492010	-0.244518	-0.467663
H76	H	0.506130	-0.313181	-0.242258
H77	H	1.194838	-0.810894	-0.390500
H78	H	1.050730	-0.479930	-0.920727
Br79	Br	0.960179	-0.243859	-0.778682
H80	H	0.976648	-0.278048	-0.920648
H81	H	1.103540	-0.903731	-0.481687
H82	H	1.185198	-0.313579	-0.792984
Br83	Br	0.494624	-0.463843	-0.239688
H84	H	0.507258	-0.480145	-0.374880
H85	H	1.114712	-0.242391	-0.921141
H86	H	0.633989	-0.480162	-0.375787
Br87	Br	0.649289	-0.401104	-0.509437
Br88	Br	0.494207	-0.407946	-0.506075
Br89	Br	0.647532	-0.240257	-0.461732
