data_functionalizedCrystal
_audit_creation_method	'MofGen! by Chris Wilmer'
_symmetry_space_group_name_H-M	'P1'
_symmetry_Int_Tables_number	1
_symmetry_cell_setting	triclinic
loop_
_symmetry_equiv_pos_as_xyz
  x,y,z
_cell_length_a	11.026607
_cell_length_b	14.519709
_cell_length_c	10.065875
_cell_angle_alpha	98.804604
_cell_angle_beta	79.302338
_cell_angle_gamma	96.133081
loop_
_atom_site_label
_atom_site_type_symbol
_atom_site_fract_x
_atom_site_fract_y
_atom_site_fract_z
O1	O	1.628737	0.375708	-0.113512
O2	O	1.962070	0.709042	0.219822
O3	O	2.295403	1.042375	0.553155
O4	O	1.275335	0.331718	-0.113511
O5	O	1.608668	0.665051	0.219822
O6	O	1.942002	0.998385	0.553155
O7	O	1.461404	0.221020	-0.113499
O8	O	1.794737	0.554353	0.219834
O9	O	2.128071	0.887686	0.553167
O10	O	1.442668	0.486407	-0.113524
O11	O	1.776001	0.819740	0.219810
O12	O	2.109335	1.153073	0.553143
O13	O	1.425923	0.242237	0.113487
O14	O	1.759257	0.575570	0.446821
O15	O	2.092590	0.908904	0.780154
O16	O	1.239855	0.352935	0.113475
O17	O	1.573188	0.686268	0.446808
O18	O	1.906521	1.019602	0.780142
O19	O	1.593256	0.396926	0.113475
O20	O	1.926590	0.730259	0.446808
O21	O	2.259923	1.063592	0.780141
Zn22	Zn	1.410922	0.378299	0.149514
Zn23	Zn	1.744255	0.711632	0.482847
Zn24	Zn	2.077589	1.044966	0.816181
Zn25	Zn	1.457669	0.350345	-0.149550
Zn26	Zn	1.791003	0.683678	0.183783
Zn27	Zn	2.124336	1.017011	0.517116
O28	O	1.407187	0.507624	0.113463
O29	O	1.740521	0.840957	0.446796
O30	O	2.073854	1.174290	0.780129
C31	C	1.212366	0.334211	-0.000018
C32	C	1.545700	0.667545	0.333315
C33	C	1.879033	1.000878	0.666649
C34	C	1.077600	0.310019	-0.000017
C35	C	1.410933	0.643352	0.333316
C36	C	1.744266	0.976685	0.666649
C37	C	1.003940	0.376818	-0.000024
C38	C	1.337273	0.710151	0.333309
C39	C	1.670607	1.043484	0.666642
C40	C	0.864652	0.351815	-0.000024
C41	C	1.197985	0.685148	0.333309
C42	C	1.531318	1.018482	0.666643
C43	C	1.442790	0.197125	-0.000006
C44	C	1.776124	0.530458	0.333328
C45	C	2.109457	0.863791	0.666661
C46	C	1.440173	0.094312	-0.000005
C47	C	1.773506	0.427646	0.333328
C48	C	2.106840	0.760979	0.666662
C49	C	1.430544	-0.282174	-0.000040
C50	C	1.763877	0.051159	0.333293
C51	C	2.097210	0.384492	0.666626
C52	C	1.433218	-0.177425	-0.000030
C53	C	1.766551	0.155909	0.333303
C54	C	2.099884	0.489242	0.666637
C55	C	1.435358	-0.093934	-0.000021
C56	C	1.768691	0.239399	0.333312
C57	C	2.102025	0.572732	0.666645
C58	C	1.438033	0.010822	-0.000014
C59	C	1.771366	0.344155	0.333320
C60	C	2.104700	0.677489	0.666653
C61	C	1.656225	0.394432	-0.000022
C62	C	1.989559	0.727765	0.333312
C63	C	2.322892	1.061099	0.666645
C64	C	1.790993	0.418624	-0.000031
C65	C	2.124327	0.751957	0.333302
C66	C	2.457660	1.085290	0.666636
C67	C	1.425802	0.531519	-0.000034
C68	C	1.759135	0.864852	0.333300
C69	C	2.092468	1.198185	0.666633
C70	C	1.428420	0.634330	-0.000043
C71	C	1.761753	0.967664	0.333290
C72	C	2.095087	1.300997	0.666623
N73	N	1.379027	0.397378	0.353617
N74	N	1.712361	0.730711	0.686951
N75	N	2.045694	1.064045	1.020284
N76	N	1.489574	0.331260	-0.353654
N77	N	1.822907	0.664593	-0.020321
N78	N	2.156240	0.997927	0.313013
C79	C	1.446564	0.356976	0.421401
C80	C	1.779898	0.690309	0.754734
C81	C	2.113231	1.023642	1.088067
C82	C	1.422027	0.371668	0.578566
C83	C	1.755360	0.705001	0.911900
C84	C	2.088693	1.038335	1.245233
H85	H	1.037548	0.234317	-0.000045
H86	H	1.370882	0.567650	0.333288
H87	H	1.704215	0.900983	0.666621
H88	H	1.303036	0.442841	0.411939
H89	H	1.636369	0.776175	0.745272
H90	H	1.969702	1.109508	1.078605
H91	H	1.522548	0.311504	0.363081
H92	H	1.855881	0.644837	0.696415
H93	H	2.189214	0.978171	1.029748
O94	O	1.321368	0.431905	0.655795
O95	O	1.654701	0.765238	0.989129
O96	O	1.988034	1.098571	1.322462
H97	H	1.317898	0.433999	0.767120
H98	H	1.651231	0.767333	1.100453
H99	H	1.984564	1.100666	1.433786
O100	O	0.811604	0.251537	-0.000004
O101	O	1.144938	0.584870	0.333329
O102	O	1.478271	0.918204	0.666663
H103	H	0.886748	0.206409	0.000014
H104	H	1.220081	0.539743	0.333347
H105	H	1.553414	0.873076	0.666680
H106	H	1.565562	0.285786	0.588030
H107	H	1.898895	0.619119	0.921363
H108	H	2.232228	0.952452	1.254697
O109	O	1.056980	0.477094	-0.000033
O110	O	1.390313	0.810428	0.333301
O111	O	1.723647	1.143761	0.666634
H112	H	1.158061	0.480995	-0.000040
H113	H	1.491394	0.814329	0.333293
H114	H	1.824728	1.147662	0.666627
O115	O	0.844026	0.518906	-0.000044
O116	O	1.177359	0.852239	0.333289
O117	O	1.510692	1.185572	0.666622
H118	H	0.945107	0.522809	-0.000054
H119	H	1.278441	0.856142	0.333279
H120	H	1.611774	1.189476	0.666613
