data_functionalizedCrystal
_audit_creation_method	'MofGen! by Chris Wilmer'
_symmetry_space_group_name_H-M	'P1'
_symmetry_Int_Tables_number	1
_symmetry_cell_setting	triclinic
loop_
_symmetry_equiv_pos_as_xyz
  x,y,z
_cell_length_a	15.711784
_cell_length_b	23.532407
_cell_length_c	14.185569
_cell_angle_alpha	76.924933
_cell_angle_beta	107.179161
_cell_angle_gamma	101.218739
loop_
_atom_site_label
_atom_site_type_symbol
_atom_site_fract_x
_atom_site_fract_y
_atom_site_fract_z
O1	O	1.124554	0.320615	-0.083510
O2	O	0.873265	0.277326	-0.083495
O3	O	1.006492	0.217644	-0.083484
O4	O	0.991328	0.380297	-0.083520
O5	O	1.045848	0.200016	0.083353
O6	O	0.912621	0.259698	0.083342
O7	O	1.163910	0.302987	0.083328
Cu8	Cu	1.041859	0.279733	0.098569
Cu9	Cu	0.995316	0.300580	-0.098736
O10	O	1.030684	0.362669	0.083317
C11	C	0.860800	0.261441	-0.000074
C12	C	0.765025	0.240363	-0.000068
C13	C	0.640762	0.161013	-0.000050
C14	C	0.730757	0.180825	-0.000055
C15	C	0.709302	0.280114	-0.000081
C16	C	0.619302	0.260311	-0.000080
C17	C	0.585040	0.200760	-0.000064
C18	C	0.563580	0.300059	-0.000094
C19	C	0.473590	0.280257	-0.000089
C20	C	0.439321	0.220708	-0.000069
C21	C	0.495050	0.180958	-0.000058
C22	C	0.597845	0.359609	-0.000104
C23	C	0.542123	0.399356	-0.000118
C24	C	0.452129	0.379555	-0.000119
C25	C	0.417861	0.320006	-0.000100
C26	C	0.396401	0.419304	-0.000130
C27	C	0.306411	0.399502	-0.000125
C28	C	0.327871	0.300204	-0.000094
C29	C	1.025784	0.187532	-0.000063
C30	C	1.024626	0.124068	-0.000055
C31	C	1.096173	-0.259853	-0.000114
C32	C	1.095093	-0.319481	-0.000122
O33	O	1.161422	-0.342153	-0.000163
N34	N	1.015893	-0.358904	-0.000117
C35	C	0.937765	-0.338695	-0.000114
O36	O	0.870300	-0.377702	-0.000111
C37	C	0.938844	-0.279067	-0.000114
C38	C	1.018052	-0.239648	-0.000109
C39	C	1.175374	-0.220435	-0.000110
C40	C	1.176454	-0.160811	-0.000101
C41	C	1.098333	-0.140606	-0.000095
C42	C	1.019132	-0.180024	-0.000099
C43	C	0.860715	-0.258859	-0.000118
C44	C	0.861801	-0.199226	-0.000119
C45	C	0.941009	-0.159807	-0.000114
C46	C	0.942090	-0.100196	-0.000084
N47	N	1.021290	-0.060773	-0.000089
C48	C	1.099412	-0.080978	-0.000095
C49	C	0.935505	-0.463916	-0.000117
C50	C	0.934427	-0.523544	-0.000110
C51	C	1.091755	-0.504326	-0.000119
C52	C	1.092834	-0.444698	-0.000119
C53	C	1.014705	-0.424494	-0.000122
C54	C	1.101673	0.044235	-0.000074
C55	C	1.102747	0.103863	-0.000061
C56	C	0.945418	0.084640	-0.000056
C57	C	0.944345	0.025017	-0.000065
C58	C	1.022479	0.004817	-0.000077
O59	O	0.875795	-0.077481	-0.000048
O60	O	1.166863	-0.041963	-0.000111
C61	C	1.176374	0.318873	-0.000095
C62	C	1.272149	0.339951	-0.000108
C63	C	1.011391	0.392782	-0.000106
C64	C	1.012547	0.456246	-0.000121
N65	N	1.074602	0.265071	0.237343
N66	N	0.962581	0.315239	-0.237510
C67	C	0.866384	0.358290	0.604976
C68	C	0.891192	0.347189	0.709999
C69	C	1.009187	0.294374	0.709970
C70	C	0.984386	0.305468	0.604944
C71	C	0.912985	0.337427	0.552455
C72	C	1.030987	0.284605	0.552424
C73	C	1.006191	0.295701	0.447407
C74	C	0.934794	0.327660	0.394911
C75	C	0.888189	0.348523	0.447439
C76	C	1.102393	0.252650	0.604914
C77	C	1.148993	0.231787	0.552394
C78	C	1.124194	0.242880	0.447376
C79	C	1.052797	0.274838	0.394880
C80	C	1.170799	0.222017	0.394848
C81	C	1.146003	0.233113	0.289831
C82	C	1.028001	0.285934	0.289863
H83	H	0.776124	0.148453	-0.000047
C84	C	0.240164	0.487095	-0.085928
C85	C	0.245148	0.443190	-0.000148
H86	H	0.202338	0.514063	-0.085941
H87	H	0.298656	0.507411	-0.085926
H88	H	0.216104	0.469587	-0.144092
H89	H	0.269215	0.460698	0.058016
H90	H	0.186646	0.422872	-0.000141
H91	H	0.969852	0.311953	0.247125
C92	C	1.165091	-0.357429	-0.085890
C93	C	1.179896	-0.401368	-0.000124
H94	H	1.218841	-0.330680	-0.085889
H95	H	1.147680	-0.374942	-0.144056
H96	H	1.118721	-0.336862	-0.085878
H97	H	1.226263	-0.421939	-0.000139
H98	H	1.197320	-0.383854	0.058058
C99	C	0.862159	-0.610813	0.085657
C100	C	0.847362	-0.566871	-0.000104
H101	H	0.808404	-0.637557	0.085657
H102	H	0.908518	-0.631383	0.085644
H103	H	0.879578	-0.593300	0.143834
H104	H	0.829950	-0.584384	-0.058280
H105	H	0.800988	-0.546299	-0.000099
H106	H	0.467150	0.132467	-0.000055
C107	C	1.258153	0.116862	-0.000079
C108	C	1.189816	0.147193	-0.000064
H109	H	1.311900	0.143613	-0.000089
H110	H	1.268184	0.087054	0.058095
H111	H	1.240723	0.099357	-0.058265
H112	H	1.207244	0.164695	0.058127
H113	H	1.179786	0.177012	-0.058244
C114	C	0.865668	-0.417081	0.085660
C115	C	0.849623	-0.441711	-0.000104
H116	H	0.812649	-0.403372	0.085661
H117	H	0.882241	-0.446094	0.143828
H118	H	0.912988	-0.385067	0.085646
H119	H	0.802307	-0.473728	-0.000086
H120	H	0.833038	-0.412695	-0.058287
H121	H	0.299971	0.251713	-0.000091
H122	H	1.067325	0.268355	0.752718
C123	C	1.161567	-0.551163	-0.085915
C124	C	1.177628	-0.526539	-0.000141
H125	H	1.214580	-0.564873	-0.085930
H126	H	1.114248	-0.583169	-0.085903
H127	H	1.144993	-0.522141	-0.144083
H128	H	1.194196	-0.555562	0.058027
H129	H	1.224962	-0.494528	-0.000144
H130	H	0.366047	0.204585	-0.000055
H131	H	0.570033	0.447842	-0.000128
H132	H	0.796215	-0.290944	-0.000128
C133	C	1.218079	0.136082	0.512961
C134	C	1.249282	0.186889	0.452554
H135	H	1.266531	0.114395	0.548581
H136	H	1.193880	0.146925	0.559263
H137	H	1.172673	0.112465	0.472001
H138	H	1.294684	0.210508	0.493515
H139	H	1.273495	0.176048	0.406247
C140	C	0.706176	-0.224215	-0.000120
C141	C	0.775918	-0.177019	-0.000117
H142	H	0.653159	-0.210506	-0.000112
H143	H	0.695308	-0.240917	-0.058300
H144	H	0.722758	-0.253227	0.058061
H145	H	0.759337	-0.148010	-0.058303
H146	H	0.786785	-0.160309	0.058068
C147	C	0.512335	0.086570	-0.000035
C148	C	0.603090	0.095553	-0.000038
H149	H	0.489078	0.046161	-0.000033
H150	H	0.506912	0.097575	0.058139
H151	H	0.479464	0.109876	-0.058222
H152	H	0.635962	0.072250	0.058153
H153	H	0.608519	0.084541	-0.058218
H154	H	1.238993	-0.236877	-0.000119
H155	H	0.879854	-0.007083	-0.000041
H156	H	0.424313	0.467790	-0.000134
C157	C	0.698487	0.379906	-0.085876
C158	C	0.746966	0.345572	-0.000102
H159	H	0.721736	0.420317	-0.085886
H160	H	0.703929	0.368895	-0.144037
H161	H	0.636918	0.373796	-0.085866
H162	H	0.808534	0.351678	-0.000116
H163	H	0.741533	0.356586	0.058074
H164	H	1.183952	0.216124	0.247069
H165	H	1.165297	0.027797	-0.000088
C166	C	1.331850	-0.147822	-0.000122
C167	C	1.263519	-0.117485	-0.000109
H168	H	1.385600	-0.121075	-0.000135
H169	H	1.341878	-0.177628	0.058055
H170	H	1.314415	-0.165330	-0.058305
H171	H	1.280951	-0.099981	0.058079
H172	H	1.253491	-0.087668	-0.058292
C173	C	0.775969	0.398743	0.444001
C174	C	0.787889	0.393413	0.547268
H175	H	0.727507	0.420422	0.408377
H176	H	0.829423	0.418760	0.426778
H177	H	0.762876	0.360660	0.426815
H178	H	0.800988	0.431496	0.564456
H179	H	0.734423	0.373397	0.564499
C180	C	0.835149	0.149626	-0.085824
C181	C	0.859548	0.106858	-0.000057
H182	H	0.782132	0.163341	-0.085831
H183	H	0.882476	0.181628	-0.085810
H184	H	0.824278	0.132908	-0.143996
H185	H	0.870426	0.123577	0.058116
H186	H	0.812210	0.074851	-0.000061
C187	C	0.980454	0.371993	0.244440
C188	C	0.907535	0.339858	0.279474
H189	H	0.963625	0.379520	0.173175
H190	H	0.997547	0.408278	0.268186
H191	H	1.029641	0.349969	0.268189
H192	H	0.858350	0.361884	0.255732
H193	H	0.890430	0.303567	0.255718
H194	H	0.671123	0.375729	-0.000105
H195	H	0.830040	0.374542	0.404700
C196	C	0.772042	0.400505	0.699478
C197	C	0.839951	0.370115	0.767731
H198	H	0.740407	0.414654	0.735121
H199	H	0.798105	0.432781	0.658510
H200	H	0.731551	0.374685	0.658524
H201	H	0.880446	0.395937	0.808680
H202	H	0.813888	0.337835	0.808716
H203	H	1.122581	0.243620	0.690426
H204	H	1.207132	0.205768	0.595143
