data_functionalizedCrystal
_audit_creation_method	'MofGen! by Chris Wilmer'
_symmetry_space_group_name_H-M	'P1'
_symmetry_Int_Tables_number	1
_symmetry_cell_setting	triclinic
loop_
_symmetry_equiv_pos_as_xyz
  x,y,z
_cell_length_a	14.971486
_cell_length_b	15.944551
_cell_length_c	14.048226
_cell_angle_alpha	89.992615
_cell_angle_beta	89.998499
_cell_angle_gamma	83.556434
loop_
_atom_site_label
_atom_site_type_symbol
_atom_site_fract_x
_atom_site_fract_y
_atom_site_fract_z
O1	O	1.186829	0.109463	-0.079053
O2	O	0.926415	0.122572	-0.079079
O3	O	1.063733	-0.006251	-0.079057
O4	O	1.049510	0.238286	-0.079076
O5	O	1.063717	-0.006258	0.079264
O6	O	0.926398	0.122564	0.079242
O7	O	1.186812	0.109456	0.079268
Zn8	Zn	1.056603	0.116009	0.104392
Zn9	Zn	1.056624	0.116019	-0.104203
O10	O	1.049494	0.238278	0.079246
C11	C	0.893082	0.121982	0.000078
C12	C	0.793787	0.120225	0.000068
C13	C	0.736480	0.195904	0.000064
C14	C	0.643182	0.194249	0.000078
C15	C	0.607194	0.116913	0.000090
C16	C	0.664508	0.041227	0.000097
C17	C	0.757804	0.042884	0.000090
C18	C	0.470049	0.037780	0.000111
C19	C	0.376747	0.036123	0.000116
C20	C	0.355428	0.189145	0.000099
C21	C	0.448724	0.190801	0.000092
C22	C	0.506032	0.115116	0.000097
C23	C	1.063134	-0.037549	0.000104
C24	C	1.061364	-0.130797	0.000104
C25	C	0.972017	-0.345738	0.000082
C26	C	1.013499	-0.406720	0.078148
C27	C	1.058162	-0.301526	0.000096
C28	C	1.013535	-0.406696	-0.077944
C29	C	1.055062	-0.466441	0.000085
C30	C	1.099667	-0.361279	0.078227
C31	C	1.099692	-0.361248	-0.077935
C32	C	1.141236	-0.422212	0.000150
C33	C	1.059945	-0.206522	0.000104
C34	C	1.053286	-0.561444	0.000084
C35	C	1.220145	0.110046	0.000109
C36	C	1.319440	0.111802	0.000112
C37	C	1.050093	0.269576	0.000083
C38	C	1.051863	0.362824	0.000076
N39	N	1.056594	0.116001	0.246753
N40	N	1.056640	0.116019	-0.246564
C41	C	1.117418	0.058982	0.296581
C42	C	1.117424	0.058982	0.396238
C43	C	1.056610	0.116005	0.446066
C44	C	0.995780	0.173027	0.396231
C45	C	0.995770	0.173022	0.296575
C46	C	0.995806	0.173033	0.603945
C47	C	0.995816	0.173038	0.703608
C48	C	1.117459	0.058992	0.703608
C49	C	1.117450	0.058988	0.603952
C50	C	1.056621	0.116011	0.554124
H51	H	0.516708	-0.023852	0.000117
H52	H	1.166951	0.012552	0.436808
H53	H	0.977095	-0.426804	-0.143948
H54	H	1.166973	0.012560	0.563383
H55	H	0.946294	0.219472	0.744173
C56	C	1.148368	-0.334658	0.166249
C57	C	1.236663	-0.374361	0.166343
C58	C	1.281551	-0.349848	0.247406
H59	H	1.118077	-0.350580	0.221682
H60	H	1.149228	-0.275171	0.165732
H61	H	1.235798	-0.433835	0.166869
H62	H	1.266978	-0.358445	0.110929
H63	H	1.282412	-0.290360	0.246889
H64	H	1.251253	-0.365770	0.302832
H65	H	1.341466	-0.376776	0.247476
C66	C	0.965011	-0.433488	0.166255
C67	C	1.009415	-0.409337	0.247806
C68	C	0.964763	-0.433969	0.328982
H69	H	0.964705	-0.493029	0.166041
H70	H	0.904906	-0.407021	0.166221
H71	H	1.069504	-0.435806	0.247839
H72	H	1.009723	-0.349800	0.248051
H73	H	0.904657	-0.407502	0.328949
H74	H	0.964458	-0.493509	0.328758
H75	H	0.994879	-0.417579	0.384324
H76	H	1.212804	-0.455303	0.000201
H77	H	0.900512	-0.312499	0.000153
C78	C	0.625611	-0.042825	0.000155
C79	C	0.695770	-0.108748	0.000182
C80	C	0.659976	-0.186190	0.000243
H81	H	0.589673	-0.046768	-0.055039
H82	H	0.589685	-0.046702	0.055388
H83	H	0.731681	-0.104873	-0.055046
H84	H	0.731715	-0.104833	0.055372
H85	H	0.624050	-0.190066	0.055476
H86	H	0.624038	-0.190124	-0.054952
H87	H	0.707573	-0.230928	0.000270
C88	C	0.929725	0.235040	0.550016
C89	C	0.876487	0.284998	0.614981
C90	C	0.815619	0.342137	0.565336
H91	H	0.892403	0.204866	0.511147
H92	H	0.961878	0.270099	0.511151
H93	H	0.844337	0.249943	0.653830
H94	H	0.913785	0.315190	0.653852
H95	H	0.847771	0.377196	0.526471
H96	H	0.778302	0.311955	0.526468
H97	H	0.779495	0.376045	0.609406
C98	C	0.929631	0.234797	0.242423
C99	C	0.874860	0.189963	0.185248
C100	C	0.813910	0.246839	0.135360
H101	H	0.961695	0.269834	0.203455
H102	H	0.893363	0.268748	0.286339
H103	H	0.911123	0.156026	0.141336
H104	H	0.842776	0.154929	0.224191
H105	H	0.777642	0.280790	0.179277
H106	H	0.845981	0.281873	0.096398
H107	H	0.776735	0.216428	0.096568
C108	C	0.337844	-0.047926	0.000180
C109	C	0.407998	-0.113855	0.000215
C110	C	0.372195	-0.191293	0.000284
H111	H	0.301906	-0.051871	-0.055014
H112	H	0.301917	-0.051795	0.055414
H113	H	0.443910	-0.109988	-0.055013
H114	H	0.443942	-0.109938	0.055405
H115	H	0.336268	-0.195161	0.055518
H116	H	0.336257	-0.195229	-0.054911
H117	H	0.419788	-0.236034	0.000317
C118	C	1.148091	-0.334374	-0.166044
C119	C	1.102690	-0.357104	-0.247565
C120	C	1.147234	-0.332348	-0.328755
H121	H	1.207871	-0.361594	-0.166732
H122	H	1.149309	-0.274934	-0.165138
H123	H	1.101482	-0.416533	-0.248471
H124	H	1.042913	-0.329887	-0.246908
H125	H	1.148452	-0.272908	-0.327850
H126	H	1.207013	-0.359570	-0.329434
H127	H	1.116432	-0.347759	-0.384077
C128	C	0.820133	-0.039219	-0.000057
C129	C	0.874331	-0.042725	-0.081500
C130	C	0.931767	-0.118341	-0.081657
H131	H	0.785453	-0.085585	-0.000100
H132	H	0.857025	-0.041760	0.055123
H133	H	0.837443	-0.040192	-0.136666
H134	H	0.909030	0.003624	-0.081475
H135	H	0.968659	-0.120883	-0.026477
H136	H	0.897080	-0.164702	-0.081697
H137	H	0.968553	-0.120727	-0.136910
H138	H	0.765774	0.258881	0.000053
H139	H	0.946259	0.219453	0.436807
H140	H	1.166988	0.012562	0.744184
C141	C	1.183344	-0.003085	0.242562
C142	C	1.168800	-0.085635	0.266836
C143	C	1.229505	-0.142847	0.217098
H144	H	1.243077	0.006010	0.258852
H145	H	1.174641	0.005000	0.176059
H146	H	1.177510	-0.093717	0.333324
H147	H	1.109079	-0.094757	0.250544
H148	H	1.220803	-0.134762	0.150595
H149	H	1.289234	-0.133744	0.233392
H150	H	1.219640	-0.198863	0.233554
C151	C	0.580862	0.276355	-0.000085
C152	C	0.526659	0.279862	-0.081522
C153	C	0.469231	0.355484	-0.081701
H154	H	0.615548	0.322716	-0.000150
H155	H	0.543973	0.278903	0.055099
H156	H	0.563543	0.277322	-0.136692
H157	H	0.491953	0.233518	-0.081475
H158	H	0.432342	0.358033	-0.026517
H159	H	0.503926	0.401840	-0.081762
H160	H	0.432442	0.357871	-0.136950
C161	C	0.293109	0.271257	-0.000054
C162	C	0.238904	0.274767	-0.081489
C163	C	0.181476	0.350388	-0.081663
H164	H	0.327795	0.317620	-0.000117
H165	H	0.256222	0.273803	0.055131
H166	H	0.275788	0.272229	-0.136660
H167	H	0.204200	0.228421	-0.081443
H168	H	0.144588	0.352934	-0.026478
H169	H	0.216168	0.396744	-0.081724
H170	H	0.144685	0.352775	-0.136911
H171	H	0.478022	0.253775	0.000073
