data_functionalizedCrystal
_audit_creation_method	'MofGen! by Chris Wilmer'
_symmetry_space_group_name_H-M	'P1'
_symmetry_Int_Tables_number	1
_symmetry_cell_setting	triclinic
loop_
_symmetry_equiv_pos_as_xyz
  x,y,z
_cell_length_a	11.026607
_cell_length_b	11.026607
_cell_length_c	10.065918
_cell_angle_alpha	97.653451
_cell_angle_beta	97.708363
_cell_angle_gamma	108.586017
loop_
_atom_site_label
_atom_site_type_symbol
_atom_site_fract_x
_atom_site_fract_y
_atom_site_fract_z
O1	O	1.747087	0.553904	0.113491
O2	O	2.247087	1.053904	0.613491
O3	O	1.380508	0.493141	0.113493
O4	O	1.880508	0.993141	0.613493
O5	O	1.533415	0.340232	0.113487
O6	O	2.033415	0.840232	0.613487
O7	O	1.594180	0.706814	0.113497
O8	O	2.094180	1.206814	0.613497
O9	O	1.492688	0.299659	-0.113502
O10	O	1.992688	0.799659	0.386498
O11	O	1.339781	0.452569	-0.113496
O12	O	1.839781	0.952569	0.386504
O13	O	1.706360	0.513332	-0.113498
O14	O	2.206360	1.013332	0.386502
Zn15	Zn	1.516604	0.476508	-0.149536
Zn16	Zn	2.016604	0.976508	0.350464
Zn17	Zn	1.570264	0.529965	0.149532
Zn18	Zn	2.070264	1.029965	0.649532
O19	O	1.553453	0.666241	-0.113492
O20	O	2.053453	1.166241	0.386508
C21	C	1.312485	0.461645	-0.000001
C22	C	1.812485	0.961645	0.499999
C23	C	1.170471	0.428228	-0.000000
C24	C	1.670471	0.928228	0.500000
C25	C	1.501842	0.272286	-0.000005
C26	C	2.001842	0.772286	0.499995
C27	C	1.468426	0.130273	-0.000000
C28	C	1.968426	0.630273	0.500000
C29	C	1.116822	0.520499	0.000003
C30	C	1.616822	1.020499	0.500003
C31	C	0.970043	0.485963	0.000004
C32	C	1.470043	0.985963	0.500004
C33	C	1.560696	0.076624	0.000001
C34	C	2.060696	0.576624	0.500001
C35	C	1.526161	-0.070153	0.000006
C36	C	2.026161	0.429847	0.500006
C37	C	1.774384	0.544828	-0.000001
C38	C	2.274384	1.044828	0.499999
C39	C	1.916399	0.578247	0.000007
C40	C	2.416399	1.078247	0.500007
C41	C	1.585027	0.734187	0.000004
C42	C	2.085027	1.234187	0.500004
C43	C	1.618444	0.876202	0.000008
C44	C	2.118444	1.376202	0.500008
N45	N	1.479992	0.440027	-0.353642
N46	N	1.979992	0.940027	0.146358
C47	C	1.557517	0.517270	-0.421420
C48	C	2.057517	1.017270	0.078580
C49	C	1.529347	0.489184	-0.578588
C50	C	2.029347	0.989184	-0.078588
N51	N	1.606884	0.566438	0.353637
N52	N	2.106884	1.066438	0.853637
H53	H	1.179554	0.625061	-0.000002
H54	H	1.679554	1.125061	0.499998
H55	H	1.107743	0.323671	0.000032
H56	H	1.607743	0.823671	0.500032
O57	O	1.387644	-0.153241	0.000001
O58	O	1.887644	0.346759	0.500001
H59	H	1.356143	-0.116051	0.092520
H60	H	1.856143	0.383949	0.592520
H61	H	1.723033	-0.061053	0.000110
H62	H	2.223033	0.438947	0.500110
H63	H	0.907320	0.381399	0.000036
H64	H	1.407320	0.881399	0.500036
O65	O	1.673057	0.632424	-0.344179
O66	O	2.173057	1.132424	0.155821
H67	H	1.677043	0.636422	-0.232854
H68	H	2.177043	1.136422	0.267146
H69	H	1.442118	0.402251	-0.636911
H70	H	1.942118	0.902251	-0.136911
H71	H	1.694119	0.653366	-0.588041
H72	H	2.194119	1.153366	-0.088041
O73	O	1.364441	0.324884	-0.430884
O74	O	1.864441	0.824884	0.069116
H75	H	1.360442	0.320899	-0.542208
H76	H	1.860442	0.820899	-0.042208
H77	H	0.979125	0.682816	0.000001
H78	H	1.479125	1.182816	0.500001
H79	H	1.665257	0.139356	-0.000008
H80	H	2.165257	0.639356	0.499992
O81	O	1.329912	0.047193	-0.000008
O82	O	1.829912	0.547193	0.499992
H83	H	1.324521	-0.055058	-0.000018
H84	H	1.824521	0.444942	0.499982
