data_functionalizedCrystal
_audit_creation_method	'MofGen! by Chris Wilmer'
_symmetry_space_group_name_H-M	'P1'
_symmetry_Int_Tables_number	1
_symmetry_cell_setting	triclinic
loop_
_symmetry_equiv_pos_as_xyz
  x,y,z
_cell_length_a	16.625548
_cell_length_b	18.050590
_cell_length_c	16.625539
_cell_angle_alpha	90.029956
_cell_angle_beta	90.020568
_cell_angle_gamma	90.019620
loop_
_atom_site_label
_atom_site_type_symbol
_atom_site_fract_x
_atom_site_fract_y
_atom_site_fract_z
Zn1	Zn	1.232702	-0.295637	0.455900
Zn2	Zn	1.232615	-0.419835	0.321063
Zn3	Zn	1.097864	-0.295665	0.321081
Zn4	Zn	1.097844	-0.419792	0.455853
O5	O	1.165256	-0.357732	0.388474
O6	O	1.345523	-0.312118	0.438026
O7	O	1.214712	-0.403393	0.208233
O8	O	1.115796	-0.191737	0.338992
O9	O	1.345459	-0.403365	0.338962
O10	O	1.214861	-0.191716	0.438043
O11	O	1.115711	-0.312166	0.208246
O12	O	0.985029	-0.312125	0.338946
O13	O	1.115761	-0.403293	0.568692
O14	O	0.985014	-0.403320	0.437963
O15	O	1.214841	-0.312077	0.568726
O16	O	1.214692	-0.523754	0.338917
O17	O	1.115676	-0.523722	0.437946
C18	C	0.955765	-0.357722	0.388452
C19	C	0.866144	-0.357735	0.388461
C20	C	0.537969	-0.357740	0.388496
C21	C	0.629277	-0.357736	0.388484
C22	C	0.702054	-0.357738	0.388478
C23	C	0.793368	-0.357734	0.388467
C24	C	1.165194	-0.550684	0.388442
C25	C	1.165242	-0.633230	0.388455
C26	C	1.219198	-0.832671	0.334678
C27	C	1.238896	-0.882001	0.408268
C28	C	1.165287	-0.784360	0.388488
C29	C	1.145672	-0.882112	0.314931
C30	C	1.165333	-0.930345	0.388512
C31	C	1.185022	-0.832604	0.462116
C32	C	1.091765	-0.832710	0.368729
C33	C	1.111434	-0.882018	0.442370
C34	C	1.165263	-0.700262	0.388472
C35	C	1.165357	-1.014442	0.388536
C36	C	1.375565	-0.357743	0.388497
C37	C	1.465186	-0.357748	0.388507
C38	C	1.165309	-0.357677	0.598783
C39	C	1.165331	-0.357653	0.688405
C40	C	1.165341	-0.164027	0.388524
C41	C	1.165376	-0.081481	0.388546
C42	C	1.165250	-0.357734	0.178984
C43	C	1.165384	-0.357548	0.089363
C44	C	1.165368	-0.357570	1.016580
C45	C	1.165356	-0.357596	0.925272
C46	C	1.165350	-0.357612	0.852495
C47	C	1.165337	-0.357637	0.761181
H48	H	1.264804	-0.811003	0.289221
F49	F	1.010490	-0.804389	0.346839
H50	H	1.129063	-0.903857	0.252715
H51	H	1.301092	-0.903655	0.424996
F52	F	1.206835	-0.804303	0.543459
F53	F	1.051869	-0.910163	0.501928
