data_functionalizedCrystal
_audit_creation_method	'MofGen! by Chris Wilmer'
_symmetry_space_group_name_H-M	'P1'
_symmetry_Int_Tables_number	1
_symmetry_cell_setting	triclinic
loop_
_symmetry_equiv_pos_as_xyz
  x,y,z
_cell_length_a	14.628931
_cell_length_b	23.196402
_cell_length_c	23.196401
_cell_angle_alpha	60.008822
_cell_angle_beta	90.013145
_cell_angle_gamma	60.000584
loop_
_atom_site_label
_atom_site_type_symbol
_atom_site_fract_x
_atom_site_fract_y
_atom_site_fract_z
Zr1	Zr	0.880617	0.630999	-0.075629
O2	O	0.734626	0.751266	-0.167675
O3	O	0.925367	0.510733	-0.047415
O4	O	0.925326	0.631000	-0.167680
O5	O	0.734702	0.630997	0.047462
O6	O	1.075758	0.631000	-0.167680
O7	O	0.734666	0.630999	-0.047410
O8	O	1.075831	0.415864	0.047452
O9	O	0.734630	0.846133	-0.167671
O10	O	1.056722	0.560200	-0.035378
O11	O	0.944483	0.560199	0.035424
O12	O	0.944436	0.701798	-0.106173
O13	O	0.832197	0.701797	-0.035372
Zr14	Zr	1.120595	0.630997	0.075680
Zr15	Zr	1.120538	0.630999	-0.075629
Zr16	Zr	0.880674	0.630997	0.075680
Zr17	Zr	0.880623	0.782301	-0.075622
Zr18	Zr	1.120589	0.479694	0.075674
O19	O	1.075845	0.751262	0.047467
O20	O	1.075764	0.751266	-0.167675
O21	O	0.734708	0.751262	0.047467
O22	O	1.266586	0.510730	0.167726
O23	O	1.266504	0.510733	-0.047415
O24	O	0.925448	0.510730	0.167727
O25	O	1.266510	0.630999	-0.047410
O26	O	1.075886	0.630995	0.167732
O27	O	0.925454	0.630995	0.167732
O28	O	1.266546	0.630997	0.047461
O29	O	0.925336	0.846133	-0.167671
O30	O	1.075876	0.415863	0.167723
O31	O	1.266582	0.415863	0.167722
O32	O	1.266536	0.415864	0.047452
O33	O	0.734676	0.846131	-0.047400
O34	O	0.925381	0.846131	-0.047401
O35	O	1.056776	0.560198	0.106225
O36	O	1.169015	0.560199	0.035423
O37	O	1.056728	0.701797	-0.035372
O38	O	0.944490	0.701796	0.035430
C39	C	1.000598	0.441742	0.000018
C40	C	1.000595	0.377510	0.000015
C41	C	1.059175	0.347340	-0.036945
C42	C	1.059185	0.286979	-0.036940
C43	C	1.000595	0.256801	0.000017
C44	C	0.942012	0.286975	0.036985
C45	C	0.942012	0.347329	0.036984
C46	C	0.902434	0.194772	-0.005258
C47	C	0.902430	0.134423	-0.005262
C48	C	1.000596	0.070647	0.000024
C49	C	1.098764	0.067235	0.005299
C50	C	1.098764	0.127589	0.005298
C51	C	1.000589	0.191357	0.000022
C52	C	1.059193	-0.024974	-0.036932
C53	C	1.059207	-0.085340	-0.036921
C54	C	0.942023	-0.085337	0.036999
C55	C	0.942020	-0.024978	0.036993
C56	C	1.000602	0.005203	0.000024
C57	C	0.700501	0.630998	0.000026
C58	C	0.598648	0.630998	0.000026
C59	C	0.553220	0.630999	-0.049644
C60	C	0.447949	0.630999	-0.049645
C61	C	1.300711	0.630998	0.000025
C62	C	1.402564	0.630998	0.000025
C63	C	1.000534	0.631001	-0.189239
C64	C	1.000510	0.631002	-0.253473
C65	C	1.000614	0.820254	0.000034
C66	C	1.000617	0.884486	0.000037
C67	C	0.941903	0.704912	-0.320601
C68	C	0.941931	0.704913	-0.380956
C69	C	1.000551	0.631000	-0.374179
C70	C	1.059171	0.557079	-0.307040
C71	C	1.059150	0.557081	-0.246687
C72	C	0.992225	0.574372	-0.441499
C73	C	0.992237	0.574374	-0.501853
C74	C	1.000622	0.630993	-0.560327
C75	C	1.008972	0.687625	-0.558448
C76	C	1.008951	0.687626	-0.498094
C77	C	1.000581	0.630990	-0.439618
C78	C	0.942043	0.704910	-0.692901
C79	C	0.942080	0.704908	-0.753256
C80	C	1.059312	0.557072	-0.679338
C81	C	1.059283	0.557076	-0.618985
C82	C	1.000643	0.630998	-0.625772
C83	C	1.000678	0.630995	0.189290
C84	C	1.000702	0.630994	0.253525
C85	C	1.300703	0.441742	0.000017
C86	C	1.402553	0.377510	0.000014
C87	C	1.000670	0.441739	0.189282
C88	C	1.000691	0.377506	0.253514
C89	C	1.300775	0.441739	0.189282
C90	C	1.402649	0.377506	0.253513
C91	C	0.700437	0.820257	-0.189230
C92	C	0.598563	0.884490	-0.253462
C93	C	0.700509	0.820254	0.000034
C94	C	0.598659	0.884486	0.000037
C95	C	1.000542	0.820257	-0.189230
C96	C	1.000521	0.884490	-0.253462
C97	C	1.391768	0.347346	-0.036951
C98	C	1.487457	0.287002	-0.036968
C99	C	1.593932	0.256818	-0.000015
C100	C	1.604715	0.286987	0.036952
C101	C	1.509026	0.347335	0.036964
C102	C	1.059317	0.347341	0.320642
C103	C	1.059333	0.286996	0.381000
C104	C	1.000729	0.256813	0.374229
C105	C	0.942096	0.286983	0.307094
C106	C	0.942074	0.347332	0.246737
C107	C	1.509088	0.347342	0.246720
C108	C	1.604819	0.286997	0.307066
C109	C	1.594109	0.256812	0.374206
C110	C	1.487659	0.286982	0.380999
C111	C	1.391930	0.347330	0.320653
C112	C	0.492124	0.914661	-0.246668
C113	C	0.396393	0.975025	-0.307015
C114	C	0.407103	1.005212	-0.374155
C115	C	0.513553	0.975039	-0.380947
C116	C	0.609282	0.914680	-0.320601
C117	C	0.609444	0.914656	0.036996
C118	C	0.513755	0.975017	0.036996
C119	C	0.407280	1.005203	0.000041
C120	C	0.396497	0.975030	-0.036922
C121	C	0.492185	0.914675	-0.036926
C122	C	1.059136	0.914654	-0.246669
C123	C	1.059138	0.974999	-0.307016
C124	C	1.000517	1.005184	-0.374155
C125	C	0.941900	0.975014	-0.380948
C126	C	0.941906	0.914665	-0.320601
H127	H	1.178697	0.124806	0.009596
Br128	Br	0.862338	0.873742	-0.329834
Br129	Br	1.000519	1.087088	-0.456048
Br130	Br	1.247481	0.388256	0.329886
H131	H	1.517830	0.371909	0.192056
H132	H	1.691419	0.262403	0.067037
Br133	Br	1.473143	0.246009	0.472123
Br134	Br	0.753933	0.873705	0.087153
Br135	Br	0.528069	1.016015	-0.472071
Br136	Br	0.862507	0.388259	0.155637
H137	H	1.691487	0.262439	0.301523
Br138	Br	0.862291	0.805233	-0.329813
Br139	Br	0.862337	1.015994	-0.472072
H140	H	1.107002	0.496890	-0.564326
H141	H	0.894308	0.262400	0.067076
H142	H	0.329145	1.054360	-0.423286
H143	H	0.894307	0.371894	0.067082
Br144	Br	1.724040	0.174910	0.456099
H145	H	1.106890	0.262410	-0.067038
Br146	Br	1.138712	-0.126284	-0.087088
H147	H	0.559610	0.630993	0.042553
H148	H	0.309726	0.999582	-0.301470
Br149	Br	0.477557	0.873703	-0.155557
H150	H	0.483388	0.890112	-0.067021
Br151	Br	1.138914	0.246061	0.472102
H152	H	1.000756	0.207673	0.423381
Br153	Br	0.753731	0.873737	-0.329834
Br154	Br	0.528416	1.015950	0.087167
H155	H	0.329373	1.054348	0.000050
H156	H	1.106879	0.371909	-0.067046
H157	H	1.015794	0.733733	-0.606060
H158	H	0.441621	0.631002	0.042550
Br159	Br	1.138703	0.015984	-0.087099
H160	H	0.894382	0.262399	0.301592
H161	H	1.671839	0.207679	-0.000030
H162	H	0.309792	0.999617	-0.067010
H163	H	1.107039	0.371909	0.326168
Br164	Br	0.618288	0.630990	-0.120521
Br165	Br	1.247278	0.388299	-0.087110
H166	H	0.408880	0.631004	-0.092172
H167	H	1.106872	0.890087	-0.192006
Br168	Br	1.138690	1.015935	-0.297781
H169	H	1.178704	0.015301	0.009612
H170	H	0.894317	-0.109906	0.067090
Br171	Br	0.862514	0.015970	0.087156
H172	H	0.822495	0.137210	-0.009561
H173	H	0.822484	0.246709	-0.009576
H174	H	0.894204	0.765102	-0.435621
H175	H	1.015752	0.733736	-0.496567
Br176	Br	0.862545	0.805224	-0.844364
Br177	Br	0.862490	0.805229	-0.702106
Br178	Br	1.138889	0.456759	-0.670134
Br179	Br	0.980950	0.497474	-0.362118
Br180	Br	0.980890	0.497526	-0.504402
H181	H	1.517824	0.371886	0.067070
H182	H	1.106901	0.496899	-0.301526
H183	H	1.478655	0.262445	-0.067070
Br184	Br	1.138689	0.456766	-0.155578
