data_functionalizedCrystal
_audit_creation_method	'MofGen! by Chris Wilmer'
_symmetry_space_group_name_H-M	'P1'
_symmetry_Int_Tables_number	1
_symmetry_cell_setting	triclinic
loop_
_symmetry_equiv_pos_as_xyz
  x,y,z
_cell_length_a	12.645331
_cell_length_b	11.169416
_cell_length_c	12.645323
_cell_angle_alpha	90.023467
_cell_angle_beta	89.977324
_cell_angle_gamma	89.990681
loop_
_atom_site_label
_atom_site_type_symbol
_atom_site_fract_x
_atom_site_fract_y
_atom_site_fract_z
Zn1	Zn	1.620785	0.477830	-0.599457
Zn2	Zn	1.620690	0.678545	-0.422201
Zn3	Zn	1.443500	0.477871	-0.422201
Zn4	Zn	1.443504	0.678467	-0.599416
O5	O	1.532120	0.578178	-0.510819
O6	O	1.769120	0.504471	-0.575960
O7	O	1.597143	0.651975	-0.273854
O8	O	1.467055	0.309916	-0.445731
O9	O	1.769050	0.651936	-0.445731
O10	O	1.597306	0.309886	-0.575960
O11	O	1.466963	0.504541	-0.273854
O12	O	1.295153	0.504465	-0.445692
O13	O	1.467063	0.651802	-0.747769
O14	O	1.295157	0.651841	-0.575892
O15	O	1.597311	0.504395	-0.747799
O16	O	1.597148	0.846484	-0.445692
O17	O	1.466970	0.846427	-0.575892
C18	C	1.256690	0.578150	-0.510788
C19	C	1.138860	0.578166	-0.510800
C20	C	1.532078	0.890003	-0.510811
C21	C	1.532157	1.023403	-0.510843
C22	C	1.532198	0.578085	-0.787324
C23	C	1.532231	0.578046	-0.905154
C24	C	0.971259	0.485025	-0.429344
C25	C	1.093818	0.485266	-0.428985
C26	C	1.094354	0.704597	-0.480288
C27	C	0.971756	0.704088	-0.479732
C28	C	0.971707	0.546080	-0.623083
C29	C	1.094313	0.543256	-0.622460
C30	C	1.808625	0.578208	-0.510850
C31	C	1.926455	0.578220	-0.510864
C32	C	1.532191	0.265136	-0.510850
C33	C	1.532221	0.131736	-0.510863
C34	C	1.450040	0.670342	-1.072700
C35	C	1.450255	0.670799	-0.950140
C36	C	1.643935	0.612373	-0.949675
C37	C	1.643484	0.612952	-1.072273
C38	C	1.503776	0.450906	-1.072349
C39	C	1.501283	0.451668	-0.949743
C40	C	1.532103	0.578184	-0.235389
C41	C	1.532275	0.577885	-0.117560
H42	H	1.123908	0.391513	-0.448109
C43	C	0.929958	0.423709	-0.660578
C44	C	0.854227	0.351397	-0.589767
C45	C	0.812475	0.229022	-0.627248
C46	C	0.846454	0.178958	-0.735541
C47	C	0.922189	0.251270	-0.806359
C48	C	0.963941	0.373646	-0.768878
H49	H	0.829070	0.388457	-0.509596
H50	H	0.756411	0.175492	-0.574823
H51	H	0.815547	0.088369	-0.763287
H52	H	0.947346	0.214211	-0.886530
H53	H	1.020005	0.427176	-0.821303
H54	H	0.940413	0.506032	-0.346673
C55	C	1.133386	0.513981	-0.316647
C56	C	1.053428	0.536771	-0.226985
C57	C	1.092995	0.565495	-0.114643
C58	C	1.212518	0.571429	-0.091963
C59	C	1.292483	0.548638	-0.181628
C60	C	1.252917	0.519914	-0.293970
H61	H	0.964943	0.532379	-0.243771
H62	H	1.033799	0.582366	-0.048267
H63	H	1.241808	0.592692	-0.008801
H64	H	1.380969	0.553030	-0.164842
H65	H	1.312113	0.503043	-0.360346
H66	H	0.941784	0.390990	-0.448263
C67	C	0.932577	0.637779	-0.705143
C68	C	0.859928	0.741313	-0.670564
C69	C	0.820796	0.833019	-0.752612
C70	C	0.854313	0.821189	-0.869238
C71	C	0.926966	0.717650	-0.903822
C72	C	0.966098	0.625945	-0.821775
H73	H	0.835113	0.750074	-0.584225
H74	H	0.767013	0.909665	-0.727009
H75	H	0.825345	0.889075	-0.929975
H76	H	0.951781	0.708889	-0.990161
H77	H	1.019881	0.549298	-0.847377
H78	H	1.667640	0.705776	-1.100886
C79	C	1.475202	0.796723	-1.114331
C80	C	1.570013	0.816253	-1.188811
C81	C	1.595179	0.942632	-1.230444
C82	C	1.525533	1.049480	-1.197597
C83	C	1.430715	1.029953	-1.123113
C84	C	1.405550	0.903574	-1.081480
H85	H	1.621575	0.737155	-1.213130
H86	H	1.665370	0.957087	-1.285582
H87	H	1.544162	1.143033	-1.228416
H88	H	1.379154	1.109051	-1.098794
H89	H	1.335359	0.889119	-1.026342
H90	H	1.367423	0.649318	-0.920038
H91	H	0.943113	0.731344	-0.397694
C92	C	1.395648	0.408631	-1.114085
C93	C	1.305290	0.381299	-1.036072
C94	C	1.197158	0.339039	-1.077808
C95	C	1.179384	0.324112	-1.197557
C96	C	1.269744	0.351445	-1.275577
C97	C	1.377876	0.393705	-1.233841
H98	H	1.318445	0.392348	-0.947420
H99	H	1.130267	0.318805	-1.020052
H100	H	1.099338	0.292828	-1.228453
H101	H	1.256589	0.340395	-1.364230
H102	H	1.444767	0.413939	-1.291598
C103	C	1.729087	0.525963	-1.112375
C104	C	1.797642	0.456195	-1.032841
C105	C	1.883255	0.369222	-1.072937
C106	C	1.900313	0.352018	-1.192567
C107	C	1.831756	0.421789	-1.272108
C108	C	1.746144	0.508761	-1.232012
H109	H	1.785016	0.468928	-0.944277
H110	H	1.934005	0.317574	-1.014054
H111	H	1.963689	0.287636	-1.222248
H112	H	1.844382	0.409055	-1.360672
H113	H	1.695393	0.560409	-1.290895
C114	C	1.390233	0.416684	-0.910434
C115	C	1.327912	0.502430	-0.838187
C116	C	1.216860	0.467451	-0.798872
C117	C	1.168129	0.346727	-0.831804
C118	C	1.230451	0.260974	-0.904055
C119	C	1.341502	0.295953	-0.943370
H120	H	1.363985	0.591804	-0.813805
H121	H	1.170726	0.530931	-0.745387
H122	H	1.085922	0.320833	-0.802701
H123	H	1.194377	0.171600	-0.928437
H124	H	1.387636	0.232472	-0.996855
C125	C	1.133772	0.800920	-0.557972
C126	C	1.207006	0.765809	-0.650241
C127	C	1.246426	0.862130	-0.727927
C128	C	1.212611	0.993561	-0.713344
C129	C	1.139373	1.028677	-0.621071
C130	C	1.099953	0.932356	-0.543385
H131	H	1.232041	0.668511	-0.661040
H132	H	1.300641	0.836134	-0.796233
H133	H	1.241792	1.064863	-0.770851
H134	H	1.114338	1.125975	-0.610272
H135	H	1.045738	0.958353	-0.475079
C136	C	1.135758	0.742055	-0.370646
C137	C	1.057380	0.767329	-0.280112
C138	C	1.098781	0.804778	-0.170467
C139	C	1.218560	0.816954	-0.151355
C140	C	1.296946	0.791679	-0.241891
C141	C	1.255545	0.754229	-0.351537
H142	H	0.968705	0.758317	-0.294257
H143	H	1.040754	0.823489	-0.103446
H144	H	1.249207	0.844676	-0.070189
H145	H	1.385620	0.800691	-0.227746
H146	H	1.313572	0.735519	-0.418558
H147	H	1.124978	0.606183	-0.686446
H148	H	1.706850	0.547162	-0.920538
H149	H	0.942119	0.775876	-0.536519
H150	H	1.469070	0.764934	-0.920828
H151	H	1.668504	0.704224	-0.918988
C152	C	1.584681	0.357839	-1.111545
C153	C	1.651652	0.287057	-1.031364
C154	C	1.732559	0.194001	-1.070565
C155	C	1.746495	0.171728	-1.189947
C156	C	1.679521	0.242512	-1.270136
C157	C	1.598614	0.335568	-1.230934
H158	H	1.641338	0.303544	-0.942983
H159	H	1.782138	0.141602	-1.011204
H160	H	1.806387	0.102842	-1.218967
H161	H	1.689835	0.226025	-1.358516
H162	H	1.549036	0.387967	-1.290296
H163	H	1.556803	0.379140	-0.919120
H164	H	1.366963	0.649068	-1.102173
H165	H	1.123406	0.450217	-0.645468
