data_functionalizedCrystal
_audit_creation_method	'MofGen! by Chris Wilmer'
_symmetry_space_group_name_H-M	'P1'
_symmetry_Int_Tables_number	1
_symmetry_cell_setting	triclinic
loop_
_symmetry_equiv_pos_as_xyz
  x,y,z
_cell_length_a	11.026607
_cell_length_b	12.837942
_cell_length_c	9.482944
_cell_angle_alpha	99.442061
_cell_angle_beta	98.185432
_cell_angle_gamma	101.707478
loop_
_atom_site_label
_atom_site_type_symbol
_atom_site_fract_x
_atom_site_fract_y
_atom_site_fract_z
O1	O	1.680508	0.461623	0.120904
O2	O	1.321360	0.411103	0.120905
O3	O	1.492969	0.283973	0.120896
O4	O	1.508899	0.588753	0.120914
O5	O	1.454871	0.248040	-0.120898
O6	O	1.283262	0.375171	-0.120888
O7	O	1.642410	0.425690	-0.120889
Cu8	Cu	1.459358	0.397150	-0.142967
Cu9	Cu	1.504412	0.439644	0.142983
O10	O	1.470801	0.552821	-0.120880
C11	C	1.256022	0.383817	0.000009
C12	C	1.118096	0.356034	0.000009
C13	C	1.053162	0.432749	0.000014
C14	C	0.910607	0.404035	0.000015
C15	C	1.468539	0.226382	-0.000000
C16	C	1.452493	0.108311	0.000002
C17	C	1.645415	-0.096643	0.000032
C18	C	1.630343	-0.207581	0.000035
C19	C	1.407280	-0.224504	0.000020
C20	C	1.422352	-0.113566	0.000018
C21	C	1.541423	-0.049639	0.000021
C22	C	1.556492	0.061299	0.000009
C23	C	1.333431	0.044376	0.000005
C24	C	1.318360	-0.066562	0.000007
C25	C	1.707748	0.452977	0.000011
C26	C	1.845676	0.480761	0.000020
C27	C	1.495231	0.610412	0.000019
C28	C	1.511279	0.728485	0.000026
N29	N	1.427678	0.367262	-0.344088
C30	C	1.495059	0.430826	-0.416285
C31	C	1.468710	0.405951	-0.583703
N32	N	1.536101	0.469525	0.344104
H33	H	0.860673	0.317100	0.000047
H34	H	1.248751	0.082656	-0.000016
Br35	Br	1.136392	0.577651	0.000013
Br36	Br	1.664785	0.590924	-0.552361
Br37	Br	1.156774	-0.153324	0.000020
Br38	Br	1.623736	0.552220	-0.312739
H39	H	1.350486	0.294425	-0.406222
Br40	Br	1.806998	-0.009888	-0.000008
Br41	Br	1.340047	0.284538	-0.687243
H42	H	1.068157	0.269104	0.000041
H43	H	1.653444	0.113346	0.000006
H44	H	1.310340	-0.276569	0.000033
H45	H	1.715026	-0.245846	0.000048
H46	H	0.895613	0.567701	0.000015
