data_functionalizedCrystal
_audit_creation_method	'MofGen! by Chris Wilmer'
_symmetry_space_group_name_H-M	'P1'
_symmetry_Int_Tables_number	1
_symmetry_cell_setting	triclinic
loop_
_symmetry_equiv_pos_as_xyz
  x,y,z
_cell_length_a	12.594516
_cell_length_b	12.594517
_cell_length_c	11.169409
_cell_angle_alpha	89.976516
_cell_angle_beta	89.968646
_cell_angle_gamma	90.015853
loop_
_atom_site_label
_atom_site_type_symbol
_atom_site_fract_x
_atom_site_fract_y
_atom_site_fract_z
Zn1	Zn	-0.423662	1.627290	-0.678668
Zn2	Zn	0.076338	2.127290	-0.178668
Zn3	Zn	-0.601688	1.627174	-0.477988
Zn4	Zn	-0.101688	2.127174	0.022012
Zn5	Zn	-0.423723	1.449287	-0.477990
Zn6	Zn	0.076277	1.949287	0.022010
Zn7	Zn	-0.601598	1.449276	-0.678621
Zn8	Zn	-0.101598	1.949276	-0.178621
O9	O	-0.512668	1.538256	-0.578317
O10	O	-0.012668	2.038256	-0.078317
O11	O	-0.447289	1.776220	-0.652067
O12	O	0.052711	2.276220	-0.152067
O13	O	-0.578144	1.603533	-0.310039
O14	O	-0.078144	2.103533	0.189961
O15	O	-0.274769	1.472952	-0.504631
O16	O	0.225231	1.972952	-0.004631
O17	O	-0.578084	1.776135	-0.504628
O18	O	-0.078084	2.276135	-0.004628
O19	O	-0.274724	1.603730	-0.652068
O20	O	0.225276	2.103730	-0.152068
O21	O	-0.447394	1.472840	-0.310040
O22	O	0.052606	1.972840	0.189960
O23	O	-0.447307	1.300340	-0.504584
O24	O	0.052693	1.800340	-0.004584
O25	O	-0.577931	1.472933	-0.846577
O26	O	-0.077931	1.972933	-0.346577
O27	O	-0.577990	1.300331	-0.651987
O28	O	-0.077990	1.800331	-0.151987
O29	O	-0.447202	1.603720	-0.846612
O30	O	0.052798	2.103720	-0.346612
O31	O	-0.750622	1.603522	-0.504582
O32	O	-0.250622	2.103522	-0.004582
O33	O	-0.750556	1.472821	-0.651986
O34	O	-0.250556	1.972821	-0.151986
C35	C	-0.512646	1.261716	-0.578281
C36	C	-0.012646	1.761716	-0.078281
C37	C	-0.512663	1.143410	-0.578295
C38	C	-0.012663	1.643410	-0.078295
C39	C	-0.441487	1.074130	-0.498275
C40	C	0.058513	1.574130	0.001725
C41	C	-0.538578	1.003319	-0.468759
C42	C	-0.038578	1.503319	0.031241
C43	C	-0.415619	1.003423	-0.607832
C44	C	0.084381	1.503423	-0.107832
C45	C	-0.609805	1.074156	-0.548721
C46	C	-0.109805	1.574156	-0.048721
C47	C	-0.486781	1.074267	-0.687845
C48	C	0.013219	1.574267	-0.187845
C49	C	-0.583939	1.003487	-0.658370
C50	C	-0.083939	1.503487	-0.158370
C51	C	-0.789209	1.538187	-0.578305
C52	C	-0.289209	2.038187	-0.078305
C53	C	-0.907514	1.538254	-0.578340
C54	C	-0.407514	2.038254	-0.078340
C55	C	-0.976770	1.467159	-0.658456
C56	C	-0.476770	1.967159	-0.158456
C57	C	-1.047644	1.441222	-0.548941
C58	C	-0.547644	1.941222	-0.048941
C59	C	-1.047439	1.564288	-0.687874
C60	C	-0.547439	2.064288	-0.187874
C61	C	-0.976830	1.512266	-0.468767
C62	C	-0.476830	2.012266	0.031233
C63	C	-0.976619	1.635377	-0.607773
C64	C	-0.476619	2.135377	-0.107773
C65	C	-1.047461	1.609477	-0.498183
C66	C	-0.547461	2.109477	0.001817
C67	C	-0.235047	1.538356	-0.578355
C68	C	0.264953	2.038356	-0.078355
C69	C	-0.116741	1.538398	-0.578371
C70	C	0.383259	2.038398	-0.078371
C71	C	-0.512549	1.538338	-0.891359
C72	C	-0.012549	2.038338	-0.391359
C73	C	-0.512499	1.538373	-1.024759
C74	C	-0.012499	2.038373	-0.524759
C75	C	-0.512690	1.815877	-0.578353
C76	C	-0.012690	2.315877	-0.078353
C77	C	-0.512699	1.934183	-0.578368
C78	C	-0.012699	2.434183	-0.078368
C79	C	-0.512708	1.538236	-0.266492
C80	C	-0.012708	2.038236	0.233508
C81	C	-0.512459	1.538408	-0.133093
C82	C	-0.012459	2.038408	0.366907
H83	H	-0.691913	1.105097	-0.523667
H84	H	-0.191913	1.605097	-0.023667
Cl85	Cl	-0.676996	0.955892	-0.762897
Cl86	Cl	-0.176996	1.455892	-0.262897
H87	H	-1.078865	1.359154	-0.524072
H88	H	-0.578865	1.859154	-0.024072
H89	H	-0.464837	1.105455	-0.780429
H90	H	0.035163	1.605455	-0.280429
H91	H	-1.078455	1.586250	-0.780493
H92	H	-0.578455	2.086250	-0.280493
H93	H	-1.078304	1.669661	-0.430366
H94	H	-0.578304	2.169661	0.069634
Cl95	Cl	-0.928415	1.762057	-0.646251
Cl96	Cl	-0.428415	2.262057	-0.146251
H97	H	-0.560492	0.972157	-0.376146
H98	H	-0.060492	1.472157	0.123854
Cl99	Cl	-0.348646	1.122027	-0.393676
Cl100	Cl	0.151354	1.622027	0.106324
H101	H	-0.333546	0.972297	-0.632742
H102	H	0.166454	1.472297	-0.132742
H103	H	-0.945730	1.406929	-0.726110
H104	H	-0.445730	1.906929	-0.226110
H105	H	-0.945942	1.490209	-0.376123
H106	H	-0.445942	1.990209	0.123877
