data_functionalizedCrystal
_audit_creation_method	'MofGen! by Chris Wilmer'
_symmetry_space_group_name_H-M	'P1'
_symmetry_Int_Tables_number	1
_symmetry_cell_setting	triclinic
loop_
_symmetry_equiv_pos_as_xyz
  x,y,z
_cell_length_a	16.109296
_cell_length_b	16.109301
_cell_length_c	14.586319
_cell_angle_alpha	89.998857
_cell_angle_beta	90.004442
_cell_angle_gamma	96.539564
loop_
_atom_site_label
_atom_site_type_symbol
_atom_site_fract_x
_atom_site_fract_y
_atom_site_fract_z
O1	O	-0.106867	1.103129	-0.076191
O2	O	0.393133	1.603129	0.423809
O3	O	-0.120166	0.861066	-0.076204
O4	O	0.379834	1.361066	0.423796
O5	O	0.007514	0.988749	-0.076190
O6	O	0.507514	1.488749	0.423810
O7	O	-0.234548	0.975446	-0.076206
O8	O	0.265452	1.475446	0.423794
O9	O	0.007516	0.988741	0.076291
O10	O	0.507516	1.488741	0.576291
O11	O	-0.120165	0.861058	0.076276
O12	O	0.379835	1.361058	0.576276
O13	O	-0.106865	1.103120	0.076290
O14	O	0.393135	1.603120	0.576290
Cu15	Cu	-0.113515	0.982088	0.090206
Cu16	Cu	0.386485	1.482088	0.590206
Cu17	Cu	-0.113517	0.982098	-0.090121
Cu18	Cu	0.386483	1.482098	0.409879
O19	O	-0.234546	0.975437	0.076275
O20	O	0.265454	1.475437	0.576275
C21	C	0.038490	0.988207	0.000050
C22	C	0.538490	1.488207	0.500050
C23	C	0.130786	0.986594	0.000050
C24	C	0.630786	1.486594	0.500050
C25	C	-0.119627	0.830087	0.000034
C26	C	0.380373	1.330087	0.500034
C27	C	-0.118012	0.737792	0.000030
C28	C	0.381988	1.237792	0.500030
C29	C	0.439785	1.057083	0.000042
C30	C	0.939785	1.557083	0.500042
C31	C	0.353064	1.058607	0.000046
C32	C	0.853064	1.558607	0.500046
C33	C	0.333191	0.907117	0.000050
C34	C	0.833191	1.407117	0.500050
C35	C	0.419910	0.905595	0.000052
C36	C	0.919910	1.405595	0.500052
C37	C	0.473205	0.980580	0.000044
C38	C	0.973205	1.480580	0.500044
C39	C	0.299766	0.983626	0.000046
C40	C	0.799766	1.483626	0.500046
C41	C	0.205739	0.985278	0.000050
C42	C	0.705739	1.485278	0.500050
C43	C	0.567237	0.978929	0.000041
C44	C	1.067237	1.478929	0.500041
C45	C	0.734478	0.975984	0.000036
C46	C	1.234478	1.475984	0.500036
C47	C	0.642185	0.977613	0.000039
C48	C	1.142185	1.477613	0.500039
C49	C	-0.188495	0.428792	0.000041
C50	C	0.311505	0.928792	0.500041
C51	C	-0.190020	0.515512	0.000036
C52	C	0.309980	1.015512	0.500036
C53	C	-0.038531	0.535389	0.000033
C54	C	0.461469	1.035389	0.500033
C55	C	-0.037007	0.448670	0.000032
C56	C	0.462993	0.948670	0.500032
C57	C	-0.111991	0.395374	0.000041
C58	C	0.388009	0.895374	0.500041
C59	C	-0.115041	0.568813	0.000036
C60	C	0.384959	1.068813	0.500036
C61	C	-0.116694	0.662839	0.000031
C62	C	0.383306	1.162839	0.500031
C63	C	-0.110338	0.301342	0.000045
C64	C	0.389662	0.801342	0.500045
C65	C	-0.107405	1.134099	0.000049
C66	C	0.392595	1.634099	0.500049
C67	C	-0.109020	1.226394	0.000047
C68	C	0.390980	1.726394	0.500047
N69	N	-0.113513	0.982087	0.217037
N70	N	0.386487	1.482087	0.717037
N71	N	-0.113513	0.982106	-0.216952
N72	N	0.386487	1.482106	0.283048
C73	C	-0.056995	1.038643	0.452050
C74	C	0.443005	1.538643	0.952050
C75	C	-0.056993	1.038646	0.548032
C76	C	0.443007	1.538646	1.048032
C77	C	-0.170033	0.925543	0.548028
C78	C	0.329967	1.425543	1.048028
C79	C	-0.170031	0.925538	0.452049
C80	C	0.329969	1.425538	0.952049
C81	C	-0.113512	0.982092	0.404062
C82	C	0.386488	1.482092	0.904062
C83	C	-0.113513	0.982100	0.596023
C84	C	0.386487	1.482100	1.096023
C85	C	-0.113511	0.982103	0.700090
C86	C	0.386489	1.482103	1.200090
C87	C	-0.113513	0.982089	0.299988
C88	C	0.386487	1.482089	0.799988
H89	H	0.483176	1.118141	0.000035
H90	H	0.983176	1.618141	0.500035
H91	H	-0.249552	0.385400	0.000047
H92	H	0.250448	0.885400	0.500047
F93	F	-0.230184	0.865342	0.400972
F94	F	0.269816	1.365342	0.900972
F95	F	0.003159	1.098832	0.400983
F96	F	0.503159	1.598832	0.900983
F97	F	0.455480	0.824165	0.000059
F98	F	0.955480	1.324165	0.500059
H99	H	0.289788	0.846067	0.000055
H100	H	0.789788	1.346067	0.500055
H101	H	0.022518	0.578793	0.000028
H102	H	0.522518	1.078793	0.500028
F103	F	0.317500	1.140031	0.000042
F104	F	0.817500	1.640031	0.500042
F105	F	-0.271446	0.551075	0.000033
F106	F	0.228554	1.051075	0.500033
H107	H	0.025296	0.421461	0.000029
H108	H	0.525296	0.921461	0.500029
H109	H	-0.010970	1.084694	0.587101
H110	H	0.489030	1.584694	1.087101
F111	F	-0.230184	0.865359	0.599105
F112	F	0.269816	1.365359	1.099105
