data_functionalizedCrystal
_audit_creation_method	'MofGen! by Chris Wilmer'
_symmetry_space_group_name_H-M	'P1'
_symmetry_Int_Tables_number	1
_symmetry_cell_setting	triclinic
loop_
_symmetry_equiv_pos_as_xyz
  x,y,z
_cell_length_a	15.944551
_cell_length_b	15.944493
_cell_length_c	15.021413
_cell_angle_alpha	90.009890
_cell_angle_beta	89.997174
_cell_angle_gamma	83.486891
loop_
_atom_site_label
_atom_site_type_symbol
_atom_site_fract_x
_atom_site_fract_y
_atom_site_fract_z
O1	O	1.114506	0.108324	-0.073927
O2	O	1.364506	0.358324	0.176073
O3	O	1.614506	0.608324	0.426073
O4	O	1.864506	0.858324	0.676073
O5	O	0.869954	0.121680	-0.073948
O6	O	1.119954	0.371680	0.176052
O7	O	1.369954	0.621680	0.426052
O8	O	1.619954	0.871680	0.676052
O9	O	0.998934	-0.007276	-0.073945
O10	O	1.248934	0.242724	0.176055
O11	O	1.498934	0.492724	0.426055
O12	O	1.748934	0.742724	0.676055
O13	O	0.985527	0.237280	-0.073931
O14	O	1.235527	0.487280	0.176069
O15	O	1.485527	0.737280	0.426069
O16	O	1.735527	0.987280	0.676069
O17	O	0.998913	-0.007258	0.074120
O18	O	1.248913	0.242742	0.324120
O19	O	1.498913	0.492742	0.574120
O20	O	1.748913	0.742742	0.824120
O21	O	0.869933	0.121699	0.074116
O22	O	1.119933	0.371699	0.324116
O23	O	1.369933	0.621699	0.574116
O24	O	1.619933	0.871699	0.824116
O25	O	1.114486	0.108342	0.074137
O26	O	1.364486	0.358342	0.324137
O27	O	1.614486	0.608342	0.574137
O28	O	1.864486	0.858342	0.824137
Zn29	Zn	0.992206	0.115023	0.097635
Zn30	Zn	1.242206	0.365023	0.347635
Zn31	Zn	1.492206	0.615023	0.597635
Zn32	Zn	1.742206	0.865023	0.847635
Zn33	Zn	0.992233	0.114999	-0.097446
Zn34	Zn	1.242233	0.364999	0.152554
Zn35	Zn	1.492233	0.614999	0.402554
Zn36	Zn	1.742233	0.864999	0.652554
O37	O	0.985506	0.237299	0.074133
O38	O	1.235506	0.487299	0.324133
O39	O	1.485506	0.737299	0.574133
O40	O	1.735506	0.987299	0.824133
C41	C	0.838650	0.121135	0.000081
C42	C	1.088650	0.371135	0.250081
C43	C	1.338650	0.621135	0.500081
C44	C	1.588650	0.871135	0.750081
C45	C	0.745404	0.119473	0.000073
C46	C	0.995404	0.369473	0.250073
C47	C	1.245404	0.619473	0.500073
C48	C	1.495404	0.869473	0.750073
C49	C	0.530565	0.035566	0.000085
C50	C	0.780565	0.285566	0.250085
C51	C	1.030565	0.535566	0.500085
C52	C	1.280565	0.785566	0.750085
C53	C	0.469547	0.074520	-0.072916
C54	C	0.719547	0.324520	0.177084
C55	C	0.969547	0.574520	0.427084
C56	C	1.219547	0.824520	0.677084
C57	C	0.574679	0.116465	0.000083
C58	C	0.824679	0.366465	0.250083
C59	C	1.074679	0.616465	0.500083
C60	C	1.324679	0.866465	0.750083
C61	C	0.469549	0.074558	0.073064
C62	C	0.719549	0.324558	0.323064
C63	C	0.969549	0.574558	0.573064
C64	C	1.219549	0.824558	0.823064
C65	C	0.409767	0.113555	0.000097
C66	C	0.659767	0.363555	0.250097
C67	C	0.909767	0.613555	0.500097
C68	C	1.159767	0.863555	0.750097
C69	C	0.514889	0.155442	-0.072979
C70	C	0.764889	0.405442	0.177021
C71	C	1.014889	0.655442	0.427021
C72	C	1.264889	0.905442	0.677021
C73	C	0.514897	0.155468	0.073067
C74	C	0.764897	0.405468	0.323067
C75	C	1.014897	0.655468	0.573067
C76	C	1.264897	0.905468	0.823067
C77	C	0.453897	0.194481	0.000048
C78	C	0.703897	0.444481	0.250048
C79	C	0.953897	0.694481	0.500048
C80	C	1.203897	0.944481	0.750048
C81	C	0.669681	0.118140	0.000074
C82	C	0.919681	0.368140	0.250074
C83	C	1.169681	0.618140	0.500074
C84	C	1.419681	0.868140	0.750074
C85	C	0.314766	0.111886	0.000099
C86	C	0.564766	0.361886	0.250099
C87	C	0.814766	0.611886	0.500099
C88	C	1.064766	0.861886	0.750099
C89	C	0.998375	-0.038562	0.000084
C90	C	1.248375	0.211438	0.250084
C91	C	1.498375	0.461438	0.500084
C92	C	1.748375	0.711438	0.750084
C93	C	0.996733	-0.131810	0.000072
C94	C	1.246733	0.118190	0.250072
C95	C	1.496733	0.368190	0.500072
C96	C	1.746733	0.618190	0.750072
C97	C	1.072653	-0.367570	0.000095
C98	C	1.322653	-0.117570	0.250095
C99	C	1.572653	0.132430	0.500095
C100	C	1.822653	0.382430	0.750095
C101	C	1.031722	-0.418147	-0.072911
C102	C	1.281722	-0.168147	0.177089
C103	C	1.531722	0.081853	0.427089
C104	C	1.781722	0.331853	0.677089
C105	C	0.993688	-0.302531	0.000083
C106	C	1.243688	-0.052531	0.250083
C107	C	1.493688	0.197469	0.500083
C108	C	1.743688	0.447469	0.750083
C109	C	1.031683	-0.418105	0.073069
C110	C	1.281683	-0.168105	0.323069
C111	C	1.531683	0.081895	0.573069
C112	C	1.781683	0.331895	0.823069
C113	C	0.990754	-0.467441	0.000097
C114	C	1.240754	-0.217441	0.250097
C115	C	1.490754	0.032559	0.500097
C116	C	1.740754	0.282559	0.750097
C117	C	0.952779	-0.351880	-0.072984
C118	C	1.202779	-0.101880	0.177016
C119	C	1.452779	0.148120	0.427016
C120	C	1.702779	0.398120	0.677016
C121	C	0.952752	-0.351835	0.073061
C122	C	1.202752	-0.101835	0.323061
C123	C	1.452752	0.148165	0.573061
C124	C	1.702752	0.398165	0.823061
C125	C	0.911763	-0.402379	0.000037
C126	C	1.161763	-0.152379	0.250037
C127	C	1.411763	0.097621	0.500037
C128	C	1.661763	0.347621	0.750037
C129	C	0.995381	-0.207531	0.000074
C130	C	1.245381	0.042469	0.250074
C131	C	1.495381	0.292469	0.500074
C132	C	1.745381	0.542469	0.750074
C133	C	0.989055	-0.562438	0.000100
C134	C	1.239055	-0.312438	0.250100
C135	C	1.489055	-0.062438	0.500100
C136	C	1.739055	0.187562	0.750100
C137	C	1.145790	0.108888	0.000106
C138	C	1.395790	0.358888	0.250106
C139	C	1.645790	0.608888	0.500106
C140	C	1.895790	0.858888	0.750106
C141	C	1.239036	0.110550	0.000108
C142	C	1.489036	0.360550	0.250108
C143	C	1.739036	0.610550	0.500108
C144	C	1.989036	0.860550	0.750108
C145	C	0.986064	0.268584	0.000103
C146	C	1.236064	0.518584	0.250103
C147	C	1.486064	0.768584	0.500103
C148	C	1.736064	1.018584	0.750103
C149	C	0.987707	0.361833	0.000109
C150	C	1.237707	0.611833	0.250109
C151	C	1.487707	0.861833	0.500109
C152	C	1.737707	1.111833	0.750109
N153	N	0.992194	0.115039	0.230772
N154	N	1.242194	0.365039	0.480772
N155	N	1.492194	0.615039	0.730772
N156	N	1.742194	0.865039	0.980772
N157	N	0.992252	0.114976	-0.230584
N158	N	1.242252	0.364976	0.019416
N159	N	1.492252	0.614976	0.269416
N160	N	1.742252	0.864976	0.519416
C161	C	0.932545	0.174641	0.470454
C162	C	1.182545	0.424641	0.720454
C163	C	1.432545	0.674641	0.970454
C164	C	1.682545	0.924641	1.220454
C165	C	1.008442	0.190948	0.529796
C166	C	1.258442	0.440948	0.779796
C167	C	1.508442	0.690948	1.029796
C168	C	1.758442	0.940948	1.279796
C169	C	0.992215	0.115018	0.412379
C170	C	1.242215	0.365018	0.662379
C171	C	1.492215	0.615018	0.912379
C172	C	1.742215	0.865018	1.162379
C173	C	0.916339	0.098730	0.529779
C174	C	1.166339	0.348730	0.779779
C175	C	1.416339	0.598730	1.029779
C176	C	1.666339	0.848730	1.279779
C177	C	0.992229	0.115000	0.587803
C178	C	1.242229	0.365000	0.837803
C179	C	1.492229	0.615000	1.087803
C180	C	1.742229	0.865000	1.337803
C181	C	1.068151	0.131364	0.470415
C182	C	1.318151	0.381364	0.720415
C183	C	1.568151	0.631364	0.970415
C184	C	1.818151	0.881364	1.220415
C185	C	0.975998	0.039112	0.470392
C186	C	1.225998	0.289112	0.720392
C187	C	1.475998	0.539112	0.970392
C188	C	1.725998	0.789112	1.220392
C189	C	1.051950	0.055387	0.529708
C190	C	1.301950	0.305387	0.779708
C191	C	1.551950	0.555387	1.029708
C192	C	1.801950	0.805387	1.279708
C193	C	0.992206	0.115031	0.311322
C194	C	1.242206	0.365031	0.561322
C195	C	1.492206	0.615031	0.811322
C196	C	1.742206	0.865031	1.061322
C197	C	0.992247	0.114987	0.688859
C198	C	1.242247	0.364987	0.938859
C199	C	1.492247	0.614987	1.188859
C200	C	1.742247	0.864987	1.438859
H201	H	0.534878	0.189626	-0.134763
H202	H	0.784878	0.439626	0.115237
H203	H	1.034878	0.689626	0.365237
H204	H	1.284878	0.939626	0.615237
Br205	Br	1.175137	0.154436	0.427143
Br206	Br	1.425137	0.404436	0.677143
Br207	Br	1.675137	0.654436	0.927143
Br208	Br	1.925137	0.904436	1.177143
H209	H	1.065039	-0.447029	0.134786
H210	H	1.315039	-0.197029	0.384786
H211	H	1.565039	0.052971	0.634786
H212	H	1.815039	0.302971	0.884786
Br213	Br	0.586103	-0.076354	-0.000035
Br214	Br	0.836103	0.173646	0.249965
Br215	Br	1.086103	0.423646	0.499965
Br216	Br	1.336103	0.673646	0.749965
Br217	Br	0.436057	0.017482	-0.175793
Br218	Br	0.686057	0.267482	0.074207
Br219	Br	0.936057	0.517482	0.324207
Br220	Br	1.186057	0.767482	0.574207
Br221	Br	0.809382	0.075779	0.573246
Br222	Br	1.059382	0.325779	0.823246
Br223	Br	1.309382	0.575779	1.073246
Br224	Br	1.559382	0.825779	1.323246
Br225	Br	0.436067	0.017518	0.175926
Br226	Br	0.686067	0.267518	0.425926
Br227	Br	0.936067	0.517518	0.675926
Br228	Br	1.186067	0.767518	0.925926
Br229	Br	0.897221	-0.303528	0.175932
Br230	Br	1.147221	-0.053528	0.425932
Br231	Br	1.397221	0.196472	0.675932
Br232	Br	1.647221	0.446472	0.925932
H233	H	0.882134	0.225102	0.444437
H234	H	1.132134	0.475102	0.694437
H235	H	1.382134	0.725102	0.944437
H236	H	1.632134	0.975102	1.194437
H237	H	1.140671	-0.351942	0.000028
H238	H	1.390671	-0.101942	0.250028
H239	H	1.640671	0.148058	0.500028
H240	H	1.890671	0.398058	0.750028
Br241	Br	0.398603	0.306499	-0.000009
Br242	Br	0.648603	0.556499	0.249991
Br243	Br	0.898603	0.806499	0.499991
Br244	Br	1.148603	1.056499	0.749991
Br245	Br	0.798309	-0.428160	-0.000033
Br246	Br	1.048309	-0.178160	0.249967
Br247	Br	1.298309	0.071840	0.499967
Br248	Br	1.548309	0.321840	0.749967
H249	H	0.535013	0.189664	0.134791
H250	H	0.785013	0.439664	0.384791
H251	H	1.035013	0.689664	0.634791
H252	H	1.285013	0.939664	0.884791
Br253	Br	1.031329	0.297924	0.573285
Br254	Br	1.281329	0.547924	0.823285
Br255	Br	1.531329	0.797924	1.073285
Br256	Br	1.781329	1.047924	1.323285
H257	H	1.102473	0.004956	0.555562
H258	H	1.352473	0.254956	0.805562
H259	H	1.602473	0.504956	1.055562
H260	H	1.852473	0.754956	1.305562
Br261	Br	1.087315	-0.466407	-0.175776
Br262	Br	1.337315	-0.216407	0.074224
Br263	Br	1.587315	0.033593	0.324224
Br264	Br	1.837315	0.283593	0.574224
Br265	Br	0.897244	-0.303865	-0.175969
Br266	Br	1.147244	-0.053865	0.074031
Br267	Br	1.397244	0.196135	0.324031
Br268	Br	1.647244	0.446135	0.574031
H269	H	0.962245	-0.025052	0.444279
H270	H	1.212245	0.224948	0.694279
H271	H	1.462245	0.474948	0.944279
H272	H	1.712245	0.724948	1.194279
