data_functionalizedCrystal
_audit_creation_method	'MofGen! by Chris Wilmer'
_symmetry_space_group_name_H-M	'P1'
_symmetry_Int_Tables_number	1
_symmetry_cell_setting	triclinic
loop_
_symmetry_equiv_pos_as_xyz
  x,y,z
_cell_length_a	10.489746
_cell_length_b	8.559649
_cell_length_c	8.965430
_cell_angle_alpha	89.994896
_cell_angle_beta	90.000405
_cell_angle_gamma	102.840017
loop_
_atom_site_label
_atom_site_type_symbol
_atom_site_fract_x
_atom_site_fract_y
_atom_site_fract_z
O1	O	1.670332	-0.225224	0.123933
O2	O	1.296913	-0.246351	0.123957
O3	O	1.516521	-0.003565	0.123941
O4	O	1.450724	-0.468010	0.123948
O5	O	1.516511	-0.003546	-0.124138
O6	O	1.296903	-0.246333	-0.124122
O7	O	1.670322	-0.225205	-0.124146
Cu8	Cu	1.483612	-0.235767	-0.146786
Cu9	Cu	1.483623	-0.235789	0.146596
O10	O	1.450714	-0.467991	-0.124130
C11	C	1.249544	-0.244745	-0.000079
C12	C	1.108418	-0.239965	-0.000070
C13	C	0.972125	-0.082658	-0.000093
C14	C	1.041232	-0.161296	-0.122404
C15	C	1.041194	-0.161351	0.122183
C16	C	0.926065	-0.310168	-0.122518
C17	C	0.926023	-0.310201	0.122178
C18	C	0.995070	-0.388948	-0.000162
C19	C	1.521502	0.055917	-0.000096
C20	C	1.536345	0.233126	-0.000089
C21	C	1.717691	-0.226812	-0.000107
C22	C	1.858816	-0.231591	-0.000106
C23	C	1.445733	-0.527473	-0.000090
C24	C	1.430890	-0.704682	-0.000088
N25	N	1.483613	-0.235751	-0.353135
N26	N	1.483633	-0.235793	0.352945
C27	C	1.585357	-0.123705	0.450195
C28	C	1.595650	-0.268303	0.549665
C29	C	1.473375	-0.091166	0.549603
C30	C	1.493976	-0.380465	0.450227
C31	C	1.371661	-0.203232	0.450156
C32	C	1.381894	-0.347933	0.549581
H33	H	0.875913	-0.373024	0.225592
H34	H	1.329251	0.212993	-0.000086
C35	C	1.673663	0.344331	-0.000106
H36	H	1.737829	0.281552	-0.000115
H37	H	1.683947	0.410022	0.086395
H38	H	1.683935	0.410011	-0.086637
H39	H	1.091264	-0.098459	0.225589
H40	H	0.876166	-0.372989	-0.226042
C41	C	1.243807	-0.165977	0.391047
H42	H	1.236663	-0.063137	0.425010
H43	H	1.171476	-0.244533	0.426554
H44	H	1.244421	-0.167234	0.285096
H45	H	1.671429	-0.029043	0.406558
C46	C	1.723549	-0.305497	0.608728
H47	H	1.795751	-0.225774	0.574708
H48	H	1.731532	-0.407452	0.573242
H49	H	1.722279	-0.306171	0.714680
H50	H	0.961040	0.046845	-0.000219
H51	H	1.502748	-0.502788	0.406757
H52	H	1.295846	-0.442809	0.592944
C53	C	1.108911	-0.076366	-0.262098
H54	H	1.143807	-0.150179	-0.319684
H55	H	1.177597	0.010400	-0.232701
H56	H	1.047065	-0.036941	-0.320107
C57	C	1.009717	-0.564016	-0.000247
H58	H	0.969796	-0.616665	-0.087215
H59	H	0.968519	-0.617284	0.085816
H60	H	1.099886	-0.566098	0.000572
C61	C	1.461651	0.074033	0.608569
H62	H	1.534000	0.153524	0.574520
H63	H	1.460922	0.072588	0.714514
H64	H	1.382809	0.097917	0.573019
