data_functionalizedCrystal
_audit_creation_method	'MofGen! by Chris Wilmer'
_symmetry_space_group_name_H-M	'P1'
_symmetry_Int_Tables_number	1
_symmetry_cell_setting	triclinic
loop_
_symmetry_equiv_pos_as_xyz
  x,y,z
_cell_length_a	15.995292
_cell_length_b	9.065218
_cell_length_c	8.140239
_cell_angle_alpha	89.998670
_cell_angle_beta	89.997358
_cell_angle_gamma	84.242251
loop_
_atom_site_label
_atom_site_type_symbol
_atom_site_fract_x
_atom_site_fract_y
_atom_site_fract_z
O1	O	-1.112451	-0.189750	0.136651
O2	O	-0.868848	-0.213323	0.136644
O3	O	-0.995685	0.013226	0.136645
O4	O	-0.985615	-0.416299	0.136651
O5	O	-0.995681	0.013228	-0.136583
O6	O	-0.868844	-0.213321	-0.136583
O7	O	-1.112447	-0.189749	-0.136576
Zn8	Zn	-0.990645	-0.201535	-0.179960
Zn9	Zn	-0.990650	-0.201537	0.180028
O10	O	-0.985610	-0.416298	-0.136576
C11	C	-0.837643	-0.212362	0.000030
C12	C	-0.744669	-0.209486	0.000027
C13	C	-0.994715	0.068191	0.000034
C14	C	-0.991821	0.231964	0.000041
N15	N	-0.990647	-0.201532	-0.425643
C16	C	-1.143652	-0.190709	0.000042
C17	C	-1.236627	-0.193585	0.000056
C18	C	-0.406850	-0.198912	0.000045
C19	C	-0.431402	-0.362429	0.000658
C20	C	-0.528101	-0.365537	0.000035
C21	C	-0.574446	-0.204159	0.000037
C22	C	-0.544721	-0.122408	-0.155984
C23	C	-0.447916	-0.120439	-0.156108
C24	C	-0.448040	-0.117102	0.154602
C25	C	-0.544578	-0.123161	0.156657
C26	C	-0.669164	-0.207116	0.000027
C27	C	-0.312132	-0.195951	0.000045
C28	C	-0.986580	-0.471262	0.000038
C29	C	-0.989474	-0.635036	0.000041
N30	N	-0.990655	-0.201527	0.425711
H31	H	-0.547615	-0.429553	0.111882
H32	H	-0.403886	-0.425457	0.112549
H33	H	-0.402857	-0.425106	-0.110602
Cl34	Cl	-0.594094	0.058706	0.171206
Cl35	Cl	-0.557273	-0.464969	-0.172942
H36	H	-0.575689	-0.003655	-0.161785
H37	H	-0.433134	0.003258	0.155658
Cl38	Cl	-0.407169	-0.207858	-0.336171
Cl39	Cl	-0.424043	0.064653	-0.167146
H40	H	-0.563601	-0.182685	0.272081
Cl41	Cl	-0.576348	-0.210054	-0.335259
H42	H	-0.420102	-0.168212	0.272858
