data_functionalizedCrystal
_audit_creation_method	'MofGen! by Chris Wilmer'
_symmetry_space_group_name_H-M	'P1'
_symmetry_Int_Tables_number	1
_symmetry_cell_setting	triclinic
loop_
_symmetry_equiv_pos_as_xyz
  x,y,z
_cell_length_a	30.570087
_cell_length_b	30.570502
_cell_length_c	30.570330
_cell_angle_alpha	90.003752
_cell_angle_beta	120.002915
_cell_angle_gamma	60.000156
loop_
_atom_site_label
_atom_site_type_symbol
_atom_site_fract_x
_atom_site_fract_y
_atom_site_fract_z
O1	O	-0.385814	-0.300119	-0.013008
O2	O	-0.296247	-0.236499	0.012956
O3	O	-0.385816	-0.236505	-0.076618
O4	O	-0.296245	-0.300113	0.076566
O5	O	-0.313058	-0.309257	-0.076618
O6	O	-0.223489	-0.309251	0.012956
O7	O	-0.313056	-0.372871	-0.013007
Zn8	Zn	-0.256721	-0.352612	-0.000025
Zn9	Zn	-0.352582	-0.256758	-0.000026
O10	O	-0.223487	-0.372864	0.076567
C11	C	-0.128187	-0.159712	0.031453
C12	C	-0.154263	-0.107067	0.031823
C13	C	-0.048974	-0.159715	0.031450
C14	C	-0.075170	-0.107070	0.031819
C15	C	-0.128185	-0.080501	0.031450
C16	C	-0.075173	-0.186161	0.031822
C17	C	-0.134412	-0.239102	0.025029
C18	C	-0.163405	-0.264206	0.020974
C19	C	-0.217604	-0.237138	0.018939
C20	C	-0.249044	-0.264354	0.014540
C21	C	-0.242815	-0.184965	0.020965
C22	C	-0.213822	-0.159862	0.025022
C23	C	-0.159623	-0.186931	0.027052
C24	C	-0.214002	0.005112	0.025023
C25	C	-0.243164	0.059210	0.020965
C26	C	-0.218131	0.086340	0.018927
C27	C	-0.249749	0.144996	0.014524
C28	C	-0.163932	0.059378	0.020952
C29	C	-0.134770	0.005283	0.025012
C30	C	-0.159808	-0.021847	0.027045
C31	C	0.030208	-0.239108	0.025022
C32	C	0.080244	-0.264214	0.020956
C33	C	0.105341	-0.237148	0.018919
C34	C	0.159595	-0.264368	0.014516
C35	C	0.080408	-0.184977	0.020942
C36	C	0.030373	-0.159869	0.025005
C37	C	0.005275	-0.186937	0.027045
C38	C	-0.527036	-0.420693	-0.027221
C39	C	-0.581024	-0.393702	-0.023507
C40	C	-0.500836	-0.473337	-0.027591
C41	C	-0.447823	-0.420689	-0.027217
C42	C	-0.417116	-0.393694	-0.023500
C43	C	-0.421743	-0.473333	-0.027588
C44	C	-0.447820	-0.499903	-0.027220
C45	C	-0.417110	-0.557603	-0.023506
C46	C	-0.500839	-0.394244	-0.027588
C47	C	-0.392298	-0.604220	-0.020504
C48	C	-0.624640	-0.371896	-0.020506
C49	C	-0.392307	-0.371885	-0.020496
C50	C	-0.361171	-0.662702	-0.016740
C51	C	-0.679359	-0.344540	-0.016742
C52	C	-0.361183	-0.344524	-0.016727
C53	C	-0.481116	-0.159719	-0.400674
C54	C	-0.534133	-0.107076	-0.427121
C55	C	-0.481116	-0.159719	-0.321461
C56	C	-0.534133	-0.107077	-0.348028
C57	C	-0.560332	-0.080510	-0.400673
C58	C	-0.455038	-0.186165	-0.348029
C59	C	-0.395295	-0.239106	-0.400468
C60	C	-0.366131	-0.264210	-0.425403
C61	C	-0.391164	-0.237144	-0.477567
C62	C	-0.359543	-0.264360	-0.504604
C63	C	-0.445365	-0.184973	-0.504805
C64	C	-0.474529	-0.159871	-0.479872
C65	C	-0.449491	-0.186937	-0.427704
C66	C	-0.639520	0.005099	-0.480063
C67	C	-0.689563	0.059195	-0.505168
C68	C	-0.714660	0.086326	-0.478101
C69	C	-0.768917	0.144980	-0.505318
C70	C	-0.689725	0.059366	-0.425928
C71	C	-0.639687	0.005273	-0.400825
C72	C	-0.614584	-0.021858	-0.427892
C73	C	-0.395295	-0.239106	-0.235848
C74	C	-0.366126	-0.264208	-0.181749
C75	C	-0.391159	-0.237142	-0.154616
C76	C	-0.359538	-0.264358	-0.095960
C77	C	-0.445356	-0.184974	-0.181574
C78	C	-0.474524	-0.159869	-0.235672
C79	C	-0.449491	-0.186938	-0.262807
O80	O	0.304582	-0.372888	-0.013022
O81	O	0.177358	-0.309268	0.012939
O82	O	0.177353	-0.309277	-0.076634
O83	O	0.304587	-0.372880	0.076551
O84	O	0.177356	-0.236524	-0.076637
O85	O	0.177360	-0.236515	0.012936
O86	O	0.304585	-0.300135	-0.013024
Zn87	Zn	0.240973	-0.256774	-0.000045
Zn88	Zn	0.240970	-0.352629	-0.000041
O89	O	0.304590	-0.300127	0.076548
O90	O	-0.313045	0.317521	-0.013022
O91	O	-0.223477	0.164339	0.012938
O92	O	-0.313050	0.253903	-0.076635
O93	O	-0.223472	0.227957	0.076551
O94	O	-0.385805	0.253905	-0.076632
O95	O	-0.296232	0.164341	0.012941
O96	O	-0.385800	0.317523	-0.013019
Zn97	Zn	-0.352567	0.240933	-0.000038
Zn98	Zn	-0.256710	0.240930	-0.000043
O99	O	-0.296227	0.227959	0.076554
O100	O	-0.913910	0.317500	-0.541069
O101	O	-0.786677	0.164322	-0.477461
O102	O	-0.786680	0.253894	-0.477456
O103	O	-0.913906	0.227929	-0.541075
O104	O	-0.786682	0.253896	-0.550211
O105	O	-0.786679	0.164324	-0.550216
O106	O	-0.913911	0.317502	-0.613825
Zn107	Zn	-0.850295	0.240914	-0.593572
Zn108	Zn	-0.850293	0.240911	-0.497714
O109	O	-0.913908	0.227931	-0.613830
O110	O	-0.296240	-0.300117	-0.613830
O111	O	-0.385816	-0.236505	-0.550220
O112	O	-0.296244	-0.236501	-0.550215
O113	O	-0.385812	-0.300121	-0.613835
O114	O	-0.223488	-0.309252	-0.477460
O115	O	-0.313059	-0.309256	-0.477465
O116	O	-0.223484	-0.372868	-0.541075
Zn117	Zn	-0.256720	-0.352612	-0.497718
Zn118	Zn	-0.352580	-0.256761	-0.593576
O119	O	-0.313055	-0.372872	-0.541080
C120	C	-0.082255	-0.499883	0.338357
C121	C	-0.028266	-0.557582	0.365349
C122	C	-0.108453	-0.473317	0.364805
C123	C	-0.161471	-0.420673	0.259145
C124	C	-0.192181	-0.393681	0.201444
C125	C	-0.187549	-0.394227	0.285713
C126	C	-0.161470	-0.420674	0.338358
C127	C	-0.192179	-0.393683	0.365352
C128	C	-0.108454	-0.473316	0.285712
C129	C	-0.216989	-0.371877	0.387160
C130	C	0.015350	-0.604197	0.387155
C131	C	-0.216992	-0.371874	0.154826
C132	C	-0.248114	-0.344520	0.414519
C133	C	0.070070	-0.662677	0.414513
C134	C	-0.248117	-0.344517	0.096343
C135	C	0.552191	-0.420681	0.338341
C136	C	0.582902	-0.393688	0.365334
C137	C	0.578267	-0.473323	0.364789
C138	C	0.472972	-0.420683	0.259129
C139	C	0.418983	-0.393692	0.201427
C140	C	0.499169	-0.473325	0.285697
C141	C	0.552186	-0.499890	0.338342
C142	C	0.582893	-0.557589	0.365336
C143	C	0.499173	-0.394235	0.285696
C144	C	0.607701	-0.604204	0.387144
C145	C	0.607715	-0.371881	0.387141
C146	C	0.375366	-0.371887	0.154810
C147	C	0.638824	-0.662685	0.414503
C148	C	0.638843	-0.344522	0.414499
C149	C	0.320646	-0.344531	0.096326
C150	C	-0.161464	0.213805	0.338338
C151	C	-0.192172	0.217524	0.365332
C152	C	-0.108450	0.213439	0.364783
C153	C	-0.161463	0.213790	0.259126
C154	C	-0.192170	0.217494	0.201426
C155	C	-0.108449	0.213425	0.285691
C156	C	-0.082253	0.213805	0.338334
C157	C	-0.028268	0.217525	0.365324
C158	C	-0.187540	0.213425	0.285695
C159	C	0.015346	0.220531	0.387128
C160	C	-0.216982	0.220531	0.387140
C161	C	-0.216978	0.220488	0.154810
C162	C	0.070061	0.224302	0.414484
C163	C	-0.248106	0.224302	0.414500
C164	C	-0.248102	0.224242	0.096329
C165	C	-0.128207	-0.080538	-0.400693
C166	C	-0.154287	-0.107106	-0.427140
C167	C	-0.048993	-0.159745	-0.321480
C168	C	-0.075193	-0.186193	-0.348046
C169	C	-0.128211	-0.159748	-0.400692
C170	C	-0.075189	-0.107103	-0.348048
C171	C	-0.134425	0.005072	-0.400489
C172	C	-0.163415	0.059168	-0.425425
C173	C	-0.217617	0.086297	-0.477589
C174	C	-0.249055	0.144951	-0.504627
C175	C	-0.242832	0.059336	-0.504826
C176	C	-0.213842	0.005243	-0.479893
C177	C	-0.159640	-0.021886	-0.427725
C178	C	-0.214035	-0.159545	-0.480081
C179	C	-0.243201	-0.184480	-0.505186
C180	C	-0.218170	-0.236641	-0.478118
C181	C	-0.249793	-0.263678	-0.505335
C182	C	-0.163968	-0.263877	-0.425945
C183	C	-0.134802	-0.238944	-0.400842
C184	C	-0.159838	-0.186779	-0.427911
C185	C	0.030198	-0.159536	-0.235867
C186	C	0.080236	-0.184466	-0.181767
C187	C	0.105332	-0.236627	-0.154634
C188	C	0.159589	-0.263661	-0.095977
C189	C	0.080394	-0.263863	-0.181592
C190	C	0.030356	-0.238936	-0.235690
C191	C	0.005260	-0.186773	-0.262825
O192	O	0.703762	-0.835641	0.449772
O193	O	0.614192	-0.682463	0.386155
O194	O	0.703761	-0.772035	0.386155
O195	O	0.614193	-0.746069	0.449772
O196	O	0.776520	-0.772031	0.458908
O197	O	0.686951	-0.682459	0.458909
O198	O	0.776521	-0.835637	0.522526
Zn199	Zn	0.743288	-0.759047	0.502268
Zn200	Zn	0.647425	-0.759052	0.406412
O201	O	0.686952	-0.746065	0.522526
C202	C	-0.560309	0.272352	-0.400679
C203	C	-0.534111	0.272716	-0.427127
C204	C	-0.481098	0.272365	-0.321471
C205	C	-0.455020	0.272729	-0.348039
C206	C	-0.481096	0.272349	-0.400682
C207	C	-0.534113	0.272732	-0.348036
C208	C	-0.639494	0.265927	-0.400469
C209	C	-0.689534	0.261866	-0.425400
C210	C	-0.714630	0.259821	-0.477562
C211	C	-0.768884	0.255416	-0.504596
C212	C	-0.689694	0.261841	-0.504802
C213	C	-0.639659	0.265904	-0.479873
C214	C	-0.614559	0.267944	-0.427706
C215	C	-0.474872	0.265905	-0.480071
C216	C	-0.445879	0.261841	-0.505178
C217	C	-0.391680	0.259809	-0.478113
C218	C	-0.360240	0.255401	-0.505331
C219	C	-0.366469	0.261845	-0.425941
C220	C	-0.395462	0.265911	-0.400838
C221	C	-0.449661	0.267938	-0.427903
C222	C	-0.474878	0.265955	-0.235858
C223	C	-0.445882	0.261901	-0.181759
C224	C	-0.391683	0.259869	-0.154630
C225	C	-0.360245	0.255478	-0.095974
C226	C	-0.366470	0.261886	-0.181589
C227	C	-0.395461	0.265938	-0.235686
C228	C	-0.449665	0.267972	-0.262818
H229	H	-0.053239	-0.085745	0.032417
Br230	Br	-0.548081	-0.089071	-0.516832
H231	H	-0.412357	0.273323	-0.326708
H232	H	-0.090277	-0.261148	0.026688
Br233	Br	-0.723759	0.259067	-0.575599
Br234	Br	-0.361314	-0.275840	-0.329668
Br235	Br	-0.350638	-0.508884	-0.028575
H236	H	0.100540	-0.306692	0.019310
Br237	Br	-0.038642	-0.071553	-0.312496
Br238	Br	-0.537384	-0.508888	-0.028598
H239	H	-0.086525	-0.494646	0.264384
H240	H	-0.086518	-0.494645	0.408063
Br241	Br	0.462636	-0.322148	0.250140
Br242	Br	-0.061216	-0.031310	0.027765
H243	H	-0.230211	-0.350974	0.264382
H244	H	-0.522766	-0.350990	-0.028180
H245	H	-0.086525	0.212848	0.408038
H246	H	-0.086527	0.212827	0.264357
H247	H	-0.412365	-0.229413	-0.326696
Br248	Br	-0.723374	0.259130	-0.388435
Br249	Br	0.114450	-0.334657	-0.144765
H250	H	-0.234390	-0.016976	0.026682
H251	H	-0.230208	0.212838	0.264365
H252	H	-0.556052	-0.085747	-0.326693
Br253	Br	-0.480096	0.259080	-0.575978
Br254	Br	-0.605455	-0.031720	-0.516800
Br255	Br	-0.038656	-0.258282	-0.312495
Br256	Br	-0.605849	-0.031318	-0.330025
H257	H	0.620928	-0.494649	0.408045
H258	H	-0.518651	-0.117390	-0.257620
H259	H	-0.196954	-0.085774	-0.470393
H260	H	0.010073	-0.117390	0.026652
Br261	Br	-0.570688	-0.071530	-0.499218
Br262	Br	0.114463	-0.148238	0.018167
H263	H	0.009768	-0.117063	-0.257959
Br264	Br	-0.292570	-0.335004	-0.145163
Br265	Br	0.462598	-0.508864	0.250162
Br266	Br	0.114075	-0.147499	-0.145184
Br267	Br	-0.060864	-0.031745	-0.329689
Br268	Br	-0.129192	0.095752	-0.388463
H269	H	-0.286972	0.081434	-0.547304
Br270	Br	-0.292911	0.259093	-0.389211
H271	H	-0.556039	0.273330	-0.326706
H272	H	-0.374910	-0.261151	-0.257940
H273	H	-0.519006	0.267559	-0.502114
Br274	Br	-0.605808	0.268631	-0.516831
H275	H	-0.322002	-0.306686	-0.403222
Br276	Br	-0.248077	-0.031340	-0.516843
Br277	Br	-0.361252	0.268674	-0.330038
H278	H	-0.234421	-0.117070	-0.502127
Br279	Br	-0.479325	-0.148232	-0.144747
Br280	Br	-0.316713	0.095795	0.018221
H281	H	-0.556042	0.273309	-0.470383
Br282	Br	-0.316753	-0.147518	-0.575991
Br283	Br	-0.129995	-0.334674	-0.389210
Br284	Br	-0.479340	-0.148240	-0.575605
H285	H	-0.090668	-0.261123	-0.358365
H286	H	0.010051	-0.261114	-0.257637
Br287	Br	-0.480102	0.259164	-0.145175
Br288	Br	-0.548442	0.268718	-0.272680
Br289	Br	-0.723403	0.095777	-0.575972
H290	H	-0.619063	0.267592	-0.357993
Br291	Br	-0.003847	-0.275846	0.027795
Br292	Br	-0.361241	0.268672	-0.272273
Br293	Br	-0.292905	0.259122	-0.144767
Br294	Br	-0.723794	0.096190	-0.389194
H295	H	-0.053251	-0.229416	0.032418
Br296	Br	-0.225352	-0.071519	0.032835
H297	H	-0.286950	-0.162927	0.019308
Br298	Br	-0.129189	-0.335009	0.018229
H299	H	-0.234347	-0.117384	0.026675
H300	H	-0.143552	0.081476	0.019294
