data_functionalizedCrystal
_audit_creation_method	'MofGen! by Chris Wilmer'
_symmetry_space_group_name_H-M	'P1'
_symmetry_Int_Tables_number	1
_symmetry_cell_setting	triclinic
loop_
_symmetry_equiv_pos_as_xyz
  x,y,z
_cell_length_a	14.908783
_cell_length_b	14.908178
_cell_length_c	14.908694
_cell_angle_alpha	90.159098
_cell_angle_beta	83.203601
_cell_angle_gamma	96.402596
loop_
_atom_site_label
_atom_site_type_symbol
_atom_site_fract_x
_atom_site_fract_y
_atom_site_fract_z
Zn1	Zn	1.394306	-0.311861	-0.572659
Zn2	Zn	1.376743	-0.454522	-0.412548
Zn3	Zn	1.234201	-0.311885	-0.412562
Zn4	Zn	1.233167	-0.470907	-0.554115
O5	O	1.309604	-0.387294	-0.487971
O6	O	1.519068	-0.323918	-0.559174
O7	O	1.350917	-0.428754	-0.286302
O8	O	1.263222	-0.185627	-0.441566
O9	O	1.506164	-0.428730	-0.441541
O10	O	1.380850	-0.185609	-0.559188
O11	O	1.246192	-0.323960	-0.286313
O12	O	1.106972	-0.339847	-0.423585
O13	O	1.261460	-0.456656	-0.682822
O14	O	1.106212	-0.456680	-0.527583
O15	O	1.379848	-0.339806	-0.696446
O16	O	1.349915	-0.582951	-0.423560
O17	O	1.244430	-0.594989	-0.527569
C18	C	1.073639	-0.400045	-0.473574
C19	C	0.972691	-0.405523	-0.467435
C20	C	0.796435	-0.306843	-0.578556
C21	C	0.701587	-0.311987	-0.572791
C22	C	0.688144	-0.420949	-0.450136
C23	C	0.782993	-0.415805	-0.455901
C24	C	0.837135	-0.358751	-0.520114
C25	C	0.931985	-0.353612	-0.525883
C26	C	0.918541	-0.462570	-0.403224
C27	C	0.823693	-0.467714	-0.397459
C28	C	1.295180	-0.621706	-0.473572
C29	C	1.289094	-0.721986	-0.467447
C30	C	1.400063	-0.910265	-0.578536
C31	C	1.394348	-1.004486	-0.572785
C32	C	1.271945	-1.004653	-0.450197
C33	C	1.277660	-0.910431	-0.455949
C34	C	1.341722	-0.863240	-0.520120
C35	C	1.347441	-0.769016	-0.525866
C36	C	1.225034	-0.769185	-0.403284
C37	C	1.219319	-0.863407	-0.397532
C38	C	1.546491	-0.374494	-0.502425
C39	C	1.647438	-0.369039	-0.508584
C40	C	1.322498	-0.400056	-0.723284
C41	C	1.327992	-0.405494	-0.823560
C42	C	1.324110	-0.151966	-0.502447
C43	C	1.330292	-0.051683	-0.508616
C44	C	1.229245	-0.306595	-1.012001
C45	C	1.234405	-0.311702	-1.106220
C46	C	1.343465	-0.420820	-1.106217
C47	C	1.338306	-0.415713	-1.011998
C48	C	1.281195	-0.358597	-0.964894
C49	C	1.276041	-0.353486	-0.870674
C50	C	1.385096	-0.462608	-0.870672
C51	C	1.390256	-0.467715	-0.964891
C52	C	1.296817	-0.374513	-0.253581
C53	C	1.291514	-0.368811	-0.153331
H54	H	0.951689	-0.504845	-0.355642
H55	H	0.779597	-0.514163	-0.345175
H56	H	1.441851	-1.042770	-0.620358
C57	C	1.467843	-0.778321	-0.646472
C58	C	1.417849	-0.717142	-0.596408
H59	H	1.511304	-0.746296	-0.690028
H60	H	1.498242	-0.811040	-0.607079
H61	H	1.427886	-0.819108	-0.676276
H62	H	1.457805	-0.676359	-0.566599
H63	H	1.387449	-0.684408	-0.635807
C64	C	1.450745	-0.528173	-1.096761
C65	C	1.406233	-0.483602	-1.158003
H66	H	1.489490	-0.566936	-1.128733
H67	H	1.485898	-0.484994	-1.064557
H68	H	1.407030	-0.562830	-1.055468
H69	H	1.449948	-0.448940	-1.199293
H70	H	1.371078	-0.526787	-1.190222
H71	H	0.668453	-0.269715	-0.620379
H72	H	1.452231	-0.871840	-0.630781
C73	C	0.536775	-0.477197	-0.386833
C74	C	0.628620	-0.483652	-0.379551
H75	H	0.500030	-0.515911	-0.343259
H76	H	0.524251	-0.416693	-0.376509
H77	H	0.523755	-0.494624	-0.445670
H78	H	0.641642	-0.466218	-0.320717
H79	H	0.641150	-0.544169	-0.389869
H80	H	1.229542	-0.306976	-0.832324
H81	H	1.219785	-1.043092	-0.397957
H82	H	1.167160	-0.901843	-0.345288
H83	H	1.177532	-0.730887	-0.355714
H84	H	1.182752	-0.260081	-0.973649
C85	C	1.126092	-0.203326	-1.096755
C86	C	1.177305	-0.254535	-1.158002
H87	H	1.090843	-0.168029	-1.128726
H88	H	1.086919	-0.242523	-1.055473
H89	H	1.165784	-0.164685	-1.064542
H90	H	1.137611	-0.293181	-1.190211
H91	H	1.216481	-0.215333	-1.199300
H92	H	1.436750	-0.514220	-1.003256
C93	C	1.425615	-0.503236	-0.726243
C94	C	1.442201	-0.519778	-0.818889
H95	H	1.460867	-0.538533	-0.694276
H96	H	1.441797	-0.441068	-0.715347
H97	H	1.362932	-0.518906	-0.706271
H98	H	1.504883	-0.504102	-0.838862
H99	H	1.426025	-0.581960	-0.829791
H100	H	0.840519	-0.260391	-0.630845
H101	H	0.976067	-0.307157	-0.578170
