data_functionalizedCrystal
_audit_creation_method	'MofGen! by Chris Wilmer'
_symmetry_space_group_name_H-M	'P1'
_symmetry_Int_Tables_number	1
_symmetry_cell_setting	triclinic
loop_
_symmetry_equiv_pos_as_xyz
  x,y,z
_cell_length_a	11.169409
_cell_length_b	11.169417
_cell_length_c	21.395361
_cell_angle_alpha	90.031587
_cell_angle_beta	89.958542
_cell_angle_gamma	89.980176
loop_
_atom_site_label
_atom_site_type_symbol
_atom_site_fract_x
_atom_site_fract_y
_atom_site_fract_z
Zn1	Zn	-0.678467	1.834792	-0.249373
Zn2	Zn	-0.477752	1.834610	-0.354169
Zn3	Zn	-0.477801	1.634078	-0.249411
Zn4	Zn	-0.678396	1.634015	-0.354118
O5	O	-0.578104	1.734374	-0.301768
O6	O	-0.651850	2.002718	-0.263280
O7	O	-0.309808	1.807960	-0.340310
O8	O	-0.504470	1.660806	-0.161728
O9	O	-0.504386	2.002584	-0.340273
O10	O	-0.651898	1.808270	-0.161700
O11	O	-0.309845	1.660630	-0.263345
O12	O	-0.504402	1.466120	-0.263296
O13	O	-0.846356	1.660698	-0.340186
O14	O	-0.651778	1.466073	-0.340223
O15	O	-0.846407	1.808208	-0.263230
O16	O	-0.504318	1.807898	-0.441841
O17	O	-0.651730	1.660521	-0.441803
C18	C	-0.578088	1.422549	-0.301759
C19	C	-0.578110	1.289149	-0.301770
C20	C	-0.891147	1.734466	-0.301699
C21	C	-1.024547	1.734505	-0.301669
C22	C	-0.266279	1.734351	-0.301792
C23	C	-0.132880	1.734545	-0.301645
C24	C	-0.578037	1.734216	-0.464556
C25	C	-0.578049	1.734258	-0.534197
C26	C	-0.578120	2.047416	-0.301778
C27	C	-0.578127	2.180816	-0.301782
C28	C	-0.501369	1.811065	-0.566909
C29	C	-0.501396	1.811121	-0.632344
C30	C	-0.578090	1.734348	-0.665065
C31	C	-0.654784	1.657535	-0.632346
C32	C	-0.654764	1.657490	-0.566911
C33	C	-0.587501	1.626283	-0.768780
C34	C	-0.587513	1.626327	-0.834213
C35	C	-0.578160	1.734488	-0.866886
C36	C	-0.568770	1.842609	-0.834118
C37	C	-0.568749	1.842564	-0.768684
C38	C	-0.578121	1.734389	-0.736018
C39	C	-0.501506	1.811362	-0.970550
C40	C	-0.501541	1.811420	-1.035987
C41	C	-0.654923	1.657823	-1.035987
C42	C	-0.654894	1.657776	-0.970552
C43	C	-0.578179	1.734544	-0.937837
C44	C	-0.578197	1.734566	-0.138345
C45	C	-0.578237	1.734647	-0.068703
H46	H	-0.438907	1.873576	-0.540275
C47	C	-0.739273	1.573306	-0.934567
N48	N	-0.802845	1.509692	-0.907464
H49	H	-0.439102	1.873973	-1.062620
C50	C	-0.558490	1.961597	-0.870054
N51	N	-0.550749	2.051215	-0.897124
C52	C	-0.417137	1.895824	-0.934562
N53	N	-0.353593	1.959447	-0.907458
H54	H	-0.595123	1.538199	-0.742183
H55	H	-0.595148	1.538287	-0.860887
H56	H	-0.717231	1.595028	-0.658991
C57	C	-0.739136	1.573007	-0.530927
N58	N	-0.802691	1.509378	-0.503823
C59	C	-0.739289	1.573374	-1.071976
N60	N	-0.802838	1.509767	-1.099087
H61	H	-0.561106	1.930598	-0.742006
C62	C	-0.417033	1.895611	-0.668334
N63	N	-0.353488	1.959247	-0.695440
