data_functionalizedCrystal
_audit_creation_method	'MofGen! by Chris Wilmer'
_symmetry_space_group_name_H-M	'P1'
_symmetry_Int_Tables_number	1
_symmetry_cell_setting	triclinic
loop_
_symmetry_equiv_pos_as_xyz
  x,y,z
_cell_length_a	23.532407
_cell_length_b	17.038272
_cell_length_c	16.098538
_cell_angle_alpha	92.930266
_cell_angle_beta	92.700973
_cell_angle_gamma	93.019883
loop_
_atom_site_label
_atom_site_type_symbol
_atom_site_fract_x
_atom_site_fract_y
_atom_site_fract_z
O1	O	0.121251	-1.039966	-0.069166
O2	O	0.454585	-0.706633	0.264167
O3	O	0.787918	-0.373299	0.597500
O4	O	0.119288	-0.812351	-0.069191
O5	O	0.452621	-0.479018	0.264143
O6	O	0.785954	-0.145684	0.597476
O7	O	0.037699	-0.933021	-0.069163
O8	O	0.371033	-0.599688	0.264171
O9	O	0.704366	-0.266355	0.597504
O10	O	0.202840	-0.919295	-0.069195
O11	O	0.536173	-0.585962	0.264139
O12	O	0.869506	-0.252629	0.597472
O13	O	0.042445	-0.925973	0.069349
O14	O	0.375779	-0.592639	0.402682
O15	O	0.709112	-0.259306	0.736015
O16	O	0.124034	-0.805302	0.069321
O17	O	0.457367	-0.471969	0.402654
O18	O	0.790700	-0.138635	0.735987
O19	O	0.125997	-1.032917	0.069345
O20	O	0.459331	-0.699584	0.402678
O21	O	0.792664	-0.366250	0.736012
Zn22	Zn	0.125769	-0.917990	0.091324
Zn23	Zn	0.459102	-0.584657	0.424658
Zn24	Zn	0.792436	-0.251324	0.757991
Zn25	Zn	0.119516	-0.927278	-0.091170
Zn26	Zn	0.452849	-0.593944	0.242163
Zn27	Zn	0.786183	-0.260611	0.575496
O28	O	0.207586	-0.912247	0.069317
O29	O	0.540919	-0.578913	0.402650
O30	O	0.874252	-0.245580	0.735983
C31	C	0.018838	-0.929147	0.000095
C32	C	0.352171	-0.595814	0.333429
C33	C	0.685505	-0.262481	0.666762
C34	C	-0.044434	-0.928096	0.000101
C35	C	0.288899	-0.594763	0.333435
C36	C	0.622232	-0.261429	0.666768
C37	C	0.119875	-0.779712	0.000062
C38	C	0.453208	-0.446378	0.333395
C39	C	0.786542	-0.113045	0.666729
C40	C	0.114548	-0.692959	0.000054
C41	C	0.447882	-0.359625	0.333387
C42	C	0.781215	-0.026292	0.666720
C43	C	0.125410	-1.065556	0.000090
C44	C	0.458743	-0.732223	0.333424
C45	C	0.792076	-0.398890	0.666757
C46	C	0.130737	-1.152310	0.000093
C47	C	0.464070	-0.818976	0.333427
C48	C	0.797403	-0.485643	0.666760
C49	C	-0.440131	-0.992917	0.000063
C50	C	-0.106798	-0.659584	0.333396
C51	C	0.226536	-0.326250	0.666729
C52	C	-0.499583	-0.991941	0.000056
C53	C	-0.166249	-0.658608	0.333390
C54	C	0.167084	-0.325274	0.666723
O55	O	-0.533169	-1.052030	0.000032
O56	O	-0.199836	-0.718697	0.333365
O57	O	0.133497	-0.385363	0.666699
N58	N	-0.525981	-0.920202	0.000049
N59	N	-0.192647	-0.586869	0.333383
N60	N	0.140686	-0.253535	0.666716
C61	C	-0.492924	-0.849435	0.000040
C62	C	-0.159590	-0.516101	0.333374
C63	C	0.173743	-0.182768	0.666707
O64	O	-0.520836	-0.788325	0.000033
O65	O	-0.187503	-0.454992	0.333366
O66	O	0.145830	-0.121659	0.666699
C67	C	-0.433473	-0.850412	0.000041
C68	C	-0.100140	-0.517079	0.333374
C69	C	0.233193	-0.183745	0.666707
C70	C	-0.407078	-0.922155	0.000056
C71	C	-0.073745	-0.588822	0.333389
C72	C	0.259588	-0.255488	0.666723
C73	C	-0.413736	-1.064654	0.000077
C74	C	-0.080403	-0.731321	0.333411
C75	C	0.252931	-0.397988	0.666744
C76	C	-0.354288	-1.065630	0.000085
C77	C	-0.020955	-0.732297	0.333419
C78	C	0.312379	-0.398963	0.666752
C79	C	-0.321236	-0.994868	0.000079
C80	C	0.012098	-0.661535	0.333412
C81	C	0.345431	-0.328201	0.666745
C82	C	-0.347631	-0.923131	0.000064
C83	C	-0.014297	-0.589797	0.333397
C84	C	0.319036	-0.256464	0.666731
C85	C	-0.400418	-0.779646	0.000026
C86	C	-0.067084	-0.446312	0.333359
C87	C	0.266249	-0.112979	0.666692
C88	C	-0.340963	-0.780629	0.000025
C89	C	-0.007630	-0.447296	0.333359
C90	C	0.325703	-0.113963	0.666692
C91	C	-0.314569	-0.852372	0.000041
C92	C	0.018765	-0.519039	0.333374
C93	C	0.352098	-0.185706	0.666708
C94	C	-0.255130	-0.853344	0.000066
C95	C	0.078203	-0.520011	0.333399
C96	C	0.411536	-0.186678	0.666732
N97	N	-0.228732	-0.925083	0.000073
N98	N	0.104601	-0.591750	0.333406
N99	N	0.437934	-0.258417	0.666739
C100	C	-0.261785	-0.995845	0.000079
C101	C	0.071548	-0.662512	0.333412
C102	C	0.404882	-0.329179	0.666746
C103	C	-0.617774	-0.847388	0.000038
C104	C	-0.284441	-0.514055	0.333371
C105	C	0.048893	-0.180721	0.666704
C106	C	-0.677223	-0.846410	0.000043
C107	C	-0.343890	-0.513077	0.333377
C108	C	-0.010556	-0.179743	0.666710
C109	C	-0.683878	-0.988917	0.000058
C110	C	-0.350545	-0.655583	0.333391
C111	C	-0.017211	-0.322250	0.666724
C112	C	-0.624428	-0.989894	0.000058
C113	C	-0.291094	-0.656560	0.333392
C114	C	0.042239	-0.323227	0.666725
C115	C	-0.591376	-0.919127	0.000045
C116	C	-0.258043	-0.585794	0.333378
C117	C	0.075291	-0.252461	0.666711
C118	C	-0.136940	-0.997889	0.000097
C119	C	0.196393	-0.664555	0.333430
C120	C	0.529726	-0.331222	0.666763
C121	C	-0.077487	-0.998858	0.000108
C122	C	0.255847	-0.665525	0.333441
C123	C	0.589180	-0.332191	0.666775
C124	C	-0.070837	-0.856352	0.000089
C125	C	0.262496	-0.523019	0.333422
C126	C	0.595829	-0.189685	0.666756
C127	C	-0.130285	-0.855382	0.000082
C128	C	0.203048	-0.522049	0.333415
C129	C	0.536381	-0.188715	0.666749
C130	C	-0.163336	-0.926157	0.000083
C131	C	0.169998	-0.592824	0.333416
C132	C	0.503331	-0.259490	0.666750
O133	O	-0.221508	-0.793287	0.000086
O134	O	0.111826	-0.459954	0.333420
O135	O	0.445159	-0.126620	0.666753
O136	O	-0.233865	-1.056945	0.000076
O137	O	0.099468	-0.723612	0.333409
O138	O	0.432802	-0.390278	0.666742
C139	C	0.226447	-0.916121	0.000057
C140	C	0.559780	-0.582787	0.333391
C141	C	0.893114	-0.249454	0.666724
C142	C	0.289719	-0.917172	0.000045
C143	C	0.623052	-0.583839	0.333379
C144	C	0.956386	-0.250506	0.666712
N145	N	0.130036	-0.911658	0.215872
N146	N	0.463370	-0.578325	0.549205
N147	N	0.796703	-0.244991	0.882539
C148	C	0.163453	-0.642483	0.000045
C149	C	0.496786	-0.309149	0.333378
C150	C	0.830119	0.024184	0.666711
C151	C	0.158445	-0.560969	0.000057
C152	C	0.491778	-0.227635	0.333391
C153	C	0.825111	0.105698	0.666724
C154	C	0.104532	-0.529932	0.000072
C155	C	0.437865	-0.196599	0.333406
C156	C	0.771198	0.136734	0.666739
C157	C	0.055624	-0.580415	0.000084
C158	C	0.388957	-0.247081	0.333417
C159	C	0.722290	0.086252	0.666750
C160	C	0.060632	-0.661927	0.000077
C161	C	0.393966	-0.328593	0.333411
C162	C	0.727299	0.004740	0.666744
C163	C	0.086837	-0.284304	0.000098
C164	C	0.420171	0.049029	0.333432
C165	C	0.753504	0.382362	0.666765
C166	C	0.081832	-0.202786	0.000102
C167	C	0.415165	0.130548	0.333436
C168	C	0.748499	0.463881	0.666769
C169	C	0.184654	-0.183345	0.000077
C170	C	0.517987	0.149988	0.333410
C171	C	0.851320	0.483321	0.666744
C172	C	0.189657	-0.264860	0.000066
C173	C	0.522991	0.068473	0.333399
C174	C	0.856324	0.401807	0.666732
C175	C	0.140750	-0.315335	0.000081
C176	C	0.474083	0.017998	0.333415
C177	C	0.807416	0.351332	0.666748
C178	C	0.099411	-0.446612	0.000083
C179	C	0.432745	-0.113279	0.333416
C180	C	0.766078	0.220054	0.666749
C181	C	0.145871	-0.398653	0.000077
C182	C	0.479204	-0.065320	0.333410
C183	C	0.812537	0.268013	0.666744
N184	N	0.115244	-0.933616	-0.215718
N185	N	0.448578	-0.600283	0.117615
N186	N	0.781911	-0.266950	0.450949
C187	C	0.095421	-0.962894	0.259469
C188	C	0.428754	-0.629560	0.592802
C189	C	0.762088	-0.296227	0.926136
C190	C	0.098412	-0.958471	0.346657
C191	C	0.431745	-0.625138	0.679990
C192	C	0.765079	-0.291804	1.013324
C193	C	0.136022	-0.902816	0.390246
C194	C	0.469355	-0.569482	0.723580
C195	C	0.802688	-0.236149	1.056913
C196	C	0.170639	-0.851574	0.346643
C197	C	0.503972	-0.518241	0.679977
C198	C	0.837305	-0.184908	1.013310
C199	C	0.167644	-0.855994	0.259457
C200	C	0.500978	-0.522661	0.592790
C201	C	0.834311	-0.189327	0.926124
C202	C	0.146867	-0.886795	0.653493
C203	C	0.480200	-0.553461	0.986826
C204	C	0.813533	-0.220128	1.320159
C205	C	0.149860	-0.882380	0.740685
C206	C	0.483193	-0.549047	1.074018
C207	C	0.816526	-0.215714	1.407352
C208	C	0.077632	-0.989277	0.740693
C209	C	0.410966	-0.655943	1.074026
C210	C	0.744299	-0.322610	1.407359
C211	C	0.074644	-0.993694	0.653505
C212	C	0.407977	-0.660361	0.986838
C213	C	0.741310	-0.327028	1.320171
C214	C	0.109258	-0.942450	0.609909
C215	C	0.442591	-0.609117	0.943243
C216	C	0.775925	-0.275784	1.276576
C217	C	0.139081	-0.898295	0.479366
C218	C	0.472415	-0.564962	0.812700
C219	C	0.805748	-0.231629	1.146033
C220	C	0.106195	-0.946968	0.520791
C221	C	0.439529	-0.613634	0.854124
C222	C	0.772862	-0.280301	1.187457
H223	H	-0.055999	-1.057282	0.000123
H224	H	0.277334	-0.723949	0.333456
H225	H	0.610667	-0.390615	0.666789
Cl226	Cl	-0.000850	-0.725383	0.000092
Cl227	Cl	0.332483	-0.392050	0.333425
Cl228	Cl	0.665816	-0.058716	0.666759
Cl229	Cl	0.027363	-1.063663	0.598707
Cl230	Cl	0.360697	-0.730329	0.932040
Cl231	Cl	0.694030	-0.396996	1.265373
H232	H	-0.710801	-1.046535	0.000060
H233	H	-0.377467	-0.713202	0.333393
H234	H	-0.044134	-0.379868	0.666727
Cl235	Cl	0.257436	-0.303871	0.000041
Cl236	Cl	0.590770	0.029462	0.333374
Cl237	Cl	0.924103	0.362796	0.666707
H238	H	0.224472	-0.142240	0.000066
H239	H	0.557805	0.191093	0.333399
H240	H	0.891138	0.524426	0.666733
Cl241	Cl	0.197146	-0.812408	0.795477
Cl242	Cl	0.530479	-0.479075	1.128811
Cl243	Cl	0.863813	-0.145741	1.462144
Cl244	Cl	0.190383	-0.822378	0.598693
Cl245	Cl	0.523717	-0.489045	0.932026
Cl246	Cl	0.857050	-0.155712	1.265359
Cl247	Cl	-0.178480	-1.086864	0.000099
Cl248	Cl	0.154853	-0.753531	0.333433
Cl249	Cl	0.488186	-0.420198	0.666766
H250	H	0.075571	-0.992280	0.485298
H251	H	0.408905	-0.658946	0.818631
H252	H	0.742238	-0.325613	1.151965
Cl253	Cl	-0.321116	-1.155828	0.000081
Cl254	Cl	0.012217	-0.822494	0.333414
Cl255	Cl	0.345551	-0.489161	0.666748
Cl256	Cl	-0.591252	-1.080088	0.000077
Cl257	Cl	-0.257919	-0.746755	0.333410
Cl258	Cl	0.075415	-0.413422	0.666743
Cl259	Cl	-0.576229	-0.758415	0.000030
Cl260	Cl	-0.242895	-0.425081	0.333364
Cl261	Cl	0.090438	-0.091748	0.666697
Cl262	Cl	0.014051	-0.163770	0.000140
Cl263	Cl	0.347385	0.169564	0.333474
Cl264	Cl	0.680718	0.502897	0.666807
Cl265	Cl	0.025352	-0.347748	0.000117
Cl266	Cl	0.358685	-0.014414	0.333450
Cl267	Cl	0.692019	0.318919	0.666784
Cl268	Cl	0.231232	-0.681491	0.000020
Cl269	Cl	0.564566	-0.348158	0.333353
Cl270	Cl	0.897899	-0.014825	0.666687
H271	H	-0.698708	-0.787989	0.000045
H272	H	-0.365375	-0.454655	0.333378
H273	H	-0.032041	-0.121322	0.666712
Cl274	Cl	-0.455277	-1.153625	0.000087
Cl275	Cl	-0.121944	-0.820292	0.333420
Cl276	Cl	0.211389	-0.486958	0.666754
H277	H	0.169705	-0.852981	0.514864
H278	H	0.503038	-0.519648	0.848197
H279	H	0.836372	-0.186314	1.181531
H280	H	-0.421898	-0.721225	0.000008
H281	H	-0.088565	-0.387892	0.333341
H282	H	0.244769	-0.054558	0.666675
H283	H	0.011727	-0.555138	0.000108
H284	H	0.345060	-0.221805	0.333442
H285	H	0.678394	0.111529	0.666775
H286	H	0.189766	-0.423926	0.000069
H287	H	0.523100	-0.090593	0.333403
H288	H	0.856433	0.242740	0.666736
H289	H	0.055516	-0.421332	0.000119
H290	H	0.388849	-0.087999	0.333452
H291	H	0.722183	0.245334	0.666785
Cl292	Cl	0.048141	-1.032868	0.204680
Cl293	Cl	0.381474	-0.699535	0.538014
Cl294	Cl	0.714807	-0.366202	0.871347
Cl295	Cl	0.219928	-0.497516	0.000041
Cl296	Cl	0.553261	-0.164183	0.333374
Cl297	Cl	0.886594	0.169150	0.666708
H298	H	-0.314056	-0.723001	0.000013
H299	H	0.019278	-0.389668	0.333347
H300	H	0.352611	-0.056334	0.666680
Cl301	Cl	-0.163468	-0.765189	0.000078
Cl302	Cl	0.169866	-0.431856	0.333412
Cl303	Cl	0.503199	-0.098522	0.666745
Cl304	Cl	0.054894	-1.022882	0.401466
Cl305	Cl	0.388228	-0.689549	0.734800
Cl306	Cl	0.721561	-0.356216	1.068133
H307	H	-0.043915	-0.798739	0.000087
H308	H	0.289418	-0.465406	0.333420
H309	H	0.622752	-0.132073	0.666753
H310	H	0.049450	-1.030996	0.776196
H311	H	0.382783	-0.697663	1.109530
H312	H	0.716117	-0.364330	1.442863
Cl313	Cl	0.217917	-0.781603	0.401439
Cl314	Cl	0.551251	-0.448269	0.734773
Cl315	Cl	0.884584	-0.114936	1.068106
Cl316	Cl	0.211161	-0.791577	0.204650
Cl317	Cl	0.544494	-0.458244	0.537983
Cl318	Cl	0.877827	-0.124910	0.871317
