data_functionalizedCrystal
_audit_creation_method	'MofGen! by Chris Wilmer'
_symmetry_space_group_name_H-M	'P1'
_symmetry_Int_Tables_number	1
_symmetry_cell_setting	triclinic
loop_
_symmetry_equiv_pos_as_xyz
  x,y,z
_cell_length_a	17.077402
_cell_length_b	25.639243
_cell_length_c	25.639234
_cell_angle_alpha	89.986394
_cell_angle_beta	90.017557
_cell_angle_gamma	89.973827
loop_
_atom_site_label
_atom_site_type_symbol
_atom_site_fract_x
_atom_site_fract_y
_atom_site_fract_z
Zn1	Zn	-0.312529	-0.799268	0.295669
Zn2	Zn	0.187471	-0.299268	0.795669
Zn3	Zn	-0.443781	-0.799218	0.208239
Zn4	Zn	0.056219	-0.299218	0.708239
Zn5	Zn	-0.312540	-0.711848	0.208243
Zn6	Zn	0.187460	-0.211848	0.708243
Zn7	Zn	-0.443763	-0.711812	0.295638
Zn8	Zn	0.056237	-0.211812	0.795638
O9	O	-0.378153	-0.755537	0.251947
O10	O	0.121847	-0.255537	0.751947
O11	O	-0.329943	-0.872426	0.284083
O12	O	0.170057	-0.372426	0.784083
O13	O	-0.426384	-0.787622	0.135074
O14	O	0.073616	-0.287622	0.635074
O15	O	-0.202691	-0.723480	0.219855
O16	O	0.297309	-0.223480	0.719855
O17	O	-0.426374	-0.872390	0.219848
O18	O	0.073626	-0.372390	0.719848
O19	O	-0.202684	-0.787707	0.284086
O20	O	0.297316	-0.287707	0.784086
O21	O	-0.329961	-0.723432	0.135077
O22	O	0.170039	-0.223432	0.635077
O23	O	-0.329943	-0.638678	0.219825
O24	O	0.170057	-0.138678	0.719825
O25	O	-0.426343	-0.723420	0.368808
O26	O	0.073657	-0.223420	0.868808
O27	O	-0.426353	-0.638652	0.284034
O28	O	0.073647	-0.138652	0.784034
O29	O	-0.329926	-0.787673	0.368830
O30	O	0.170074	-0.287673	0.868830
O31	O	-0.553626	-0.787588	0.219818
O32	O	-0.053626	-0.287588	0.719818
O33	O	-0.553612	-0.723371	0.284030
O34	O	-0.053612	-0.223371	0.784030
C35	C	-0.378148	-0.619694	0.251926
C36	C	0.121852	-0.119694	0.751926
C37	C	-0.378164	-0.561580	0.251930
C38	C	0.121836	-0.061580	0.751930
C39	C	-0.582101	-0.755485	0.251932
C40	C	-0.082101	-0.255485	0.751932
C41	C	-0.669351	-0.755510	0.251943
C42	C	-0.169351	-0.255510	0.751943
C43	C	-0.328020	-0.201230	0.285450
C44	C	0.171980	0.298770	0.785450
C45	C	-0.328020	-0.146626	0.285453
C46	C	0.171980	0.353374	0.785453
O47	O	-0.285371	-0.118401	0.313927
O48	O	0.214629	0.381599	0.813927
N49	N	-0.378150	-0.119298	0.251961
N50	N	0.121850	0.380702	0.751961
C51	C	-0.428279	-0.146576	0.218460
C52	C	0.071721	0.353424	0.718460
O53	O	-0.470919	-0.118317	0.189973
O54	O	0.029081	0.381683	0.689973
C55	C	-0.428276	-0.201179	0.218455
C56	C	0.071724	0.298821	0.718455
C57	C	-0.378147	-0.228505	0.251953
C58	C	0.121853	0.271495	0.751953
C59	C	-0.277895	-0.228556	0.318944
C60	C	0.222105	0.271444	0.818944
C61	C	-0.277897	-0.283157	0.318941
C62	C	0.222103	0.216843	0.818941
C63	C	-0.328024	-0.310431	0.285444
C64	C	0.171976	0.189569	0.785444
C65	C	-0.378149	-0.283106	0.251950
C66	C	0.121851	0.216894	0.751950
C67	C	-0.478400	-0.228457	0.184952
C68	C	0.021600	0.271543	0.684952
C69	C	-0.478391	-0.283064	0.184949
C70	C	0.021609	0.216936	0.684949
C71	C	-0.428263	-0.310390	0.218447
C72	C	0.071737	0.189610	0.718447
C73	C	-0.428278	-0.364981	0.218450
C74	C	0.071722	0.135019	0.718450
N75	N	-0.378147	-0.392310	0.251942
N76	N	0.121853	0.107690	0.751942
C77	C	-0.328020	-0.365035	0.285439
C78	C	0.171980	0.134965	0.785439
C79	C	-0.428283	-0.031906	0.218474
C80	C	0.071717	0.468094	0.718474
C81	C	-0.428291	0.022697	0.218481
C82	C	0.071709	0.522697	0.718481
C83	C	-0.328030	0.022643	0.285473
C84	C	0.171970	0.522643	0.785473
C85	C	-0.328026	-0.031960	0.285468
C86	C	0.171974	0.468040	0.785468
C87	C	-0.378152	-0.059234	0.251965
C88	C	0.121848	0.440766	0.751965
C89	C	-0.328029	-0.479700	0.285431
C90	C	0.171971	0.020300	0.785431
C91	C	-0.328038	-0.534305	0.285427
C92	C	0.171962	-0.034305	0.785427
C93	C	-0.428295	-0.534247	0.218434
C94	C	0.071705	-0.034247	0.718434
C95	C	-0.428290	-0.479646	0.218439
C96	C	0.071710	0.020354	0.718439
C97	C	-0.378150	-0.452374	0.251940
C98	C	0.121850	0.047626	0.751940
O99	O	-0.470903	-0.393241	0.189989
O100	O	0.029097	0.106759	0.689989
O101	O	-0.285381	-0.393300	0.313917
O102	O	0.214619	0.106700	0.813917
C103	C	-0.710270	-0.788935	0.285415
C104	C	-0.210270	-0.288935	0.785415
C105	C	-0.792250	-0.788957	0.285426
C106	C	-0.292250	-0.288957	0.785426
C107	C	-0.833310	-0.755556	0.251962
C108	C	-0.333310	-0.255556	0.751962
C109	C	-0.792386	-0.722128	0.218488
C110	C	-0.292386	-0.222128	0.718488
C111	C	-0.710407	-0.722104	0.218480
C112	C	-0.210407	-0.222104	0.718480
C113	C	-0.963256	-0.722182	0.218506
C114	C	-0.463256	-0.222182	0.718506
C115	C	-1.045241	-0.722206	0.218513
C116	C	-0.545241	-0.222206	0.718513
C117	C	-1.045099	-0.789035	0.285453
C118	C	-0.545099	-0.289035	0.785453
C119	C	-0.963120	-0.789011	0.285444
C120	C	-0.463120	-0.289011	0.785444
C121	C	-0.922201	-0.755583	0.251970
C122	C	-0.422201	-0.255583	0.751970
C123	C	-0.173409	-0.755603	0.251974
C124	C	0.326591	-0.255603	0.751974
C125	C	-0.086159	-0.755631	0.251986
C126	C	0.413841	-0.255631	0.751986
C127	C	-0.378131	-0.755548	0.388320
C128	C	0.121869	-0.255548	0.888320
C129	C	-0.378122	-0.755553	0.446434
C130	C	0.121878	-0.255553	0.946434
C131	C	-0.378159	0.108090	0.251968
C132	C	0.121841	0.608090	0.751968
C133	C	-0.378161	0.049976	0.251977
C134	C	0.121839	0.549976	0.751977
C135	C	-0.378119	-0.755556	0.116105
C136	C	0.121881	-0.255556	0.616105
C137	C	-0.377907	-0.755652	0.057991
C138	C	0.122093	-0.255652	0.557991
C139	C	-0.428227	-0.722131	0.697610
C140	C	0.071773	-0.222131	1.197610
C141	C	-0.428245	-0.722122	0.643006
C142	C	0.071755	-0.222122	1.143006
O143	O	-0.470925	-0.693655	0.614755
O144	O	0.029075	-0.193655	1.114755
N145	N	-0.378058	-0.755572	0.615708
N146	N	0.121942	-0.255572	1.115708
C147	C	-0.327845	-0.789031	0.643018
C148	C	0.172155	-0.289031	1.143018
O149	O	-0.285158	-0.817482	0.614785
O150	O	0.214842	-0.317482	1.114785
C151	C	-0.327824	-0.789037	0.697621
C152	C	0.172176	-0.289037	1.197621
C153	C	-0.378020	-0.755588	0.724916
C154	C	0.121980	-0.255588	1.224916
C155	C	-0.478418	-0.688684	0.724905
C156	C	0.021582	-0.188684	1.224905
C157	C	-0.478401	-0.688694	0.779506
C158	C	0.021599	-0.188694	1.279506
C159	C	-0.428194	-0.722151	0.806812
C160	C	0.071806	-0.222151	1.306812
C161	C	-0.378003	-0.755598	0.779517
C162	C	0.121997	-0.255598	1.279517
C163	C	-0.277607	-0.822492	0.724930
C164	C	0.222393	-0.322492	1.224930
C165	C	-0.277590	-0.822495	0.779537
C166	C	0.222410	-0.322495	1.279537
C167	C	-0.327786	-0.789046	0.806832
C168	C	0.172214	-0.289046	1.306832
C169	C	-0.327778	-0.789065	0.861423
C170	C	0.172222	-0.289065	1.361423
N171	N	-0.377965	-0.755614	0.888721
N172	N	0.122035	-0.255614	1.388721
C173	C	-0.428173	-0.722157	0.861415
C174	C	0.071827	-0.222157	1.361415
C175	C	-0.327892	-0.789015	0.528347
C176	C	0.172108	-0.289015	1.028347
C177	C	-0.327916	-0.789012	0.473745
C178	C	0.172084	-0.289012	0.973745
C179	C	-0.428316	-0.722102	0.473737
C180	C	0.071684	-0.222102	0.973737
C181	C	-0.428295	-0.722108	0.528340
C182	C	0.071705	-0.222108	1.028340
C183	C	-0.378079	-0.755564	0.555645
C184	C	0.121921	-0.255564	1.055645
C185	C	-0.428134	-0.722181	0.976080
C186	C	0.071866	-0.222181	1.476080
C187	C	-0.428115	-0.722195	1.030685
C188	C	0.071885	-0.222195	1.530685
C189	C	-0.327713	-0.789103	1.030689
C190	C	0.172287	-0.289103	1.530689
C191	C	-0.327735	-0.789091	0.976088
C192	C	0.172265	-0.289091	1.476088
C193	C	-0.377948	-0.755625	0.948785
C194	C	0.122052	-0.255625	1.448785
O195	O	-0.285118	-0.817515	0.889709
O196	O	0.214882	-0.317515	1.389709
O197	O	-0.470845	-0.693706	0.889654
O198	O	0.029155	-0.193706	1.389654
H199	H	-0.287216	-0.556551	0.312707
H200	H	0.212784	-0.056551	0.812707
H201	H	-0.468993	-0.694957	1.052907
H202	H	0.031007	-0.194957	1.552907
H203	H	-0.676844	-0.816136	0.312663
H204	H	-0.176844	-0.316136	0.812663
H205	H	-1.078670	-0.695007	0.191266
H206	H	-0.578670	-0.195007	0.691266
H207	H	-0.287001	-0.816263	0.550575
H208	H	0.212999	-0.316263	1.050575
H209	H	-0.929689	-0.816211	0.312691
H210	H	-0.429689	-0.316211	0.812691
H211	H	-0.469109	-0.556464	0.191162
H212	H	0.030891	-0.056464	0.691162
H213	H	-0.287198	-0.457501	0.312709
H214	H	0.212802	0.042499	0.812709
H215	H	-0.825562	-0.816179	0.312679
H216	H	-0.325562	-0.316179	0.812679
H217	H	-0.677092	-0.694885	0.191224
H218	H	-0.177092	-0.194885	0.691224
H219	H	-0.237076	-0.305400	0.346218
H220	H	0.262924	0.194600	0.846218
H221	H	-0.286867	-0.816332	0.953863
H222	H	0.213133	-0.316332	1.453863
H223	H	-0.929943	-0.694959	0.191249
H224	H	-0.429943	-0.194959	0.691249
H225	H	-0.469015	-0.694925	0.953856
H226	H	0.030985	-0.194925	1.453856
H227	H	-0.519274	-0.661455	0.801725
H228	H	-0.019274	-0.161455	1.301725
H229	H	-0.519303	-0.661436	0.702679
H230	H	-0.019303	-0.161436	1.202679
H231	H	-0.236694	-0.849738	0.801765
H232	H	0.263306	-0.349738	1.301765
H233	H	-0.286838	-0.816345	1.052931
H234	H	0.213162	-0.316345	1.552931
H235	H	-0.825824	-0.694930	0.191243
H236	H	-0.325824	-0.194930	0.691243
H237	H	-0.469168	-0.694870	0.550560
H238	H	0.030832	-0.194870	1.050560
H239	H	-1.078419	-0.816253	0.312709
H240	H	-0.578419	-0.316253	0.812709
H241	H	-0.469196	-0.694858	0.451495
H242	H	0.030804	-0.194858	0.951495
H243	H	-0.237072	-0.206355	0.346222
H244	H	0.262928	0.293645	0.846222
H245	H	-0.519210	-0.305268	0.157666
H246	H	-0.019210	0.194732	0.657666
H247	H	-0.287206	-0.054205	0.312743
H248	H	0.212794	0.445795	0.812743
H249	H	-0.287051	-0.816255	0.451526
H250	H	0.212949	-0.316255	0.951526
H251	H	-0.236733	-0.849731	0.702716
H252	H	0.263267	-0.349731	1.202716
H253	H	-0.469119	0.044941	0.191210
H254	H	0.030881	0.544941	0.691210
H255	H	-0.287212	0.044860	0.312747
H256	H	0.212788	0.544860	0.812747
H257	H	-0.519219	-0.206218	0.157674
H258	H	-0.019219	0.293782	0.657674
H259	H	-0.469108	-0.054109	0.191193
H260	H	0.030892	0.445891	0.691193
H261	H	-0.469117	-0.457396	0.191169
H262	H	0.030883	0.042604	0.691169
