data_functionalizedCrystal
_audit_creation_method	'MofGen! by Chris Wilmer'
_symmetry_space_group_name_H-M	'P1'
_symmetry_Int_Tables_number	1
_symmetry_cell_setting	triclinic
loop_
_symmetry_equiv_pos_as_xyz
  x,y,z
_cell_length_a	12.827893
_cell_length_b	14.908579
_cell_length_c	12.827885
_cell_angle_alpha	86.733855
_cell_angle_beta	89.980538
_cell_angle_gamma	86.677896
loop_
_atom_site_label
_atom_site_type_symbol
_atom_site_fract_x
_atom_site_fract_y
_atom_site_fract_z
Zn1	Zn	1.573607	0.359110	-0.614835
Zn2	Zn	2.073607	0.859110	-0.114835
Zn3	Zn	1.563390	0.509994	-0.450174
Zn4	Zn	2.063390	1.009994	0.049826
Zn5	Zn	1.398845	0.359155	-0.440112
Zn6	Zn	1.898845	0.859155	0.059888
Zn7	Zn	1.388727	0.509927	-0.624869
Zn8	Zn	1.888727	1.009927	-0.124869
O9	O	1.481142	0.434546	-0.532498
O10	O	1.981142	0.934546	-0.032498
O11	O	1.718487	0.379134	-0.593004
O12	O	2.218487	0.879134	-0.093004
O13	O	1.541521	0.490031	-0.302606
O14	O	2.041521	0.990031	0.197394
O15	O	1.430538	0.232904	-0.454879
O16	O	1.930538	0.732904	0.045121
O17	O	1.710980	0.489988	-0.472028
O18	O	2.210980	0.989988	0.027972
O19	O	1.558935	0.232872	-0.583248
O20	O	2.058935	0.732872	-0.083248
O21	O	1.420630	0.379210	-0.295214
O22	O	1.920630	0.879210	0.204786
O23	O	1.251267	0.379146	-0.464609
O24	O	1.751267	0.879146	0.035391
O25	O	1.413294	0.489875	-0.769771
O26	O	1.913294	0.989875	-0.269771
O27	O	1.243834	0.489918	-0.600349
O28	O	1.743834	0.989918	-0.100349
O29	O	1.549124	0.379070	-0.762399
O30	O	2.049124	0.879070	-0.262399
O31	O	1.531710	0.636229	-0.481758
O32	O	2.031710	1.136229	0.018242
O33	O	1.403386	0.636180	-0.610106
O34	O	1.903386	1.136180	-0.110106
C35	C	1.209633	0.434530	-0.532477
C36	C	1.709633	0.934530	-0.032477
C37	C	1.093479	0.434544	-0.532494
C38	C	1.593479	0.934544	-0.032494
C39	C	1.045402	0.379788	-0.592462
C40	C	1.545402	0.879788	-0.092462
C41	C	0.925351	0.379802	-0.592481
C42	C	1.425351	0.879802	-0.092481
C43	C	1.465370	0.668939	-0.548135
C44	C	1.965370	1.168939	-0.048135
C45	C	1.458718	0.769212	-0.554860
C46	C	1.958718	1.269212	-0.054860
C47	C	1.579979	0.957628	-0.433956
C48	C	2.079979	1.457628	0.066044
C49	C	1.573733	1.051844	-0.440271
C50	C	2.073733	1.551844	0.059729
C51	C	1.439985	1.051863	-0.573810
C52	C	1.939985	1.551863	-0.073810
C53	C	1.446231	0.957647	-0.567495
C54	C	1.946231	1.457647	-0.067495
C55	C	1.516230	0.910532	-0.497564
C56	C	2.016230	1.410532	0.002436
C57	C	1.522470	0.816314	-0.491245
C58	C	2.022470	1.316314	0.008755
C59	C	1.388728	0.816335	-0.624789
C60	C	1.888728	1.316335	-0.124789
C61	C	1.382481	0.910551	-0.631104
C62	C	1.882481	1.410551	-0.131104
C63	C	1.753711	0.434564	-0.532519
C64	C	2.253711	0.934564	-0.032519
C65	C	1.869864	0.434571	-0.532529
C66	C	2.369864	0.934571	-0.032529
C67	C	1.481220	0.434460	-0.805062
C68	C	1.981220	0.934460	-0.305062
C69	C	1.481253	0.434423	-0.921213
C70	C	1.981253	0.934423	-0.421213
C71	C	1.496998	1.199239	-0.516835
C72	C	1.996998	1.699239	-0.016835
C73	C	1.503737	1.098965	-0.510195
C74	C	2.003737	1.598965	-0.010195
C75	C	1.421454	0.379574	-0.969339
C76	C	1.921454	0.879574	-0.469339
C77	C	1.421487	0.379535	-1.089387
C78	C	1.921487	0.879535	-0.589387
C79	C	1.481129	0.434568	-0.260989
C80	C	1.981129	0.934568	0.239011
C81	C	1.481316	0.434350	-0.144822
C82	C	1.981316	0.934350	0.355178
H83	H	1.093120	0.332895	-0.643785
H84	H	1.593120	0.832895	-0.143785
F85	F	1.641586	1.101963	-0.372572
F86	F	2.141586	1.601963	0.127428
F87	F	1.320865	0.766206	-0.692479
F88	F	1.820865	1.266206	-0.192479
F89	F	1.548244	0.495728	-1.090718
F90	F	2.048244	0.995728	-0.590718
F91	F	1.548199	0.495769	-0.983519
F92	F	2.048199	0.995769	-0.483519
H93	H	1.370295	0.332573	-1.130788
H94	H	1.870295	0.832573	-0.630788
H95	H	1.325493	0.948925	-0.688042
H96	H	1.825493	1.448925	-0.188042
F97	F	1.354513	0.318224	-0.907032
F98	F	1.854513	0.818224	-0.407032
H99	H	0.911216	0.481458	-0.481191
H100	H	1.411216	0.981458	0.018809
F101	F	0.871295	0.318529	-0.659596
F102	F	1.371295	0.818529	-0.159596
F103	F	1.031115	0.495830	-0.465398
F104	F	1.531115	0.995830	0.034602
F105	F	1.654462	0.907483	-0.359518
F106	F	2.154462	1.407483	0.140482
F107	F	1.596964	0.766173	-0.416815
F108	F	2.096964	1.266173	0.083185
F109	F	1.365505	1.102021	-0.648241
F110	F	1.865505	1.602021	-0.148241
