data_functionalizedCrystal
_audit_creation_method	'MofGen! by Chris Wilmer'
_symmetry_space_group_name_H-M	'P1'
_symmetry_Int_Tables_number	1
_symmetry_cell_setting	triclinic
loop_
_symmetry_equiv_pos_as_xyz
  x,y,z
_cell_length_a	17.699083
_cell_length_b	17.699083
_cell_length_c	7.540329
_cell_angle_alpha	90.003072
_cell_angle_beta	89.995522
_cell_angle_gamma	83.283015
loop_
_atom_site_label
_atom_site_type_symbol
_atom_site_fract_x
_atom_site_fract_y
_atom_site_fract_z
O1	O	0.095710	1.004074	-0.147237
O2	O	0.595710	1.504074	0.352763
O3	O	0.108163	0.783696	-0.147296
O4	O	0.608163	1.283696	0.352704
O5	O	-0.008253	0.900111	-0.147249
O6	O	0.491747	1.400111	0.352751
O7	O	0.212126	0.887659	-0.147284
O8	O	0.712126	1.387659	0.352716
O9	O	-0.008254	0.900104	0.147716
O10	O	0.491746	1.400104	0.647716
O11	O	0.108161	0.783689	0.147669
O12	O	0.608161	1.283689	0.647669
O13	O	0.095709	1.004067	0.147728
O14	O	0.595709	1.504067	0.647728
Cu15	Cu	0.101935	0.893878	0.174631
Cu16	Cu	0.601935	1.393878	0.674631
Cu17	Cu	0.101936	0.893886	-0.174199
Cu18	Cu	0.601936	1.393886	0.325801
O19	O	0.212124	0.887652	0.147681
O20	O	0.712124	1.387652	0.647681
C21	C	0.107716	0.755495	0.000179
C22	C	0.607716	1.255495	0.500179
C23	C	0.106377	0.671477	0.000157
C24	C	0.606377	1.171477	0.500157
C25	C	-0.036451	0.899662	0.000233
C26	C	0.463549	1.399662	0.500233
C27	C	-0.120469	0.898323	0.000234
C28	C	0.379531	1.398323	0.500234
C29	C	-0.169090	0.966656	0.000254
C30	C	0.330910	1.466656	0.500254
C31	C	-0.248033	0.965394	0.000238
C32	C	0.251967	1.465394	0.500238
C33	C	-0.278354	0.895798	0.000214
C34	C	0.221646	1.395798	0.500214
C35	C	-0.229727	0.827459	0.000188
C36	C	0.270273	1.327459	0.500188
C37	C	-0.150785	0.828722	0.000192
C38	C	0.349215	1.328722	0.500192
C39	C	-0.548090	0.822364	0.000173
C40	C	-0.048090	1.322364	0.500173
C41	C	-0.627038	0.821106	0.000175
C42	C	-0.127038	1.321106	0.500175
C43	C	-0.645338	0.959036	0.000219
C44	C	-0.145338	1.459036	0.500219
C45	C	-0.566396	0.960299	0.000223
C46	C	-0.066396	1.460299	0.500223
C47	C	-0.517776	0.891961	0.000187
C48	C	-0.017776	1.391961	0.500187
C49	C	-0.432177	0.893330	0.000201
C50	C	0.067823	1.393330	0.500201
C51	C	-0.363951	0.894427	0.000213
C52	C	0.136049	1.394427	0.500213
C53	C	0.174710	0.622856	0.000147
C54	C	0.674710	1.122856	0.500147
C55	C	0.173448	0.543913	0.000170
C56	C	0.673448	1.043913	0.500170
C57	C	0.103852	0.513592	0.000191
C58	C	0.603852	1.013592	0.500191
C59	C	0.035513	0.562219	0.000207
C60	C	0.535513	1.062219	0.500207
C61	C	0.036776	0.641161	0.000196
C62	C	0.536776	1.141161	0.500196
C63	C	0.030418	0.243856	0.000251
C64	C	0.530418	0.743856	0.500251
C65	C	0.029160	0.164908	0.000256
C66	C	0.529160	0.664908	0.500256
C67	C	0.167090	0.146608	0.000226
C68	C	0.667090	0.646608	0.500226
C69	C	0.168353	0.225550	0.000215
C70	C	0.668353	0.725550	0.500215
C71	C	0.100015	0.274170	0.000240
C72	C	0.600015	0.774170	0.500240
C73	C	0.101384	0.359769	0.000218
C74	C	0.601384	0.859769	0.500218
C75	C	0.102481	0.427995	0.000200
C76	C	0.602481	0.927995	0.500200
C77	C	0.240322	0.888102	0.000195
C78	C	0.740322	1.388102	0.500195
C79	C	0.324340	0.889440	0.000183
C80	C	0.824340	1.389440	0.500183
C81	C	0.096156	1.032268	0.000249
C82	C	0.596156	1.532268	0.500249
C83	C	0.097494	1.116286	0.000259
C84	C	0.597494	1.616286	0.500259
N85	N	0.101933	0.893877	0.419980
N86	N	0.601933	1.393877	0.919980
N87	N	0.101932	0.893892	-0.419548
N88	N	0.601932	1.393892	0.080452
H89	H	-0.144409	1.023330	0.000285
H90	H	0.355591	1.523330	0.500285
Br91	Br	-0.058941	0.521071	0.000252
Br92	Br	0.441059	1.021071	0.500252
H93	H	-0.287618	1.021038	0.000259
H94	H	0.212382	1.521038	0.500259
Br95	Br	0.269168	0.663998	0.000101
Br96	Br	0.769168	1.163998	0.500101
Br97	Br	-0.270875	0.733005	0.000126
Br98	Br	0.229125	1.233005	0.500126
H99	H	-0.111198	0.773078	0.000175
H100	H	0.388802	1.273078	0.500175
Br101	Br	-0.525250	1.054754	0.000254
Br102	Br	-0.025250	1.554754	0.500254
H103	H	-0.684934	1.014680	0.000239
H104	H	-0.184934	1.514680	0.500239
Br105	Br	-0.482115	0.729619	0.000113
Br106	Br	0.017885	1.229619	0.500113
H107	H	-0.651721	0.764429	0.000159
H108	H	-0.151721	1.264429	0.500159
Br109	Br	0.266191	0.477929	0.000151
Br110	Br	0.766191	0.977929	0.500151
H111	H	0.225025	0.250232	0.000190
H112	H	0.725025	0.750232	0.500190
H113	H	0.222734	0.107012	0.000215
H114	H	0.722734	0.607012	0.500215
Br115	Br	-0.065299	0.123759	0.000279
Br116	Br	0.434701	0.623759	0.500279
H117	H	-0.018868	0.680748	0.000203
H118	H	0.481132	1.180748	0.500203
Br119	Br	-0.062327	0.309831	0.000289
Br120	Br	0.437673	0.809831	0.500289
