data_functionalizedCrystal
_audit_creation_method	'MofGen! by Chris Wilmer'
_symmetry_space_group_name_H-M	'P1'
_symmetry_Int_Tables_number	1
_symmetry_cell_setting	triclinic
loop_
_symmetry_equiv_pos_as_xyz
  x,y,z
_cell_length_a	14.853567
_cell_length_b	10.654550
_cell_length_c	9.130313
_cell_angle_alpha	89.995631
_cell_angle_beta	89.999448
_cell_angle_gamma	84.059931
loop_
_atom_site_label
_atom_site_type_symbol
_atom_site_fract_x
_atom_site_fract_y
_atom_site_fract_z
O1	O	1.197241	0.163961	-0.121698
O2	O	0.934886	0.183492	-0.121723
O3	O	1.072096	-0.009075	-0.121701
O4	O	1.060032	0.356528	-0.121720
O5	O	1.072086	-0.009081	0.121898
O6	O	0.934877	0.183487	0.121876
O7	O	1.197232	0.163955	0.121901
Cu8	Cu	1.066053	0.173720	0.144131
Cu9	Cu	1.066065	0.173727	-0.143953
O10	O	1.060022	0.356523	0.121879
C11	C	1.071205	-0.055867	0.000098
C12	C	1.068555	-0.195283	0.000095
C13	C	0.901288	0.182605	0.000073
C14	C	0.801190	0.179953	0.000064
C15	C	1.149342	-0.275608	0.000103
C16	C	1.146846	-0.406602	0.000085
C17	C	0.982770	-0.376935	0.000058
C18	C	0.985267	-0.245942	0.000066
C19	C	0.387984	0.054353	0.000103
C20	C	0.367928	0.283127	0.000090
C21	C	0.461975	0.285621	0.000085
C22	C	0.519031	0.172479	0.000087
C23	C	0.482040	0.056843	0.000094
C24	C	0.498973	0.401255	0.000063
C25	C	0.593026	0.403753	0.000057
C26	C	0.650083	0.290609	0.000069
C27	C	0.613087	0.174969	0.000078
C28	C	0.670143	0.061826	0.000080
C29	C	0.633149	-0.053816	0.000099
C30	C	0.539098	-0.056301	0.000107
C31	C	0.744134	0.293095	0.000062
C32	C	0.764199	0.064317	0.000071
C33	C	1.230830	0.164843	0.000101
C34	C	1.330928	0.167495	0.000101
C35	C	1.060913	0.403314	0.000077
C36	C	1.063563	0.542730	0.000070
N37	N	1.066052	0.173715	0.346754
N38	N	1.066073	0.173722	-0.346576
C39	C	1.126829	0.088482	0.423415
C40	C	1.126838	0.088482	0.576752
C41	C	1.005289	0.258960	0.576752
C42	C	1.005277	0.258953	0.423418
H43	H	1.217161	-0.234365	0.000124
F44	F	1.191523	-0.002237	0.658336
H45	H	0.955809	0.328360	0.639187
F46	F	0.783503	0.416160	0.000031
F47	F	0.348612	-0.068716	0.000131
F48	F	1.191509	-0.002239	0.341829
F49	F	0.940583	0.349669	0.341822
H50	H	0.919476	-0.180538	0.000056
H51	H	0.679616	-0.145936	0.000091
F52	F	1.232831	-0.492085	0.000089
F53	F	0.824916	-0.056108	0.000084
F54	F	0.894133	-0.430862	0.000026
F55	F	0.438247	0.521660	0.000039
H56	H	0.508968	-0.150451	0.000157
F57	F	0.307203	0.403534	0.000070
F58	F	0.632389	0.526827	0.000039
