data_functionalizedCrystal
_audit_creation_method	'MofGen! by Chris Wilmer'
_symmetry_space_group_name_H-M	'P1'
_symmetry_Int_Tables_number	1
_symmetry_cell_setting	triclinic
loop_
_symmetry_equiv_pos_as_xyz
  x,y,z
_cell_length_a	8.559649
_cell_length_b	8.634740
_cell_length_c	7.681481
_cell_angle_alpha	83.366800
_cell_angle_beta	94.913240
_cell_angle_gamma	85.174486
loop_
_atom_site_label
_atom_site_type_symbol
_atom_site_fract_x
_atom_site_fract_y
_atom_site_fract_z
O1	O	-2.099591	0.035284	0.146401
O2	O	-1.646427	-0.042928	0.146409
O3	O	-1.851558	0.218114	0.146401
O4	O	-1.894460	-0.225758	0.146409
O5	O	-1.876796	0.250309	-0.146458
O6	O	-1.671665	-0.010733	-0.146450
O7	O	-2.124829	0.067479	-0.146457
Zn8	Zn	-1.902254	0.033484	-0.192951
Zn9	Zn	-1.869002	-0.008933	0.192903
O10	O	-1.919698	-0.193563	-0.146450
C11	C	-1.600429	-0.032757	-0.000020
C12	C	-1.425765	-0.050400	-0.000017
C13	C	-1.854458	0.290510	-0.000025
C14	C	-1.825479	0.458261	-0.000017
C15	C	-2.170827	0.057308	-0.000025
C16	C	-2.345490	0.074950	-0.000017
C17	C	-1.916798	-0.265960	-0.000019
C18	C	-1.945776	-0.433712	-0.000016
N19	N	-1.924960	0.062436	-0.456286
N20	N	-1.846307	-0.037871	0.456238
H21	H	-1.410387	0.195764	-0.000010
H22	H	-1.766018	-0.140256	-0.468563
C23	C	-1.366283	-0.310990	0.150545
C24	C	-1.338158	-0.213513	-0.000004
H25	H	-1.312189	-0.411683	0.150555
H26	H	-1.476093	-0.320125	0.150524
H27	H	-1.329613	-0.267278	0.252659
H28	H	-1.374839	-0.257219	-0.102119
H29	H	-1.228325	-0.204383	0.000000
C30	C	-2.187690	0.189963	-0.513338
C31	C	-2.033364	0.200660	-0.557800
H32	H	-2.254610	0.275293	-0.576017
H33	H	-2.190131	0.193114	-0.390402
H34	H	-2.222997	0.094236	-0.543471
H35	H	-1.998052	0.296383	-0.527654
H36	H	-2.030916	0.197524	-0.680763
C37	C	-2.111714	0.355521	-0.000034
C38	C	-2.114746	0.517908	-0.000026
H39	H	-2.216033	0.325651	-0.000050
H40	H	-2.049745	0.304162	0.102088
H41	H	-2.067329	0.326625	-0.102166
H42	H	-2.159120	0.546803	0.102113
H43	H	-2.176738	0.569284	-0.102158
C44	C	-1.659528	0.669034	-0.000010
C45	C	-1.656501	0.506646	-0.000013
H46	H	-1.555209	0.698903	-0.000018
H47	H	-1.703896	0.697932	0.102112
H48	H	-1.721513	0.720395	-0.102142
H49	H	-1.594525	0.455285	0.102126
H50	H	-1.612111	0.477732	-0.102145
