data_functionalizedCrystal
_audit_creation_method	'MofGen! by Chris Wilmer'
_symmetry_space_group_name_H-M	'P1'
_symmetry_Int_Tables_number	1
_symmetry_cell_setting	triclinic
loop_
_symmetry_equiv_pos_as_xyz
  x,y,z
_cell_length_a	19.121102
_cell_length_b	25.639239
_cell_length_c	25.639233
_cell_angle_alpha	89.981253
_cell_angle_beta	87.548369
_cell_angle_gamma	87.592882
loop_
_atom_site_label
_atom_site_type_symbol
_atom_site_fract_x
_atom_site_fract_y
_atom_site_fract_z
Zn1	Zn	1.073601	-0.242371	-0.329671
Zn2	Zn	1.573601	0.257629	0.170329
Zn3	Zn	1.073498	-0.329786	-0.242232
Zn4	Zn	1.573498	0.170214	0.257768
Zn5	Zn	0.956164	-0.238634	-0.238524
Zn6	Zn	1.456164	0.261366	0.261476
Zn7	Zn	0.956091	-0.326038	-0.325912
Zn8	Zn	1.456091	0.173962	0.174088
O9	O	1.014838	-0.284207	-0.284085
O10	O	1.514838	0.215793	0.215915
O11	O	1.171870	-0.257099	-0.321197
O12	O	1.671870	0.242901	0.178803
O13	O	1.057921	-0.317699	-0.168575
O14	O	1.557921	0.182301	0.331425
O15	O	0.971816	-0.165966	-0.250636
O16	O	1.471816	0.334034	0.249364
O17	O	1.171794	-0.321323	-0.256956
O18	O	1.671794	0.178677	0.243044
O19	O	1.058096	-0.168712	-0.317602
O20	O	1.558096	0.331288	0.182398
O21	O	0.971717	-0.250730	-0.165850
O22	O	1.471717	0.249270	0.334150
O23	O	0.857872	-0.247096	-0.246991
O24	O	1.357872	0.252904	0.253009
O25	O	0.971691	-0.314935	-0.399576
O26	O	1.471691	0.185065	0.100424
O27	O	0.857817	-0.311311	-0.311194
O28	O	1.357817	0.188689	0.188806
O29	O	1.058025	-0.253465	-0.402338
O30	O	1.558025	0.246535	0.097662
O31	O	1.057850	-0.402452	-0.253311
O32	O	1.557850	0.097548	0.246689
O33	O	0.971591	-0.399698	-0.314790
O34	O	1.471591	0.100302	0.185210
C35	C	0.832361	-0.278392	-0.278282
C36	C	1.332361	0.221608	0.221718
C37	C	0.754296	-0.275916	-0.275813
C38	C	1.254296	0.224084	0.224187
C39	C	1.014720	-0.420046	-0.284057
C40	C	1.514720	0.079954	0.215943
C41	C	1.014734	-0.478160	-0.284065
C42	C	1.514734	0.021840	0.215935
C43	C	0.717611	-0.308238	-0.308027
C44	C	1.217611	0.191762	0.191973
C45	C	0.644261	-0.305905	-0.305709
C46	C	1.144261	0.194095	0.194291
C47	C	0.607597	-0.271253	-0.271173
C48	C	1.107597	0.228747	0.228827
C49	C	0.644287	-0.238929	-0.238958
C50	C	1.144287	0.261071	0.261042
C51	C	0.717636	-0.241259	-0.241279
C52	C	1.217636	0.258741	0.258721
C53	C	0.386132	-0.262539	-0.262498
C54	C	0.886132	0.237461	0.237502
C55	C	0.312778	-0.260212	-0.260178
C56	C	0.812778	0.239788	0.239822
C57	C	0.312757	-0.327189	-0.326930
C58	C	0.812757	0.172811	0.173070
C59	C	0.386107	-0.329518	-0.329246
C60	C	0.886107	0.170482	0.170754
C61	C	0.422791	-0.297191	-0.297032
C62	C	0.922791	0.202809	0.202968
C63	C	0.532622	-0.268869	-0.268802
C64	C	1.032622	0.231131	0.231198
C65	C	0.497765	-0.299573	-0.299407
C66	C	0.997765	0.200427	0.200593
C67	C	1.059870	-0.839952	-0.252133
C68	C	1.559870	-0.339952	0.247867
C69	C	1.059898	-0.894557	-0.252141
C70	C	1.559898	-0.394557	0.247859
O71	O	1.098152	-0.924004	-0.224962
O72	O	1.598152	-0.424004	0.275038
N73	N	1.014962	-0.920450	-0.284123
N74	N	1.514962	-0.420450	0.215877
C75	C	0.970001	-0.891735	-0.316104
C76	C	1.470001	-0.391735	0.183896
O77	O	0.931782	-0.918774	-0.343308
O78	O	1.431782	-0.418774	0.156692
C79	C	0.969978	-0.837131	-0.316098
C80	C	1.469978	-0.337131	0.183902
C81	C	1.014911	-0.811241	-0.284110
C82	C	1.514911	-0.311241	0.215890
C83	C	1.104801	-0.814061	-0.220148
C84	C	1.604801	-0.314061	0.279852
C85	C	1.104773	-0.759460	-0.220140
C86	C	1.604773	-0.259460	0.279860
C87	C	1.059814	-0.730749	-0.252116
C88	C	1.559814	-0.230749	0.247884
C89	C	1.014883	-0.756639	-0.284101
C90	C	1.514883	-0.256639	0.215899
C91	C	0.925021	-0.808418	-0.348081
C92	C	1.425021	-0.308418	0.151919
C93	C	0.925002	-0.753810	-0.348073
C94	C	1.425002	-0.253810	0.151927
C95	C	0.969936	-0.727920	-0.316085
C96	C	1.469936	-0.227920	0.183915
C97	C	0.969896	-0.673327	-0.316070
C98	C	1.469896	-0.173327	0.183930
N99	N	1.014832	-0.647434	-0.284088
N100	N	1.514832	-0.147434	0.215912
C101	C	1.059791	-0.676145	-0.252111
C102	C	1.559791	-0.176145	0.247889
C103	C	0.970054	-1.006408	-0.316113
C104	C	1.470054	-0.506408	0.183887
C105	C	0.970073	-1.061011	-0.316116
C106	C	1.470073	-0.561011	0.183884
C107	C	1.059971	-1.063828	-0.252155
C108	C	1.559971	-0.563828	0.247845
C109	C	1.059948	-1.009224	-0.252149
C110	C	1.559948	-0.509224	0.247851
C111	C	1.014990	-0.980515	-0.284131
C112	C	1.514990	-0.480515	0.215869
C113	C	1.059727	-0.561478	-0.252095
C114	C	1.559727	-0.061478	0.247905
C115	C	1.059693	-0.506871	-0.252088
C116	C	1.559693	-0.006871	0.247912
C117	C	0.969798	-0.504058	-0.316052
C118	C	1.469798	-0.004058	0.183948
C119	C	0.969829	-0.558660	-0.316057
C120	C	1.469829	-0.058660	0.183943
C121	C	1.014800	-0.587369	-0.284077
C122	C	1.514800	-0.087369	0.215923
O123	O	0.931663	-0.643846	-0.343237
O124	O	1.431663	-0.143846	0.156763
O125	O	1.098009	-0.649100	-0.224916
O126	O	1.598009	-0.149100	0.275084
C127	C	1.198028	-0.290046	-0.289910
C128	C	1.698028	0.209954	0.210090
C129	C	1.276093	-0.292534	-0.292392
C130	C	1.776093	0.207466	0.207608
C131	C	1.014861	-0.284199	-0.420458
C132	C	1.514861	0.215801	0.079542
C133	C	1.014871	-0.284195	-0.478573
C134	C	1.514871	0.215805	0.021427
C135	C	1.014976	-0.147839	-0.284125
C136	C	1.514976	0.352161	0.215875
C137	C	1.015035	-0.089726	-0.284142
C138	C	1.515035	0.410274	0.215858
C139	C	1.059882	-0.252090	-0.840382
C140	C	1.559882	0.247910	-0.340382
C141	C	1.059891	-0.252076	-0.894986
C142	C	1.559891	0.247924	-0.394986
O143	O	1.098104	-0.224839	-0.924450
O144	O	1.598104	0.275161	-0.424450
N145	N	1.014948	-0.284075	-0.920858
N146	N	1.514948	0.215925	-0.420858
C147	C	0.969989	-0.316087	-0.892122
C148	C	1.469989	0.183913	-0.392122
O149	O	0.931762	-0.343303	-0.919142
O150	O	1.431762	0.156697	-0.419142
C151	C	0.969977	-0.316098	-0.837518
C152	C	1.469977	0.183902	-0.337518
C153	C	1.014928	-0.284100	-0.811650
C154	C	1.514928	0.215900	-0.311650
C155	C	1.104828	-0.220095	-0.814513
C156	C	1.604828	0.279905	-0.314513
C157	C	1.104820	-0.220110	-0.759912
C158	C	1.604820	0.279890	-0.259912
C159	C	1.059866	-0.252120	-0.731180
C160	C	1.559866	0.247880	-0.231180
C161	C	1.014920	-0.284115	-0.757049
C162	C	1.514920	0.215885	-0.257049
C163	C	0.925015	-0.348106	-0.808783
C164	C	1.425015	0.151894	-0.308783
C165	C	0.925007	-0.348114	-0.754176
C166	C	1.425007	0.151886	-0.254176
C167	C	0.969957	-0.316117	-0.728307
C168	C	1.469957	0.183883	-0.228307
C169	C	0.969958	-0.316141	-0.673716
C170	C	1.469958	0.183859	-0.173716
N171	N	1.014900	-0.284141	-0.647844
N172	N	1.514900	0.215859	-0.147844
C173	C	1.059854	-0.252131	-0.676576
C174	C	1.559854	0.247869	-0.176576
C175	C	0.970016	-0.316060	-1.006793
C176	C	1.470016	0.183940	-0.506793
C177	C	0.970031	-0.316052	-1.061396
C178	C	1.470031	0.183948	-0.561396
C179	C	1.059932	-0.252041	-1.064257
C180	C	1.559932	0.247959	-0.564257
C181	C	1.059920	-0.252052	-1.009653
C182	C	1.559920	0.247948	-0.509653
C183	C	1.014959	-0.284061	-0.980922
C184	C	1.514959	0.215939	-0.480922
C185	C	1.059835	-0.252165	-0.561911
C186	C	1.559835	0.247835	-0.061911
C187	C	1.059825	-0.252185	-0.507305
C188	C	1.559825	0.247815	-0.007305
C189	C	0.969922	-0.316194	-0.504449
C190	C	1.469922	0.183806	-0.004449
C191	C	0.969934	-0.316177	-0.559050
C192	C	1.469934	0.183823	-0.059050
C193	C	1.014893	-0.284158	-0.587780
C194	C	1.514893	0.215842	-0.087780
O195	O	0.931762	-0.343362	-0.644218
O196	O	1.431762	0.156638	-0.144218
O197	O	1.098068	-0.224915	-0.649549
O198	O	1.598068	0.275085	-0.149549
C199	C	1.014856	-0.284179	-0.148243
C200	C	1.514856	0.215821	0.351757
C201	C	1.014983	-0.284040	-0.090133
C202	C	1.514983	0.215960	0.409867
H203	H	0.747458	-0.336457	-0.336148
H204	H	1.247458	0.163543	0.163852
F205	F	0.877151	-0.723258	-0.382115
F206	F	1.377151	-0.223258	0.117885
H207	H	0.282928	-0.231989	-0.232058
H208	H	0.782928	0.268011	0.267942
F209	F	0.922080	-0.350260	-0.473861
F210	F	1.422080	0.149740	0.026139
H211	H	0.933243	-0.579741	-0.342106
H212	H	1.433243	-0.079741	0.157894
F213	F	1.107590	-0.592024	-0.218059
F214	F	1.607590	-0.092024	0.281941
F215	F	1.107772	-0.981675	-0.218104
F216	F	1.607772	-0.481675	0.281896
H217	H	0.933402	-0.342129	-0.983404
H218	H	1.433402	0.157871	-0.483404
F219	F	0.605222	-0.340306	-0.339996
F220	F	1.105222	0.159694	0.160004
F221	F	0.425164	-0.228133	-0.228214
F222	F	0.925164	0.271867	0.271786
H223	H	0.502762	-0.240657	-0.240682
H224	H	1.002762	0.259343	0.259318
F225	F	0.756678	-0.206857	-0.206993
F226	F	1.256678	0.293143	0.293007
H227	H	0.933435	-0.342114	-1.082454
H228	H	1.433435	0.157886	-0.582454
F229	F	0.605265	-0.202046	-0.202205
F230	F	1.105265	0.297954	0.297795
H231	H	0.527620	-0.327784	-0.327528
H232	H	1.027620	0.172216	0.172472
H233	H	1.096283	-0.485793	-0.226038
H234	H	1.596283	0.014207	0.273962
H235	H	1.096581	-1.087215	-0.226119
H236	H	1.596581	-0.587215	0.273881
H237	H	0.933477	-1.082086	-0.342159
H238	H	1.433477	-0.582086	0.157841
F239	F	1.152606	-0.731912	-0.186100
F240	F	1.652606	-0.231912	0.313900
H241	H	0.415954	-0.357736	-0.357367
H242	H	0.915954	0.142264	0.142633
H243	H	0.933438	-0.983034	-0.342155
H244	H	1.433438	-0.483034	0.157845
F245	F	0.273711	-0.361591	-0.361211
F246	F	0.773711	0.138409	0.138789
H247	H	1.096431	-0.226128	-0.486245
H248	H	1.596431	0.273872	0.013755
H249	H	0.933191	-0.480674	-0.342085
H250	H	1.433191	0.019326	0.157915
F251	F	1.107761	-0.217996	-0.982127
F252	F	1.607761	0.282004	-0.482127
F253	F	1.107775	-0.217971	-1.094845
F254	F	1.607775	0.282029	-0.594845
H255	H	1.141435	-0.194025	-0.837901
H256	H	1.641435	0.305975	-0.337901
F257	F	1.152658	-0.844609	-0.186112
F258	F	1.652658	-0.344609	0.313888
H259	H	0.888427	-0.829488	-0.374126
H260	H	1.388427	-0.329488	0.125874
F261	F	0.877174	-0.382164	-0.836303
F262	F	1.377174	0.117836	-0.336303
H263	H	1.096442	-0.226091	-0.585296
H264	H	1.596442	0.273909	-0.085296
H265	H	1.141422	-0.194053	-0.738855
H266	H	1.641422	0.305947	-0.238855
F267	F	0.877150	-0.382183	-0.723601
F268	F	1.377150	0.117817	-0.223601
F269	F	0.922097	-0.350235	-0.586582
F270	F	1.422097	0.149765	-0.086582
