data_functionalizedCrystal
_audit_creation_method	'MofGen! by Chris Wilmer'
_symmetry_space_group_name_H-M	'P1'
_symmetry_Int_Tables_number	1
_symmetry_cell_setting	triclinic
loop_
_symmetry_equiv_pos_as_xyz
  x,y,z
_cell_length_a	15.944551
_cell_length_b	16.992695
_cell_length_c	15.455438
_cell_angle_alpha	87.143447
_cell_angle_beta	92.669827
_cell_angle_gamma	87.083481
loop_
_atom_site_label
_atom_site_type_symbol
_atom_site_fract_x
_atom_site_fract_y
_atom_site_fract_z
O1	O	-1.117868	-0.104551	0.072040
O2	O	-0.874153	-0.117020	0.072062
O3	O	-0.995034	0.003357	0.072044
O4	O	-0.996987	-0.224929	0.072058
O5	O	-1.001908	0.010217	-0.072216
O6	O	-0.881027	-0.110160	-0.072199
O7	O	-1.124742	-0.097691	-0.072220
Cu8	Cu	-1.003512	-0.103299	-0.085381
Cu9	Cu	-0.995383	-0.111412	0.085223
O10	O	-1.003861	-0.218069	-0.072203
C11	C	-0.846262	-0.113073	-0.000066
C12	C	-0.752911	-0.111521	-0.000058
C13	C	-0.995957	0.036000	-0.000086
C14	C	-0.988457	0.123045	-0.000085
C15	C	-1.152634	-0.101639	-0.000091
C16	C	-1.245984	-0.103190	-0.000093
C17	C	-0.532803	-0.033196	-0.000079
C18	C	-0.470832	-0.072950	0.071051
C19	C	-0.581998	-0.108713	-0.000068
C20	C	-0.477633	-0.066204	-0.071178
C21	C	-0.416903	-0.105996	-0.000082
C22	C	-0.521254	-0.148491	0.071121
C23	C	-0.528063	-0.141731	-0.071172
C24	C	-0.466114	-0.181541	-0.000025
C25	C	-0.677104	-0.110277	-0.000059
C26	C	-0.321798	-0.104438	-0.000084
C27	C	-1.002938	-0.250711	-0.000071
C28	C	-1.010438	-0.337756	-0.000066
N29	N	-1.009236	-0.097593	-0.205375
C30	C	-1.060823	0.173282	-0.000092
C31	C	-1.053770	0.255068	-0.000083
C32	C	-0.974352	0.286616	-0.000073
C33	C	-0.901981	0.236373	-0.000063
C34	C	-0.909034	0.154588	-0.000066
C35	C	-0.945120	0.530215	-0.000059
C36	C	-0.938073	0.612007	-0.000059
C37	C	-1.089862	0.630697	-0.000077
C38	C	-1.096909	0.548909	-0.000085
C39	C	-1.024537	0.498672	-0.000070
N40	N	-0.967141	0.370215	-0.000067
N41	N	-1.031748	0.415075	-0.000070
C42	C	-0.957870	-0.148714	-0.250783
C43	C	-0.962223	-0.144395	-0.341590
C44	C	-1.017937	-0.088951	-0.386987
C45	C	-1.069309	-0.037828	-0.341573
C46	C	-1.064960	-0.042151	-0.250768
C47	C	-1.036688	-0.070312	-0.658564
C48	C	-1.041031	-0.065991	-0.749375
C49	C	-0.933946	-0.172560	-0.749386
C50	C	-0.929599	-0.176875	-0.658579
C51	C	-0.980973	-0.125754	-0.613173
N52	N	-1.022386	-0.084534	-0.479806
N53	N	-0.976529	-0.130176	-0.520355
N54	N	-0.989666	-0.117112	0.205217
H55	H	-0.561928	0.029473	0.000005
H56	H	-0.850106	0.113685	-0.000060
H57	H	-0.892120	-0.214181	-0.786364
O58	O	-0.546770	-0.194533	0.150879
H59	H	-0.582752	-0.245418	0.130977
H60	H	-1.112698	0.295969	-0.000091
O61	O	-1.120342	0.013008	-0.201792
H62	H	-1.107957	0.000689	-0.131024
O63	O	-0.437545	-0.034433	0.150698
H64	H	-0.464407	0.027132	0.150548
H65	H	-0.437161	-0.244280	0.000019
H66	H	-1.148782	0.671607	-0.000087
H67	H	-1.161579	0.523229	-0.000093
O68	O	-0.561383	-0.180214	-0.150822
H69	H	-0.544141	-0.145939	-0.209784
O70	O	-1.092091	-0.015165	-0.609603
H71	H	-1.159072	-0.024361	-0.627035
O72	O	-0.867068	0.476037	-0.000065
H73	H	-0.810662	0.511718	-0.000073
H74	H	-0.458269	-0.031390	-0.131311
H75	H	-0.912498	-0.193859	-0.213827
O76	O	-0.852413	0.646043	-0.000046
H77	H	-0.814576	0.623078	0.058763
O78	O	-1.146481	0.139255	-0.000095
H79	H	-1.195615	0.187931	-0.000087
O80	O	-0.816320	0.270394	-0.000062
H81	H	-0.823572	0.335705	-0.000074
O82	O	-0.906863	-0.199568	-0.390569
H83	H	-0.867399	-0.238854	-0.343747
H84	H	-1.086403	-0.020839	-0.786333
O85	O	-0.869512	-0.236679	-0.609614
H86	H	-0.834529	-0.271507	-0.656446
O87	O	-1.129402	0.021975	-0.390530
H88	H	-1.123791	0.016400	-0.461302
