data_functionalizedCrystal
_audit_creation_method	'MofGen! by Chris Wilmer'
_symmetry_space_group_name_H-M	'P1'
_symmetry_Int_Tables_number	1
_symmetry_cell_setting	triclinic
loop_
_symmetry_equiv_pos_as_xyz
  x,y,z
_cell_length_a	16.109293
_cell_length_b	9.198806
_cell_length_c	16.109304
_cell_angle_alpha	90.000373
_cell_angle_beta	96.539546
_cell_angle_gamma	89.992645
loop_
_atom_site_label
_atom_site_type_symbol
_atom_site_fract_x
_atom_site_fract_y
_atom_site_fract_z
O1	O	-1.103137	0.120998	0.106834
O2	O	-0.861074	0.120975	0.120140
O3	O	-0.988754	0.120988	-0.007544
O4	O	-0.975457	0.120985	0.234518
O5	O	-0.988744	-0.120797	-0.007544
O6	O	-0.861064	-0.120810	0.120140
O7	O	-1.103126	-0.120787	0.106834
Cu8	Cu	-0.982094	-0.142876	0.113487
Cu9	Cu	-0.982106	0.143063	0.113487
O10	O	-0.975447	-0.120800	0.234518
C11	C	-0.830094	0.000079	0.119602
C12	C	-0.737798	0.000071	0.117990
C13	C	-0.525451	-0.131721	0.114261
C14	C	-0.438730	-0.131720	0.112737
C15	C	-0.438752	0.131887	0.112741
C16	C	-0.525471	0.131884	0.114260
C17	C	-0.568818	0.000076	0.115023
C18	C	-0.395378	0.000080	0.111981
C19	C	-0.301352	0.000082	0.110329
C20	C	-0.662850	0.000073	0.116674
N21	N	-0.982092	-0.343990	0.113486
C22	C	-1.035703	-0.416181	0.059641
C23	C	-1.035716	-0.583593	0.059638
C24	C	-0.134106	0.000100	0.107379
C25	C	-0.226398	0.000085	0.109015
C26	C	-0.988210	0.000099	-0.038519
C27	C	-0.986594	0.000108	-0.130814
N28	N	-0.982115	0.344177	0.113481
C29	C	-0.982865	0.131900	-0.343151
C30	C	-0.981339	0.131898	-0.429871
C31	C	-0.981332	-0.131709	-0.429869
C32	C	-0.982853	-0.131706	-0.343149
C33	C	-0.983623	0.000102	-0.299793
C34	C	-0.980577	0.000098	-0.473233
C35	C	-0.978922	0.000095	-0.567258
C36	C	-0.985276	0.000106	-0.205761
C37	C	-0.975991	0.000092	0.265493
C38	C	-0.977607	0.000092	0.357788
H39	H	-0.403448	0.239201	0.112120
H40	H	-0.983465	-0.239038	-0.307846
H41	H	-1.081590	-0.354050	0.013541
H42	H	-0.560782	0.239216	0.114878
H43	H	-0.980720	0.239220	-0.465169
O44	O	-1.090553	-0.657420	0.004605
C45	C	-1.140371	-0.557745	-0.045474
H46	H	-1.141450	-0.449208	-0.011458
H47	H	-1.206732	-0.601807	-0.058304
H48	H	-1.113217	-0.541620	-0.107155
O49	O	-0.396496	-0.259654	0.112105
C50	C	-0.336905	-0.267564	0.183195
H51	H	-0.320776	-0.153132	0.206963
H52	H	-0.278043	-0.323340	0.165935
H53	H	-0.363708	-0.332615	0.234171
O54	O	-0.927436	-0.581846	0.168598
C55	C	-0.941128	-0.618960	0.250860
H56	H	-1.007692	-0.660867	0.251120
H57	H	-0.931714	-0.518803	0.292545
H58	H	-0.895052	-0.707218	0.275433
H59	H	-0.983491	0.239227	-0.307853
O60	O	-0.567436	-0.259884	0.114955
C61	C	-0.510556	-0.376210	0.113973
H62	H	-0.452192	-0.337561	0.086588
H63	H	-0.540893	-0.468385	0.074066
H64	H	-0.492589	-0.416749	0.180470
O65	O	-0.927309	-0.418262	0.168368
C66	C	-0.875933	-0.506298	0.123933
H67	H	-0.908907	-0.528933	0.058798
H68	H	-0.862930	-0.613400	0.158595
H69	H	-0.814419	-0.447754	0.118476
O70	O	-0.980630	-0.259611	-0.472121
C71	C	-0.979110	-0.231356	-0.557957
H72	H	-1.005206	-0.118077	-0.573251
H73	H	-1.018877	-0.315520	-0.596203
H74	H	-0.912019	-0.237625	-0.573828
