data_functionalizedCrystal
_audit_creation_method	'MofGen! by Chris Wilmer'
_symmetry_space_group_name_H-M	'P1'
_symmetry_Int_Tables_number	1
_symmetry_cell_setting	triclinic
loop_
_symmetry_equiv_pos_as_xyz
  x,y,z
_cell_length_a	16.992694
_cell_length_b	11.295483
_cell_length_c	16.992695
_cell_angle_alpha	85.625069
_cell_angle_beta	90.668223
_cell_angle_gamma	94.379711
loop_
_atom_site_label
_atom_site_type_symbol
_atom_site_fract_x
_atom_site_fract_y
_atom_site_fract_z
O1	O	1.055813	0.098876	0.161955
O2	O	0.827415	0.098911	0.160122
O3	O	0.940698	0.098884	0.046839
O4	O	0.942530	0.098903	0.275238
O5	O	0.930747	-0.099164	0.056773
O6	O	0.817464	-0.099137	0.170056
O7	O	1.045862	-0.099172	0.171889
Cu8	Cu	0.930755	-0.117238	0.171879
Cu9	Cu	0.942523	0.116977	0.160132
O10	O	0.932579	-0.099146	0.285172
C11	C	0.793080	-0.000109	0.162733
C12	C	0.705596	-0.000096	0.155703
N13	N	0.922483	-0.281973	0.180142
C14	C	0.659605	-0.000091	0.223521
C15	C	0.577403	-0.000108	0.216913
C16	C	0.541194	-0.000121	0.142486
C17	C	0.587191	-0.000129	0.074664
C18	C	0.669391	-0.000121	0.081273
C19	C	0.295878	-0.000155	0.115093
C20	C	0.213673	-0.000160	0.108489
C21	C	0.203891	-0.000141	0.250739
C22	C	0.286093	-0.000125	0.257342
C23	C	0.332082	-0.000140	0.189519
N24	N	0.457172	-0.000135	0.135730
N25	N	0.416103	-0.000135	0.196277
C26	C	1.010339	-0.531283	0.092341
C27	C	1.004094	-0.655945	0.098591
C28	C	0.903745	-0.655961	0.198887
C29	C	0.909990	-0.531299	0.192637
C30	C	0.963290	-0.468964	0.139363
C31	C	0.969538	-0.344300	0.133118
C32	C	0.869186	-0.344319	0.233409
C33	C	0.862941	-0.468981	0.239659
C34	C	1.080198	-0.000150	0.169278
C35	C	1.167682	-0.000155	0.176307
C36	C	0.933367	-0.000139	0.022446
C37	C	0.926338	-0.000138	-0.065039
N38	N	0.950800	0.281711	0.151863
C39	C	0.994156	-0.000150	-0.111029
C40	C	0.987547	-0.000137	-0.193231
C41	C	0.913120	-0.000122	-0.229440
C42	C	0.845298	-0.000107	-0.183444
C43	C	0.851908	-0.000111	-0.101244
C44	C	0.885727	-0.000101	-0.474755
C45	C	0.879122	-0.000101	-0.556960
C46	C	1.021372	-0.000130	-0.566742
C47	C	1.027975	-0.000141	-0.484540
C48	C	0.960153	-0.000119	-0.438552
N49	N	0.906364	-0.000113	-0.313462
N50	N	0.966911	-0.000119	-0.354531
C51	C	0.939911	-0.000119	0.309565
C52	C	0.946940	-0.000113	0.397049
H53	H	0.539961	-0.000103	0.272138
C54	C	0.741270	-0.101871	0.318584
C55	C	0.699406	-0.000072	0.305333
H56	H	0.765843	-0.101854	0.369090
H57	H	0.705945	-0.170927	0.316518
H58	H	0.780424	-0.101858	0.279135
H59	H	0.660248	-0.000089	0.344779
H60	H	0.734734	0.069002	0.307405
C61	C	0.670810	-0.000120	-0.059999
C62	C	0.719947	-0.000115	0.006725
H63	H	0.702023	-0.000111	-0.106022
H64	H	0.635085	-0.069183	-0.056156
H65	H	0.642006	0.068945	-0.063076
H66	H	0.748747	-0.069185	0.009805
H67	H	0.755686	0.068956	0.002881
C68	C	1.068093	-0.356810	0.034601
C69	C	1.028120	-0.275778	0.074557
H70	H	1.104254	-0.314507	-0.001557
H71	H	1.096027	-0.405422	0.071593
H72	H	1.031104	-0.405443	0.006658
H73	H	1.065108	-0.227150	0.102506
H74	H	1.000184	-0.227145	0.037559
H75	H	1.054762	-0.000170	-0.081554
C76	C	0.808814	-0.660088	0.293777
C77	C	0.804360	-0.537506	0.298219
H78	H	0.772652	-0.702388	0.329936
H79	H	0.795942	-0.680514	0.241731
H80	H	0.860867	-0.680495	0.306666
H81	H	0.752308	-0.517097	0.285325
H82	H	0.817226	-0.517072	0.350277
H83	H	0.830877	-0.293565	0.271700
H84	H	1.053743	-0.480529	0.048969
C85	C	1.103911	-0.643402	-0.001173
C86	C	1.055813	-0.724447	0.046904
H87	H	1.135843	-0.685695	-0.033080
H88	H	1.071805	-0.594789	-0.033993
H89	H	1.136716	-0.594770	0.030954
H90	H	1.023004	-0.773073	0.014777
H91	H	1.087924	-0.773080	0.079728
C92	C	0.716898	-0.101883	-0.195301
C93	C	0.763484	-0.000085	-0.223239
H94	H	0.666386	-0.101864	-0.219865
H95	H	0.741564	-0.170940	-0.207328
H96	H	0.711138	-0.101869	-0.139763
H97	H	0.769249	-0.000104	-0.278776
H98	H	0.738812	0.068990	-0.211218
H99	H	0.830501	-0.000084	-0.437321
H100	H	0.860345	-0.706731	0.242256
C101	C	1.135468	-0.101956	-0.595291
C102	C	1.095919	-0.000141	-0.617295
H103	H	1.181490	-0.101960	-0.626505
H104	H	1.150052	-0.101952	-0.541161
H105	H	1.101685	-0.171008	-0.603298
H106	H	1.129700	0.068912	-0.609284
H107	H	1.081337	-0.000134	-0.671438
H108	H	1.042771	-0.000150	-0.230673
C109	C	1.156375	0.101646	-0.472675
C110	C	1.109789	-0.000155	-0.444745
H111	H	1.206882	0.101633	-0.448103
H112	H	1.162141	0.101640	-0.528205
H113	H	1.131701	0.170708	-0.460645
H114	H	1.134461	-0.069217	-0.456780
H115	H	1.104026	-0.000160	-0.389202
C116	C	0.798879	-0.000096	0.029107
C117	C	0.777361	-0.000097	-0.050687
H118	H	0.752855	-0.000076	0.060316
H119	H	0.825707	-0.069162	0.044026
H120	H	0.832659	0.068966	0.037096
H121	H	0.743586	-0.069164	-0.058677
H122	H	0.750521	0.068976	-0.065611
H123	H	0.315569	-0.000101	0.317947
C124	C	0.110875	0.101663	0.320723
C125	C	0.153335	-0.000138	0.325286
H126	H	0.079661	0.101655	0.366746
H127	H	0.146607	0.170718	0.316886
H128	H	0.077550	0.101644	0.275449
H129	H	0.186665	-0.000114	0.370557
H130	H	0.117599	-0.069210	0.329131
H131	H	0.184195	-0.000169	0.047879
C132	C	0.297279	-0.000166	-0.026177
C133	C	0.346423	-0.000161	0.040543
H134	H	0.328488	-0.000163	-0.072202
H135	H	0.261553	-0.069226	-0.022329
H136	H	0.268478	0.068902	-0.029253
H137	H	0.375220	-0.069234	0.043623
H138	H	0.382164	0.068906	0.036694
C139	C	0.760964	0.101757	-0.579051
C140	C	0.797309	-0.000069	-0.596769
H141	H	0.710462	0.101778	-0.603634
H142	H	0.755187	0.101751	-0.523521
H143	H	0.792591	0.170802	-0.597995
H144	H	0.765685	-0.069114	-0.577820
H145	H	0.803083	-0.000074	-0.652310
H146	H	0.557702	-0.000157	0.014064
