data_functionalizedCrystal
_audit_creation_method	'MofGen! by Chris Wilmer'
_symmetry_space_group_name_H-M	'P1'
_symmetry_Int_Tables_number	1
_symmetry_cell_setting	triclinic
loop_
_symmetry_equiv_pos_as_xyz
  x,y,z
_cell_length_a	17.699083
_cell_length_b	22.010155
_cell_length_c	17.699092
_cell_angle_alpha	89.994071
_cell_angle_beta	96.715309
_cell_angle_gamma	89.998015
loop_
_atom_site_label
_atom_site_type_symbol
_atom_site_fract_x
_atom_site_fract_y
_atom_site_fract_z
O1	O	-1.004084	0.050432	0.095700
O2	O	-0.504084	0.550432	0.595700
O3	O	-0.783706	0.050453	0.108153
O4	O	-0.283706	0.550453	0.608153
O5	O	-0.900118	0.050440	-0.008262
O6	O	-0.400118	0.550440	0.491738
O7	O	-0.887672	0.050444	0.212115
O8	O	-0.387672	0.550444	0.712115
O9	O	-0.900097	-0.050610	-0.008245
O10	O	-0.400097	0.449390	0.491755
O11	O	-0.783685	-0.050598	0.108170
O12	O	-0.283685	0.449402	0.608170
O13	O	-1.004063	-0.050619	0.095718
O14	O	-0.504063	0.449381	0.595718
Cu15	Cu	-0.893872	-0.059835	0.101946
Cu16	Cu	-0.393872	0.440165	0.601946
Cu17	Cu	-0.893897	0.059669	0.101925
Cu18	Cu	-0.393897	0.559669	0.601925
O19	O	-0.887651	-0.050606	0.212133
O20	O	-0.387651	0.449394	0.712133
C21	C	-0.755499	-0.000070	0.107715
C22	C	-0.255499	0.499930	0.607715
C23	C	-0.671480	-0.000062	0.106377
C24	C	-0.171480	0.499938	0.606377
N25	N	-0.893860	-0.143887	0.101960
N26	N	-0.393860	0.356113	0.601960
C27	C	-0.622862	-0.000061	0.174710
C28	C	-0.122862	0.499939	0.674710
C29	C	-0.543918	-0.000068	0.173448
C30	C	-0.043918	0.499932	0.673448
C31	C	-0.513595	-0.000072	0.103851
C32	C	-0.013595	0.499928	0.603851
C33	C	-0.562220	-0.000075	0.035513
C34	C	-0.062220	0.499925	0.535513
C35	C	-0.641162	-0.000072	0.036776
C36	C	-0.141162	0.499928	0.536776
C37	C	-0.243857	-0.000089	0.030418
C38	C	0.256143	0.499911	0.530418
C39	C	-0.164909	-0.000090	0.029160
C40	C	0.335091	0.499910	0.529160
C41	C	-0.146613	-0.000084	0.167089
C42	C	0.353387	0.499916	0.667089
C43	C	-0.225555	-0.000081	0.168352
C44	C	0.274445	0.499919	0.668352
C45	C	-0.274173	-0.000087	0.100014
C46	C	0.225827	0.499913	0.600014
C47	C	-0.359772	-0.000081	0.101384
C48	C	0.140228	0.499919	0.601384
C49	C	-0.427998	-0.000075	0.102481
C50	C	0.072002	0.499925	0.602481
C51	C	-0.945447	-0.563672	0.050384
C52	C	-0.445447	-0.063672	0.550384
C53	C	-0.945451	-0.627280	0.050379
C54	C	-0.445451	-0.127280	0.550379
O55	O	-0.989282	-0.660176	0.006537
O56	O	-0.489282	-0.160176	0.506537
N57	N	-0.893897	-0.659095	0.101909
N58	N	-0.393897	-0.159095	0.601909
C59	C	-0.842330	-0.627298	0.153443
C60	C	-0.342330	-0.127298	0.653443
O61	O	-0.798479	-0.660200	0.197273
O62	O	-0.298479	-0.160200	0.697273
C63	C	-0.842324	-0.563692	0.153444
C64	C	-0.342324	-0.063692	0.653444
C65	C	-0.893887	-0.531880	0.101915
C66	C	-0.393887	-0.031880	0.601915
C67	C	-0.997005	-0.531861	-0.001142
C68	C	-0.497005	-0.031861	0.498858
C69	C	-0.997002	-0.468258	-0.001135
C70	C	-0.497002	0.031742	0.498865
C71	C	-0.945442	-0.436466	0.050396
C72	C	-0.445442	0.063534	0.550396
C73	C	-0.893884	-0.468277	0.101922
C74	C	-0.393884	0.031723	0.601922
C75	C	-0.790755	-0.531897	0.204974
C76	C	-0.290755	-0.031897	0.704974
C77	C	-0.790752	-0.468286	0.204970
C78	C	-0.290752	0.031714	0.704970
C79	C	-0.842315	-0.436475	0.153441
C80	C	-0.342315	0.063525	0.653441
C81	C	-0.842320	-0.372882	0.153460
C82	C	-0.342320	0.127118	0.653460
N83	N	-0.893875	-0.341068	0.101929
N84	N	-0.393875	0.158932	0.601929
C85	C	-0.945435	-0.372859	0.050397
C86	C	-0.445435	0.127141	0.550397
C87	C	-0.842347	-0.760876	0.153436
C88	C	-0.342347	-0.260876	0.653436
C89	C	-0.842357	-0.824481	0.153440
C90	C	-0.342357	-0.324481	0.653440
C91	C	-0.945476	-0.824459	0.050374
C92	C	-0.445476	-0.324459	0.550374
C93	C	-0.945470	-0.760852	0.050375
C94	C	-0.445470	-0.260852	0.550375
C95	C	-0.893901	-0.729061	0.101906
C96	C	-0.393901	-0.229061	0.601906
C97	C	-0.945426	-0.239288	0.050415
C98	C	-0.445426	0.260712	0.550415
C99	C	-0.945421	-0.175679	0.050428
C100	C	-0.445421	0.324321	0.550428
C101	C	-0.842299	-0.175708	0.153491
C102	C	-0.342299	0.324292	0.653491
C103	C	-0.842306	-0.239311	0.153481
C104	C	-0.342306	0.260689	0.653481
C105	C	-0.893873	-0.271100	0.101937
C106	C	-0.393873	0.228900	0.601937
O107	O	-0.798510	-0.339946	0.197277
O108	O	-0.298510	0.160054	0.697277
O109	O	-0.989272	-0.339950	0.006568
O110	O	-0.489272	0.160050	0.506568
C111	C	-0.032271	-0.000093	0.096155
C112	C	0.467729	0.499907	0.596155
C113	C	-0.116289	-0.000093	0.097494
C114	C	0.383711	0.499907	0.597494
C115	C	-0.899661	-0.000084	-0.036450
C116	C	-0.399661	0.499916	0.463550
C117	C	-0.898319	-0.000081	-0.120468
C118	C	-0.398319	0.499919	0.379532
N119	N	-0.893915	0.143721	0.101905
N120	N	-0.393915	0.643721	0.601905
C121	C	-0.897703	0.055002	-0.159945
C122	C	-0.397703	0.555002	0.340055
C123	C	-0.896438	0.055003	-0.238888
C124	C	-0.396438	0.555003	0.261112
C125	C	-0.895795	-0.000080	-0.278353
C126	C	-0.395795	0.499920	0.221647
C127	C	-0.896410	-0.055168	-0.238871
C128	C	-0.396410	0.444832	0.261129
C129	C	-0.897669	-0.055168	-0.159928
C130	C	-0.397669	0.444832	0.340072
C131	C	-0.891329	-0.055168	-0.557236
C132	C	-0.391329	0.444832	-0.057236
C133	C	-0.890072	-0.055164	-0.636184
C134	C	-0.390072	0.444836	-0.136184
C135	C	-0.890098	0.055003	-0.636195
C136	C	-0.390098	0.555003	-0.136195
C137	C	-0.891357	0.055003	-0.557253
C138	C	-0.391357	0.555003	-0.057253
C139	C	-0.891968	-0.000085	-0.517777
C140	C	-0.391968	0.499915	-0.017777
C141	C	-0.893338	-0.000085	-0.432178
C142	C	-0.393338	0.499915	0.067822
C143	C	-0.894430	-0.000080	-0.363952
C144	C	-0.394430	0.499920	0.136048
C145	C	-0.888109	-0.000081	0.240321
C146	C	-0.388109	0.499919	0.740321
C147	C	-0.889450	-0.000080	0.324339
C148	C	-0.389450	0.499920	0.824339
H149	H	-0.647544	-0.000057	0.231383
H150	H	-0.147544	0.499943	0.731383
Br151	Br	-0.895600	0.129762	-0.292461
Br152	Br	-0.395600	0.629762	0.207539
H153	H	-0.748768	-0.557789	0.246933
H154	H	-0.248768	-0.057789	0.746933
Br155	Br	-0.898502	-0.129927	-0.106351
Br156	Br	-0.398502	0.370073	0.393649
Br157	Br	-0.772336	-0.282482	0.223425
Br158	Br	-0.272336	0.217518	0.723425
Br159	Br	-0.889201	-0.129924	-0.689744
Br160	Br	-0.389201	0.370076	-0.189744
H161	H	-0.987415	-0.265163	0.008442
H162	H	-0.487415	0.234837	0.508442
H163	H	-1.038987	-0.442361	-0.043096
H164	H	-0.538987	0.057639	0.456904
Br165	Br	-0.892236	0.129761	-0.503698
Br166	Br	-0.392236	0.629761	-0.003698
H167	H	-0.800321	-0.149813	0.195449
H168	H	-0.300321	0.350187	0.695449
H169	H	-1.038992	-0.557740	-0.043108
H170	H	-0.538992	-0.057740	0.456892
H171	H	-0.898230	0.099857	-0.127819
H172	H	-0.398230	0.599857	0.372181
Br173	Br	-0.892142	-0.129929	-0.503668
Br174	Br	-0.392142	0.370071	-0.003668
Br175	Br	-0.720759	-0.425146	0.274906
Br176	Br	-0.220759	0.074854	0.774906
H177	H	-0.504335	-0.000066	0.229091
H178	H	-0.004335	0.499934	0.729091
H179	H	-0.250239	-0.000075	0.225025
H180	H	0.249761	0.499925	0.725025
Br181	Br	-0.889269	0.129766	-0.689774
Br182	Br	-0.389269	0.629766	-0.189774
H183	H	-0.895882	-0.100017	-0.271009
H184	H	-0.395882	0.399983	0.228991
H185	H	-0.537525	-0.000088	-0.021154
H186	H	-0.037525	0.499912	0.478846
H187	H	-0.987412	-0.149780	0.008467
H188	H	-0.487412	0.350220	0.508467
H189	H	-0.140224	-0.000094	-0.027517
H190	H	0.359776	0.499906	0.472483
Br191	Br	-0.309829	-0.000099	-0.062327
Br192	Br	0.190171	0.499901	0.437673
Br193	Br	-0.080627	-0.000076	0.259836
Br194	Br	0.419373	0.499924	0.759836
H195	H	-0.800378	-0.850378	0.195407
H196	H	-0.300378	-0.350378	0.695407
H197	H	-0.987456	-0.734955	0.008415
H198	H	-0.487456	-0.234955	0.508415
Br199	Br	-1.015452	-0.867618	-0.019562
Br200	Br	-0.515452	-0.367618	0.480438
Br201	Br	-0.707147	-0.000079	-0.055965
Br202	Br	-0.207147	0.499921	0.444035
Br203	Br	-0.772360	-0.717737	0.223383
Br204	Br	-0.272360	-0.217737	0.723383
