data_functionalizedCrystal
_audit_creation_method	'MofGen! by Chris Wilmer'
_symmetry_space_group_name_H-M	'P1'
_symmetry_Int_Tables_number	1
_symmetry_cell_setting	triclinic
loop_
_symmetry_equiv_pos_as_xyz
  x,y,z
_cell_length_a	10.654541
_cell_length_b	9.730217
_cell_length_c	10.654551
_cell_angle_alpha	90.003424
_cell_angle_beta	95.515355
_cell_angle_gamma	90.002793
loop_
_atom_site_label
_atom_site_type_symbol
_atom_site_fract_x
_atom_site_fract_y
_atom_site_fract_z
O1	O	1.667833	-0.114238	-0.176388
O2	O	1.302354	-0.114250	-0.193197
O3	O	1.493496	-0.114244	-0.002054
O4	O	1.476692	-0.114244	-0.367532
O5	O	1.493502	0.114336	-0.002040
O6	O	1.302360	0.114331	-0.193184
O7	O	1.667839	0.114342	-0.176374
Zn8	Zn	1.485100	0.150628	-0.184777
Zn9	Zn	1.485093	-0.150536	-0.184795
O10	O	1.476697	0.114337	-0.367518
C11	C	1.255559	0.000039	-0.191957
C12	C	1.116116	0.000034	-0.188266
N13	N	1.485089	-0.356073	-0.184798
C14	C	1.492265	0.000042	0.044751
C15	C	1.488572	0.000033	0.184194
C16	C	1.088146	0.000018	-0.416831
C17	C	1.008652	0.000004	-0.529374
C18	C	0.877634	0.000003	-0.525898
C19	C	0.826108	0.000019	-0.409867
C20	C	0.905602	0.000033	-0.297324
C21	C	1.036621	0.000030	-0.300812
C22	C	0.933572	0.000060	-0.068762
C23	C	1.064590	0.000051	-0.072235
C24	C	0.882046	0.000076	0.047269
C25	C	0.961540	0.000080	0.159814
C26	C	1.092566	0.000080	0.156334
C27	C	1.144084	0.000065	0.040308
C28	C	1.714634	0.000050	-0.177615
C29	C	1.854078	0.000046	-0.181306
C30	C	1.331739	-0.356067	-0.030728
C31	C	1.255064	-0.428004	0.046310
C32	C	1.255070	-0.571884	0.046326
C33	C	1.331760	-0.643830	-0.030703
C34	C	1.408435	-0.571893	-0.107741
C35	C	1.408419	-0.428010	-0.107751
C36	C	1.561789	-0.571898	-0.261802
C37	C	1.561779	-0.428019	-0.261826
C38	C	1.638480	-0.643844	-0.338830
C39	C	1.715150	-0.571907	-0.415877
C40	C	1.715141	-0.428019	-0.415891
C41	C	1.638454	-0.356081	-0.338865
N42	N	1.485115	0.356165	-0.184764
C43	C	1.477929	0.000047	-0.414323
C44	C	1.481621	0.000047	-0.553766
C45	C	1.486837	-0.124564	0.249699
C46	C	1.483357	-0.124557	0.380719
C47	C	1.483353	0.124653	0.380720
C48	C	1.486824	0.124646	0.249701
C49	C	1.488586	-0.249176	0.184193
C50	C	1.486852	-0.373783	0.249697
C51	C	1.483372	-0.373777	0.380718
C52	C	1.481625	-0.249164	0.446233
H53	H	1.050619	-0.000006	-0.623844
N54	N	0.684795	0.000050	-0.406131
H55	H	0.647730	-0.084680	-0.450165
H56	H	0.664312	0.000116	-0.315527
H57	H	1.638485	-0.760999	-0.338806
H58	H	1.157283	0.000096	0.247981
N59	N	0.740736	0.000102	0.051025
H60	H	0.698193	0.000093	-0.037875
H61	H	0.714761	-0.084624	0.096795
H62	H	0.919576	0.000093	0.254278
N63	N	0.791901	0.000012	-0.647289
H64	H	0.808579	-0.084723	-0.697864
H65	H	0.701117	0.000071	-0.627381
H66	H	1.250764	0.000049	0.037463
N67	N	1.477862	-0.249142	0.587547
H68	H	1.399306	-0.298064	0.609597
H69	H	1.554793	-0.298029	0.628525
H70	H	1.331718	-0.238912	-0.030743
N71	N	1.488713	0.259023	0.179032
H72	H	1.412437	0.264567	0.115167
H73	H	1.487137	0.337892	0.240489
N74	N	1.172358	-0.350408	0.129395
H75	H	1.183983	-0.248345	0.117698
H76	H	1.081210	-0.375573	0.105591
N77	N	1.229457	-0.000006	-0.420578
H78	H	1.250036	-0.000023	-0.511155
H79	H	1.266426	0.084736	-0.376492
N80	N	1.172383	-0.649483	0.129423
H81	H	1.123801	-0.582080	0.178220
H82	H	1.111382	-0.709197	0.075336
N83	N	1.331766	-0.799013	-0.030684
H84	H	1.391978	-0.833675	-0.091170
H85	H	1.359295	-0.833538	0.057050
N86	N	1.797870	-0.649501	-0.498938
H87	H	1.786246	-0.751563	-0.487230
H88	H	1.773688	-0.624384	-0.590029
N89	N	1.797863	-0.350432	-0.498962
H90	H	1.846448	-0.417847	-0.547744
H91	H	1.743553	-0.290746	-0.559780
H92	H	1.638436	-0.238927	-0.338872
N93	N	1.492324	-0.249173	0.042878
H94	H	1.570874	-0.200241	0.020826
H95	H	1.493116	-0.347051	0.011407
N96	N	1.488618	-0.508181	0.179030
H97	H	1.491053	-0.489282	0.086086
H98	H	1.565695	-0.562667	0.211395
N99	N	1.481571	-0.508164	0.451382
H100	H	1.483232	-0.587100	0.390002
H101	H	1.557876	-0.513517	0.515220
H102	H	1.481932	0.226107	0.434073
