data_functionalizedCrystal
_audit_creation_method	'MofGen! by Chris Wilmer'
_symmetry_space_group_name_H-M	'P1'
_symmetry_Int_Tables_number	1
_symmetry_cell_setting	triclinic
loop_
_symmetry_equiv_pos_as_xyz
  x,y,z
_cell_length_a	14.395555
_cell_length_b	14.446369
_cell_length_c	14.446369
_cell_angle_alpha	59.998247
_cell_angle_beta	60.001246
_cell_angle_gamma	90.003248
loop_
_atom_site_label
_atom_site_type_symbol
_atom_site_fract_x
_atom_site_fract_y
_atom_site_fract_z
Zr1	Zr	0.894941	-0.121438	1.013175
O2	O	0.746609	-0.269256	1.206303
O3	O	0.940409	-0.076123	0.820058
O4	O	0.940405	-0.269245	1.013181
O5	O	0.746622	0.076203	1.013171
O6	O	1.093279	-0.269237	1.013174
O7	O	0.746613	-0.076134	1.013179
O8	O	1.093286	0.076223	0.667712
O9	O	0.746614	-0.269257	1.358634
O10	O	1.073893	-0.056791	0.899481
O11	O	0.959811	0.056890	0.899480
O12	O	0.959807	-0.170486	1.126858
O13	O	0.845725	-0.056805	1.126857
Zr14	Zr	1.138771	0.121535	1.013151
Zr15	Zr	1.138758	-0.121425	1.013164
Zr16	Zr	0.894954	0.121522	1.013162
Zr17	Zr	0.894949	-0.121439	1.256125
Zr18	Zr	1.138763	0.121536	0.770201
O19	O	1.093304	0.076220	1.206268
O20	O	1.093285	-0.269238	1.206287
O21	O	0.746628	0.076202	1.206284
O22	O	1.287103	0.269353	0.820023
O23	O	1.287084	-0.076105	0.820042
O24	O	0.940427	0.269335	0.820039
O25	O	1.287091	-0.076106	1.013155
O26	O	1.093308	0.269342	1.013145
O27	O	0.940434	0.269334	1.013152
O28	O	1.287099	0.076232	1.013147
O29	O	0.940416	-0.269247	1.358625
O30	O	1.093296	0.269344	0.667701
O31	O	1.287098	0.269354	0.667692
O32	O	1.287087	0.076233	0.667703
O33	O	0.746625	-0.076136	1.358623
O34	O	0.940426	-0.076126	1.358614
O35	O	1.073906	0.170584	0.899468
O36	O	1.187988	0.056902	0.899469
O37	O	1.073901	-0.056793	1.126846
O38	O	0.959819	0.056889	1.126845
C39	C	0.711879	0.000033	1.013177
C40	C	0.608372	0.000027	1.013181
C41	C	1.016846	0.000050	0.709270
C42	C	1.016843	0.000051	0.606131
C43	C	1.016872	0.303955	1.013146
C44	C	1.016878	0.407098	1.013141
C45	C	0.485578	-0.061954	1.137157
C46	C	0.454738	-0.106872	1.075186
C47	C	0.454789	0.044937	1.075148
C48	C	0.578896	-0.044953	0.951209
C49	C	0.578943	0.106915	0.951189
C50	C	0.548177	0.062024	0.889127
C51	C	1.321833	0.000065	1.013149
C52	C	1.425340	0.000070	1.013145
C53	C	1.016840	-0.303857	1.013180
C54	C	1.016834	-0.407000	1.013185
C55	C	1.088459	0.625471	0.869749
C56	C	1.088869	0.518239	0.869652
C57	C	1.069363	0.410432	1.084368
C58	C	1.069880	0.518201	1.083458
C59	C	0.892697	0.516812	1.086419
C60	C	0.892900	0.410843	1.083716
C61	C	0.944886	0.071759	0.566842
C62	C	0.945216	0.072140	0.459206
C63	C	1.140869	0.051977	0.371405
C64	C	1.140459	0.052522	0.478651
C65	C	0.965804	-0.123630	0.653860
C66	C	0.963316	-0.123446	0.547687
C67	C	1.016866	0.000047	1.317057
C68	C	1.016870	0.000047	1.420195
C69	C	1.321823	0.000066	0.709256
C70	C	1.425326	0.000072	0.606113
C71	C	1.016862	0.303956	0.709253
C72	C	1.016864	0.407100	0.606109
C73	C	1.321840	0.303973	0.709239
C74	C	1.425348	0.407121	0.606090
C75	C	0.711873	-0.303875	1.317087
C76	C	0.608364	-0.407024	1.420236
C77	C	0.711889	0.000031	1.317070
C78	C	0.608386	0.000025	1.420214
C79	C	1.016850	-0.303859	1.317073
C80	C	1.016848	-0.407002	1.420218
C81	C	1.644464	0.071413	0.459790
C82	C	1.536858	0.071817	0.566714
C83	C	1.428665	0.052372	0.479255
C84	C	1.536810	0.052892	0.371876
C85	C	1.535429	-0.123669	0.546859
C86	C	1.429090	-0.123471	0.655333
C87	C	0.944561	0.482083	0.459794
C88	C	0.944864	0.374748	0.566723
C89	C	1.140833	0.481665	0.479246
C90	C	1.140446	0.588530	0.371863
C91	C	0.966233	0.590106	0.546838
C92	C	0.963714	0.481428	0.655316
C93	C	1.500606	0.625495	0.459737
C94	C	1.392891	0.518257	0.566689
C95	C	1.500151	0.410437	0.479242
C96	C	1.607394	0.518212	0.371836
C97	C	1.609020	0.516873	0.546775
C98	C	1.499957	0.410897	0.655275
H99	H	0.460135	-0.114450	1.241991
H100	H	1.180994	0.588258	0.281110
H101	H	0.853578	0.320472	0.656078
H102	H	1.507880	-0.177099	0.522075
H103	H	1.021078	0.491544	1.188695
H104	H	1.525570	0.331742	0.687404
H105	H	1.161228	0.568556	1.032833
H106	H	1.426528	0.142540	0.440692
H107	H	1.350119	0.002890	0.501506
H108	H	1.010382	-0.181287	0.526505
H109	H	0.632251	-0.083021	0.898853
H110	H	1.197260	0.667117	0.341900
H111	H	1.687513	0.489431	0.521979
H112	H	1.510059	0.004261	0.341927
H113	H	1.448382	0.411462	0.745732
H114	H	1.019709	0.332161	1.189870
H115	H	0.853919	0.037341	0.495753
H116	H	0.839082	0.489359	1.192085
H117	H	0.979996	0.320962	0.529260
H118	H	0.573833	0.114446	0.784208
H119	H	0.872386	0.430000	0.745815
H120	H	1.010915	0.506954	0.687437
H121	H	1.181663	0.430057	0.440691
H122	H	1.699646	0.162117	0.370118
H123	H	1.180446	0.520701	0.813410
H124	H	1.196841	0.002232	0.342900
H125	H	0.401218	-0.197249	1.127586
H126	H	0.401287	0.082900	1.127566
H127	H	0.848851	0.566825	1.040522
H128	H	0.853346	0.037146	0.655556
H129	H	0.853693	0.411358	1.031779
H130	H	0.632461	0.197272	0.898834
H131	H	0.979979	0.162453	0.530966
H132	H	1.539328	0.163074	0.529243
H133	H	1.053669	0.519849	0.813767
H134	H	1.181998	0.142096	0.278958
H135	H	0.875844	-0.167047	0.747451
H136	H	1.053433	0.679426	0.813456
H137	H	0.979366	0.481050	0.370129
H138	H	0.980650	0.163374	0.370253
H139	H	1.448346	0.408288	0.440704
H140	H	1.587337	0.143923	0.281117
H141	H	0.876328	0.594218	0.586412
H142	H	1.179481	0.680460	0.813728
H143	H	1.585622	-0.167359	0.586431
H144	H	1.018659	0.668328	0.522041
H145	H	0.871959	-0.162243	0.587143
H146	H	1.181289	0.143522	0.437829
H147	H	1.159848	0.408308	1.034889
H148	H	1.429613	-0.162540	0.745820
H149	H	1.538478	0.036741	0.656064
H150	H	1.197016	0.003643	0.500902
H151	H	0.853042	0.479743	0.497036
H152	H	1.698610	0.036511	0.497030
H153	H	1.613168	0.566903	0.586326
H154	H	0.835049	0.331681	1.188401
H155	H	1.017957	-0.177304	0.680127
H156	H	1.349650	-0.181124	0.687464
H157	H	1.527481	0.332174	0.501494
H158	H	1.197053	0.508900	0.501488
H159	H	1.338441	0.519879	0.656032
H160	H	1.338900	0.520699	0.529242
H161	H	1.499558	0.680468	0.370077
H162	H	1.498277	0.679464	0.496958
H163	H	1.607111	0.568546	0.281087
H164	H	1.686252	0.491562	0.341873
