data_functionalizedCrystal
_audit_creation_method	'MofGen! by Chris Wilmer'
_symmetry_space_group_name_H-M	'P1'
_symmetry_Int_Tables_number	1
_symmetry_cell_setting	triclinic
loop_
_symmetry_equiv_pos_as_xyz
  x,y,z
_cell_length_a	10.489741
_cell_length_b	8.559649
_cell_length_c	7.088929
_cell_angle_alpha	95.344185
_cell_angle_beta	83.729901
_cell_angle_gamma	77.158919
loop_
_atom_site_label
_atom_site_type_symbol
_atom_site_fract_x
_atom_site_fract_y
_atom_site_fract_z
O1	O	-1.655669	-0.241423	-0.158862
O2	O	-1.282245	-0.262562	-0.158891
O3	O	-1.501856	-0.019769	-0.158872
O4	O	-1.436058	-0.484216	-0.158881
O5	O	-1.531212	0.012752	0.159106
O6	O	-1.311601	-0.230041	0.159087
O7	O	-1.685025	-0.208902	0.159116
Cu8	Cu	-1.500993	-0.216502	0.188135
Cu9	Cu	-1.466276	-0.254962	-0.187910
O10	O	-1.465414	-0.451695	0.159097
C11	C	-1.521520	0.055964	0.000114
C12	C	-1.536361	0.233172	0.000104
C13	C	-1.249559	-0.244706	0.000094
C14	C	-1.108431	-0.239931	0.000083
C15	C	-1.717710	-0.226759	0.000126
C16	C	-1.858837	-0.231535	0.000125
C17	C	-1.056559	-0.085447	0.000104
C18	C	-0.942275	-0.174457	-0.156673
C19	C	-0.971248	-0.142431	0.156828
C20	C	-0.995993	-0.329017	-0.156824
C21	C	-1.024991	-0.296955	0.156818
C22	C	-0.910718	-0.386081	0.000003
C23	C	-1.445749	-0.527429	0.000107
C24	C	-1.430907	-0.704638	0.000104
N25	N	-1.525421	-0.189451	0.452625
N26	N	-1.441860	-0.282001	-0.452401
H27	H	-1.119603	0.041526	-0.000090
C28	C	-1.715706	0.021293	0.432920
C29	C	-1.642342	-0.059970	0.562850
H30	H	-1.787889	0.101221	0.500972
H31	H	-1.661058	0.071323	0.354861
H32	H	-1.747943	-0.053556	0.354829
H33	H	-1.610096	0.014878	0.640931
H34	H	-1.696999	-0.110001	0.640941
H35	H	-1.355260	-0.377910	0.465946
C36	C	-0.869274	-0.622540	0.162506
C37	C	-0.825904	-0.557703	-0.000107
H38	H	-0.816914	-0.728494	0.162422
H39	H	-0.861356	-0.556530	0.273935
H40	H	-0.958961	-0.626593	0.161424
H41	H	-0.736219	-0.553639	0.000983
H42	H	-0.833810	-0.623730	-0.111564
C43	C	-1.062908	-0.268920	0.499780
C44	C	-1.074161	-0.366816	0.335750
H45	H	-1.093278	-0.312036	0.610253
H46	H	-0.973171	-0.265486	0.501711
H47	H	-1.114664	-0.162848	0.498631
H48	H	-1.022397	-0.472885	0.336891
H49	H	-1.163913	-0.370268	0.333819
H50	H	-1.329267	0.213034	0.000102
H51	H	-0.959392	-0.063483	0.289371
H52	H	-0.905906	-0.122649	-0.289217
H53	H	-1.007694	-0.407902	-0.289516
H54	H	-1.638010	0.315511	0.000127
