data_functionalizedCrystal
_audit_creation_method	'MofGen! by Chris Wilmer'
_symmetry_space_group_name_H-M	'P1'
_symmetry_Int_Tables_number	1
_symmetry_cell_setting	triclinic
loop_
_symmetry_equiv_pos_as_xyz
  x,y,z
_cell_length_a	10.540539
_cell_length_b	14.519709
_cell_length_c	9.016244
_cell_angle_alpha	90.006998
_cell_angle_beta	90.000899
_cell_angle_gamma	84.102818
loop_
_atom_site_label
_atom_site_type_symbol
_atom_site_fract_x
_atom_site_fract_y
_atom_site_fract_z
O1	O	-1.684557	-0.129970	-0.123274
O2	O	-1.184557	0.370030	0.376726
O3	O	-1.315019	-0.142215	-0.123293
O4	O	-0.815019	0.357785	0.376707
O5	O	-1.509586	-0.001907	-0.123269
O6	O	-1.009586	0.498093	0.376731
O7	O	-1.489991	-0.270278	-0.123297
O8	O	-0.989991	0.229722	0.376703
O9	O	-1.509576	-0.001898	0.123411
O10	O	-1.009576	0.498102	0.623411
O11	O	-1.315009	-0.142207	0.123388
O12	O	-0.815009	0.357793	0.623388
O13	O	-1.684547	-0.129961	0.123407
O14	O	-1.184547	0.370039	0.623407
Cu15	Cu	-1.499777	-0.136083	0.145921
Cu16	Cu	-0.999777	0.363917	0.645921
Cu17	Cu	-1.499789	-0.136093	-0.145807
Cu18	Cu	-0.999789	0.363907	0.354193
O19	O	-1.489980	-0.270270	0.123384
O20	O	-0.989980	0.229730	0.623384
C21	C	-1.267720	-0.141293	0.000046
C22	C	-0.767720	0.358707	0.500046
C23	C	-1.126800	-0.138545	0.000039
C24	C	-0.626800	0.361455	0.500039
C25	C	-1.508668	0.032462	0.000071
C26	C	-1.008668	0.532462	0.500071
C27	C	-1.505931	0.134858	0.000072
C28	C	-1.005931	0.634858	0.500072
C29	C	-1.731846	-0.130884	0.000065
C30	C	-1.231846	0.369116	0.500065
C31	C	-1.872766	-0.133631	0.000062
C32	C	-1.372766	0.366369	0.500062
C33	C	-0.944448	-0.033266	0.000626
C34	C	-0.444448	0.466734	0.500626
C35	C	-1.091038	-0.036051	0.000054
C36	C	-0.591038	0.463949	0.500054
C37	C	-1.064630	-0.187874	-0.140828
C38	C	-0.564630	0.312126	0.359172
C39	C	-0.918122	-0.184376	-0.140930
C40	C	-0.418122	0.315624	0.359070
C41	C	-0.917600	-0.186452	0.139592
C42	C	-0.417600	0.313548	0.639592
C43	C	-1.064572	-0.187396	0.141438
C44	C	-0.564572	0.312604	0.641438
C45	C	-1.490899	-0.304639	0.000040
C46	C	-0.990899	0.195361	0.500040
C47	C	-1.493635	-0.407035	0.000029
C48	C	-0.993635	0.092965	0.500029
N49	N	-1.499777	-0.136076	0.351108
N50	N	-0.999777	0.363924	0.851108
C51	C	-1.495856	0.509808	0.000033
C52	C	-0.995856	1.009808	0.500033
C53	C	-1.498654	0.405485	0.000044
C54	C	-0.998654	0.905485	0.500044
C55	C	-1.500893	0.322337	0.000054
C56	C	-1.000893	0.822337	0.500054
C57	C	-1.503692	0.218007	0.000062
C58	C	-1.003692	0.718007	0.500062
C59	C	-1.603915	-0.061029	0.414044
C60	C	-1.103915	0.438971	0.914044
C61	C	-1.604299	-0.061237	0.585935
C62	C	-1.104299	0.438763	1.085935
C63	C	-1.528393	-0.232625	0.586568
C64	C	-1.028393	0.267375	1.086568
C65	C	-1.529128	-0.232176	0.414624
C66	C	-1.029128	0.267824	0.914624
C67	C	-1.366737	-0.115457	0.414492
C68	C	-0.866737	0.384543	0.914492
C69	C	-1.367638	-0.113286	0.586448
C70	C	-0.867638	0.386714	1.086448
N71	N	-1.499800	-0.136093	0.649007
N72	N	-0.999800	0.363907	1.149007
H73	H	-1.134044	0.002763	0.101034
H74	H	-0.634044	0.502763	0.601034
Br75	Br	-0.836909	-0.307231	-0.151598
Br76	Br	-0.336909	0.192769	0.348402
Br77	Br	-1.232463	-0.198340	0.657985
Br78	Br	-0.732463	0.301660	1.157985
H79	H	-1.133187	0.003030	-0.101092
H80	H	-0.633187	0.503030	0.398908
H81	H	-1.455937	-0.289626	0.372987
H82	H	-0.955937	0.210374	0.872987
H83	H	-1.088035	-0.262121	0.149936
H84	H	-0.588035	0.237879	0.649936
H85	H	-1.345933	-0.042267	0.627259
H86	H	-0.845933	0.457733	1.127259
H87	H	-1.702090	-0.074140	0.370808
H88	H	-1.202090	0.425860	0.870808
H89	H	-0.890288	-0.147925	-0.246221
H90	H	-0.390288	0.352075	0.253779
Br91	Br	-1.100642	-0.313320	-0.149617
Br92	Br	-0.600642	0.186680	0.350383
H93	H	-1.703036	-0.074544	0.627062
H94	H	-1.203036	0.425456	1.127062
Br95	Br	-1.136198	-0.130775	-0.315555
Br96	Br	-0.636198	0.369225	0.184445
Br97	Br	-1.688247	-0.263285	0.658325
Br98	Br	-1.188247	0.236715	1.158325
H99	H	-0.914657	0.007051	-0.099827
H100	H	-0.414657	0.507051	0.400173
H101	H	-0.886388	-0.153279	0.246368
H102	H	-0.386388	0.346721	0.746368
Br103	Br	-1.237578	-0.206649	0.346655
Br104	Br	-0.737578	0.293351	0.846655
H105	H	-0.869617	-0.260483	0.140536
H106	H	-0.369617	0.239517	0.640536
Br107	Br	-0.897481	0.034230	0.169009
Br108	Br	-0.397481	0.534230	0.669009
H109	H	-1.587322	0.010480	0.628153
H110	H	-1.087322	0.510480	1.128153
Br111	Br	-1.576080	0.058911	0.345174
Br112	Br	-1.076080	0.558911	0.845174
Br113	Br	-1.133273	-0.127227	0.315134
Br114	Br	-0.633273	0.372773	0.815134
H115	H	-1.626143	-0.250156	0.374511
H116	H	-1.126143	0.249844	0.874511
H117	H	-1.454551	-0.289872	0.627419
H118	H	-0.954551	0.210128	1.127419
H119	H	-1.339176	-0.046499	0.371147
H120	H	-0.839176	0.453501	0.871147
