data_functionalizedCrystal
_audit_creation_method	'MofGen! by Chris Wilmer'
_symmetry_space_group_name_H-M	'P1'
_symmetry_Int_Tables_number	1
_symmetry_cell_setting	triclinic
loop_
_symmetry_equiv_pos_as_xyz
  x,y,z
_cell_length_a	10.540539
_cell_length_b	15.995350
_cell_length_c	9.616153
_cell_angle_alpha	89.999971
_cell_angle_beta	89.995174
_cell_angle_gamma	84.008933
loop_
_atom_site_label
_atom_site_type_symbol
_atom_site_fract_x
_atom_site_fract_y
_atom_site_fract_z
O1	O	1.684270	0.117994	-0.115573
O2	O	1.314705	0.129112	-0.115589
O3	O	1.509590	0.001726	-0.115579
O4	O	1.489385	0.245380	-0.115583
O5	O	1.509563	0.001729	0.115712
O6	O	1.314678	0.129115	0.115702
O7	O	1.684244	0.117997	0.115719
Zn8	Zn	1.499457	0.123556	0.152433
Zn9	Zn	1.499492	0.123553	-0.152303
O10	O	1.489359	0.245383	0.115709
C11	C	1.267400	0.128280	0.000055
C12	C	1.126486	0.125785	0.000048
C13	C	0.944373	0.030202	0.000589
C14	C	1.090956	0.032730	0.000054
C15	C	1.064213	0.170565	-0.132026
C16	C	0.917712	0.167390	-0.132122
C17	C	0.917167	0.169286	0.130899
C18	C	1.064138	0.170143	0.132630
C19	C	1.508741	-0.029472	0.000064
C20	C	1.506237	-0.122438	0.000056
C21	C	1.497244	-0.460239	0.000060
C22	C	1.358450	-0.413635	-0.000465
C23	C	1.360955	-0.316930	0.000057
C24	C	1.501705	-0.292652	0.000057
C25	C	1.570147	-0.333318	0.132137
C26	C	1.566661	-0.429975	0.132247
C27	C	1.569558	-0.430319	-0.130774
C28	C	1.569525	-0.333374	-0.132520
C29	C	1.504233	-0.197939	0.000060
C30	C	1.494719	-0.554952	0.000067
C31	C	1.731549	0.118829	0.000072
C32	C	1.872462	0.121324	0.000070
C33	C	1.490207	0.276581	0.000063
C34	C	1.492711	0.369547	0.000062
N35	N	1.499442	0.123558	0.360408
N36	N	1.499517	0.123544	-0.360278
C37	C	1.394879	0.191473	0.580772
C38	C	1.395104	0.191727	0.419605
C39	C	1.631892	0.143433	0.418863
C40	C	1.631321	0.143914	0.580081
C41	C	1.472879	0.035546	0.580319
C42	C	1.469825	0.036116	0.419092
H43	H	0.886024	0.139172	0.231011
H44	H	1.412105	0.257014	0.381025
H45	H	1.085627	0.238902	-0.136941
C46	C	0.774859	-0.025366	0.125839
C47	C	0.906437	-0.019427	0.128449
H48	H	0.751435	-0.056009	0.204773
H49	H	0.730455	0.029440	0.127465
H50	H	0.753458	-0.053571	0.043513
H51	H	0.927837	0.008783	0.210770
H52	H	0.950856	-0.074243	0.126836
H53	H	1.522589	-0.305220	0.230425
H54	H	1.549186	-0.015013	0.618439
C55	C	1.183166	0.162207	0.519468
C56	C	1.261549	0.175578	0.633161
H57	H	1.100856	0.152386	0.551821
H58	H	1.176262	0.210407	0.461181
H59	H	1.219216	0.114748	0.468311
H60	H	1.225504	0.223040	0.684313
H61	H	1.268449	0.127373	0.691472
C62	C	1.263733	-0.000713	0.523207
C63	C	1.345313	0.010019	0.635249
H64	H	1.184980	-0.016471	0.557122
H65	H	1.248891	0.050516	0.473013
H66	H	1.301998	-0.043475	0.463514
H67	H	1.307052	0.052786	0.694937
H68	H	1.360153	-0.041217	0.685466
H69	H	1.524191	-0.451131	-0.230882
H70	H	0.914680	-0.006405	-0.093600
H71	H	1.134043	-0.002504	0.094731
H72	H	1.411654	0.256390	0.621271
H73	H	1.516730	-0.448574	0.230978
C74	C	1.559997	-0.038052	0.219336
C75	C	1.566024	-0.035402	0.364711
H76	H	1.619402	-0.082199	0.185768
H77	H	1.476353	-0.047752	0.191397
H78	H	1.580170	0.013995	0.182253
H79	H	1.545841	-0.087447	0.401795
H80	H	1.649686	-0.025708	0.392663
H81	H	1.107240	0.139456	-0.230318
C82	C	1.021895	0.095075	0.340970
C83	C	1.120012	0.125973	0.264534
H84	H	1.056401	0.067801	0.422393
H85	H	0.960832	0.140366	0.366530
H86	H	0.981924	0.056090	0.285827
H87	H	1.159976	0.164963	0.319674
H88	H	1.181097	0.080676	0.238977
C89	C	1.682306	0.281588	0.516017
C90	C	1.662994	0.230584	0.630835
H91	H	1.701849	0.335097	0.547349
H92	H	1.751097	0.256076	0.461812
H93	H	1.607056	0.288190	0.461036
H94	H	1.738247	0.223977	0.685811
H95	H	1.594196	0.256102	0.685063
C96	C	1.764926	-0.349184	-0.262743
C97	C	1.708062	-0.311760	-0.143352
H98	H	1.850445	-0.335821	-0.269440
H99	H	1.764333	-0.408429	-0.257180
H100	H	1.718574	-0.328670	-0.342581
H101	H	1.754409	-0.332279	-0.063512
H102	H	1.708662	-0.252504	-0.148904
C103	C	1.241598	-0.344592	0.204640
C104	C	1.287832	-0.279743	0.128097
H105	H	1.196465	-0.321633	0.283697
H106	H	1.185908	-0.372972	0.148077
H107	H	1.311072	-0.383143	0.234075
H108	H	1.218356	-0.241195	0.098653
H109	H	1.343524	-0.251350	0.184671
H110	H	1.133200	-0.002755	-0.094786
H111	H	0.889968	0.134291	-0.230848
H112	H	1.711616	0.096432	0.619073
H113	H	0.868824	0.234313	-0.138118
H114	H	1.087430	0.237986	0.140604
H115	H	1.711608	0.095309	0.380514
C116	C	1.728761	-0.520039	-0.253502
C117	C	1.707702	-0.472368	-0.131991
H118	H	1.814044	-0.545996	-0.254246
H119	H	1.671429	-0.562045	-0.256389
H120	H	1.715112	-0.484402	-0.332280
H121	H	1.721342	-0.508007	-0.053213
H122	H	1.765051	-0.430357	-0.129091
H123	H	1.668560	-0.461614	0.138240
H124	H	1.372394	0.021051	0.380888
H125	H	1.296651	0.179768	0.380086
H126	H	0.869017	0.236498	0.131791
H127	H	1.519485	-0.306426	-0.230229
H128	H	1.307153	-0.288831	-0.094623
C129	C	1.790845	-0.388541	0.136970
C130	C	1.709740	-0.313416	0.138780
H131	H	1.877022	-0.376250	0.141061
H132	H	1.772975	-0.421900	0.214860
H133	H	1.777553	-0.418414	0.053747
H134	H	1.723025	-0.283545	0.222008
H135	H	1.727617	-0.280043	0.060883
H136	H	1.655917	0.206909	0.378473
H137	H	1.302987	-0.432500	-0.095181
H138	H	1.303211	-0.433558	0.093720
