data_functionalizedCrystal
_audit_creation_method	'MofGen! by Chris Wilmer'
_symmetry_space_group_name_H-M	'P1'
_symmetry_Int_Tables_number	1
_symmetry_cell_setting	triclinic
loop_
_symmetry_equiv_pos_as_xyz
  x,y,z
_cell_length_a	19.188930
_cell_length_b	27.732048
_cell_length_c	17.666332
_cell_angle_alpha	89.988553
_cell_angle_beta	89.976766
_cell_angle_gamma	82.893716
loop_
_atom_site_label
_atom_site_type_symbol
_atom_site_fract_x
_atom_site_fract_y
_atom_site_fract_z
O1	O	0.925765	0.060348	-0.063200
O2	O	0.722402	0.068472	-0.063149
O3	O	0.830399	-0.005968	-0.063161
O4	O	0.817767	0.134787	-0.063187
O5	O	0.830380	-0.005971	0.062735
O6	O	0.722383	0.068468	0.062748
O7	O	0.925746	0.060344	0.062697
Cu8	Cu	0.824063	0.064406	0.074218
Cu9	Cu	0.824085	0.064410	-0.074670
O10	O	0.817748	0.134783	0.062710
C11	C	0.696383	0.068207	-0.000194
C12	C	0.618883	0.067417	-0.000174
C13	C	0.573681	0.111096	-0.000194
C14	C	0.500862	0.110354	-0.000202
C15	C	0.473249	0.065931	-0.000205
C16	C	0.518461	0.022246	-0.000181
C17	C	0.591278	0.022990	-0.000165
N18	N	0.365491	0.031976	-0.043078
N19	N	0.296317	0.031273	-0.043094
C20	C	0.253854	0.063689	-0.000251
N21	N	0.283177	0.096841	0.042600
N22	N	0.352357	0.097546	0.042613
C23	C	0.394291	0.065120	-0.000222
C24	C	0.129692	0.106566	-0.000279
C25	C	0.056872	0.105822	-0.000282
C26	C	0.074473	0.017714	-0.000269
C27	C	0.147292	0.018459	-0.000258
C28	C	0.174897	0.062886	-0.000267
C29	C	0.830125	-0.023977	-0.000211
C30	C	0.829326	-0.077635	-0.000204
C31	C	0.888119	-0.416270	-0.000258
C32	C	0.885157	-0.617939	-0.000268
O33	O	0.938918	-0.649030	-0.000314
N34	N	0.821118	-0.637258	-0.000251
C35	C	0.757816	-0.606157	-0.000237
O36	O	0.703280	-0.627217	-0.000231
C37	C	0.760780	-0.404489	-0.000233
C38	C	0.824822	-0.385173	-0.000242
C39	C	0.952156	-0.396953	-0.000268
C40	C	0.952896	-0.346539	-0.000261
C41	C	0.889599	-0.315441	-0.000245
C42	C	0.825562	-0.334759	-0.000235
C43	C	0.697478	-0.373389	-0.000224
C44	C	0.698225	-0.322969	-0.000225
C45	C	0.762267	-0.303653	-0.000234
C46	C	0.763005	-0.253247	-0.000212
N47	N	0.827043	-0.233928	-0.000229
C48	C	0.890340	-0.265025	-0.000245
C49	C	0.756265	-0.712036	-0.000238
C50	C	0.755524	-0.762452	-0.000238
C51	C	0.882865	-0.774231	-0.000270
C52	C	0.883605	-0.723813	-0.000265
C53	C	0.820303	-0.692716	-0.000254
C54	C	0.891889	-0.159151	-0.000231
C55	C	0.892623	-0.108732	-0.000221
C56	C	0.765283	-0.096958	-0.000193
C57	C	0.764549	-0.147373	-0.000198
C58	C	0.827857	-0.178468	-0.000220
O59	O	0.709272	-0.222127	-0.000174
O60	O	0.944868	-0.243956	-0.000268
C61	C	0.887379	-0.466684	-0.000265
C62	C	0.823342	-0.486001	-0.000255
C63	C	0.760045	-0.454904	-0.000238
C64	C	0.822601	-0.536418	-0.000254
C65	C	0.885898	-0.567515	-0.000271
C66	C	0.949936	-0.548195	-0.000288
C67	C	0.950676	-0.497781	-0.000281
C68	C	0.696007	-0.474223	-0.000222
C69	C	0.695272	-0.524638	-0.000227
C70	C	0.758569	-0.555735	-0.000244
C71	C	0.951765	0.060609	-0.000260
C72	C	1.029264	0.061399	-0.000285
C73	C	0.818023	0.152793	-0.000243
C74	C	0.818821	0.206450	-0.000254
N75	N	0.824052	0.064402	0.178937
N76	N	0.824101	0.064410	-0.179389
C77	C	0.871889	0.031456	0.218541
C78	C	0.871893	0.031454	0.297789
C79	C	0.824067	0.064406	0.337429
C80	C	0.776221	0.097354	0.297816
C81	C	0.776214	0.097352	0.218570
N82	N	0.814718	0.107196	0.461842
N83	N	0.814729	0.107196	0.537122
C84	C	0.824085	0.064412	0.576193
N85	N	0.833444	0.021627	0.537140
N86	N	0.833436	0.021628	0.461853
C87	C	0.824069	0.064411	0.423359
C88	C	0.871929	0.031462	0.701727
C89	C	0.871928	0.031459	0.780976
C90	C	0.776260	0.097363	0.781001
C91	C	0.776257	0.097361	0.701754
C92	C	0.824096	0.064411	0.662121
H93	H	0.943441	-0.184464	-0.000251
H94	H	0.646676	-0.297652	-0.000217
H95	H	0.934404	-0.799559	-0.000283
C96	C	0.641003	-0.025059	-0.000153
H97	H	0.614132	-0.051623	-0.000160
H98	H	0.669756	-0.026603	0.043753
H99	H	0.669794	-0.026597	-0.044058
C100	C	0.488093	-0.026619	-0.000187
H101	H	0.525446	-0.052527	-0.000167
H102	H	0.460078	-0.028740	-0.044096
H103	H	0.460028	-0.028740	0.043716
C104	C	0.007146	0.153870	-0.000305
H105	H	-0.040176	0.147066	-0.000305
H106	H	0.015487	0.172091	-0.044211
H107	H	0.015441	0.172093	0.043600
C108	C	0.695662	-0.062745	-0.000179
H109	H	0.705281	-0.029954	-0.000186
H110	H	0.669365	-0.068589	0.043726
H111	H	0.669393	-0.068580	-0.044086
C112	C	0.924501	-0.004792	0.174950
H113	H	0.952987	-0.024417	0.209892
H114	H	0.953372	0.012544	0.144010
H115	H	0.899596	-0.024874	0.144062
H116	H	1.005046	-0.330816	-0.000272
C117	C	0.924552	-0.004783	0.824541
H118	H	0.953044	-0.024402	0.789584
H119	H	0.899664	-0.024864	0.855476
H120	H	0.953427	0.012563	0.855432
C121	C	0.924537	-0.004786	0.658125
H122	H	0.917687	-0.000065	0.605256
H123	H	0.917303	-0.037033	0.671127
H124	H	0.971080	0.000384	0.671085
H125	H	0.184097	-0.017109	-0.000246
C126	C	0.044107	-0.031151	-0.000278
H127	H	-0.005735	-0.025338	-0.000295
H128	H	0.059632	-0.049134	0.043628
H129	H	0.059681	-0.049124	-0.044184
C130	C	0.723600	0.133598	0.175000
H131	H	0.730446	0.128877	0.122127
H132	H	0.730834	0.165845	0.187974
H133	H	0.677058	0.128427	0.188009
H134	H	0.644461	-0.448908	-0.000210
C135	C	0.963072	-0.087486	-0.000235
H136	H	1.000662	-0.113230	-0.000254
H137	H	0.966006	-0.068071	0.043668
H138	H	0.966014	-0.068058	-0.044143
C139	C	1.021789	-0.431153	-0.000280
H140	H	1.060027	-0.412420	-0.000280
H141	H	1.024166	-0.451063	-0.044180
H142	H	1.024141	-0.451067	0.043631
C143	C	0.954050	-0.702569	-0.000282
H144	H	0.991638	-0.728314	-0.000295
H145	H	0.956984	-0.683150	0.043618
H146	H	0.956995	-0.683144	-0.044193
H147	H	0.737317	0.124191	0.813276
H148	H	0.737307	0.124191	0.669506
H149	H	0.910848	0.004625	0.330041
C150	C	0.685078	-0.783695	-0.000221
H151	H	0.647490	-0.757950	-0.000220
H152	H	0.682129	-0.803124	0.043680
H153	H	0.682149	-0.803110	-0.044132
H154	H	0.704714	-0.686720	-0.000229
H155	H	0.596152	0.147272	-0.000202
C156	C	0.160061	0.155433	-0.000280
H157	H	0.122708	0.181341	-0.000282
H158	H	0.188124	0.157556	-0.044179
H159	H	0.188079	0.157552	0.043632
H160	H	0.464051	0.145923	-0.000216
C161	C	0.627031	-0.394626	-0.000220
H162	H	0.589446	-0.368879	-0.000221
H163	H	0.624075	-0.414055	0.043679
H164	H	0.624103	-0.414040	-0.044132
H165	H	1.002826	-0.482059	-0.000289
C166	C	0.694105	-0.168622	-0.000190
H167	H	0.656514	-0.142879	-0.000184
H168	H	0.691155	-0.188057	0.043705
H169	H	0.691181	-0.188032	-0.044107
C170	C	1.019561	-0.582409	-0.000312
H171	H	1.009941	-0.615200	-0.000320
H172	H	1.045844	-0.576578	0.043583
H173	H	1.045845	-0.576561	-0.044229
H174	H	0.643117	-0.540360	-0.000213
C175	C	0.723616	0.133601	0.341417
H176	H	0.730477	0.128887	0.394286
H177	H	0.677076	0.128431	0.328460
H178	H	0.730851	0.165850	0.328410
