data_functionalizedCrystal
_audit_creation_method	'MofGen! by Chris Wilmer'
_symmetry_space_group_name_H-M	'P1'
_symmetry_Int_Tables_number	1
_symmetry_cell_setting	triclinic
loop_
_symmetry_equiv_pos_as_xyz
  x,y,z
_cell_length_a	6.817900
_cell_length_b	9.582889
_cell_length_c	16.305550
_cell_angle_alpha	93.101692
_cell_angle_beta	103.455250
_cell_angle_gamma	111.207298
loop_
_atom_site_label
_atom_site_type_symbol
_atom_site_fract_x
_atom_site_fract_y
_atom_site_fract_z
V1	V	-4.066503	-0.208318	-0.262876
V2	V	-3.566503	0.291682	0.237124
O3	O	-4.012158	0.008711	-0.258031
O4	O	-3.512158	0.508711	0.241969
O5	O	-4.057279	-0.411810	-0.260925
O6	O	-3.557279	0.088190	0.239075
O7	O	-4.017400	-0.205684	-0.377595
O8	O	-3.517400	0.294316	0.122405
O9	O	-4.052313	-0.198842	-0.140553
O10	O	-3.552313	0.301158	0.359447
V11	V	-4.545146	-0.182291	-0.248264
V12	V	-4.045146	0.317709	0.251736
O13	O	-4.338467	-0.265409	-0.294929
O14	O	-3.838467	0.234591	0.205071
O15	O	-4.723380	-0.125200	-0.216211
O16	O	-4.223380	0.374800	0.283789
O17	O	-4.331164	0.021200	-0.250215
O18	O	-3.831164	0.521200	0.249785
O19	O	-4.716889	-0.399320	-0.253109
O20	O	-4.216889	0.100680	0.246891
O21	O	-4.676734	-0.191768	-0.370586
O22	O	-4.176734	0.308232	0.129414
O23	O	-4.371043	-0.184926	-0.133545
O24	O	-3.871043	0.315074	0.366455
C25	C	-3.911833	-0.461399	-0.256739
C26	C	-3.411833	0.038601	0.243261
C27	C	-3.985574	-0.627759	-0.255908
C28	C	-3.485574	-0.127759	0.244092
C29	C	-3.860962	-0.198463	-0.405562
C30	C	-3.360962	0.301537	0.094438
C31	C	-3.902358	-0.197656	-0.499344
C32	C	-3.402358	0.302344	0.000656
C33	C	-4.052840	-0.194528	-0.840092
C34	C	-3.552840	0.305472	-0.340092
C35	C	-3.814998	-0.185242	-0.799170
C36	C	-3.314998	0.314758	-0.299170
C37	C	-3.772086	-0.186701	-0.701674
C38	C	-3.272086	0.313299	-0.201674
C39	C	-3.978183	-0.196079	-0.671043
C40	C	-3.478183	0.303921	-0.171043
C41	C	-4.173778	-0.343877	-0.721559
C42	C	-3.673778	0.156123	-0.221559
C43	C	-4.215480	-0.343041	-0.819109
C44	C	-3.715480	0.156959	-0.319109
C45	C	-4.081056	-0.057197	-0.794351
C46	C	-3.581056	0.442803	-0.294351
C47	C	-4.032901	-0.056027	-0.696509
C48	C	-3.532901	0.443973	-0.196509
C49	C	-3.936003	-0.196961	-0.575504
C50	C	-3.436003	0.303039	-0.075504
C51	C	-4.095031	-0.193656	-0.935631
C52	C	-3.595031	0.306344	-0.435631
C53	C	-4.139953	0.070781	-0.254399
C54	C	-3.639953	0.570781	0.245601
C55	C	-4.045451	0.237141	-0.255234
C56	C	-3.545451	0.737141	0.244766
C57	C	-4.190824	-0.192151	-0.105574
C58	C	-3.690824	0.307849	0.394426
C59	C	-4.128665	-0.192951	-0.011790
C60	C	-3.628665	0.307049	0.488210
H61	H	-3.625053	-0.080435	-0.666730
H62	H	-3.125053	0.419565	-0.166730
H63	H	-3.688226	-0.078474	-0.811613
H64	H	-3.188226	0.421526	-0.311613
H65	H	-4.138441	-0.447868	-0.704669
H66	H	-3.638441	0.052132	-0.204669
H67	H	-3.788975	-0.283908	-0.830609
H68	H	-3.288975	0.216092	-0.330609
H69	H	-3.968014	0.054788	-0.807802
H70	H	-3.468014	0.554788	-0.307802
H71	H	-4.199426	-0.447004	-0.849413
H72	H	-3.699426	0.052996	-0.349413
H73	H	-3.724948	-0.286506	-0.685306
H74	H	-3.224948	0.213494	-0.185306
H75	H	-3.890728	0.053292	-0.662212
H76	H	-3.390728	0.553292	-0.162212
H77	H	-4.179833	-0.054188	-0.675163
H78	H	-3.679833	0.445812	-0.175163
H79	H	-4.391821	-0.356003	-0.847091
H80	H	-3.891821	0.143997	-0.347091
H81	H	-4.254182	-0.062686	-0.821163
H82	H	-3.754182	0.437314	-0.321163
H83	H	-4.329293	-0.356084	-0.702637
H84	H	-3.829293	0.143916	-0.202637
