data_functionalizedCrystal
_audit_creation_method	'MofGen! by Chris Wilmer'
_symmetry_space_group_name_H-M	'P1'
_symmetry_Int_Tables_number	1
_symmetry_cell_setting	triclinic
loop_
_symmetry_equiv_pos_as_xyz
  x,y,z
_cell_length_a	23.532407
_cell_length_b	23.532407
_cell_length_c	7.540329
_cell_angle_alpha	90.009623
_cell_angle_beta	89.995532
_cell_angle_gamma	82.848678
loop_
_atom_site_label
_atom_site_type_symbol
_atom_site_fract_x
_atom_site_fract_y
_atom_site_fract_z
O1	O	0.755256	0.069135	0.147279
O2	O	1.088590	0.402469	0.480612
O3	O	1.421923	0.735802	0.813946
O4	O	0.589393	0.079139	0.147334
O5	O	0.922726	0.412472	0.480667
O6	O	1.256060	0.745805	0.814000
O7	O	0.677326	-0.008795	0.147272
O8	O	1.010660	0.324539	0.480605
O9	O	1.343993	0.657872	0.813939
O10	O	0.667323	0.157069	0.147340
O11	O	1.000656	0.490402	0.480674
O12	O	1.333990	0.823735	0.814007
O13	O	0.677325	-0.008799	-0.147693
O14	O	1.010658	0.324535	0.185640
O15	O	1.343992	0.657868	0.518974
O16	O	0.589392	0.079135	-0.147632
O17	O	0.922725	0.412468	0.185702
O18	O	1.256058	0.745801	0.519035
O19	O	0.755255	0.069132	-0.147686
O20	O	1.088588	0.402465	0.185647
O21	O	1.421922	0.735798	0.518981
Cu22	Cu	0.672323	0.074133	-0.174591
Cu23	Cu	1.005657	0.407466	0.158742
Cu24	Cu	1.338990	0.740799	0.492075
Cu25	Cu	0.672325	0.074137	0.174239
Cu26	Cu	1.005658	0.407471	0.507572
Cu27	Cu	1.338992	0.740804	0.840906
O28	O	0.667322	0.157065	-0.147625
O29	O	1.000655	0.490398	0.185709
O30	O	1.333988	0.823732	0.519042
C31	C	0.568176	0.078882	-0.000142
C32	C	0.901510	0.412215	0.333191
C33	C	1.234843	0.745549	0.666524
C34	C	0.504959	0.078116	-0.000123
C35	C	0.838293	0.411449	0.333210
C36	C	1.171626	0.744783	0.666544
C37	C	0.105856	0.125350	-0.000184
C38	C	0.439190	0.458683	0.333149
C39	C	0.772523	0.792016	0.666483
C40	C	0.046456	0.124638	-0.000195
C41	C	0.379789	0.457971	0.333138
C42	C	0.713123	0.791305	0.666472
O43	O	0.009711	0.168424	-0.000241
O44	O	0.343045	0.501757	0.333092
O45	O	0.676378	0.835091	0.666425
N46	N	0.023830	0.072362	-0.000214
N47	N	0.357163	0.405695	0.333120
N48	N	0.690496	0.739028	0.666453
C49	C	0.060607	0.020794	-0.000239
C50	C	0.393941	0.354127	0.333094
C51	C	0.727274	0.687460	0.666428
O52	O	0.035908	-0.023737	-0.000258
O53	O	0.369241	0.309596	0.333076
O54	O	0.702574	0.642930	0.666409
C55	C	0.120006	0.021506	-0.000241
C56	C	0.453340	0.354839	0.333093
C57	C	0.786673	0.688172	0.666426
C58	C	0.142629	0.073785	-0.000204
C59	C	0.475962	0.407119	0.333129
C60	C	0.809296	0.740452	0.666463
C61	C	0.128479	0.177625	-0.000149
C62	C	0.461813	0.510958	0.333184
C63	C	0.795146	0.844292	0.666517
C64	C	0.187876	0.178336	-0.000135
C65	C	0.521209	0.511670	0.333198
C66	C	0.854542	0.845003	0.666532
C67	C	0.224649	0.126772	-0.000155
C68	C	0.557982	0.460105	0.333178
C69	C	0.891315	0.793439	0.666512
C70	C	0.202025	0.074496	-0.000190
C71	C	0.535359	0.407830	0.333144
C72	C	0.868692	0.741163	0.666477
C73	C	0.156783	-0.030062	-0.000279
C74	C	0.490116	0.303271	0.333055
C75	C	0.823450	0.636605	0.666388
C76	C	0.216185	-0.029345	-0.000282
C77	C	0.549519	0.303988	0.333052
C78	C	0.882852	0.637321	0.666385
C79	C	0.238808	0.022934	-0.000245
C80	C	0.572141	0.356268	0.333088
C81	C	0.905475	0.689601	0.666422
C82	C	0.298194	0.023643	-0.000195
C83	C	0.631528	0.356977	0.333138
C84	C	0.964861	0.690310	0.666471
N85	N	0.320820	0.075920	-0.000177
N86	N	0.654154	0.409253	0.333157
N87	N	0.987487	0.742586	0.666490
C88	C	0.284048	0.127484	-0.000157
C89	C	0.617381	0.460817	0.333177
C90	C	0.950714	0.794151	0.666510
C91	C	-0.064135	0.019302	-0.000239
C92	C	0.269198	0.352635	0.333094
C93	C	0.602532	0.685969	0.666428
C94	C	-0.123533	0.018589	-0.000225
C95	C	0.209800	0.351923	0.333109
C96	C	0.543134	0.685256	0.666442
C97	C	-0.137680	0.122434	-0.000184
C98	C	0.195653	0.455768	0.333149
C99	C	0.528986	0.789101	0.666483
C100	C	-0.078281	0.123146	-0.000186
C101	C	0.255052	0.456480	0.333148
C102	C	0.588385	0.789813	0.666481
C103	C	-0.041509	0.071578	-0.000220
C104	C	0.291824	0.404912	0.333113
C105	C	0.625158	0.738245	0.666446
C106	C	0.408784	0.128974	-0.000125
C107	C	0.742118	0.462307	0.333209
C108	C	1.075451	0.795640	0.666542
C109	C	0.468186	0.129680	-0.000103
C110	C	0.801520	0.463014	0.333230
C111	C	1.134853	0.796347	0.666564
C112	C	0.482329	0.025836	-0.000153
C113	C	0.815662	0.359169	0.333180
C114	C	1.148995	0.692503	0.666514
C115	C	0.422932	0.025129	-0.000165
C116	C	0.756265	0.358462	0.333168
C117	C	1.089598	0.691796	0.666501
C118	C	0.386160	0.076702	-0.000157
C119	C	0.719494	0.410036	0.333176
C120	C	1.052827	0.743369	0.666509
O121	O	0.334974	-0.020119	-0.000156
O122	O	0.668307	0.313214	0.333177
O123	O	1.001640	0.646547	0.666510
O124	O	0.308755	0.172007	-0.000161
O125	O	0.642089	0.505340	0.333172
O126	O	0.975422	0.838674	0.666505
C127	C	0.677071	-0.030013	-0.000215
C128	C	1.010404	0.303321	0.333118
C129	C	1.343738	0.636654	0.666452
C130	C	0.676305	-0.093230	-0.000228
C131	C	1.009638	0.240104	0.333105
C132	C	1.342972	0.573437	0.666438
C133	C	0.723539	-0.492333	-0.000147
C134	C	1.056872	-0.158999	0.333187
C135	C	1.390205	0.174334	0.666520
C136	C	0.722827	-0.551733	-0.000133
C137	C	1.056160	-0.218400	0.333200
C138	C	1.389494	0.114934	0.666534
O139	O	0.766613	-0.588478	-0.000082
O140	O	1.099946	-0.255144	0.333251
O141	O	1.433280	0.078189	0.666585
N142	N	0.670551	-0.574359	-0.000117
N143	N	1.003884	-0.241026	0.333216
N144	N	1.337217	0.092307	0.666550
C145	C	0.618983	-0.537582	-0.000097
C146	C	0.952316	-0.204248	0.333237
C147	C	1.285649	0.129085	0.666570
O148	O	0.574452	-0.562281	-0.000080
O149	O	0.907785	-0.228948	0.333253
O150	O	1.241119	0.104385	0.666586
C151	C	0.619695	-0.478182	-0.000098
C152	C	0.953028	-0.144849	0.333236
C153	C	1.286361	0.188484	0.666569
C154	C	0.671974	-0.455560	-0.000132
C155	C	1.005308	-0.122227	0.333202
C156	C	1.338641	0.211107	0.666535
C157	C	0.775814	-0.469710	-0.000179
C158	C	1.109147	-0.136376	0.333155
C159	C	1.442481	0.196957	0.666488
C160	C	0.776525	-0.410313	-0.000196
C161	C	1.109859	-0.076980	0.333138
C162	C	1.443192	0.256353	0.666471
C163	C	0.724961	-0.373540	-0.000181
C164	C	1.058294	-0.040207	0.333153
C165	C	1.391628	0.293126	0.666486
C166	C	0.672685	-0.396164	-0.000149
C167	C	1.006019	-0.062830	0.333185
C168	C	1.339352	0.270503	0.666518
C169	C	0.568127	-0.441406	-0.000065
C170	C	0.901460	-0.108073	0.333269
C171	C	1.234794	0.225261	0.666602
C172	C	0.568844	-0.382004	-0.000064
C173	C	0.902177	-0.048670	0.333269
C174	C	1.235510	0.284663	0.666602
C175	C	0.621123	-0.359381	-0.000098
C176	C	0.954457	-0.026048	0.333235
C177	C	1.287790	0.307286	0.666568
C178	C	0.621832	-0.299995	-0.000151
C179	C	0.955166	0.033339	0.333183
C180	C	1.288499	0.366672	0.666516
N181	N	0.674109	-0.277368	-0.000167
N182	N	1.007442	0.055965	0.333167
N183	N	1.340775	0.389298	0.666500
C184	C	0.725673	-0.314141	-0.000182
C185	C	1.059006	0.019192	0.333152
C186	C	1.392340	0.352525	0.666485
C187	C	0.617491	-0.662324	-0.000091
C188	C	0.950824	-0.328991	0.333242
C189	C	1.284158	0.004343	0.666575
C190	C	0.616778	-0.721722	-0.000103
C191	C	0.950112	-0.388389	0.333230
C192	C	1.283445	-0.055055	0.666563
C193	C	0.720623	-0.735869	-0.000136
C194	C	1.053957	-0.402536	0.333197
C195	C	1.387290	-0.069203	0.666531
C196	C	0.721335	-0.676470	-0.000137
C197	C	1.054669	-0.343137	0.333196
C198	C	1.388002	-0.009804	0.666530
C199	C	0.669767	-0.639698	-0.000107
C200	C	1.003101	-0.306365	0.333226
C201	C	1.336434	0.026969	0.666559
C202	C	0.727163	-0.189405	-0.000219
C203	C	1.060496	0.143929	0.333114
C204	C	1.393829	0.477262	0.666448
C205	C	0.727869	-0.130003	-0.000243
C206	C	1.061203	0.203331	0.333090
C207	C	1.394536	0.536664	0.666423
C208	C	0.624025	-0.115860	-0.000201
C209	C	0.957358	0.217473	0.333132
C210	C	1.290692	0.550806	0.666466
C211	C	0.623318	-0.175257	-0.000186
C212	C	0.956651	0.158076	0.333147
C213	C	1.289985	0.491409	0.666481
C214	C	0.674891	-0.212029	-0.000189
C215	C	1.008225	0.121305	0.333144
C216	C	1.341558	0.454638	0.666478
O217	O	0.578070	-0.263215	-0.000194
O218	O	0.911403	0.070118	0.333139
O219	O	1.244736	0.403451	0.666472
O220	O	0.770196	-0.289433	-0.000175
O221	O	1.103529	0.043900	0.333159
O222	O	1.436863	0.377233	0.666492
C223	C	0.776472	0.069388	-0.000206
C224	C	1.109805	0.402722	0.333127
C225	C	1.443138	0.736055	0.666460
C226	C	0.839689	0.070154	-0.000214
C227	C	1.173022	0.403487	0.333119
C228	C	1.506355	0.736821	0.666453
C229	C	0.667577	0.178283	-0.000134
C230	C	1.000910	0.511616	0.333200
C231	C	1.334244	0.844949	0.666533
C232	C	0.668343	0.241500	-0.000109
C233	C	1.001676	0.574833	0.333225
C234	C	1.335010	0.908167	0.666558
N235	N	0.672326	0.074136	0.419587
N236	N	1.005660	0.407470	0.752921
N237	N	1.338993	0.740803	1.086254
N238	N	0.672326	0.074129	-0.419940
N239	N	1.005660	0.407463	-0.086607
N240	N	1.338993	0.740796	0.246727
H241	H	0.486602	0.172255	-0.000072
H242	H	0.819935	0.505588	0.333261
H243	H	1.153269	0.838921	0.666595
H244	H	-0.034198	-0.022693	-0.000252
H245	H	0.299136	0.310640	0.333082
H246	H	0.632469	0.643973	0.666415
H247	H	0.574207	-0.740136	-0.000106
H248	H	0.907540	-0.406802	0.333227
H249	H	1.240874	-0.073469	0.666560
H250	H	0.512280	-0.016146	-0.000163
H251	H	0.845613	0.317187	0.333171
H252	H	1.178946	0.650520	0.666504
H253	H	0.819097	-0.391900	-0.000216
H254	H	1.152430	-0.058567	0.333117
H255	H	1.485763	0.274767	0.666451
H256	H	0.378852	0.170970	-0.000124
H257	H	0.712185	0.504303	0.333210
H258	H	1.045518	0.837637	0.666543
H259	H	0.575496	-0.632386	-0.000083
H260	H	0.908829	-0.299053	0.333251
H261	H	1.242162	0.034280	0.666584
C262	C	0.777344	-0.776327	-0.000119
C263	C	1.110677	-0.442994	0.333214
C264	C	1.444010	-0.109660	0.666547
H265	H	0.769428	-0.814942	-0.000090
H266	H	1.102761	-0.481608	0.333244
H267	H	1.436094	-0.148275	0.666577
H268	H	0.798801	-0.769514	-0.102979
H269	H	1.132134	-0.436180	0.230355
H270	H	1.465468	-0.102847	0.563688
H271	H	0.798789	-0.769492	0.102756
H272	H	1.132122	-0.436159	0.436089
H273	H	1.465455	-0.102825	0.769422
H274	H	0.769159	-0.219337	-0.000214
H275	H	1.102492	0.113996	0.333119
H276	H	1.435826	0.447329	0.666452
C277	C	0.832540	-0.510151	-0.000209
C278	C	1.165873	-0.176818	0.333124
C279	C	1.499207	0.156515	0.666457
H280	H	0.863770	-0.488162	-0.000242
H281	H	1.197103	-0.154829	0.333091
H282	H	1.530437	0.178505	0.666425
H283	H	0.834431	-0.533615	0.102644
H284	H	1.167765	-0.200282	0.435977
H285	H	1.501098	0.133051	0.769310
H286	H	0.834420	-0.533619	-0.103091
H287	H	1.167754	-0.200286	0.230242
H288	H	1.501087	0.133048	0.563576
C289	C	0.778842	-0.651591	-0.000158
C290	C	1.112175	-0.318257	0.333176
C291	C	1.445509	0.015076	0.666509
H292	H	0.809447	-0.682003	-0.000157
H293	H	1.142780	-0.348670	0.333176
H294	H	1.476114	-0.015337	0.666509
H295	H	0.781281	-0.628717	-0.103015
H296	H	1.114615	-0.295384	0.230319
H297	H	1.447948	0.037949	0.563652
H298	H	0.781281	-0.628711	0.102720
H299	H	1.114614	-0.295377	0.436053
H300	H	1.447947	0.037956	0.769387
C301	C	-0.148414	-0.038916	-0.000233
C302	C	0.184919	0.294417	0.333100
C303	C	0.518252	0.627750	0.666434
H304	H	-0.189057	-0.031961	-0.000221
H305	H	0.144276	0.301372	0.333112
H306	H	0.477609	0.634706	0.666445
H307	H	-0.135766	-0.060137	-0.103096
H308	H	0.197567	0.273197	0.230238
H309	H	0.530900	0.606530	0.563571
H310	H	-0.135774	-0.060127	0.102639
H311	H	0.197559	0.273206	0.435972
H312	H	0.530892	0.606540	0.769306
H313	H	0.206289	0.220908	-0.000104
H314	H	0.539622	0.554241	0.333229
H315	H	0.872956	0.887574	0.666562
C316	C	0.567307	-0.075406	-0.000173
C317	C	0.900641	0.257928	0.333160
C318	C	1.233974	0.591261	0.666494
H319	H	0.536068	-0.097383	-0.000162
H320	H	0.869401	0.235950	0.333171
H321	H	1.202734	0.569284	0.666505
H322	H	0.565434	-0.051934	0.102687
H323	H	0.898768	0.281399	0.436021
H324	H	1.232101	0.614732	0.769354
H325	H	0.565425	-0.051946	-0.103047
H326	H	0.898758	0.281387	0.230286
H327	H	1.232092	0.614720	0.563620
H328	H	0.525555	-0.459814	-0.000026
H329	H	0.858889	-0.126481	0.333307
H330	H	1.192222	0.206852	0.666640
H331	H	0.098544	0.219617	-0.000139
H332	H	0.431877	0.552951	0.333194
H333	H	0.765211	0.886284	0.666527
H334	H	0.138375	-0.072634	-0.000310
H335	H	0.471708	0.260700	0.333023
H336	H	0.805041	0.594033	0.666357
H337	H	0.526850	-0.352066	-0.000038
H338	H	0.860183	-0.018732	0.333296
H339	H	1.193516	0.314601	0.666629
C340	C	-0.053402	0.180653	-0.000161
C341	C	0.279932	0.513986	0.333172
C342	C	0.613265	0.847320	0.666506
H343	H	-0.083814	0.211258	-0.000157
H344	H	0.249519	0.544591	0.333176
H345	H	0.582852	0.877925	0.666509
H346	H	-0.030525	0.183094	0.102695
H347	H	0.302808	0.516427	0.436029
H348	H	0.636142	0.849761	0.769362
H349	H	-0.030525	0.183090	-0.103039
H350	H	0.302808	0.516424	0.230294
H351	H	0.636142	0.849757	0.563628
H352	H	0.580748	-0.193677	-0.000208
H353	H	0.914081	0.139656	0.333126
H354	H	1.247414	0.472989	0.666459
H355	H	0.404512	-0.017441	-0.000169
H356	H	0.737845	0.315892	0.333164
H357	H	1.071178	0.649225	0.666497
C358	C	-0.178136	0.179156	-0.000175
C359	C	0.155198	0.512489	0.333158
C360	C	0.488531	0.845823	0.666491
H361	H	-0.156159	0.210396	-0.000148
H362	H	0.177175	0.543729	0.333185
H363	H	0.510508	0.877062	0.666519
H364	H	-0.201598	0.181031	-0.103037
H365	H	0.131736	0.514365	0.230296
H366	H	0.465069	0.847698	0.563629
H367	H	-0.201605	0.181036	0.102697
H368	H	0.131729	0.514369	0.436031
H369	H	0.465062	0.847703	0.769364
C370	C	0.785379	-0.105121	-0.000270
C371	C	1.118712	0.228212	0.333063
C372	C	1.452046	0.561545	0.666397
H373	H	0.815986	-0.135532	-0.000257
H374	H	1.149319	0.197801	0.333076
H375	H	1.482652	0.531134	0.666409
H376	H	0.787818	-0.082252	-0.103135
H377	H	1.121151	0.251082	0.230198
H378	H	1.454485	0.584415	0.563531
H379	H	0.787815	-0.082237	0.102599
H380	H	1.121149	0.251096	0.435933
H381	H	1.454482	0.584430	0.769266
C382	C	0.256632	-0.086072	-0.000300
C383	C	0.589965	0.247262	0.333033
C384	C	0.923299	0.580595	0.666366
H385	H	0.234647	-0.117306	-0.000305
H386	H	0.567981	0.216028	0.333028
H387	H	0.901314	0.549361	0.666361
H388	H	0.280105	-0.087957	-0.103152
H389	H	0.613438	0.245376	0.230182
H390	H	0.946772	0.578709	0.563515
H391	H	0.280090	-0.087951	0.102583
H392	H	0.613423	0.245382	0.435916
H393	H	0.946756	0.578715	0.769249
