data_functionalizedCrystal
_audit_creation_method	'MofGen! by Chris Wilmer'
_symmetry_space_group_name_H-M	'P1'
_symmetry_Int_Tables_number	1
_symmetry_cell_setting	triclinic
loop_
_symmetry_equiv_pos_as_xyz
  x,y,z
_cell_length_a	15.944551
_cell_length_b	15.944486
_cell_length_c	13.330367
_cell_angle_alpha	90.002038
_cell_angle_beta	89.996937
_cell_angle_gamma	96.514425
loop_
_atom_site_label
_atom_site_type_symbol
_atom_site_fract_x
_atom_site_fract_y
_atom_site_fract_z
O1	O	1.114503	-0.108335	-0.083313
O2	O	0.869950	-0.121691	-0.083337
O3	O	0.998933	0.007265	-0.083324
O4	O	0.985520	-0.237292	-0.083326
O5	O	0.998914	0.007268	0.083523
O6	O	0.869931	-0.121689	0.083510
O7	O	1.114484	-0.108332	0.083534
Cu8	Cu	0.992206	-0.115010	0.098756
Cu9	Cu	0.992228	-0.115013	-0.098560
O10	O	0.985501	-0.237289	0.083521
C11	C	0.838647	-0.121135	0.000083
C12	C	0.745401	-0.119473	0.000074
C13	C	0.530564	-0.035566	0.000094
C14	C	0.469544	-0.074531	-0.082171
C15	C	0.574676	-0.116466	0.000086
C16	C	0.469548	-0.074548	0.082327
C17	C	0.409764	-0.113555	0.000101
C18	C	0.514884	-0.155453	-0.082247
C19	C	0.514895	-0.155458	0.082325
C20	C	0.453892	-0.194482	0.000040
C21	C	0.669678	-0.118140	0.000076
C22	C	0.314763	-0.111887	0.000104
C23	C	0.998376	0.038562	0.000097
C24	C	0.996736	0.131811	0.000090
C25	C	1.145787	-0.108888	0.000112
C26	C	1.239033	-0.110550	0.000114
N27	N	0.992197	-0.115007	0.237538
C28	C	1.071681	0.423348	0.000107
C29	C	1.032717	0.362324	0.082370
C30	C	0.990775	0.467449	0.000106
C31	C	1.032714	0.362328	-0.082128
C32	C	0.993708	0.302539	0.000097
C33	C	0.951789	0.407653	0.082437
C34	C	0.951797	0.407663	-0.082135
C35	C	0.912774	0.346656	0.000148
C36	C	0.989087	0.562450	0.000112
C37	C	0.995389	0.207540	0.000098
C38	C	0.986070	0.731416	0.000101
C39	C	0.987744	0.638172	0.000111
N40	N	0.992244	-0.115010	-0.237341
C41	C	0.935112	-0.172093	0.710155
C42	C	1.049367	-0.057927	0.710135
C43	C	1.049357	-0.057924	0.605116
C44	C	0.992225	-0.115008	0.552612
C45	C	0.935103	-0.172094	0.605127
C46	C	1.106485	-0.000845	0.552594
C47	C	1.106478	-0.000841	0.447569
C48	C	1.049341	-0.057921	0.395063
C49	C	0.992216	-0.115009	0.447584
C50	C	0.935084	-0.172092	0.395081
C51	C	0.877953	-0.229176	0.447600
C52	C	0.877966	-0.229174	0.552622
C53	C	1.049329	-0.057924	0.290042
C54	C	0.935074	-0.172093	0.290053
H55	H	0.534872	-0.189646	-0.151871
C56	C	1.168274	0.061230	0.390372
C57	C	1.155966	0.049088	0.287160
C58	C	1.212798	0.106330	0.234438
H59	H	1.159027	0.117255	0.407597
H60	H	1.224427	0.052259	0.407385
H61	H	1.099826	0.058066	0.270154
H62	H	1.165220	-0.006925	0.269905
H63	H	1.268952	0.097359	0.251451
H64	H	1.203547	0.162351	0.251672
H65	H	1.204461	0.098095	0.164404
C66	C	0.442797	-0.029049	0.175184
C67	C	0.466879	-0.070767	0.261123
C68	C	0.442244	-0.028878	0.346675
H69	H	0.469297	0.027399	0.175219
H70	H	0.383241	-0.028796	0.174894
H71	H	0.526423	-0.071010	0.261414
H72	H	0.440382	-0.127212	0.261121
H73	H	0.382688	-0.028625	0.346384
H74	H	0.468745	0.027568	0.346700
H75	H	0.458572	-0.057182	0.404994
C76	C	0.906249	0.434463	0.175235
C77	C	0.905262	0.522153	0.174188
C78	C	0.863330	0.546883	0.259661
H79	H	0.849942	0.407596	0.175551
H80	H	0.934794	0.418632	0.233614
H81	H	0.876715	0.537976	0.115825
H82	H	0.961558	0.549041	0.173887
H83	H	0.891875	0.531052	0.318040
H84	H	0.807025	0.520011	0.259970
H85	H	0.862661	0.606383	0.258967
C86	C	0.823150	0.302445	0.000406
C87	C	0.781184	0.325423	0.086688
C88	C	0.698626	0.284702	0.086971
H89	H	0.794099	0.318622	-0.057413
H90	H	0.824667	0.243053	-0.000093
H91	H	0.779662	0.384802	0.087177
H92	H	0.810208	0.309245	0.144521
H93	H	0.700143	0.225309	0.086472
H94	H	0.669584	0.300881	0.029148
H95	H	0.670145	0.300280	0.145516
H96	H	0.917612	0.427774	-0.151691
H97	H	0.420718	-0.261691	-0.000006
C98	C	0.815985	-0.291284	0.609510
C99	C	0.829567	-0.373837	0.583935
C100	C	0.772480	-0.431075	0.636313
H101	H	0.824113	-0.283229	0.679592
H102	H	0.759912	-0.282174	0.592289
H103	H	0.885626	-0.382944	0.601163
H104	H	0.821432	-0.381919	0.513862
H105	H	0.716407	-0.421965	0.619092
H106	H	0.780612	-0.423012	0.706392
H107	H	0.781682	-0.487093	0.618961
H108	H	1.066931	0.342235	0.151923
C109	C	1.161228	0.467756	0.000424
C110	C	1.203192	0.444924	0.086766
C111	C	1.285677	0.485825	0.087104
H112	H	1.190366	0.451622	-0.057353
H113	H	1.159573	0.527129	-0.000120
H114	H	1.204851	0.385564	0.087302
H115	H	1.174079	0.461059	0.144557
H116	H	1.284023	0.545198	0.086559
H117	H	1.314807	0.469688	0.029323
H118	H	1.314158	0.470346	0.145690
C119	C	0.815793	-0.291112	0.390718
C120	C	0.733259	-0.277450	0.416286
C121	C	0.675978	-0.334496	0.363913
H122	H	0.823858	-0.282997	0.320635
H123	H	0.824849	-0.347198	0.407948
H124	H	0.724206	-0.221379	0.399049
H125	H	0.725167	-0.285573	0.486360
H126	H	0.685035	-0.390581	0.381143
H127	H	0.684051	-0.326375	0.293833
H128	H	0.619973	-0.325239	0.381260
H129	H	0.535010	-0.189646	0.151877
H130	H	0.563912	0.031574	-0.000008
C131	C	0.442808	-0.028754	-0.174818
C132	C	0.481978	0.054408	-0.174430
C133	C	0.457364	0.096611	-0.259749
H134	H	0.459083	-0.056848	-0.233311
H135	H	0.383262	-0.028430	-0.174454
H136	H	0.541511	0.054079	-0.174804
H137	H	0.465709	0.082525	-0.115957
H138	H	0.397817	0.096935	-0.259385
H139	H	0.473640	0.068510	-0.318235
H140	H	0.483930	0.153042	-0.259492
C141	C	0.872952	-0.233969	0.767119
C142	C	0.790419	-0.220274	0.741600
C143	C	0.733134	-0.277250	0.794066
H144	H	0.881942	-0.290075	0.749950
H145	H	0.881079	-0.225788	0.837195
H146	H	0.782295	-0.228462	0.671539
H147	H	0.781402	-0.164180	0.758771
H148	H	0.741261	-0.269069	0.864143
H149	H	0.742132	-0.333352	0.776894
H150	H	0.677130	-0.267961	0.776766
C151	C	1.078499	0.335684	-0.174824
C152	C	1.161640	0.374906	-0.174428
C153	C	1.203844	0.350395	-0.259805
H154	H	1.078877	0.276154	-0.174564
H155	H	1.050355	0.351999	-0.233272
H156	H	1.189776	0.358587	-0.115996
H157	H	1.161286	0.434436	-0.174703
H158	H	1.175700	0.366709	-0.318252
H159	H	1.204216	0.290865	-0.259538
H160	H	1.260257	0.377009	-0.259552
H161	H	0.888547	-0.218575	0.247310
H162	H	1.095886	-0.011455	0.752886
C163	C	1.168418	0.061088	0.609777
C164	C	1.156179	0.048887	0.712991
C165	C	1.213211	0.105935	0.765705
H166	H	1.224508	0.051983	0.592682
H167	H	1.159304	0.117175	0.592628
H168	H	1.165300	-0.007186	0.730134
H169	H	1.100101	0.057999	0.730117
H170	H	1.204097	0.162021	0.748555
H171	H	1.269298	0.096825	0.748601
H172	H	1.204910	0.097669	0.835741
H173	H	1.095847	-0.011450	0.247285
