data_functionalizedCrystal
_audit_creation_method	'MofGen! by Chris Wilmer'
_symmetry_space_group_name_H-M	'P1'
_symmetry_Int_Tables_number	1
_symmetry_cell_setting	triclinic
loop_
_symmetry_equiv_pos_as_xyz
  x,y,z
_cell_length_a	17.699083
_cell_length_b	17.699104
_cell_length_c	16.776229
_cell_angle_alpha	90.004353
_cell_angle_beta	90.000273
_cell_angle_gamma	96.712734
loop_
_atom_site_label
_atom_site_type_symbol
_atom_site_fract_x
_atom_site_fract_y
_atom_site_fract_z
O1	O	-1.004085	0.095709	0.066178
O2	O	-0.504085	0.595709	0.566178
O3	O	-0.783707	0.108161	0.066204
O4	O	-0.283707	0.608161	0.566204
O5	O	-0.900114	-0.008253	0.066183
O6	O	-0.400114	0.491747	0.566183
O7	O	-0.887678	0.212123	0.066199
O8	O	-0.387678	0.712123	0.566199
O9	O	-0.900101	-0.008254	-0.066393
O10	O	-0.400101	0.491746	0.433607
O11	O	-0.783694	0.108161	-0.066372
O12	O	-0.283694	0.608161	0.433628
O13	O	-1.004071	0.095708	-0.066398
O14	O	-0.504071	0.595708	0.433602
Zn15	Zn	-0.893881	0.101934	-0.087435
Zn16	Zn	-0.393881	0.601934	0.412565
Zn17	Zn	-0.893898	0.101935	0.087241
Zn18	Zn	-0.393898	0.601935	0.587241
O19	O	-0.887665	0.212123	-0.066377
O20	O	-0.387665	0.712123	0.433623
C21	C	-0.755503	0.107715	-0.000081
C22	C	-0.255503	0.607715	0.499919
C23	C	-0.671485	0.106376	-0.000071
C24	C	-0.171485	0.606376	0.499929
C25	C	-0.899659	-0.036450	-0.000105
C26	C	-0.399659	0.463550	0.499895
C27	C	-0.898314	-0.120467	-0.000105
C28	C	-0.398314	0.379533	0.499895
C29	C	-1.032275	0.096155	-0.000112
C30	C	-0.532275	0.596155	0.499888
C31	C	-1.116293	0.097493	-0.000116
C32	C	-0.616293	0.597493	0.499884
C33	C	-0.622869	0.174709	-0.000066
C34	C	-0.122869	0.674709	0.499934
C35	C	-0.543926	0.173446	-0.000076
C36	C	-0.043926	0.673446	0.499924
C37	C	-0.513600	0.103851	-0.000086
C38	C	-0.013600	0.603851	0.499914
C39	C	-0.562222	0.035513	-0.000093
C40	C	-0.062222	0.535513	0.499907
C41	C	-0.641164	0.036776	-0.000088
C42	C	-0.141164	0.536776	0.499912
C43	C	-0.243859	0.030418	-0.000113
C44	C	0.256141	0.530418	0.499887
C45	C	-0.164911	0.029160	-0.000115
C46	C	0.335089	0.529160	0.499885
C47	C	-0.146621	0.167088	-0.000101
C48	C	0.353379	0.667088	0.499899
C49	C	-0.225563	0.168351	-0.000097
C50	C	0.274437	0.668351	0.499903
C51	C	-0.274178	0.100014	-0.000108
C52	C	0.225822	0.600014	0.499892
C53	C	-0.359777	0.101383	-0.000098
C54	C	0.140223	0.601383	0.499902
C55	C	-0.428002	0.102480	-0.000090
C56	C	0.071998	0.602480	0.499910
C57	C	-0.959058	-0.645338	-0.000090
C58	C	-0.459058	-0.145338	0.499910
C59	C	-0.960317	-0.566395	-0.000097
C60	C	-0.460317	-0.066395	0.499903
C61	C	-0.891982	-0.517777	-0.000091
C62	C	-0.391982	-0.017777	0.499909
C63	C	-0.822383	-0.548107	-0.000085
C64	C	-0.322383	-0.048107	0.499915
C65	C	-0.821125	-0.627049	-0.000084
C66	C	-0.321125	-0.127049	0.499916
C67	C	-0.827456	-0.229741	-0.000092
C68	C	-0.327456	0.270259	0.499908
C69	C	-0.828720	-0.150794	-0.000092
C70	C	-0.328720	0.349206	0.499908
C71	C	-0.966648	-0.169086	-0.000106
C72	C	-0.466648	0.330914	0.499894
C73	C	-0.965390	-0.248029	-0.000104
C74	C	-0.465390	0.251971	0.499896
C75	C	-0.895792	-0.278352	-0.000103
C76	C	-0.395792	0.221648	0.499897
C77	C	-0.894427	-0.363951	-0.000097
C78	C	-0.394427	0.136049	0.499903
C79	C	-0.893345	-0.432179	-0.000091
C80	C	-0.393345	0.067821	0.499909
C81	C	-0.888120	0.240319	-0.000087
C82	C	-0.388120	0.740319	0.499913
C83	C	-0.889464	0.324337	-0.000082
C84	C	-0.389464	0.824337	0.499918
N85	N	-0.893874	0.101934	-0.206646
N86	N	-0.393874	0.601934	0.293354
C87	C	-0.939693	0.147782	-0.248362
C88	C	-0.439693	0.647782	0.251638
C89	C	-0.939701	0.147779	-0.331814
C90	C	-0.439701	0.647779	0.168186
C91	C	-0.893887	0.101931	-0.373549
C92	C	-0.393887	0.601931	0.126451
C93	C	-0.848066	0.056078	-0.331827
C94	C	-0.348066	0.556078	0.168173
C95	C	-0.848062	0.056077	-0.248376
C96	C	-0.348062	0.556077	0.251624
C97	C	-0.848082	0.056079	-0.668374
C98	C	-0.348082	0.556079	-0.168374
C99	C	-0.848087	0.056085	-0.751831
C100	C	-0.348087	0.556085	-0.251831
C101	C	-0.939720	0.147781	-0.751812
C102	C	-0.439720	0.647781	-0.251812
C103	C	-0.939716	0.147780	-0.668361
C104	C	-0.439716	0.647780	-0.168361
C105	C	-0.893899	0.101924	-0.626647
C106	C	-0.393899	0.601924	-0.126647
C107	C	-0.893892	0.101926	-0.536158
C108	C	-0.393892	0.601926	-0.036158
C109	C	-0.893889	0.101932	-0.464036
C110	C	-0.393889	0.601932	0.035964
N111	N	-0.893910	0.101930	0.206452
N112	N	-0.393910	0.601930	0.706452
H113	H	-0.647554	0.231382	-0.000058
H114	H	-0.147554	0.731382	0.499942
H115	H	-0.283432	-0.025227	-0.000123
H116	H	0.216568	0.474773	0.499877
N117	N	-1.032765	-0.697771	-0.000106
N118	N	-0.532765	-0.197771	0.499894
H119	H	-1.021410	-0.752383	-0.000104
H120	H	-0.521410	-0.252383	0.499896
H121	H	-1.063109	-0.687962	0.049035
H122	H	-0.563109	-0.187962	0.549035
H123	H	-0.810752	0.018743	-0.214412
H124	H	-0.310752	0.518743	0.285588
H125	H	-0.977012	0.185112	-0.365775
H126	H	-0.477012	0.685112	0.134225
N127	N	-1.039095	-0.300463	-0.000121
N128	N	-0.539095	0.199537	0.499879
H129	H	-1.027738	-0.355075	-0.000119
H130	H	-0.527738	0.144925	0.499881
H131	H	-1.069440	-0.290657	0.049021
H132	H	-0.569440	0.209343	0.549021
H133	H	-0.107028	0.222732	-0.000096
H134	H	0.392972	0.722732	0.499904
H135	H	-1.016987	-0.541708	-0.000104
H136	H	-0.516987	-0.041708	0.499896
H137	H	-0.504346	0.229090	-0.000072
H138	H	-0.004346	0.729090	0.499928
N139	N	-0.258272	0.243414	-0.000076
N140	N	0.241728	0.743414	0.499924
H141	H	-0.215494	0.286513	-0.000074
H142	H	0.284506	0.786513	0.499926
H143	H	-0.290631	0.246945	-0.049220
H144	H	0.209369	0.746945	0.450780
H145	H	-0.977020	0.185117	-0.634385
H146	H	-0.477020	0.685117	-0.134385
N147	N	-0.132199	-0.045907	-0.000126
N148	N	0.367801	0.454093	0.499874
H149	H	-0.174975	-0.089008	-0.000135
H150	H	0.325025	0.410992	0.499865
H151	H	-0.099844	-0.049428	-0.049275
H152	H	0.400156	0.450572	0.450725
N153	N	-0.989115	0.197227	-0.203354
N154	N	-0.489115	0.697227	0.296646
H155	H	-0.982161	0.190272	-0.144157
H156	H	-0.482161	0.690272	0.355843
H157	H	-0.974065	0.252293	-0.217936
H158	H	-0.474065	0.752293	0.282064
N159	N	-0.529518	-0.039553	-0.000116
N160	N	-0.029518	0.460447	0.499884
H161	H	-0.472131	-0.029986	-0.000118
H162	H	0.027869	0.470014	0.499882
H163	H	-0.547308	-0.069454	0.049027
H164	H	-0.047308	0.430546	0.549027
H165	H	-1.023319	-0.144388	-0.000096
H166	H	-0.523319	0.355612	0.499904
N167	N	-0.798680	0.006621	-0.796845
N168	N	-0.298680	0.506621	-0.296845
H169	H	-0.805635	0.013584	-0.856040
H170	H	-0.305635	0.513584	-0.356040
H171	H	-0.743607	0.021635	-0.782261
H172	H	-0.243607	0.521635	-0.282261
H173	H	-0.680747	-0.018868	-0.000091
H174	H	-0.180747	0.481132	0.499909
H175	H	-0.773070	-0.111210	-0.000088
H176	H	-0.273070	0.388790	0.499912
N177	N	-0.752393	-0.262441	-0.000102
N178	N	-0.252393	0.237559	0.499898
H179	H	-0.709297	-0.219662	-0.000099
H180	H	-0.209297	0.280338	0.499901
H181	H	-0.748860	-0.294798	0.049041
H182	H	-0.248860	0.205202	0.549041
H183	H	-0.766743	-0.508516	-0.000085
H184	H	-0.266743	-0.008516	0.499915
H185	H	-0.764455	-0.651738	-0.000084
H186	H	-0.264455	-0.151738	0.499916
N187	N	-0.989141	0.197240	-0.796804
N188	N	-0.489141	0.697240	-0.296804
H189	H	-0.982197	0.190285	-0.856002
H190	H	-0.482197	0.690285	-0.356002
H191	H	-1.044210	0.182221	-0.782213
H192	H	-0.544210	0.682221	-0.282213
H193	H	-0.810775	0.018740	-0.634420
H194	H	-0.310775	0.518740	-0.134420
N195	N	-0.798656	0.006621	-0.376836
N196	N	-0.298656	0.506621	0.123164
H197	H	-0.805609	0.013579	-0.436032
H198	H	-0.305609	0.513579	0.063968
H199	H	-0.743585	0.021642	-0.362250
H200	H	-0.243585	0.521642	0.137750
