data_functionalizedCrystal
_audit_creation_method	'MofGen! by Chris Wilmer'
_symmetry_space_group_name_H-M	'P1'
_symmetry_Int_Tables_number	1
_symmetry_cell_setting	triclinic
loop_
_symmetry_equiv_pos_as_xyz
  x,y,z
_cell_length_a	17.000371
_cell_length_b	15.944493
_cell_length_c	14.421503
_cell_angle_alpha	89.992936
_cell_angle_beta	89.994392
_cell_angle_gamma	100.462854
loop_
_atom_site_label
_atom_site_type_symbol
_atom_site_fract_x
_atom_site_fract_y
_atom_site_fract_z
O1	O	-0.102424	1.106988	-0.077095
O2	O	-0.115129	0.861493	-0.077100
O3	O	0.007092	0.999484	-0.077096
O4	O	-0.224645	0.968997	-0.077099
O5	O	0.007074	0.999461	0.077128
O6	O	-0.115147	0.861470	0.077124
O7	O	-0.102443	1.106966	0.077128
Cu8	Cu	-0.108796	0.984216	0.091208
Cu9	Cu	-0.108775	0.984243	-0.091179
O10	O	-0.224663	0.968975	0.077124
C11	C	-0.114619	0.830225	0.000012
C12	C	-0.113062	0.737092	0.000010
C13	C	-0.185004	0.496014	0.000008
C14	C	-0.146217	0.448312	0.076053
C15	C	-0.110177	0.566584	0.000012
C16	C	-0.146182	0.448340	-0.075999
C17	C	-0.107397	0.401880	0.000010
C18	C	-0.071411	0.520109	0.076119
C19	C	-0.071386	0.520140	-0.076001
C20	C	-0.032545	0.472475	0.000062
C21	C	-0.111781	0.661465	0.000014
C22	C	-0.105787	0.307002	0.000014
C23	C	-0.254308	0.967349	0.000012
C24	C	-0.342668	0.962479	0.000010
C25	C	-0.374682	1.037411	0.000009
C26	C	-0.457706	1.032831	0.000014
C27	C	-0.508713	0.953318	0.000014
C28	C	-0.476694	0.878381	0.000018
C29	C	-0.393671	0.882962	0.000019
C30	C	-0.759862	0.935623	0.000015
C31	C	-0.842889	0.931048	0.000011
C32	C	-0.823896	1.085498	0.000009
C33	C	-0.740873	1.090072	0.000005
C34	C	-0.708860	1.015135	0.000014
C35	C	-0.593577	0.948634	0.000016
C36	C	-0.623998	1.019820	0.000018
C37	C	0.036737	1.001110	0.000014
C38	C	0.125096	1.005979	0.000010
C39	C	-0.102953	1.138233	0.000015
C40	C	-0.104509	1.231367	0.000010
N41	N	-0.108811	0.984203	0.219489
N42	N	-0.108754	0.984263	-0.219461
C43	C	-0.165301	0.920387	0.469141
C44	C	-0.180738	0.995148	0.530945
C45	C	-0.108792	0.984225	0.408650
C46	C	-0.093373	0.909482	0.530941
C47	C	-0.108776	0.984239	0.591372
C48	C	-0.124266	1.059022	0.469093
C49	C	-0.036869	0.973308	0.469084
C50	C	-0.052276	1.048126	0.530860
C51	C	-0.108804	0.984215	0.303389
C52	C	-0.108763	0.984257	0.696631
H53	H	0.031959	0.461777	0.000107
H54	H	-0.699347	1.154820	0.000010
H55	H	-0.333157	1.102159	0.000002
H56	H	-0.518231	0.813640	0.000023
H57	H	-0.241555	1.004396	0.558116
H58	H	-0.733808	0.874604	0.000011
H59	H	-0.039837	0.551262	0.140473
H60	H	-0.177790	0.417074	-0.140280
H61	H	-0.213126	0.866451	0.442042
H62	H	-0.137373	1.122245	0.442041
H63	H	-0.849970	1.146508	-0.000005
H64	H	-0.039802	0.551429	-0.140293
H65	H	0.023928	0.964035	0.441891
H66	H	-0.004479	1.102173	0.557789
H67	H	-0.249459	0.506873	0.000078
H68	H	-0.080339	0.846268	0.558110
H69	H	-0.367607	0.821944	0.000028
H70	H	-0.635117	0.883895	0.000012
H71	H	-0.177825	0.417029	0.140341
H72	H	-0.483768	1.093848	0.000014
H73	H	-0.884419	0.866296	0.000013
H74	H	-0.582464	1.084558	0.000023
