data_functionalizedCrystal
_audit_creation_method	'MofGen! by Chris Wilmer'
_symmetry_space_group_name_H-M	'P1'
_symmetry_Int_Tables_number	1
_symmetry_cell_setting	triclinic
loop_
_symmetry_equiv_pos_as_xyz
  x,y,z
_cell_length_a	12.594516
_cell_length_b	12.594517
_cell_length_c	12.594509
_cell_angle_alpha	89.978673
_cell_angle_beta	90.026199
_cell_angle_gamma	89.984147
loop_
_atom_site_label
_atom_site_type_symbol
_atom_site_fract_x
_atom_site_fract_y
_atom_site_fract_z
Zn1	Zn	-0.423716	-1.627267	0.601875
Zn2	Zn	-0.601726	-1.627158	0.423903
Zn3	Zn	-0.423761	-1.449271	0.423904
Zn4	Zn	-0.601652	-1.449253	0.601833
O5	O	-0.512714	-1.538237	0.512879
O6	O	-0.447341	-1.776198	0.578284
O7	O	-0.578169	-1.603522	0.274957
O8	O	-0.274809	-1.472936	0.447530
O9	O	-0.578124	-1.776118	0.447528
O10	O	-0.274776	-1.603709	0.578285
O11	O	-0.447419	-1.472830	0.274958
O12	O	-0.447347	-1.300323	0.447489
O13	O	-0.577998	-1.472905	0.750784
O14	O	-0.578042	-1.300310	0.578213
O15	O	-0.447269	-1.603691	0.750815
O16	O	-0.750662	-1.603505	0.447488
O17	O	-0.750608	-1.472799	0.578212
C18	C	-0.512692	-1.261696	0.512847
C19	C	-0.512709	-1.143391	0.512859
C20	C	-0.789255	-1.538167	0.512868
C21	C	-0.907560	-1.538235	0.512899
C22	C	-0.512620	-1.538308	0.790500
C23	C	-0.512581	-1.538339	0.908805
C24	C	-0.976822	-1.467137	0.583950
C25	C	-1.047688	-1.441204	0.486827
C26	C	-1.047494	-1.564265	0.610039
C27	C	-0.976867	-1.512250	0.415725
C28	C	-0.976667	-1.635357	0.539002
C29	C	-1.047500	-1.609460	0.441812
C30	C	-0.235093	-1.538336	0.512912
C31	C	-0.116787	-1.538378	0.512927
C32	C	-0.512736	-1.815858	0.512911
C33	C	-0.512745	-1.934163	0.512924
C34	C	-0.441526	-1.074114	0.441894
C35	C	-0.538615	-1.003303	0.415718
C36	C	-0.415668	-1.003403	0.539054
C37	C	-0.609849	-1.074138	0.486632
C38	C	-0.486836	-1.074244	0.610013
C39	C	-0.583991	-1.003465	0.583874
C40	C	-0.512730	-1.538227	0.236338
C41	C	-0.512470	-1.538403	0.118033
C42	C	-0.583644	-1.467227	0.978042
C43	C	-0.609650	-1.564347	1.048833
C44	C	-0.486510	-1.441294	1.048813
C45	C	-0.538638	-1.635510	0.978038
C46	C	-0.415453	-1.512391	0.978012
C47	C	-0.441422	-1.609579	1.048772
H48	H	-0.945788	-1.406905	0.643949
H49	H	-0.464506	-1.359198	1.079902
N50	N	-0.935958	-1.483031	0.306891
H51	H	-0.962270	-1.536428	0.253171
H52	H	-0.855770	-1.483110	0.307656
N53	N	-1.088352	-1.689185	0.362150
H54	H	-1.133583	-1.651698	0.307519
H55	H	-1.132384	-1.744516	0.399949
H56	H	-1.078906	-1.359136	0.464772
H57	H	-0.644273	-0.972639	0.643914
H58	H	-0.333385	-1.490382	0.946881
H59	H	-0.464899	-1.105429	0.692122
N60	N	-0.935314	-1.744041	0.568269
H61	H	-0.960956	-1.763588	0.641689
H62	H	-0.855134	-1.743268	0.567292
H63	H	-0.643833	-1.407136	0.946986
N64	N	-1.088600	-1.593355	0.718834
H65	H	-1.062891	-1.539543	0.772430
H66	H	-1.061649	-1.666157	0.739001
N67	N	-0.361867	-1.115217	0.362312
H68	H	-0.381570	-1.089410	0.288966
H69	H	-0.361975	-1.195400	0.363423
N70	N	-0.361769	-1.689363	1.089676
H71	H	-0.326233	-1.725856	1.027761
H72	H	-0.399388	-1.743887	1.134860
H73	H	-0.691955	-1.105080	0.464413
H74	H	-0.560522	-0.972144	0.333584
H75	H	-0.333597	-0.972276	0.561146
H76	H	-0.691742	-1.586329	1.079941
H77	H	-0.560736	-1.717631	0.947080
