data_functionalizedCrystal
_audit_creation_method	'MofGen! by Chris Wilmer'
_symmetry_space_group_name_H-M	'P1'
_symmetry_Int_Tables_number	1
_symmetry_cell_setting	triclinic
loop_
_symmetry_equiv_pos_as_xyz
  x,y,z
_cell_length_a	27.732046
_cell_length_b	27.732048
_cell_length_c	26.210047
_cell_angle_alpha	90.003465
_cell_angle_beta	90.001831
_cell_angle_gamma	82.642317
loop_
_atom_site_label
_atom_site_type_symbol
_atom_site_fract_x
_atom_site_fract_y
_atom_site_fract_z
O1	O	-0.057510	-0.640931	-0.042370
O2	O	0.442490	-0.140931	0.457630
O3	O	-0.066256	-0.500137	-0.042387
O4	O	0.433744	-0.000137	0.457613
O5	O	0.008514	-0.574907	-0.042366
O6	O	0.508514	-0.074907	0.457634
O7	O	-0.132280	-0.566161	-0.042390
O8	O	0.367720	-0.066161	0.457610
O9	O	0.008502	-0.574893	0.042492
O10	O	0.508502	-0.074893	0.542492
O11	O	-0.066267	-0.500123	0.042472
O12	O	0.433733	-0.000123	0.542472
O13	O	-0.057522	-0.640916	0.042488
O14	O	0.442478	-0.140916	0.542488
Cu15	Cu	-0.061896	-0.570518	0.050228
Cu16	Cu	0.438104	-0.070518	0.550228
Cu17	Cu	-0.061882	-0.570535	-0.050127
Cu18	Cu	0.438118	-0.070535	0.449873
O19	O	-0.132291	-0.566146	0.042468
O20	O	0.367709	-0.066146	0.542468
C21	C	0.026515	-0.574717	0.000065
C22	C	0.526515	-0.074717	0.500065
C23	C	0.080170	-0.574164	0.000070
C24	C	0.580170	-0.074164	0.500070
C25	C	-0.066078	-0.482123	0.000041
C26	C	0.433922	0.017877	0.500041
C27	C	-0.065525	-0.428468	0.000035
C28	C	0.434475	0.071532	0.500035
C29	C	-0.057699	-0.658931	0.000060
C30	C	0.442301	-0.158931	0.500060
C31	C	-0.058252	-0.712585	0.000062
C32	C	0.441748	-0.212585	0.500062
C33	C	0.418985	-0.614870	0.000057
C34	C	0.918985	-0.114870	0.500057
C35	C	0.620645	-0.612820	0.000055
C36	C	1.120645	-0.112820	0.500055
O37	O	0.651901	-0.650041	0.000037
O38	O	1.151901	-0.150041	0.500037
N39	N	0.639769	-0.568485	0.000050
N40	N	1.139769	-0.068485	0.500050
C41	C	0.608474	-0.524659	0.000044
C42	C	1.108474	-0.024659	0.500044
O43	O	0.629367	-0.486902	0.000035
O44	O	1.129367	0.013098	0.500035
C45	C	0.406815	-0.526710	0.000042
C46	C	0.906815	-0.026710	0.500042
C47	C	0.387695	-0.571047	0.000052
C48	C	0.887695	-0.071047	0.500052
C49	C	0.399864	-0.659204	0.000066
C50	C	0.899864	-0.159204	0.500066
C51	C	0.349452	-0.659716	0.000069
C52	C	0.849452	-0.159716	0.500069
C53	C	0.318161	-0.615894	0.000064
C54	C	0.818161	-0.115894	0.500064
C55	C	0.337283	-0.571559	0.000055
C56	C	0.837283	-0.071559	0.500055
C57	C	0.375522	-0.482884	0.000032
C58	C	0.875522	0.017116	0.500032
C59	C	0.325104	-0.483401	0.000030
C60	C	0.825104	0.016599	0.500030
C61	C	0.305984	-0.527739	0.000039
C62	C	0.805984	-0.027739	0.500039
C63	C	0.255580	-0.528249	0.000053
C64	C	0.755580	-0.028249	0.500053
N65	N	0.236456	-0.572584	0.000057
N66	N	0.736456	-0.072584	0.500057
C67	C	0.267747	-0.616406	0.000062
C68	C	0.767747	-0.116406	0.500062
C69	C	0.714348	-0.523586	0.000045
C70	C	1.214348	-0.023586	0.500045
C71	C	0.764763	-0.523073	0.000046
C72	C	1.264763	-0.023073	0.500046
C73	C	0.776930	-0.611234	0.000057
C74	C	1.276930	-0.111234	0.500057
C75	C	0.726515	-0.611746	0.000059
C76	C	1.226515	-0.111746	0.500059
C77	C	0.695225	-0.567921	0.000049
C78	C	1.195225	-0.067921	0.500049
C79	C	0.161878	-0.617478	0.000070
C80	C	0.661878	-0.117478	0.500070
C81	C	0.111461	-0.617986	0.000075
C82	C	0.611461	-0.117986	0.500075
C83	C	0.099298	-0.529826	0.000063
C84	C	0.599298	-0.029826	0.500063
C85	C	0.149710	-0.529317	0.000060
C86	C	0.649710	-0.029317	0.500060
C87	C	0.180999	-0.573148	0.000062
C88	C	0.680999	-0.073148	0.500062
O89	O	0.224296	-0.491048	0.000064
O90	O	0.724296	0.008952	0.500064
O91	O	0.246844	-0.654158	0.000060
O92	O	0.746844	-0.154158	0.500060
C93	C	0.469397	-0.614358	0.000054
C94	C	0.969397	-0.114358	0.500054
C95	C	0.488519	-0.570024	0.000045
C96	C	0.988519	-0.070024	0.500045
C97	C	0.457228	-0.526201	0.000039
C98	C	0.957228	-0.026201	0.500039
C99	C	0.538933	-0.569511	0.000046
C100	C	1.038933	-0.069511	0.500046
C101	C	0.570224	-0.613333	0.000051
C102	C	1.070224	-0.113333	0.500051
C103	C	0.551100	-0.657668	0.000056
C104	C	1.051100	-0.157668	0.500056
C105	C	0.500688	-0.658180	0.000059
C106	C	1.000688	-0.158180	0.500059
C107	C	0.476352	-0.481866	0.000035
C108	C	0.976352	0.018134	0.500035
C109	C	0.526764	-0.481358	0.000032
C110	C	1.026764	0.018642	0.500032
C111	C	0.558055	-0.525180	0.000038
C112	C	1.058055	-0.025180	0.500038
C113	C	0.849708	-0.566339	0.000042
C114	C	1.349708	-0.066339	0.500042
C115	C	0.796054	-0.566896	0.000052
C116	C	1.296054	-0.066896	0.500052
N117	N	-0.061905	-0.570510	0.120812
N118	N	0.438095	-0.070510	0.620812
C119	C	-0.106229	-0.089653	0.000050
C120	C	0.393771	0.410347	0.500050
C121	C	-0.104178	0.112007	0.000055
C122	C	0.395822	0.612007	0.500055
O123	O	-0.141399	0.143263	0.000071
O124	O	0.358601	0.643263	0.500071
N125	N	-0.059843	0.131130	0.000062
N126	N	0.440157	0.631130	0.500062
C127	C	-0.016017	0.099835	0.000070
C128	C	0.483983	0.599835	0.500070
O129	O	0.021740	0.120728	0.000081
O130	O	0.521740	0.620728	0.500081
C131	C	-0.018069	-0.101823	0.000069
C132	C	0.481931	0.398177	0.500069
C133	C	-0.062407	-0.120944	0.000057
C134	C	0.437593	0.379056	0.500057
C135	C	-0.150563	-0.108774	0.000039
C136	C	0.349437	0.391226	0.500039
C137	C	-0.151076	-0.159186	0.000035
C138	C	0.348924	0.340814	0.500035
C139	C	-0.107253	-0.190477	0.000042
C140	C	0.392747	0.309523	0.500042
C141	C	-0.062919	-0.171356	0.000053
C142	C	0.437081	0.328644	0.500053
C143	C	0.025757	-0.133117	0.000081
C144	C	0.525757	0.366883	0.500081
C145	C	0.025240	-0.183535	0.000082
C146	C	0.525240	0.316465	0.500082
C147	C	-0.019098	-0.202655	0.000071
C148	C	0.480902	0.297345	0.500071
C149	C	-0.019609	-0.253059	0.000056
C150	C	0.480391	0.246941	0.500056
N151	N	-0.063944	-0.272182	0.000050
N152	N	0.436056	0.227818	0.500050
C153	C	-0.107766	-0.240891	0.000043
C154	C	0.392234	0.259109	0.500043
C155	C	-0.014943	0.205709	0.000070
C156	C	0.485057	0.705709	0.500070
C157	C	-0.014430	0.256124	0.000069
C158	C	0.485570	0.756124	0.500069
C159	C	-0.102591	0.268292	0.000055
C160	C	0.397409	0.768292	0.500055
C161	C	-0.103104	0.217876	0.000052
C162	C	0.396896	0.717876	0.500052
C163	C	-0.059278	0.186586	0.000063
C164	C	0.440722	0.686586	0.500063
C165	C	-0.108839	-0.346760	0.000034
C166	C	0.391161	0.153240	0.500034
C167	C	-0.109347	-0.397177	0.000028
C168	C	0.390653	0.102823	0.500028
C169	C	-0.021186	-0.409341	0.000045
C170	C	0.478814	0.090659	0.500045
C171	C	-0.020678	-0.358928	0.000048
C172	C	0.479322	0.141072	0.500048
C173	C	-0.064508	-0.327639	0.000044
C174	C	0.435492	0.172361	0.500044
O175	O	0.017592	-0.284343	0.000046
O176	O	0.517592	0.215657	0.500046
O177	O	-0.145518	-0.261794	0.000043
O178	O	0.354482	0.238206	0.500043
C179	C	-0.105717	-0.039241	0.000054
C180	C	0.394283	0.460759	0.500054
C181	C	-0.061382	-0.020120	0.000065
C182	C	0.438618	0.479880	0.500065
C183	C	-0.017560	-0.051411	0.000072
C184	C	0.482440	0.448589	0.500072
C185	C	-0.060869	0.030294	0.000065
C186	C	0.439131	0.530294	0.500065
C187	C	-0.104691	0.061585	0.000057
C188	C	0.395309	0.561585	0.500057
C189	C	-0.149027	0.042462	0.000051
C190	C	0.350973	0.542462	0.500051
C191	C	-0.149539	-0.007950	0.000047
C192	C	0.350461	0.492050	0.500047
C193	C	0.026775	-0.032287	0.000079
C194	C	0.526775	0.467713	0.500079
C195	C	0.027284	0.018125	0.000083
C196	C	0.527284	0.518125	0.500083
C197	C	-0.016538	0.049416	0.000075
C198	C	0.483462	0.549416	0.500075
N199	N	-0.061869	-0.570548	-0.120710
N200	N	0.438131	-0.070548	0.379290
C201	C	-0.028781	-0.603640	0.473335
C202	C	0.471219	-0.103640	0.973335
C203	C	-0.028774	-0.603651	0.686993
C204	C	0.471226	-0.103651	1.186993
O205	O	-0.000614	-0.631801	0.714623
O206	O	0.499386	-0.131801	1.214623
N207	N	-0.061871	-0.570538	0.713706
N208	N	0.438129	-0.070538	1.213706
C209	C	-0.094970	-0.537418	0.687000
C210	C	0.405030	-0.037418	1.187000
O211	O	-0.123117	-0.509251	0.714623
O212	O	0.376883	-0.009251	1.214623
C213	C	-0.094974	-0.537406	0.473343
C214	C	0.405026	-0.037406	0.973343
C215	C	-0.061878	-0.570524	0.446633
C216	C	0.438122	-0.070524	0.946633
C217	C	0.004312	-0.636755	0.446625
C218	C	0.504312	-0.136755	0.946625
C219	C	0.004308	-0.636754	0.393214
C220	C	0.504308	-0.136754	0.893214
C221	C	-0.028789	-0.603638	0.366512
C222	C	0.471211	-0.103638	0.866512
C223	C	-0.061882	-0.570522	0.393222
C224	C	0.438118	-0.070522	0.893222
C225	C	-0.128070	-0.504284	0.446638
C226	C	0.371930	-0.004284	0.946638
C227	C	-0.128067	-0.504283	0.393220
C228	C	0.371933	-0.004283	0.893220
C229	C	-0.094971	-0.537401	0.366511
C230	C	0.405029	-0.037401	0.866511
C231	C	-0.094983	-0.537405	0.313108
C232	C	0.405017	-0.037405	0.813108
N233	N	-0.061886	-0.570518	0.286396
N234	N	0.438114	-0.070518	0.786396
C235	C	-0.028789	-0.603634	0.313098
C236	C	0.471211	-0.103634	0.813098
C237	C	-0.094966	-0.537428	0.799174
C238	C	0.405034	-0.037428	1.299174
C239	C	-0.094966	-0.537431	0.852588
C240	C	0.405034	-0.037431	1.352588
C241	C	-0.028770	-0.603664	0.852577
C242	C	0.471230	-0.103664	1.352577
C243	C	-0.028773	-0.603662	0.799162
C244	C	0.471227	-0.103662	1.299162
C245	C	-0.061869	-0.570540	0.772461
C246	C	0.438131	-0.070540	1.272461
C247	C	-0.028800	-0.603629	0.200930
C248	C	0.471200	-0.103629	0.700930
C249	C	-0.028808	-0.603626	0.147514
C250	C	0.471192	-0.103626	0.647514
C251	C	-0.095002	-0.537393	0.147529
C252	C	0.404998	-0.037393	0.647529
C253	C	-0.094996	-0.537397	0.200940
C254	C	0.405004	-0.037397	0.700940
C255	C	-0.061891	-0.570517	0.227640
C256	C	0.438109	-0.070517	0.727640
O257	O	-0.123125	-0.509266	0.285446
O258	O	0.376875	-0.009266	0.785446
O259	O	-0.000639	-0.631790	0.285466
O260	O	0.499361	-0.131790	0.785466
C261	C	-0.028777	-0.603641	0.526746
C262	C	0.471223	-0.103641	1.026746
C263	C	-0.061871	-0.570526	0.553456
C264	C	0.438129	-0.070526	1.053456
C265	C	-0.094968	-0.537410	0.526754
C266	C	0.405032	-0.037410	1.026754
C267	C	-0.061870	-0.570530	0.606870
C268	C	0.438130	-0.070530	1.106870
C269	C	-0.028773	-0.603646	0.633572
C270	C	0.471227	-0.103646	1.133572
C271	C	0.004323	-0.636759	0.606860
C272	C	0.504323	-0.136759	1.106860
C273	C	0.004320	-0.636758	0.553448
C274	C	0.504320	-0.136758	1.053448
C275	C	-0.128064	-0.504297	0.553466
C276	C	0.371936	-0.004297	1.053466
C277	C	-0.128058	-0.504301	0.606878
C278	C	0.371942	-0.004301	1.106878
C279	C	-0.094961	-0.537418	0.633580
C280	C	0.405039	-0.037418	1.133580
H281	H	0.095896	-0.654093	0.000084
H282	H	0.595896	-0.154093	0.500084
H283	H	-0.155013	-0.477333	0.628621
H284	H	0.344987	0.022667	1.128621
H285	H	0.425337	-0.694892	0.000068
H286	H	0.925337	-0.194892	0.500068
H287	H	0.710951	-0.647850	0.000066
H288	H	1.210951	-0.147850	0.500066
O289	O	-0.145192	0.298644	0.000118
O290	O	0.354808	0.798644	0.500118
C291	C	-0.172130	0.290042	0.044072
C292	C	0.327870	0.790042	0.544072
H293	H	-0.159975	0.251706	0.058724
H294	H	0.340025	0.751706	0.558724
H295	H	-0.212473	0.293891	0.034187
H296	H	0.287527	0.793891	0.534187
H297	H	-0.165726	0.317571	0.074848
H298	H	0.334274	0.817571	0.574848
O299	O	-0.127168	-0.505235	0.773319
O300	O	0.372832	-0.005235	1.273319
C301	C	-0.156368	-0.476007	0.808356
C302	C	0.343632	0.023993	1.308356
H303	H	-0.156771	-0.495827	0.846427
H304	H	0.343229	0.004173	1.346427
H305	H	-0.195026	-0.468341	0.792929
H306	H	0.304974	0.031659	1.292929
H307	H	-0.140920	-0.440218	0.814044
H308	H	0.359080	0.059782	1.314044
O309	O	-0.160265	-0.472109	0.527612
O310	O	0.339735	0.027891	1.027612
C311	C	-0.189464	-0.442879	0.562648
C312	C	0.310536	0.057121	1.062648
H313	H	-0.189864	-0.462697	0.600721
H314	H	0.310136	0.037303	1.100721
H315	H	-0.228122	-0.435215	0.547223
H316	H	0.271878	0.064785	1.047223
H317	H	-0.174017	-0.407089	0.568332
H318	H	0.325983	0.092911	1.068332
O319	O	0.545358	-0.438297	0.000113
O320	O	1.045358	0.061703	0.500113
C321	C	0.574170	-0.435351	0.044050
C322	C	1.074170	0.064649	0.544050
H323	H	0.562438	-0.460511	0.074777
H324	H	1.062438	0.039489	0.574777
H325	H	0.569358	-0.396354	0.058791
H326	H	1.069358	0.103646	0.558791
H327	H	0.614013	-0.446804	0.034112
H328	H	1.114013	0.053196	0.534112
H329	H	-0.185643	-0.023513	0.000038
H330	H	0.314357	0.476487	0.500038
O331	O	0.446009	-0.439263	-0.000035
O332	O	0.946009	0.060737	0.499965
C333	C	0.454618	-0.412333	-0.043992
C334	C	0.954618	0.087667	0.456008
H335	H	0.492950	-0.424503	-0.058648
H336	H	0.992950	0.075497	0.441352
H337	H	0.450786	-0.371989	-0.034109
H338	H	0.950786	0.128011	0.465891
H339	H	0.427082	-0.418728	-0.074764
H340	H	0.927082	0.081272	0.425236
H341	H	-0.145454	-0.412742	0.000018
H342	H	0.354546	0.087258	0.500018
H343	H	0.063392	0.033688	0.000088
H344	H	0.563392	0.533688	0.500088
H345	H	-0.144530	-0.321290	0.000032
H346	H	0.355470	0.178710	0.500032
O347	O	-0.191628	0.072814	0.000112
O348	O	0.308372	0.572814	0.500112
C349	C	-0.218570	0.064211	0.044062
C350	C	0.281430	0.564211	0.544062
H351	H	-0.206416	0.025875	0.058714
H352	H	0.293584	0.525875	0.558714
H353	H	-0.258912	0.068059	0.034173
H354	H	0.241088	0.568059	0.534173
H355	H	-0.212169	0.091740	0.074840
H356	H	0.287831	0.591740	0.574840
O357	O	0.192199	-0.660099	0.000096
O358	O	0.692199	-0.160099	0.500096
C359	C	0.164502	-0.699334	0.000092
C360	C	0.664502	-0.199334	0.500092
H361	H	0.126783	-0.686767	0.016156
H362	H	0.626783	-0.186767	0.516156
H363	H	0.183320	-0.730012	0.024734
H364	H	0.683320	-0.230012	0.524734
H365	H	0.161008	-0.712950	-0.040616
H366	H	0.661008	-0.212950	0.459384
O367	O	-0.160263	-0.472176	0.472599
O368	O	0.339737	0.027824	0.972599
C369	C	-0.189906	-0.497828	0.503506
C370	C	0.310094	0.002172	1.003506
H371	H	-0.190467	-0.535942	0.487411
H372	H	0.309533	-0.035942	0.987411
H373	H	-0.228462	-0.477811	0.504108
H374	H	0.271538	0.022189	1.004108
H375	H	-0.174762	-0.500473	0.543988
H376	H	0.325238	-0.000473	1.043988
H377	H	0.333889	-0.695821	0.000075
H378	H	0.833889	-0.195821	0.500075
H379	H	-0.001842	-0.630598	0.222662
H380	H	0.498158	-0.130598	0.722662
H381	H	0.031266	-0.663723	0.468361
H382	H	0.531266	-0.163723	0.968361
O383	O	-0.146204	0.199363	-0.000024
O384	O	0.353796	0.699363	0.499976
C385	C	-0.172881	0.215373	-0.043985
C386	C	0.327119	0.715373	0.456015
H387	H	-0.159967	0.250242	-0.058637
H388	H	0.340033	0.750242	0.441363
H389	H	-0.213190	0.222672	-0.034109
H390	H	0.286810	0.722672	0.465891
H391	H	-0.167059	0.186151	-0.074757
H392	H	0.332941	0.686151	0.425243
O393	O	0.022361	-0.340296	0.000124
O394	O	0.522361	0.159704	0.500124
C395	C	0.025296	-0.311512	0.044085
C396	C	0.525296	0.188488	0.544085
H397	H	-0.012900	-0.298674	0.058730
H398	H	0.487100	0.201326	0.558730
H399	H	0.044317	-0.278637	0.034210
H400	H	0.544317	0.221363	0.534210
H401	H	0.046845	-0.333948	0.074860
H402	H	0.546845	0.166052	0.574860
O403	O	-0.194113	-0.177818	0.000088
O404	O	0.305887	0.322182	0.500088
C405	C	-0.197066	-0.206606	0.044039
C406	C	0.302934	0.293394	0.544039
H407	H	-0.158875	-0.219443	0.058703
H408	H	0.341125	0.280557	0.558703
H409	H	-0.216080	-0.239482	0.034144
H410	H	0.283920	0.260518	0.534144
H411	H	-0.218629	-0.184174	0.074808
H412	H	0.281371	0.315826	0.574808
O413	O	0.021336	-0.439810	0.000076
O414	O	0.521336	0.060190	0.500076
C415	C	0.011371	-0.488406	0.000060
C416	C	0.511371	0.011594	0.500060
H417	H	-0.026587	-0.490055	0.016114
H418	H	0.473413	0.009945	0.516114
H419	H	0.039318	-0.511453	0.024706
H420	H	0.539318	-0.011453	0.524706
H421	H	0.013323	-0.503005	-0.040650
H422	H	0.513323	-0.003005	0.459350
H423	H	0.165279	-0.493214	0.000066
H424	H	0.665279	0.006786	0.500066
H425	H	-0.186251	-0.083301	0.000035
H426	H	0.313749	0.416699	0.500035
O427	O	0.069391	-0.062611	0.000062
O428	O	0.569391	0.437389	0.500062
C429	C	0.108627	-0.034915	0.000082
C430	C	0.608627	0.465085	0.500082
H431	H	0.096065	0.002805	-0.015981
H432	H	0.596065	0.502805	0.484019
H433	H	0.139312	-0.053732	-0.024553
H434	H	0.639312	0.446268	0.475447
H435	H	0.122231	-0.031424	0.040795
H436	H	0.622231	0.468576	0.540795
O437	O	0.028683	0.274614	0.000097
O438	O	0.528683	0.774614	0.500097
C439	C	0.067248	0.236179	0.000092
C440	C	0.567248	0.736179	0.500092
H441	H	0.053953	0.202029	0.016154
H442	H	0.553953	0.702029	0.516154
H443	H	0.098223	0.246487	0.024735
H444	H	0.598223	0.746487	0.524735
H445	H	0.080752	0.228942	-0.040616
H446	H	0.580752	0.728942	0.459384
O447	O	-0.160266	-0.472090	0.367363
O448	O	0.339734	0.027910	0.867363
C449	C	-0.189465	-0.442855	0.402396
C450	C	0.310535	0.057145	0.902396
H451	H	-0.189871	-0.462671	0.440469
H452	H	0.310129	0.037329	0.940469
H453	H	-0.228122	-0.435188	0.386967
H454	H	0.271878	0.064812	0.886967
H455	H	-0.174014	-0.407068	0.408080
H456	H	0.325986	0.092932	0.908080
H457	H	-0.121950	-0.510434	0.222688
H458	H	0.378050	-0.010434	0.722688
O459	O	-0.127169	-0.505290	0.121528
O460	O	0.372831	-0.005290	0.621528
C461	C	-0.156822	-0.530948	0.090636
C462	C	0.343178	-0.030948	0.590636
H463	H	-0.137314	-0.568919	0.082636
H464	H	0.362686	-0.068919	0.582636
H465	H	-0.164601	-0.510716	0.053074
H466	H	0.335399	-0.010716	0.553074
H467	H	-0.192530	-0.533956	0.111216
H468	H	0.307470	-0.033956	0.611216
H469	H	0.031259	-0.663720	0.371470
H470	H	0.531259	-0.163720	0.871470
O471	O	0.027601	0.175269	0.000008
O472	O	0.527601	0.675269	0.500008
C473	C	0.029956	0.145749	-0.043948
C474	C	0.529956	0.645749	0.456052
H475	H	-0.008390	0.143471	-0.058603
H476	H	0.491610	0.643471	0.441397
H477	H	0.048258	0.107725	-0.034063
H478	H	0.548258	0.607725	0.465937
H479	H	0.051904	0.162179	-0.074720
H480	H	0.551904	0.662179	0.425280
H481	H	0.031269	-0.663726	0.531705
H482	H	0.531269	-0.163726	1.031705
H483	H	0.802416	-0.646916	0.000061
H484	H	1.302416	-0.146916	0.500061
H485	H	0.780326	-0.486969	0.000048
H486	H	1.280326	0.013031	0.500048
O487	O	0.684025	-0.480966	0.000063
O488	O	1.184025	0.019034	0.500063
C489	C	0.711721	-0.441731	0.000049
C490	C	1.211721	0.058269	0.500049
H491	H	0.749441	-0.454293	0.016114
H492	H	1.249441	0.045707	0.516114
H493	H	0.692905	-0.411045	0.024684
H494	H	1.192905	0.088955	0.524684
H495	H	0.715213	-0.428127	-0.040663
H496	H	1.215213	0.071873	0.459337
H497	H	0.031271	-0.663725	0.628609
H498	H	0.531271	-0.163725	1.128609
O499	O	0.003391	-0.635816	0.121648
O500	O	0.503391	-0.135816	0.621648
C501	C	0.032595	-0.665052	0.156674
C502	C	0.532595	-0.165052	0.656674
H503	H	0.033005	-0.645237	0.194750
H504	H	0.533005	-0.145237	0.694750
H505	H	0.071251	-0.672716	0.141241
H506	H	0.571251	-0.172716	0.641241
H507	H	0.017147	-0.700841	0.162353
H508	H	0.517147	-0.200841	0.662353
H509	H	0.391081	-0.446780	0.000021
H510	H	0.891081	0.053220	0.500021
H511	H	0.299630	-0.447712	0.000021
H512	H	0.799630	0.052288	0.500021
H513	H	0.073812	-0.494147	0.000060
H514	H	0.573812	0.005853	0.500060
H515	H	0.061861	-0.117559	0.000091
H516	H	0.561861	0.382441	0.500091
O517	O	0.003425	-0.635849	0.773298
O518	O	0.503425	-0.135849	1.273298
C519	C	0.032625	-0.665086	0.808326
C520	C	0.532625	-0.165086	1.308326
H521	H	0.033031	-0.645273	0.846403
H522	H	0.533031	-0.145273	1.346403
H523	H	0.071282	-0.672751	0.792898
H524	H	0.571282	-0.172751	1.292898
H525	H	0.017176	-0.700875	0.814001
H526	H	0.517176	-0.200875	1.314001
H527	H	0.485125	-0.694285	0.000066
H528	H	0.985125	-0.194285	0.500066
O529	O	0.581521	-0.700225	-0.000031
O530	O	1.081521	-0.200225	0.499969
C531	C	0.611051	-0.702561	-0.043975
C532	C	1.111051	-0.202561	0.456025
H533	H	0.592399	-0.677707	-0.074693
H534	H	1.092399	-0.177707	0.425307
H535	H	0.617010	-0.741542	-0.058725
H536	H	1.117010	-0.241542	0.441275
H537	H	0.647622	-0.690323	-0.034042
H538	H	1.147622	-0.190323	0.465958
H539	H	0.060929	-0.209010	0.000092
H540	H	0.560929	0.290990	0.500092
H541	H	-0.001821	-0.630629	0.874327
H542	H	0.498179	-0.130629	1.374327
H543	H	-0.121920	-0.510469	0.874331
H544	H	0.378080	-0.010469	1.374331
