data_functionalizedCrystal
_audit_creation_method	'MofGen! by Chris Wilmer'
_symmetry_space_group_name_H-M	'P1'
_symmetry_Int_Tables_number	1
_symmetry_cell_setting	triclinic
loop_
_symmetry_equiv_pos_as_xyz
  x,y,z
_cell_length_a	12.759394
_cell_length_b	12.759401
_cell_length_c	12.759393
_cell_angle_alpha	90.020938
_cell_angle_beta	89.976284
_cell_angle_gamma	89.995455
loop_
_atom_site_label
_atom_site_type_symbol
_atom_site_fract_x
_atom_site_fract_y
_atom_site_fract_z
Zn1	Zn	0.418173	1.606352	0.594070
Zn2	Zn	0.593888	1.606279	0.418411
Zn3	Zn	0.418229	1.430650	0.418405
Zn4	Zn	0.593815	1.430678	0.594048
O5	O	0.506026	1.518490	0.506233
O6	O	0.441489	1.753363	0.570780
O7	O	0.570641	1.582939	0.271389
O8	O	0.271200	1.453977	0.441714
O9	O	0.570587	1.753309	0.441724
O10	O	0.271159	1.583063	0.570774
O11	O	0.441584	1.453906	0.271384
O12	O	0.441513	1.283633	0.441693
O13	O	0.570462	1.454024	0.741072
O14	O	0.570516	1.283653	0.570737
O15	O	0.441418	1.583090	0.741088
O16	O	0.740900	1.582966	0.441702
O17	O	0.740846	1.453953	0.570742
C18	C	0.506013	1.245522	0.506212
C19	C	0.506033	1.128746	0.506228
C20	C	0.231993	1.518525	0.506246
C21	C	0.115216	1.518540	0.506251
C22	C	0.573307	1.073922	0.573316
C23	C	0.573311	0.964198	0.573337
C24	C	0.438765	0.964131	0.439173
C25	C	0.438756	1.073853	0.439159
C26	C	0.611010	0.814309	0.697202
C27	C	0.678300	0.759482	0.764280
C28	C	0.780831	0.795101	0.780240
C29	C	0.816092	0.885545	0.729106
C30	C	0.748808	0.940367	0.662020
C31	C	0.646262	0.904750	0.646080
C32	C	0.401068	1.223743	0.315292
C33	C	0.333788	1.278567	0.248200
C34	C	0.231255	1.242951	0.232229
C35	C	0.195998	1.152503	0.283345
C36	C	0.263278	1.097679	0.350437
C37	C	0.365809	1.133303	0.366409
C38	C	0.115239	1.384131	0.371852
C39	C	0.060390	1.316939	0.304655
C40	C	-0.049332	1.316958	0.304664
C41	C	-0.104207	1.384174	0.371880
C42	C	-0.049357	1.451365	0.439077
C43	C	0.060367	1.451341	0.439058
C44	C	-0.049380	1.585768	0.573480
C45	C	0.060341	1.585756	0.573467
C46	C	-0.104255	1.652984	0.640696
C47	C	-0.049406	1.720182	0.707889
C48	C	0.060322	1.720162	0.707876
C49	C	0.115191	1.652948	0.640664
C50	C	0.778994	1.518483	0.506244
C51	C	0.895770	1.518576	0.506283
C52	C	0.505925	1.518568	0.780267
C53	C	0.505882	1.518602	0.897043
C54	C	0.506040	1.792523	0.506255
C55	C	0.506046	1.909300	0.506264
C56	C	0.506051	1.518472	0.233266
C57	C	0.505798	1.518642	0.116490
C58	C	0.438679	1.585812	0.951915
C59	C	0.438633	1.585829	1.061640
C60	C	0.573005	1.451424	1.061610
C61	C	0.573044	1.451402	0.951888
C62	C	0.314677	1.623416	1.211603
C63	C	0.247482	1.690643	1.266479
C64	C	0.231372	1.793152	1.230885
C65	C	0.282471	1.828456	1.140418
C66	C	0.349673	1.761235	1.085548
C67	C	0.365764	1.658711	1.121140
C68	C	0.697002	1.413826	0.801922
C69	C	0.764210	1.346610	0.747050
C70	C	0.780332	1.244099	0.782642
C71	C	0.729251	1.208798	0.873112
C72	C	0.662042	1.276015	0.927984
C73	C	0.645919	1.378525	0.892386
H74	H	0.628086	1.118612	0.627931
H75	H	0.777517	1.014004	0.620388
C76	C	0.679274	1.526597	0.762765
N77	N	0.665928	1.611537	0.733273
H78	H	-0.094092	1.774900	0.762616
H79	H	0.104974	1.774868	0.762606
H80	H	-0.193596	1.652989	0.640704
C81	C	0.235936	1.384110	0.371828
N82	N	0.326846	1.384093	0.371810
C83	C	0.372572	1.378073	0.191985
N84	N	0.401780	1.453025	0.149652
H85	H	-0.193548	1.384174	0.371891
H86	H	0.105081	1.262212	0.249931
C87	C	0.928890	0.924712	0.746657
N88	N	1.013851	0.954215	0.759878
H89	H	0.835619	0.750453	0.834858
C90	C	0.405875	1.800062	0.986035
N91	N	0.448199	1.829306	0.911076
C92	C	0.264749	1.941228	1.101275
N93	N	0.251396	2.026169	1.071788
C94	C	0.235887	1.652917	0.640644
N95	N	0.326798	1.652888	0.640630
H96	H	0.176660	1.847888	1.275573
C97	C	0.498215	0.775127	0.679661
N98	N	0.413258	0.745609	0.666448
C99	C	0.083205	1.113322	0.265778
N100	N	-0.001752	1.083813	0.252543
C101	C	0.746983	1.096030	0.912265
N102	N	0.760342	1.011090	0.941753
H103	H	0.383989	1.640527	0.907264
H104	H	0.649580	0.685842	0.805914
H105	H	0.327780	1.539943	1.240587
H106	H	0.234559	1.024036	0.392065
H107	H	0.383991	0.919424	0.384566
H108	H	0.835068	1.189375	0.737960
C109	C	0.191266	1.651801	1.365984
N110	N	0.148924	1.622549	1.440930
C111	C	0.157260	1.303242	0.158394
N112	N	0.101529	1.348645	0.102776
C113	C	0.513861	1.262932	0.332858
N114	N	0.598817	1.292448	0.346084
C115	C	-0.109668	1.243044	0.230745
N116	N	-0.155112	1.187372	0.175068
H117	H	0.627687	1.396715	1.106278
H118	H	0.620450	1.247265	1.001651
H119	H	0.805812	1.375364	0.673391
