data_functionalizedCrystal
_audit_creation_method	'MofGen! by Chris Wilmer'
_symmetry_space_group_name_H-M	'P1'
_symmetry_Int_Tables_number	1
_symmetry_cell_setting	triclinic
loop_
_symmetry_equiv_pos_as_xyz
  x,y,z
_cell_length_a	14.044220
_cell_length_b	11.792241
_cell_length_c	10.268362
_cell_angle_alpha	89.994572
_cell_angle_beta	90.000433
_cell_angle_gamma	88.691147
loop_
_atom_site_label
_atom_site_type_symbol
_atom_site_fract_x
_atom_site_fract_y
_atom_site_fract_z
O1	O	1.259114	0.273771	-0.108163
O2	O	1.592447	0.607104	0.225170
O3	O	1.925780	0.940437	0.558504
O4	O	0.983094	0.263892	-0.108196
O5	O	1.316427	0.597225	0.225138
O6	O	1.649760	0.930558	0.558471
O7	O	1.127802	0.104289	-0.108169
O8	O	1.461135	0.437623	0.225164
O9	O	1.794469	0.770956	0.558497
O10	O	1.114405	0.433373	-0.108189
O11	O	1.447739	0.766706	0.225144
O12	O	1.781072	1.100040	0.558477
O13	O	1.127789	0.104281	0.108431
O14	O	1.461123	0.437614	0.441765
O15	O	1.794456	0.770948	0.775098
O16	O	0.983081	0.263883	0.108405
O17	O	1.316414	0.597217	0.441738
O18	O	1.649748	0.930550	0.775072
O19	O	1.259101	0.273762	0.108438
O20	O	1.592434	0.607096	0.441771
O21	O	1.925768	0.940429	0.775104
Cu22	Cu	1.121090	0.268822	0.128199
Cu23	Cu	1.454423	0.602155	0.461532
Cu24	Cu	1.787756	0.935489	0.794865
Cu25	Cu	1.121105	0.268832	-0.127957
Cu26	Cu	1.454438	0.602165	0.205377
Cu27	Cu	1.787771	0.935499	0.538710
O28	O	1.114393	0.433365	0.108411
O29	O	1.447726	0.766698	0.441745
O30	O	1.781059	1.100031	0.775078
C31	C	0.947751	0.259563	0.000100
C32	C	1.281084	0.592896	0.333434
C33	C	1.614417	0.926230	0.666767
C34	C	0.842459	0.246664	0.000088
C35	C	1.175792	0.579997	0.333421
C36	C	1.509125	0.913331	0.666755
C37	C	1.126954	0.061915	0.000130
C38	C	1.460287	0.395249	0.333464
C39	C	1.793621	0.728582	0.666797
C40	C	1.124435	-0.064335	0.000129
C41	C	1.457769	0.268999	0.333462
C42	C	1.791102	0.602332	0.666796
C43	C	1.119804	-0.295482	0.000107
C44	C	1.453137	0.037852	0.333440
C45	C	1.786471	0.371185	0.666773
C46	C	1.122377	-0.166855	0.000119
C47	C	1.455711	0.166478	0.333452
C48	C	1.789044	0.499812	0.666785
C49	C	0.649676	0.223082	0.000115
C50	C	0.983009	0.556415	0.333449
C51	C	1.316343	0.889749	0.666782
C52	C	0.592513	0.314567	0.000115
C53	C	0.925846	0.647900	0.333449
C54	C	1.259180	0.981234	0.666782
C55	C	0.485242	0.301445	0.000130
C56	C	0.818575	0.634779	0.333464
C57	C	1.151909	0.968112	0.666797
C58	C	0.756957	0.236202	0.000100
C59	C	1.090290	0.569535	0.333433
C60	C	1.423624	0.902868	0.666767
C61	C	1.294444	0.278091	0.000139
C62	C	1.627777	0.611424	0.333472
C63	C	1.961111	0.944758	0.666805
C64	C	1.399736	0.290990	0.000143
C65	C	1.733069	0.624323	0.333476
C66	C	2.066403	0.957657	0.666809
C67	C	1.115241	0.475739	0.000109
C68	C	1.448574	0.809072	0.333442
C69	C	1.781907	1.142405	0.666775
C70	C	1.117759	0.601989	0.000102
C71	C	1.451093	0.935322	0.333435
C72	C	1.784426	1.268655	0.666768
N73	N	1.121086	0.268815	0.308365
N74	N	1.454420	0.602148	0.641698
N75	N	1.787753	0.935482	0.975031
N76	N	1.121116	0.268831	-0.308123
N77	N	1.454449	0.602164	0.025211
N78	N	1.787783	0.935497	0.358544
C79	C	1.121100	0.268829	0.574035
C80	C	1.454433	0.602163	0.907368
C81	C	1.787767	0.935496	1.240702
C82	C	1.121089	0.268824	0.426197
C83	C	1.454423	0.602158	0.759531
C84	C	1.787756	0.935491	1.092864
H85	H	0.624137	0.402744	0.000104
H86	H	0.957471	0.736077	0.333437
H87	H	1.290804	1.069411	0.666770
C88	C	0.606961	0.103970	0.000114
C89	C	0.940294	0.437304	0.333448
C90	C	1.273627	0.770637	0.666781
H91	H	0.539420	0.110668	0.000109
H92	H	0.872754	0.444001	0.333443
H93	H	1.206087	0.777334	0.666776
H94	H	0.627549	0.063869	0.075641
H95	H	0.960882	0.397202	0.408975
H96	H	1.294216	0.730535	0.742308
H97	H	0.627542	0.063897	-0.075435
H98	H	0.960875	0.397230	0.257898
H99	H	1.294208	0.730564	0.591232
