data_functionalizedCrystal
_audit_creation_method	'MofGen! by Chris Wilmer'
_symmetry_space_group_name_H-M	'P1'
_symmetry_Int_Tables_number	1
_symmetry_cell_setting	triclinic
loop_
_symmetry_equiv_pos_as_xyz
  x,y,z
_cell_length_a	10.654550
_cell_length_b	23.532407
_cell_length_c	9.130313
_cell_angle_alpha	89.990840
_cell_angle_beta	89.999724
_cell_angle_gamma	83.666804
loop_
_atom_site_label
_atom_site_type_symbol
_atom_site_fract_x
_atom_site_fract_y
_atom_site_fract_z
O1	O	1.665305	0.079985	-0.121707
O2	O	1.299585	0.087605	-0.121735
O3	O	1.493474	0.000935	-0.121693
O4	O	1.471417	0.166655	-0.121749
O5	O	1.493460	0.000933	0.121905
O6	O	1.299572	0.087603	0.121863
O7	O	1.665292	0.079982	0.121892
Cu8	Cu	1.482431	0.083792	0.144120
Cu9	Cu	1.482447	0.083795	-0.143964
O10	O	1.471404	0.166652	0.121850
C11	C	1.252799	0.087044	0.000061
C12	C	1.113408	0.085370	0.000051
C13	C	1.032306	0.136400	0.000038
C14	C	0.901335	0.134824	0.000064
C15	C	0.932582	0.031183	0.000110
C16	C	1.063550	0.032760	0.000094
C17	C	1.492905	-0.020286	0.000110
C18	C	1.491217	-0.083514	0.000121
C19	C	1.595364	-0.481938	0.000049
C20	C	1.593795	-0.541349	0.000037
O21	O	1.690341	-0.577464	-0.000009
N22	N	1.478529	-0.564726	0.000030
C23	C	1.364824	-0.528689	0.000018
O24	O	1.266636	-0.554029	0.000009
C25	C	1.366394	-0.469280	0.000019
C26	C	1.481668	-0.445906	0.000041
C27	C	1.710629	-0.458564	0.000070
C28	C	1.712197	-0.399158	0.000084
C29	C	1.598500	-0.363126	0.000077
C30	C	1.483236	-0.386500	0.000055
C31	C	1.252690	-0.433244	-0.000003
C32	C	1.254270	-0.373831	-0.000004
C33	C	1.369544	-0.350458	0.000019
C34	C	1.371107	-0.291061	0.000062
N35	N	1.486374	-0.267684	0.000070
C36	C	1.600070	-0.303716	0.000077
C37	C	1.361535	-0.653453	0.000014
C38	C	1.359964	-0.712861	0.000023
C39	C	1.588936	-0.725517	0.000040
C40	C	1.590506	-0.666108	0.000041
C41	C	1.476802	-0.630076	0.000022
C42	C	1.603355	-0.178958	0.000108
C43	C	1.604913	-0.119546	0.000128
C44	C	1.375942	-0.106896	0.000104
C45	C	1.374383	-0.166303	0.000091
C46	C	1.488100	-0.202333	0.000088
O47	O	1.274613	-0.254911	0.000103
O48	O	1.698241	-0.278369	0.000067
C49	C	1.712079	0.080543	0.000093
C50	C	1.851469	0.082217	0.000093
C51	C	1.471972	0.187873	0.000044
C52	C	1.473661	0.251101	0.000023
N53	N	1.482429	0.083790	0.346743
N54	N	1.482458	0.083793	-0.346586
C55	C	1.568311	0.045429	0.423413
C56	C	1.568323	0.045429	0.576750
C57	C	1.396567	0.122156	0.576733
C58	C	1.396550	0.122153	0.423399
H59	H	1.698787	-0.100519	0.000150
C60	C	1.127620	-0.458687	-0.000274
C61	C	1.120053	-0.492422	-0.125594
C62	C	1.004856	-0.515872	-0.125890
H63	H	1.060038	-0.428770	-0.000364
H64	H	1.122205	-0.481638	0.084622
H65	H	1.125456	-0.469471	-0.210468
H66	H	1.187608	-0.522348	-0.125530
H67	H	0.999441	-0.538823	-0.040994
H68	H	0.937283	-0.485951	-0.125976
H69	H	0.999711	-0.538768	-0.210910
H70	H	1.326648	0.153392	0.639161
C71	C	1.303445	0.163899	0.340225
C72	C	1.323125	0.219948	0.377453
C73	C	1.237394	0.258416	0.300849
H74	H	1.219665	0.157437	0.365308
H75	H	1.315737	0.158440	0.237912
H76	H	1.310823	0.225405	0.479743
H77	H	1.406888	0.226427	0.352367
H78	H	1.249686	0.252956	0.198537
H79	H	1.153620	0.251949	0.325938
H80	H	1.250743	0.296449	0.326088
C81	C	1.086195	0.193575	0.000081
C82	C	0.987130	0.237927	0.000116
C83	C	1.036720	0.290605	0.000179
H84	H	1.136609	0.196428	-0.084851
H85	H	1.136607	0.196374	0.085056
H86	H	0.936740	0.235129	-0.084851
H87	H	0.936708	0.235093	0.085042
H88	H	1.087132	0.293404	0.085155
H89	H	1.087134	0.293452	-0.084754
H90	H	0.969513	0.320704	0.000217
C91	C	1.661712	0.003755	0.659728
C92	C	1.736932	-0.029830	0.559770
C93	C	1.822989	-0.068223	0.636154
H94	H	1.616998	-0.020196	0.719566
H95	H	1.713798	0.024450	0.719494
H96	H	1.684853	-0.050523	0.500029
H97	H	1.781674	-0.005894	0.499928
H98	H	1.875074	-0.047529	0.695921
H99	H	1.778264	-0.092171	0.695990
H100	H	1.874043	-0.091012	0.568345
C101	C	1.726953	-0.217976	0.000187
C102	C	1.828219	-0.184779	0.000248
C103	C	1.942094	-0.220702	0.000351
H104	H	1.731299	-0.241420	-0.084740
H105	H	1.731168	-0.241412	0.085167
H106	H	1.824006	-0.161352	-0.084723
H107	H	1.823915	-0.161336	0.085169
H108	H	1.946309	-0.244139	0.085331
H109	H	1.946427	-0.244144	-0.084578
H110	H	2.010817	-0.198183	0.000406
C111	C	1.837394	-0.373819	-0.000211
C112	C	1.906059	-0.392076	-0.125556
C113	C	2.021396	-0.368745	-0.125893
H114	H	1.884324	-0.386150	0.084638
H115	H	1.822119	-0.333274	-0.000288
H116	H	1.921337	-0.432613	-0.125465
H117	H	1.859167	-0.379746	-0.210425
H118	H	2.006121	-0.328199	-0.125970
H119	H	2.068314	-0.381077	-0.041039
H120	H	2.067994	-0.381124	-0.210944
H121	H	0.891971	-0.011650	0.000154
C122	C	1.151407	-0.022710	0.000032
C123	C	1.079715	-0.069121	0.000022
C124	C	1.160605	-0.120226	-0.000049
H125	H	1.203182	-0.024328	0.084953
H126	H	1.203124	-0.024279	-0.084954
H127	H	1.028020	-0.067553	0.085000
H128	H	1.027943	-0.067522	-0.084893
H129	H	1.212322	-0.121795	-0.085035
H130	H	1.212376	-0.121838	0.084874
H131	H	1.111974	-0.151722	-0.000069
C132	C	1.715569	-0.640655	-0.000178
C133	C	1.723158	-0.606901	-0.125488
C134	C	1.838345	-0.583443	-0.125734
H135	H	1.783160	-0.670568	-0.000246
H136	H	1.720954	-0.617714	0.084725
H137	H	1.717786	-0.629841	-0.210368
H138	H	1.655594	-0.576979	-0.125446
H139	H	1.843730	-0.560502	-0.040831
H140	H	1.905927	-0.613359	-0.125798
H141	H	1.843505	-0.560534	-0.210748
C142	C	1.833987	-0.497747	0.000309
C143	C	1.839762	-0.532240	0.125619
C144	C	1.953381	-0.568344	0.125891
H145	H	1.902954	-0.475381	0.000395
H146	H	1.838164	-0.521216	-0.084593
H147	H	1.835598	-0.508775	0.210500
H148	H	1.770822	-0.554618	0.125560
H149	H	1.957558	-0.591813	0.040988
H150	H	2.022339	-0.545974	0.125973
H151	H	1.957309	-0.591755	0.210904
H152	H	1.681514	-0.754865	0.000040
H153	H	0.835306	0.176378	0.000057
H154	H	1.268937	-0.624119	0.000011
H155	H	1.266096	-0.731886	0.000030
H156	H	1.161675	-0.344497	-0.000022
H157	H	1.280517	-0.185334	0.000113
H158	H	1.283373	-0.077548	0.000103
H159	H	1.638238	0.014190	0.361004
