data_functionalizedCrystal
_audit_creation_method	'MofGen! by Chris Wilmer'
_symmetry_space_group_name_H-M	'P1'
_symmetry_Int_Tables_number	1
_symmetry_cell_setting	triclinic
loop_
_symmetry_equiv_pos_as_xyz
  x,y,z
_cell_length_a	14.908571
_cell_length_b	14.909351
_cell_length_c	14.908308
_cell_angle_alpha	83.253152
_cell_angle_beta	89.824947
_cell_angle_gamma	83.622639
loop_
_atom_site_label
_atom_site_type_symbol
_atom_site_fract_x
_atom_site_fract_y
_atom_site_fract_z
Zn1	Zn	1.370974	-0.473902	0.616439
Zn2	Zn	1.704307	-0.140568	0.949773
Zn3	Zn	2.037641	0.192765	1.283106
Zn4	Zn	1.387337	-0.617538	0.474826
Zn5	Zn	1.720671	-0.284204	0.808160
Zn6	Zn	2.054004	0.049129	1.141493
Zn7	Zn	1.228344	-0.456459	0.456375
Zn8	Zn	1.561677	-0.123126	0.789708
Zn9	Zn	1.895011	0.210207	1.123042
Zn10	Zn	1.228306	-0.616459	0.616412
Zn11	Zn	1.561640	-0.283125	0.949745
Zn12	Zn	1.894973	0.050208	1.283079
O13	O	1.303740	-0.541089	0.541013
O14	O	1.637074	-0.207756	0.874347
O15	O	1.970407	0.125577	1.207680
O16	O	1.499391	-0.500706	0.605387
O17	O	1.832724	-0.167373	0.938721
O18	O	2.166057	0.165960	1.272054
O19	O	1.373110	-0.589322	0.346137
O20	O	1.706444	-0.255989	0.679470
O21	O	2.039777	0.077345	1.012804
O22	O	1.240432	-0.331701	0.469898
O23	O	1.573765	0.001633	0.803231
O24	O	1.907099	0.334966	1.136564
O25	O	1.511413	-0.606235	0.501345
O26	O	1.844746	-0.272902	0.834678
O27	O	2.178079	0.060432	1.168011
O28	O	1.345221	-0.344516	0.587496
O29	O	1.678555	-0.011182	0.920829
O30	O	2.011888	0.322151	1.254163
O31	O	1.256299	-0.470979	0.332581
O32	O	1.589632	-0.137645	0.665914
O33	O	1.922965	0.195688	0.999248
O34	O	1.102093	-0.469932	0.469871
O35	O	1.435426	-0.136599	0.803204
O36	O	1.768760	0.196734	1.136538
O37	O	1.240368	-0.604396	0.742657
O38	O	1.573701	-0.271063	1.075991
O39	O	1.907034	0.062270	1.409324
O40	O	1.102065	-0.587483	0.587450
O41	O	1.435399	-0.254150	0.920783
O42	O	1.768732	0.079183	1.254116
O43	O	1.345185	-0.499660	0.742677
O44	O	1.678518	-0.166327	1.076011
O45	O	2.011852	0.167006	1.409344
O46	O	1.373074	-0.744467	0.501318
O47	O	1.706407	-0.411133	0.834652
O48	O	2.039740	-0.077800	1.167985
O49	O	1.256235	-0.743674	0.605341
O50	O	1.589568	-0.410341	0.938674
O51	O	1.922901	-0.077007	1.272008
C52	C	1.069345	-0.526699	0.526656
C53	C	1.402678	-0.193365	0.859989
C54	C	1.736012	0.139968	1.193322
C55	C	0.969070	-0.520565	0.520536
C56	C	1.302403	-0.187232	0.853870
C57	C	1.635736	0.146101	1.187203
C58	C	1.316449	-0.777021	0.555350
C59	C	1.649782	-0.443688	0.888683
C60	C	1.983116	-0.110355	1.222017
C61	C	1.321967	-0.877961	0.561519
C62	C	1.655300	-0.544628	0.894852
C63	C	1.988634	-0.211294	1.228185
C64	C	0.780680	-0.631618	0.631328
C65	C	1.114013	-0.298284	0.964661
C66	C	1.447346	0.035049	1.297994
C67	C	0.686462	-0.625858	0.625581
C68	C	1.019795	-0.292525	0.958915
C69	C	1.353129	0.040809	1.292248
C70	C	0.686415	-0.503282	0.503302
C71	C	1.019748	-0.169949	0.836635
C72	C	1.353081	0.163384	1.169969
C73	C	0.780632	-0.509042	0.509048
C74	C	1.113966	-0.175709	0.842382
C75	C	1.447299	0.157624	1.175715
C76	C	0.827762	-0.573213	0.573063
C77	C	1.161095	-0.239880	0.906396
C78	C	1.494428	0.093454	1.239729
C79	C	0.921981	-0.578976	0.578804
C80	C	1.255315	-0.245643	0.912137
C81	C	1.588648	0.087690	1.245471
C82	C	0.921932	-0.456397	0.456530
C83	C	1.255265	-0.123064	0.789863
C84	C	1.588599	0.210269	1.123196
C85	C	0.827714	-0.450637	0.450783
C86	C	1.161048	-0.117304	0.784117
C87	C	1.494381	0.216029	1.117450
C88	C	1.384240	-1.026828	0.631471
C89	C	1.717573	-0.693495	0.964804
C90	C	2.050907	-0.360161	1.298137
C91	C	1.379061	-0.931987	0.625680
C92	C	1.712395	-0.598654	0.959013
C93	C	2.045728	-0.265320	1.292347
C94	C	1.270049	-0.918782	0.503142
C95	C	1.603382	-0.585449	0.836475
C96	C	1.936716	-0.252115	1.169808
C97	C	1.275227	-1.013623	0.508932
C98	C	1.608561	-0.680290	0.842266
C99	C	1.941894	-0.346956	1.175599
C100	C	1.332324	-1.067643	0.573100
C101	C	1.665657	-0.734310	0.906433
C102	C	1.998990	-0.400976	1.239767
C103	C	1.337497	-1.162486	0.578894
C104	C	1.670830	-0.829152	0.912228
C105	C	2.004163	-0.495819	1.245561
C106	C	1.228489	-1.149279	0.456352
C107	C	1.561823	-0.815946	0.789686
C108	C	1.895156	-0.482612	1.123019
C109	C	1.223311	-1.054438	0.450562
C110	C	1.556644	-0.721105	0.783895
C111	C	1.889978	-0.387771	1.117228
C112	C	1.539051	-0.555537	0.555427
C113	C	1.872384	-0.222203	0.888761
C114	C	2.205718	0.111130	1.222094
C115	C	1.639326	-0.561693	0.561570
C116	C	1.972660	-0.228360	0.894903
C117	C	2.305993	0.104973	1.228236
C118	C	1.290947	-0.553854	0.776316
C119	C	1.624280	-0.220520	1.109649
C120	C	1.957614	0.112813	1.442982
C121	C	1.285495	-0.559293	0.876588
C122	C	1.618828	-0.225960	1.209921
C123	C	1.952162	0.107374	1.543254
C124	C	1.291006	-0.304238	0.526642
C125	C	1.624339	0.029095	0.859975
C126	C	1.957672	0.362428	1.193308
C127	C	1.285579	-0.203307	0.520517
C128	C	1.618912	0.130027	0.853851
C129	C	1.952245	0.463360	1.187184
C130	C	1.316533	-0.528312	0.306625
C131	C	1.649866	-0.194979	0.639959
C132	C	1.983199	0.138354	0.973292
C133	C	1.322145	-0.522628	0.206349
C134	C	1.655479	-0.189295	0.539682
C135	C	1.988812	0.144039	0.873016
C136	C	1.384393	-0.460431	1.065030
C137	C	1.717726	-0.127098	1.398364
C138	C	2.051060	0.206236	1.731697
C139	C	1.379273	-0.465539	1.159245
C140	C	1.712606	-0.132206	1.492578
C141	C	2.045940	0.201128	1.825911
C142	C	1.270131	-0.574611	1.159232
C143	C	1.603465	-0.241278	1.492565
C144	C	1.936798	0.092056	1.825899
C145	C	1.275251	-0.569503	1.065018
C146	C	1.608585	-0.236170	1.398351
C147	C	1.941918	0.097164	1.731684
C148	C	1.332385	-0.512412	1.017920
C149	C	1.665718	-0.179079	1.351254
C150	C	1.999052	0.154254	1.684587
C151	C	1.337509	-0.507310	0.923705
C152	C	1.670842	-0.173977	1.257038
C153	C	2.004176	0.159357	1.590371
C154	C	1.228363	-0.616377	0.923693
C155	C	1.561696	-0.283043	1.257026
C156	C	1.895030	0.050290	1.590360
C157	C	1.223243	-0.621484	1.017907
C158	C	1.556577	-0.288151	1.351241
C159	C	1.889910	0.045182	1.684574
H160	H	0.960353	-0.631229	0.630926
H161	H	1.293686	-0.297896	0.964260
H162	H	1.627020	0.035438	1.297593
H163	H	0.819054	-0.683873	0.683446
H164	H	1.152387	-0.350539	1.016779
H165	H	1.485720	-0.017206	1.350113
H166	H	1.383980	-1.206467	0.631150
H167	H	1.717313	-0.873134	0.964483
H168	H	2.050646	-0.539801	1.297817
H169	H	1.421338	-0.898758	0.673210
H170	H	1.754671	-0.565425	1.006543
H171	H	2.088004	-0.232092	1.339877
Cl172	Cl	0.768457	-0.369967	0.370316
Cl173	Cl	1.101790	-0.036634	0.703650
Cl174	Cl	1.435124	0.296700	1.036983
H175	H	1.186210	-1.182520	0.408827
H176	H	1.519543	-0.849187	0.742160
H177	H	1.852877	-0.515854	1.075494
H178	H	1.430715	-1.070812	0.683732
H179	H	1.764049	-0.737478	1.017065
H180	H	2.097382	-0.404145	1.350398
H181	H	1.223569	-0.874787	0.450892
H182	H	1.556902	-0.541454	0.784226
H183	H	1.890236	-0.208120	1.117559
Cl184	Cl	1.151538	-0.986520	0.369897
Cl185	Cl	1.484872	-0.653186	0.703231
Cl186	Cl	1.818205	-0.319853	1.036564
Cl187	Cl	1.409335	-0.435542	0.864498
Cl188	Cl	1.742669	-0.102209	1.197831
Cl189	Cl	2.076002	0.231125	1.531164
H190	H	1.186017	-0.658706	0.885326
H191	H	1.519350	-0.325373	1.218660
H192	H	1.852683	0.007961	1.551993
Cl193	Cl	1.456226	-0.388673	1.005820
Cl194	Cl	1.789559	-0.055340	1.339154
Cl195	Cl	2.122893	0.277994	1.672487
H196	H	1.421621	-0.423208	1.197598
H197	H	1.754954	-0.089875	1.530931
H198	H	2.088288	0.243459	1.864265
H199	H	0.648131	-0.673416	0.673029
H200	H	0.981465	-0.340082	1.006362
H201	H	1.314798	-0.006749	1.339695
H202	H	1.176725	-0.667964	1.056267
H203	H	1.510058	-0.334631	1.389600
H204	H	1.843392	-0.001297	1.722933
Cl205	Cl	0.627150	-0.422605	0.422847
Cl206	Cl	0.960483	-0.089272	0.756181
Cl207	Cl	1.293816	0.244062	1.089514
Cl208	Cl	0.981127	-0.382977	0.383270
Cl209	Cl	1.314460	-0.049644	0.716604
Cl210	Cl	1.647794	0.283690	1.049937
H211	H	1.223616	-0.621091	1.197595
H212	H	1.556949	-0.287758	1.530928
H213	H	1.890282	0.045576	1.864262
