data_functionalizedCrystal
_audit_creation_method	'MofGen! by Chris Wilmer'
_symmetry_space_group_name_H-M	'P1'
_symmetry_Int_Tables_number	1
_symmetry_cell_setting	triclinic
loop_
_symmetry_equiv_pos_as_xyz
  x,y,z
_cell_length_a	15.995350
_cell_length_b	15.995350
_cell_length_c	15.072220
_cell_angle_alpha	90.005257
_cell_angle_beta	89.999692
_cell_angle_gamma	96.507625
loop_
_atom_site_label
_atom_site_type_symbol
_atom_site_fract_x
_atom_site_fract_y
_atom_site_fract_z
O1	O	-1.110984	0.107932	0.073699
O2	O	-0.610984	0.607932	0.573699
O3	O	-0.867209	0.121260	0.073716
O4	O	-0.367209	0.621260	0.573716
O5	O	-0.995760	-0.007292	0.073711
O6	O	-0.495760	0.492708	0.573711
O7	O	-0.982433	0.236484	0.073705
O8	O	-0.482433	0.736484	0.573705
O9	O	-0.995752	-0.007307	-0.073854
O10	O	-0.495752	0.492693	0.426146
O11	O	-0.867200	0.121244	-0.073849
O12	O	-0.367200	0.621244	0.426151
O13	O	-1.110976	0.107917	-0.073866
O14	O	-0.610976	0.607917	0.426134
Zn15	Zn	-0.989087	0.114578	-0.097287
Zn16	Zn	-0.489087	0.614578	0.402713
Zn17	Zn	-0.989098	0.114599	0.097137
Zn18	Zn	-0.489098	0.614599	0.597137
O19	O	-0.982424	0.236468	-0.073860
O20	O	-0.482424	0.736468	0.426140
C21	C	-0.995205	-0.038494	-0.000069
C22	C	-0.495205	0.461506	0.499931
C23	C	-0.993553	-0.131444	-0.000061
C24	C	-0.493553	0.368556	0.499939
C25	C	-0.836010	0.120701	-0.000064
C26	C	-0.336010	0.620701	0.499936
C27	C	-0.743060	0.119049	-0.000057
C28	C	-0.243060	0.619049	0.499943
N29	N	-0.989085	0.114564	-0.229975
N30	N	-0.489085	0.614564	0.270025
C31	C	-1.142175	0.108476	-0.000084
C32	C	-0.642175	0.608476	0.499916
C33	C	-1.235125	0.110127	-0.000085
C34	C	-0.735125	0.610127	0.499915
C35	C	-0.405312	0.113117	-0.000075
C36	C	0.094688	0.613117	0.499925
C37	C	-0.452746	0.021565	-0.000402
C38	C	0.047254	0.521565	0.499598
C39	C	-0.549436	0.023217	-0.000063
C40	C	-0.049436	0.523217	0.499937
C41	C	-0.572873	0.116060	-0.000067
C42	C	-0.072873	0.616060	0.499933
C43	C	-0.531790	0.161225	0.084196
C44	C	-0.031790	0.661225	0.584196
C45	C	-0.435155	0.158925	0.084260
C46	C	0.064845	0.658925	0.584260
C47	C	-0.434806	0.160799	-0.083549
C48	C	0.065194	0.660799	0.416451
C49	C	-0.531751	0.160777	-0.084657
C50	C	-0.031751	0.660777	0.415343
C51	C	-0.667570	0.117727	-0.000059
C52	C	-0.167570	0.617727	0.499941
C53	C	-0.310614	0.111452	-0.000077
C54	C	0.189386	0.611452	0.499923
C55	C	-0.982980	0.267671	-0.000079
C56	C	-0.482980	0.767671	0.499921
C57	C	-0.984631	0.360621	-0.000081
C58	C	-0.484631	0.860621	0.499919
C59	C	-0.990564	0.698369	-0.000068
C60	C	-0.490564	1.198369	0.499932
C61	C	-1.082116	0.650935	0.000255
C62	C	-0.582116	1.150935	0.500255
C63	C	-1.080463	0.554244	-0.000082
C64	C	-0.580463	1.054244	0.499918
C65	C	-0.987621	0.530808	-0.000074
C66	C	-0.487621	1.030808	0.499926
C67	C	-0.942460	0.571882	-0.084334
C68	C	-0.442460	1.071882	0.415666
C69	C	-0.944760	0.668518	-0.084400
C70	C	-0.444760	1.168518	0.415600
C71	C	-0.942878	0.668883	0.083409
C72	C	-0.442878	1.168883	0.583409
C73	C	-0.942900	0.571938	0.084518
C74	C	-0.442900	1.071938	0.584518
C75	C	-0.985953	0.436111	-0.000080
C76	C	-0.485953	0.936111	0.499920
C77	C	-0.992229	0.793066	-0.000067
C78	C	-0.492229	1.293066	0.499933
C79	C	-0.989099	0.114592	-0.589177
C80	C	-0.489099	0.614592	-0.089177
C81	C	-1.058107	0.046036	-0.551545
C82	C	-0.558107	0.546036	-0.051545
C83	C	-1.057927	0.045783	-0.448720
C84	C	-0.557927	0.545783	0.051280
C85	C	-0.989093	0.114578	-0.410973
C86	C	-0.489093	0.614578	0.089027
C87	C	-0.901736	0.095497	-0.448309
C88	C	-0.401736	0.595497	0.051691
C89	C	-0.902144	0.095013	-0.551167
C90	C	-0.402144	0.595013	-0.051167
C91	C	-1.006660	0.202431	-0.551257
C92	C	-0.506660	0.702431	-0.051257
C93	C	-1.008643	0.201842	-0.448393
C94	C	-0.508643	0.701842	0.051607
C95	C	-0.989084	0.114572	-0.310259
C96	C	-0.489084	0.614572	0.189741
C97	C	-0.989102	0.114597	-0.689890
C98	C	-0.489102	0.614597	-0.189890
N99	N	-0.989106	0.114606	0.229826
N100	N	-0.489106	0.614606	0.729826
H101	H	-0.577862	-0.012284	-0.060466
H102	H	-0.077862	0.487716	0.439534
H103	H	-0.877544	0.700766	-0.088225
H104	H	-0.377544	1.200766	0.411775
H105	H	-0.874251	0.557756	-0.087462
H106	H	-0.374251	1.057756	0.412538
H107	H	-0.849147	0.144100	-0.423859
H108	H	-0.349147	0.644100	0.076141
N109	N	-1.084869	0.225447	-0.583771
N110	N	-0.584869	0.725447	-0.083771
N111	N	-1.109469	0.293618	-0.560653
N112	N	-0.609469	0.793618	-0.060653
H113	H	-1.164708	0.309866	-0.583615
H114	H	-0.664708	0.809866	-0.083615
H115	H	-0.402906	0.226141	0.088082
H116	H	0.097094	0.726141	0.588082
N117	N	-0.429554	-0.024319	-0.076253
N118	N	0.070446	0.475681	0.423747
N119	N	-0.377789	0.009914	-0.130954
N120	N	0.122211	0.509914	0.369046
H121	H	-0.361424	-0.022482	-0.184542
H122	H	0.138576	0.477518	0.315458
H123	H	-0.973827	0.543506	-0.147048
H124	H	-0.473827	1.043506	0.352952
H125	H	-0.849251	0.143047	-0.576061
H126	H	-0.349251	0.643047	-0.076061
N127	N	-0.428156	-0.024123	0.074982
N128	N	0.071844	0.475877	0.574982
N129	N	-0.375849	0.010449	0.128946
N130	N	0.124151	0.510449	0.628946
H131	H	-0.358480	-0.021815	0.182188
H132	H	0.141520	0.478185	0.682188
H133	H	-0.972811	0.689429	0.147276
H134	H	-0.472811	1.189429	0.647276
H135	H	-0.560168	0.129868	0.146908
H136	H	-0.060168	0.629868	0.646908
H137	H	-0.885877	0.032167	-0.422554
H138	H	-0.385877	0.532167	0.077446
N139	N	-0.584382	-0.021605	0.075848
N140	N	-0.084382	0.478395	0.575848
N141	N	-0.537351	-0.054200	0.128747
N142	N	-0.037351	0.445800	0.628747
H143	H	-0.562030	-0.085857	0.182365
H144	H	-0.062030	0.414143	0.682365
N145	N	-1.127800	0.675513	-0.075139
N146	N	-0.627800	1.175513	0.424861
N147	N	-1.101736	0.663163	-0.151683
N148	N	-0.601736	1.163163	0.348317
H149	H	-1.133997	0.680525	-0.204933
H150	H	-0.633997	1.180525	0.295067
H151	H	-0.545915	0.229434	0.087327
H152	H	-0.045915	0.729434	0.587327
H153	H	-1.072906	0.216320	-0.423991
H154	H	-0.572906	0.716320	0.076009
H155	H	-0.414267	0.130862	-0.147418
H156	H	0.085733	0.630862	0.352582
N157	N	-0.984120	0.537510	0.162717
N158	N	-0.484120	1.037510	0.662717
N159	N	-1.046209	0.482890	0.156242
N160	N	-0.546209	0.982890	0.656242
H161	H	-1.075265	0.458501	0.211471
H162	H	-0.575265	0.958501	0.711471
N163	N	-0.986059	0.691495	-0.163418
N164	N	-0.486059	1.191495	0.336582
N165	N	-0.947827	0.741279	-0.217507
N166	N	-0.447827	1.241279	0.282493
H167	H	-0.976997	0.757505	-0.273315
H168	H	-0.476997	1.257505	0.226685
H169	H	-0.416850	0.126002	0.147250
H170	H	0.083150	0.626002	0.647250
N171	N	-0.566005	0.119399	-0.162853
N172	N	-0.066005	0.619399	0.337147
N173	N	-0.620501	0.057207	-0.156377
N174	N	-0.120501	0.557207	0.343623
H175	H	-0.644698	0.027981	-0.211601
H176	H	-0.144698	0.527981	0.288399
H177	H	-0.875197	0.556571	0.089615
H178	H	-0.375197	1.056571	0.589615
H179	H	-0.403045	0.228300	-0.084121
H180	H	0.096955	0.728300	0.415879
H181	H	-0.547116	0.228480	-0.089749
H182	H	-0.047116	0.728480	0.410251
N183	N	-0.858195	0.708714	0.084147
N184	N	-0.358195	1.208714	0.584147
N185	N	-0.798144	0.665092	0.082039
N186	N	-0.298144	1.165092	0.582039
H187	H	-0.738339	0.693225	0.082555
H188	H	-0.238339	1.193225	0.582555
N189	N	-1.139851	0.060034	-0.582573
N190	N	-0.639851	0.560034	-0.082573
N191	N	-1.202933	0.011594	-0.559480
N192	N	-0.702933	0.511594	-0.059480
H193	H	-1.260668	0.021478	-0.581400
H194	H	-0.760668	0.521478	-0.081400
H195	H	-1.115968	0.525824	0.060316
H196	H	-0.615968	1.025824	0.560316
N197	N	-1.128018	0.674187	0.076065
N198	N	-0.628018	1.174187	0.576065
N199	N	-1.093799	0.725993	0.130740
N200	N	-0.593799	1.225993	0.630740
H201	H	-1.126217	0.742420	0.184285
H202	H	-0.626217	1.242420	0.684285
N203	N	-1.125293	0.519290	-0.075993
N204	N	-0.625293	1.019290	0.424007
N205	N	-1.157893	0.566316	-0.128893
N206	N	-0.657893	1.066316	0.371107
H207	H	-1.189556	0.541631	-0.182509
H208	H	-0.689556	1.041631	0.317491
H209	H	-1.122863	0.057145	-0.423476
H210	H	-0.622863	0.557145	0.076524
N211	N	-1.044225	-0.035273	-0.583976
N212	N	-0.544225	0.464727	-0.083976
N213	N	-0.983730	-0.042949	-0.634683
N214	N	-0.483730	0.457051	-0.134683
H215	H	-0.973920	-0.100374	-0.657586
H216	H	-0.473920	0.399626	-0.157586
N217	N	-1.043934	-0.036018	-0.417865
N218	N	-0.543934	0.463982	0.082135
N219	N	-1.034262	-0.093096	-0.472297
N220	N	-0.534262	0.406904	0.027703
H221	H	-1.024409	-0.150881	-0.450508
H222	H	-0.524409	0.349119	0.049492
H223	H	-0.886666	0.030953	-0.575164
H224	H	-0.386666	0.530953	-0.075164
N225	N	-0.949673	0.268834	-0.416152
N226	N	-0.449673	0.768834	0.083848
N227	N	-0.892016	0.253283	-0.364845
N228	N	-0.392016	0.753283	0.135155
H229	H	-0.850362	0.300595	-0.342073
H230	H	-0.350362	0.800595	0.157927
N231	N	-0.943521	0.266423	-0.581786
N232	N	-0.443521	0.766423	-0.081786
N233	N	-0.885810	0.247537	-0.631253
N234	N	-0.385810	0.747537	-0.131253
H235	H	-0.841214	0.292725	-0.652816
H236	H	-0.341214	0.792725	-0.152816
