data_functionalizedCrystal
_audit_creation_method	'MofGen! by Chris Wilmer'
_symmetry_space_group_name_H-M	'P1'
_symmetry_Int_Tables_number	1
_symmetry_cell_setting	triclinic
loop_
_symmetry_equiv_pos_as_xyz
  x,y,z
_cell_length_a	19.077105
_cell_length_b	19.077068
_cell_length_c	18.215407
_cell_angle_alpha	87.719460
_cell_angle_beta	92.301445
_cell_angle_gamma	90.115316
loop_
_atom_site_label
_atom_site_type_symbol
_atom_site_fract_x
_atom_site_fract_y
_atom_site_fract_z
Zn1	Zn	1.062871	-0.323082	0.474259
Zn2	Zn	1.058088	-0.440566	0.355920
Zn3	Zn	0.945396	-0.318349	0.346080
Zn4	Zn	0.940606	-0.435824	0.473817
O5	O	1.001740	-0.379455	0.412519
O6	O	1.160567	-0.342632	0.462865
O7	O	1.043141	-0.424357	0.251631
O8	O	0.964985	-0.220646	0.359150
O9	O	1.157053	-0.428946	0.375922
O10	O	1.051294	-0.224123	0.453323
O11	O	0.960347	-0.334565	0.244401
O12	O	0.846430	-0.329967	0.358721
O13	O	0.956823	-0.420864	0.576860
O14	O	0.842911	-0.416275	0.452569
O15	O	1.046650	-0.338034	0.577185
O16	O	1.038497	-0.538267	0.375493
O17	O	0.952184	-0.534783	0.462111
C18	C	0.819175	-0.372093	0.404530
C19	C	0.741072	-0.368961	0.401130
C20	C	0.702562	-0.412493	0.448323
C21	C	0.629177	-0.409540	0.445132
C22	C	0.594301	-0.363059	0.394743
C23	C	0.632816	-0.319522	0.347548
C24	C	0.706200	-0.322472	0.350743
C25	C	0.375020	-0.349408	0.379958
C26	C	0.301630	-0.346464	0.376765
C27	C	0.297996	-0.436481	0.474350
C28	C	0.371382	-0.439430	0.477538
C29	C	0.409890	-0.395890	0.430346
N30	N	0.519289	-0.360041	0.391479
N31	N	0.484901	-0.398905	0.433614
C32	C	0.994321	-0.562022	0.419839
C33	C	0.991211	-0.640128	0.422998
C34	C	1.034724	-0.678614	0.379425
C35	C	1.031803	-0.752002	0.382400
C36	C	0.985366	-0.786903	0.428945
C37	C	0.941852	-0.748412	0.472523
C38	C	0.944777	-0.675025	0.469551
C39	C	0.971800	-1.006195	0.442670
C40	C	0.968877	-1.079587	0.445637
C41	C	1.058830	-1.083172	0.355514
C42	C	1.061747	-1.009784	0.352543
C43	C	1.018236	-0.971299	0.396124
N44	N	0.982378	-0.861918	0.431986
N45	N	1.021228	-0.896286	0.393086
C46	C	1.185019	-0.386846	0.420540
C47	C	1.263121	-0.389996	0.423958
C48	C	1.001736	-0.379448	0.604472
C49	C	1.001734	-0.379445	0.686270
C50	C	1.009207	-0.196176	0.405188
C51	C	1.012390	-0.118073	0.402064
C52	C	0.958623	-0.332708	0.870701
C53	C	0.958620	-0.332714	0.947560
C54	C	1.044838	-0.426214	0.955078
C55	C	1.044837	-0.426211	0.878221
C56	C	1.001731	-0.379455	0.836034
C57	C	1.001729	-0.379463	0.989750
C58	C	1.001725	-0.379469	1.073084
C59	C	1.001733	-0.379449	0.752695
C60	C	1.001735	-0.379476	1.221314
C61	C	1.001725	-0.379472	1.139514
H62	H	0.730952	-0.450346	0.489353
H63	H	0.923516	-0.294649	0.975782
N64	N	0.912126	-0.282290	0.825195
H65	H	0.942006	-0.250875	0.793256
H66	H	0.884822	-0.252724	0.858867
H67	H	0.931071	-1.108001	0.483553
H68	H	0.406365	-0.313961	0.341525
H69	H	1.079934	-0.464281	0.989435
N70	N	0.587640	-0.456503	0.496023
H71	H	0.620869	-0.486402	0.528422
H72	H	0.555874	-0.487747	0.465974
H73	H	1.079942	-0.464281	0.849994
H74	H	0.904045	-0.776834	0.510425
H75	H	0.399772	-0.477282	0.518568
H76	H	0.266635	-0.471928	0.512773
H77	H	0.604415	-0.281673	0.306524
N78	N	0.747736	-0.275524	0.299836
H79	H	0.799517	-0.284443	0.309507
H80	H	0.736947	-0.224840	0.308807
H81	H	0.273237	-0.308605	0.335737
N82	N	0.897848	-0.633511	0.516550
H83	H	0.867985	-0.666755	0.546486
H84	H	0.866565	-0.601793	0.483914
H85	H	1.072535	-0.650202	0.341519
H86	H	1.099560	-0.981369	0.314642
N87	N	1.078734	-0.793513	0.335404
H88	H	1.108592	-0.760268	0.305463
H89	H	1.048942	-0.822852	0.301309
H90	H	0.936370	-0.974866	0.478153
H91	H	1.094256	-1.114515	0.320035
