data_functionalizedCrystal
_audit_creation_method	'MofGen! by Chris Wilmer'
_symmetry_space_group_name_H-M	'P1'
_symmetry_Int_Tables_number	1
_symmetry_cell_setting	triclinic
loop_
_symmetry_equiv_pos_as_xyz
  x,y,z
_cell_length_a	10.686220
_cell_length_b	14.908520
_cell_length_c	10.686551
_cell_angle_alpha	90.862058
_cell_angle_beta	89.691918
_cell_angle_gamma	97.432447
loop_
_atom_site_label
_atom_site_type_symbol
_atom_site_fract_x
_atom_site_fract_y
_atom_site_fract_z
Zn1	Zn	1.955964	-0.219797	0.581353
Zn2	Zn	1.927616	-0.382976	0.385676
Zn3	Zn	1.728370	-0.242859	0.389661
Zn4	Zn	1.734182	-0.381149	0.611296
O5	O	1.836533	-0.306695	0.491996
O6	O	2.128406	-0.232556	0.541197
O7	O	1.886890	-0.374806	0.211558
O8	O	1.767992	-0.113634	0.404226
O9	O	2.107578	-0.352443	0.397434
O10	O	1.935205	-0.096690	0.545061
O11	O	1.740504	-0.271863	0.214485
O12	O	1.552939	-0.270091	0.433260
O13	O	1.777898	-0.349329	0.781970
O14	O	1.557209	-0.371692	0.596094
O15	O	1.940840	-0.230784	0.759972
O16	O	1.892525	-0.508900	0.426468
O17	O	1.750410	-0.507558	0.592230
C18	C	1.509387	-0.323196	0.518359
C19	C	1.369433	-0.330276	0.529669
C20	C	1.819059	-0.540939	0.512190
C21	C	1.811702	-0.641141	0.520862
C22	C	1.946038	-0.830752	0.364664
C23	C	1.939129	-0.924900	0.372807
C24	C	1.790984	-0.923588	0.545297
C25	C	1.797892	-0.829439	0.537153
C26	C	1.875420	-0.783025	0.446833
C27	C	1.882321	-0.688875	0.438684
C28	C	1.734183	-0.687563	0.611179
C29	C	1.727275	-0.781712	0.619322
C30	C	2.164957	-0.290130	0.465531
C31	C	2.304911	-0.283071	0.454253
C32	C	1.863180	-0.287280	0.817521
C33	C	1.874535	-0.279006	0.956240
C34	C	1.854112	-0.071534	0.471748
C35	C	1.861603	0.028678	0.463119
C36	C	1.810067	-0.325966	0.167726
C37	C	1.798975	-0.333974	0.028966
H38	H	1.945445	-0.651085	0.365138
O39	O	1.307643	-0.385090	0.616901
C40	C	1.330781	-0.474949	0.594632
H41	H	1.358499	-0.483529	0.492410
H42	H	1.410755	-0.490783	0.657438
C43	C	1.176539	-0.529586	0.749103
C44	C	1.210572	-0.540127	0.623549
H45	H	1.102391	-0.569792	0.766946
H46	H	1.160953	-0.469047	0.764111
H47	H	1.243193	-0.542780	0.801427
H48	H	1.143925	-0.526922	0.571229
H49	H	1.226144	-0.600666	0.608534
O50	O	1.366859	-0.228515	0.366841
C51	C	1.432470	-0.280770	0.284442
H52	H	1.450555	-0.345548	0.332634
H53	H	1.373541	-0.298620	0.196819
C54	C	1.537105	-0.146671	0.188509
C55	C	1.559326	-0.226229	0.247703
H56	H	1.615353	-0.113027	0.165841
H57	H	1.492898	-0.111465	0.244018
H58	H	1.487994	-0.161558	0.115496
H59	H	1.608422	-0.211341	0.320722
H60	H	1.603544	-0.261431	0.192204
O61	O	2.021421	-0.785549	0.277086
C62	C	2.112534	-0.722690	0.336937
H63	H	2.076826	-0.705195	0.433849
H64	H	2.204306	-0.753378	0.346335
C65	C	2.180186	-0.657689	0.139681
C66	C	2.136323	-0.636196	0.258706
H67	H	2.194866	-0.604337	0.091423
H68	H	2.118805	-0.700040	0.099357
H69	H	2.256658	-0.683264	0.147530
H70	H	2.059845	-0.610633	0.250856
H71	H	2.197693	-0.593838	0.299027
O72	O	2.007764	-0.971129	0.292853
C73	C	2.077696	-0.909966	0.211415
H74	H	2.030690	-0.845751	0.205404
H75	H	2.177773	-0.892324	0.248626
C76	C	2.140126	-1.032600	0.087693
C77	C	2.082387	-0.953733	0.080302
H78	H	2.143026	-1.059598	0.006817
H79	H	2.093016	-1.073807	0.142561
H80	H	2.223519	-1.017887	0.118707
H81	H	1.998991	-0.968448	0.049303
H82	H	2.129483	-0.912529	0.025425
O83	O	1.715701	-0.968828	0.632919
C84	C	1.724782	-1.062156	0.622505
H85	H	1.757284	-1.078665	0.524008
H86	H	1.795881	-1.081007	0.693498
C87	C	1.554830	-1.096062	0.769260
C88	C	1.594740	-1.116339	0.648280
H89	H	1.474617	-1.129486	0.785165
H90	H	1.548715	-1.033185	0.776280
H91	H	1.614091	-1.111772	0.828407
H92	H	1.535488	-1.100619	0.589136
H93	H	1.600842	-1.179216	0.641251
O94	O	1.652139	-0.826891	0.707108
C95	C	1.726369	-0.872837	0.786735
H96	H	1.817207	-0.884690	0.736330
H97	H	1.750351	-0.830309	0.874987
C98	C	1.540781	-0.949905	0.884499
C99	C	1.652346	-0.964470	0.822587
H100	H	1.495120	-1.006427	0.906620
H101	H	1.490770	-0.918948	0.830856
H102	H	1.560782	-0.914463	0.958035
H103	H	1.632343	-0.999902	0.749045
H104	H	1.702352	-0.995436	0.876219
O105	O	1.711595	-0.397712	0.976499
C106	C	1.772838	-0.456784	0.900351
H107	H	1.869069	-0.421315	0.870526
H108	H	1.785734	-0.519944	0.955155
C109	C	1.574130	-0.527469	0.820059
C110	C	1.692318	-0.483902	0.783419
H111	H	1.524461	-0.544200	0.747932
H112	H	1.532869	-0.487674	0.871365
H113	H	1.584894	-0.580097	0.865731
H114	H	1.681554	-0.431269	0.737762
H115	H	1.733576	-0.523689	0.732102
H116	H	1.676678	-0.648694	0.678083
H117	H	1.947922	-0.225617	1.000107
