data_functionalizedCrystal
_audit_creation_method	'MofGen! by Chris Wilmer'
_symmetry_space_group_name_H-M	'P1'
_symmetry_Int_Tables_number	1
_symmetry_cell_setting	triclinic
loop_
_symmetry_equiv_pos_as_xyz
  x,y,z
_cell_length_a	16.956995
_cell_length_b	19.288865
_cell_length_c	17.766277
_cell_angle_alpha	90.011603
_cell_angle_beta	89.993085
_cell_angle_gamma	100.404640
loop_
_atom_site_label
_atom_site_type_symbol
_atom_site_fract_x
_atom_site_fract_y
_atom_site_fract_z
O1	O	1.057939	-0.028794	-0.062548
O2	O	0.825694	-0.053183	-0.062563
O3	O	0.948527	0.060509	-0.062540
O4	O	0.935106	-0.142486	-0.062571
O5	O	0.948506	0.060513	0.062648
O6	O	0.825673	-0.053179	0.062626
O7	O	1.057917	-0.028790	0.062640
Cu8	Cu	0.941793	-0.040984	0.074064
Cu9	Cu	0.941819	-0.040989	-0.073986
O10	O	0.935084	-0.142482	0.062618
C11	C	0.795971	-0.054430	0.000030
C12	C	0.707437	-0.058143	0.000025
C13	C	0.948085	0.086364	0.000056
C14	C	0.946788	0.163396	0.000063
C15	C	1.087641	-0.027543	0.000046
C16	C	1.176175	-0.023830	0.000046
C17	C	1.675575	0.003944	0.000034
C18	C	1.592387	0.000450	0.000032
C19	C	1.541063	-0.065131	0.000027
C20	C	1.572931	-0.127222	0.000016
C21	C	1.656117	-0.123727	0.000012
C22	C	1.291228	-0.082427	0.000032
C23	C	1.208037	-0.085917	0.000037
C24	C	1.227499	0.041756	0.000052
C25	C	1.310686	0.045244	0.000053
C26	C	1.342547	-0.016847	0.000038
N27	N	1.456032	-0.068704	0.000027
N28	N	1.427577	-0.013273	0.000032
C29	C	0.935527	-0.168337	0.000020
C30	C	0.936823	-0.245369	0.000008
N31	N	0.941781	-0.040980	0.178194
C32	C	1.018861	0.212034	0.000071
C33	C	1.017643	0.284415	0.000059
C34	C	0.944348	0.308154	0.000054
C35	C	0.872266	0.259506	0.000042
C36	C	0.873486	0.187127	0.000046
C37	C	0.886723	0.413292	0.043901
C38	C	0.885506	0.485670	0.043901
C39	C	0.940583	0.531393	0.000037
C40	C	0.996890	0.504733	-0.043818
C41	C	0.998110	0.432354	-0.043814
C42	C	0.943017	0.386635	0.000049
C43	C	1.011340	0.658515	0.000031
C44	C	1.010119	0.730897	0.000014
C45	C	0.864740	0.705986	0.000004
C46	C	0.865963	0.633606	0.000014
C47	C	0.939265	0.609876	0.000030
N48	N	0.941837	-0.040987	-0.178116
C49	C	0.996189	0.009341	0.217591
C50	C	0.996194	0.009344	0.296393
C51	C	0.941798	-0.040984	0.335795
C52	C	0.887380	-0.091309	0.296388
C53	C	0.887371	-0.091307	0.217588
C54	C	0.931121	-0.104856	0.460623
C55	C	0.931135	-0.104859	0.539422
C56	C	0.941819	-0.040991	0.578841
C57	C	0.952507	0.022882	0.539452
C58	C	0.952498	0.022885	0.460652
C59	C	0.941801	-0.040992	0.421240
C60	C	0.996235	0.009337	0.703684
C61	C	0.996234	0.009341	0.782487
C62	C	0.887424	-0.091318	0.782481
C63	C	0.887421	-0.091316	0.703679
C64	C	0.941831	-0.040989	0.664285
H65	H	1.717358	0.057347	0.000041
H66	H	1.682057	-0.174285	0.000008
N67	N	1.056303	0.554040	-0.091129
H68	H	1.049104	0.540158	-0.145856
H69	H	1.112598	0.551040	-0.074680
N70	N	0.828749	-0.145599	0.824968
H71	H	0.772177	-0.140811	0.811266
H72	H	0.837078	-0.137932	0.880853
H73	H	0.961198	0.074893	0.428584
H74	H	0.961207	0.074889	0.571546
N75	N	0.795746	0.134664	0.000055
H76	H	0.807641	0.085211	0.000064
H77	H	0.763794	0.141861	-0.046356
H78	H	1.071027	0.639193	0.000041
N79	N	1.087858	0.783360	0.000020
H80	H	1.134477	0.757341	0.000034
H81	H	1.090504	0.813943	0.046427
H82	H	0.843120	-0.132295	0.671600
N83	N	1.558020	0.067414	0.000043
H84	H	1.603156	0.109489	0.000051
H85	H	1.523925	0.068745	0.046453
N86	N	1.366041	0.115978	0.000069
H87	H	1.333233	0.154780	0.000076
H88	H	1.400987	0.120209	-0.046338
H89	H	1.040537	0.050322	0.814565
H90	H	1.078550	0.192718	0.000082
N91	N	1.054914	0.063616	0.661188
H92	H	1.089379	0.095500	0.698106
H93	H	1.024492	0.092592	0.628504
N94	N	0.793209	0.285101	0.000045
H95	H	0.761651	0.267053	-0.046365
H96	H	0.803435	0.338333	0.000075
N97	N	0.828710	-0.145596	0.338878
H98	H	0.772136	-0.140811	0.325180
H99	H	0.837042	-0.137935	0.394763
H100	H	1.040501	0.050323	0.328476
H101	H	0.805061	0.725314	-0.000003
N102	N	0.919603	-0.173747	0.581902
H103	H	0.912820	-0.214207	0.544975
H104	H	0.870241	-0.178000	0.614604
N105	N	0.828683	-0.145581	0.175090
H106	H	0.794220	-0.177463	0.212005
H107	H	0.859098	-0.174559	0.142381
N108	N	1.058831	0.403595	-0.091115
H109	H	1.093584	0.379442	-0.057514
H110	H	1.093485	0.443574	-0.118899
H111	H	1.201549	0.092307	0.000056
N112	N	0.919603	-0.173747	0.418112
H113	H	0.921218	-0.164055	0.362216
H114	H	0.866040	-0.203122	0.431889
H115	H	1.166250	-0.139323	0.000037
N116	N	1.325587	-0.149393	0.000007
H117	H	1.280449	-0.191466	0.000004
H118	H	1.359680	-0.150728	0.046409
H119	H	1.076336	0.324023	0.000063
N120	N	1.517579	-0.197957	0.000004
H121	H	1.460045	-0.190751	0.000009
H122	H	1.527870	-0.225218	0.046408
N123	N	0.788226	0.581142	0.000009
H124	H	0.741608	0.607161	0.000004
H125	H	0.785558	0.550579	0.046420
H126	H	0.839653	0.507370	0.079606
N127	N	0.827310	0.363977	0.091210
H128	H	0.791460	0.391848	0.118995
H129	H	0.857158	0.338982	0.128677
H130	H	1.040491	0.050322	0.185519
