data_functionalizedCrystal
_audit_creation_method	'MofGen! by Chris Wilmer'
_symmetry_space_group_name_H-M	'P1'
_symmetry_Int_Tables_number	1
_symmetry_cell_setting	triclinic
loop_
_symmetry_equiv_pos_as_xyz
  x,y,z
_cell_length_a	16.109301
_cell_length_b	16.109295
_cell_length_c	15.186229
_cell_angle_alpha	90.000428
_cell_angle_beta	89.994833
_cell_angle_gamma	96.539666
loop_
_atom_site_label
_atom_site_type_symbol
_atom_site_fract_x
_atom_site_fract_y
_atom_site_fract_z
O1	O	0.106844	-1.103134	-0.073171
O2	O	0.606844	-0.603134	0.426829
O3	O	0.120148	-0.861071	-0.073187
O4	O	0.620148	-0.361071	0.426813
O5	O	-0.007535	-0.988752	-0.073170
O6	O	0.492465	-0.488752	0.426830
O7	O	0.234527	-0.975453	-0.073188
O8	O	0.734527	-0.475453	0.426812
O9	O	-0.007537	-0.988743	0.073288
O10	O	0.492463	-0.488743	0.573288
O11	O	0.120146	-0.861062	0.073271
O12	O	0.620146	-0.361062	0.573271
O13	O	0.106842	-1.103125	0.073286
O14	O	0.606842	-0.603125	0.573286
Zn15	Zn	0.113494	-0.982092	0.096531
Zn16	Zn	0.613494	-0.482092	0.596531
Zn17	Zn	0.113496	-0.982104	-0.096432
Zn18	Zn	0.613496	-0.482104	0.403568
O19	O	0.234525	-0.975444	0.073269
O20	O	0.734525	-0.475444	0.573269
C21	C	0.119609	-0.830092	0.000040
C22	C	0.619609	-0.330092	0.500040
C23	C	0.117996	-0.737796	0.000035
C24	C	0.617996	-0.237796	0.500035
C25	C	0.190008	-0.515523	0.000038
C26	C	0.690008	-0.015523	0.500038
C27	C	0.188486	-0.428803	0.000044
C28	C	0.688486	0.071197	0.500044
C29	C	0.036996	-0.448677	0.000052
C30	C	0.536996	0.051323	0.500052
C31	C	0.038520	-0.535396	0.000053
C32	C	0.538520	-0.035396	0.500053
C33	C	0.115028	-0.568816	0.000041
C34	C	0.615028	-0.068816	0.500041
C35	C	0.111982	-0.395377	0.000046
C36	C	0.611982	0.104623	0.500046
C37	C	0.110331	-0.301351	0.000052
C38	C	0.610331	0.198649	0.500052
C39	C	0.116679	-0.662849	0.000037
C40	C	0.616679	-0.162849	0.500037
C41	C	-0.038511	-0.988209	0.000059
C42	C	0.461489	-0.488209	0.500059
C43	C	-0.130806	-0.986594	0.000061
C44	C	0.369194	-0.486594	0.500061
C45	C	-0.353080	-1.058602	0.000051
C46	C	0.146920	-0.558602	0.500051
C47	C	-0.439800	-1.057078	0.000044
C48	C	0.060200	-0.557078	0.500044
C49	C	-0.419923	-0.905588	0.000038
C50	C	0.080077	-0.405588	0.500038
C51	C	-0.333204	-0.907113	0.000039
C52	C	0.166796	-0.407113	0.500039
C53	C	-0.299785	-0.983622	0.000050
C54	C	0.200215	-0.483622	0.500050
C55	C	-0.473225	-0.980573	0.000042
C56	C	0.026775	-0.480573	0.500042
C57	C	-0.567251	-0.978920	0.000034
C58	C	-0.067251	-0.478920	0.500034
C59	C	-0.205754	-0.985276	0.000056
C60	C	0.294246	-0.485276	0.500056
C61	C	0.265501	-0.975987	0.000038
C62	C	0.765501	-0.475987	0.500038
C63	C	0.357796	-0.977602	0.000031
C64	C	0.857796	-0.477602	0.500031
N65	N	0.113492	-0.982091	0.228224
N66	N	0.613492	-0.482091	0.728224
C67	C	0.107386	-0.134104	0.000056
C68	C	0.607386	0.365896	0.500056
C69	C	0.109014	-0.226397	0.000053
C70	C	0.609014	0.273603	0.500053
N71	N	0.113492	-0.982112	-0.228125
N72	N	0.613492	-0.482112	0.271875
C73	C	0.056973	-1.038647	0.453955
C74	C	0.556973	-0.538647	0.953955
C75	C	0.056971	-1.038650	0.546144
C76	C	0.556971	-0.538650	1.046144
C77	C	0.170014	-0.925549	0.546138
C78	C	0.670014	-0.425549	1.046138
C79	C	0.170011	-0.925543	0.453950
C80	C	0.670011	-0.425543	0.953950
C81	C	0.113491	-0.982097	0.407861
C82	C	0.613491	-0.482097	0.907861
C83	C	0.113492	-0.982106	0.592238
C84	C	0.613492	-0.482106	1.092238
C85	C	0.113490	-0.982108	0.692195
C86	C	0.613490	-0.482108	1.192195
C87	C	0.113492	-0.982094	0.307898
C88	C	0.613492	-0.482094	0.807898
H89	H	-0.025294	-0.421455	0.000066
H90	H	0.474706	0.078545	0.500066
Br91	Br	0.246717	-0.848803	0.608691
Br92	Br	0.746717	-0.348803	1.108691
Br93	Br	-0.307728	-1.162435	0.000067
Br94	Br	0.192272	-0.662435	0.500067
Br95	Br	-0.063247	-0.607729	0.000068
Br96	Br	0.436753	-0.107729	0.500068
H97	H	-0.483190	-1.118133	0.000043
H98	H	0.016810	-0.618133	0.500043
H99	H	0.216036	-0.879489	0.416418
H100	H	0.716036	-0.379489	0.916418
Br101	Br	0.293840	-0.560877	0.000026
Br102	Br	0.793840	-0.060877	0.500026
H103	H	0.010950	-1.084695	0.416431
H104	H	0.510950	-0.584695	0.916431
H105	H	0.249542	-0.385414	0.000043
H106	H	0.749542	0.114586	0.500043
Br107	Br	-0.465283	-0.801760	0.000020
Br108	Br	0.034717	-0.301760	0.500020
Br109	Br	-0.260869	-0.805348	0.000025
Br110	Br	0.239131	-0.305348	0.500025
Br111	Br	-0.019740	-1.115395	0.608698
Br112	Br	0.480260	-0.615395	1.108698
