data_functionalizedCrystal
_audit_creation_method	'MofGen! by Chris Wilmer'
_symmetry_space_group_name_H-M	'P1'
_symmetry_Int_Tables_number	1
_symmetry_cell_setting	triclinic
loop_
_symmetry_equiv_pos_as_xyz
  x,y,z
_cell_length_a	14.971487
_cell_length_b	14.971506
_cell_length_c	9.730223
_cell_angle_alpha	90.002538
_cell_angle_beta	90.004353
_cell_angle_gamma	96.381605
loop_
_atom_site_label
_atom_site_type_symbol
_atom_site_fract_x
_atom_site_fract_y
_atom_site_fract_z
O1	O	-1.186949	0.116564	0.114088
O2	O	-0.926550	0.130522	0.114134
O3	O	-1.063720	-0.006656	0.114106
O4	O	-1.049780	0.253742	0.114116
O5	O	-1.063715	-0.006659	-0.114474
O6	O	-0.926545	0.130519	-0.114446
O7	O	-1.186944	0.116561	-0.114492
Zn8	Zn	-1.056744	0.123539	-0.150761
Zn9	Zn	-1.056751	0.123544	0.150403
O10	O	-1.049775	0.253738	-0.114464
C11	C	-0.893223	0.129896	-0.000151
C12	C	-0.793926	0.128025	-0.000133
C13	C	-1.063091	-0.039982	-0.000182
C14	C	-1.061213	-0.139278	-0.000175
C15	C	-0.736706	0.208613	-0.000130
C16	C	-0.643407	0.206850	-0.000148
C17	C	-0.607329	0.124498	-0.000158
C18	C	-0.664555	0.043903	-0.000165
C19	C	-0.757853	0.045667	-0.000158
C20	C	-0.470093	0.040232	-0.000178
C21	C	-0.376789	0.038467	-0.000183
C22	C	-0.355646	0.201414	-0.000168
C23	C	-0.448944	0.203179	-0.000161
C24	C	-0.506165	0.122584	-0.000165
C25	C	-0.220272	0.117186	-0.000196
C26	C	-0.319569	0.119055	-0.000180
C27	C	-1.134631	-0.577560	-0.000189
C28	C	-1.136388	-0.484260	-0.000198
C29	C	-1.055796	-0.427040	-0.000179
C30	C	-0.973441	-0.463125	-0.000165
C31	C	-0.971684	-0.556424	-0.000166
C32	C	-0.977108	-0.268662	-0.000160
C33	C	-0.978864	-0.175357	-0.000157
C34	C	-1.141812	-0.196498	-0.000193
C35	C	-1.140055	-0.289797	-0.000193
C36	C	-1.057700	-0.325875	-0.000177
C37	C	-1.050404	0.287065	-0.000173
C38	C	-1.052282	0.386361	-0.000171
N39	N	-1.056746	0.123536	-0.356297
C40	C	-1.002447	0.069194	-0.428238
C41	C	-1.002449	0.069199	-0.572121
C42	C	-1.111057	0.177887	-0.572110
C43	C	-1.111049	0.177887	-0.428230
C44	C	-0.939746	0.006441	-0.428245
C45	C	-0.939748	0.006445	-0.572128
N46	N	-1.056756	0.123540	0.355939
H47	H	-0.766073	0.275674	-0.000121
C48	C	-0.810795	-0.526161	-0.000108
C49	C	-0.881164	-0.596085	-0.000134
H50	H	-0.754911	-0.550648	-0.000083
H51	H	-0.814863	-0.490215	-0.079815
H52	H	-0.814882	-0.490208	0.079608
H53	H	-0.877081	-0.632034	-0.079855
H54	H	-0.877094	-0.632047	0.079581
H55	H	-1.155267	0.222140	-0.630696
H56	H	-1.200259	-0.624143	-0.000193
C57	C	-0.526229	0.299404	-0.117641
C58	C	-0.580508	0.295434	-0.000132
H59	H	-0.487401	0.354097	-0.117631
H60	H	-0.491396	0.250111	-0.117647
H61	H	-0.563081	0.296713	-0.197340
H62	H	-0.543656	0.298118	0.079567
H63	H	-0.615344	0.344741	-0.000114
H64	H	-0.516680	-0.025398	-0.000184
H65	H	-0.872167	0.035068	-0.616749
C66	C	-0.366070	-0.100971	0.117287
C67	C	-0.337126	-0.052054	-0.000204
H68	H	-0.341586	-0.156856	0.117267
H69	H	-0.346431	-0.067788	0.196990
H70	H	-0.429824	-0.111456	0.117271
H71	H	-0.273372	-0.041563	-0.000182
H72	H	-0.356760	-0.085244	-0.079927
C73	C	-0.926710	-0.151626	-0.412514
C74	C	-0.978424	-0.084781	-0.368025
H75	H	-0.950585	-0.207944	-0.375338
H76	H	-0.928035	-0.154706	-0.510005
H77	H	-0.866439	-0.137568	-0.382350
H78	H	-1.038694	-0.098836	-0.398198
H79	H	-0.977109	-0.081703	-0.270514
H80	H	-0.869028	0.028964	-0.389198
H81	H	-0.635173	-0.023150	-0.000193
H82	H	-1.203445	-0.454890	-0.000214
C83	C	-0.308892	0.339760	0.117349
C84	C	-0.292755	0.290008	-0.000168
H85	H	-0.270058	0.394449	0.117356
H86	H	-0.369613	0.352590	0.117350
H87	H	-0.297932	0.305983	0.197042
H88	H	-0.303721	0.323782	-0.079862
H89	H	-0.232019	0.277180	-0.000181
C90	C	-0.769386	-0.115575	-0.000149
C91	C	-0.820753	-0.042918	-0.000148
H92	H	-0.808219	-0.170264	-0.000137
H93	H	-0.732566	-0.112877	-0.079859
H94	H	-0.732546	-0.112865	0.079564
H95	H	-0.857588	-0.045624	-0.079866
H96	H	-0.857588	-0.045617	0.079570
C97	C	-1.301300	-0.301328	-0.000241
C98	C	-1.228642	-0.352695	-0.000217
H99	H	-1.355989	-0.340161	-0.000267
H100	H	-1.298605	-0.264502	0.079468
H101	H	-1.298586	-0.264496	-0.079955
H102	H	-1.231352	-0.389523	0.079502
H103	H	-1.231338	-0.389538	-0.079934
C104	C	-1.146310	0.327792	-0.383945
C105	C	-1.170730	0.237631	-0.349161
H106	H	-1.183160	0.364676	-0.335138
H107	H	-1.085138	0.344294	-0.360353
H108	H	-1.154085	0.335553	-0.479934
H109	H	-1.162949	0.229868	-0.253173
H110	H	-1.231917	0.221123	-0.372743
C111	C	-1.238328	-0.103839	0.117280
C112	C	-1.232340	-0.156846	-0.000218
H113	H	-1.294213	-0.079354	0.117262
H114	H	-1.234259	-0.139793	0.196978
H115	H	-1.190579	-0.056411	0.117269
H116	H	-1.280085	-0.204278	-0.000202
H117	H	-1.236418	-0.120890	-0.079937
C118	C	-0.909215	-0.022949	-0.000147
C119	C	-0.890277	-0.112458	-0.000153
H120	H	-0.854524	0.015881	-0.000138
H121	H	-0.942978	-0.012011	-0.079853
H122	H	-0.942976	-0.012011	0.079570
H123	H	-0.856522	-0.123397	-0.079875
H124	H	-0.856500	-0.123400	0.079561
C125	C	-0.880613	-0.361325	0.117366
C126	C	-0.886584	-0.308326	-0.000138
H127	H	-0.824731	-0.385817	0.117377
H128	H	-0.884686	-0.325364	0.197060
H129	H	-0.928366	-0.408749	0.117335
H130	H	-0.838834	-0.260898	-0.000103
H131	H	-0.882502	-0.344289	-0.079853
C132	C	-0.901824	-0.119197	-0.704819
C133	C	-0.970211	-0.088999	-0.624882
H134	H	-0.920628	-0.178118	-0.737384
H135	H	-0.889290	-0.079908	-0.780721
H136	H	-0.849178	-0.120057	-0.650555
H137	H	-1.022856	-0.088132	-0.679150
H138	H	-0.982757	-0.128298	-0.548970
H139	H	-0.478316	0.270237	-0.000139
H140	H	-0.907821	-0.416529	-0.000158
