data_functionalizedCrystal
_audit_creation_method	'MofGen! by Chris Wilmer'
_symmetry_space_group_name_H-M	'P1'
_symmetry_Int_Tables_number	1
_symmetry_cell_setting	triclinic
loop_
_symmetry_equiv_pos_as_xyz
  x,y,z
_cell_length_a	19.288864
_cell_length_b	13.339070
_cell_length_c	17.766277
_cell_angle_alpha	89.997794
_cell_angle_beta	89.976791
_cell_angle_gamma	99.382770
loop_
_atom_site_label
_atom_site_type_symbol
_atom_site_fract_x
_atom_site_fract_y
_atom_site_fract_z
O1	O	0.945924	0.126087	-0.062840
O2	O	0.746977	0.143096	-0.062789
O3	O	0.823618	-0.012568	-0.062806
O4	O	0.869283	0.281751	-0.062822
O5	O	0.823598	-0.012576	0.062383
O6	O	0.746957	0.143088	0.062400
O7	O	0.945903	0.126079	0.062349
Cu8	Cu	0.846428	0.134583	0.073805
Cu9	Cu	0.846452	0.134592	-0.074245
O10	O	0.869263	0.281743	0.062366
C11	C	0.720984	0.142544	-0.000188
C12	C	0.643560	0.140901	-0.000168
C13	C	0.616663	0.232238	-0.000185
C14	C	0.543915	0.230694	-0.000193
C15	C	0.498067	0.137809	-0.000200
C16	C	0.524972	0.046461	-0.000178
C17	C	0.597719	0.048007	-0.000163
C18	C	0.375583	0.064794	-0.044080
C19	C	0.302838	0.063252	-0.044100
C20	C	0.273691	0.133037	-0.000245
C21	C	0.317301	0.204382	0.043621
C22	C	0.390047	0.205928	0.043637
C23	C	0.419184	0.136123	-0.000216
C24	C	0.167913	0.222706	-0.000270
C25	C	0.095163	0.221159	-0.000273
C26	C	0.076222	0.036923	-0.000266
C27	C	0.148970	0.038473	-0.000255
C28	C	0.194812	0.131367	-0.000260
C29	C	0.815894	-0.050226	-0.000211
C30	C	0.792901	-0.162423	-0.000208
C31	C	0.971681	-0.528031	-0.000253
C32	C	0.993286	-0.422617	-0.000252
C33	C	0.943192	-0.357563	-0.000241
C34	C	0.871489	-0.397934	-0.000231
C35	C	0.849881	-0.503359	-0.000227
C36	C	0.821392	-0.332891	-0.000215
C37	C	0.749689	-0.373262	-0.000205
C38	C	0.728085	-0.478677	-0.000201
C39	C	0.778180	-0.543730	-0.000212
C40	C	0.842999	-0.227467	-0.000219
C41	C	0.721199	-0.202795	-0.000193
C42	C	0.699594	-0.308209	-0.000195
C43	C	0.971897	0.126630	-0.000254
C44	C	1.049320	0.128273	-0.000278
C45	C	0.876987	0.319401	-0.000231
C46	C	0.899980	0.431598	-0.000238
N47	N	0.846416	0.134575	0.177935
N48	N	0.846468	0.134591	-0.178375
C49	C	0.880375	0.065681	0.217315
C50	C	0.880378	0.065676	0.296116
C51	C	0.846433	0.134583	0.335536
C52	C	0.812467	0.203483	0.296147
C53	C	0.812459	0.203479	0.217347
C54	C	0.855080	0.226676	0.460370
C55	C	0.855093	0.226682	0.539169
C56	C	0.846454	0.134595	0.578582
C57	C	0.837815	0.042500	0.539187
C58	C	0.837807	0.042496	0.460387
C59	C	0.846437	0.134595	0.420982
C60	C	0.880417	0.065690	0.703408
C61	C	0.880415	0.065684	0.782211
C62	C	0.812509	0.203500	0.782240
C63	C	0.812506	0.203497	0.703438
C64	C	0.846463	0.134593	0.664027
H65	H	0.205239	0.298346	-0.000263
H66	H	0.901380	-0.194607	-0.000227
H67	H	0.267337	0.005163	-0.079822
H68	H	0.641212	-0.341094	-0.000186
H69	H	0.669700	-0.511543	-0.000188
C70	C	0.966787	-0.243141	-0.000284
C71	C	1.040302	-0.221708	-0.000316
C72	C	1.062066	-0.116310	-0.000370
H73	H	0.949244	-0.214619	0.043361
H74	H	0.949233	-0.214705	-0.043957
H75	H	1.057849	-0.250132	0.043352
H76	H	1.057863	-0.250205	-0.043958
H77	H	1.044512	-0.087875	-0.044043
H78	H	1.044519	-0.087798	0.043276
H79	H	1.111948	-0.101754	-0.000399
H80	H	1.051667	-0.389754	-0.000259
H81	H	0.680408	-0.149828	-0.000180
C82	C	1.026138	-0.598541	-0.000381
C83	C	1.068160	-0.580327	-0.064786
C84	C	1.118342	-0.645255	-0.064924
H85	H	1.003090	-0.667139	-0.000414
H86	H	1.054733	-0.586327	0.043247
H87	H	1.039569	-0.592550	-0.108403
H88	H	1.091224	-0.511742	-0.064767
H89	H	1.146938	-0.633040	-0.021296
H90	H	1.095288	-0.713848	-0.064954
H91	H	1.146864	-0.632899	-0.108618
H92	H	0.073266	0.295539	-0.000282
H93	H	0.784866	0.259601	0.814335
H94	H	0.293572	0.261207	0.079333
H95	H	0.038893	-0.038706	-0.000318
C96	C	0.775634	0.278421	0.660815
C97	C	0.745922	0.338785	0.712199
C98	C	0.711955	0.407826	0.672962
H99	H	0.739691	0.242287	0.630092
H100	H	0.808700	0.320458	0.630072
H101	H	0.712859	0.296754	0.742930
H102	H	0.781850	0.374942	0.742923
H103	H	0.745021	0.449863	0.642219
H104	H	0.676015	0.371683	0.642242
H105	H	0.691797	0.448798	0.707821
H106	H	0.399307	0.007964	-0.079797
H107	H	0.760592	-0.629568	-0.000216
H108	H	0.425551	0.264016	0.079357
C109	C	0.475279	-0.054460	-0.000306
C110	C	0.487311	-0.109665	-0.064695
C111	C	0.441554	-0.202647	-0.064829
H112	H	0.428075	-0.042445	-0.000359
H113	H	0.483292	-0.092113	0.043333
H114	H	0.479293	-0.072021	-0.108322
H115	H	0.534506	-0.121708	-0.064656
H116	H	0.449567	-0.240300	-0.021191
H117	H	0.394353	-0.190621	-0.064880
H118	H	0.449716	-0.240119	-0.108513
H119	H	0.619617	-0.026373	-0.000149
H120	H	0.908023	0.009573	0.185228
C121	C	0.178137	-0.060728	-0.000402
C122	C	0.154777	-0.116660	-0.064820
C123	C	0.181637	-0.208047	-0.064984
H124	H	0.162316	-0.098955	0.043201
H125	H	0.228030	-0.046549	-0.000433
H126	H	0.104894	-0.130841	-0.064783
H127	H	0.170596	-0.078464	-0.108434
H128	H	0.231531	-0.193868	-0.065015
H129	H	0.165814	-0.246265	-0.021378
H130	H	0.165797	-0.246003	-0.108694
C131	C	0.917313	-0.009178	0.338747
C132	C	0.947060	-0.069509	0.287366
C133	C	0.981095	-0.138468	0.326607
H134	H	0.884303	-0.051254	0.369509
H135	H	0.953246	0.027051	0.369452
H136	H	0.911131	-0.105735	0.256675
H137	H	0.980080	-0.027461	0.256603
H138	H	1.017027	-0.102239	0.357311
H139	H	0.948079	-0.180537	0.357367
H140	H	1.001287	-0.179405	0.291751
H141	H	0.830771	-0.032491	0.428314
H142	H	0.830779	-0.032485	0.571275
H143	H	0.908065	0.009582	0.671317
H144	H	0.908064	0.009577	0.814274
H145	H	0.862132	0.301671	0.571239
C146	C	0.864517	0.326771	0.417719
C147	C	0.872114	0.407422	0.469083
C148	C	0.880820	0.499641	0.429821
H149	H	0.824523	0.329122	0.386994
H150	H	0.905275	0.332275	0.386977
H151	H	0.831360	0.401921	0.499812
H152	H	0.912107	0.405105	0.499810
H153	H	0.921579	0.505144	0.399079
H154	H	0.840825	0.501981	0.399097
H155	H	0.885982	0.554373	0.464665
H156	H	0.784805	0.259582	0.185284
C157	C	0.514838	0.329974	-0.000258
C158	C	0.570554	0.411656	-0.000278
C159	C	0.543798	0.503126	-0.000350
H160	H	0.486838	0.333350	0.043377
H161	H	0.486900	0.333245	-0.043940
H162	H	0.598481	0.408387	0.043401
H163	H	0.598559	0.408314	-0.043909
H164	H	0.515860	0.506397	-0.044033
H165	H	0.515798	0.506491	0.043286
H166	H	0.581597	0.558558	-0.000371
C167	C	0.775675	0.278458	0.338844
C168	C	0.806050	0.377740	0.319638
C169	C	0.772165	0.446832	0.358946
H170	H	0.780521	0.268739	0.391427
H171	H	0.727235	0.267708	0.325941
H172	H	0.854478	0.388486	0.332547
H173	H	0.801205	0.387491	0.267062
H174	H	0.723725	0.436082	0.346043
H175	H	0.777012	0.437103	0.411527
H176	H	0.792765	0.514201	0.345916
H177	H	0.653984	0.307880	-0.000191
