data_functionalizedCrystal
_audit_creation_method	'MofGen! by Chris Wilmer'
_symmetry_space_group_name_H-M	'P1'
_symmetry_Int_Tables_number	1
_symmetry_cell_setting	triclinic
loop_
_symmetry_equiv_pos_as_xyz
  x,y,z
_cell_length_a	12.645331
_cell_length_b	16.959453
_cell_length_c	16.959447
_cell_angle_alpha	90.031571
_cell_angle_beta	90.008701
_cell_angle_gamma	90.021961
loop_
_atom_site_label
_atom_site_type_symbol
_atom_site_fract_x
_atom_site_fract_y
_atom_site_fract_z
Zn1	Zn	1.620620	-0.314682	0.446783
Zn2	Zn	1.620508	-0.446875	0.314602
Zn3	Zn	1.443357	-0.314712	0.314634
Zn4	Zn	1.443301	-0.446821	0.446753
O5	O	1.531947	-0.380772	0.380693
O6	O	1.768953	-0.332228	0.429248
O7	O	1.596985	-0.429378	0.203995
O8	O	1.466941	-0.204097	0.332190
O9	O	1.768870	-0.429349	0.332135
O10	O	1.597176	-0.204075	0.429279
O11	O	1.466833	-0.332279	0.204019
O12	O	1.295002	-0.332227	0.332161
O13	O	1.466847	-0.429257	0.557368
O14	O	1.294961	-0.429286	0.429228
O15	O	1.597122	-0.332176	0.557390
O16	O	1.596931	-0.557478	0.332106
O17	O	1.466738	-0.557439	0.429197
C18	C	1.256517	-0.380755	0.380695
C19	C	1.138687	-0.380766	0.380715
C20	C	1.531845	-0.586139	0.380662
C21	C	1.531899	-0.673995	0.380676
C22	C	1.464174	-0.715349	0.330090
C23	C	1.599669	-0.715195	0.431279
C24	C	1.599718	-0.797741	0.431296
C25	C	1.531993	-0.839095	0.380710
C26	C	1.464219	-0.797903	0.330107
C27	C	1.667484	-0.838939	0.481904
C28	C	1.667535	-0.921490	0.481924
C29	C	1.599815	-0.962845	0.431333
C30	C	1.532039	-0.921648	0.380727
C31	C	1.464314	-0.963002	0.330141
C32	C	1.396542	-0.921806	0.279531
C33	C	1.396498	-0.839258	0.279516
C34	C	1.599858	-1.045394	0.431348
C35	C	1.464359	-1.045555	0.330159
C36	C	0.971133	-0.442161	0.441462
C37	C	1.093693	-0.441963	0.441716
C38	C	1.094215	-0.297513	0.403480
C39	C	0.971617	-0.297888	0.403908
C40	C	0.971453	-0.401953	0.297010
C41	C	1.094058	-0.403774	0.297461
C42	C	1.808452	-0.380791	0.380692
C43	C	1.926282	-0.380799	0.380691
C44	C	1.531991	-0.380707	0.586861
C45	C	1.532010	-0.380679	0.674718
C46	C	1.532078	-0.174604	0.380741
C47	C	1.532133	-0.086748	0.380762
C48	C	1.531964	-0.380781	0.175327
C49	C	1.532150	-0.380586	0.087471
C50	C	1.464308	-0.431142	1.046185
C51	C	1.599965	-0.330050	1.046203
C52	C	1.599937	-0.330067	0.963657
C53	C	1.532094	-0.380622	0.922371
C54	C	1.464280	-0.431162	0.963631
C55	C	1.667758	-0.279534	0.922391
C56	C	1.667733	-0.279549	0.839840
C57	C	1.599884	-0.330102	0.798552
C58	C	1.532066	-0.380642	0.839818
C59	C	1.464223	-0.431198	0.798532
C60	C	1.396399	-0.481736	0.839796
C61	C	1.396431	-0.481714	0.922344
C62	C	1.599852	-0.330123	0.716004
C63	C	1.464195	-0.431218	0.715978
H64	H	1.409211	-1.079220	0.288962
Br65	Br	1.692043	-0.261450	1.102233
H66	H	1.722959	-0.238398	0.806250
H67	H	1.341395	-0.955487	0.238348
Br68	Br	1.143813	-0.544869	0.417969
Br69	Br	0.919771	-0.419150	0.544203
Br70	Br	1.372208	-0.659445	0.261402
Br71	Br	1.304396	-0.550297	0.978349
Br72	Br	1.759504	-0.977392	0.550611
H73	H	1.341320	-0.805711	0.238312
H74	H	1.655023	-1.078932	0.472564
H75	H	1.124688	-0.362323	0.249753
H76	H	1.654803	-0.681522	0.472469
Br77	Br	0.923110	-0.327460	0.221540
H78	H	1.341166	-0.522902	0.806170
Br79	Br	1.759365	-0.782814	0.550571
Br80	Br	1.372109	-0.499827	0.659954
Br81	Br	0.921964	-0.545404	0.417951
H82	H	1.722998	-0.238379	0.956011
H83	H	0.943034	-0.279945	0.465083
Br84	Br	1.142605	-0.418630	0.545061
Br85	Br	0.922160	-0.219105	0.333355
Br86	Br	1.142791	-0.219235	0.332016
Br87	Br	1.372259	-0.499720	1.102182
H88	H	1.655077	-0.288979	0.682411
Br89	Br	1.145407	-0.267058	0.504338
H90	H	0.940527	-0.461626	0.276319
H91	H	1.123137	-0.465036	0.280291
