data_functionalizedCrystal
_audit_creation_method	'MofGen! by Chris Wilmer'
_symmetry_space_group_name_H-M	'P1'
_symmetry_Int_Tables_number	1
_symmetry_cell_setting	triclinic
loop_
_symmetry_equiv_pos_as_xyz
  x,y,z
_cell_length_a	8.559649
_cell_length_b	15.944551
_cell_length_c	7.681481
_cell_angle_alpha	84.256492
_cell_angle_beta	94.913240
_cell_angle_gamma	76.638701
loop_
_atom_site_label
_atom_site_type_symbol
_atom_site_fract_x
_atom_site_fract_y
_atom_site_fract_z
O1	O	2.105021	-0.019570	-0.146399
O2	O	1.639821	0.023810	-0.146411
O3	O	1.885126	-0.120976	-0.146389
O4	O	1.859716	0.125215	-0.146421
O5	O	1.915319	-0.138833	0.146471
O6	O	1.670014	0.005953	0.146450
O7	O	2.135214	-0.037427	0.146461
Zn8	Zn	1.907408	-0.018572	0.192953
Zn9	Zn	1.867627	0.004955	-0.192903
O10	O	1.889909	0.107359	0.146439
C11	C	1.595387	0.018169	0.000018
C12	C	1.418008	0.027954	0.000014
C13	C	1.899168	-0.161130	0.000042
C14	C	1.896006	-0.254172	0.000042
C15	C	1.736394	-0.458726	0.000014
C16	C	1.825398	-0.533331	0.144414
C17	C	1.890284	-0.424528	0.000029
C18	C	1.795667	-0.515712	-0.144323
C19	C	1.884744	-0.589082	0.000008
C20	C	1.979342	-0.497915	0.144548
C21	C	1.949576	-0.480280	-0.144319
C22	C	2.038696	-0.554877	0.000116
C23	C	1.893471	-0.329732	0.000042
C24	C	1.881571	-0.683878	0.000007
C25	C	2.179647	-0.031786	0.000028
C26	C	2.357025	-0.041570	0.000021
C27	C	1.875866	0.147513	0.000005
C28	C	1.879027	0.240556	-0.000008
N29	N	1.934569	-0.034630	0.456290
N30	N	1.840479	0.021005	-0.456240
H31	H	1.440515	-0.108579	0.000021
C32	C	1.305220	0.118489	-0.000001
C33	C	1.327953	0.172118	0.152066
C34	C	1.215166	0.262651	0.152051
C35	C	1.079646	0.299555	-0.000031
C36	C	1.056907	0.245925	-0.152109
C37	C	1.169694	0.155392	-0.152094
H38	H	1.428279	0.144801	0.264656
H39	H	1.232000	0.302352	0.264630
H40	H	0.996155	0.366573	-0.000042
H41	H	0.956582	0.273243	-0.264700
H42	H	1.152860	0.115692	-0.264673
C43	C	1.563860	-0.402597	0.000194
C44	C	1.465149	-0.418780	0.153167
C45	C	1.292622	-0.362650	0.153356
C46	C	1.218805	-0.290339	0.000572
C47	C	1.317516	-0.274153	-0.152413
C48	C	1.490044	-0.330282	-0.152602
H49	H	1.519792	-0.472312	0.266278
H50	H	1.219550	-0.374632	0.266607
H51	H	1.091090	-0.248788	0.000712
H52	H	1.262873	-0.220621	-0.265523
H53	H	1.563116	-0.318300	-0.265852
H54	H	1.772895	-0.556682	0.266489
C55	C	1.690710	-0.527118	-0.309242
C56	C	1.510519	-0.479556	-0.340926
C57	C	1.405551	-0.490958	-0.505834
C58	C	1.480772	-0.549922	-0.639059
C59	C	1.660972	-0.597488	-0.607379
C60	C	1.765941	-0.586086	-0.442471
H61	H	1.454827	-0.435904	-0.242301
H62	H	1.272154	-0.455747	-0.529284
H63	H	1.403068	-0.558362	-0.761134
H64	H	1.716665	-0.641140	-0.706004
H65	H	1.899337	-0.621297	-0.419021
H66	H	1.744432	0.077792	0.468555
H67	H	2.056976	-0.489573	0.266760
H68	H	2.166550	-0.596291	0.000200
H69	H	2.002022	-0.456903	-0.266401
H70	H	2.030633	-0.091415	0.531504
