data_functionalizedCrystal
_audit_creation_method	'MofGen! by Chris Wilmer'
_symmetry_space_group_name_H-M	'P1'
_symmetry_Int_Tables_number	1
_symmetry_cell_setting	triclinic
loop_
_symmetry_equiv_pos_as_xyz
  x,y,z
_cell_length_a	16.625545
_cell_length_b	15.297476
_cell_length_c	15.298259
_cell_angle_alpha	88.370467
_cell_angle_beta	80.286739
_cell_angle_gamma	80.328684
loop_
_atom_site_label
_atom_site_type_symbol
_atom_site_fract_x
_atom_site_fract_y
_atom_site_fract_z
Zn1	Zn	-0.402717	1.253479	-0.726673
Zn2	Zn	-0.564138	1.278711	-0.580172
Zn3	Zn	-0.410561	1.132332	-0.554896
Zn4	Zn	-0.518740	1.106958	-0.701311
O5	O	-0.474039	1.192870	-0.640763
O6	O	-0.439847	1.379406	-0.728432
O7	O	-0.566048	1.280472	-0.454232
O8	O	-0.296691	1.148462	-0.577719
O9	O	-0.558442	1.397944	-0.620797
O10	O	-0.290929	1.237468	-0.703923
O11	O	-0.453215	1.172928	-0.435662
O12	O	-0.409194	1.006386	-0.553126
O13	O	-0.481067	1.105215	-0.827263
O14	O	-0.488673	0.987744	-0.660697
O15	O	-0.395826	1.212864	-0.845896
O16	O	-0.670945	1.255868	-0.596205
O17	O	-0.637591	1.129681	-0.685206
C18	C	-0.444859	0.965281	-0.601417
C19	C	-0.432391	0.867914	-0.584606
C20	C	-0.385049	0.831840	-0.520786
C21	C	-0.373333	0.740359	-0.504989
C22	C	-0.408953	0.684943	-0.553014
C23	C	-0.456291	0.721016	-0.616840
C24	C	-0.468013	0.812506	-0.632634
C25	C	-0.491917	0.665609	-0.664862
C26	C	-0.539255	0.701682	-0.728687
C27	C	-0.550975	0.793164	-0.744478
C28	C	-0.515355	0.848580	-0.696453
C29	C	-0.480195	0.574118	-0.649068
C30	C	-0.563159	0.554785	-0.760915
C31	C	-0.574875	0.646265	-0.776712
C32	C	-0.683523	1.192779	-0.640719
C33	C	-0.773146	1.192816	-0.640743
C34	C	-0.845929	1.192847	-0.640767
C35	C	-0.937241	1.192895	-0.640795
C36	C	-1.010021	1.192938	-0.640814
C37	C	-1.101338	1.192985	-0.640840
C38	C	-0.263737	1.192981	-0.640831
C39	C	-0.174119	1.193029	-0.640859
C40	C	-0.432507	1.153395	-0.869253
C41	C	-0.414809	1.136573	-0.966622
C42	C	-0.503334	1.421347	-0.680263
C43	C	-0.515817	1.518711	-0.697096
C44	C	-0.599914	1.313128	-1.279756
C45	C	-0.616546	1.328928	-1.188272
C46	C	-0.566113	1.280841	-1.132855
C47	C	-0.499045	1.216950	-1.168931
C48	C	-0.482414	1.201143	-1.260423
C49	C	-0.448614	1.168856	-1.113522
C50	C	-0.381546	1.104965	-1.149598
C51	C	-0.364918	1.089162	-1.241081
C52	C	-0.415351	1.137249	-1.296498
C53	C	-0.465245	1.184663	-1.022031
C54	C	-0.347746	1.072678	-1.002698
C55	C	-0.331113	1.056878	-1.094181
C56	C	-0.515357	1.232242	-0.413170
C57	C	-0.532850	1.249234	-0.315831
H58	H	-0.356058	0.876968	-0.481686
N59	N	-0.602030	0.832080	-0.813315
H60	H	-0.650687	0.876177	-0.784190
H61	H	-0.622758	0.783046	-0.841327
N62	N	-0.292578	1.020250	-1.279983
H63	H	-0.252882	1.049316	-1.324106
H64	H	-0.313299	0.973095	-1.310864
N65	N	-0.601585	0.495023	-0.812713
H66	H	-0.556629	0.450064	-0.846827
H67	H	-0.633365	0.531823	-0.855486
H68	H	-0.334795	0.710996	-0.453018
N69	N	-0.688878	1.397835	-1.149367
H70	H	-0.681488	1.457680	-1.176111
H71	H	-0.691725	1.400473	-1.083005
H72	H	-0.306679	1.033521	-0.957577
H73	H	-0.613418	0.675649	-0.828679
H74	H	-0.640974	1.352267	-1.324883
H75	H	-0.276505	1.004857	-1.123567
H76	H	-0.441649	0.544756	-0.597103
H77	H	-0.519849	1.236689	-0.992668
H78	H	-0.579661	1.293709	-1.058366
H79	H	-0.399410	0.610455	-0.540149
H80	H	-0.524890	0.923072	-0.709313
N81	N	-0.397412	1.120200	-1.395172
H82	H	-0.386291	1.176491	-1.427602
H83	H	-0.446673	1.100237	-1.414328
