data_functionalizedCrystal
_audit_creation_method	'MofGen! by Chris Wilmer'
_symmetry_space_group_name_H-M	'P1'
_symmetry_Int_Tables_number	1
_symmetry_cell_setting	triclinic
loop_
_symmetry_equiv_pos_as_xyz
  x,y,z
_cell_length_a	21.295411
_cell_length_b	21.395362
_cell_length_c	21.395361
_cell_angle_alpha	90.046585
_cell_angle_beta	90.021703
_cell_angle_gamma	90.043935
loop_
_atom_site_label
_atom_site_type_symbol
_atom_site_fract_x
_atom_site_fract_y
_atom_site_fract_z
Zn1	Zn	-0.356237	-0.957859	0.249244
Zn2	Zn	-0.250962	-0.957762	0.354005
Zn3	Zn	-0.250946	-0.853074	0.249274
Zn4	Zn	-0.356158	-0.853044	0.354017
O5	O	-0.303576	-0.905435	0.301635
O6	O	-0.342311	-1.045524	0.263123
O7	O	-0.162870	-0.943847	0.340119
O8	O	-0.264939	-0.867028	0.161592
O9	O	-0.264966	-1.045453	0.340090
O10	O	-0.342296	-0.944013	0.161570
O11	O	-0.162859	-0.866934	0.263174
O12	O	-0.264863	-0.765392	0.263186
O13	O	-0.444258	-0.866976	0.340112
O14	O	-0.342162	-0.765370	0.340140
O15	O	-0.444316	-0.943983	0.263136
O16	O	-0.264890	-0.943817	0.441684
O17	O	-0.342177	-0.866881	0.441693
C18	C	-0.303503	-0.742647	0.301668
C19	C	-0.303486	-0.673006	0.301697
C20	C	-0.303541	-0.905352	0.464423
C21	C	-0.303547	-0.905374	0.534064
C22	C	-0.467766	-0.905487	0.301622
C23	C	-0.537734	-0.905509	0.301616
C24	C	-0.570632	-0.945605	0.261533
C25	C	-0.636374	-0.945604	0.261506
C26	C	-0.669217	-0.905514	0.301573
C27	C	-0.636311	-0.865410	0.341659
C28	C	-0.570570	-0.865407	0.341681
N29	N	-0.772430	-0.900680	0.356385
N30	N	-0.834882	-0.900686	0.356363
C31	C	-0.867292	-0.905518	0.301509
N32	N	-0.834891	-0.910356	0.246678
N33	N	-0.772433	-0.910353	0.246701
C34	C	-0.740502	-0.905512	0.301554
C35	C	-0.971475	-0.945615	0.261393
C36	C	-1.037219	-0.945610	0.261365
C37	C	-1.037154	-0.865419	0.341524
C38	C	-0.971412	-0.865421	0.341547
C39	C	-0.938576	-0.905522	0.301482
C40	C	-0.140024	-0.905419	0.301603
C41	C	-0.070056	-0.905518	0.301432
C42	C	-0.303649	-1.068858	0.301602
C43	C	-0.303681	-1.138499	0.301588
C44	C	-0.343676	-0.640297	0.341821
C45	C	-0.343704	-0.574862	0.341805
C46	C	-0.303531	-0.542138	0.301673
C47	C	-0.263339	-0.574854	0.261542
C48	C	-0.263317	-0.640288	0.261554
C49	C	-0.246861	-0.438413	0.296626
C50	C	-0.246883	-0.372980	0.296618
C51	C	-0.303601	-0.340317	0.301632
C52	C	-0.360299	-0.373095	0.306667
C53	C	-0.360276	-0.438529	0.306679
C54	C	-0.303551	-0.471185	0.301655
C55	C	-0.343824	-0.236656	0.341741
C56	C	-0.343853	-0.171219	0.341721
C57	C	-0.263483	-0.171213	0.261462
C58	C	-0.263459	-0.236648	0.261478
C59	C	-0.303629	-0.269366	0.301621
C60	C	-0.303625	-0.905535	0.138212
C61	C	-0.303646	-0.905578	0.068570
C62	C	-0.263345	-0.945470	0.566751
C63	C	-0.263359	-0.945499	0.632187
C64	C	-0.303568	-0.905421	0.664932
C65	C	-0.343778	-0.865322	0.632237
C66	C	-0.343767	-0.865299	0.566803
C67	C	-0.308482	-0.849006	0.768663
C68	C	-0.308488	-0.849029	0.834096
C69	C	-0.303605	-0.905494	0.866753
C70	C	-0.298702	-0.961939	0.833969
C71	C	-0.298692	-0.961915	0.768535
C72	C	-0.303585	-0.905443	0.735885
C73	C	-0.263416	-0.945625	0.970393
C74	C	-0.263435	-0.945655	1.035829
C75	C	-0.343851	-0.865473	1.035878
C76	C	-0.343836	-0.865448	0.970443
C77	C	-0.303615	-0.905524	0.937704
H78	H	-0.543901	-0.978258	0.228908
H79	H	-0.376570	-0.832795	0.943827
H80	H	-0.663055	-0.832766	0.374280
Br81	Br	-0.292043	-1.038514	0.724044
Br82	Br	-0.525920	-0.810986	0.396083
Br83	Br	-0.926908	-1.000035	0.207020
Br84	Br	-0.398429	-0.811086	1.080311
H85	H	-0.376535	-0.263296	0.374425
Br86	Br	-0.208824	-0.530444	0.207072
Br87	Br	-0.437220	-0.483012	0.313510
Br88	Br	-0.398406	-0.126828	0.396174
Br89	Br	-0.208876	-1.000083	1.080193
H90	H	-0.312474	-0.803068	0.860784
Br91	Br	-0.315112	-0.772368	0.724350
Br92	Br	-1.081867	-1.000041	0.206971
Br93	Br	-0.169880	-0.482735	0.289821
H94	H	-0.376386	-0.666932	0.374507
H95	H	-1.063894	-0.832770	0.374141
H96	H	-0.230590	-0.666919	0.228879
Br97	Br	-0.926761	-0.811002	0.395950
Br98	Br	-0.398354	-0.810935	0.676675
Br99	Br	-0.681031	-1.000009	0.207088
H100	H	-0.294726	-1.007918	0.860557
Br101	Br	-0.398251	-0.530462	0.396261
Br102	Br	-0.208768	-0.999866	0.522323
H103	H	-0.376506	-0.832647	0.540188
H104	H	-0.230668	-0.978259	0.943736
Br105	Br	-0.208968	-0.126808	0.206990
H106	H	-0.406484	-0.346502	0.310749
Br107	Br	-0.208913	-0.281041	0.207022
Br108	Br	-0.169937	-0.328502	0.289787
H109	H	-0.230621	-0.978153	0.658806
