data_functionalizedCrystal
_audit_creation_method	'MofGen! by Chris Wilmer'
_symmetry_space_group_name_H-M	'P1'
_symmetry_Int_Tables_number	1
_symmetry_cell_setting	triclinic
loop_
_symmetry_equiv_pos_as_xyz
  x,y,z
_cell_length_a	14.519709
_cell_length_b	10.654550
_cell_length_c	9.730223
_cell_angle_alpha	90.000043
_cell_angle_beta	89.994652
_cell_angle_gamma	95.917462
loop_
_atom_site_label
_atom_site_type_symbol
_atom_site_fract_x
_atom_site_fract_y
_atom_site_fract_z
O1	O	0.129532	-1.666594	-0.114191
O2	O	0.629532	-1.166594	0.385809
O3	O	0.141873	-1.300996	-0.114216
O4	O	0.641873	-0.800996	0.385784
O5	O	0.001514	-1.493488	-0.114190
O6	O	0.501514	-0.993488	0.385810
O7	O	0.269891	-1.474102	-0.114216
O8	O	0.769891	-0.974102	0.385784
O9	O	0.001511	-1.493476	0.114390
O10	O	0.501511	-0.993476	0.614390
O11	O	0.141869	-1.300984	0.114364
O12	O	0.641869	-0.800984	0.614364
O13	O	0.129528	-1.666581	0.114389
O14	O	0.629528	-1.166581	0.614389
Zn15	Zn	0.135698	-1.483781	0.150669
Zn16	Zn	0.635698	-0.983781	0.650669
Zn17	Zn	0.135703	-1.483797	-0.150495
Zn18	Zn	0.635703	-0.983797	0.349505
O19	O	0.269887	-1.474089	0.114363
O20	O	0.769887	-0.974089	0.614363
C21	C	-0.032852	-1.492579	0.000100
C22	C	0.467148	-0.992579	0.500100
C23	C	-0.135247	-1.489871	0.000100
C24	C	0.364753	-0.989871	0.500100
C25	C	0.140965	-1.254201	0.000071
C26	C	0.640965	-0.754201	0.500071
C27	C	0.138254	-1.114784	0.000061
C28	C	0.638254	-0.614784	0.500061
C29	C	0.130436	-1.713377	0.000099
C30	C	0.630436	-1.213377	0.500099
C31	C	0.133147	-1.852794	0.000100
C32	C	0.633147	-1.352794	0.500100
C33	C	-0.510195	-1.479904	0.000064
C34	C	-0.010195	-0.979904	0.500064
C35	C	-0.405872	-1.482672	0.000075
C36	C	0.094128	-0.982672	0.500075
C37	C	-0.322724	-1.484887	0.000083
C38	C	0.177276	-0.984887	0.500083
C39	C	-0.218395	-1.487656	0.000091
C40	C	0.281605	-0.987656	0.500091
C41	C	0.304253	-1.474999	0.000070
C42	C	0.804253	-0.974999	0.500070
C43	C	0.406649	-1.477706	0.000061
C44	C	0.906649	-0.977706	0.500061
N45	N	0.135694	-1.483779	0.356205
N46	N	0.635694	-0.983779	0.856205
C47	C	0.220895	-1.034504	0.000057
C48	C	0.720895	-0.534504	0.500057
C49	C	0.218342	-0.903507	0.000081
C50	C	0.718342	-0.403507	0.500081
C51	C	0.050500	-0.933084	0.000108
C52	C	0.550500	-0.433084	0.500108
C53	C	0.053054	-1.064078	0.000094
C54	C	0.553054	-0.564078	0.500094
N55	N	0.135700	-1.483809	-0.356032
N56	N	0.635700	-0.983809	0.143968
C57	C	0.073570	-1.569043	0.428142
C58	C	0.573570	-1.069043	0.928142
C59	C	0.073570	-1.569056	0.572025
C60	C	0.573570	-1.069056	1.072025
C61	C	0.197827	-1.398535	0.572021
C62	C	0.697827	-0.898535	1.072021
C63	C	0.197822	-1.398518	0.428140
C64	C	0.697822	-0.898518	0.928140
H65	H	0.285637	-0.838147	0.000081
H66	H	0.785637	-0.338147	0.500081
N67	N	0.006578	-1.661036	0.649617
N68	N	0.506578	-1.161036	1.149617
H69	H	-0.032773	-1.715048	0.582209
H70	H	0.467227	-1.215048	1.082209
H71	H	0.042284	-1.716623	0.709287
H72	H	0.542284	-1.216623	1.209287
N73	N	0.312784	-1.089197	0.000021
N74	N	0.812784	-0.589197	0.500021
H75	H	0.364749	-1.018457	0.000023
H76	H	0.864749	-0.518457	0.500023
H77	H	0.317502	-1.142913	0.084750
H78	H	0.817502	-0.642913	0.584750
N79	N	-0.041391	-0.878394	0.000150
N80	N	0.458609	-0.378394	0.500150
H81	H	-0.030470	-0.783228	0.000158
H82	H	0.469530	-0.283228	0.500158
H83	H	-0.077596	-0.907741	-0.084581
H84	H	0.422404	-0.407741	0.415419
N85	N	-0.036084	-1.150678	0.000114
N86	N	0.463916	-0.650678	0.500114
H87	H	-0.090446	-1.098682	0.000129
H88	H	0.409554	-0.598682	0.500129
H89	H	-0.038683	-1.205671	-0.084624
H90	H	0.461317	-0.705671	0.415376
H91	H	0.022980	-1.638466	0.369576
H92	H	0.522980	-1.138466	0.869576
N93	N	0.264834	-1.306580	0.649608
N94	N	0.764834	-0.806580	1.149608
H95	H	0.255413	-1.319529	0.751673
H96	H	0.755413	-0.819529	1.251673
H97	H	0.330358	-1.321221	0.624439
H98	H	0.830358	-0.821221	1.124439
H99	H	0.248411	-1.329079	0.369565
H100	H	0.748411	-0.829079	0.869565
