data_functionalizedCrystal
_audit_creation_method	'MofGen! by Chris Wilmer'
_symmetry_space_group_name_H-M	'P1'
_symmetry_Int_Tables_number	1
_symmetry_cell_setting	triclinic
loop_
_symmetry_equiv_pos_as_xyz
  x,y,z
_cell_length_a	11.792241
_cell_length_b	19.188924
_cell_length_c	10.268362
_cell_angle_alpha	89.992651
_cell_angle_beta	89.999626
_cell_angle_gamma	83.667690
loop_
_atom_site_label
_atom_site_type_symbol
_atom_site_fract_x
_atom_site_fract_y
_atom_site_fract_z
O1	O	1.505473	0.095696	-0.108180
O2	O	1.174984	0.105558	-0.108211
O3	O	1.349769	-0.000975	-0.108180
O4	O	1.330687	0.202229	-0.108212
O5	O	1.349754	-0.000980	0.108421
O6	O	1.174968	0.105553	0.108389
O7	O	1.505457	0.095691	0.108420
Cu8	Cu	1.340212	0.100622	0.128182
Cu9	Cu	1.340229	0.100627	-0.127973
O10	O	1.330672	0.202224	0.108389
C11	C	1.132694	0.104936	0.000085
C12	C	1.006708	0.103082	0.000074
C13	C	0.776047	0.099672	0.000112
C14	C	0.904404	0.101567	0.000091
C15	C	1.349145	-0.026992	0.000122
C16	C	1.347294	-0.104507	0.000125
C17	C	1.346438	-0.140909	-0.117944
C18	C	1.344683	-0.213741	-0.117954
C19	C	1.343806	-0.250172	0.000112
C20	C	1.344655	-0.213761	0.118197
C21	C	1.346399	-0.140929	0.118203
N22	N	1.405648	-0.369486	0.087991
N23	N	1.403993	-0.438674	0.087977
C24	C	1.338549	-0.469610	0.000099
N25	N	1.274836	-0.428747	-0.087784
N26	N	1.276495	-0.359553	-0.087774
C27	C	1.341914	-0.329146	0.000118
C28	C	1.335788	-0.584985	-0.117990
C29	C	1.334026	-0.657819	-0.117995
C30	C	1.334010	-0.657838	0.118160
C31	C	1.335761	-0.585005	0.118161
C32	C	1.336655	-0.548583	0.000083
C33	C	1.547747	0.096313	0.000121
C34	C	1.673733	0.098167	0.000124
C35	C	1.331296	0.228241	0.000084
C36	C	1.333147	0.305756	0.000072
N37	N	1.340207	0.100618	0.308348
N38	N	1.340243	0.100626	-0.308139
C39	C	1.340224	0.100626	0.574019
C40	C	1.340211	0.100623	0.426181
H41	H	1.347163	-0.111259	-0.214093
F42	F	1.343771	-0.252490	-0.243625
H43	H	1.343938	-0.243427	0.214327
F44	F	1.347308	-0.102186	0.243875
H45	H	1.336510	-0.555329	-0.214136
H46	H	1.333323	-0.687455	-0.214145
F47	F	1.333071	-0.696604	0.243816
H48	H	1.336467	-0.555367	0.214306
