data_functionalizedCrystal
_audit_creation_method	'MofGen! by Chris Wilmer'
_symmetry_space_group_name_H-M	'P1'
_symmetry_Int_Tables_number	1
_symmetry_cell_setting	triclinic
loop_
_symmetry_equiv_pos_as_xyz
  x,y,z
_cell_length_a	17.038275
_cell_length_b	17.038272
_cell_length_c	7.540329
_cell_angle_alpha	89.996404
_cell_angle_beta	89.997743
_cell_angle_gamma	91.110915
loop_
_atom_site_label
_atom_site_type_symbol
_atom_site_fract_x
_atom_site_fract_y
_atom_site_fract_z
O1	O	-1.048751	-0.170523	0.147521
O2	O	-0.820939	-0.167818	0.147517
O3	O	-0.933491	-0.055265	0.147505
O4	O	-0.936199	-0.283076	0.147533
O5	O	-0.933487	-0.055264	-0.147460
O6	O	-0.820935	-0.167817	-0.147448
O7	O	-1.048747	-0.170522	-0.147444
Cu8	Cu	-0.934841	-0.169169	-0.174379
Cu9	Cu	-0.934846	-0.169171	0.174452
O10	O	-0.936195	-0.283075	-0.147432
C11	C	-0.791645	-0.165355	0.000034
C12	C	-0.704361	-0.158008	0.000032
C13	C	-0.210935	-0.112871	0.000023
C14	C	-0.292947	-0.119781	0.000015
C15	C	-0.329347	-0.194154	0.000033
C16	C	-0.283730	-0.261622	0.000041
C17	C	-0.201720	-0.254712	0.000036
C18	C	-0.576734	-0.218566	0.000035
C19	C	-0.658751	-0.225471	0.000045
C20	C	-0.667962	-0.083629	0.000016
C21	C	-0.585949	-0.076725	0.000022
C22	C	-0.540340	-0.144193	0.000021
C23	C	-0.413176	-0.201218	0.000030
C24	C	-0.456513	-0.137128	0.000011
C25	C	-0.931026	-0.025972	0.000022
C26	C	-0.923678	0.061312	0.000023
C27	C	-0.078041	-0.172986	0.000038
C28	C	-0.165325	-0.180334	0.000036
C29	C	-0.938660	-0.312369	0.000054
C30	C	-0.946008	-0.399652	0.000065
N31	N	-0.934843	-0.169168	-0.419727
C32	C	-0.991142	0.106922	0.000022
C33	C	-0.984233	0.188934	0.000039
C34	C	-0.909860	0.225334	0.000044
C35	C	-0.842391	0.179718	0.000049
C36	C	-0.849301	0.097708	0.000045
C37	C	-0.885449	0.472722	0.000067
C38	C	-0.878544	0.554738	0.000066
C39	C	-1.020387	0.563948	0.000059
C40	C	-1.027290	0.481936	0.000044
C41	C	-0.959821	0.436327	0.000059
C42	C	-0.902796	0.309163	0.000055
C43	C	-0.966886	0.352499	0.000061
N44	N	-0.934849	-0.169166	0.419800
H45	H	-0.313374	-0.322179	0.000044
H46	H	-1.075316	0.601091	0.000050
H47	H	-0.426872	-0.076574	0.000016
Cl48	Cl	-0.540196	0.016777	0.000063
Cl49	Cl	-0.725303	0.001183	0.000003
Cl50	Cl	-0.704509	-0.318976	0.000065
H51	H	-0.817978	0.584372	0.000041
H52	H	-1.087853	0.452305	0.000040
Cl53	Cl	-0.809300	0.354930	0.000070
Cl54	Cl	-1.060380	0.306738	0.000064
H55	H	-0.539609	-0.273504	0.000043
H56	H	-0.794364	0.060572	0.000046
Cl57	Cl	-0.144381	-0.339527	0.000041
H58	H	-0.442822	-0.261774	0.000050
Cl59	Cl	-1.084644	0.061170	-0.000002
H60	H	-1.039169	0.226066	0.000035
Cl61	Cl	-0.800630	0.415395	0.000091
H62	H	-0.781834	0.209361	0.000064
H63	H	-0.330080	-0.064844	-0.000004
Cl64	Cl	-0.165184	-0.019368	0.000007
