data_functionalizedCrystal
_audit_creation_method	'MofGen! by Chris Wilmer'
_symmetry_space_group_name_H-M	'P1'
_symmetry_Int_Tables_number	1
_symmetry_cell_setting	triclinic
loop_
_symmetry_equiv_pos_as_xyz
  x,y,z
_cell_length_a	29.839134
_cell_length_b	12.759393
_cell_length_c	12.759399
_cell_angle_alpha	90.031461
_cell_angle_beta	89.992138
_cell_angle_gamma	89.965658
loop_
_atom_site_label
_atom_site_type_symbol
_atom_site_fract_x
_atom_site_fract_y
_atom_site_fract_z
Zn1	Zn	0.686846	-0.594406	0.418413
Zn2	Zn	1.186846	-0.094406	0.918413
Zn3	Zn	0.686800	-0.418725	0.594130
Zn4	Zn	1.186800	0.081275	1.094130
Zn5	Zn	0.611716	-0.418698	0.418444
Zn6	Zn	1.111716	0.081302	0.918444
Zn7	Zn	0.611711	-0.594319	0.594028
Zn8	Zn	1.111711	-0.094319	1.094028
O9	O	0.649268	-0.506537	0.506254
O10	O	1.149268	-0.006537	1.006254
O11	O	0.749707	-0.571148	0.441752
O12	O	1.249707	-0.071148	0.941752
O13	O	0.676822	-0.271700	0.570880
O14	O	1.176822	0.228300	1.070880
O15	O	0.621704	-0.442032	0.271418
O16	O	1.121704	0.057968	0.771418
O17	O	0.749673	-0.442076	0.570851
O18	O	1.249673	0.057924	1.070851
O19	O	0.676901	-0.571123	0.271396
O20	O	1.176901	-0.071123	0.771396
O21	O	0.621658	-0.271681	0.441804
O22	O	1.121658	0.228319	0.941804
O23	O	0.548848	-0.441948	0.441705
O24	O	1.048848	0.058052	0.941705
O25	O	0.621696	-0.741352	0.570677
O26	O	1.121696	-0.241352	1.070677
O27	O	0.548845	-0.570976	0.570707
O28	O	1.048845	-0.070976	1.070707
O29	O	0.676897	-0.741415	0.441653
O30	O	1.176897	-0.241415	0.941653
O31	O	0.676818	-0.441992	0.741138
O32	O	1.176818	0.058008	1.241138
O33	O	0.621651	-0.571001	0.741063
O34	O	1.121651	-0.071001	1.241063
C35	C	0.532546	-0.506450	0.506199
C36	C	1.032546	-0.006450	1.006199
C37	C	0.482611	-0.506438	0.506201
C38	C	0.982611	-0.006438	1.006201
C39	C	0.649301	-0.780571	0.506150
C40	C	1.149301	-0.280571	1.006150
C41	C	0.649315	-0.897347	0.506106
C42	C	1.149315	-0.397347	1.006106
C43	C	0.678070	-1.061975	0.438873
C44	C	1.178070	-0.561975	0.938873
C45	C	0.678061	-0.952251	0.438914
C46	C	1.178061	-0.452251	0.938914
C47	C	0.620579	-0.952173	0.573270
C48	C	1.120579	-0.452173	1.073270
C49	C	0.620590	-1.061895	0.573233
C50	C	1.120590	-0.561895	1.073233
C51	C	0.126013	-0.439489	0.438983
C52	C	0.626013	0.060511	0.938983
C53	C	0.313686	-0.439426	0.438954
C54	C	0.813686	0.060574	0.938954
O55	O	0.337942	-0.382406	0.381714
O56	O	0.837942	0.117594	0.881714
N57	N	0.337166	-0.506491	0.506218
N58	N	0.837166	-0.006491	1.006218
C59	C	0.313725	-0.573582	0.573490
C60	C	0.813725	-0.073582	1.073490
O61	O	0.338002	-0.630631	0.630694
O62	O	0.838002	-0.130631	1.130694
C63	C	0.126053	-0.573650	0.573513
C64	C	0.626053	-0.073650	1.073513
C65	C	0.102575	-0.506573	0.506252
C66	C	0.602575	-0.006573	1.006252
C67	C	0.102536	-0.372419	0.371727
C68	C	0.602536	0.127581	0.871727
C69	C	0.055621	-0.372431	0.371739
C70	C	0.555621	0.127569	0.871739
C71	C	0.032183	-0.439515	0.439008
C72	C	0.532183	0.060485	0.939008
C73	C	0.055660	-0.506585	0.506264
C74	C	0.555660	-0.006585	1.006264
C75	C	0.102612	-0.640745	0.640779
C76	C	0.602612	-0.140745	1.140779
C77	C	0.055691	-0.640758	0.640777
C78	C	0.555691	-0.140758	1.140777
C79	C	0.032214	-0.573681	0.573516
C80	C	0.532214	-0.073681	1.073516
C81	C	-0.014694	-0.573681	0.573545
C82	C	0.485306	-0.073681	1.073545
N83	N	-0.038173	-0.506616	0.506281
N84	N	0.461827	-0.006616	1.006281
C85	C	-0.014735	-0.439533	0.439012
C86	C	0.485265	0.060467	0.939012
C87	C	0.412255	-0.573539	0.573474
C88	C	0.912255	-0.073539	1.073474
C89	C	0.459173	-0.573521	0.573470
C90	C	0.959173	-0.073521	1.073470
C91	C	0.459132	-0.439366	0.438932
C92	C	0.959132	0.060634	0.938932
C93	C	0.412213	-0.439380	0.438943
C94	C	0.912213	0.060620	0.938943
C95	C	0.388776	-0.506474	0.506210
C96	C	0.888776	-0.006474	1.006210
C97	C	-0.113261	-0.439564	0.439043
C98	C	0.386739	0.060436	0.939043
C99	C	-0.160181	-0.439579	0.439064
C100	C	0.339819	0.060421	0.939064
C101	C	-0.160135	-0.573737	0.573597
C102	C	0.339865	-0.073737	1.073597
C103	C	-0.113220	-0.573718	0.573581
C104	C	0.386780	-0.073718	1.073581
C105	C	-0.089784	-0.506628	0.506295
C106	C	0.410216	-0.006628	1.006295
O107	O	-0.038978	-0.630679	0.630746
O108	O	0.461022	-0.130679	1.130746
O109	O	-0.039021	-0.382509	0.381800
O110	O	0.460979	0.117491	0.881800
C111	C	0.172929	-0.439477	0.438971
C112	C	0.672929	0.060523	0.938971
C113	C	0.196406	-0.506548	0.506228
C114	C	0.696406	-0.006548	1.006228
C115	C	0.172968	-0.573631	0.573496
C116	C	0.672968	-0.073631	1.073496
C117	C	0.243324	-0.506529	0.506223
C118	C	0.743324	-0.006529	1.006223
C119	C	0.266762	-0.439446	0.438955
C120	C	0.766762	0.060554	0.938955
C121	C	0.243282	-0.372381	0.371691
C122	C	0.743282	0.127619	0.871691
C123	C	0.196367	-0.372394	0.371703
C124	C	0.696367	0.127606	0.871703
C125	C	0.196448	-0.640696	0.640761
C126	C	0.696448	-0.140696	1.140761
C127	C	0.243363	-0.640677	0.640744
C128	C	0.743363	-0.140677	1.140744
C129	C	0.266801	-0.573594	0.573475
C130	C	0.766801	-0.073594	1.073475
C131	C	0.766447	-0.506625	0.506309
C132	C	1.266447	-0.006625	1.006309
C133	C	0.816381	-0.506662	0.506333
C134	C	1.316381	-0.006662	1.006333
C135	C	0.649241	-0.506513	0.779221
C136	C	1.149241	-0.006513	1.279221
C137	C	0.649270	-0.506538	0.895998
C138	C	1.149270	-0.006538	1.395998
C139	C	0.649262	-0.233570	0.506281
C140	C	1.149262	0.266430	1.006281
C141	C	0.649335	-0.116794	0.506029
C142	C	1.149335	0.383206	1.006029
C143	C	0.649308	-0.506584	0.232220
C144	C	1.149308	-0.006584	0.732220
C145	C	0.649325	-0.506604	0.115444
C146	C	1.149325	-0.006604	0.615444
C147	C	0.678028	-0.439440	0.950864
C148	C	1.178028	0.060560	1.450864
C149	C	0.678057	-0.439475	1.060588
C150	C	1.178057	0.060525	1.560588
C151	C	0.620566	-0.573710	1.060570
C152	C	1.120566	-0.073710	1.560570
C153	C	0.620539	-0.573679	0.950848
C154	C	1.120539	-0.073679	1.450848
H155	H	0.701475	-1.106670	0.384150
H156	H	1.201475	-0.606670	0.884150
H157	H	0.393177	-0.628178	0.628255
H158	H	0.893177	-0.128178	1.128255
H159	H	0.701476	-0.384838	1.105255
H160	H	1.201476	0.115162	1.605255
H161	H	0.701460	-0.907623	0.384229
H162	H	1.201460	-0.407623	0.884229
H163	H	0.177369	-0.695326	0.695539
H164	H	0.677369	-0.195326	1.195539
H165	H	0.597175	-0.907462	0.627984
H166	H	1.097175	-0.407462	1.127984
Cl167	Cl	0.714148	-0.355037	0.881913
Cl168	Cl	1.214148	0.144963	1.381913
H169	H	0.597121	-0.628324	0.906173
H170	H	1.097121	-0.128324	1.406173
H171	H	0.597173	-0.628372	1.105242
H172	H	1.097173	-0.128372	1.605242
H173	H	0.177256	-0.317773	0.316931
H174	H	0.677256	0.182227	0.816931
H175	H	0.036611	-0.695399	0.695552
H176	H	0.536611	-0.195399	1.195552
H177	H	0.262474	-0.695298	0.695526
H178	H	0.762474	-0.195298	1.195526
H179	H	-0.179294	-0.384954	0.384291
H180	H	0.320706	0.115046	0.884291
Cl181	Cl	0.584466	-1.130815	0.657673
Cl182	Cl	1.084466	-0.630815	1.157673
Cl183	Cl	-0.083806	-0.355218	0.354457
Cl184	Cl	0.416194	0.144782	0.854457
Cl185	Cl	0.131993	-0.288075	0.287147
Cl186	Cl	0.631993	0.211925	0.787147
Cl187	Cl	0.026113	-0.288113	0.287165
Cl188	Cl	0.526113	0.211887	0.787165
H189	H	0.478223	-0.384743	0.384160
H190	H	0.978223	0.115257	0.884160
Cl191	Cl	0.488682	-0.657835	0.658045
Cl192	Cl	0.988682	-0.157835	1.158045
Cl193	Cl	0.382704	-0.355054	0.354381
Cl194	Cl	0.882704	0.144946	0.854381
Cl195	Cl	0.132115	-0.725078	0.725339
Cl196	Cl	0.632115	-0.225078	1.225339
H197	H	-0.094103	-0.628330	0.628358
H198	H	0.405897	-0.128330	1.128358
H199	H	0.262374	-0.317756	0.316922
H200	H	0.762374	0.182244	0.816922
Cl201	Cl	-0.189609	-0.658053	0.658172
Cl202	Cl	0.310391	-0.158053	1.158172
