data_functionalizedCrystal
_audit_creation_method	'MofGen! by Chris Wilmer'
_symmetry_space_group_name_H-M	'P1'
_symmetry_Int_Tables_number	1
_symmetry_cell_setting	triclinic
loop_
_symmetry_equiv_pos_as_xyz
  x,y,z
_cell_length_a	16.109301
_cell_length_b	11.792241
_cell_length_c	14.586319
_cell_angle_alpha	89.996059
_cell_angle_beta	89.999213
_cell_angle_gamma	83.827448
loop_
_atom_site_label
_atom_site_type_symbol
_atom_site_fract_x
_atom_site_fract_y
_atom_site_fract_z
O1	O	1.103817	0.145885	-0.076183
O2	O	0.861841	0.164040	-0.076197
O3	O	0.988701	-0.010259	-0.076183
O4	O	0.976957	0.320185	-0.076197
O5	O	0.988692	-0.010262	0.076298
O6	O	0.861832	0.164038	0.076284
O7	O	1.103808	0.145883	0.076298
Cu8	Cu	0.982819	0.154960	0.090214
Cu9	Cu	0.982830	0.154963	-0.090113
O10	O	0.976948	0.320182	0.076284
C11	C	0.830858	0.163304	0.000041
C12	C	0.738552	0.161099	0.000036
C13	C	0.987959	-0.052545	0.000057
C14	C	0.985751	-0.178539	0.000056
C15	C	0.516743	0.259398	0.000042
C16	C	0.430012	0.257318	0.000048
C17	C	0.448914	0.050517	0.000053
C18	C	0.535642	0.052599	0.000054
C19	C	0.569554	0.157043	0.000044
C20	C	0.396095	0.152880	0.000049
C21	C	0.302059	0.150624	0.000056
C22	C	0.663597	0.159300	0.000039
C23	C	0.981691	-0.409216	0.000040
C24	C	0.983947	-0.280850	0.000049
C25	C	1.134791	0.146619	0.000058
C26	C	1.227097	0.148824	0.000057
C27	C	0.977690	0.362468	0.000042
C28	C	0.979898	0.488462	0.000037
N29	N	0.982818	0.154957	0.217045
N30	N	0.982838	0.154957	-0.216944
C31	C	1.039011	0.077803	0.452058
C32	C	1.039013	0.077800	0.548039
C33	C	0.926639	0.232115	0.548036
C34	C	0.926633	0.232111	0.452057
C35	C	0.982824	0.154957	0.404070
C36	C	0.982832	0.154957	0.596031
C37	C	0.982834	0.154955	0.700098
C38	C	0.982821	0.154957	0.299996
H39	H	0.387016	0.340666	0.000049
C40	C	1.100046	-0.006097	0.400123
C41	C	1.149236	-0.073686	0.462697
C42	C	1.205462	-0.151002	0.414891
H43	H	1.134915	0.034607	0.362671
H44	H	1.069944	-0.053418	0.362708
H45	H	1.179335	-0.026371	0.500096
H46	H	1.114389	-0.114415	0.500151
H47	H	1.175360	-0.198323	0.377477
H48	H	1.240326	-0.110289	0.377441
H49	H	1.238839	-0.196877	0.457340
C50	C	1.099885	-0.006096	0.600189
C51	C	1.055292	-0.075615	0.655279
C52	C	1.111340	-0.152928	0.703322
H53	H	1.134698	0.034613	0.637701
H54	H	1.133334	-0.052109	0.557889
H55	H	1.021857	-0.029607	0.697573
H56	H	1.020482	-0.116348	0.617789
H57	H	1.144789	-0.198941	0.661022
H58	H	1.146150	-0.112210	0.740829
H59	H	1.081091	-0.200112	0.740699
C60	C	0.865734	0.315837	0.600304
C61	C	0.877780	0.299352	0.694631
C62	C	0.821698	0.376470	0.742806
H63	H	0.810155	0.303567	0.584694
H64	H	0.875112	0.391612	0.584618
H65	H	0.868396	0.223595	0.710311
H66	H	0.933348	0.311631	0.710268
H67	H	0.831076	0.452245	0.727119
H68	H	0.766123	0.364193	0.727188
H69	H	0.829869	0.365303	0.806811
C70	C	0.865724	0.316069	0.399998
C71	C	0.879723	0.427607	0.423314
C72	C	0.823637	0.504972	0.375367
H73	H	0.810148	0.303876	0.415694
H74	H	0.873770	0.305091	0.335955
H75	H	0.871669	0.438581	0.487342
H76	H	0.935287	0.439836	0.407615
H77	H	0.831684	0.493994	0.311324
H78	H	0.768065	0.492769	0.391067
H79	H	0.833133	0.580659	0.391173
C80	C	0.553402	0.372906	0.000088
C81	C	0.488584	0.462098	0.000113
C82	C	0.522320	0.566680	0.000170
H83	H	0.586830	0.378187	-0.053071
H84	H	0.586818	0.378073	0.053283
H85	H	0.455182	0.456934	-0.053076
H86	H	0.455150	0.456855	0.053268
H87	H	0.555735	0.571847	0.053365
H88	H	0.555748	0.571948	-0.052989
H89	H	0.478347	0.627209	0.000196
H90	H	0.578644	-0.030757	0.000057
C91	C	0.411932	-0.062759	0.000008
C92	C	0.324675	-0.042678	-0.000019
C93	C	0.290581	-0.147002	-0.000075
H94	H	0.429934	-0.104994	0.053168
H95	H	0.429983	-0.104909	-0.053186
H96	H	0.306630	-0.000546	0.053170
H97	H	0.306650	-0.000460	-0.053175
H98	H	0.308633	-0.189152	-0.053270
H99	H	0.308589	-0.189230	0.053085
H100	H	0.231374	-0.133392	-0.000102
