data_functionalizedCrystal
_audit_creation_method	'MofGen! by Chris Wilmer'
_symmetry_space_group_name_H-M	'P1'
_symmetry_Int_Tables_number	1
_symmetry_cell_setting	triclinic
loop_
_symmetry_equiv_pos_as_xyz
  x,y,z
_cell_length_a	27.440280
_cell_length_b	15.698487
_cell_length_c	15.698487
_cell_angle_alpha	90.000712
_cell_angle_beta	60.006887
_cell_angle_gamma	59.999769
loop_
_atom_site_label
_atom_site_type_symbol
_atom_site_fract_x
_atom_site_fract_y
_atom_site_fract_z
Zr1	Zr	0.533399	-0.111788	0.820730
O2	O	0.635057	-0.247798	0.684738
O3	O	0.431739	-0.070095	0.862403
O4	O	0.533398	-0.247803	0.862425
O5	O	0.533400	0.070091	0.684716
O6	O	0.533400	-0.247805	1.002607
O7	O	0.533398	-0.070090	0.684716
O8	O	0.351550	0.070082	1.002567
O9	O	0.715250	-0.247797	0.684756
O10	O	0.473556	-0.052313	0.984811
O11	O	0.473556	0.052304	0.880196
O12	O	0.593246	-0.156925	0.880222
O13	O	0.593246	-0.052308	0.775607
Zr14	Zr	0.533406	0.111781	1.044304
Zr15	Zr	0.533403	-0.111791	1.044303
Zr16	Zr	0.533403	0.111785	0.820731
Zr17	Zr	0.661297	-0.111785	0.820759
Zr18	Zr	0.405508	0.111779	1.044275
O19	O	0.635066	0.070088	1.002631
O20	O	0.635062	-0.247803	1.002629
O21	O	0.635062	0.070093	0.684739
O22	O	0.431748	0.247792	1.180296
O23	O	0.431743	-0.070100	1.180295
O24	O	0.431743	0.247797	0.862404
O25	O	0.533405	-0.070098	1.180318
O26	O	0.533407	0.247797	1.002608
O27	O	0.533405	0.247799	0.862427
O28	O	0.533407	0.070083	1.180318
O29	O	0.715252	-0.247800	0.862466
O30	O	0.351553	0.247793	1.002567
O31	O	0.351555	0.247790	1.180278
O32	O	0.351553	0.070080	1.180277
O33	O	0.715252	-0.070086	0.684757
O34	O	0.715255	-0.070089	0.862467
O35	O	0.473559	0.156918	0.984812
O36	O	0.473559	0.052301	1.089427
O37	O	0.593249	-0.052311	0.984838
O38	O	0.593249	0.052306	0.880223
C39	C	0.373422	-0.000007	0.932481
C40	C	0.319126	-0.000008	0.932469
C41	C	0.533399	0.000001	0.652862
C42	C	0.533397	0.000002	0.557949
C43	C	0.533406	0.279652	0.932518
C44	C	0.533408	0.374564	0.932518
C45	C	-0.017616	-0.054603	0.987154
C46	C	-0.068640	-0.054601	0.987163
O47	O	-0.095046	-0.101012	1.033637
N48	N	-0.094156	0.000006	0.932555
C49	C	-0.068650	0.054623	0.877941
O50	O	-0.095040	0.101071	0.831494
C51	C	-0.017631	0.054625	0.877938
C52	C	0.007887	0.000006	0.932542
C53	C	0.007902	-0.109217	1.041754
C54	C	0.058923	-0.109221	1.041743
C55	C	0.084427	-0.054612	0.987131
C56	C	0.058909	0.000002	0.932531
C57	C	0.007870	0.109247	0.823332
C58	C	0.058893	0.109246	0.823334
C59	C	0.084411	0.054627	0.877938
C60	C	0.135433	0.054607	0.877908
N61	N	0.160950	0.000001	0.932517
C62	C	0.135446	-0.054609	0.987129
C63	C	-0.175796	0.054615	0.877953
C64	C	-0.226811	0.054607	0.877949
C65	C	-0.226797	-0.054615	0.987173
C66	C	-0.175778	-0.054613	0.987170
C67	C	-0.150279	0.000008	0.932562
C68	C	0.242595	-0.054615	0.987100
C69	C	0.293623	-0.054617	0.987080
C70	C	0.293602	0.054609	0.877861
C71	C	0.242582	0.054607	0.877876
C72	C	0.217078	-0.000006	0.932503
O73	O	0.161870	0.100998	0.831461
O74	O	0.161835	-0.101039	1.033580
C75	C	0.693383	-0.000000	0.932553
C76	C	0.747679	0.000001	0.932565
C77	C	0.533399	-0.279659	0.932516
C78	C	0.533397	-0.374571	0.932516
C79	C	0.533396	0.548350	0.932518
C80	C	0.533400	0.451646	0.932521
C81	C	0.533409	-0.000008	0.384164
C82	C	0.533406	-0.000004	0.480868
C83	C	0.533406	-0.000008	1.212172
C84	C	0.533408	-0.000009	1.307085
C85	C	0.373426	-0.000011	1.212136
C86	C	0.319131	-0.000014	1.307036
C87	C	0.373426	0.279649	0.932482
C88	C	0.319131	0.374560	0.932470
C89	C	0.373430	0.279644	1.212137
C90	C	0.319136	0.374554	1.307038
C91	C	0.693375	-0.279651	0.652897
C92	C	0.747669	-0.374561	0.557996
C93	C	0.693379	0.000004	0.652898
C94	C	0.747674	0.000007	0.557997
C95	C	0.693379	-0.279655	0.932552
C96	C	0.747674	-0.374567	0.932564
C97	C	0.293632	-0.054632	1.296994
C98	C	0.242624	-0.054655	1.386154
C99	C	0.217112	-0.000053	1.485356
C100	C	0.242616	0.054566	1.495396
C101	C	0.293627	0.054583	1.406237
C102	C	0.293635	0.473748	0.987073
C103	C	0.242627	0.562936	0.987058
C104	C	0.217112	0.552933	0.932445
C105	C	0.242613	0.453735	0.877836
C106	C	0.293624	0.364549	0.877845
C107	C	0.293640	0.364516	1.406222
C108	C	0.242632	0.453685	1.495399
C109	C	0.217119	0.552892	1.485391
C110	C	0.242621	0.562928	1.386197
C111	C	0.293631	0.473760	1.297021
C112	C	0.773172	-0.364523	0.458812
C113	C	0.824195	-0.453692	0.369635
C114	C	0.849710	-0.552899	0.379643
C115	C	0.824205	-0.562935	0.478837
C116	C	0.773187	-0.473767	0.568012
C117	C	0.773178	0.054615	0.568040
C118	C	0.824201	0.054614	0.478879
C119	C	0.849715	0.000010	0.379678
C120	C	0.824208	-0.054606	0.369638
C121	C	0.773190	-0.054610	0.458797
C122	C	0.773173	-0.364531	0.987187
C123	C	0.824182	-0.453701	0.987219
C124	C	0.849694	-0.552907	0.932620
C125	C	0.824190	-0.562941	0.877995
C126	C	0.773179	-0.473772	0.877971
H127	H	0.314400	-0.099099	1.031545
N128	N	0.321148	0.257528	1.417047
H129	H	0.372358	0.218094	1.382489
H130	H	0.312218	0.218173	1.382505
N131	N	0.745685	-0.484614	0.819045
H132	H	0.784616	-0.524015	0.742664
H133	H	0.709488	-0.413045	0.827385
H134	H	0.844959	0.099093	0.487075
H135	H	-0.247576	0.099069	0.833471
H136	H	0.221841	0.643714	1.378063
H137	H	0.221836	0.099020	1.576178
N138	N	0.904734	0.000039	0.283525
H139	H	0.886979	0.031126	0.240600
H140	H	0.947054	-0.073935	0.240681
H141	H	0.844990	-0.099063	0.288856
N142	N	-0.019600	-0.168122	1.100663
H143	H	0.004314	-0.202713	1.135245
H144	H	-0.010723	-0.223026	1.050528
H145	H	0.752426	-0.099076	0.450606
N146	N	0.851710	-0.669944	0.819109
H147	H	0.887896	-0.724902	0.827417
H148	H	0.872845	-0.678211	0.742743
H149	H	-0.012899	0.153725	0.778869
H150	H	0.752409	-0.283760	1.031647
H151	H	0.891253	-0.625497	0.307022
H152	H	0.314404	-0.099107	1.216227
N153	N	0.851681	-0.442866	1.046140
H154	H	0.827781	-0.366487	1.080713
H155	H	0.902893	-0.477488	0.996018
N156	N	0.086392	0.168159	0.764428
H157	H	0.137600	0.118080	0.709472
H158	H	0.077473	0.223111	0.814573
H159	H	0.221865	-0.099132	1.377959
N160	N	0.745667	-0.484594	0.674991
H161	H	0.754536	-0.450033	0.714451
H162	H	0.769583	-0.560991	0.667708
H163	H	0.752408	0.099088	0.648807
N164	N	0.904710	-0.649070	0.932667
H165	H	0.947037	-0.649097	0.901606
H166	H	0.916952	-0.713397	0.889812
N167	N	0.215091	-0.113517	1.046018
H168	H	0.239006	-0.148112	1.080599
H169	H	0.223963	-0.168417	0.995888
N170	N	0.162093	-0.000081	1.581511
H171	H	0.119765	0.030992	1.581529
H172	H	0.149852	0.042778	1.645833
N173	N	0.086442	-0.168130	1.100640
H174	H	0.062536	-0.202717	1.135235
H175	H	0.077569	-0.117991	1.155535
N176	N	0.321102	0.257589	0.818933
H177	H	0.312223	0.218133	0.868993
H178	H	0.372303	0.218225	0.763974
N179	N	-0.148256	-0.113523	1.046062
H180	H	-0.172157	-0.148118	1.080653
H181	H	-0.157130	-0.063385	1.100960
N182	N	0.215121	0.442843	1.602376
H183	H	0.178935	0.514378	1.657358
H184	H	0.254083	0.403391	1.610643
H185	H	-0.247572	-0.099080	1.031642
N186	N	0.851725	-0.669938	0.489628
H187	H	0.902935	-0.709367	0.455070
H188	H	0.842799	-0.709277	0.455059
N189	N	-0.148293	0.113526	0.819046
H190	H	-0.172202	0.148114	0.784455
H191	H	-0.097083	0.063390	0.764147
N192	N	0.215127	0.669919	1.045964
H193	H	0.239028	0.662715	1.080569
H194	H	0.163915	0.709302	1.100851
H195	H	0.221831	0.445606	0.833372
H196	H	0.314378	0.099067	0.833394
N197	N	0.215066	0.113496	0.818964
H198	H	0.238970	0.148084	0.784361
H199	H	0.163857	0.168401	0.869102
N200	N	0.321126	0.113495	1.417081
H201	H	0.357315	0.105224	1.345552
H202	H	0.342250	0.084809	1.456523
N203	N	0.321147	0.484552	1.045983
H204	H	0.297251	0.560927	1.080564
H205	H	0.372359	0.449927	0.995852
N206	N	0.162102	0.649062	1.581578
H207	H	0.149823	0.627640	1.645926
H208	H	0.119802	0.691947	1.581526
H209	H	0.175576	0.625563	0.932446
H210	H	0.314384	0.481948	1.216265
N211	N	0.745655	-0.257528	0.448002
H212	H	0.769561	-0.264715	0.371632
H213	H	0.754529	-0.218145	0.482633
H214	H	0.844952	-0.445500	0.288875
