data_functionalizedCrystal
_audit_creation_method	'MofGen! by Chris Wilmer'
_symmetry_space_group_name_H-M	'P1'
_symmetry_Int_Tables_number	1
_symmetry_cell_setting	triclinic
loop_
_symmetry_equiv_pos_as_xyz
  x,y,z
_cell_length_a	18.215407
_cell_length_b	12.759394
_cell_length_c	18.215399
_cell_angle_alpha	90.027685
_cell_angle_beta	90.016824
_cell_angle_gamma	90.015285
loop_
_atom_site_label
_atom_site_type_symbol
_atom_site_fract_x
_atom_site_fract_y
_atom_site_fract_z
Zn1	Zn	1.125101	-0.418240	0.416130
Zn2	Zn	1.625101	0.081760	0.916130
Zn3	Zn	1.125038	-0.593945	0.293069
Zn4	Zn	1.625038	-0.093945	0.793069
Zn5	Zn	1.002041	-0.418281	0.293077
Zn6	Zn	1.502041	0.081719	0.793077
Zn7	Zn	1.002022	-0.593879	0.416094
Zn8	Zn	1.502022	-0.093879	0.916094
O9	O	1.063550	-0.506086	0.354592
O10	O	1.563550	-0.006086	0.854592
O11	O	1.228077	-0.441557	0.399817
O12	O	1.728077	0.058443	0.899817
O13	O	1.108703	-0.570688	0.190086
O14	O	1.608703	-0.070688	0.690086
O15	O	1.018399	-0.271255	0.309418
O16	O	1.518399	0.228745	0.809418
O17	O	1.228031	-0.570647	0.309405
O18	O	1.728031	-0.070647	0.809405
O19	O	1.108812	-0.271224	0.399825
O20	O	1.608812	0.228776	0.899825
O21	O	1.018338	-0.441629	0.190092
O22	O	1.518338	0.058371	0.690092
O23	O	0.899054	-0.441565	0.309384
O24	O	1.399054	0.058435	0.809384
O25	O	1.018367	-0.570535	0.519083
O26	O	1.518367	-0.070535	1.019083
O27	O	0.899040	-0.570575	0.399764
O28	O	1.399040	-0.070575	0.899764
O29	O	1.108793	-0.441494	0.519109
O30	O	1.608793	0.058506	1.019109
O31	O	1.108685	-0.740957	0.309370
O32	O	1.608685	-0.240957	0.809370
O33	O	1.018305	-0.740909	0.399756
O34	O	1.518305	-0.240909	0.899756
C35	C	0.872344	-0.506068	0.354571
C36	C	1.372344	-0.006068	0.854571
C37	C	0.790545	-0.506086	0.354580
C38	C	1.290545	-0.006086	0.854580
C39	C	1.063506	-0.779054	0.354575
C40	C	1.563506	-0.279054	0.854575
C41	C	1.063555	-0.895830	0.354592
C42	C	1.563555	-0.395830	0.854592
C43	C	0.602363	-0.573367	0.401582
C44	C	1.102363	-0.073367	0.901582
C45	C	0.525505	-0.573370	0.401591
C46	C	1.025505	-0.073370	0.901591
C47	C	0.525489	-0.438824	0.307619
C48	C	1.025489	0.061176	0.807619
C49	C	0.602347	-0.438816	0.307614
C50	C	1.102347	0.061184	0.807614
C51	C	0.640782	-0.506094	0.354594
C52	C	1.140782	-0.006094	0.854594
C53	C	0.487066	-0.506105	0.354608
C54	C	0.987066	-0.006105	0.854608
C55	C	0.403732	-0.506108	0.354618
C56	C	0.903732	-0.006108	0.854618
C57	C	0.724121	-0.506090	0.354586
C58	C	1.224121	-0.006090	0.854586
C59	C	1.157738	-0.895827	0.260543
C60	C	1.657738	-0.395827	0.760543
C61	C	1.204848	-0.950687	0.213528
C62	C	1.704848	-0.450687	0.713528
C63	C	1.204891	-1.060408	0.213548
C64	C	1.704891	-0.560408	0.713548
C65	C	1.157820	-1.115273	0.260590
C66	C	1.657820	-0.615273	0.760590
C67	C	1.110710	-1.060414	0.307605
C68	C	1.610710	-0.560414	0.807605
C69	C	1.110670	-0.950690	0.307579
C70	C	1.610670	-0.450690	0.807579
C71	C	1.016532	-1.060417	0.401656
C72	C	1.516532	-0.560417	0.901656
C73	C	1.016484	-0.950695	0.401634
C74	C	1.516484	-0.450695	0.901634
C75	C	0.969461	-1.115281	0.448698
C76	C	1.469461	-0.615281	0.948698
C77	C	0.922345	-1.060422	0.495711
C78	C	1.422345	-0.560422	0.995711
C79	C	0.922303	-0.950694	0.495689
C80	C	1.422303	-0.450694	0.995689
C81	C	0.969373	-0.895836	0.448649
C82	C	1.469373	-0.395836	0.948649
C83	C	1.255503	-0.506105	0.354614
C84	C	1.755503	-0.006105	0.854614
C85	C	1.337302	-0.506113	0.354623
C86	C	1.837302	-0.006113	0.854623
C87	C	1.063585	-0.506002	0.546545
C88	C	1.563585	-0.006002	1.046545
C89	C	1.063600	-0.505966	0.628344
C90	C	1.563600	-0.005966	1.128344
C91	C	1.063615	-0.232053	0.354626
C92	C	1.563615	0.267947	0.854626
C93	C	1.063642	-0.115276	0.354641
C94	C	1.563642	0.384724	0.854641
C95	C	1.063558	-0.506094	0.163386
C96	C	1.563558	-0.006094	0.663386
C97	C	1.063686	-0.505834	0.081588
C98	C	1.563686	-0.005834	0.581588
C99	C	1.016586	-0.438720	0.816542
C100	C	1.516586	0.061280	1.316542
C101	C	1.016599	-0.438699	0.893401
C102	C	1.516599	0.061301	1.393401
C103	C	1.110702	-0.573087	0.893384
C104	C	1.610702	-0.073087	1.393384
C105	C	1.110685	-0.573113	0.816527
C106	C	1.610685	-0.073113	1.316527
C107	C	1.063628	-0.505923	0.778108
C108	C	1.563628	-0.005923	1.278108
C109	C	1.063658	-0.505877	0.931824
C110	C	1.563658	-0.005877	1.431824
C111	C	1.063672	-0.505854	1.015158
C112	C	1.563672	-0.005854	1.515158
C113	C	1.063613	-0.505947	0.694769
C114	C	1.563613	-0.005947	1.194769
H115	H	0.633655	-0.628146	0.439838
H116	H	1.133655	-0.128146	0.939838
H117	H	0.494228	-0.628150	0.439853
H118	H	0.994228	-0.128150	0.939853
H119	H	1.157698	-0.806486	0.260513
H120	H	1.657698	-0.306486	0.760513
H121	H	0.884027	-1.105102	0.534013
H122	H	1.384027	-0.605102	1.034013
N123	N	1.255620	-0.891513	0.162796
N124	N	1.755620	-0.391513	0.662796
H125	H	1.248447	-0.813680	0.169914
H126	H	1.748447	-0.313680	0.669914
H127	H	1.244203	-0.910763	0.110230
H128	H	1.744203	-0.410763	0.610230
H129	H	0.978270	-0.384010	0.785264
H130	H	1.478270	0.115990	1.285264
N131	N	0.969507	-1.233623	0.448726
N132	N	1.469507	-0.733623	0.948726
H133	H	1.006491	-1.260054	0.411803
H134	H	1.506491	-0.760054	0.911803
H135	H	0.919013	-1.260038	0.435187
H136	H	1.419013	-0.760038	0.935187
H137	H	0.978292	-0.383976	0.924691
H138	H	1.478292	0.116024	1.424691
H139	H	1.149014	-0.627790	0.924674
H140	H	1.649014	-0.127790	1.424674
H141	H	0.494186	-0.384051	0.269369
H142	H	0.994186	0.115949	0.769369
N143	N	1.157873	-1.233615	0.260611
N144	N	1.657873	-0.733615	0.760611
H145	H	1.107407	-1.260122	0.247046
H146	H	1.607407	-0.760122	0.747046
H147	H	1.171414	-1.259887	0.311124
H148	H	1.671414	-0.759887	0.811124
N149	N	0.643791	-0.366240	0.256943
N150	N	1.143791	0.133760	0.756943
H151	H	0.607781	-0.323624	0.227180
H152	H	1.107781	0.176376	0.727180
H153	H	0.675666	-0.408935	0.222832
H154	H	1.175666	0.091065	0.722832
N155	N	1.161425	-0.645606	0.775072
N156	N	1.661425	-0.145606	1.275072
H157	H	1.214014	-0.629287	0.788451
H158	H	1.714014	-0.129287	1.288451
H159	H	1.154210	-0.635397	0.720566
H160	H	1.654210	-0.135397	1.220566
N161	N	0.871494	-0.891526	0.546403
N162	N	1.371494	-0.391526	1.046403
H163	H	0.841686	-0.942936	0.576204
H164	H	1.341686	-0.442936	1.076204
H165	H	0.837432	-0.846077	0.516411
H166	H	1.337432	-0.346077	1.016411
H167	H	1.243257	-1.105074	0.175267
H168	H	1.743257	-0.605074	0.675267
H169	H	0.969339	-0.806495	0.448621
H170	H	1.469339	-0.306495	0.948621
