data_functionalizedCrystal
_audit_creation_method	'MofGen! by Chris Wilmer'
_symmetry_space_group_name_H-M	'P1'
_symmetry_Int_Tables_number	1
_symmetry_cell_setting	triclinic
loop_
_symmetry_equiv_pos_as_xyz
  x,y,z
_cell_length_a	6.817900
_cell_length_b	13.923258
_cell_length_c	9.582889
_cell_angle_alpha	84.648570
_cell_angle_beta	111.207298
_cell_angle_gamma	81.871755
loop_
_atom_site_label
_atom_site_type_symbol
_atom_site_fract_x
_atom_site_fract_y
_atom_site_fract_z
V1	V	-4.008562	0.302632	-0.210212
V2	V	-3.508562	0.802632	0.289788
O3	O	-3.955284	0.297055	0.006852
O4	O	-3.455284	0.797055	0.506852
O5	O	-3.999768	0.300387	-0.413690
O6	O	-3.499768	0.800387	0.086310
O7	O	-3.934173	0.434701	-0.208405
O8	O	-3.434173	0.934701	0.291595
O9	O	-4.021333	0.161810	-0.199855
O10	O	-3.521333	0.661810	0.300145
V11	V	-4.490425	0.285810	-0.184080
V12	V	-3.990425	0.785810	0.315920
O13	O	-4.273460	0.339533	-0.267534
O14	O	-3.773460	0.839533	0.232466
O15	O	-4.675724	0.248910	-0.126758
O16	O	-4.175724	0.748910	0.373242
O17	O	-4.276012	0.288056	0.019397
O18	O	-3.776012	0.788056	0.519397
O19	O	-4.661100	0.291388	-0.401144
O20	O	-4.161100	0.791388	0.098856
O21	O	-4.595051	0.426633	-0.194438
O22	O	-4.095051	0.926633	0.305562
O23	O	-4.341607	0.153742	-0.185888
O24	O	-3.841607	0.653742	0.314112
C25	C	-3.855244	0.295567	-0.463249
C26	C	-3.355244	0.795567	0.036751
C27	C	-3.929168	0.294611	-0.629603
C28	C	-3.429168	0.794611	-0.129603
C29	C	-4.167554	0.121540	-0.192912
C30	C	-3.667554	0.621540	0.307088
C31	C	-4.126066	0.013574	-0.193036
C32	C	-3.626066	0.513574	0.306964
C33	C	-4.050201	-0.184075	-0.193515
C34	C	-3.550201	0.315925	0.306485
C35	C	-3.868165	-0.227494	-0.200774
C36	C	-3.368165	0.272506	0.299226
C37	C	-3.825950	-0.337473	-0.201041
C38	C	-3.325950	0.162527	0.298959
C39	C	-4.092425	-0.074087	-0.193248
C40	C	-3.592425	0.425913	0.306752
C41	C	-3.771570	0.466897	-0.201385
C42	C	-3.271570	0.966897	0.298615
C43	C	-3.792295	0.574863	-0.201254
C44	C	-3.292295	1.074863	0.298746
C45	C	-4.083880	0.292873	0.068948
C46	C	-3.583880	0.792873	0.568948
C47	C	-3.989194	0.293835	0.235302
C48	C	-3.489194	0.793835	0.735302
H49	H	-3.744022	-0.182070	-0.206786
H50	H	-3.244022	0.317930	0.293214
F51	F	-4.212459	-0.243444	-0.185665
F52	F	-3.712459	0.256556	0.314335
