data_functionalizedCrystal
_audit_creation_method	'MofGen! by Chris Wilmer'
_symmetry_space_group_name_H-M	'P1'
_symmetry_Int_Tables_number	1
_symmetry_cell_setting	triclinic
loop_
_symmetry_equiv_pos_as_xyz
  x,y,z
_cell_length_a	6.817900
_cell_length_b	10.992723
_cell_length_c	10.943624
_cell_angle_alpha	91.800721
_cell_angle_beta	108.838799
_cell_angle_gamma	108.770285
loop_
_atom_site_label
_atom_site_type_symbol
_atom_site_fract_x
_atom_site_fract_y
_atom_site_fract_z
V1	V	-4.115144	-0.177729	-0.402540
O2	O	-4.073221	0.008575	-0.394889
O3	O	-4.092750	-0.352440	-0.399776
O4	O	-4.093112	-0.174980	-0.578106
O5	O	-4.072856	-0.170113	-0.215323
V6	V	-4.591986	-0.155447	-0.380149
O7	O	-4.391059	-0.226607	-0.451657
O8	O	-4.766268	-0.106568	-0.331032
O9	O	-4.391174	0.019264	-0.382913
O10	O	-4.751306	-0.341751	-0.387800
O11	O	-4.751671	-0.163062	-0.567365
O12	O	-4.390811	-0.158196	-0.204582
C13	C	-3.943224	-0.395031	-0.393422
C14	C	-4.006376	-0.537860	-0.392333
C15	C	-4.318320	-0.748800	-0.398073
C16	C	-4.253046	-0.600320	-0.399705
C17	C	-3.983706	-0.607062	-0.511915
C18	C	-4.050868	-0.755735	-0.510929
C19	C	-3.918962	-0.717482	-0.264109
C20	C	-3.856607	-0.568760	-0.263757
C21	C	-3.943685	-0.168662	-0.620900
C22	C	-4.007127	-0.167570	-0.764426
C23	C	-3.851971	-0.160219	-0.841574
C24	C	-4.041114	-0.269331	-0.947557
C25	C	-3.931053	-0.056526	-0.914184
C26	C	-4.195480	-0.276784	-0.868533
C27	C	-4.085339	-0.063882	-0.835136
C28	C	-4.274618	-0.173025	-0.941089
C29	C	-4.204042	0.061849	-0.389262
C30	C	-4.120130	0.204676	-0.390361
C31	C	-4.203580	-0.164518	-0.161782
C32	C	-4.119376	-0.165603	-0.018254
H33	H	-3.672781	-0.154950	-0.798126
H34	H	-4.277765	-0.553177	-0.314234
H35	H	-3.819888	0.036539	-0.934952
C36	C	-4.109560	0.053449	-0.768938
H37	H	-4.214152	0.023546	-0.726650
H38	H	-3.970458	0.105440	-0.706339
H39	H	-4.159034	0.103746	-0.832991
H40	H	-4.306679	-0.369974	-0.847982
H41	H	-4.375685	-0.773974	-0.312091
C42	C	-3.971999	-0.751889	-0.140262
H43	H	-4.117347	-0.814053	-0.164399
H44	H	-3.868674	-0.787158	-0.088106
H45	H	-3.962748	-0.675684	-0.091891
C46	C	-4.519625	-0.821912	-0.521119
H47	H	-4.483412	-0.880664	-0.567814
H48	H	-4.640833	-0.868878	-0.496305
H49	H	-4.558794	-0.761292	-0.575166
C50	C	-3.880417	-0.505813	-0.144139
H51	H	-3.981196	-0.460879	-0.172423
H52	H	-3.934516	-0.571384	-0.096620
H53	H	-3.740215	-0.446310	-0.089589
H54	H	-3.673958	-0.524682	-0.250869
C55	C	-4.411694	-0.575111	-0.524351
H56	H	-4.516321	-0.655681	-0.574192
H57	H	-4.487079	-0.524255	-0.501044
H58	H	-4.329548	-0.529862	-0.574735
C59	C	-4.016776	-0.386665	-1.013686
H60	H	-4.156427	-0.439572	-1.075134
H61	H	-3.914233	-0.356790	-1.057322
H62	H	-3.964673	-0.436034	-0.949386
C63	C	-4.242254	-0.825737	-0.639349
H64	H	-4.278313	-0.763224	-0.691626
H65	H	-4.198563	-0.880868	-0.685277
H66	H	-4.367988	-0.876287	-0.620367
H67	H	-3.906462	-0.786767	-0.510599
C68	C	-3.717979	-0.756932	-0.254857
H69	H	-3.756369	-0.820523	-0.327531
H70	H	-3.598485	-0.682723	-0.254995
H71	H	-3.675128	-0.791921	-0.176345
C72	C	-3.744770	-0.552434	-0.510780
H73	H	-3.656508	-0.486775	-0.437194
H74	H	-3.686108	-0.620413	-0.505950
H75	H	-3.744289	-0.516383	-0.588494
C76	C	-4.516829	-0.180362	-0.999517
H77	H	-4.522379	-0.105122	-1.038827
H78	H	-4.599999	-0.255634	-1.063560
H79	H	-4.577525	-0.184835	-0.932197
C80	C	-4.129439	-0.579781	-0.640450
H81	H	-4.204231	-0.526276	-0.621503
H82	H	-4.039118	-0.536690	-0.687580
H83	H	-4.234915	-0.659553	-0.691554
