data_functionalizedCrystal
_audit_creation_method	'MofGen! by Chris Wilmer'
_symmetry_space_group_name_H-M	'P1'
_symmetry_Int_Tables_number	1
_symmetry_cell_setting	triclinic
loop_
_symmetry_equiv_pos_as_xyz
  x,y,z
_cell_length_a	16.625548
_cell_length_b	21.295417
_cell_length_c	21.295411
_cell_angle_alpha	89.978356
_cell_angle_beta	89.975478
_cell_angle_gamma	90.031575
loop_
_atom_site_label
_atom_site_type_symbol
_atom_site_fract_x
_atom_site_fract_y
_atom_site_fract_z
Zn1	Zn	1.232667	-0.250663	-0.355911
Zn2	Zn	1.732667	0.249337	0.144089
Zn3	Zn	1.232542	-0.355915	-0.250636
Zn4	Zn	1.732542	0.144085	0.249364
Zn5	Zn	1.097819	-0.250665	-0.250656
Zn6	Zn	1.597819	0.249335	0.249344
Zn7	Zn	1.097780	-0.355900	-0.355868
Zn8	Zn	1.597780	0.144100	0.144132
O9	O	1.165202	-0.303286	-0.303268
O10	O	1.665202	0.196714	0.196732
O11	O	1.345483	-0.264630	-0.341956
O12	O	1.845483	0.235370	0.158044
O13	O	1.214635	-0.341960	-0.162549
O14	O	1.714635	0.158040	0.337451
O15	O	1.115776	-0.162576	-0.264644
O16	O	1.615776	0.337424	0.235356
O17	O	1.345391	-0.341958	-0.264611
O18	O	1.845391	0.158042	0.235389
O19	O	1.214848	-0.162574	-0.341975
O20	O	1.714848	0.337426	0.158025
O21	O	1.115655	-0.264634	-0.162564
O22	O	1.615655	0.235366	0.337436
O23	O	0.984982	-0.264620	-0.264603
O24	O	1.484982	0.235380	0.235397
O25	O	1.115709	-0.341933	-0.443963
O26	O	1.615709	0.158067	0.056037
O27	O	0.984953	-0.341936	-0.341902
O28	O	1.484953	0.158064	0.158098
O29	O	1.214810	-0.264616	-0.443995
O30	O	1.714810	0.235384	0.056005
O31	O	1.214597	-0.444002	-0.264569
O32	O	1.714597	0.055998	0.235431
O33	O	1.115588	-0.443992	-0.341883
O34	O	1.615588	0.056008	0.158117
C35	C	0.955711	-0.303277	-0.303250
C36	C	1.455711	0.196723	0.196750
C37	C	0.866090	-0.303288	-0.303257
C38	C	1.366090	0.196712	0.196743
C39	C	0.537914	-0.303292	-0.303284
C40	C	1.037914	0.196708	0.196716
C41	C	0.629223	-0.303289	-0.303275
C42	C	1.129223	0.196711	0.196725
C43	C	0.701999	-0.303291	-0.303270
C44	C	1.201999	0.196709	0.196730
C45	C	0.793314	-0.303287	-0.303262
C46	C	1.293314	0.196713	0.196738
C47	C	1.165096	-0.466838	-0.303233
C48	C	1.665096	0.033162	0.196767
C49	C	1.165125	-0.536806	-0.303239
C50	C	1.665125	-0.036806	0.196761
C51	C	1.216725	-0.569657	-0.263023
C52	C	1.716725	-0.069657	0.236977
C53	C	1.216762	-0.635399	-0.263037
C54	C	1.716762	-0.135399	0.236963
C55	C	1.165186	-0.668288	-0.303261
C56	C	1.665186	-0.168288	0.196739
C57	C	1.113583	-0.635429	-0.343484
C58	C	1.613583	-0.135429	0.156516
C59	C	1.113552	-0.569688	-0.343473
C60	C	1.613552	-0.069688	0.156527
N61	N	1.094652	-0.771556	-0.308054
N62	N	1.594652	-0.271556	0.191946
N63	N	1.094683	-0.834007	-0.308060
N64	N	1.594683	-0.334007	0.191940
C65	C	1.165276	-0.866363	-0.303297
C66	C	1.665276	-0.366363	0.196703
N67	N	1.235839	-0.833908	-0.298514
N68	N	1.735839	-0.333908	0.201486
N69	N	1.235807	-0.771451	-0.298504
N70	N	1.735807	-0.271451	0.201496
C71	C	1.165214	-0.739573	-0.303277
C72	C	1.665214	-0.239573	0.196723
C73	C	1.216921	-0.970500	-0.263094
C74	C	1.716921	-0.470500	0.236906
C75	C	1.216961	-1.036243	-0.263113
C76	C	1.716961	-0.536243	0.236887
C77	C	1.113774	-1.036271	-0.343556
C78	C	1.613774	-0.536271	0.156444
C79	C	1.113742	-0.970529	-0.343541
C80	C	1.613742	-0.470529	0.156459
C81	C	1.165315	-0.937647	-0.303307
C82	C	1.665315	-0.437647	0.196693
C83	C	1.375511	-0.303295	-0.303286
C84	C	1.875511	0.196705	0.196714
C85	C	1.465132	-0.303299	-0.303293
C86	C	1.965132	0.196701	0.196707
C87	C	1.165269	-0.303273	-0.467458
C88	C	1.665269	0.196727	0.032542
C89	C	1.165297	-0.303267	-0.537426
C90	C	1.665297	0.196733	-0.037426
C91	C	1.165330	-0.139096	-0.303316
C92	C	1.665330	0.360904	0.196684
C93	C	1.165385	-0.069127	-0.303337
C94	C	1.665385	0.430873	0.196663
C95	C	1.216897	-0.263006	-0.570310
C96	C	1.716897	0.236994	-0.070310
C97	C	1.216896	-0.262979	-0.636053
C98	C	1.716896	0.237021	-0.136053
C99	C	1.165304	-0.303224	-0.668909
C100	C	1.665304	0.196776	-0.168909
C101	C	1.113694	-0.343487	-0.636017
C102	C	1.613694	0.156513	-0.136017
C103	C	1.113691	-0.343509	-0.570275
C104	C	1.613691	0.156491	-0.070275
N105	N	1.159083	-0.358291	-0.772124
N106	N	1.659083	0.141709	-0.272124
N107	N	1.159091	-0.358269	-0.834576
N108	N	1.659091	0.141731	-0.334576
C109	C	1.165309	-0.303160	-0.866984
C110	C	1.665309	0.196840	-0.366984
N111	N	1.171535	-0.248072	-0.834581
N112	N	1.671535	0.251928	-0.334581
N113	N	1.171531	-0.248096	-0.772124
N114	N	1.671531	0.251904	-0.272124
C115	C	1.165301	-0.303204	-0.740194
C116	C	1.665301	0.196796	-0.240194
C117	C	1.216910	-0.262866	-0.971153
C118	C	1.716910	0.237134	-0.471153
C119	C	1.216903	-0.262837	-1.036897
C120	C	1.716903	0.237163	-0.536897
C121	C	1.113706	-0.343352	-1.036860
C122	C	1.613706	0.156648	-0.536860
C123	C	1.113708	-0.343374	-0.971117
C124	C	1.613708	0.156626	-0.471117
C125	C	1.165315	-0.303132	-0.938268
C126	C	1.665315	0.196868	-0.438268
C127	C	1.165182	-0.303254	-0.139716
C128	C	1.665182	0.196746	0.360284
C129	C	1.165310	-0.303082	-0.069748
C130	C	1.665310	0.196918	0.430252
H131	H	1.258720	-0.542886	-0.230263
H132	H	1.758720	-0.042886	0.269737
H133	H	1.258918	-0.943726	-0.230335
H134	H	1.758918	-0.443726	0.269665
C135	C	1.318937	-1.029608	-0.183586
C136	C	1.818937	-0.529608	0.316414
C137	C	1.273683	-1.072356	-0.218903
C138	C	1.773683	-0.572356	0.281097
H139	H	1.353950	-1.051905	-0.156290
H140	H	1.853950	-0.551905	0.343710
H141	H	1.349751	-1.003930	-0.211027
H142	H	1.849751	-0.503930	0.288973
H143	H	1.283796	-1.004005	-0.159481
H144	H	1.783796	-0.504005	0.340519
H145	H	1.308823	-1.097956	-0.243011
H146	H	1.808823	-0.597956	0.256989
H147	H	1.242866	-1.098045	-0.191459
H148	H	1.742866	-0.598045	0.308541
H149	H	1.071695	-0.376163	-0.944343
H150	H	1.571695	0.123837	-0.444343
H151	H	1.258926	-0.230095	-0.944406
H152	H	1.758926	0.269905	-0.444406
C153	C	1.102262	-0.495718	-0.428128
C154	C	1.602262	0.004282	0.071872
C155	C	1.056827	-0.533574	-0.387680
C156	C	1.556827	-0.033574	0.112320
H157	H	1.067240	-0.473426	-0.455421
H158	H	1.567240	0.026574	0.044579
H159	H	1.132964	-0.466728	-0.404167
H160	H	1.632964	0.033272	0.095833
H161	H	1.137388	-0.521332	-0.452235
H162	H	1.637388	-0.021332	0.047765
H163	H	1.021705	-0.507960	-0.363570
H164	H	1.521705	-0.007960	0.136430
H165	H	1.026111	-0.562568	-0.411643
H166	H	1.526111	-0.062568	0.088357
H167	H	1.258920	-0.230048	-1.063670
H168	H	1.758920	0.269952	-0.563670
H169	H	1.071783	-1.063049	-0.376310
H170	H	1.571783	-0.563049	0.123690
H171	H	1.258918	-0.230237	-0.543568
H172	H	1.758918	0.269763	-0.043568
H173	H	1.071590	-0.662211	-0.376236
H174	H	1.571590	-0.162211	0.123764
C175	C	1.318738	-0.628775	-0.183507
C176	C	1.818738	-0.128775	0.316493
C177	C	1.273479	-0.671520	-0.218825
C178	C	1.773479	-0.171520	0.281175
H179	H	1.353747	-0.651074	-0.156210
H180	H	1.853747	-0.151074	0.343790
H181	H	1.349558	-0.603100	-0.210948
H182	H	1.849558	-0.103100	0.289052
H183	H	1.283600	-0.603168	-0.159405
H184	H	1.783600	-0.103168	0.340595
H185	H	1.308617	-0.697124	-0.242931
H186	H	1.808617	-0.197124	0.257069
H187	H	1.242657	-0.697205	-0.191381
H188	H	1.742657	-0.197205	0.308619
C189	C	1.011743	-0.977162	-0.423047
C190	C	1.511743	-0.477162	0.076953
C191	C	1.057010	-0.934415	-0.387740
C192	C	1.557010	-0.434415	0.112260
H193	H	0.976715	-0.954866	-0.450332
H194	H	1.476715	-0.454866	0.049668
H195	H	1.046869	-1.002762	-0.447157
H196	H	1.546869	-0.502762	0.052843
H197	H	0.980935	-1.002844	-0.395595
H198	H	1.480935	-0.502844	0.104405
H199	H	1.087822	-0.908736	-0.415192
H200	H	1.587822	-0.408736	0.084808
H201	H	1.021880	-0.908804	-0.363628
H202	H	1.521880	-0.408804	0.136372
H203	H	1.071690	-0.376114	-1.063610
H204	H	1.571690	0.123886	-0.563610
H205	H	1.258913	-0.230190	-0.662832
H206	H	1.758913	0.269810	-0.162832
H207	H	1.071685	-0.376253	-0.662772
H208	H	1.571685	0.123747	-0.162772
C209	C	1.011691	-0.423095	-0.576844
C210	C	1.511691	0.076905	-0.076844
C211	C	1.056978	-0.387774	-0.534125
C212	C	1.556978	0.112226	-0.034125
H213	H	0.976685	-0.450426	-0.554524
H214	H	1.476685	0.049574	-0.054524
H215	H	0.980868	-0.395659	-0.602471
H216	H	1.480868	0.104341	-0.102471
H217	H	1.046812	-0.447162	-0.602500
H218	H	1.546812	0.052838	-0.102500
H219	H	1.021857	-0.363703	-0.508472
H220	H	1.521857	0.136297	-0.008472
H221	H	1.087804	-0.415214	-0.508487
H222	H	1.587804	0.084786	-0.008487
