data_functionalizedCrystal
_audit_creation_method	'MofGen! by Chris Wilmer'
_symmetry_space_group_name_H-M	'P1'
_symmetry_Int_Tables_number	1
_symmetry_cell_setting	triclinic
loop_
_symmetry_equiv_pos_as_xyz
  x,y,z
_cell_length_a	10.654549
_cell_length_b	10.654550
_cell_length_c	9.130313
_cell_angle_alpha	90.002847
_cell_angle_beta	90.002713
_cell_angle_gamma	84.484854
loop_
_atom_site_label
_atom_site_type_symbol
_atom_site_fract_x
_atom_site_fract_y
_atom_site_fract_z
O1	O	1.667840	0.176394	0.121765
O2	O	1.302362	0.193200	0.121775
O3	O	1.493504	0.002058	0.121761
O4	O	1.476698	0.367536	0.121780
O5	O	1.493490	0.002058	-0.121838
O6	O	1.302347	0.193200	-0.121823
O7	O	1.667826	0.176394	-0.121834
Cu8	Cu	1.485085	0.184797	-0.144071
Cu9	Cu	1.485102	0.184797	0.144013
O10	O	1.476684	0.367536	-0.121819
C11	C	1.255557	0.191966	-0.000023
C12	C	1.116113	0.188275	-0.000019
C13	C	0.905599	0.297338	-0.000019
C14	C	1.036619	0.300816	-0.000010
C15	C	1.064581	0.072247	-0.000022
C16	C	0.933563	0.068770	-0.000020
C17	C	1.492263	-0.044740	-0.000038
C18	C	1.488571	-0.184183	-0.000035
C19	C	1.601113	-0.263669	-0.000038
C20	C	1.597636	-0.394690	-0.000020
C21	C	1.369067	-0.366727	-0.000003
C22	C	1.372544	-0.235708	-0.000010
C23	C	1.714631	0.177628	-0.000032
C24	C	1.854074	0.181319	-0.000026
C25	C	1.477925	0.414334	-0.000017
C26	C	1.481617	0.553777	-0.000010
N27	N	1.485082	0.184796	-0.346694
C28	C	1.561914	0.261678	-0.423338
C29	C	1.561934	0.261671	-0.576675
C30	C	1.408281	0.107897	-0.576709
C31	C	1.408268	0.107898	-0.423375
N32	N	1.485115	0.184788	0.346636
H33	H	0.891613	-0.025712	-0.000021
Br34	Br	0.797725	0.450083	-0.000025
Br35	Br	1.666169	0.366031	-0.319275
H36	H	1.345740	0.045291	-0.639162
H37	H	1.280894	-0.170987	-0.000004
Br38	Br	1.172465	-0.080491	-0.000025
Br39	Br	1.303990	0.003550	-0.319347
Br40	Br	1.106540	0.458277	0.000011
H41	H	1.624499	0.324275	-0.639072
H42	H	1.689279	-0.459403	-0.000019
Br43	Br	1.758576	-0.193746	-0.000073
Br44	Br	1.211609	-0.436662	0.000035
