data_functionalizedCrystal
_audit_creation_method	'MofGen! by Chris Wilmer'
_symmetry_space_group_name_H-M	'P1'
_symmetry_Int_Tables_number	1
_symmetry_cell_setting	triclinic
loop_
_symmetry_equiv_pos_as_xyz
  x,y,z
_cell_length_a	15.297476
_cell_length_b	15.297327
_cell_length_c	12.759393
_cell_angle_alpha	80.357027
_cell_angle_beta	99.689056
_cell_angle_gamma	91.626159
loop_
_atom_site_label
_atom_site_type_symbol
_atom_site_fract_x
_atom_site_fract_y
_atom_site_fract_z
Zn1	Zn	1.278734	-0.580719	0.968302
Zn2	Zn	1.253262	-0.727190	0.816991
Zn3	Zn	1.132244	-0.555377	0.758053
Zn4	Zn	1.106875	-0.701754	0.958046
O5	O	1.192779	-0.641260	0.875348
O6	O	1.397924	-0.621400	0.977188
O7	O	1.237166	-0.704438	0.662151
O8	O	1.172953	-0.436181	0.765569
O9	O	1.379210	-0.729011	0.866020
O10	O	1.280578	-0.454800	0.920038
O11	O	1.148255	-0.578207	0.618850
O12	O	1.006310	-0.553543	0.755625
O13	O	1.129716	-0.685660	1.106429
O14	O	0.987671	-0.661086	0.902559
O15	O	1.255979	-0.596736	1.113963
O16	O	1.212567	-0.846374	0.856076
O17	O	1.105017	-0.827687	0.959709
C18	C	0.965209	-0.601805	0.821585
C19	C	0.867850	-0.584948	0.798613
C20	C	0.831809	-0.520940	0.711406
C21	C	0.740336	-0.505099	0.689820
C22	C	0.684896	-0.553260	0.755444
C23	C	0.720937	-0.617265	0.842657
C24	C	0.812419	-0.633112	0.864240
C25	C	0.665505	-0.665432	0.908278
C26	C	0.701547	-0.729437	0.995492
C27	C	0.793019	-0.745281	1.017071
C28	C	0.848460	-0.697120	0.951447
C29	C	0.574024	-0.649585	0.886695
C30	C	0.554633	-0.761757	1.039530
C31	C	0.646106	-0.777598	1.061116
C32	C	1.153299	-0.868812	0.913204
C33	C	1.136489	-0.966174	0.929453
C34	C	1.313281	-1.279447	0.759659
C35	C	1.329074	-1.187971	0.744387
C36	C	1.280930	-1.132517	0.790652
C37	C	1.216989	-1.168548	0.852192
C38	C	1.201189	-1.260033	0.867458
C39	C	1.168838	-1.113103	0.898452
C40	C	1.104897	-1.149134	0.959991
C41	C	1.089100	-1.240610	0.975256
C42	C	1.137245	-1.296064	0.928990
C43	C	1.184637	-1.021619	0.883185
C44	C	1.072545	-1.002205	0.990985
C45	C	1.056752	-1.093681	1.006257
C46	C	1.421237	-0.680870	0.929322
C47	C	1.518592	-0.697749	0.952323
C48	C	1.192859	-0.641187	1.149383
C49	C	1.192893	-0.641156	1.266160
C50	C	1.232437	-0.412824	0.837373
C51	C	1.249337	-0.315478	0.821191
C52	C	1.192760	-0.641278	0.602381
C53	C	1.192939	-0.641092	0.485603
C54	C	1.258644	-0.594845	1.324947
C55	C	1.258666	-0.594810	1.434668
C56	C	1.127181	-0.687404	1.426808
C57	C	1.127157	-0.687434	1.317087
H58	H	0.922946	-0.710013	0.969019
H59	H	1.312206	-0.557098	1.482527
H60	H	0.822360	-0.797405	1.088078
Cl61	Cl	1.044550	-0.745583	1.490839
Cl62	Cl	0.691426	-0.858064	1.170746
Cl63	Cl	0.569900	-0.533340	0.728310
Cl64	Cl	1.409462	-1.142682	0.667038
Cl65	Cl	1.044487	-0.745652	1.243176
Cl66	Cl	1.012011	-0.932497	1.049142
H67	H	0.544689	-0.597469	0.815688
H68	H	1.236698	-0.992290	0.833079
H69	H	0.876956	-0.481739	0.657979
H70	H	1.004690	-1.123031	1.056363
H71	H	1.312169	-0.557161	1.283485
H72	H	0.710997	-0.452990	0.618806
Cl73	Cl	0.484943	-0.822305	1.122034
Cl74	Cl	1.373795	-1.349161	0.701502
Cl75	Cl	1.301025	-1.017559	0.771796
H76	H	1.037025	-1.269942	1.025351
Cl77	Cl	1.117038	-1.411005	0.947676
