data_functionalizedCrystal
_audit_creation_method	'MofGen! by Chris Wilmer'
_symmetry_space_group_name_H-M	'P1'
_symmetry_Int_Tables_number	1
_symmetry_cell_setting	triclinic
loop_
_symmetry_equiv_pos_as_xyz
  x,y,z
_cell_length_a	19.188933
_cell_length_b	19.288874
_cell_length_c	17.766277
_cell_angle_alpha	90.002040
_cell_angle_beta	89.994823
_cell_angle_gamma	96.857103
loop_
_atom_site_label
_atom_site_type_symbol
_atom_site_fract_x
_atom_site_fract_y
_atom_site_fract_z
O1	O	0.926143	-0.086719	-0.062570
O2	O	1.426143	0.413281	0.437430
O3	O	0.722831	-0.098391	-0.062577
O4	O	1.222831	0.401609	0.437423
O5	O	0.830358	0.008574	-0.062567
O6	O	1.330358	0.508574	0.437433
O7	O	0.818616	-0.193685	-0.062580
O8	O	1.318616	0.306315	0.437420
O9	O	0.830344	0.008570	0.062621
O10	O	1.330344	0.508570	0.562621
O11	O	0.722817	-0.098395	0.062611
O12	O	1.222817	0.401605	0.562611
O13	O	0.926129	-0.086723	0.062619
O14	O	1.426129	0.413277	0.562619
Cu15	Cu	0.824472	-0.092559	0.074046
Cu16	Cu	1.324472	0.407441	0.574046
Cu17	Cu	0.824488	-0.092555	-0.074004
Cu18	Cu	1.324488	0.407445	0.425996
O19	O	0.818602	-0.193688	0.062609
O20	O	1.318602	0.306312	0.562609
C21	C	0.696813	-0.098015	0.000016
C22	C	1.196813	0.401985	0.500016
C23	C	0.619309	-0.096880	0.000014
C24	C	1.119309	0.403120	0.500014
C25	C	0.066062	-0.088775	-0.068218
C26	C	0.566062	0.411225	0.431782
C27	C	0.138886	-0.089837	-0.068221
C28	C	0.638886	0.410163	0.431779
C29	C	0.175295	-0.090374	0.000019
C30	C	0.675295	0.409626	0.500019
C31	C	0.138876	-0.089830	0.068267
C32	C	0.638876	0.410170	0.568267
C33	C	0.066054	-0.088760	0.068268
C34	C	0.566054	0.411240	0.568268
N35	N	0.284307	-0.131579	0.050811
N36	N	0.784307	0.368421	0.550811
N37	N	0.353485	-0.132597	0.050805
N38	N	0.853485	0.367403	0.550805
C39	C	0.394703	-0.093595	0.000020
C40	C	0.894703	0.406405	0.500020
N41	N	0.364130	-0.053546	-0.050771
N42	N	0.864130	0.446454	0.449229
N43	N	0.294946	-0.052531	-0.050767
N44	N	0.794946	0.447469	0.449233
C45	C	0.254258	-0.091533	0.000026
C46	C	0.754258	0.408467	0.500026
C47	C	0.510078	-0.095286	-0.068227
C48	C	1.010078	0.404714	0.431773
C49	C	0.582905	-0.096344	-0.068227
C50	C	1.082905	0.403656	0.431773
C51	C	0.582893	-0.096344	0.068263
C52	C	1.082893	0.403656	0.568263
C53	C	0.510069	-0.095279	0.068261
C54	C	1.010069	0.404721	0.568261
C55	C	0.473666	-0.094753	0.000014
C56	C	0.973666	0.405247	0.500014
C57	C	0.829972	0.034449	0.000027
C58	C	1.329972	0.534449	0.500027
C59	C	0.828835	0.111552	0.000026
C60	C	1.328835	0.611552	0.500026
C61	C	0.952147	-0.087099	0.000023
C62	C	1.452147	0.412901	0.500023
C63	C	1.029651	-0.088235	0.000021
C64	C	1.529651	0.411765	0.500021
C65	C	0.818988	-0.219563	0.000013
C66	C	1.318988	0.280437	0.500013
C67	C	0.820125	-0.296666	0.000008
C68	C	1.320125	0.203334	0.500008
C69	C	0.820659	0.667120	0.068248
C70	C	1.320659	1.167120	0.568248
C71	C	0.821720	0.594672	0.068252
C72	C	1.321720	1.094672	0.568252
C73	C	0.822262	0.558443	0.000013
C74	C	1.322262	1.058443	0.500013
C75	C	0.821724	0.594665	-0.068236
C76	C	1.321724	1.094665	0.431764
C77	C	0.820656	0.667111	-0.068238
C78	C	1.320656	1.167111	0.431762
C79	C	0.864853	0.449109	-0.052265
C80	C	1.364853	0.949109	0.447735
C81	C	0.865926	0.376666	-0.052260
C82	C	1.365926	0.876666	0.447740
C83	C	0.825554	0.334996	0.000017
C84	C	1.325554	0.834996	0.500017
C85	C	0.784118	0.365780	0.052300
C86	C	1.284118	0.865780	0.552300
C87	C	0.783050	0.438226	0.052298
C88	C	1.283050	0.938226	0.552298
C89	C	0.823420	0.479888	0.000007
C90	C	1.323420	0.979888	0.500007
C91	C	0.827237	0.220226	0.068265
C92	C	1.327237	0.720226	0.568265
C93	C	0.828294	0.147776	0.068267
C94	C	1.328294	0.647776	0.568267
C95	C	0.828305	0.147772	-0.068223
C96	C	1.328305	0.647772	0.431777
C97	C	0.827241	0.220219	-0.068223
C98	C	1.327241	0.720219	0.431777
C99	C	0.826711	0.256442	0.000024
C100	C	1.326711	0.756442	0.500024
N101	N	0.824465	-0.092562	0.178176
N102	N	1.324465	0.407438	0.678176
N103	N	0.824501	-0.092547	-0.178135
N104	N	1.324501	0.407453	0.321865
C105	C	0.866713	-0.134564	0.782463
C106	C	1.366713	0.365436	1.282463
C107	C	0.866706	-0.134571	0.703661
C108	C	1.366706	0.365429	1.203661
C109	C	0.824495	-0.092547	0.664265
C110	C	1.324495	0.407453	1.164265
C111	C	0.782274	-0.050527	0.703677
C112	C	1.282274	0.449473	1.203677
C113	C	0.782277	-0.050527	0.782477
C114	C	1.282277	0.449473	1.282477
C115	C	0.822758	-0.029923	0.539424
C116	C	1.322758	0.470077	1.039424
C117	C	0.822760	-0.029922	0.460626
C118	C	1.322760	0.470078	0.960626
C119	C	0.824482	-0.092549	0.421218
C120	C	1.324482	0.407451	0.921218
C121	C	0.826217	-0.155178	0.460620
C122	C	1.326217	0.344822	0.960620
C123	C	0.826220	-0.155178	0.539420
C124	C	1.326220	0.344822	1.039420
C125	C	0.824487	-0.092543	0.578819
C126	C	1.324487	0.407457	1.078819
C127	C	0.866689	-0.134577	0.296370
C128	C	1.366689	0.365423	0.796370
C129	C	0.866677	-0.134585	0.217567
C130	C	1.366677	0.365415	0.717567
C131	C	0.782249	-0.050535	0.217584
C132	C	1.282249	0.449465	0.717584
C133	C	0.782257	-0.050534	0.296386
C134	C	1.282257	0.449466	0.796386
C135	C	0.824481	-0.092553	0.335774
C136	C	1.324481	0.407447	0.835774
H137	H	0.612537	-0.096778	0.123825
H138	H	1.112537	0.403222	0.623825
O139	O	0.622182	-0.096927	-0.141831
O140	O	1.122182	0.403073	0.358169
H141	H	0.584630	-0.096388	-0.189283
H142	H	1.084630	0.403612	0.310717
O143	O	0.912246	-0.179889	0.824948
O144	O	1.412246	0.320111	1.324948
H145	H	0.941593	-0.209112	0.784305
H146	H	1.441593	0.290888	1.284305
H147	H	0.820226	0.696608	0.123820
H148	H	1.320226	1.196608	0.623820
O149	O	0.470788	-0.094710	0.141862
O150	O	0.970788	0.405290	0.641862
H151	H	0.508337	-0.095268	0.189315
H152	H	1.008337	0.404732	0.689315
O153	O	0.828866	0.108711	0.141871
O154	O	1.328866	0.608711	0.641871
H155	H	0.876925	0.082031	0.145127
H156	H	1.376925	0.582031	0.645127
O157	O	0.820068	0.706169	-0.141846
O158	O	1.320068	1.206169	0.358154
H159	H	0.867849	0.698602	-0.174578
H160	H	1.367849	1.198602	0.325422
H161	H	0.828738	0.118274	-0.123785
H162	H	1.328738	0.618274	0.376215
H163	H	0.826812	0.249706	-0.123791
H164	H	1.326812	0.749706	0.376209
H165	H	0.822142	0.565179	0.123823
H166	H	1.322142	1.065179	0.623823
H167	H	0.480438	-0.094856	-0.123798
H168	H	0.980438	0.405144	0.376202
H169	H	0.901080	-0.168789	0.671573
H170	H	1.401080	0.331211	1.171573
O171	O	0.828088	-0.222721	0.581921
O172	O	1.328088	0.277279	1.081921
H173	H	0.829282	-0.266274	0.541287
H174	H	1.329282	0.233726	1.041287
H175	H	0.827620	-0.206175	0.428537
H176	H	1.327620	0.293825	0.928537
H177	H	0.749312	0.463287	0.094870
H178	H	1.249312	0.963287	0.594870
O179	O	0.026815	-0.088191	-0.141834
O180	O	0.526815	0.411809	0.358166
H181	H	-0.012733	-0.135034	-0.145118
H182	H	0.487267	0.364966	0.354882
H183	H	0.826799	0.249720	0.123836
H184	H	1.326799	0.749720	0.623836
O185	O	0.740563	0.320849	0.108686
O186	O	1.240563	0.820849	0.608686
H187	H	0.748257	0.265300	0.099900
H188	H	1.248257	0.765300	0.599900
H189	H	0.899669	0.351608	-0.094829
H190	H	1.399669	0.851608	0.405171
O191	O	0.178161	-0.090419	-0.141830
O192	O	0.678161	0.409581	0.358170
H193	H	0.217705	-0.043572	-0.145100
H194	H	0.717705	0.456428	0.354900
O195	O	0.912218	-0.179904	0.338862
O196	O	1.412218	0.320096	0.838862
H197	H	0.941562	-0.209133	0.298221
H198	H	1.441562	0.290867	0.798221
H199	H	0.747875	-0.016323	0.185509
H200	H	1.247875	0.483677	0.685509
O201	O	0.908403	0.494053	-0.108648
O202	O	1.408403	0.994053	0.391352
H203	H	0.937404	0.460479	-0.144993
H204	H	1.437404	0.960479	0.355007
O205	O	0.822309	0.555596	-0.141840
O206	O	1.322309	1.055596	0.358160
H207	H	0.823149	0.499136	-0.130375
H208	H	1.323149	0.999136	0.369625
H209	H	0.901050	-0.168805	0.185487
H210	H	1.401050	0.331195	0.685487
H211	H	0.747886	-0.016315	0.328468
H212	H	1.247886	0.483685	0.828468
H213	H	0.821352	0.021075	0.428551
H214	H	1.321352	0.521075	0.928551
O215	O	0.820904	0.037629	0.581926
O216	O	1.320904	0.537629	1.081926
H217	H	0.819710	0.081179	0.541292
H218	H	1.319710	0.581179	1.041292
O219	O	0.178139	-0.090414	0.141872
O220	O	0.678139	0.409586	0.641872
H221	H	0.234893	-0.091258	0.130407
H222	H	0.734893	0.408742	0.630407
H223	H	0.747904	-0.016313	0.671595
H224	H	1.247904	0.483687	1.171595
O225	O	0.736769	-0.005185	0.824984
O226	O	1.236769	0.494815	1.324984
H227	H	0.707423	0.024046	0.784354
H228	H	1.207423	0.524046	1.284354
H229	H	0.036409	-0.088323	0.123838
H230	H	0.536409	0.411677	0.623838
