data_functionalizedCrystal
_audit_creation_method	'MofGen! by Chris Wilmer'
_symmetry_space_group_name_H-M	'P1'
_symmetry_Int_Tables_number	1
_symmetry_cell_setting	triclinic
loop_
_symmetry_equiv_pos_as_xyz
  x,y,z
_cell_length_a	17.038272
_cell_length_b	14.044220
_cell_length_c	12.503572
_cell_angle_alpha	93.835250
_cell_angle_beta	93.777379
_cell_angle_gamma	87.849783
loop_
_atom_site_label
_atom_site_type_symbol
_atom_site_fract_x
_atom_site_fract_y
_atom_site_fract_z
O1	O	0.185401	-1.278116	-0.089207
O2	O	0.685401	-0.778116	0.410793
O3	O	0.178559	-1.001597	-0.089234
O4	O	0.678559	-0.501597	0.410766
O5	O	0.068050	-1.138213	-0.089212
O6	O	0.568050	-0.638213	0.410788
O7	O	0.295910	-1.141501	-0.089229
O8	O	0.795910	-0.641501	0.410771
O9	O	0.076376	-1.127940	0.089428
O10	O	0.576376	-0.627940	0.589428
O11	O	0.186885	-0.991324	0.089406
O12	O	0.686885	-0.491324	0.589406
O13	O	0.193727	-1.267843	0.089433
O14	O	0.693727	-0.767843	0.589433
Cu15	Cu	0.191066	-1.128646	0.105731
Cu16	Cu	0.691066	-0.628646	0.605731
Cu17	Cu	0.181220	-1.140795	-0.105532
Cu18	Cu	0.681220	-0.640795	0.394468
O19	O	0.304236	-1.131228	0.089411
O20	O	0.804236	-0.631228	0.589411
C21	C	0.179728	-0.960905	0.000083
C22	C	0.679728	-0.460905	0.500083
C23	C	0.170796	-0.854959	0.000072
C24	C	0.670796	-0.354959	0.500072
C25	C	0.042876	-1.130087	0.000108
C26	C	0.542876	-0.630087	0.500108
C27	C	-0.044541	-1.121168	0.000106
C28	C	0.455459	-0.621168	0.500106
C29	C	0.192558	-1.308536	0.000114
C30	C	0.692558	-0.808536	0.500114
C31	C	0.201490	-1.414481	0.000117
C32	C	0.701490	-0.914481	0.500117
C33	C	-0.088926	-1.203055	0.000115
C34	C	0.411074	-0.703055	0.500115
C35	C	-0.171064	-1.194670	0.000104
C36	C	0.328936	-0.694670	0.500104
C37	C	-0.208815	-1.104395	0.000092
C38	C	0.291185	-0.604395	0.500092
C39	C	-0.164424	-1.022502	0.000080
C40	C	0.335576	-0.522502	0.500080
C41	C	-0.082288	-1.030888	0.000083
C42	C	0.417712	-0.530888	0.500083
C43	C	-0.456646	-1.074766	0.000074
C44	C	0.043354	-0.574766	0.500074
C45	C	-0.538788	-1.066385	0.000074
C46	C	-0.038788	-0.566385	0.500074
C47	C	-0.545422	-1.238555	0.000097
C48	C	-0.045422	-0.738555	0.500097
C49	C	-0.463284	-1.246933	0.000107
C50	C	0.036716	-0.746933	0.500107
C51	C	-0.418901	-1.165040	0.000089
C52	C	0.081099	-0.665040	0.500089
C53	C	-0.292772	-1.095822	0.000084
C54	C	0.207228	-0.595822	0.500084
C55	C	-0.334945	-1.173615	0.000089
C56	C	0.165055	-0.673615	0.500089
C57	C	0.329410	-1.139354	0.000089
C58	C	0.829410	-0.639354	0.500089
C59	C	0.416827	-1.148273	0.000083
C60	C	0.916827	-0.648273	0.500083
N61	N	0.197992	-1.120107	0.254322
N62	N	0.697992	-0.620107	0.754322
C63	C	0.154469	-0.660980	0.000095
C64	C	0.654469	-0.160980	0.500095
C65	C	0.217814	-0.608455	0.000095
C66	C	0.717814	-0.108455	0.500095
C67	C	0.208729	-0.500518	0.000107
C68	C	0.708729	-0.000518	0.500107
C69	C	0.163552	-0.768927	0.000082
C70	C	0.663552	-0.268927	0.500082
N71	N	0.174289	-1.149340	-0.254123
N72	N	0.674289	-0.649340	0.245877
C73	C	0.208186	-1.107548	0.473435
C74	C	0.708186	-0.607548	0.973435
C75	C	0.164097	-1.161896	0.526771
C76	C	0.664097	-0.661896	1.026771
C77	C	0.169769	-1.154908	0.648693
C78	C	0.669769	-0.654908	1.148693
C79	C	0.202515	-1.114535	0.351502
C80	C	0.702515	-0.614535	0.851502
H81	H	-0.207199	-1.261352	0.000114
H82	H	0.292801	-0.761352	0.500114
O83	O	0.298691	-0.656254	0.000086
O84	O	0.798691	-0.156254	0.500086
H85	H	0.327684	-0.638699	-0.072722
H86	H	0.827684	-0.138699	0.427278
H87	H	-0.323518	-1.022319	0.000076
H88	H	0.176482	-0.522319	0.500076
H89	H	0.250190	-1.055775	0.519334
H90	H	0.750190	-0.555775	1.019334
O91	O	-0.048210	-1.300424	0.000119
O92	O	0.451790	-0.800424	0.500119
H93	H	-0.092877	-1.355957	0.000109
H94	H	0.407123	-0.855957	0.500109
O95	O	-0.422568	-1.344302	0.000094
O96	O	0.077432	-0.844302	0.500094
H97	H	-0.467232	-1.399838	0.000083
H98	H	0.032768	-0.899838	0.500083
H99	H	-0.569521	-0.992868	0.000081
H100	H	-0.069521	-0.492868	0.500081
O101	O	0.108454	-1.230482	0.465971
O102	O	0.608454	-0.730482	0.965971
H103	H	0.124570	-1.304411	0.487483
H104	H	0.624570	-0.804411	0.987483
O105	O	-0.593291	-1.326881	0.000110
O106	O	-0.093291	-0.826881	0.500110
H107	H	-0.656748	-1.305888	0.000098
H108	H	-0.156748	-0.805888	0.500098
O109	O	-0.408778	-0.986442	0.000082
O110	O	0.091222	-0.486442	0.500082
H111	H	-0.448829	-0.922261	0.000092
H112	H	0.051171	-0.422261	0.500092
H113	H	-0.195167	-0.948998	0.000063
H114	H	0.304833	-0.448998	0.500063
O115	O	-0.034409	-0.942568	0.000085
O116	O	0.465591	-0.442568	0.500085
H117	H	-0.074456	-0.878384	0.000088
H118	H	0.425544	-0.378384	0.500088
H119	H	0.093419	-0.624887	0.000105
H120	H	0.593419	-0.124887	0.500105
O121	O	-0.294236	-1.270983	0.000098
O122	O	0.205764	-0.770983	0.500098
H123	H	-0.253588	-1.274731	0.072914
H124	H	0.246412	-0.774731	0.572914
