data_functionalizedCrystal
_audit_creation_method	'MofGen! by Chris Wilmer'
_symmetry_space_group_name_H-M	'P1'
_symmetry_Int_Tables_number	1
_symmetry_cell_setting	triclinic
loop_
_symmetry_equiv_pos_as_xyz
  x,y,z
_cell_length_a	12.645331
_cell_length_b	12.645330
_cell_length_c	11.169409
_cell_angle_alpha	89.965645
_cell_angle_beta	89.975751
_cell_angle_gamma	90.012860
loop_
_atom_site_label
_atom_site_type_symbol
_atom_site_fract_x
_atom_site_fract_y
_atom_site_fract_z
Zn1	Zn	1.620783	-0.421948	-0.678643
Zn2	Zn	1.620676	-0.599259	-0.477953
Zn3	Zn	1.443494	-0.422010	-0.477965
Zn4	Zn	1.443495	-0.599171	-0.678585
O5	O	1.532112	-0.510597	-0.578287
O6	O	1.769116	-0.445479	-0.652041
O7	O	1.597127	-0.575809	-0.310005
O8	O	1.467056	-0.273655	-0.504615
O9	O	1.769038	-0.575749	-0.504595
O10	O	1.597310	-0.273609	-0.652052
O11	O	1.466952	-0.445586	-0.310014
O12	O	1.295147	-0.445500	-0.504558
O13	O	1.467059	-0.575599	-0.846543
O14	O	1.295148	-0.575659	-0.651953
O15	O	1.597311	-0.445394	-0.846586
O16	O	1.597129	-0.747594	-0.504538
O17	O	1.466955	-0.747529	-0.651941
C18	C	1.256682	-0.510578	-0.578251
C19	C	1.138852	-0.510595	-0.578264
C20	C	1.093934	-0.428585	-0.485690
C21	C	0.971374	-0.428281	-0.486007
C22	C	0.971023	-0.480788	-0.704961
C23	C	1.093621	-0.480175	-0.704382
C24	C	1.093646	-0.622657	-0.545339
C25	C	0.971039	-0.622072	-0.542592
C26	C	1.532059	-0.786027	-0.578258
C27	C	1.532133	-0.903857	-0.578286
C28	C	1.613894	-1.071417	-0.485366
C29	C	1.614161	-0.948857	-0.485594
C30	C	1.562436	-0.948224	-0.704797
C31	C	1.563085	-1.070822	-0.704304
C32	C	1.420037	-1.071188	-0.545942
C33	C	1.420574	-0.948584	-0.543105
C34	C	1.808617	-0.510617	-0.578323
C35	C	1.926447	-0.510626	-0.578338
C36	C	1.532197	-0.510479	-0.891329
C37	C	1.532233	-0.510429	-1.024729
C38	C	1.532194	-0.234092	-0.578341
C39	C	1.532229	-0.116262	-0.578365
C40	C	1.532088	-0.510637	-0.266462
C41	C	1.532258	-0.510389	-0.133062
H42	H	0.942058	-0.345254	-0.507873
H43	H	1.397726	-0.919598	-0.450003
H44	H	1.122693	-0.683753	-0.612766
H45	H	1.506210	-1.100482	-0.775982
Cl46	Cl	1.141512	-0.301107	-0.519003
H47	H	1.595201	-0.918865	-0.391788
H48	H	1.124512	-0.649898	-0.454541
H49	H	0.940337	-0.399797	-0.733290
H50	H	1.595171	-1.100981	-0.391286
Cl51	Cl	1.473393	-0.903229	-0.814646
Cl52	Cl	1.687620	-0.900690	-0.747910
H53	H	1.696545	-1.102145	-0.506572
Cl54	Cl	0.926047	-0.656828	-0.398718
Cl55	Cl	1.689697	-1.114843	-0.746702
H56	H	1.697257	-0.919446	-0.507040
H57	H	1.392482	-1.102208	-0.455297
Cl58	Cl	1.321559	-0.901311	-0.640015
H59	H	1.359190	-1.100188	-0.613676
H60	H	1.122233	-0.398275	-0.732214
H61	H	0.941230	-0.446899	-0.392133
H62	H	1.123342	-0.537335	-0.775747
Cl63	Cl	1.139370	-0.456961	-0.340267
H64	H	0.941930	-0.538703	-0.775853
H65	H	0.940448	-0.686418	-0.605065
