data_functionalizedCrystal
_audit_creation_method	'MofGen! by Chris Wilmer'
_symmetry_space_group_name_H-M	'P1'
_symmetry_Int_Tables_number	1
_symmetry_cell_setting	triclinic
loop_
_symmetry_equiv_pos_as_xyz
  x,y,z
_cell_length_a	10.908878
_cell_length_b	10.065875
_cell_length_c	9.065218
_cell_angle_alpha	98.921783
_cell_angle_beta	107.449662
_cell_angle_gamma	96.556520
loop_
_atom_site_label
_atom_site_type_symbol
_atom_site_fract_x
_atom_site_fract_y
_atom_site_fract_z
O1	O	1.719692	0.113473	0.253429
O2	O	1.347165	0.113478	0.138552
O3	O	1.541128	0.113473	0.412640
O4	O	1.525729	0.113478	-0.020659
O5	O	1.504144	-0.113515	0.360202
O6	O	1.310180	-0.113509	0.086114
O7	O	1.682708	-0.113515	0.200991
Zn8	Zn	1.490572	-0.149551	0.135227
Zn9	Zn	1.539300	0.149515	0.204316
O10	O	1.488744	-0.113509	-0.073097
C11	C	1.280956	-0.000015	0.101597
C12	C	1.138776	-0.000013	0.069625
C13	C	1.088410	-0.000013	0.186285
C14	C	0.941459	-0.000011	0.153244
N15	N	1.457326	-0.353656	0.088079
C16	C	1.527725	-0.421437	0.187919
C17	C	1.502147	-0.578603	0.151624
C18	C	1.748917	-0.000019	0.237947
C19	C	1.891099	-0.000012	0.269920
C20	C	1.521156	-0.000019	0.441022
C21	C	1.516732	-0.000012	0.603713
N22	N	1.572557	0.353619	0.251478
C23	C	1.508717	-0.000015	-0.101479
C24	C	1.513142	-0.000012	-0.264167
H25	H	1.154083	-0.000009	0.310625
C26	C	1.634726	-0.342658	0.339694
H27	H	1.637884	-0.247359	0.344173
H28	H	1.615661	-0.366014	0.428975
H29	H	1.716657	-0.365988	0.339555
C30	C	1.050070	-0.000010	-0.098349
H31	H	0.962938	-0.000018	-0.098522
H32	H	1.079165	0.079143	-0.131795
H33	H	1.053368	-0.079178	-0.168360
C34	C	1.679565	-0.567616	0.403264
H35	H	1.720408	-0.630524	0.461200
H36	H	1.742646	-0.511857	0.376421
H37	H	1.641644	-0.511889	0.465831
C38	C	0.852758	-0.000009	-0.014739
H39	H	0.765626	-0.000017	-0.014912
H40	H	0.881853	0.079145	-0.048185
H41	H	0.856056	-0.079176	-0.084750
C42	C	0.979797	-0.000014	0.437904
H43	H	1.066928	-0.000024	0.438077
H44	H	0.976494	0.079139	0.507919
H45	H	0.950700	-0.079183	0.471338
C46	C	1.350325	-0.432435	-0.063697
H47	H	1.347177	-0.527734	-0.068186
H48	H	1.268398	-0.409102	-0.063572
H49	H	1.369403	-0.409081	-0.152979
H50	H	1.422930	-0.636922	0.039273
