data_functionalizedCrystal
_audit_creation_method	'MofGen! by Chris Wilmer'
_symmetry_space_group_name_H-M	'P1'
_symmetry_Int_Tables_number	1
_symmetry_cell_setting	triclinic
loop_
_symmetry_equiv_pos_as_xyz
  x,y,z
_cell_length_a	13.635800
_cell_length_b	20.560734
_cell_length_c	17.982838
_cell_angle_alpha	75.931179
_cell_angle_beta	77.550313
_cell_angle_gamma	58.655275
loop_
_atom_site_label
_atom_site_type_symbol
_atom_site_fract_x
_atom_site_fract_y
_atom_site_fract_z
V1	V	2.063549	-0.237866	0.106127
O2	O	2.120506	-0.233013	-0.004365
O3	O	1.977262	-0.236551	0.209725
O4	O	2.089379	-0.341465	0.104816
O5	O	2.007613	-0.127373	0.101269
V6	V	2.306925	-0.224612	0.092872
O7	O	2.190636	-0.266939	0.135201
O8	O	2.404937	-0.195539	0.063798
O9	O	2.281609	-0.225927	-0.010726
O10	O	2.308667	-0.229464	0.203364
O11	O	2.421560	-0.335105	0.097730
O12	O	2.169492	-0.121013	0.094183
V13	V	2.563549	-0.237866	0.106127
O14	O	2.620506	-0.233013	-0.004365
O15	O	2.477262	-0.236551	0.209725
O16	O	2.589379	-0.341465	0.104816
O17	O	2.507613	-0.127373	0.101269
V18	V	2.806925	-0.224612	0.092872
O19	O	2.690636	-0.266939	0.135201
O20	O	2.904937	-0.195539	0.063798
O21	O	2.781609	-0.225927	-0.010726
O22	O	2.808667	-0.229464	0.203364
O23	O	2.921560	-0.335105	0.097730
O24	O	2.669492	-0.121013	0.094183
C25	C	1.883040	-0.232879	0.234970
C26	C	1.853467	-0.232494	0.319665
C27	C	2.026056	-0.366706	0.101148
C28	C	2.087406	-0.451401	0.100762
C29	C	1.792844	-0.162503	0.348352
C30	C	1.765065	-0.162132	0.427931
C31	C	1.797902	-0.231751	0.478821
C32	C	1.858533	-0.301747	0.450128
C33	C	1.886318	-0.302119	0.370551
C34	C	2.207499	-0.229597	-0.035967
C35	C	2.226693	-0.229986	-0.120661
C36	C	2.206870	-0.495084	0.104398
C37	C	2.264509	-0.574663	0.104035
C38	C	2.202680	-0.610560	0.100041
C39	C	2.083204	-0.566871	0.096402
C40	C	2.025569	-0.487292	0.096760
C41	C	2.315640	-0.887804	0.094959
C42	C	2.373286	-0.967389	0.094604
C43	C	2.554580	-0.975175	0.102235
C44	C	2.496945	-0.895596	0.102593
C45	C	2.377476	-0.851913	0.098949
C46	C	2.314979	-0.765624	0.099342
C47	C	2.265174	-0.696848	0.099655
C48	C	2.564483	-0.095768	0.097854
C49	C	2.492754	-0.011072	0.098236
C50	C	2.287987	-0.162511	-0.651634
C51	C	2.269965	-0.162153	-0.572054
C52	C	2.317417	-0.231780	-0.521176
C53	C	2.382905	-0.301769	-0.549882
C54	C	2.400933	-0.302125	-0.629461
C55	C	2.310203	-0.300333	-0.228948
C56	C	2.292166	-0.299971	-0.149364
C57	C	2.179235	-0.160361	-0.171540
C58	C	2.197263	-0.160717	-0.251119
C59	C	2.262754	-0.230705	-0.279819
C60	C	2.282297	-0.231092	-0.366109
C61	C	2.297868	-0.231394	-0.434887
C62	C	2.383040	-0.232879	0.234970
C63	C	2.353467	-0.232494	0.319665
C64	C	2.064483	-0.095768	0.097854
C65	C	1.992754	-0.011072	0.098236
C66	C	2.526056	-0.366706	0.101148
C67	C	2.587406	-0.451401	0.100762
C68	C	2.707499	-0.229597	-0.035967
C69	C	2.726693	-0.229986	-0.120661
C70	C	1.872348	0.024818	0.102223
C71	C	1.804938	0.104400	0.102573
C72	C	1.857937	0.148089	0.098941
C73	C	1.978355	0.112194	0.094950
C74	C	2.045763	0.032615	0.094595
C75	C	2.706873	-0.495070	0.104391
C76	C	2.764534	-0.574648	0.104018
C77	C	2.702725	-0.610558	0.100022
C78	C	2.583247	-0.566883	0.096391
C79	C	2.525589	-0.487305	0.096758
C80	C	2.822503	-0.226351	-0.164330
C81	C	2.840542	-0.226704	-0.243912
C82	C	2.762773	-0.230699	-0.279822
C83	C	2.666952	-0.234332	-0.236147
C84	C	2.648911	-0.233973	-0.156568
H85	H	1.766092	-0.105808	0.306926
Br86	Br	2.518872	-0.238908	-0.097311
Br87	Br	2.780994	-0.718560	0.099527
H88	H	2.603638	-0.237584	-0.265397
Br89	Br	2.928066	-0.220930	-0.115614
H90	H	2.777477	-0.230990	-0.344621
Br91	Br	2.499377	-0.615632	0.090977
Br92	Br	2.050265	0.171496	0.090030
H93	H	1.928296	-0.451723	0.093780
Br94	Br	1.682780	-0.067130	0.466852
H95	H	1.775269	-0.231438	0.543616
H96	H	2.918570	-0.223746	-0.279461
H97	H	2.032867	-0.596103	0.093146
Br98	Br	2.363447	-0.428052	0.091841
Br99	Br	2.223572	-0.068012	-0.720675
Br100	Br	1.968588	-0.397116	0.331630
Br101	Br	1.903087	-0.396225	0.519204
H102	H	2.257226	-0.465864	0.107656
H103	H	2.547298	-0.866374	0.105849
Br104	Br	2.426642	-0.633946	0.108980
H105	H	2.651864	-1.010750	0.105198
Br106	Br	2.132854	-0.066221	-0.320164
Br107	Br	2.356565	-0.394471	-0.080314
Br108	Br	2.153506	-0.828533	0.090035
Br109	Br	1.641519	0.153096	0.107993
Br110	Br	2.181114	-0.067171	-0.533106
H111	H	2.143805	0.003399	0.091353
Br112	Br	2.090355	-0.065375	-0.132587
H113	H	1.829173	-0.010744	0.105181
H114	H	2.363511	-0.357322	-0.252304
Br115	Br	2.289366	-1.016105	0.089185
Br116	Br	2.489811	-0.397106	-0.668414
Br117	Br	2.447315	-0.396263	-0.480835
H118	H	2.861817	-0.610198	0.106979
H119	H	1.803035	0.212885	0.099240
H120	H	2.757219	-0.465843	0.107647
