data_functionalizedCrystal
_audit_creation_method	'MofGen! by Chris Wilmer'
_symmetry_space_group_name_H-M	'P1'
_symmetry_Int_Tables_number	1
_symmetry_cell_setting	triclinic
loop_
_symmetry_equiv_pos_as_xyz
  x,y,z
_cell_length_a	14.519709
_cell_length_b	10.654550
_cell_length_c	9.130313
_cell_angle_alpha	90.004369
_cell_angle_beta	89.997908
_cell_angle_gamma	84.082538
loop_
_atom_site_label
_atom_site_type_symbol
_atom_site_fract_x
_atom_site_fract_y
_atom_site_fract_z
O1	O	-1.224720	-0.164623	-0.121608
O2	O	-0.956343	-0.184009	-0.121653
O3	O	-1.096702	0.008483	-0.121620
O4	O	-1.084361	-0.357115	-0.121641
O5	O	-1.096692	0.008488	0.121979
O6	O	-0.956334	-0.184004	0.121946
O7	O	-1.224710	-0.164617	0.121991
Cu8	Cu	-1.090521	-0.174310	0.144211
Cu9	Cu	-1.090532	-0.174317	-0.143873
O10	O	-1.084351	-0.357109	0.121958
C11	C	-0.921974	-0.183103	0.000141
C12	C	-0.819579	-0.180396	0.000124
C13	C	-1.095791	0.055275	0.000178
C14	C	-1.093080	0.194692	0.000176
C15	C	-1.259079	-0.165524	0.000194
C16	C	-1.361475	-0.168231	0.000201
C17	C	-0.444631	-0.170428	0.000191
C18	C	-0.548954	-0.173196	0.000172
C19	C	-0.632102	-0.175412	0.000156
C20	C	-0.736431	-0.178180	0.000140
C21	C	-1.085262	-0.403901	0.000156
C22	C	-1.087973	-0.543318	0.000150
N23	N	-1.090520	-0.174305	0.346834
C24	C	-1.175721	0.274972	0.000189
C25	C	-1.173168	0.405968	0.000171
C26	C	-1.005326	0.376391	0.000132
C27	C	-1.007880	0.245397	0.000140
N28	N	-1.090541	-0.174312	-0.346496
C29	C	-1.152692	-0.089105	0.423500
C30	C	-1.152701	-0.089105	0.576837
C31	C	-1.028362	-0.259516	0.576827
C32	C	-1.028350	-0.259509	0.423493
H33	H	-1.240463	0.471328	0.000178
H34	H	-0.977717	-0.328889	0.361067
O35	O	-1.258560	0.225923	0.000141
C36	C	-1.330952	0.324878	0.000180
H37	H	-1.304528	0.413914	-0.045944
H38	H	-1.390384	0.297368	-0.070537
H39	H	-1.356483	0.343367	0.117048
O40	O	-0.922624	0.425801	-0.000085
C41	C	-0.916122	0.500654	-0.126267
H42	H	-0.988603	0.533112	-0.168316
H43	H	-0.878809	0.586513	-0.097901
H44	H	-0.875696	0.442867	-0.214617
O45	O	-0.927511	0.167583	0.000193
C46	C	-0.851764	0.240424	0.000135
H47	H	-0.874537	0.338141	0.046257
H48	H	-0.793805	0.192233	0.070844
H49	H	-0.825697	0.249797	-0.116739
O50	O	-1.213109	-0.006213	0.349258
C51	C	-1.267999	0.068966	0.449815
H52	H	-1.230188	0.070493	0.559122
H53	H	-1.281427	0.169220	0.405529
H54	H	-1.336766	0.027979	0.466106
H55	H	-1.203325	-0.019726	0.639254
O56	O	-0.967941	-0.342112	0.651463
C57	C	-0.910616	-0.274683	0.740154
H58	H	-0.946724	-0.176524	0.763132
H59	H	-0.896372	-0.327062	0.847974
H60	H	-0.842398	-0.265940	0.681077
