data_functionalizedCrystal
_audit_creation_method	'MofGen! by Chris Wilmer'
_symmetry_space_group_name_H-M	'P1'
_symmetry_Int_Tables_number	1
_symmetry_cell_setting	triclinic
loop_
_symmetry_equiv_pos_as_xyz
  x,y,z
_cell_length_a	19.188964
_cell_length_b	19.288865
_cell_length_c	18.366186
_cell_angle_alpha	90.011479
_cell_angle_beta	89.997799
_cell_angle_gamma	96.852527
loop_
_atom_site_label
_atom_site_type_symbol
_atom_site_fract_x
_atom_site_fract_y
_atom_site_fract_z
O1	O	0.926128	-0.086830	-0.060442
O2	O	1.259461	0.246503	0.272891
O3	O	1.592794	0.579836	0.606225
O4	O	0.722819	-0.098479	-0.060470
O5	O	1.056152	0.234854	0.272863
O6	O	1.389485	0.568187	0.606197
O7	O	0.830348	0.008474	-0.060441
O8	O	1.163681	0.341808	0.272893
O9	O	1.497014	0.675141	0.606226
O10	O	0.818598	-0.193784	-0.060471
O11	O	1.151932	0.139549	0.272862
O12	O	1.485265	0.472883	0.606195
O13	O	0.830330	0.008480	0.060659
O14	O	1.163663	0.341813	0.393992
O15	O	1.496996	0.675146	0.727325
O16	O	0.722800	-0.098474	0.060629
O17	O	1.056134	0.234859	0.393963
O18	O	1.389467	0.568193	0.727296
O19	O	0.926109	-0.086825	0.060657
O20	O	1.259443	0.246508	0.393991
O21	O	1.592776	0.579841	0.727324
Zn22	Zn	0.824452	-0.092649	0.079870
Zn23	Zn	1.157785	0.240685	0.413204
Zn24	Zn	1.491119	0.574018	0.746537
Zn25	Zn	0.824476	-0.092656	-0.079683
Zn26	Zn	1.157809	0.240678	0.253650
Zn27	Zn	1.491143	0.574011	0.586984
O28	O	0.818580	-0.193779	0.060628
O29	O	1.151914	0.139555	0.393961
O30	O	1.485247	0.472888	0.727295
C31	C	0.696799	-0.098095	0.000076
C32	C	1.030132	0.235238	0.333410
C33	C	1.363466	0.568571	0.666743
C34	C	0.619296	-0.096951	0.000066
C35	C	0.952629	0.236382	0.333400
C36	C	1.285963	0.569715	0.666733
C37	C	0.829961	0.034353	0.000111
C38	C	1.163294	0.367687	0.333444
C39	C	1.496627	0.701020	0.666778
C40	C	0.828826	0.111457	0.000117
C41	C	1.162159	0.444791	0.333451
C42	C	1.495492	0.778124	0.666784
C43	C	0.952129	-0.087209	0.000109
C44	C	1.285462	0.246124	0.333443
C45	C	1.618796	0.579458	0.666776
C46	C	1.029632	-0.088353	0.000115
C47	C	1.362965	0.244980	0.333448
C48	C	1.696299	0.578313	0.666781
C49	C	1.066035	-0.088892	-0.065898
C50	C	1.399369	0.244441	0.267435
C51	C	1.732702	0.577774	0.600769
C52	C	1.138860	-0.089949	-0.065906
C53	C	1.472194	0.243384	0.267427
C54	C	1.805527	0.576717	0.600761
C55	C	1.175277	-0.090481	0.000103
C56	C	1.508611	0.242853	0.333436
C57	C	1.841944	0.576186	0.666769
C58	C	1.138866	-0.089937	0.066124
C59	C	1.472199	0.243396	0.399457
C60	C	1.805533	0.576729	0.732791
C61	C	1.066043	-0.088874	0.066130
C62	C	1.399377	0.244460	0.399463
C63	C	1.732710	0.577793	0.732797
N64	N	1.284303	-0.131675	0.049222
N65	N	1.617636	0.201658	0.382555
N66	N	1.950970	0.534991	0.715888
N67	N	1.353481	-0.132687	0.049211
N68	N	1.686815	0.200646	0.382545
N69	N	2.020148	0.533979	0.715878
C70	C	1.394688	-0.093684	0.000088
C71	C	1.728022	0.239649	0.333422
C72	C	2.061355	0.572982	0.666755
N73	N	1.364102	-0.053640	-0.049035
N74	N	1.697436	0.279693	0.284298
N75	N	2.030769	0.613027	0.617631
N76	N	1.294917	-0.052631	-0.049027
N77	N	1.628250	0.280702	0.284306
N78	N	1.961584	0.614036	0.617640
C79	C	1.254241	-0.091634	0.000103
C80	C	1.587575	0.241700	0.333437
C81	C	1.920908	0.575033	0.666770
C82	C	1.510057	-0.095368	-0.065938
C83	C	1.843390	0.237965	0.267396
C84	C	2.176723	0.571298	0.600729
C85	C	1.582884	-0.096421	-0.065943
C86	C	1.916217	0.236912	0.267390
C87	C	2.249550	0.570246	0.600724
C88	C	1.582887	-0.096416	0.066089
C89	C	1.916220	0.236917	0.399422
C90	C	2.249554	0.570251	0.732756
C91	C	1.510062	-0.095357	0.066092
C92	C	1.843396	0.237977	0.399426
C93	C	2.176729	0.571310	0.732759
C94	C	1.473651	-0.094836	0.000077
C95	C	1.806985	0.238497	0.333410
C96	C	2.140318	0.571830	0.666744
C97	C	0.818967	-0.219658	0.000075
C98	C	1.152301	0.113675	0.333408
C99	C	1.485634	0.447009	0.666741
C100	C	0.820102	-0.296762	0.000064
C101	C	1.153436	0.036572	0.333397
C102	C	1.486769	0.369905	0.666730
N103	N	0.824441	-0.092644	0.188762
N104	N	1.157774	0.240690	0.522095
N105	N	1.491107	0.574023	0.855428
C106	C	0.891919	0.156141	0.000130
C107	C	1.225252	0.489474	0.333463
C108	C	1.558586	0.822808	0.666796
C109	C	0.890853	0.228588	0.000118
C110	C	1.224186	0.561922	0.333451
C111	C	1.557519	0.895255	0.666785
C112	C	0.826690	0.256349	0.000109
C113	C	1.160023	0.589682	0.333442
C114	C	1.493356	0.923015	0.666775
C115	C	0.763588	0.211655	0.000092
C116	C	1.096922	0.544988	0.333426
C117	C	1.430255	0.878322	0.666759
C118	C	0.764656	0.139209	0.000097
C119	C	1.097990	0.472543	0.333430
C120	C	1.431323	0.805876	0.666763
C121	C	0.776244	0.364648	0.042520
C122	C	1.109577	0.697981	0.375853
C123	C	1.442911	1.031314	0.709187
C124	C	0.775179	0.437092	0.042520
C125	C	1.108512	0.770426	0.375854
C126	C	1.441845	1.103759	0.709187
C127	C	0.823393	0.479795	0.000092
C128	C	1.156727	0.813128	0.333425
C129	C	1.490060	1.146461	0.666758
C130	C	0.872685	0.450045	-0.042327
C131	C	1.206018	0.783379	0.291006
C132	C	1.539352	1.116712	0.624339
C133	C	0.873753	0.377600	-0.042323
C134	C	1.207086	0.710933	0.291010
C135	C	1.540420	1.044266	0.624344
C136	C	0.825525	0.334903	0.000103
C137	C	1.158858	0.668236	0.333437
C138	C	1.492191	1.001569	0.666770
C139	C	0.885335	0.603035	0.000090
C140	C	1.218668	0.936368	0.333424
C141	C	1.552001	1.269702	0.666757
C142	C	0.884266	0.675483	0.000074
C143	C	1.217599	1.008817	0.333408
C144	C	1.550932	1.342150	0.666741
C145	C	0.757000	0.658548	0.000056
C146	C	1.090333	0.991881	0.333389
C147	C	1.423666	1.325215	0.666723
C148	C	0.758070	0.586101	0.000065
C149	C	1.091404	0.919435	0.333398
C150	C	1.424737	1.252768	0.666731
C151	C	0.822240	0.558349	0.000085
C152	C	1.155573	0.891683	0.333419
C153	C	1.488906	1.225016	0.666752
N154	N	0.824493	-0.092655	-0.188574
N155	N	1.157826	0.240678	0.144759
N156	N	1.491160	0.574011	0.478092
C157	C	0.872070	-0.045308	0.226875
C158	C	1.205403	0.288026	0.560208
C159	C	1.538737	0.621359	0.893542
C160	C	0.872075	-0.045305	0.303103
C161	C	1.205408	0.288029	0.636436
C162	C	1.538741	0.621362	0.969769
C163	C	0.824456	-0.092649	0.341214
C164	C	1.157790	0.240684	0.674548
C165	C	1.491123	0.574017	1.007881
C166	C	0.776818	-0.139989	0.303092
C167	C	1.110151	0.193344	0.636425
C168	C	1.443485	0.526678	0.969759
C169	C	0.776810	-0.139986	0.226865
C170	C	1.110144	0.193347	0.560199
C171	C	1.443477	0.526681	0.893532
C172	C	0.815110	-0.155935	0.461964
C173	C	1.148443	0.177398	0.795298
C174	C	1.481777	0.510731	1.128631
C175	C	0.815122	-0.155939	0.538189
C176	C	1.148456	0.177394	0.871523
C177	C	1.481789	0.510728	1.204856
C178	C	0.824476	-0.092658	0.576322
C179	C	1.157809	0.240675	0.909655
C180	C	1.491143	0.574009	1.242989
C181	C	0.833832	-0.029370	0.538220
C182	C	1.167165	0.303963	0.871553
C183	C	1.500499	0.637296	1.204887
C184	C	0.833824	-0.029368	0.461994
C185	C	1.167157	0.303966	0.795327
C186	C	1.500491	0.637299	1.128660
C187	C	0.824459	-0.092657	0.423869
C188	C	1.157792	0.240676	0.757202
C189	C	1.491126	0.574009	1.090536
C190	C	0.872113	-0.045315	0.697090
C191	C	1.205446	0.288018	1.030424
C192	C	1.538780	0.621352	1.363757
C193	C	0.872112	-0.045311	0.773319
C194	C	1.205446	0.288022	1.106653
C195	C	1.538779	0.621356	1.439986
C196	C	0.776859	-0.140001	0.773307
C197	C	1.110192	0.193332	1.106640
C198	C	1.443526	0.526666	1.439974
C199	C	0.776856	-0.139999	0.697079
C200	C	1.110190	0.193334	1.030413
C201	C	1.443523	0.526668	1.363746
C202	C	0.824487	-0.092657	0.658975
C203	C	1.157820	0.240677	0.992309
C204	C	1.491153	0.574010	1.325642
H205	H	1.036394	-0.088466	-0.119653
H206	H	1.369727	0.244867	0.213681
H207	H	1.703061	0.578201	0.547014
H208	H	0.841440	0.022163	0.430974
H209	H	1.174773	0.355497	0.764308
H210	H	1.508107	0.688830	1.097641
Cl211	Cl	0.678748	0.529924	0.000053
Cl212	Cl	1.012082	0.863257	0.333386
Cl213	Cl	1.345415	1.196591	0.666719
Cl214	Cl	1.184647	-0.090603	0.149106
Cl215	Cl	1.517980	0.242731	0.482439
Cl216	Cl	1.851314	0.576064	0.815773
H217	H	0.711346	0.234262	0.000083
H218	H	1.044680	0.567595	0.333416
H219	H	1.378013	0.900928	0.666750
Cl220	Cl	1.184634	-0.090629	-0.148900
Cl221	Cl	1.517967	0.242704	0.184434
Cl222	Cl	1.851300	0.576037	0.517767
Cl223	Cl	0.931943	0.014210	0.178974
Cl224	Cl	1.265277	0.347544	0.512307
Cl225	Cl	1.598610	0.680877	0.845640
H226	H	0.738045	-0.178537	0.334126
H227	H	1.071379	0.154797	0.667459
H228	H	1.404712	0.488130	1.000793
H229	H	0.807481	-0.207470	0.430923
H230	H	1.140814	0.125863	0.764257
H231	H	1.474148	0.459197	1.097590
Cl232	Cl	1.020277	-0.088199	0.149124
Cl233	Cl	1.353610	0.245134	0.482458
Cl234	Cl	1.686943	0.578468	0.815791
Cl235	Cl	1.464280	-0.094709	-0.148926
Cl236	Cl	1.797613	0.238624	0.184407
Cl237	Cl	2.130947	0.571958	0.517740
Cl238	Cl	1.628649	-0.097092	-0.148938
Cl239	Cl	1.961983	0.236242	0.184395
Cl240	Cl	2.295316	0.569575	0.517728
Cl241	Cl	1.628663	-0.097073	0.149072
Cl242	Cl	1.961997	0.236260	0.482405
Cl243	Cl	2.295330	0.569594	0.815739
H244	H	0.738085	-0.178547	0.804337
H245	H	1.071418	0.154786	1.137670
H246	H	1.404751	0.488119	1.471003
H247	H	1.480422	-0.094920	0.119847
H248	H	1.813756	0.238413	0.453180
H249	H	2.147089	0.571747	0.786514
Cl250	Cl	0.931958	0.014208	0.351025
Cl251	Cl	1.265291	0.347541	0.684358
Cl252	Cl	1.598624	0.680875	1.017691
H253	H	0.735039	0.461308	0.077056
H254	H	1.068372	0.794642	0.410390
H255	H	1.401706	1.127975	0.743723
H256	H	0.841448	0.022159	0.569266
H257	H	1.174781	0.355492	0.902599
H258	H	1.508115	0.688826	1.235933
H259	H	0.910895	-0.006764	0.666065
H260	H	1.244228	0.326570	0.999398
H261	H	1.577561	0.659903	1.332731
H262	H	0.944171	0.133551	0.000144
H263	H	1.277504	0.466884	0.333477
H264	H	1.610837	0.800217	0.666811
H265	H	0.942232	0.264977	0.000125
H266	H	1.275566	0.598310	0.333458
H267	H	1.608899	0.931644	0.666792
H268	H	0.913887	0.353380	-0.076863
H269	H	1.247220	0.686714	0.256470
H270	H	1.580553	1.020047	0.589803
H271	H	0.713277	0.102827	0.000087
H272	H	1.046610	0.436160	0.333420
H273	H	1.379943	0.769493	0.666753
Cl274	Cl	0.963591	0.731659	0.000085
Cl275	Cl	1.296924	1.064992	0.333418
Cl276	Cl	1.630257	1.398326	0.666751
H277	H	0.704757	0.681149	0.000045
H278	H	1.038090	1.014483	0.333378
H279	H	1.371423	1.347816	0.666711
Cl280	Cl	0.933301	0.503720	-0.095671
Cl281	Cl	1.266635	0.837054	0.237662
Cl282	Cl	1.599968	1.170387	0.570996
H283	H	0.910896	-0.006761	0.804352
H284	H	1.244229	0.326573	1.137685
H285	H	1.577563	0.659906	1.471019
H286	H	0.738075	-0.178547	0.666045
H287	H	1.071408	0.154786	0.999379
H288	H	1.404741	0.488119	1.332712
Cl289	Cl	0.966003	0.568143	0.000121
Cl290	Cl	1.299336	0.901477	0.333454
Cl291	Cl	1.632670	1.234810	0.666787
H292	H	0.807509	-0.207472	0.569206
H293	H	1.140842	0.125862	0.902539
H294	H	1.474176	0.459195	1.235873
H295	H	0.736980	0.329884	0.077074
H296	H	1.070313	0.663218	0.410408
H297	H	1.403647	0.996551	0.743741
Cl298	Cl	0.716929	-0.199499	0.178948
Cl299	Cl	1.050263	0.133834	0.512282
Cl300	Cl	1.383596	0.467167	0.845615
