data_functionalizedCrystal
_audit_creation_method	'MofGen! by Chris Wilmer'
_symmetry_space_group_name_H-M	'P1'
_symmetry_Int_Tables_number	1
_symmetry_cell_setting	triclinic
loop_
_symmetry_equiv_pos_as_xyz
  x,y,z
_cell_length_a	29.839134
_cell_length_b	29.839131
_cell_length_c	29.839135
_cell_angle_alpha	90.015469
_cell_angle_beta	90.013757
_cell_angle_gamma	90.021992
loop_
_atom_site_label
_atom_site_type_symbol
_atom_site_fract_x
_atom_site_fract_y
_atom_site_fract_z
Zn1	Zn	0.686726	-0.179159	0.254008
Zn2	Zn	1.186726	0.320841	0.754008
Zn3	Zn	0.686657	-0.254268	0.178877
Zn4	Zn	1.186657	0.245732	0.678877
Zn5	Zn	0.611607	-0.179128	0.178890
Zn6	Zn	1.111607	0.320872	0.678890
Zn7	Zn	0.611557	-0.254237	0.253979
Zn8	Zn	1.111557	0.245763	0.753979
O9	O	0.649137	-0.216698	0.216438
O10	O	1.149137	0.283302	0.716438
O11	O	0.749584	-0.189149	0.244048
O12	O	1.249584	0.310851	0.744048
O13	O	0.676693	-0.244300	0.116012
O14	O	1.176693	0.255700	0.616012
O15	O	0.621622	-0.116265	0.188872
O16	O	1.121622	0.383735	0.688872
O17	O	0.749533	-0.244331	0.188851
O18	O	1.249533	0.255669	0.688851
O19	O	0.676812	-0.116288	0.244060
O20	O	1.176812	0.383712	0.744060
O21	O	0.621554	-0.189095	0.116021
O22	O	1.121554	0.310905	0.616021
O23	O	0.548733	-0.189065	0.188844
O24	O	1.048733	0.310935	0.688844
O25	O	0.621537	-0.244278	0.316850
O26	O	1.121537	0.255722	0.816850
O27	O	0.548697	-0.244248	0.244011
O28	O	1.048697	0.255752	0.744011
O29	O	0.676763	-0.189119	0.316871
O30	O	1.176763	0.310881	0.816871
O31	O	0.676644	-0.317131	0.188823
O32	O	1.176644	0.182869	0.688823
O33	O	0.621469	-0.317109	0.243999
O34	O	1.121469	0.182891	0.743999
C35	C	0.532414	-0.216650	0.216426
C36	C	1.032414	0.283350	0.716426
C37	C	0.482480	-0.216640	0.216431
C38	C	0.982480	0.283360	0.716431
C39	C	0.125915	-0.188025	0.245236
C40	C	0.625915	0.311975	0.745236
C41	C	0.313588	-0.187988	0.245226
C42	C	0.813588	0.312012	0.745226
O43	O	0.337872	-0.163601	0.269715
O44	O	0.837872	0.336399	0.769715
N45	N	0.337035	-0.216670	0.216442
N46	N	0.837035	0.283330	0.716442
C47	C	0.313560	-0.245364	0.187660
C48	C	0.813560	0.254636	0.687660
O49	O	0.337809	-0.269761	0.163181
O50	O	0.837809	0.230239	0.663181
C51	C	0.125888	-0.245402	0.187673
C52	C	0.625888	0.254598	0.687673
C53	C	0.102444	-0.216716	0.216456
C54	C	0.602444	0.283284	0.716456
C55	C	0.102471	-0.159341	0.274017
C56	C	0.602471	0.340659	0.774017
C57	C	0.055556	-0.159349	0.274018
C58	C	0.555556	0.340651	0.774018
C59	C	0.032084	-0.188040	0.245238
C60	C	0.532084	0.311960	0.745238
C61	C	0.055528	-0.216723	0.216457
C62	C	0.555528	0.283277	0.716457
C63	C	0.102414	-0.274098	0.158894
C64	C	0.602414	0.225902	0.658894
C65	C	0.055493	-0.274106	0.158901
C66	C	0.555493	0.225894	0.658901
C67	C	0.032049	-0.245420	0.187684
C68	C	0.532049	0.254580	0.687684
C69	C	-0.014859	-0.245422	0.187677
C70	C	0.485141	0.254578	0.687677
N71	N	-0.038305	-0.216741	0.216461
N72	N	0.461695	0.283259	0.716461
C73	C	-0.014834	-0.188050	0.245241
C74	C	0.485166	0.311950	0.745241
C75	C	0.412090	-0.245341	0.187655
C76	C	0.912090	0.254659	0.687655
C77	C	0.459008	-0.245331	0.187651
C78	C	0.959008	0.254669	0.687651
C79	C	0.459034	-0.187956	0.245218
C80	C	0.959034	0.312044	0.745218
C81	C	0.412115	-0.187964	0.245219
C82	C	0.912115	0.312036	0.745219
C83	C	0.388644	-0.216660	0.216439
C84	C	0.888644	0.283340	0.716439
C85	C	-0.113359	-0.188068	0.245240
C86	C	0.386641	0.311932	0.745240
C87	C	-0.160279	-0.188076	0.245237
C88	C	0.339721	0.311924	0.745237
C89	C	-0.160300	-0.245453	0.187672
C90	C	0.339700	0.254547	0.687672
C91	C	-0.113385	-0.245443	0.187674
C92	C	0.386615	0.254557	0.687674
C93	C	-0.089915	-0.216748	0.216461
C94	C	0.410085	0.283252	0.716461
O95	O	-0.039171	-0.269800	0.163204
O96	O	0.460829	0.230200	0.663204
O97	O	-0.039090	-0.163663	0.269725
O98	O	0.460910	0.336337	0.769725
C99	C	0.172831	-0.188017	0.245236
C100	C	0.672831	0.311983	0.745236
C101	C	0.196275	-0.216700	0.216455
C102	C	0.696275	0.283300	0.716455
C103	C	0.172803	-0.245392	0.187675
C104	C	0.672803	0.254608	0.687675
C105	C	0.243192	-0.216690	0.216451
C106	C	0.743192	0.283310	0.716451
C107	C	0.266664	-0.187999	0.245231
C108	C	0.766664	0.312001	0.745231
C109	C	0.243218	-0.159318	0.274016
C110	C	0.743218	0.340682	0.774016
C111	C	0.196302	-0.159326	0.274016
C112	C	0.696302	0.340674	0.774016
C113	C	0.196249	-0.274073	0.158890
C114	C	0.696249	0.225927	0.658890
C115	C	0.243165	-0.274062	0.158892
C116	C	0.743165	0.225938	0.658892
C117	C	0.266637	-0.245371	0.187672
C118	C	0.766637	0.254629	0.687672
C119	C	0.649056	-0.333421	0.216416
C120	C	1.149056	0.166579	0.716416
C121	C	0.649062	-0.383355	0.216422
C122	C	1.149062	0.116645	0.716422
C123	C	0.677919	-0.692998	0.187750
C124	C	1.177919	-0.192998	0.687750
C125	C	0.677974	-0.880671	0.187767
C126	C	1.177974	-0.380671	0.687767
O127	O	0.702445	-0.904935	0.163373
O128	O	1.202445	-0.404935	0.663373
N129	N	0.649230	-0.904140	0.216472
N130	N	1.149230	-0.404140	0.716472
C131	C	0.620472	-0.880688	0.245177
C132	C	1.120472	-0.380688	0.745177
O133	O	0.596028	-0.904957	0.269596
O134	O	1.096028	-0.404957	0.769596
C135	C	0.620419	-0.693016	0.245161
C136	C	1.120419	-0.193016	0.745161
C137	C	0.649162	-0.669549	0.216451
C138	C	1.149162	-0.169549	0.716451
C139	C	0.706660	-0.669531	0.159043
C140	C	1.206660	-0.169531	0.659043
C141	C	0.706644	-0.622615	0.159037
C142	C	1.206644	-0.122615	0.659037
C143	C	0.677887	-0.599167	0.187738
C144	C	1.177887	-0.099167	0.687738
C145	C	0.649146	-0.622634	0.216446
C146	C	1.149146	-0.122634	0.716446
C147	C	0.591663	-0.669565	0.273868
C148	C	1.091663	-0.169565	0.773868
C149	C	0.591654	-0.622644	0.273862
C150	C	1.091654	-0.122644	0.773862
C151	C	0.620397	-0.599177	0.245152
C152	C	1.120397	-0.099177	0.745152
C153	C	0.620373	-0.552270	0.245141
C154	C	1.120373	-0.052270	0.745141
N155	N	0.649118	-0.528800	0.216436
N156	N	1.149118	-0.028800	0.716436
C157	C	0.677874	-0.552249	0.187735
C158	C	1.177874	-0.052249	0.687735
C159	C	0.620501	-0.979219	0.245182
C160	C	1.120501	-0.479219	0.745182
C161	C	0.620514	-1.026137	0.245186
C162	C	1.120514	-0.526137	0.745186
C163	C	0.678017	-1.026116	0.187777
C164	C	1.178017	-0.526116	0.687777
C165	C	0.678002	-0.979197	0.187771
C166	C	1.178002	-0.479197	0.687771
C167	C	0.649245	-0.955750	0.216478
C168	C	1.149245	-0.455750	0.716478
C169	C	0.677839	-0.453723	0.187725
C170	C	1.177839	0.046277	0.687725
C171	C	0.677819	-0.406803	0.187720
C172	C	1.177819	0.093197	0.687720
C173	C	0.620318	-0.406829	0.245131
C174	C	1.120318	0.093171	0.745131
C175	C	0.620335	-0.453744	0.245134
C176	C	1.120335	0.046256	0.745134
C177	C	0.649100	-0.477190	0.216429
C178	C	1.149100	0.022810	0.716429
O179	O	0.595919	-0.527977	0.269527
O180	O	1.095919	-0.027977	0.769527
O181	O	0.702322	-0.527972	0.163327
O182	O	1.202322	-0.027972	0.663327
C183	C	0.677935	-0.739913	0.187756
C184	C	1.177935	-0.239913	0.687756
C185	C	0.649194	-0.763380	0.216463
C186	C	1.149194	-0.263380	0.716463
C187	C	0.620437	-0.739932	0.245165
C188	C	1.120437	-0.239932	0.745165
C189	C	0.649206	-0.810298	0.216466
C190	C	1.149206	-0.310298	0.716466
C191	C	0.677963	-0.833746	0.187765
C192	C	1.177963	-0.333746	0.687765
C193	C	0.706707	-0.810277	0.159060
C194	C	1.206707	-0.310277	0.659060
C195	C	0.706692	-0.763361	0.159054
C196	C	1.206692	-0.263361	0.659054
C197	C	0.591692	-0.763401	0.273869
C198	C	1.091692	-0.263401	0.773869
C199	C	0.591710	-0.810317	0.273873
C200	C	1.091710	-0.310317	0.773873
C201	C	0.620467	-0.833765	0.245171
C202	C	1.120467	-0.333765	0.745171
C203	C	0.766315	-0.216747	0.216451
C204	C	1.266315	0.283253	0.716451
C205	C	0.816250	-0.216767	0.216457
C206	C	1.316250	0.283233	0.716457
C207	C	0.649152	-0.216699	0.333617
C208	C	1.149152	0.283301	0.833617
C209	C	0.649159	-0.216699	0.383551
C210	C	1.149159	0.283301	0.883551
C211	C	0.649230	-0.099520	0.216471
C212	C	1.149230	0.400480	0.716471
C213	C	0.649270	-0.049585	0.216484
C214	C	1.149270	0.450415	0.716484
C215	C	0.620424	-0.187955	0.693202
C216	C	1.120424	0.312045	1.193202
C217	C	0.620417	-0.187953	0.880875
C218	C	1.120417	0.312047	1.380875
O219	O	0.595989	-0.163522	0.905147
O220	O	1.095989	0.336478	1.405147
N221	N	0.649125	-0.216694	0.904336
N222	N	1.149125	0.283306	1.404336
C223	C	0.677834	-0.245439	0.880876
C224	C	1.177834	0.254561	1.380876
O225	O	0.702248	-0.269888	0.905137
O226	O	1.202248	0.230112	1.405137
C227	C	0.677839	-0.245444	0.693204
C228	C	1.177839	0.254556	1.193204
C229	C	0.649132	-0.216698	0.669745
C230	C	1.149132	0.283302	1.169745
C231	C	0.591720	-0.159212	0.669744
C232	C	1.091720	0.340788	1.169744
C233	C	0.591724	-0.159211	0.622828
C234	C	1.091724	0.340789	1.122828
C235	C	0.620432	-0.187954	0.599371
C236	C	1.120432	0.312046	1.099371
C237	C	0.649136	-0.216697	0.622830
C238	C	1.149136	0.283303	1.122830
C239	C	0.706546	-0.274192	0.669745
C240	C	1.206546	0.225808	1.169745
C241	C	0.706543	-0.274191	0.622824
C242	C	1.206543	0.225809	1.122824
C243	C	0.677837	-0.245445	0.599365
C244	C	1.177837	0.254555	1.099365
C245	C	0.677848	-0.245439	0.552458
C246	C	1.177848	0.254561	1.052458
N247	N	0.649141	-0.216698	0.528997
N248	N	1.149141	0.283302	1.028997
C249	C	0.620432	-0.187955	0.552453
C250	C	1.120432	0.312045	1.052453
C251	C	0.677830	-0.245434	0.979407
C252	C	1.177830	0.254566	1.479407
C253	C	0.677830	-0.245432	1.026325
C254	C	1.177830	0.254568	1.526325
C255	C	0.620412	-0.187946	1.026321
C256	C	1.120412	0.312054	1.526321
C257	C	0.620415	-0.187946	0.979402
C258	C	1.120415	0.312054	1.479402
C259	C	0.649123	-0.216693	0.955946
C260	C	1.149123	0.283307	1.455946
C261	C	0.620443	-0.187956	0.453928
C262	C	1.120443	0.312044	0.953928
C263	C	0.620450	-0.187956	0.407008
C264	C	1.120450	0.312044	0.907008
C265	C	0.677866	-0.245444	0.407016
C266	C	1.177866	0.254556	0.907016
C267	C	0.677861	-0.245442	0.453932
C268	C	1.177861	0.254558	0.953932
C269	C	0.649145	-0.216696	0.477386
C270	C	1.149145	0.283304	0.977386
O271	O	0.702260	-0.269860	0.528157
O272	O	1.202260	0.230140	1.028157
O273	O	0.596015	-0.163517	0.528184
O274	O	1.096015	0.336483	1.028184
C275	C	0.620420	-0.187956	0.740118
C276	C	1.120420	0.312044	1.240118
C277	C	0.649125	-0.216699	0.763576
C278	C	1.149125	0.283301	1.263576
C279	C	0.677833	-0.245442	0.740119
C280	C	1.177833	0.254558	1.240119
C281	C	0.649124	-0.216698	0.810494
C282	C	1.149124	0.283302	1.310494
C283	C	0.620416	-0.187955	0.833951
C284	C	1.120416	0.312045	1.333951
C285	C	0.591708	-0.159214	0.810490
C286	C	1.091708	0.340786	1.310490
C287	C	0.591712	-0.159214	0.763575
C288	C	1.091712	0.340786	1.263575
C289	C	0.706541	-0.274183	0.763580
C290	C	1.206541	0.225817	1.263580
C291	C	0.706535	-0.274181	0.810496
C292	C	1.206535	0.225819	1.310496
C293	C	0.677827	-0.245438	0.833953
C294	C	1.177827	0.254562	1.333953
C295	C	0.649121	-0.216703	1.099716
C296	C	1.149121	0.283297	1.599716
C297	C	0.649122	-0.216690	1.049781
C298	C	1.149122	0.283310	1.549781
H299	H	0.478092	-0.268686	0.164208
H300	H	0.978092	0.231314	0.664208
H301	H	0.701208	-0.268846	0.960313
H302	H	1.201208	0.231154	1.460313
C303	C	0.386278	-0.276904	0.155991
C304	C	0.886278	0.223096	0.655991
H305	H	0.406966	-0.293978	0.138847
H306	H	0.906966	0.206022	0.638847
H307	H	0.367977	-0.296512	0.173137
H308	H	0.867977	0.203488	0.673137
H309	H	0.367975	-0.259690	0.136446
H310	H	0.867975	0.240310	0.636446
H311	H	0.177218	-0.135966	0.297454
H312	H	0.677218	0.364034	0.797454
H313	H	0.730121	-0.829377	0.135689
H314	H	1.230121	-0.329377	0.635689
C315	C	0.709441	-0.277060	0.381208
C316	C	1.209441	0.222940	0.881208
H317	H	0.705325	-0.272944	0.349906
H318	H	1.205325	0.227056	0.849906
H319	H	0.739633	-0.270504	0.388904
H320	H	1.239633	0.229496	0.888904
H321	H	0.702835	-0.307244	0.388886
H322	H	1.202835	0.192756	0.888886
H323	H	0.730050	-0.603511	0.135660
H324	H	1.230050	-0.103511	0.635660
H325	H	0.729917	-0.297591	0.744487
H326	H	1.229917	0.202409	1.244487
C327	C	0.560049	-0.695369	0.305453
C328	C	1.060049	-0.195369	0.805453
H329	H	0.542928	-0.674678	0.322547
H330	H	1.042928	-0.174678	0.822547
H331	H	0.540487	-0.713693	0.288259
H332	H	1.040487	-0.213693	0.788259
H333	H	0.577231	-0.713650	0.325047
H334	H	1.077231	-0.213650	0.825047
C335	C	0.560021	-0.596855	0.305440
C336	C	1.060021	-0.096855	0.805440
H337	H	0.542905	-0.617553	0.322535
H338	H	1.042905	-0.117553	0.822535
H339	H	0.577188	-0.578533	0.325028
H340	H	1.077188	-0.078533	0.825028
H341	H	0.540448	-0.578573	0.288235
H342	H	1.040448	-0.078573	0.788235
C343	C	0.269040	-0.127759	0.305675
C344	C	0.769040	0.372241	0.805675
H345	H	0.248361	-0.110673	0.322818
H346	H	0.748361	0.389327	0.822818
H347	H	0.287345	-0.144974	0.325215
H348	H	0.787345	0.355026	0.825215
H349	H	0.287342	-0.108155	0.288520
H350	H	0.787342	0.391845	0.788520
C351	C	-0.186125	-0.277012	0.156018
C352	C	0.313875	0.222988	0.656018
H353	H	-0.217424	-0.272910	0.160147
H354	H	0.282576	0.227090	0.660147
H355	H	-0.178446	-0.270396	0.125843
H356	H	0.321554	0.229604	0.625843
H357	H	-0.178441	-0.307207	0.162545
H358	H	0.321559	0.192793	0.662545
C359	C	0.560131	-0.127597	0.737776
C360	C	1.060131	0.372403	1.237776
H361	H	0.543032	-0.110484	0.758471
H362	H	1.043032	0.389516	1.258471
H363	H	0.577328	-0.108027	0.719482
H364	H	1.077328	0.391973	1.219482
H365	H	0.540540	-0.144777	0.719466
H366	H	1.040540	0.355223	1.219466
H367	H	0.262249	-0.297422	0.135449
H368	H	0.762249	0.202578	0.635449
H369	H	0.701432	-1.045216	0.164407
H370	H	1.201432	-0.545216	0.664407
H371	H	0.701225	-0.387698	0.164339
H372	H	1.201225	0.112302	0.664339
C373	C	0.709475	-0.479507	0.156147
C374	C	1.209475	0.020493	0.656147
H375	H	0.726584	-0.458806	0.139049
H376	H	1.226584	0.041194	0.639049
H377	H	0.729047	-0.497791	0.173347
H378	H	1.229047	0.002209	0.673347
H379	H	0.692305	-0.497827	0.136556
H380	H	1.192305	0.002173	0.636556
H381	H	0.036472	-0.135991	0.297458
H382	H	0.536472	0.364009	0.797458
C383	C	0.738293	-0.695317	0.127466
C384	C	1.238293	-0.195317	0.627466
H385	H	0.755402	-0.674615	0.110369
H386	H	1.255402	-0.174615	0.610369
H387	H	0.757864	-0.713603	0.144663
H388	H	1.257864	-0.213603	0.644663
H389	H	0.721122	-0.713634	0.107873
H390	H	1.221122	-0.213634	0.607873
C391	C	-0.087550	-0.156502	0.276903
C392	C	0.412450	0.343498	0.776903
H393	H	-0.108237	-0.139420	0.294039
H394	H	0.391763	0.360580	0.794039
H395	H	-0.069245	-0.173709	0.296450
H396	H	0.430755	0.326291	0.796450
H397	H	-0.069250	-0.136896	0.259750
H398	H	0.430750	0.363104	0.759750
H399	H	0.701407	-0.960093	0.164394
H400	H	1.201407	-0.460093	0.664394
C401	C	0.128283	-0.127775	0.305676
C402	C	0.628283	0.372225	0.805676
H403	H	0.107594	-0.110694	0.322812
H404	H	0.607594	0.389306	0.822812
H405	H	0.146591	-0.144979	0.325222
H406	H	0.646591	0.355021	0.825222
H407	H	0.146580	-0.108167	0.288521
H408	H	0.646580	0.391833	0.788521
C409	C	0.738123	-0.305813	0.597025
C410	C	1.238123	0.194187	1.097025
H411	H	0.755219	-0.322929	0.617718
H412	H	1.255219	0.177071	1.117718
H413	H	0.720923	-0.325380	0.578711
H414	H	1.220923	0.174620	1.078711
H415	H	0.757716	-0.288636	0.578734
H416	H	1.257716	0.211364	1.078734
C417	C	0.484856	-0.156398	0.276878
C418	C	0.984856	0.343602	0.776878
H419	H	0.464177	-0.139314	0.294023
H420	H	0.964177	0.360686	0.794023
H421	H	0.503162	-0.173613	0.296416
H422	H	1.003162	0.326387	0.796416
H423	H	0.503156	-0.136791	0.259724
H424	H	1.003156	0.363209	0.759724
H425	H	-0.094296	-0.268797	0.164232
H426	H	0.405704	0.231203	0.664232
C427	C	0.588894	-1.051946	0.276764
C428	C	1.088894	-0.551946	0.776764
H429	H	0.571770	-1.031257	0.293859
H430	H	1.071770	-0.531257	0.793859
H431	H	0.569334	-1.070268	0.259566
H432	H	1.069334	-0.570268	0.759566
H433	H	0.606074	-1.070228	0.296359
H434	H	1.106074	-0.570228	0.796359
C435	C	0.386331	-0.156414	0.276884
C436	C	0.886331	0.343586	0.776884
H437	H	0.407033	-0.139329	0.294025
H438	H	0.907033	0.360671	0.794025
H439	H	0.368023	-0.136817	0.259740
H440	H	0.868023	0.363183	0.759740
H441	H	0.368035	-0.173637	0.296433
H442	H	0.868035	0.326363	0.796433
C443	C	0.588824	-0.156340	1.052129
C444	C	1.088824	0.343660	1.552129
H445	H	0.592933	-0.160463	1.083430
H446	H	1.092933	0.339537	1.583430
H447	H	0.595410	-0.126153	1.044456
H448	H	1.095410	0.373847	1.544456
H449	H	0.558635	-0.162916	1.044428
H450	H	1.058635	0.337084	1.544428
C451	C	0.128192	-0.305656	0.127235
C452	C	0.628192	0.194344	0.627235
H453	H	0.107487	-0.322746	0.110102
H454	H	0.607487	0.177254	0.610102
H455	H	0.146493	-0.288444	0.107686
H456	H	0.646493	0.211556	0.607686
H457	H	0.146493	-0.325256	0.144387
H458	H	0.646493	0.174744	0.644387
C459	C	0.709444	-0.277054	0.479737
C460	C	1.209444	0.222946	0.979737
H461	H	0.726542	-0.294172	0.459046
H462	H	1.226542	0.205828	0.959046
H463	H	0.729028	-0.259876	0.498052
H464	H	1.229028	0.240124	0.998052
H465	H	0.692241	-0.296627	0.498028
H466	H	1.192241	0.203373	0.998028
C467	C	0.588872	-0.156336	0.381204
C468	C	1.088872	0.343664	0.881204
H469	H	0.592987	-0.160448	0.349901
H470	H	1.092987	0.339552	0.849901
H471	H	0.558682	-0.162898	0.388883
H472	H	1.058682	0.337102	0.888883
H473	H	0.595474	-0.126153	0.388905
H474	H	1.095474	0.373847	0.888905
H475	H	0.036385	-0.297475	0.135466
H476	H	0.536385	0.202525	0.635466
H477	H	0.177144	-0.297438	0.135454
H478	H	0.677144	0.202562	0.635454
H479	H	0.597083	-0.960131	0.268559
H480	H	1.097083	-0.460131	0.768559
H481	H	0.568300	-0.829420	0.297251
H482	H	1.068300	-0.329420	0.797251
C483	C	0.588719	-0.479559	0.276713
C484	C	1.088719	0.020441	0.776713
H485	H	0.571592	-0.458872	0.293807
H486	H	1.071592	0.041128	0.793807
H487	H	0.569162	-0.497886	0.259516
H488	H	1.069162	0.002114	0.759516
H489	H	0.605903	-0.497837	0.296308
H490	H	1.105903	0.002163	0.796308
C491	C	0.588690	-0.381029	0.276702
C492	C	1.088690	0.118971	0.776702
H493	H	0.592803	-0.349726	0.272588
H494	H	1.092803	0.150274	0.772588
H495	H	0.558510	-0.388738	0.270106
H496	H	1.058510	0.111262	0.770106
H497	H	0.595253	-0.388702	0.306895
H498	H	1.095253	0.111298	0.806895
H499	H	0.730097	-0.744258	0.135676
H500	H	1.230097	-0.244258	0.635676
H501	H	0.568276	-0.744313	0.297242
H502	H	1.068276	-0.244313	0.797242
C503	C	0.588860	-0.156334	0.479721
C504	C	1.088860	0.343666	0.979721
H505	H	0.571770	-0.139214	0.459025
H506	H	1.071770	0.360786	0.959025
H507	H	0.569267	-0.173505	0.498014
H508	H	1.069267	0.326495	0.998014
H509	H	0.606063	-0.136763	0.498032
H510	H	1.106063	0.363237	0.998032
C511	C	0.560129	-0.127598	0.836296
C512	C	1.060129	0.372402	1.336296
H513	H	0.543033	-0.110475	0.815609
H514	H	1.043033	0.389525	1.315609
H515	H	0.540543	-0.144778	0.854589
H516	H	1.040543	0.355222	1.354589
H517	H	0.577333	-0.108030	0.854609
H518	H	1.077333	0.391970	1.354609
C519	C	0.560143	-0.127594	0.597030
C520	C	1.060143	0.372406	1.097030
H521	H	0.543045	-0.110481	0.617725
H522	H	1.043045	0.389519	1.117725
H523	H	0.577341	-0.108024	0.578736
H524	H	1.077341	0.391976	1.078736
H525	H	0.540552	-0.144773	0.578719
H526	H	1.040552	0.355227	1.078719
C527	C	0.588832	-0.156332	0.953602
C528	C	1.088832	0.343668	1.453602
H529	H	0.571734	-0.139218	0.974295
H530	H	1.071734	0.360782	1.474295
H531	H	0.606027	-0.136764	0.935305
H532	H	1.106027	0.363236	1.435305
H533	H	0.569241	-0.173515	0.935294
H534	H	1.069241	0.326485	1.435294
H535	H	0.568340	-0.135806	0.688837
H536	H	1.068340	0.364194	1.188837
H537	H	0.701210	-0.268835	1.045421
H538	H	1.201210	0.231165	1.545421
C539	C	0.738113	-0.305804	0.836295
C540	C	1.238113	0.194196	1.336295
H541	H	0.755207	-0.322924	0.815601
H542	H	1.255207	0.177076	1.315601
H543	H	0.757703	-0.288633	0.854611
H544	H	1.257703	0.211367	1.354611
H545	H	0.720906	-0.325374	0.854584
H546	H	1.220906	0.174626	1.354584
C547	C	-0.186065	-0.156523	0.276902
C548	C	0.313935	0.343477	0.776902
H549	H	-0.165364	-0.139439	0.294045
H550	H	0.334636	0.360561	0.794045
H551	H	-0.204369	-0.136924	0.259755
H552	H	0.295631	0.363076	0.759755
H553	H	-0.204365	-0.173744	0.296448
H554	H	0.295635	0.326256	0.796448
C555	C	0.738117	-0.305818	0.695539
C556	C	1.238117	0.194182	1.195539
H557	H	0.755207	-0.322939	0.674843
H558	H	1.255207	0.177061	1.174843
H559	H	0.757710	-0.288651	0.713855
H560	H	1.257710	0.211349	1.213855
H561	H	0.720909	-0.325387	0.713827
H562	H	1.220909	0.174613	1.213827
