data_functionalizedCrystal
_audit_creation_method	'MofGen! by Chris Wilmer'
_symmetry_space_group_name_H-M	'P1'
_symmetry_Int_Tables_number	1
_symmetry_cell_setting	triclinic
loop_
_symmetry_equiv_pos_as_xyz
  x,y,z
_cell_length_a	17.038272
_cell_length_b	16.992695
_cell_length_c	16.053802
_cell_angle_alpha	92.741074
_cell_angle_beta	87.238566
_cell_angle_gamma	90.889890
loop_
_atom_site_label
_atom_site_type_symbol
_atom_site_fract_x
_atom_site_fract_y
_atom_site_fract_z
O1	O	1.051195	0.167893	-0.069325
O2	O	1.551195	0.667893	0.430675
O3	O	0.823395	0.165177	-0.069350
O4	O	1.323395	0.665177	0.430650
O5	O	0.936382	0.052332	-0.069331
O6	O	1.436382	0.552332	0.430669
O7	O	0.938209	0.280738	-0.069344
O8	O	1.438209	0.780738	0.430656
O9	O	0.930161	0.058516	0.069527
O10	O	1.430161	0.558516	0.569527
O11	O	0.817174	0.171361	0.069508
O12	O	1.317174	0.671361	0.569508
O13	O	1.044974	0.174077	0.069533
O14	O	1.544974	0.674077	0.569533
Zn15	Zn	0.930087	0.173701	0.091567
Zn16	Zn	1.430087	0.673701	0.591567
Zn17	Zn	0.938283	0.165553	-0.091384
Zn18	Zn	1.438283	0.665553	0.408616
O19	O	0.931988	0.286922	0.069514
O20	O	1.431988	0.786922	0.569514
C21	C	0.930922	0.026054	0.000098
C22	C	1.430922	0.526054	0.500098
C23	C	0.923911	-0.061457	0.000097
C24	C	1.423911	0.438543	0.500097
C25	C	0.791002	0.165799	0.000076
C26	C	1.291002	0.665799	0.500076
C27	C	0.703747	0.158432	0.000067
C28	C	1.203747	0.658432	0.500067
C29	C	0.991551	-0.107186	0.000105
C30	C	1.491551	0.392814	0.500105
C31	C	0.984960	-0.189412	0.000096
C32	C	1.484960	0.310588	0.500096
C33	C	0.910728	-0.225909	0.000085
C34	C	1.410728	0.274091	0.500085
C35	C	0.843083	-0.180175	0.000075
C36	C	1.343083	0.319825	0.500075
C37	C	0.849676	-0.097950	0.000077
C38	C	1.349676	0.402050	0.500077
C39	C	0.883406	-0.471330	0.000071
C40	C	1.383406	0.028670	0.500071
C41	C	0.876819	-0.553561	0.000071
C42	C	1.376819	-0.053561	0.500071
C43	C	1.018696	-0.562793	0.000091
C44	C	1.518696	-0.062793	0.500091
C45	C	1.025282	-0.480565	0.000098
C46	C	1.525282	0.019435	0.500098
C47	C	0.957637	-0.434839	0.000083
C48	C	1.457637	0.065161	0.500083
N49	N	0.903989	-0.309958	0.000079
N50	N	1.403989	0.190042	0.500079
N51	N	0.964377	-0.350792	0.000083
N52	N	1.464377	0.149208	0.500083
C53	C	0.657877	0.226072	0.000064
C54	C	1.157877	0.726072	0.500064
C55	C	0.575891	0.219145	0.000076
C56	C	1.075891	0.719145	0.500076
C57	C	0.539777	0.144578	0.000085
C58	C	1.039777	0.644578	0.500085
C59	C	0.585654	0.076933	0.000090
C60	C	1.085654	0.576933	0.500090
C61	C	0.667637	0.083861	0.000084
C62	C	1.167637	0.583861	0.500084
C63	C	0.292483	0.120105	0.000108
C64	C	0.792483	0.620105	0.500108
C65	C	0.210493	0.113182	0.000112
C66	C	0.710493	0.613182	0.500112
C67	C	0.200736	0.255395	0.000099
C68	C	0.700736	0.755395	0.500099
C69	C	0.282722	0.262316	0.000088
C70	C	0.782722	0.762316	0.500088
C71	C	0.328591	0.194671	0.000098
C72	C	0.828591	0.694671	0.500098
C73	C	0.455975	0.137496	0.000094
C74	C	0.955975	0.637496	0.500094
C75	C	0.412392	0.201754	0.000094
C76	C	0.912392	0.701754	0.500094
C77	C	1.077368	0.173454	0.000105
C78	C	1.577368	0.673454	0.500105
C79	C	1.164623	0.180822	0.000109
C80	C	1.664623	0.680822	0.500109
C81	C	0.937448	0.313199	0.000083
C82	C	1.437448	0.813199	0.500083
C83	C	0.944458	0.400711	0.000079
C84	C	1.444458	0.900711	0.500079
N85	N	0.924499	0.179261	0.216426
N86	N	1.424499	0.679261	0.716426
N87	N	0.943877	0.159987	-0.216244
N88	N	1.443877	0.659987	0.283756
C89	C	0.972594	0.131265	0.260128
C90	C	1.472594	0.631265	0.760128
C91	C	0.968693	0.135162	0.347534
C92	C	1.468693	0.635162	0.847534
C93	C	0.916700	0.187061	0.391237
C94	C	1.416700	0.687061	0.891237
C95	C	0.868599	0.235059	0.347529
C96	C	1.368599	0.735059	0.847529
C97	C	0.872497	0.231157	0.260124
C98	C	1.372497	0.731157	0.760124
C99	C	0.899673	0.204083	0.652644
C100	C	1.399673	0.704083	1.152644
C101	C	0.895781	0.207983	0.740054
C102	C	1.395781	0.707983	1.240054
C103	C	0.995875	0.108085	0.740054
C104	C	1.495875	0.608085	1.240054
C105	C	0.999771	0.104191	0.652648
C106	C	1.499771	0.604191	1.152648
C107	C	0.951667	0.152186	0.608947
C108	C	1.451667	0.652186	1.108947
N109	N	0.912713	0.191048	0.480580
N110	N	1.412713	0.691048	0.980580
N111	N	0.955651	0.148195	0.519606
N112	N	1.455651	0.648195	1.019606
H113	H	1.040040	-0.226641	0.000105
H114	H	1.540040	0.273359	0.500105
H115	H	0.833331	0.270239	0.224543
H116	H	1.333331	0.770239	0.724543
H117	H	0.853439	0.250248	0.775633
H118	H	1.353439	0.750248	1.275633
H119	H	1.014936	0.089007	0.224551
H120	H	1.514936	0.589007	0.724551
C121	C	1.056960	0.047100	0.604572
C122	C	1.556960	0.547100	1.104572
C123	C	1.109868	-0.005702	0.652635
C124	C	1.609868	0.494298	1.152635
C125	C	1.167059	-0.062790	0.604556
C126	C	1.667059	0.437210	1.104556
C127	C	1.171342	-0.067076	0.508414
C128	C	1.671342	0.432924	1.008414
C129	C	1.118432	-0.014272	0.460346
C130	C	1.618432	0.485728	0.960346
C131	C	1.061241	0.042816	0.508425
C132	C	1.561241	0.542816	1.008425
H133	H	1.106699	-0.002530	0.723809
H134	H	1.606699	0.497470	1.223809
H135	H	1.206226	-0.101878	0.640140
H136	H	1.706226	0.398122	1.140140
H137	H	1.213678	-0.109336	0.472824
H138	H	1.713678	0.390664	0.972824
H139	H	1.121601	-0.017443	0.389172
H140	H	1.621601	0.482557	0.889172
H141	H	1.022074	0.081905	0.472841
H142	H	1.522074	0.581905	0.972841
H143	H	0.826261	0.277313	0.383117
H144	H	1.326261	0.777313	0.883117
H145	H	0.816367	-0.583273	0.000075
H146	H	1.316367	-0.083273	0.500075
H147	H	1.051999	-0.077476	0.000119
H148	H	1.551999	0.422524	0.500119
H149	H	1.085729	-0.450856	0.000107
H150	H	1.585729	0.049144	0.500107
H151	H	0.329820	0.065023	0.000117
H152	H	0.829820	0.565023	0.500117
C153	C	0.761425	-0.220316	0.000061
C154	C	1.261425	0.279684	0.500061
C155	C	0.707042	-0.208406	-0.072052
C156	C	1.207042	0.291594	0.427948
C157	C	0.625381	-0.248543	-0.072063
C158	C	1.125381	0.251457	0.427937
C159	C	0.598103	-0.300590	0.000040
C160	C	1.098103	0.199410	0.500040
C161	C	0.652487	-0.312502	0.072159
C162	C	1.152487	0.187498	0.572159
C163	C	0.734148	-0.272365	0.072170
C164	C	1.234148	0.227635	0.572170
H165	H	0.727234	-0.169875	-0.125432
H166	H	1.227234	0.330125	0.374568
H167	H	0.585123	-0.239724	-0.125451
H168	H	1.085123	0.260276	0.374549
H169	H	0.537652	-0.330301	0.000032
H170	H	1.037652	0.169699	0.500032
H171	H	0.632294	-0.351032	0.125539
H172	H	1.132294	0.148968	0.625539
H173	H	0.774406	-0.281183	0.125558
H174	H	1.274406	0.218817	0.625558
H175	H	0.828325	-0.434109	0.000059
H176	H	1.328325	0.065891	0.500059
C177	C	1.048781	0.055286	0.788124
C178	C	1.548781	0.555286	1.288124
C179	C	1.011664	-0.004316	0.848225
C180	C	1.511664	0.495684	1.348225
C181	C	1.064570	-0.057120	0.896294
C182	C	1.564570	0.442880	1.396294
C183	C	1.154593	-0.050322	0.884263
C184	C	1.654593	0.449678	1.384263
C185	C	1.191715	0.009283	0.824160
C186	C	1.691715	0.509283	1.324160
C187	C	1.138809	0.062087	0.776091
C188	C	1.638809	0.562087	1.276091
H189	H	0.945019	-0.009350	0.857133
H190	H	1.445019	0.490650	1.357133
H191	H	1.037090	-0.101243	0.940786
H192	H	1.537090	0.398757	1.440786
H193	H	1.193758	-0.089411	0.919847
H194	H	1.693758	0.410589	1.419847
H195	H	1.258360	0.014317	0.815252
H196	H	1.758360	0.514317	1.315252
H197	H	1.166289	0.106210	0.731599
H198	H	1.666289	0.606210	1.231599
H199	H	0.556243	0.016219	0.000110
H200	H	1.056243	0.516219	0.500110
H201	H	1.007856	0.096080	0.383116
H202	H	1.507856	0.596080	0.883116
H203	H	1.073768	-0.600032	0.000101
H204	H	1.573768	-0.100032	0.500101
C205	C	0.525438	0.293553	0.000072
C206	C	1.025438	0.793553	0.500072
C207	C	0.535902	0.349951	-0.072040
C208	C	1.035902	0.849951	0.427960
C209	C	0.485450	0.424364	-0.072040
C210	C	0.985450	0.924364	0.427960
C211	C	0.424534	0.442379	0.000073
C212	C	0.924534	0.942379	0.500073
C213	C	0.414067	0.385979	0.072191
C214	C	0.914067	0.885979	0.572191
C215	C	0.464519	0.311566	0.072191
C216	C	0.964519	0.811566	0.572191
H217	H	0.580998	0.336617	-0.125427
H218	H	1.080998	0.836617	0.374573
H219	H	0.493198	0.466115	-0.125427
H220	H	0.993198	0.966115	0.374573
H221	H	0.387186	0.497464	0.000073
H222	H	0.887186	0.997464	0.500073
H223	H	0.368971	0.399314	0.125578
H224	H	0.868971	0.899314	0.625578
H225	H	0.456770	0.269816	0.125578
H226	H	0.956770	0.769816	0.625578
C227	C	0.416245	0.055474	0.000096
C228	C	0.916245	0.555474	0.500096
C229	C	0.358003	0.034372	0.072206
C230	C	0.858003	0.534372	0.572206
C231	C	0.318268	-0.047649	0.072209
C232	C	0.818268	0.452351	0.572209
C233	C	0.336776	-0.108569	0.000104
C234	C	0.836776	0.391431	0.500104
C235	C	0.395021	-0.087469	-0.072011
C236	C	0.895021	0.412531	0.427989
C237	C	0.434756	-0.005448	-0.072015
C238	C	0.934756	0.494552	0.427985
H239	H	0.344300	0.079470	0.125587
H240	H	0.844300	0.579470	0.625587
H241	H	0.275152	-0.063268	0.125594
H242	H	0.775152	0.436732	0.625594
H243	H	0.307363	-0.169286	0.000106
H244	H	0.807363	0.330714	0.500106
H245	H	0.408724	-0.132567	-0.125393
H246	H	0.908724	0.367433	0.374607
H247	H	0.477872	0.010171	-0.125400
H248	H	0.977872	0.510171	0.374600
H249	H	0.794596	-0.060719	0.000071
H250	H	1.294596	0.439281	0.500071
H251	H	0.687274	0.286792	0.000056
H252	H	1.187274	0.786792	0.500056
H253	H	0.312120	0.323036	0.000070
H254	H	0.812120	0.823036	0.500070
H255	H	0.860506	0.243164	0.617070
H256	H	1.360506	0.743164	1.117070
H257	H	0.163381	0.310467	0.000092
H258	H	0.663381	0.810467	0.500092
H259	H	0.181092	0.052457	0.000118
H260	H	0.681092	0.552457	0.500118
H261	H	0.441799	0.262466	0.000091
H262	H	0.941799	0.762466	0.500091
H263	H	0.704984	0.028781	0.000087
H264	H	1.204984	0.528781	0.500087
