data_functionalizedCrystal
_audit_creation_method	'MofGen! by Chris Wilmer'
_symmetry_space_group_name_H-M	'P1'
_symmetry_Int_Tables_number	1
_symmetry_cell_setting	triclinic
loop_
_symmetry_equiv_pos_as_xyz
  x,y,z
_cell_length_a	16.625547
_cell_length_b	12.594516
_cell_length_c	16.625539
_cell_angle_alpha	89.974997
_cell_angle_beta	89.975178
_cell_angle_gamma	90.011753
loop_
_atom_site_label
_atom_site_type_symbol
_atom_site_fract_x
_atom_site_fract_y
_atom_site_fract_z
Zn1	Zn	1.232740	-0.423742	-0.456019
Zn2	Zn	1.482740	-0.173742	-0.206019
Zn3	Zn	1.732740	0.076258	0.043981
Zn4	Zn	1.982740	0.326258	0.293981
Zn5	Zn	1.232668	-0.601743	-0.321194
Zn6	Zn	1.482668	-0.351743	-0.071194
Zn7	Zn	1.732668	-0.101743	0.178806
Zn8	Zn	1.982668	0.148257	0.428806
Zn9	Zn	1.097902	-0.423779	-0.321190
Zn10	Zn	1.347902	-0.173779	-0.071190
Zn11	Zn	1.597902	0.076221	0.178810
Zn12	Zn	1.847902	0.326221	0.428810
Zn13	Zn	1.097897	-0.601679	-0.455974
Zn14	Zn	1.347897	-0.351679	-0.205974
Zn15	Zn	1.597897	-0.101679	0.044026
Zn16	Zn	1.847897	0.148321	0.294026
O17	O	1.165302	-0.512736	-0.388594
O18	O	1.415302	-0.262736	-0.138594
O19	O	1.665302	-0.012736	0.111406
O20	O	1.915302	0.237264	0.361406
O21	O	1.345563	-0.447366	-0.438155
O22	O	1.595563	-0.197366	-0.188155
O23	O	1.845563	0.052634	0.061845
O24	O	2.095563	0.302634	0.311845
O25	O	1.214763	-0.578178	-0.208361
O26	O	1.464763	-0.328178	0.041639
O27	O	1.714763	-0.078178	0.291639
O28	O	1.964763	0.171822	0.541639
O29	O	1.115820	-0.274828	-0.339092
O30	O	1.365820	-0.024828	-0.089092
O31	O	1.615820	0.225172	0.160908
O32	O	1.865820	0.475172	0.410908
O33	O	1.345510	-0.578142	-0.339100
O34	O	1.595510	-0.328142	-0.089100
O35	O	1.845510	-0.078142	0.160900
O36	O	2.095510	0.171858	0.410900
O37	O	1.214886	-0.274801	-0.438151
O38	O	1.464886	-0.024801	-0.188151
O39	O	1.714886	0.225199	0.061849
O40	O	1.964886	0.475199	0.311849
O41	O	1.115751	-0.447429	-0.208358
O42	O	1.365751	-0.197429	0.041642
O43	O	1.615751	0.052571	0.291642
O44	O	1.865751	0.302571	0.541642
O45	O	0.985069	-0.447366	-0.339049
O46	O	1.235069	-0.197366	-0.089049
O47	O	1.485069	0.052634	0.160951
O48	O	1.735069	0.302634	0.410951
O49	O	1.115813	-0.578032	-0.568813
O50	O	1.365813	-0.328032	-0.318813
O51	O	1.615813	-0.078032	-0.068813
O52	O	1.865813	0.171968	0.181187
O53	O	0.985066	-0.578068	-0.438074
O54	O	1.235066	-0.328068	-0.188074
O55	O	1.485066	-0.078068	0.061926
O56	O	1.735066	0.171932	0.311926
O57	O	1.214881	-0.447303	-0.568846
O58	O	1.464881	-0.197303	-0.318846
O59	O	1.714881	0.052697	-0.068846
O60	O	1.964881	0.302697	0.181154
O61	O	1.214759	-0.750680	-0.339056
O62	O	1.464759	-0.500680	-0.089056
O63	O	1.714759	-0.250680	0.160944
O64	O	1.964759	-0.000680	0.410944
O65	O	1.115743	-0.750633	-0.438078
O66	O	1.365743	-0.500633	-0.188078
O67	O	1.615743	-0.250633	0.061922
O68	O	1.865743	-0.000633	0.311922
C69	C	0.955811	-0.512715	-0.388556
C70	C	1.205811	-0.262715	-0.138556
C71	C	1.455811	-0.012715	0.111444
C72	C	1.705811	0.237285	0.361444
C73	C	0.866190	-0.512732	-0.388559
C74	C	1.116190	-0.262732	-0.138559
C75	C	1.366190	-0.012732	0.111441
C76	C	1.616190	0.237268	0.361441
C77	C	0.793408	-0.512734	-0.388569
C78	C	1.043408	-0.262734	-0.138569
C79	C	1.293408	-0.012734	0.111431
C80	C	1.543408	0.237266	0.361431
C81	C	0.702099	-0.512739	-0.388589
C82	C	0.952099	-0.262739	-0.138589
C83	C	1.202099	-0.012739	0.111411
C84	C	1.452099	0.237261	0.361411
C85	C	0.629323	-0.512749	-0.388610
C86	C	0.879323	-0.262749	-0.138610
C87	C	1.129323	-0.012749	0.111390
C88	C	1.379323	0.237251	0.361390
C89	C	0.538008	-0.512757	-0.388629
C90	C	0.788008	-0.262757	-0.138629
C91	C	1.038008	-0.012757	0.111371
C92	C	1.288008	0.237243	0.361371
C93	C	1.165265	-0.789277	-0.388580
C94	C	1.415265	-0.539277	-0.138580
C95	C	1.665265	-0.289277	0.111420
C96	C	1.915265	-0.039277	0.361420
C97	C	1.165322	-0.907582	-0.388601
C98	C	1.415322	-0.657582	-0.138601
C99	C	1.665322	-0.407582	0.111399
C100	C	1.915322	-0.157582	0.361399
C101	C	1.219240	-0.976822	-0.334801
C102	C	1.469240	-0.726822	-0.084801
C103	C	1.719240	-0.476822	0.165199
C104	C	1.969240	-0.226822	0.415199
C105	C	1.238943	-1.047524	-0.408397
C106	C	1.488943	-0.797524	-0.158397
C107	C	1.738943	-0.547524	0.091603
C108	C	1.988943	-0.297524	0.341603
C109	C	1.145720	-1.047680	-0.315052
C110	C	1.395720	-0.797680	-0.065052
C111	C	1.645720	-0.547680	0.184948
C112	C	1.895720	-0.297680	0.434948
C113	C	1.185064	-0.976725	-0.462236
C114	C	1.435064	-0.726725	-0.212236
C115	C	1.685064	-0.476725	0.037764
C116	C	1.935064	-0.226725	0.287764
C117	C	1.091806	-0.976875	-0.368842
C118	C	1.341806	-0.726875	-0.118842
C119	C	1.591806	-0.476875	0.131158
C120	C	1.841806	-0.226875	0.381158
C121	C	1.111482	-1.047544	-0.442489
C122	C	1.361482	-0.797544	-0.192489
C123	C	1.611482	-0.547544	0.057511
C124	C	1.861482	-0.297544	0.307511
C125	C	1.375611	-0.512757	-0.388633
C126	C	1.625611	-0.262757	-0.138633
C127	C	1.875611	-0.012757	0.111367
C128	C	2.125611	0.237243	0.361367
C129	C	1.465232	-0.512766	-0.388650
C130	C	1.715232	-0.262766	-0.138650
C131	C	1.965232	-0.012766	0.111350
C132	C	2.215232	0.237234	0.361350
C133	C	1.165354	-0.512656	-0.598903
C134	C	1.415354	-0.262656	-0.348903
C135	C	1.665354	-0.012656	-0.098903
C136	C	1.915354	0.237344	0.151097
C137	C	1.165377	-0.512623	-0.688525
C138	C	1.415377	-0.262623	-0.438525
C139	C	1.665377	-0.012623	-0.188525
C140	C	1.915377	0.237377	0.061475
C141	C	1.165362	-0.235115	-0.388626
C142	C	1.415362	0.014885	-0.138626
C143	C	1.665362	0.264885	0.111374
C144	C	1.915362	0.514885	0.361374
C145	C	1.165387	-0.116809	-0.388640
C146	C	1.415387	0.133191	-0.138640
C147	C	1.665387	0.383191	0.111360
C148	C	1.915387	0.633191	0.361360
C149	C	1.165414	-0.512503	-1.016700
C150	C	1.415414	-0.262503	-0.766700
C151	C	1.665414	-0.012503	-0.516700
C152	C	1.915414	0.237497	-0.266700
C153	C	1.165401	-0.512540	-0.925392
C154	C	1.415401	-0.262540	-0.675392
C155	C	1.665401	-0.012540	-0.425392
C156	C	1.915401	0.237460	-0.175392
C157	C	1.165396	-0.512564	-0.852615
C158	C	1.415396	-0.262564	-0.602615
C159	C	1.665396	-0.012564	-0.352615
C160	C	1.915396	0.237436	-0.102615
C161	C	1.165382	-0.512599	-0.761301
C162	C	1.415382	-0.262599	-0.511301
C163	C	1.665382	-0.012599	-0.261301
C164	C	1.915382	0.237401	-0.011301
C165	C	1.165296	-0.512738	-0.179104
C166	C	1.415296	-0.262738	0.070896
C167	C	1.665296	-0.012738	0.320896
C168	C	1.915296	0.237262	0.570896
C169	C	1.165430	-0.512472	-0.089483
C170	C	1.415430	-0.262472	0.160517
C171	C	1.665430	-0.012472	0.410517
C172	C	1.915430	0.237528	0.660517
H173	H	1.264843	-0.945768	-0.289344
H174	H	1.514843	-0.695768	-0.039344
H175	H	1.764843	-0.445768	0.210656
H176	H	2.014843	-0.195768	0.460656
H177	H	1.301142	-1.078560	-0.425131
H178	H	1.551142	-0.828560	-0.175131
H179	H	1.801142	-0.578560	0.074869
H180	H	2.051142	-0.328560	0.324869
F181	F	1.010528	-0.936283	-0.346944
F182	F	1.260528	-0.686283	-0.096944
F183	F	1.510528	-0.436283	0.153056
F184	F	1.760528	-0.186283	0.403056
F185	F	1.051920	-1.087881	-0.502045
F186	F	1.301920	-0.837881	-0.252045
F187	F	1.551920	-0.587881	-0.002045
F188	F	1.801920	-0.337881	0.247955
F189	F	1.206873	-0.936165	-0.543578
F190	F	1.456873	-0.686165	-0.293578
F191	F	1.706873	-0.436165	-0.043578
F192	F	1.956873	-0.186165	0.206422
F193	F	1.124013	-1.088417	-0.233734
F194	F	1.374013	-0.838417	0.016266
F195	F	1.624013	-0.588417	0.266266
F196	F	1.874013	-0.338417	0.516266
