data_functionalizedCrystal
_audit_creation_method	'MofGen! by Chris Wilmer'
_symmetry_space_group_name_H-M	'P1'
_symmetry_Int_Tables_number	1
_symmetry_cell_setting	triclinic
loop_
_symmetry_equiv_pos_as_xyz
  x,y,z
_cell_length_a	14.519709
_cell_length_b	11.792254
_cell_length_c	12.996460
_cell_angle_alpha	90.000957
_cell_angle_beta	90.007122
_cell_angle_gamma	83.939371
loop_
_atom_site_label
_atom_site_type_symbol
_atom_site_fract_x
_atom_site_fract_y
_atom_site_fract_z
O1	O	0.126462	1.506193	0.085568
O2	O	0.139477	1.175782	0.085571
O3	O	-0.001237	1.349748	0.085560
O4	O	0.267176	1.332227	0.085579
O5	O	-0.001246	1.349745	-0.085574
O6	O	0.139468	1.175779	-0.085563
O7	O	0.126453	1.506190	-0.085565
Cu8	Cu	0.132959	1.340984	-0.101190
Cu9	Cu	0.132970	1.340988	0.101195
O10	O	0.267166	1.332224	-0.085555
C11	C	0.138652	1.133494	0.000004
C12	C	0.136199	1.007495	0.000005
C13	C	0.134205	0.905169	0.000009
C14	C	0.131711	0.776796	0.000010
C15	C	-0.035604	1.348930	-0.000007
C16	C	-0.137994	1.346483	-0.000007
C17	C	-0.512923	1.337475	0.000019
C18	C	-0.408606	1.339976	0.000012
C19	C	-0.325462	1.341979	0.000005
C20	C	-0.221138	1.344481	-0.000001
C21	C	0.301534	1.333042	0.000014
C22	C	0.403924	1.335489	0.000022
C23	C	0.127277	1.548478	0.000003
C24	C	0.129731	1.674477	0.000010
N25	N	0.132971	1.340991	0.243543
N26	N	0.132951	1.340990	-0.243537
C27	C	0.132962	1.340985	0.663357
C28	C	0.132968	1.340983	0.546552
C29	C	0.132966	1.340987	0.453453
C30	C	0.132972	1.340987	0.336641
