data_functionalizedCrystal
_audit_creation_method	'MofGen! by Chris Wilmer'
_symmetry_space_group_name_H-M	'P1'
_symmetry_Int_Tables_number	1
_symmetry_cell_setting	triclinic
loop_
_symmetry_equiv_pos_as_xyz
  x,y,z
_cell_length_a	12.594517
_cell_length_b	25.639240
_cell_length_c	12.594509
_cell_angle_alpha	89.958690
_cell_angle_beta	89.988522
_cell_angle_gamma	90.028646
loop_
_atom_site_label
_atom_site_type_symbol
_atom_site_fract_x
_atom_site_fract_y
_atom_site_fract_z
Zn1	Zn	1.627143	-0.208192	-0.601484
Zn2	Zn	1.626982	-0.295635	-0.423464
Zn3	Zn	1.449147	-0.208209	-0.423543
Zn4	Zn	1.449077	-0.295592	-0.601425
O5	O	1.538088	-0.251907	-0.512479
O6	O	1.776068	-0.219803	-0.577860
O7	O	1.603354	-0.284062	-0.274529
O8	O	1.472855	-0.135041	-0.447205
O9	O	1.775949	-0.284046	-0.447071
O10	O	1.603628	-0.135029	-0.577937
O11	O	1.472699	-0.219831	-0.274587
O12	O	1.300192	-0.219790	-0.447148
O13	O	1.472737	-0.283974	-0.750379
O14	O	1.300141	-0.283990	-0.577837
O15	O	1.603561	-0.219762	-0.750422
O16	O	1.603286	-0.368794	-0.447014
O17	O	1.472580	-0.368763	-0.577761
C18	C	1.261547	-0.251887	-0.512495
C19	C	1.143241	-0.251892	-0.512527
C20	C	1.073991	-0.286878	-0.583472
C21	C	1.003211	-0.239208	-0.609672
C22	C	1.003222	-0.299602	-0.486303
C23	C	1.074019	-0.204195	-0.538778
C24	C	1.074037	-0.264622	-0.415365
C25	C	1.003289	-0.216918	-0.441528
C26	C	1.537937	-0.387750	-0.512396
C27	C	1.537970	-0.445864	-0.512395
C28	C	1.606215	-0.806182	-0.580674
C29	C	1.606246	-0.860786	-0.580696
O30	O	1.664091	-0.888985	-0.638663
N31	N	1.538235	-0.888146	-0.512582
C32	C	1.470181	-0.860899	-0.444449
O33	O	1.412334	-0.889185	-0.386516
C34	C	1.470145	-0.806296	-0.444434
C35	C	1.538168	-0.778939	-0.512545
C36	C	1.674232	-0.778825	-0.648780
C37	C	1.674201	-0.724224	-0.648757
C38	C	1.606154	-0.696981	-0.580627
C39	C	1.538138	-0.724338	-0.512521
C40	C	1.402086	-0.779049	-0.376308
C41	C	1.402055	-0.724442	-0.376299
C42	C	1.470078	-0.697085	-0.444410
C43	C	1.470060	-0.642494	-0.444369
N44	N	1.538071	-0.615134	-0.512483
C45	C	1.606118	-0.642378	-0.580612
C46	C	1.470260	-0.975569	-0.444489
C47	C	1.470301	-1.030172	-0.444498
C48	C	1.606365	-1.030055	-0.580746
C49	C	1.606329	-0.975452	-0.580730
C50	C	1.538271	-0.948210	-0.512602
C51	C	1.606050	-0.527713	-0.580557
C52	C	1.606017	-0.473107	-0.580525
C53	C	1.469949	-0.473228	-0.444281
C54	C	1.469986	-0.527829	-0.444309
C55	C	1.538040	-0.555070	-0.512456
O56	O	1.412242	-0.614261	-0.386434
O57	O	1.663945	-0.614085	-0.638545
C58	C	1.815708	-0.251927	-0.512463
C59	C	1.934014	-0.251936	-0.512457
C60	C	1.538159	-0.251861	-0.790100
C61	C	1.538189	-0.251842	-0.908406
C62	C	1.538268	-0.115534	-0.512586
C63	C	1.538344	-0.057420	-0.512632
C64	C	1.467056	-0.286747	-0.977635
C65	C	1.564169	-0.299525	-1.048403
C66	C	1.441152	-0.239032	-1.048437
C67	C	1.635353	-0.264645	-0.977615
C68	C	1.512270	-0.204130	-0.977643
C69	C	1.609450	-0.216890	-1.048378
C70	C	1.538078	-0.251915	-0.235938
C71	C	1.538254	-0.251787	-0.117633
H72	H	0.972100	-0.228456	-0.691810
H73	H	1.105039	-0.316409	-0.643544
O74	O	1.396558	-0.443840	-0.370798
H75	H	1.342366	-0.418967	-0.418397
O76	O	1.679457	-0.557085	-0.654057
H77	H	1.631810	-0.581952	-0.708199
O78	O	1.115033	-0.150758	-0.568240
H79	H	1.046961	-0.124224	-0.582809
H80	H	0.972440	-0.187315	-0.381503
O81	O	0.962055	-0.353023	-0.456930
H82	H	0.990393	-0.381972	-0.515959
O83	O	1.387446	-0.325904	-0.936460
H84	H	1.409251	-0.365458	-0.964795
O85	O	1.744080	-0.278951	-0.936362
H86	H	1.765906	-0.318408	-0.965234
H87	H	1.414921	-1.052441	-0.389024
O88	O	1.593258	-0.352937	-1.089593
H89	H	1.534071	-0.381866	-1.061271
H90	H	1.661771	-1.052247	-0.636222
H91	H	1.669702	-0.187348	-1.079244
O92	O	1.679399	-0.443599	-0.653977
H93	H	1.726717	-0.471721	-0.701356
O94	O	1.115308	-0.278882	-0.306605
H95	H	1.087012	-0.318505	-0.285046
O96	O	1.747585	-0.694720	-0.722203
H97	H	1.794902	-0.722845	-0.769573
O98	O	1.747635	-0.808205	-0.722264
H99	H	1.794922	-0.780000	-0.769607
O100	O	1.679699	-0.945946	-0.654187
H101	H	1.727018	-0.974069	-0.701559
O102	O	1.396629	-0.557332	-0.370828
H103	H	1.444314	-0.582212	-0.316716
O104	O	1.483142	-0.150737	-0.936397
H105	H	1.402487	-0.140216	-0.964700
O106	O	1.396872	-0.946187	-0.370983
H107	H	1.349601	-0.974389	-0.323617
O108	O	1.328710	-0.808548	-0.302853
H109	H	1.281383	-0.780422	-0.255495
H110	H	1.346631	-0.702264	-0.320822
H111	H	1.359062	-0.228220	-1.079546
