data_functionalizedCrystal
_audit_creation_method	'MofGen! by Chris Wilmer'
_symmetry_space_group_name_H-M	'P1'
_symmetry_Int_Tables_number	1
_symmetry_cell_setting	triclinic
loop_
_symmetry_equiv_pos_as_xyz
  x,y,z
_cell_length_a	16.625546
_cell_length_b	10.686220
_cell_length_c	10.686551
_cell_angle_alpha	90.307919
_cell_angle_beta	85.590142
_cell_angle_gamma	94.404617
loop_
_atom_site_label
_atom_site_type_symbol
_atom_site_fract_x
_atom_site_fract_y
_atom_site_fract_z
Zn1	Zn	-0.196574	1.972246	-0.562370
Zn2	Zn	-0.342516	1.955986	-0.352595
Zn3	Zn	-0.217201	1.746360	-0.368684
Zn4	Zn	-0.340883	1.762416	-0.578372
O5	O	-0.274293	1.859252	-0.465505
O6	O	-0.207985	2.145633	-0.521112
O7	O	-0.335209	1.914654	-0.179182
O8	O	-0.101626	1.776410	-0.394414
O9	O	-0.315208	2.133686	-0.366991
O10	O	-0.086472	1.942367	-0.536714
O11	O	-0.243141	1.760643	-0.191003
O12	O	-0.241556	1.572946	-0.409930
O13	O	-0.312424	1.803775	-0.751796
O14	O	-0.332425	1.584743	-0.563987
O15	O	-0.206401	1.957936	-0.740039
O16	O	-0.455138	1.930223	-0.382508
O17	O	-0.453938	1.788008	-0.548385
C18	C	-0.289052	1.533328	-0.490442
C19	C	-0.295384	1.393899	-0.501139
C20	C	-0.483793	1.859129	-0.465462
C21	C	-0.573410	1.859195	-0.465476
C22	C	-0.901568	1.859424	-0.465590
C23	C	-0.810265	1.859356	-0.465562
C24	C	-0.737492	1.859308	-0.465533
C25	C	-0.646182	1.859243	-0.465506
C26	C	-0.063973	1.859411	-0.465574
C27	C	0.025653	1.859479	-0.465603
C28	C	-0.256929	1.884460	-0.792707
C29	C	-0.249529	1.895203	-0.932141
C30	C	-0.259478	2.186449	-0.440472
C31	C	-0.253164	2.325880	-0.429804
C32	C	-0.291529	1.834214	-0.139570
C33	C	-0.298690	1.823714	-0.000118
H34	H	-0.336375	1.345464	-0.570395
H35	H	-0.201780	1.964635	-0.980621
F36	F	-0.199589	1.389189	-0.339264
H37	H	-0.346442	1.754296	-0.951645
