data_functionalizedCrystal
_audit_creation_method	'MofGen! by Chris Wilmer'
_symmetry_space_group_name_H-M	'P1'
_symmetry_Int_Tables_number	1
_symmetry_cell_setting	triclinic
loop_
_symmetry_equiv_pos_as_xyz
  x,y,z
_cell_length_a	14.044191
_cell_length_b	14.044190
_cell_length_c	7.681481
_cell_angle_alpha	83.728840
_cell_angle_beta	96.250963
_cell_angle_gamma	93.191777
loop_
_atom_site_label
_atom_site_type_symbol
_atom_site_fract_x
_atom_site_fract_y
_atom_site_fract_z
O1	O	1.268918	0.238473	-0.146383
O2	O	0.992245	0.230162	-0.146404
O3	O	1.126427	0.095979	-0.146359
O4	O	1.134736	0.372656	-0.146428
O5	O	1.142939	0.079423	0.146504
O6	O	1.008757	0.213605	0.146459
O7	O	1.285431	0.221917	0.146480
Zn8	Zn	1.149715	0.215132	0.192968
Zn9	Zn	1.127960	0.236946	-0.192892
O10	O	1.151248	0.356099	0.146435
C11	C	1.131047	0.052079	0.000077
C12	C	1.120200	-0.054065	0.000092
C13	C	0.964879	0.218247	0.000026
C14	C	0.858735	0.207400	0.000019
C15	C	1.177297	-0.299519	0.000027
C16	C	1.100381	-0.248396	0.000034
C17	C	1.111411	-0.140260	0.000066
C18	C	1.166269	-0.407664	-0.000005
C19	C	0.613278	0.264501	0.000022
C20	C	0.664402	0.187583	0.000039
C21	C	0.772539	0.198612	0.000028
C22	C	0.505132	0.253473	0.000033
C23	C	1.312796	0.233832	0.000047
C24	C	1.418940	0.244679	0.000042
C25	C	1.146628	0.400000	-0.000005
C26	C	1.157474	0.506145	-0.000031
N27	N	1.164570	0.200245	0.456307
N28	N	1.113112	0.251827	-0.456231
H29	H	1.026248	-0.285840	0.000018
H30	H	1.251426	-0.262077	0.000051
F31	F	0.615463	0.090684	0.000064
F32	F	0.662216	0.361394	-0.000017
F33	F	1.233243	0.131434	0.554624
H34	H	1.060584	0.304476	0.468555
