data_functionalizedCrystal
_audit_creation_method	'MofGen! by Chris Wilmer'
_symmetry_space_group_name_H-M	'P1'
_symmetry_Int_Tables_number	1
_symmetry_cell_setting	triclinic
loop_
_symmetry_equiv_pos_as_xyz
  x,y,z
_cell_length_a	14.560438
_cell_length_b	18.760487
_cell_length_c	14.560438
_cell_angle_alpha	90.036188
_cell_angle_beta	59.996693
_cell_angle_gamma	60.021725
loop_
_atom_site_label
_atom_site_type_symbol
_atom_site_fract_x
_atom_site_fract_y
_atom_site_fract_z
Zr1	Zr	1.005315	0.686686	-0.120046
O2	O	1.196925	0.572868	-0.266797
O3	O	0.813706	0.721577	-0.075051
O4	O	1.005317	0.721574	-0.266667
O5	O	1.005312	0.572874	0.075960
O6	O	1.005317	0.838877	-0.266574
O7	O	1.005314	0.572871	-0.075181
O8	O	0.662559	0.838882	0.076193
O9	O	1.348069	0.572869	-0.266807
O10	O	0.892516	0.824000	-0.055801
O11	O	0.892515	0.736461	0.056924
O12	O	1.118112	0.736457	-0.168680
O13	O	1.118111	0.648918	-0.055955
Zr14	Zr	1.005310	0.873776	0.121154
Zr15	Zr	1.005314	0.873771	-0.119898
Zr16	Zr	1.005311	0.686691	0.121006
Zr17	Zr	1.246372	0.686688	-0.120062
Zr18	Zr	0.764253	0.873774	0.121170
O19	O	1.196919	0.838885	0.076158
O20	O	1.196925	0.838878	-0.266587
O21	O	1.196920	0.572875	0.075948
O22	O	0.813699	0.987594	0.267905
O23	O	0.813705	0.987587	-0.074840
O24	O	0.813700	0.721584	0.267694
O25	O	1.005313	0.987588	-0.074852
O26	O	1.005308	0.838888	0.267775
O27	O	1.005308	0.721585	0.267682
O28	O	1.005311	0.987591	0.076289
O29	O	1.348069	0.721576	-0.266689
O30	O	0.662556	0.838886	0.267797
O31	O	0.662556	0.987593	0.267915
O32	O	0.662559	0.987589	0.076311
O33	O	1.348066	0.572873	-0.075203
O34	O	1.348066	0.721580	-0.075085
O35	O	0.892513	0.824005	0.169788
O36	O	0.892514	0.911544	0.057063
O37	O	1.118110	0.824002	-0.055816
O38	O	1.118109	0.736462	0.056909
C39	C	0.703787	0.780229	0.000573
C40	C	0.601452	0.780229	0.000580
C41	C	0.636667	0.715602	-0.082754
C42	C	0.540528	0.715606	-0.082783
C43	C	0.373958	0.844866	0.083866
C44	C	0.470097	0.844865	0.083889
C45	C	1.005313	0.546217	0.000368
C46	C	1.005313	0.466794	0.000305
C47	C	1.123076	0.085281	-0.058172
C48	C	0.887550	0.176682	0.059675
C49	C	0.887548	0.251304	0.059579
C50	C	1.005312	0.242917	0.000605
C51	C	1.123078	0.159909	-0.058273
C52	C	0.769784	0.334317	0.118446
C53	C	0.769777	0.408946	0.118350
C54	C	0.887543	0.400560	0.059382
C55	C	1.005313	0.317545	0.000503
C56	C	1.123077	0.309158	-0.058471
C57	C	1.240849	0.226144	-0.117344
C58	C	1.240843	0.151523	-0.117241
C59	C	0.887549	0.475181	0.059280
C60	C	1.123079	0.383786	-0.058572
C61	C	1.306838	0.780233	0.000535
C62	C	1.409173	0.780233	0.000528
C63	C	1.005318	0.780225	-0.300966
C64	C	1.005319	0.780223	-0.403299
C65	C	1.005312	1.014245	0.000739
C66	C	1.005312	1.093668	0.000802
C67	C	1.123076	0.734528	-0.510296
C68	C	1.123070	0.734538	-0.606445
C69	C	0.887540	0.825940	-0.488585
C70	C	0.887547	0.825935	-0.392438
C71	C	1.005307	0.780237	0.302073
C72	C	1.005306	0.780239	0.404406
C73	C	0.703787	1.014244	0.000759
C74	C	0.601451	1.093665	0.000828
C75	C	0.703782	0.780235	0.302093
C76	C	0.601445	0.780237	0.404432
C77	C	0.703781	1.014250	0.302278
C78	C	0.601445	1.093673	0.404681
C79	C	1.306843	0.546213	-0.301170
C80	C	1.409180	0.466789	-0.403573
C81	C	1.306838	0.546218	0.000349
C82	C	1.409173	0.466797	0.000279
C83	C	1.306843	0.780227	-0.300985
C84	C	1.409180	0.780225	-0.403324
C85	C	0.553395	1.085266	-0.058063
C86	C	0.457253	1.159884	-0.058020
C87	C	0.409164	1.242901	0.000921
C88	C	0.457230	1.251299	0.059814
C89	C	0.553376	1.176681	0.059764
C90	C	0.553387	1.176674	0.393929
C91	C	0.457244	1.251308	0.490137
C92	C	0.409154	1.242940	0.597097
C93	C	0.457221	1.159930	0.607847
C94	C	0.553369	1.085298	0.511640
C95	C	1.457250	0.383788	-0.392821
C96	C	1.553422	0.309154	-0.489030
C97	C	1.601518	0.317522	-0.595989
C98	C	1.553444	0.400532	-0.606739
C99	C	1.457280	0.475164	-0.510532
C100	C	1.457240	0.475197	0.059161
C101	C	1.553408	0.400579	0.059091
C102	C	1.601501	0.317562	0.000147
C103	C	1.553430	0.309163	-0.058742
C104	C	1.457271	0.383781	-0.058678
C105	C	0.553364	0.825934	0.511425
C106	C	0.457217	0.825925	0.607580
C107	C	0.457236	0.734521	0.489735
C108	C	0.553388	0.734525	0.393583
H109	H	0.267000	0.897490	0.151694
Cl110	Cl	1.396852	0.579505	-0.524069
H111	H	0.592485	1.017718	0.520410
H112	H	1.418096	0.376957	-0.305737
H113	H	0.791654	0.863156	-0.479756
Cl114	Cl	1.396807	0.579552	0.133266
H115	H	0.418052	1.153129	0.694947
H116	H	1.218973	0.697307	-0.519145
Cl117	Cl	0.288290	1.336698	0.000976
H118	H	1.592616	0.407335	-0.693838
H119	H	1.592531	0.407434	0.107050
H120	H	1.592547	0.241571	-0.480255
H121	H	0.418075	0.863135	0.694696
Cl122	Cl	1.722409	0.223689	-0.716927
Cl123	Cl	0.396755	1.355670	0.133913
H124	H	1.679800	0.256811	0.000104
Cl125	Cl	0.613832	1.187218	0.259476
Cl126	Cl	0.396812	0.677062	0.476107
Cl127	Cl	1.271124	-0.019074	-0.132173
H128	H	1.218978	0.376946	-0.106584
Cl129	Cl	0.584808	0.634358	-0.187551
Cl130	Cl	0.425822	0.926119	0.188657
H131	H	0.592540	0.697309	0.306458
Cl132	Cl	1.613899	0.204792	-0.132833
H133	H	1.418138	0.376929	-0.106624
H134	H	0.743619	0.662966	-0.150584
Cl135	Cl	1.388889	0.215612	-0.191481
Cl136	Cl	0.613770	1.187257	0.133816
Cl137	Cl	0.613836	0.980910	-0.132176
H138	H	1.336727	0.083929	-0.165171
Cl139	Cl	0.613778	0.883396	0.525068
Cl140	Cl	0.396831	1.355652	0.476597
Cl141	Cl	0.288278	1.336773	0.718035
H142	H	0.673907	0.341138	0.166459
Cl143	Cl	0.739512	0.187221	0.133804
H144	H	0.791661	0.542767	0.107223
Cl145	Cl	0.621724	0.513298	0.192366
H146	H	1.218959	0.697329	-0.693564
H147	H	0.418130	1.153029	-0.105978
Cl148	Cl	0.739498	0.883383	-0.257916
