data_functionalizedCrystal
_audit_creation_method	'MofGen! by Chris Wilmer'
_symmetry_space_group_name_H-M	'P1'
_symmetry_Int_Tables_number	1
_symmetry_cell_setting	triclinic
loop_
_symmetry_equiv_pos_as_xyz
  x,y,z
_cell_length_a	16.625546
_cell_length_b	10.686220
_cell_length_c	10.685971
_cell_angle_alpha	98.374195
_cell_angle_beta	85.642545
_cell_angle_gamma	85.595560
loop_
_atom_site_label
_atom_site_type_symbol
_atom_site_fract_x
_atom_site_fract_y
_atom_site_fract_z
Zn1	Zn	-0.256454	-1.885250	0.568998
Zn2	Zn	-0.380061	-1.901441	0.356748
Zn3	Zn	-0.256458	-1.689327	0.373028
Zn4	Zn	-0.402465	-1.672945	0.585189
O5	O	-0.323859	-1.787241	0.470991
O6	O	-0.263472	-2.065019	0.527253
O7	O	-0.354290	-1.886935	0.181290
O8	O	-0.143623	-1.715396	0.399061
O9	O	-0.354286	-2.076915	0.371314
O10	O	-0.143620	-1.859340	0.543039
O11	O	-0.263480	-1.731096	0.193251
O12	O	-0.285205	-1.509532	0.414761
O13	O	-0.392471	-1.687476	0.760659
O14	O	-0.392476	-1.497496	0.570635
O15	O	-0.285197	-1.843456	0.748763
O16	O	-0.495867	-1.871051	0.387014
O17	O	-0.512328	-1.703175	0.554849
C18	C	-0.341273	-1.457459	0.496222
C19	C	-0.348743	-1.316375	0.507047
C20	C	-0.533354	-1.787125	0.470947
C21	C	-0.622973	-1.787188	0.470962
C22	C	-0.341333	-1.761832	0.802053
C23	C	-0.348779	-1.751005	0.943132
C24	C	-0.951143	-1.787399	0.471077
C25	C	-0.859837	-1.787336	0.471049
C26	C	-0.787061	-1.787292	0.471019
C27	C	-0.695748	-1.787231	0.470992
C28	C	-0.113547	-1.787390	0.471060
C29	C	-0.023924	-1.787453	0.471089
C30	C	-0.306379	-2.118310	0.445661
C31	C	-0.298930	-2.259392	0.434867
C32	C	-0.306472	-1.812538	1.141217
C33	C	-0.299022	-1.823359	1.000139
H34	H	-0.250568	-1.318540	0.364789
H35	H	-0.250719	-1.893576	0.941016
H36	H	-0.397076	-1.680769	1.002262
H37	H	-0.397113	-1.257220	0.577121
