data_functionalizedCrystal
_audit_creation_method	'MofGen! by Chris Wilmer'
_symmetry_space_group_name_H-M	'P1'
_symmetry_Int_Tables_number	1
_symmetry_cell_setting	triclinic
loop_
_symmetry_equiv_pos_as_xyz
  x,y,z
_cell_length_a	19.121102
_cell_length_b	25.639240
_cell_length_c	19.120904
_cell_angle_alpha	87.596818
_cell_angle_beta	89.911827
_cell_angle_gamma	87.586654
loop_
_atom_site_label
_atom_site_type_symbol
_atom_site_fract_x
_atom_site_fract_y
_atom_site_fract_z
Zn1	Zn	1.054802	-0.255751	0.442001
Zn2	Zn	1.554802	0.244249	0.942001
Zn3	Zn	1.059707	-0.339618	0.324744
Zn4	Zn	1.559707	0.160382	0.824744
Zn5	Zn	0.942572	-0.248315	0.319786
Zn6	Zn	1.442572	0.251685	0.819786
Zn7	Zn	0.937519	-0.339266	0.436946
Zn8	Zn	1.437519	0.160734	0.936946
O9	O	0.998650	-0.295737	0.380869
O10	O	1.498650	0.204263	0.880869
O11	O	1.153558	-0.270136	0.430636
O12	O	1.653558	0.229864	0.930636
O13	O	1.048337	-0.324541	0.225982
O14	O	1.548337	0.175459	0.725982
O15	O	0.957522	-0.176139	0.336039
O16	O	1.457522	0.323861	0.836039
O17	O	1.157162	-0.331752	0.344488
O18	O	1.657162	0.168248	0.844488
O19	O	1.039977	-0.181603	0.425829
O20	O	1.539977	0.318397	0.925829
O21	O	0.962278	-0.257461	0.222340
O22	O	1.462278	0.242539	0.722340
O23	O	0.843797	-0.257120	0.331138
O24	O	1.343797	0.242880	0.831138
O25	O	0.948909	-0.331153	0.535721
O26	O	1.448909	0.168847	1.035721
O27	O	0.840084	-0.323942	0.417215
O28	O	1.340084	0.176058	0.917215
O29	O	1.035076	-0.269795	0.539434
O30	O	1.535076	0.230205	1.039434
O31	O	1.043437	-0.412733	0.339587
O32	O	1.543437	0.087267	0.839587
O33	O	0.953665	-0.412475	0.422022
O34	O	1.453665	0.087525	0.922022
C35	C	0.816503	-0.289687	0.373090
C36	C	1.316503	0.210313	0.873090
C37	C	0.738579	-0.287111	0.369779
C38	C	1.238579	0.212889	0.869779
C39	C	0.700059	-0.320740	0.412969
C40	C	1.200059	0.179260	0.912969
C41	C	0.626841	-0.318313	0.409861
C42	C	1.126841	0.181687	0.909861
C43	C	0.592145	-0.282260	0.363559
C44	C	1.092145	0.217740	0.863559
C45	C	0.630670	-0.248627	0.320368
C46	C	1.130670	0.251373	0.820368
C47	C	0.703887	-0.251052	0.323480
C48	C	1.203887	0.248948	0.823480
C49	C	0.371174	-0.273193	0.351928
C50	C	0.871174	0.226807	0.851928
C51	C	0.297952	-0.270772	0.348818
C52	C	0.797952	0.229228	0.848818
C53	C	0.294127	-0.340458	0.438312
C54	C	0.794127	0.159542	0.938312
C55	C	0.367346	-0.342881	0.441417
C56	C	0.867346	0.157119	0.941417
C57	C	0.405865	-0.309247	0.398228
C58	C	0.905865	0.190753	0.898228
C59	C	0.517304	-0.279779	0.360380
C60	C	1.017304	0.220221	0.860380
C61	C	0.480704	-0.311725	0.401411
C62	C	0.980704	0.188275	0.901411
C63	C	0.998553	-0.431575	0.380810
C64	C	1.498553	0.068425	0.880810
C65	C	0.998575	-0.489690	0.380811
C66	C	1.498575	0.010310	0.880811
C67	C	1.041603	-0.852867	0.427705
C68	C	1.541603	-0.352867	0.927705
C69	C	1.041623	-0.907472	0.427720
C70	C	1.541623	-0.407472	0.927720
O71	O	1.078092	-0.938096	0.467529
O72	O	1.578092	-0.438096	0.967529
N73	N	0.998745	-0.931982	0.380941
N74	N	1.498745	-0.431982	0.880941
C75	C	0.955838	-0.901883	0.334149
C76	C	1.455838	-0.401883	0.834149
O77	O	0.919367	-0.927744	0.294362
O78	O	1.419367	-0.427744	0.794362
C79	C	0.955815	-0.847279	0.334138
C80	C	1.455815	-0.347279	0.834138
C81	C	0.998701	-0.822772	0.380915
C82	C	1.498701	-0.322772	0.880915
C83	C	1.084486	-0.828360	0.474479
C84	C	1.584486	-0.328360	0.974479
C85	C	1.084467	-0.773758	0.474463
C86	C	1.584467	-0.273758	0.974463
C87	C	1.041565	-0.743663	0.427673
C88	C	1.541565	-0.243663	0.927673
C89	C	0.998682	-0.768170	0.380899
C90	C	1.498682	-0.268170	0.880899
C91	C	0.912905	-0.817181	0.287349
C92	C	1.412905	-0.317181	0.787349
C93	C	0.912885	-0.762573	0.287343
C94	C	1.412885	-0.262573	0.787343
C95	C	0.955771	-0.738066	0.334120
C96	C	1.455771	-0.238066	0.834120
C97	C	0.955761	-0.683474	0.334092
C98	C	1.455761	-0.183474	0.834092
N99	N	0.998639	-0.658964	0.380871
N100	N	1.498639	-0.158964	0.880871
C101	C	1.041541	-0.689059	0.427661
C102	C	1.541541	-0.189059	0.927661
C103	C	0.955889	-1.016556	0.334177
C104	C	1.455889	-0.516556	0.834177
C105	C	0.955915	-1.071160	0.334184
C106	C	1.455915	-0.571160	0.834184
C107	C	1.041700	-1.076745	0.427756
C108	C	1.541700	-0.576745	0.927756
C109	C	1.041677	-1.022140	0.427745
C110	C	1.541677	-0.522140	0.927745
C111	C	0.998768	-0.992046	0.380956
C112	C	1.498768	-0.492046	0.880956
C113	C	1.041498	-0.574391	0.427623
C114	C	1.541498	-0.074391	0.927623
C115	C	1.041477	-0.519785	0.427601
C116	C	1.541477	-0.019785	0.927601
C117	C	0.955690	-0.514204	0.334032
C118	C	1.455690	-0.014204	0.834032
C119	C	0.955713	-0.568806	0.334051
C120	C	1.455713	-0.068806	0.834051
C121	C	0.998620	-0.598899	0.380853
C122	C	1.498620	-0.098899	0.880853
O123	O	0.919309	-0.652817	0.294305
O124	O	1.419309	-0.152817	0.794305
O125	O	1.077999	-0.663190	0.467448
O126	O	1.577999	-0.163190	0.967448
C127	C	1.181508	-0.301812	0.388679
C128	C	1.681508	0.198188	0.888679
C129	C	1.259432	-0.304401	0.392007
C130	C	1.759432	0.195599	0.892007
C131	C	0.990882	-0.301264	0.563726
C132	C	1.490882	0.198736	1.063726
C133	C	0.987571	-0.303619	0.641649
C134	C	1.487571	0.196381	1.141649
C135	C	0.998766	-0.159371	0.380945
C136	C	1.498766	0.340629	0.880945
C137	C	0.998815	-0.101259	0.380977
C138	C	1.498815	0.398741	0.880977
C139	C	1.006429	-0.290196	0.198725
C140	C	1.506429	0.209804	0.698725
C141	C	1.009875	-0.287698	0.120809
C142	C	1.509875	0.212302	0.620809
C143	C	1.030877	-0.272781	0.680192
C144	C	1.530877	0.227219	1.180192
C145	C	1.027758	-0.274992	0.753408
C146	C	1.527758	0.225008	1.253408
C147	C	0.981337	-0.308044	0.788080
C148	C	1.481337	0.191956	1.288080
C149	C	0.938027	-0.338883	0.749532
C150	C	1.438027	0.161117	1.249532
C151	C	0.941143	-0.336669	0.676317
C152	C	1.441143	0.163331	1.176317
C153	C	0.969681	-0.316323	1.009046
C154	C	1.469681	0.183677	1.509046
C155	C	0.966570	-0.318536	1.082266
C156	C	1.466570	0.181464	1.582266
C157	C	1.056300	-0.254644	1.086137
C158	C	1.556300	0.245356	1.586137
C159	C	1.059415	-0.252436	1.012920
C160	C	1.559415	0.247564	1.512920
C161	C	1.016102	-0.283273	0.974378
C162	C	1.516102	0.216727	1.474378
C163	C	0.978149	-0.310305	0.862919
C164	C	1.478149	0.189695	1.362919
C165	C	1.019287	-0.281008	0.899541
C166	C	1.519287	0.218992	1.399541
H167	H	1.076403	-0.499833	0.465693
H168	H	1.576403	0.000167	0.965693
H169	H	0.928766	-0.345452	1.110494
H170	H	1.428766	0.154548	1.610494
H171	H	0.735249	-0.223665	0.288314
H172	H	1.235249	0.276335	0.788314
H173	H	1.068680	-0.245869	0.651967
H174	H	1.568680	0.254131	1.151967
O175	O	1.069898	-0.245020	0.790743
O176	O	1.569898	0.254980	1.290743
C177	C	1.111530	-0.215367	0.744440
C178	C	1.611530	0.284633	1.244440
H179	H	1.116158	-0.235286	0.692342
H180	H	1.616158	0.264714	1.192342
H181	H	1.165871	-0.212268	0.767960
H182	H	1.665871	0.287732	1.267960
H183	H	1.086227	-0.174570	0.735576
H184	H	1.586227	0.325430	1.235576
H185	H	0.402528	-0.245810	0.316755
H186	H	0.902528	0.254190	0.816755
H187	H	0.934423	-0.341441	0.977674
H188	H	1.434423	0.158559	1.477674
H189	H	0.900227	-0.365792	0.777768
H190	H	1.400227	0.134208	1.277768
O191	O	0.913936	-0.484940	0.288682
O192	O	1.413936	0.015060	0.788682
C193	C	0.866939	-0.453063	0.326629
C194	C	1.366939	0.046937	0.826629
H195	H	0.860229	-0.471028	0.381655
H196	H	1.360229	0.028972	0.881655
H197	H	0.814082	-0.449925	0.298933
H198	H	1.314082	0.050075	0.798933
H199	H	0.888500	-0.412459	0.329983
H200	H	1.388500	0.087541	0.829983
H201	H	0.508956	-0.341078	0.439113
H202	H	1.008956	0.158922	0.939113
H203	H	1.097218	-0.225523	0.984695
H204	H	1.597218	0.274477	1.484695
O205	O	0.256780	-0.373102	0.480370
O206	O	0.756780	0.126898	0.980370
C207	C	0.271713	-0.364447	0.551031
C208	C	0.771713	0.135553	1.051031
H209	H	0.324825	-0.346159	0.554792
H210	H	0.824825	0.153841	1.054792
H211	H	0.272866	-0.403245	0.582480
H212	H	0.772866	0.096755	1.082480
H213	H	0.229526	-0.336942	0.572960
H214	H	0.729526	0.163058	1.072960
O215	O	0.914310	-0.987269	0.288685
O216	O	1.414310	-0.487269	0.788685
C217	C	0.956170	-0.955644	0.245122
C218	C	1.456170	-0.455644	0.745122
H219	H	1.008220	-0.949922	0.272159
H220	H	1.508220	-0.449922	0.772159
H221	H	0.928001	-0.916039	0.234468
H222	H	1.428001	-0.416039	0.734468
H223	H	0.966136	-0.975395	0.193515
H224	H	1.466136	-0.475395	0.693515
H225	H	1.091562	-0.229538	1.117525
H226	H	1.591562	0.270462	1.617525
O227	O	1.083239	-0.603540	0.473113
O228	O	1.583239	-0.103540	0.973113
C229	C	1.121064	-0.570191	0.514402
C230	C	1.621064	-0.070191	1.014402
H231	H	1.124718	-0.530495	0.485775
H232	H	1.624718	-0.030495	0.985775
H233	H	1.175981	-0.587985	0.524296
H234	H	1.675981	-0.087985	1.024296
H235	H	1.093080	-0.565128	0.566522
H236	H	1.593080	-0.065128	1.066522
H237	H	0.921001	-1.091108	0.296086
H238	H	1.421001	-0.591108	0.796086
O239	O	0.589499	-0.350966	0.451910
O240	O	1.089499	0.149034	0.951910
C241	C	0.604432	-0.342327	0.522576
C242	C	1.104432	0.157673	1.022576
H243	H	0.657539	-0.324032	0.526344
H244	H	1.157539	0.175968	1.026344
H245	H	0.605594	-0.381131	0.554009
H246	H	1.105594	0.118869	1.054009
H247	H	0.562239	-0.314833	0.544518
H248	H	1.062239	0.185167	1.044518
H249	H	1.119386	-0.753808	0.512554
H250	H	1.619386	-0.253808	1.012554
O251	O	0.933099	-0.342485	0.896528
O252	O	1.433099	0.157515	1.396528
C253	C	0.949150	-0.394564	0.879285
C254	C	1.449150	0.105436	1.379285
H255	H	0.978356	-0.394940	0.827276
H256	H	1.478356	0.105060	1.327276
H257	H	0.898642	-0.416253	0.874612
H258	H	1.398642	0.083747	1.374612
H259	H	0.983430	-0.414611	0.922024
H260	H	1.483430	0.085389	1.422024
O261	O	0.401119	-0.377832	0.486439
O262	O	0.901119	0.122168	0.986439
C263	C	0.441557	-0.350889	0.533608
C264	C	0.941557	0.149111	1.033608
H265	H	0.453596	-0.310859	0.509450
H266	H	0.953596	0.189141	1.009450
H267	H	0.492632	-0.374183	0.545142
H268	H	0.992632	0.125817	1.045142
H269	H	0.411143	-0.345837	0.584375
H270	H	0.911143	0.154163	1.084375
O271	O	0.871175	-0.840894	0.241887
O272	O	1.371175	-0.340894	0.741887
C273	C	0.833319	-0.802612	0.200585
C274	C	1.333319	-0.302612	0.700585
H275	H	0.829647	-0.764467	0.229191
H276	H	1.329647	-0.264467	0.729191
H277	H	0.778410	-0.816361	0.190712
H278	H	1.278410	-0.316361	0.690712
H279	H	0.861288	-0.796053	0.148456
H280	H	1.361288	-0.296053	0.648456
H281	H	0.602415	-0.219270	0.282671
H282	H	1.102415	0.280730	0.782671
O283	O	0.899058	-0.366684	0.638982
O284	O	1.399058	0.133316	1.138982
C285	C	0.857409	-0.396325	0.685283
C286	C	1.357409	0.103675	1.185283
H287	H	0.883898	-0.400662	0.738703
H288	H	1.383898	0.099338	1.238703
H289	H	0.850807	-0.436632	0.663788
H290	H	1.350807	0.063368	1.163788
H291	H	0.803845	-0.375652	0.690797
H292	H	1.303845	0.124348	1.190797
H293	H	0.269705	-0.241408	0.311118
H294	H	0.769705	0.258592	0.811118
O295	O	0.483675	-0.244786	0.315309
O296	O	0.983675	0.255214	0.815309
C297	C	0.504487	-0.254617	0.246161
C298	C	1.004487	0.245383	0.746161
H299	H	0.557700	-0.276422	0.246902
H300	H	1.057700	0.223578	0.746902
H301	H	0.508328	-0.215982	0.214929
H302	H	1.008328	0.284018	0.714929
H303	H	0.464261	-0.279393	0.220735
H304	H	0.964261	0.220607	0.720735
O305	O	1.126231	-0.857511	0.519958
O306	O	1.626231	-0.357511	1.019958
C307	C	1.164055	-0.824160	0.561245
C308	C	1.664055	-0.324160	1.061245
H309	H	1.167697	-0.784461	0.532622
H310	H	1.667697	-0.284461	1.032622
H311	H	1.218978	-0.841948	0.571128
H312	H	1.718978	-0.341948	1.071128
H313	H	1.136079	-0.819104	0.613371
H314	H	1.636079	-0.319104	1.113371
H315	H	1.076598	-1.002191	0.465835
H316	H	1.576598	-0.502191	0.965835
O317	O	1.064284	-0.248870	0.865784
O318	O	1.564284	0.251130	1.365784
C319	C	1.026199	-0.212487	0.821760
C320	C	1.526199	0.287513	1.321760
H321	H	0.973519	-0.228828	0.808513
H322	H	1.473519	0.271172	1.308513
H323	H	1.056948	-0.204875	0.771497
H324	H	1.556948	0.295125	1.271497
H325	H	1.017333	-0.174339	0.849668
H326	H	1.517333	0.325661	1.349668
H327	H	0.728303	-0.350100	0.450670
H328	H	1.228303	0.149900	0.950670
O329	O	0.871124	-0.733317	0.241986
O330	O	1.371124	-0.233317	0.741986
C331	C	0.824118	-0.701436	0.279920
C332	C	1.324118	-0.201436	0.779920
H333	H	0.817406	-0.719393	0.334950
H334	H	1.317406	-0.219393	0.834950
H335	H	0.771263	-0.698307	0.252219
H336	H	1.271263	-0.198307	0.752219
H337	H	0.845672	-0.660829	0.283263
H338	H	1.345672	-0.160829	0.783263
H339	H	1.076632	-1.101258	0.465857
H340	H	1.576632	-0.601258	0.965857
H341	H	0.920797	-0.588760	0.295956
H342	H	1.420797	-0.088760	0.795956
