data_functionalizedCrystal
_audit_creation_method	'MofGen! by Chris Wilmer'
_symmetry_space_group_name_H-M	'P1'
_symmetry_Int_Tables_number	1
_symmetry_cell_setting	triclinic
loop_
_symmetry_equiv_pos_as_xyz
  x,y,z
_cell_length_a	18.215407
_cell_length_b	29.839131
_cell_length_c	18.215399
_cell_angle_alpha	89.969127
_cell_angle_beta	89.980167
_cell_angle_gamma	90.041868
loop_
_atom_site_label
_atom_site_type_symbol
_atom_site_fract_x
_atom_site_fract_y
_atom_site_fract_z
Zn1	Zn	1.124987	-0.178853	-0.416101
Zn2	Zn	1.124860	-0.253982	-0.293028
Zn3	Zn	1.001920	-0.178867	-0.293048
Zn4	Zn	1.001850	-0.253957	-0.416053
O5	O	1.063404	-0.216415	-0.354558
O6	O	1.227955	-0.188823	-0.399787
O7	O	1.108528	-0.244034	-0.190047
O8	O	1.018327	-0.115998	-0.309400
O9	O	1.227861	-0.244020	-0.309366
O10	O	1.108745	-0.115987	-0.399806
O11	O	1.018204	-0.188848	-0.190061
O12	O	0.898926	-0.188824	-0.309354
O13	O	1.018209	-0.243978	-0.519044
O14	O	0.898875	-0.243992	-0.399725
O15	O	1.108677	-0.188799	-0.519079
O16	O	1.108460	-0.316846	-0.309320
O17	O	1.018086	-0.316827	-0.399705
C18	C	0.872198	-0.216407	-0.354537
C19	C	0.790399	-0.216414	-0.354545
C20	C	0.602198	-0.245186	-0.401542
C21	C	0.525339	-0.245187	-0.401551
C22	C	0.525363	-0.187652	-0.307589
C23	C	0.602220	-0.187648	-0.307584
C24	C	0.640636	-0.216418	-0.354560
C25	C	0.486920	-0.216423	-0.354574
C26	C	0.403586	-0.216424	-0.354583
C27	C	0.723975	-0.216416	-0.354551
C28	C	1.063272	-0.333137	-0.354521
C29	C	1.063282	-0.383072	-0.354530
C30	C	1.110548	-0.692712	-0.307563
C31	C	1.110639	-0.880385	-0.307591
O32	O	1.150721	-0.904647	-0.267629
N33	N	1.063557	-0.903857	-0.354613
C34	C	1.016452	-0.880407	-0.401635
O35	O	0.976414	-0.904678	-0.441636
C36	C	1.016366	-0.692735	-0.401609
C37	C	1.063446	-0.669266	-0.354579
C38	C	1.157625	-0.669243	-0.260536
C39	C	1.157599	-0.622327	-0.260527
C40	C	1.110496	-0.598881	-0.307544
C41	C	1.063420	-0.622350	-0.354570
C42	C	0.969265	-0.669287	-0.448634
C43	C	0.969249	-0.622365	-0.448625
C44	C	1.016329	-0.598896	-0.401595
C45	C	1.016291	-0.551989	-0.401577
N46	N	1.063373	-0.528517	-0.354554
C47	C	1.110476	-0.551963	-0.307538
C48	C	1.016500	-0.978938	-0.401644
C49	C	1.016521	-1.025856	-0.401649
C50	C	1.110709	-1.025830	-0.307606
C51	C	1.110684	-0.978911	-0.307598
C52	C	1.063582	-0.955466	-0.354622
C53	C	1.110417	-0.453437	-0.307521
C54	C	1.110385	-0.406518	-0.307514
C55	C	1.016200	-0.406547	-0.401559
C56	C	1.016229	-0.453463	-0.401564
C57	C	1.063344	-0.476907	-0.354543
O58	O	0.976236	-0.527698	-0.441523
O59	O	1.150520	-0.527685	-0.267554
C60	C	1.110574	-0.739627	-0.307572
C61	C	1.063498	-0.763097	-0.354598
C62	C	1.016395	-0.739651	-0.401615
C63	C	1.063518	-0.810015	-0.354604
C64	C	1.110621	-0.833461	-0.307587
C65	C	1.157703	-0.809989	-0.260565
C66	C	1.157677	-0.763074	-0.260555
C67	C	0.969313	-0.763122	-0.448637
C68	C	0.969342	-0.810038	-0.448642
C69	C	1.016445	-0.833484	-0.401625
C70	C	1.255357	-0.216423	-0.354579
C71	C	1.337156	-0.216426	-0.354589
C72	C	1.063449	-0.216384	-0.546511
C73	C	1.063468	-0.216370	-0.628310
C74	C	1.063558	-0.099236	-0.354610
C75	C	1.063623	-0.049302	-0.354633
C76	C	1.110592	-0.187612	-0.816523
C77	C	1.110601	-0.187599	-0.893382
C78	C	1.016397	-0.245059	-0.893334
C79	C	1.016385	-0.245070	-0.816477
C80	C	1.063487	-0.216347	-0.778073
C81	C	1.063507	-0.216323	-0.931789
C82	C	1.063517	-0.216309	-1.015123
C83	C	1.063477	-0.216360	-0.694734
C84	C	1.063402	-0.216413	-0.163351
C85	C	1.063526	-0.216300	-0.081553
H86	H	1.148784	-0.472520	-0.269233
O87	O	0.487887	-0.273091	-0.447165
C88	C	0.411813	-0.266934	-0.437088
H89	H	0.401343	-0.232245	-0.413091
H90	H	0.389955	-0.293551	-0.397821
C91	C	0.385243	-0.313716	-0.541016
C92	C	0.372383	-0.271109	-0.511548
H93	H	0.360919	-0.316293	-0.586945
H94	H	0.436495	-0.317866	-0.547804
H95	H	0.367028	-0.335892	-0.508286
H96	H	0.390606	-0.248934	-0.544273
H97	H	0.321132	-0.266955	-0.504767
O98	O	0.970346	-0.383789	-0.447157
C99	C	0.897008	-0.395310	-0.431037
H100	H	0.893316	-0.408231	-0.372244
H101	H	0.877766	-0.422539	-0.470483
C102	C	0.852411	-0.337785	-0.511773
C103	C	0.847876	-0.353652	-0.439560
H104	H	0.822103	-0.312089	-0.517033
H105	H	0.901820	-0.330024	-0.522636
H106	H	0.836377	-0.360480	-0.544636
H107	H	0.863918	-0.330959	-0.406699
H108	H	0.798468	-0.361408	-0.428692
O109	O	1.203373	-0.599482	-0.214950
C110	C	1.250883	-0.572307	-0.256890
H111	H	1.224889	-0.565269	-0.312633
H112	H	1.305420	-0.590355	-0.265035
C113	C	1.296148	-0.536395	-0.147935
C114	C	1.264219	-0.527747	-0.216398
H115	H	1.304378	-0.508908	-0.122957
H116	H	1.264143	-0.554704	-0.119678
H117	H	1.341593	-0.551436	-0.154733
H118	H	1.218772	-0.512711	-0.209599
H119	H	1.296218	-0.509434	-0.244653
O120	O	0.639644	-0.159765	-0.261905
C121	C	0.684042	-0.185305	-0.214285
H122	H	0.695527	-0.219371	-0.240140
H123	H	0.654397	-0.190200	-0.159733
C124	C	0.742967	-0.118735	-0.169276
C125	C	0.757077	-0.160574	-0.201035
H126	H	0.788017	-0.103479	-0.161099
H127	H	0.713053	-0.101528	-0.201356
H128	H	0.718260	-0.122820	-0.123820
H129	H	0.781775	-0.156488	-0.246494
H130	H	0.786997	-0.177780	-0.168962
H131	H	0.978143	-0.959852	-0.439938
H132	H	0.978050	-0.268446	-0.924612
O133	O	1.156261	-0.159644	-0.779252
C134	C	1.140244	-0.114867	-0.798069
H135	H	1.081457	-0.112597	-0.819185
H136	H	1.179718	-0.103118	-0.842698
C137	C	1.221037	-0.087679	-0.703879
C138	C	1.148832	-0.084891	-0.729808
H139	H	1.226338	-0.069187	-0.661775
H140	H	1.231831	-0.117846	-0.691203
H141	H	1.253925	-0.077889	-0.741076
H142	H	1.115947	-0.094686	-0.692615
H143	H	1.138033	-0.054725	-0.742477
O144	O	0.923426	-0.599661	-0.494331
C145	C	0.881897	-0.630440	-0.535853
H146	H	0.879381	-0.663897	-0.505709
H147	H	0.908825	-0.635393	-0.591767
C148	C	0.806647	-0.571085	-0.583421
C149	C	0.803552	-0.612176	-0.546394
H150	H	0.758321	-0.559818	-0.589926
H151	H	0.834627	-0.550348	-0.555449
H152	H	0.829090	-0.575218	-0.630012
H153	H	0.781118	-0.608042	-0.499801
H154	H	0.775566	-0.632912	-0.574359
O155	O	1.156254	-0.159637	-0.930763
C156	C	1.114398	-0.130619	-0.975235
H157	H	1.056436	-0.127848	-0.952063
H158	H	1.111855	-0.144497	-1.033479
C159	C	1.221598	-0.087319	-1.004899
C160	C	1.150410	-0.083913	-0.976435
H161	H	1.243813	-0.058509	-1.005642
H162	H	1.249799	-0.106870	-0.974939
H163	H	1.219470	-0.098886	-1.053433
H164	H	1.152540	-0.072352	-0.927899
H165	H	1.122211	-0.064359	-1.006387
H166	H	1.148723	-0.387411	-0.269213
H167	H	1.195985	-0.688328	-0.222250
O168	O	1.203555	-0.832783	-0.215008
C169	C	1.251057	-0.859875	-0.256979
H170	H	1.255534	-0.845706	-0.314942
H171	H	1.228330	-0.895450	-0.259497
C172	C	1.322099	-0.877958	-0.149937
C173	C	1.327603	-0.860553	-0.221126
H174	H	1.369315	-0.878378	-0.127820
H175	H	1.290095	-0.859707	-0.121659
H176	H	1.303157	-0.907602	-0.152045
H177	H	1.346535	-0.830908	-0.219017
H178	H	1.359612	-0.878799	-0.249403
O179	O	1.156486	-1.048679	-0.262047
C180	C	1.146412	-1.095122	-0.272153
H181	H	1.122213	-1.101509	-0.328902
H182	H	1.107315	-1.108500	-0.228431
C183	C	1.250633	-1.111308	-0.195897
C184	C	1.220916	-1.119153	-0.265599
H185	H	1.296589	-1.126132	-0.191850
H186	H	1.257418	-1.080019	-0.189085
H187	H	1.218045	-1.122457	-0.159469
H188	H	1.253500	-1.107999	-0.302025
H189	H	1.214138	-1.150441	-0.272416
O190	O	0.970704	-0.273050	-0.779154
C191	C	0.986721	-0.317823	-0.797925
H192	H	1.045512	-0.320091	-0.819065
H193	H	0.947255	-0.329561	-0.842521
C194	C	0.905903	-0.345028	-0.703665
C195	C	0.978114	-0.347813	-0.729624
H196	H	0.900590	-0.363528	-0.661535
H197	H	0.895109	-0.314863	-0.691020
H198	H	0.873023	-0.354808	-0.740835
H199	H	1.010991	-0.338027	-0.692458
H200	H	0.988913	-0.377977	-0.742261
O201	O	0.639402	-0.273142	-0.447247
C202	C	0.588990	-0.298540	-0.488705
H203	H	0.534225	-0.280143	-0.491307
H204	H	0.580768	-0.332641	-0.461659
C205	C	0.686273	-0.327667	-0.563814
C206	C	0.619011	-0.305069	-0.567015
H207	H	0.704791	-0.331697	-0.612118
H208	H	0.720237	-0.310557	-0.535881
H209	H	0.679412	-0.356082	-0.541272
H210	H	0.625874	-0.276653	-0.589548
H211	H	0.585048	-0.322174	-0.594953
H212	H	1.149021	-0.959806	-0.269302
O213	O	0.487931	-0.159750	-0.261982
C214	C	0.411852	-0.165912	-0.272073
H215	H	0.401326	-0.200602	-0.296071
H216	H	0.390087	-0.139297	-0.311346
C217	C	0.385293	-0.119130	-0.168153
C218	C	0.372365	-0.161738	-0.197621
H219	H	0.360934	-0.116553	-0.122228
H220	H	0.436549	-0.114976	-0.161355
H221	H	0.367156	-0.096955	-0.200887
H222	H	0.390510	-0.183912	-0.164891
H223	H	0.321111	-0.165896	-0.204411
H224	H	1.196014	-0.743968	-0.222259
O225	O	0.923528	-0.832854	-0.494226
C226	C	0.876040	-0.860052	-0.452303
H227	H	0.871512	-0.845944	-0.394331
H228	H	0.898814	-0.895597	-0.449801
C229	C	0.805082	-0.878132	-0.559399
C230	C	0.799515	-0.860802	-0.488199
H231	H	0.757878	-0.878596	-0.581542
H232	H	0.837076	-0.859809	-0.587644
H233	H	0.824063	-0.907751	-0.557304
H234	H	0.780543	-0.831182	-0.490295
H235	H	0.767515	-0.879120	-0.459954
O236	O	0.970860	-1.048630	-0.447435
C237	C	0.986888	-1.037116	-0.520793
H238	H	1.045674	-1.024183	-0.524557
H239	H	0.947412	-1.009896	-0.539986
C240	C	0.906108	-1.094661	-0.565290
C241	C	0.978312	-1.078781	-0.569914
H242	H	0.900816	-1.120361	-0.595592
H243	H	0.895308	-1.102418	-0.515868
H244	H	0.873221	-1.071974	-0.581283
H245	H	1.011198	-1.101466	-0.553913
H246	H	0.989118	-1.071029	-0.619335
H247	H	0.930924	-0.688387	-0.486928
O248	O	0.970573	-0.476245	-0.447350
C249	C	0.986598	-0.464727	-0.520707
H250	H	1.045379	-0.451787	-0.524470
H251	H	0.947113	-0.437513	-0.539900
C252	C	0.905840	-0.522284	-0.565206
C253	C	0.978038	-0.506394	-0.569829
H254	H	0.900557	-0.547985	-0.595508
H255	H	0.895042	-0.530043	-0.515784
H256	H	0.872944	-0.499601	-0.581199
H257	H	1.010932	-0.529074	-0.553827
H258	H	0.988842	-0.498640	-0.619250
H259	H	0.930957	-0.744036	-0.486924
