data_functionalizedCrystal
_audit_creation_method	'MofGen! by Chris Wilmer'
_symmetry_space_group_name_H-M	'P1'
_symmetry_Int_Tables_number	1
_symmetry_cell_setting	triclinic
loop_
_symmetry_equiv_pos_as_xyz
  x,y,z
_cell_length_a	15.944499
_cell_length_b	27.732048
_cell_length_c	15.021413
_cell_angle_alpha	89.999048
_cell_angle_beta	89.990095
_cell_angle_gamma	83.060132
loop_
_atom_site_label
_atom_site_type_symbol
_atom_site_fract_x
_atom_site_fract_y
_atom_site_fract_z
O1	O	1.113742	0.062215	-0.074095
O2	O	0.869086	0.069927	-0.074087
O3	O	0.999013	-0.004294	-0.074074
O4	O	0.983816	0.136436	-0.074108
O5	O	0.998992	-0.004283	0.073990
O6	O	0.869065	0.069938	0.073978
O7	O	1.113722	0.062226	0.073969
Zn8	Zn	0.991390	0.066083	0.097482
Zn9	Zn	0.991417	0.066069	-0.097599
O10	O	0.983795	0.136446	0.073957
C11	C	0.837785	0.069617	-0.000053
C12	C	0.744549	0.068670	-0.000049
C13	C	0.998683	-0.022297	-0.000040
C14	C	0.997723	-0.075956	-0.000032
C15	C	0.452449	0.111790	-0.000072
C16	C	0.513782	0.089370	-0.073072
C17	C	0.408957	0.065231	-0.000069
C18	C	0.513747	0.089368	0.072908
C19	C	0.573844	0.066923	-0.000058
C20	C	0.469062	0.042798	-0.073129
C21	C	0.469021	0.042802	0.072917
C22	C	0.530337	0.020348	-0.000101
C23	C	0.313970	0.064257	-0.000076
C24	C	0.668830	0.067893	-0.000057
C25	C	1.068453	-0.414472	-0.000080
C26	C	1.064889	-0.616147	-0.000093
O27	O	1.129568	-0.647129	-0.000134
N28	N	0.987848	-0.635596	-0.000089
C29	C	0.911693	-0.604623	-0.000088
O30	O	0.846083	-0.625793	-0.000095
C31	C	0.915258	-0.402949	-0.000082
C32	C	0.992304	-0.383503	-0.000077
C33	C	1.145493	-0.395025	-0.000076
C34	C	1.146384	-0.344609	-0.000068
C35	C	1.070234	-0.313640	-0.000065
C36	C	0.993194	-0.333087	-0.000069
C37	C	0.839103	-0.371977	-0.000088
C38	C	0.840001	-0.321556	-0.000089
C39	C	0.917047	-0.302110	-0.000083
C40	C	0.917934	-0.251702	-0.000058
N41	N	0.994976	-0.232253	-0.000061
C42	C	1.071125	-0.263222	-0.000065
C43	C	0.909826	-0.710505	-0.000090
C44	C	0.908935	-0.760923	-0.000090
C45	C	1.062132	-0.772443	-0.000096
C46	C	1.063023	-0.722024	-0.000089
C47	C	0.986868	-0.691056	-0.000093
C48	C	1.072989	-0.157345	-0.000047
C49	C	1.073872	-0.106925	-0.000036
C50	C	0.920676	-0.095409	-0.000034
C51	C	0.919792	-0.145825	-0.000041
C52	C	0.995955	-0.176792	-0.000051
O53	O	0.853291	-0.220691	-0.000026
O54	O	1.136726	-0.242043	-0.000078
C55	C	1.067563	-0.464888	-0.000088
C56	C	0.990523	-0.484334	-0.000093
C57	C	0.914374	-0.453365	-0.000089
C58	C	0.989632	-0.534752	-0.000093
C59	C	1.065782	-0.565721	-0.000096
C60	C	1.142823	-0.546272	-0.000100
C61	C	1.143713	-0.495857	-0.000092
C62	C	0.837332	-0.472814	-0.000086
C63	C	0.836449	-0.523231	-0.000093
C64	C	0.912598	-0.554200	-0.000096
C65	C	1.145023	0.062536	-0.000066
C66	C	1.238258	0.063483	-0.000076
N67	N	0.991378	0.066093	0.230619
C68	C	0.984124	0.154449	-0.000080
C69	C	0.985085	0.208108	-0.000093
N70	N	0.991436	0.066056	-0.230737
C71	C	0.931291	0.100396	0.470297
C72	C	1.007070	0.109772	0.529626
C73	C	0.991399	0.066080	0.412226
C74	C	0.915640	0.056715	0.529639
C75	C	0.991413	0.066070	0.587650
C76	C	1.067217	0.075478	0.470249
C77	C	0.975737	0.022403	0.470257
C78	C	1.051572	0.031760	0.529559
C79	C	0.991390	0.066088	0.311169
C80	C	0.991431	0.066062	0.688706
H81	H	0.418614	0.150430	-0.000152
F82	F	0.837791	-0.166522	-0.000031
F83	F	1.154051	-0.190296	-0.000058
F84	F	0.839636	-0.062441	-0.000030
F85	F	1.143177	-0.805411	-0.000101
F86	F	0.539718	0.115103	-0.153753
H87	H	0.846196	-0.776751	-0.000079
H88	H	1.206452	-0.480029	-0.000088
H89	H	1.131304	0.083439	0.444271
F90	F	0.828766	-0.677551	-0.000094
F91	F	0.758944	-0.288599	-0.000095
F92	F	0.443300	0.017071	-0.153882
F93	F	1.155879	-0.086232	-0.000030
H94	H	0.564020	-0.018326	-0.000130
H95	H	0.449153	0.023130	0.134643
H96	H	1.125760	-0.706195	-0.000086
F97	F	1.118091	-0.006179	0.563361
F98	F	1.223867	-0.579241	-0.000099
F99	F	0.864916	0.138356	0.436282
F100	F	0.539642	0.115123	0.153569
F101	F	0.958375	-0.025856	0.436142
F102	F	0.831892	0.046367	0.563739
F103	F	1.024403	0.158045	0.563712
F104	F	1.228387	-0.323920	-0.000082
F105	F	0.756279	-0.439861	-0.000085
H106	H	1.207507	-0.420236	-0.000082
F107	F	0.757098	-0.392662	-0.000098
H108	H	0.773704	-0.539058	-0.000089
