data_functionalizedCrystal
_audit_creation_method	'MofGen! by Chris Wilmer'
_symmetry_space_group_name_H-M	'P1'
_symmetry_Int_Tables_number	1
_symmetry_cell_setting	triclinic
loop_
_symmetry_equiv_pos_as_xyz
  x,y,z
_cell_length_a	16.974885
_cell_length_b	16.053802
_cell_length_c	16.992695
_cell_angle_alpha	92.741074
_cell_angle_beta	92.976847
_cell_angle_gamma	88.930672
loop_
_atom_site_label
_atom_site_type_symbol
_atom_site_fract_x
_atom_site_fract_y
_atom_site_fract_z
O1	O	1.055365	-0.001812	-0.099987
O2	O	0.826662	0.013628	-0.111987
O3	O	0.940096	0.005963	0.008157
O4	O	0.941931	0.005853	-0.220131
O5	O	0.933851	-0.132474	0.001572
O6	O	0.820416	-0.124809	-0.118572
O7	O	1.049120	-0.140249	-0.106573
Zn8	Zn	0.933776	-0.154509	-0.113618
Zn9	Zn	0.942005	0.027888	-0.104941
O10	O	0.935685	-0.132584	-0.226717
C11	C	0.794140	-0.053606	-0.114702
C12	C	0.706539	-0.047692	-0.112971
C13	C	0.213809	-0.006244	-0.102812
C14	C	0.296119	-0.011812	-0.104439
C15	C	0.333861	-0.090059	-0.108849
C16	C	0.289289	-0.162743	-0.111623
C17	C	0.206981	-0.157174	-0.109990
C18	C	0.579659	-0.114806	-0.114112
C19	C	0.661973	-0.120370	-0.115747
C20	C	0.668797	0.030561	-0.108562
C21	C	0.586487	0.036123	-0.106934
C22	C	0.541923	-0.036560	-0.109704
N23	N	0.417994	-0.095753	-0.110514
N24	N	0.457791	-0.030866	-0.108033
N25	N	0.928166	-0.278990	-0.119540
C26	C	0.976453	-0.325947	-0.068436
C27	C	0.972536	-0.413089	-0.072586
C28	C	0.920337	-0.453273	-0.127843
C29	C	0.872045	-0.406310	-0.178948
C30	C	0.875958	-0.319169	-0.174795
C31	C	0.903242	-0.713528	-0.145965
C32	C	0.899335	-0.800675	-0.150117
C33	C	0.999825	-0.807448	-0.043753
C34	C	1.003737	-0.720305	-0.039607
C35	C	0.955443	-0.673350	-0.090710
N36	N	0.916334	-0.542346	-0.132087
N37	N	0.959442	-0.584278	-0.086461
C38	C	1.081642	-0.073014	-0.103858
C39	C	1.169243	-0.078922	-0.105589
C40	C	0.934615	-0.063096	0.034082
C41	C	0.927577	-0.062621	0.121141
N42	N	0.947621	0.152369	-0.099014
C43	C	0.941167	-0.063523	-0.252641
C44	C	0.948205	-0.063993	-0.339700
C45	C	0.995485	-0.067206	0.171239
C46	C	0.988867	-0.066751	0.253039
C47	C	0.914341	-0.061717	0.284741
C48	C	0.846428	-0.057129	0.234637
C49	C	0.853046	-0.057578	0.152838
C50	C	0.886911	-0.059854	0.528397
C51	C	0.880297	-0.059408	0.610202
C52	C	1.022737	-0.069029	0.628599
C53	C	1.029349	-0.069482	0.546797
C54	C	0.961436	-0.064890	0.496701
N55	N	0.907575	-0.061255	0.368354
N56	N	0.968203	-0.065346	0.413090
H57	H	0.332401	0.047370	-0.102173
H58	H	1.044166	-0.070487	0.293826
N59	N	1.032759	-0.282609	-0.008842
H60	H	1.062753	-0.325582	0.022902
H61	H	1.002026	-0.244282	0.027632
N62	N	0.702681	-0.204769	-0.120505
H63	H	0.690205	-0.237022	-0.073221
H64	H	0.761571	-0.197193	-0.121150
N65	N	0.799910	-0.053976	0.644394
H66	H	0.772245	-0.000629	0.628580
H67	H	0.806091	-0.054429	0.703807
N68	N	0.843021	-0.844015	-0.209711
H69	H	0.847874	-0.906344	-0.204587
H70	H	0.856303	-0.829622	-0.264644
N71	N	1.060041	-0.676970	0.019992
H72	H	1.115869	-0.695942	0.010082
H73	H	1.046714	-0.691313	0.074926
H74	H	1.011854	-0.451321	-0.030973
H75	H	0.183085	0.057473	-0.099227
H76	H	0.863920	-0.675303	-0.187577
H77	H	0.831611	-0.056114	0.487618
H78	H	1.039144	-0.845687	-0.002147
H79	H	0.829539	-0.439032	-0.223937
H80	H	0.785747	-0.053024	0.260455
N81	N	0.779801	-0.052654	0.098802
H82	H	0.795301	-0.053705	0.042172
H83	H	0.749851	0.000840	0.111514
N84	N	0.823874	-0.268518	-0.229908
H85	H	0.790211	-0.307196	-0.265545
H86	H	0.857852	-0.234530	-0.262936
N87	N	1.075868	-0.072644	0.137052
H88	H	1.108170	-0.023350	0.157745
H89	H	1.069691	-0.072263	0.077634
N90	N	0.545781	0.120518	-0.102170
H91	H	0.586504	0.165716	-0.100654
H92	H	0.515116	0.125877	-0.052764
H93	H	1.090036	-0.073582	0.520993
H94	H	1.078028	-0.072767	0.669396
H95	H	0.543386	-0.173990	-0.116356
N96	N	0.716862	0.108952	-0.105570
H97	H	0.774731	0.093554	-0.107272
H98	H	0.707296	0.142645	-0.055145
N99	N	0.329989	-0.247141	-0.116380
H100	H	0.367322	-0.253048	-0.068652
H101	H	0.360605	-0.252531	-0.165817
N102	N	0.158912	-0.235563	-0.112980
H103	H	0.195348	-0.285977	-0.115464
H104	H	0.121667	-0.236596	-0.161324
