data_functionalizedCrystal
_audit_creation_method	'MofGen! by Chris Wilmer'
_symmetry_space_group_name_H-M	'P1'
_symmetry_Int_Tables_number	1
_symmetry_cell_setting	triclinic
loop_
_symmetry_equiv_pos_as_xyz
  x,y,z
_cell_length_a	16.959455
_cell_length_b	19.805405
_cell_length_c	19.805399
_cell_angle_alpha	89.970699
_cell_angle_beta	89.982498
_cell_angle_gamma	90.023358
loop_
_atom_site_label
_atom_site_type_symbol
_atom_site_fract_x
_atom_site_fract_y
_atom_site_fract_z
Zn1	Zn	1.208374	-0.269534	-0.382674
Zn2	Zn	1.208274	-0.382722	-0.269482
Zn3	Zn	1.076195	-0.269547	-0.269503
Zn4	Zn	1.076152	-0.382680	-0.382633
O5	O	1.142249	-0.326121	-0.326073
O6	O	1.318971	-0.284561	-0.367668
O7	O	1.190730	-0.367732	-0.174769
O8	O	1.093788	-0.174828	-0.284541
O9	O	1.318898	-0.367720	-0.284506
O10	O	1.190899	-0.174819	-0.367687
O11	O	1.093692	-0.284583	-0.174783
O12	O	0.965578	-0.284542	-0.284501
O13	O	1.093716	-0.367648	-0.477355
O14	O	0.965547	-0.367661	-0.367618
O15	O	1.190858	-0.284520	-0.477385
O16	O	1.190689	-0.477433	-0.284467
O17	O	1.093619	-0.477403	-0.367598
C18	C	1.142160	-0.501977	-0.326040
C19	C	1.142194	-0.577209	-0.326049
C20	C	0.936883	-0.326099	-0.326058
C21	C	0.849026	-0.326105	-0.326067
C22	C	1.192787	-0.612547	-0.282808
C23	C	1.192821	-0.683235	-0.282823
C24	C	1.142257	-0.718584	-0.326076
C25	C	1.091661	-0.683242	-0.369322
C26	C	1.091632	-0.612555	-0.369310
C27	C	1.091778	-0.968315	-0.369372
C28	C	1.091809	-1.039007	-0.369379
C29	C	1.192966	-1.038995	-0.282885
C30	C	1.192937	-0.968308	-0.282873
C31	C	1.142345	-0.932972	-0.326121
C32	C	1.142311	-0.856323	-0.326105
C33	C	1.142287	-0.795232	-0.326089
C34	C	0.477542	-0.282805	-0.282885
C35	C	0.477558	-0.369492	-0.369300
C36	C	0.560104	-0.369482	-0.369296
C37	C	0.601373	-0.326134	-0.326085
C38	C	0.560096	-0.282796	-0.282878
C39	C	0.601388	-0.412825	-0.412498
C40	C	0.683939	-0.412817	-0.412495
C41	C	0.725209	-0.369465	-0.369286
C42	C	0.683927	-0.326125	-0.326078
C43	C	0.725195	-0.282776	-0.282867
C44	C	0.683914	-0.239432	-0.239662
C45	C	0.601366	-0.239444	-0.239670
C46	C	0.807757	-0.369453	-0.369278
C47	C	0.807749	-0.282767	-0.282860
C48	C	1.348417	-0.326144	-0.326089
C49	C	1.436274	-0.326154	-0.326096
C50	C	1.142293	-0.326078	-0.502616
C51	C	1.142312	-0.326060	-0.577848
C52	C	1.142360	-0.149578	-0.326121
C53	C	1.142407	-0.074346	-0.326141
C54	C	1.192895	-0.282773	-0.613209
C55	C	1.192903	-0.282753	-0.683897
C56	C	1.142332	-0.326025	-0.719224
C57	C	1.091743	-0.369314	-0.683858
C58	C	1.091731	-0.369329	-0.613171
C59	C	1.091787	-0.369251	-0.968931
C60	C	1.091805	-0.369233	-1.039623
C61	C	1.192960	-0.282675	-1.039658
C62	C	1.192948	-0.282690	-0.968971
C63	C	1.142357	-0.325976	-0.933611
C64	C	1.142347	-0.325996	-0.856963
C65	C	1.142344	-0.326009	-0.795871
C66	C	1.142250	-0.326114	-0.150217
C67	C	1.142384	-0.325942	-0.074986
H68	H	1.233959	-0.583770	-0.247583
H69	H	0.717543	-0.448111	-0.447675
H70	H	0.841344	-0.247463	-0.247676
O71	O	0.561226	-0.197439	-0.197635
C72	C	0.467934	-0.188220	-0.106316
C73	C	0.513363	-0.235867	-0.153863
H74	H	0.429213	-0.219269	-0.070924
H75	H	0.511565	-0.157240	-0.075380
H76	H	0.429348	-0.152868	-0.137482
H77	H	0.551950	-0.271260	-0.122749
H78	H	0.469690	-0.266799	-0.184801
O79	O	1.241910	-0.240703	-0.578823
C80	C	1.252581	-0.149306	-0.499080
C81	C	1.196985	-0.196923	-0.537964
H82	H	1.216280	-0.113888	-0.466048
H83	H	1.293877	-0.180351	-0.465936
H84	H	1.288749	-0.118395	-0.536513
H85	H	1.160765	-0.227844	-0.500580
H86	H	1.155740	-0.165839	-0.571119
O87	O	0.437325	-0.240766	-0.240939
C88	C	0.310152	-0.202320	-0.202682
C89	C	0.355599	-0.249976	-0.250208
H90	H	0.244068	-0.209741	-0.210170
H91	H	0.326292	-0.214133	-0.148066
H92	H	0.326459	-0.147766	-0.214661
H93	H	0.339316	-0.304547	-0.238290
H94	H	0.339455	-0.238106	-0.304810
O95	O	1.242072	-0.240796	-0.718326
C96	C	1.348823	-0.231676	-0.798135
C97	C	1.293182	-0.279273	-0.759197
H98	H	1.390171	-0.262766	-0.831178
H99	H	1.312594	-0.196286	-0.831274
H100	H	1.384934	-0.200734	-0.760738
H101	H	1.257060	-0.310259	-0.796546
H102	H	1.329457	-0.314619	-0.726048
H103	H	1.234131	-0.247457	-0.940212
O104	O	0.724128	-0.197347	-0.197750
C105	C	0.851302	-0.158958	-0.159415
C106	C	0.805855	-0.206639	-0.206923
H107	H	0.917386	-0.166465	-0.166805
H108	H	0.835163	-0.104381	-0.171403
H109	H	0.834994	-0.170764	-0.104824
H110	H	0.822138	-0.194895	-0.261530
H111	H	0.821998	-0.261202	-0.194877
H112	H	1.050494	-0.712029	-0.404543
O113	O	1.242061	-0.240525	-1.073933
C114	C	1.280480	-0.125389	-1.095622
C115	C	1.224836	-0.173043	-1.056755
H116	H	1.266563	-0.070819	-1.081758
H117	H	1.344218	-0.137232	-1.081716
H118	H	1.271816	-0.132840	-1.152209
H119	H	1.233430	-0.165619	-1.000159
H120	H	1.161118	-0.161188	-1.070717
O121	O	0.437556	-0.411559	-0.411370
C122	C	0.412291	-0.444518	-0.526452
C123	C	0.457663	-0.396849	-0.478878
H124	H	0.428518	-0.432633	-0.581043
H125	H	0.428507	-0.499093	-0.514531
H126	H	0.346206	-0.437087	-0.518996
H127	H	0.523759	-0.404220	-0.486307
H128	H	0.441381	-0.342292	-0.490810
O129	O	0.561381	-0.454887	-0.454568
C130	C	0.536116	-0.487842	-0.569652
C131	C	0.581495	-0.440180	-0.522076
H132	H	0.552348	-0.475959	-0.624242
H133	H	0.552320	-0.542419	-0.557731
H134	H	0.470031	-0.480401	-0.562199
H135	H	0.647590	-0.447561	-0.529503
H136	H	0.565225	-0.385620	-0.534008
O137	O	0.847735	-0.411574	-0.411306
C138	C	0.839035	-0.497591	-0.496987
C139	C	0.793664	-0.449912	-0.449432
H140	H	0.795338	-0.528610	-0.527813
H141	H	0.877684	-0.466591	-0.532480
H142	H	0.877681	-0.532905	-0.465832
H143	H	0.754974	-0.414588	-0.480531
H144	H	0.755064	-0.480954	-0.413936
O145	O	1.042598	-0.411287	-1.073836
C146	C	0.942285	-0.497168	-1.066346
C147	C	0.997953	-0.449568	-1.027517
H148	H	0.906187	-0.528140	-1.028914
H149	H	0.900933	-0.466109	-1.099427
H150	H	0.978570	-0.532529	-1.099452
H151	H	0.961731	-0.414197	-0.994374
H152	H	1.039306	-0.480669	-0.994479
H153	H	1.234164	-1.067775	-0.247673
H154	H	1.050604	-0.404507	-0.940150
H155	H	1.050435	-0.583783	-0.404522
H156	H	1.050564	-0.404543	-0.712626
H157	H	1.050533	-0.404571	-0.584381
H158	H	1.050635	-1.067787	-0.404607
H159	H	1.234018	-0.712004	-0.247611
H160	H	1.050583	-0.939550	-0.404585
O161	O	1.242131	-0.934075	-0.240836
C162	C	1.342443	-0.941526	-0.155019
C163	C	1.286782	-0.980377	-0.202600
H164	H	1.378547	-0.978944	-0.124083
H165	H	1.383790	-0.908403	-0.186090
H166	H	1.306153	-0.908460	-0.119623
H167	H	1.323009	-1.013480	-0.238006
H168	H	1.245433	-1.013457	-0.171487
