data_functionalizedCrystal
_audit_creation_method	'MofGen! by Chris Wilmer'
_symmetry_space_group_name_H-M	'P1'
_symmetry_Int_Tables_number	1
_symmetry_cell_setting	triclinic
loop_
_symmetry_equiv_pos_as_xyz
  x,y,z
_cell_length_a	18.101395
_cell_length_b	21.395362
_cell_length_c	21.395356
_cell_angle_alpha	90.035878
_cell_angle_beta	89.974602
_cell_angle_gamma	89.953017
loop_
_atom_site_label
_atom_site_type_symbol
_atom_site_fract_x
_atom_site_fract_y
_atom_site_fract_z
Zn1	Zn	-0.294531	-0.957808	-0.354598
Zn2	Zn	0.038803	-0.624475	-0.021264
Zn3	Zn	0.372136	-0.291141	0.312069
Zn4	Zn	-0.418375	-0.957724	-0.249825
Zn5	Zn	-0.085042	-0.624391	0.083508
Zn6	Zn	0.248292	-0.291058	0.416841
Zn7	Zn	-0.294586	-0.853038	-0.249799
Zn8	Zn	0.038747	-0.519704	0.083534
Zn9	Zn	0.372080	-0.186371	0.416868
Zn10	Zn	-0.418369	-0.852991	-0.354530
Zn11	Zn	-0.085036	-0.519658	-0.021197
Zn12	Zn	0.248297	-0.186325	0.312137
O13	O	-0.356465	-0.905390	-0.302188
O14	O	-0.023132	-0.572057	0.031145
O15	O	0.310201	-0.238724	0.364479
O16	O	-0.310938	-1.045475	-0.340739
O17	O	0.022395	-0.712141	-0.007405
O18	O	0.355728	-0.378808	0.325928
O19	O	-0.401980	-0.943822	-0.162144
O20	O	-0.068646	-0.610489	0.171189
O21	O	0.264687	-0.277155	0.504523
O22	O	-0.190946	-0.866990	-0.263718
O23	O	0.142387	-0.533657	0.069615
O24	O	0.475721	-0.200323	0.402949
O25	O	-0.401926	-1.045413	-0.263763
O26	O	-0.068593	-0.712080	0.069570
O27	O	0.264741	-0.378747	0.402904
O28	O	-0.190905	-0.943964	-0.340713
O29	O	0.142428	-0.610631	-0.007380
O30	O	0.475761	-0.277298	0.325953
O31	O	-0.311033	-0.866909	-0.162125
O32	O	0.022301	-0.533576	0.171209
O33	O	0.355634	-0.200242	0.504542
O34	O	-0.311027	-0.765354	-0.263652
O35	O	0.022306	-0.432020	0.069681
O36	O	0.355640	-0.098687	0.403014
O37	O	-0.401916	-0.866911	-0.442217
O38	O	-0.068583	-0.533578	-0.108884
O39	O	0.264750	-0.200244	0.224450
O40	O	-0.401970	-0.765320	-0.340598
O41	O	-0.068637	-0.431986	-0.007265
O42	O	0.264697	-0.098653	0.326069
O43	O	-0.310933	-0.943919	-0.442267
O44	O	0.022401	-0.610586	-0.108933
O45	O	0.355734	-0.277253	0.224400
O46	O	-0.522007	-0.943777	-0.263697
O47	O	-0.188674	-0.610444	0.069636
O48	O	0.144659	-0.277110	0.402969
O49	O	-0.522003	-0.866830	-0.340623
O50	O	-0.188670	-0.533497	-0.007290
O51	O	0.144664	-0.200163	0.326043
C52	C	-0.548876	-0.905306	-0.302170
C53	C	-0.215543	-0.571973	0.031164
C54	C	0.117791	-0.238640	0.364497
C55	C	-0.631190	-0.905328	-0.302183
C56	C	-0.297857	-0.571995	0.031151
C57	C	0.035477	-0.238661	0.364484
C58	C	-0.356505	-0.742603	-0.302115
C59	C	-0.023171	-0.409269	0.031218
C60	C	0.310162	-0.075936	0.364551
C61	C	-0.356539	-0.672961	-0.302099
C62	C	-0.023206	-0.339628	0.031234
C63	C	0.310128	-0.006295	0.364568
C64	C	-0.356418	-0.905419	-0.465611
C65	C	-0.023084	-0.572086	-0.132278
C66	C	0.310249	-0.238753	0.201055
C67	C	-0.356397	-0.905432	-0.535253
C68	C	-0.023064	-0.572098	-0.201919
C69	C	0.310269	-0.238765	0.131414
C70	C	-0.930281	-0.905465	-0.302216
C71	C	-0.596948	-0.572132	0.031117
C72	C	-0.263614	-0.238799	0.364450
C73	C	-0.898984	-0.857165	-0.350736
C74	C	-0.565651	-0.523831	-0.017403
C75	C	-0.232317	-0.190498	0.315930
C76	C	-0.813366	-0.856935	-0.350585
C77	C	-0.480033	-0.523602	-0.017251
C78	C	-0.146699	-0.190269	0.316082
C79	C	-0.781898	-0.905397	-0.302200
C80	C	-0.448565	-0.572064	0.031133
C81	C	-0.115232	-0.238731	0.364466
C82	C	-0.813053	-0.887524	-0.236161
C83	C	-0.479720	-0.554191	0.097172
C84	C	-0.146386	-0.220857	0.430506
C85	C	-0.898698	-0.887213	-0.236451
C86	C	-0.565365	-0.553879	0.096882
C87	C	-0.232032	-0.220546	0.430215
C88	C	-0.898604	-0.971745	-0.319154
C89	C	-0.565270	-0.638412	0.014179
C90	C	-0.231937	-0.305079	0.347512
C91	C	-0.812953	-0.971355	-0.320602
C92	C	-0.479619	-0.638022	0.012731
C93	C	-0.146286	-0.304689	0.346064
C94	C	-0.698039	-0.905360	-0.302187
C95	C	-0.364706	-0.572026	0.031146
C96	C	-0.031372	-0.238693	0.364480
C97	C	-1.014140	-0.905501	-0.302225
C98	C	-0.680807	-0.572168	0.031108
C99	C	-0.347474	-0.238835	0.364441
C100	C	-0.163303	-0.905492	-0.302220
C101	C	0.170030	-0.572158	0.031113
C102	C	0.503363	-0.238825	0.364446
C103	C	-0.080989	-0.905535	-0.302234
C104	C	0.252344	-0.572201	0.031099
C105	C	0.585677	-0.238868	0.364433
C106	C	-0.356427	-1.068814	-0.302261
C107	C	-0.023093	-0.735480	0.031072
C108	C	0.310240	-0.402147	0.364405
C109	C	-0.356410	-1.138455	-0.302293
C110	C	-0.023077	-0.805122	0.031041
C111	C	0.310257	-0.471788	0.364374
C112	C	-0.403956	-0.640247	-0.342105
C113	C	-0.070623	-0.306914	-0.008771
C114	C	0.262711	0.026420	0.324562
C115	C	-0.403938	-0.574812	-0.342133
C116	C	-0.070604	-0.241478	-0.008799
C117	C	0.262729	0.091855	0.324534
C118	C	-0.356511	-0.542093	-0.302144
C119	C	-0.023177	-0.208760	0.031190
C120	C	0.310156	0.124574	0.364523
C121	C	-0.309085	-0.574815	-0.262135
C122	C	0.024249	-0.241482	0.071198
C123	C	0.357582	0.091851	0.404531
C124	C	-0.309099	-0.640250	-0.262113
C125	C	0.024234	-0.306916	0.071220
C126	C	0.357568	0.026417	0.404554
C127	C	-0.350556	-0.438376	-0.245738
C128	C	-0.017223	-0.105043	0.087595
C129	C	0.316111	0.228290	0.420928
C130	C	-0.350547	-0.372943	-0.245760
C131	C	-0.017213	-0.039610	0.087574
C132	C	0.316120	0.293723	0.420907
C133	C	-0.356462	-0.340272	-0.302213
C134	C	-0.023129	-0.006939	0.031120
C135	C	0.310204	0.326394	0.364454
C136	C	-0.362402	-0.373042	-0.358647
C137	C	-0.029069	-0.039709	-0.025313
C138	C	0.304264	0.293624	0.308020
C139	C	-0.362417	-0.438477	-0.358624
C140	C	-0.029083	-0.105143	-0.025291
C141	C	0.304250	0.228190	0.308042
C142	C	-0.356490	-0.471141	-0.302164
C143	C	-0.023156	-0.137807	0.031170
C144	C	0.310177	0.195526	0.364503
C145	C	-0.403862	-0.236605	-0.342252
C146	C	-0.070529	0.096728	-0.008919
C147	C	0.262805	0.430061	0.324415
C148	C	-0.403839	-0.171169	-0.342281
C149	C	-0.070505	0.162164	-0.008948
C150	C	0.262828	0.495498	0.324386
C151	C	-0.308989	-0.171174	-0.262278
C152	C	0.024344	0.162159	0.071055
C153	C	0.357677	0.495493	0.404388
C154	C	-0.309009	-0.236609	-0.262255
C155	C	0.024325	0.096724	0.071078
C156	C	0.357658	0.430057	0.404412
C157	C	-0.356449	-0.269321	-0.302241
C158	C	-0.023116	0.064012	0.031092
C159	C	0.310218	0.397346	0.364426
C160	C	-0.308904	-0.945589	-1.037076
C161	C	0.024429	-0.612256	-0.703743
C162	C	0.357762	-0.278922	-0.370409
C163	C	-0.308922	-0.945584	-0.971640
C164	C	0.024411	-0.612251	-0.638307
C165	C	0.357745	-0.278917	-0.304974
C166	C	-0.356299	-0.905485	-0.938891
C167	C	-0.022966	-0.572152	-0.605558
C168	C	0.310368	-0.238819	-0.272225
C169	C	-0.403675	-0.865400	-0.971583
C170	C	-0.070341	-0.532067	-0.638249
C171	C	0.262992	-0.198734	-0.304916
C172	C	-0.403661	-0.865411	-1.037017
C173	C	-0.070327	-0.532077	-0.703684
C174	C	0.263006	-0.198744	-0.370350
C175	C	-0.362182	-0.849016	-0.835196
C176	C	-0.028849	-0.515683	-0.501863
C177	C	0.304485	-0.182350	-0.168530
C178	C	-0.362191	-0.849005	-0.769763
C179	C	-0.028858	-0.515671	-0.436430
C180	C	0.304476	-0.182338	-0.103097
C181	C	-0.356346	-0.905453	-0.737070
C182	C	-0.023013	-0.572120	-0.403737
C183	C	0.310320	-0.238787	-0.070404
C184	C	-0.350477	-0.961915	-0.769818
C185	C	-0.017144	-0.628582	-0.436485
C186	C	0.316189	-0.295249	-0.103152
C187	C	-0.350463	-0.961926	-0.835253
C188	C	-0.017130	-0.628592	-0.501919
C189	C	0.316203	-0.295259	-0.168586
C190	C	-0.356320	-0.905470	-0.867939
C191	C	-0.022986	-0.572137	-0.534605
C192	C	0.310347	-0.238803	-0.201272
C193	C	-0.308996	-0.945534	-0.633434
C194	C	0.024337	-0.612200	-0.300101
C195	C	0.357670	-0.278867	0.033233
C196	C	-0.309019	-0.945530	-0.567997
C197	C	0.024314	-0.612197	-0.234664
C198	C	0.357647	-0.278863	0.098669
C199	C	-0.403768	-0.865341	-0.567941
C200	C	-0.070435	-0.532007	-0.234608
C201	C	0.262899	-0.198674	0.098726
C202	C	-0.403749	-0.865350	-0.633376
C203	C	-0.070416	-0.532017	-0.300043
C204	C	0.262918	-0.198683	0.033290
C205	C	-0.356359	-0.905446	-0.666119
C206	C	-0.023026	-0.572112	-0.332786
C207	C	0.310308	-0.238779	0.000548
C208	C	-0.356459	-0.905397	-0.139400
C209	C	-0.023126	-0.572064	0.193933
C210	C	0.310207	-0.238731	0.527266
C211	C	-0.356271	-0.905507	-0.069760
C212	C	-0.022938	-0.572173	0.263574
C213	C	0.310396	-0.238840	0.596907
H214	H	-0.792300	-0.868117	-0.399551
H215	H	-0.458967	-0.534784	-0.066218
H216	H	-0.125634	-0.201451	0.267115
C217	C	-0.926677	-0.932670	-0.185948
C218	C	-0.593344	-0.599337	0.147386
C219	C	-0.260010	-0.266003	0.480719
H220	H	-0.979160	-0.932791	-0.185786
H221	H	-0.645827	-0.599458	0.147547
H222	H	-0.312494	-0.266124	0.480881
H223	H	-0.909085	-0.919685	-0.146187
H224	H	-0.575751	-0.586352	0.187147
H225	H	-0.242418	-0.253019	0.520480
H226	H	-0.909052	-0.973582	-0.194721
H227	H	-0.575719	-0.640249	0.138612
H228	H	-0.242386	-0.306915	0.471945
H229	H	-0.792587	-0.984834	-0.369204
H230	H	-0.459254	-0.651500	-0.035871
H231	H	-0.125920	-0.318167	0.297463
H232	H	-0.919530	-0.868236	-0.399862
H233	H	-0.586197	-0.534902	-0.066528
H234	H	-0.252863	-0.201569	0.266805
H235	H	-0.791526	-1.009245	-0.287841
H236	H	-0.458193	-0.675912	0.045493
H237	H	-0.124860	-0.342579	0.378826
H238	H	-0.442450	-0.144534	-0.374862
H239	H	-0.109116	0.188799	-0.041529
H240	H	0.224217	0.522133	0.291804
C241	C	-0.928156	-0.791198	-0.335768
C242	C	-0.594823	-0.457865	-0.002434
C243	C	-0.261490	-0.124532	0.330899
H244	H	-0.959324	-0.792965	-0.300076
H245	H	-0.625991	-0.459631	0.033258
H246	H	-0.292658	-0.126298	0.366591
H247	H	-0.955406	-0.775803	-0.370436
H248	H	-0.622073	-0.442470	-0.037103
H249	H	-0.288740	-0.109136	0.296230
H250	H	-0.887730	-0.764132	-0.327542
H251	H	-0.554396	-0.430799	0.005792
H252	H	-0.221063	-0.097466	0.339125
H253	H	-0.442487	-0.263241	-0.374814
H254	H	-0.109153	0.070092	-0.041481
H255	H	0.224180	0.403426	0.291852
H256	H	-0.792959	-0.807807	-0.339363
H257	H	-0.459625	-0.474474	-0.006030
H258	H	-0.126292	-0.141140	0.327304
C259	C	-0.455850	-0.821259	-0.669333
C260	C	-0.122517	-0.487926	-0.336000
C261	C	0.210816	-0.154592	-0.002666
H262	H	-0.449062	-0.827013	-0.712993
H263	H	-0.115729	-0.493679	-0.379660
H264	H	0.217604	-0.160346	-0.046326
H265	H	-0.445033	-0.779164	-0.658595
H266	H	-0.111700	-0.445830	-0.325261
H267	H	0.221634	-0.112497	0.008072
H268	H	-0.505609	-0.830411	-0.658601
H269	H	-0.172276	-0.497078	-0.325267
H270	H	0.161057	-0.163745	0.008066
C271	C	-0.785516	-0.933547	-0.185987
C272	C	-0.452182	-0.600214	0.147346
C273	C	-0.118849	-0.266881	0.480679
H274	H	-0.754697	-0.964143	-0.204914
H275	H	-0.421364	-0.630810	0.128419
H276	H	-0.088030	-0.297476	0.461753
H277	H	-0.826619	-0.953468	-0.166906
H278	H	-0.493285	-0.620135	0.166427
H279	H	-0.159952	-0.286802	0.499761
H280	H	-0.758226	-0.911422	-0.155192
H281	H	-0.424893	-0.578089	0.178141
H282	H	-0.091560	-0.244755	0.511475
C283	C	-0.256811	-0.135192	-0.218299
C284	C	0.076522	0.198142	0.115034
C285	C	0.409856	0.531475	0.448367
H286	H	-0.263593	-0.091535	-0.224042
H287	H	0.069741	0.241798	0.109292
H288	H	0.403074	0.575131	0.442625
H289	H	-0.207073	-0.145972	-0.227544
H290	H	0.126261	0.187362	0.105789
H291	H	0.459594	0.520695	0.439122
H292	H	-0.267584	-0.145861	-0.176177
H293	H	0.065749	0.187473	0.157156
H294	H	0.399083	0.520806	0.490490
H295	H	-0.442234	-0.832770	-1.063628
H296	H	-0.108900	-0.499437	-0.730294
H297	H	0.224433	-0.166103	-0.396961
H298	H	-0.366942	-0.803046	-0.861809
H299	H	-0.033609	-0.469713	-0.528476
H300	H	0.299724	-0.136379	-0.195143
H301	H	-0.442346	-0.832694	-0.541277
H302	H	-0.109013	-0.499361	-0.207944
H303	H	0.224321	-0.166027	0.125390
H304	H	-0.366969	-0.803030	-0.743105
H305	H	-0.033636	-0.469697	-0.409772
H306	H	0.299697	-0.136364	-0.076438
C307	C	-0.256915	-0.989622	-0.532042
C308	C	0.076418	-0.656288	-0.198709
C309	C	0.409752	-0.322955	0.134624
H310	H	-0.263715	-0.983879	-0.488382
H311	H	0.069618	-0.650546	-0.155049
H312	H	0.402952	-0.317213	0.178285
H313	H	-0.207158	-0.980474	-0.542771
H314	H	0.126176	-0.647141	-0.209437
H315	H	0.459509	-0.313808	0.123896
H316	H	-0.267738	-1.031719	-0.542785
H317	H	0.065595	-0.698385	-0.209452
H318	H	0.398928	-0.365052	0.123882
C319	C	-0.256914	-0.538831	-0.218148
C320	C	0.076419	-0.205498	0.115185
C321	C	0.409752	0.127836	0.448518
H322	H	-0.228671	-0.567689	-0.194321
H323	H	0.104662	-0.234356	0.139012
H324	H	0.437995	0.098978	0.472345
H325	H	-0.285194	-0.513255	-0.190814
H326	H	0.048140	-0.179921	0.142519
H327	H	0.381473	0.153412	0.475852
H328	H	-0.224677	-0.513356	-0.242177
H329	H	0.108656	-0.180023	0.091156
H330	H	0.441989	0.153310	0.424489
C331	C	-0.925867	-1.020346	-0.271374
C332	C	-0.592534	-0.687013	0.061959
C333	C	-0.259201	-0.353679	0.395292
H334	H	-0.956416	-1.000378	-0.241253
H335	H	-0.623083	-0.667045	0.092080
H336	H	-0.289749	-0.333711	0.425413
H337	H	-0.884629	-1.038816	-0.251057
H338	H	-0.551295	-0.705483	0.082276
H339	H	-0.217962	-0.372149	0.415609
H340	H	-0.953372	-1.051816	-0.292324
H341	H	-0.620039	-0.718483	0.041010
H342	H	-0.286706	-0.385150	0.374343
H343	H	-0.442250	-0.832753	-0.944914
H344	H	-0.108917	-0.499420	-0.611581
H345	H	0.224416	-0.166086	-0.278247
H346	H	-0.442584	-0.666877	-0.374665
H347	H	-0.109251	-0.333544	-0.041332
H348	H	0.224082	-0.000210	0.292001
H349	H	-0.918757	-0.838762	-0.222106
H350	H	-0.585423	-0.505429	0.111228
H351	H	-0.252090	-0.172096	0.444561
C352	C	-0.784198	-0.822762	-0.216436
C353	C	-0.450865	-0.489429	0.116897
C354	C	-0.117532	-0.156095	0.450231
H355	H	-0.753174	-0.806530	-0.248352
H356	H	-0.419841	-0.473196	0.084981
H357	H	-0.086508	-0.139863	0.418314
H358	H	-0.756862	-0.826512	-0.178733
H359	H	-0.423529	-0.493178	0.154600
H360	H	-0.090196	-0.159845	0.487934
H361	H	-0.824765	-0.795284	-0.210067
H362	H	-0.491432	-0.461951	0.123266
H363	H	-0.158098	-0.128618	0.456599
C364	C	-0.256808	-0.989668	-0.935681
C365	C	0.076525	-0.656335	-0.602348
C366	C	0.409859	-0.323002	-0.269014
H367	H	-0.228578	-1.013545	-0.964553
H368	H	0.104755	-0.680212	-0.631220
H369	H	0.438088	-0.346878	-0.297886
H370	H	-0.285125	-1.016952	-0.910156
H371	H	0.048209	-0.683619	-0.576823
H372	H	0.381542	-0.350286	-0.243490
H373	H	-0.224556	-0.965698	-0.910156
H374	H	0.108777	-0.632365	-0.576823
H375	H	0.442111	-0.299032	-0.243490
C376	C	-0.927702	-0.993760	-0.383102
C377	C	-0.594368	-0.660426	-0.049769
C378	C	-0.261035	-0.327093	0.283564
H379	H	-0.959444	-0.962730	-0.400071
H380	H	-0.626111	-0.629397	-0.066738
H381	H	-0.292778	-0.296063	0.266596
H382	H	-0.954324	-1.031665	-0.378044
H383	H	-0.620990	-0.698332	-0.044711
H384	H	-0.287657	-0.364999	0.288623
H385	H	-0.887283	-1.000449	-0.410651
H386	H	-0.553950	-0.667116	-0.077318
H387	H	-0.220617	-0.333782	0.256016
C388	C	-0.456055	-0.538818	-0.386177
C389	C	-0.122722	-0.205485	-0.052843
C390	C	0.210612	0.127849	0.280490
H391	H	-0.484299	-0.567672	-0.409996
H392	H	-0.150966	-0.234339	-0.076663
H393	H	0.182368	0.098995	0.256670
H394	H	-0.427723	-0.513361	-0.413514
H395	H	-0.094390	-0.180028	-0.080181
H396	H	0.238943	0.153306	0.253153
H397	H	-0.488295	-0.513224	-0.362198
H398	H	-0.154961	-0.179890	-0.028864
H399	H	0.178372	0.153443	0.304469
C400	C	-0.368947	-0.474524	-0.420694
C401	C	-0.035614	-0.141191	-0.087361
C402	C	0.297719	0.192142	0.245973
H403	H	-0.368114	-0.518172	-0.412592
H404	H	-0.034781	-0.184839	-0.079259
H405	H	0.298552	0.148494	0.254075
H406	H	-0.328702	-0.463863	-0.447116
H407	H	0.004631	-0.130530	-0.113782
H408	H	0.337965	0.202803	0.219551
H409	H	-0.414066	-0.463783	-0.440663
H410	H	-0.080733	-0.130450	-0.107330
H411	H	0.252600	0.202884	0.226004
H412	H	-0.345715	-1.007881	-0.743201
H413	H	-0.012382	-0.674548	-0.409868
H414	H	0.320951	-0.341214	-0.076535
C415	C	-0.256942	-0.676240	-0.218104
C416	C	0.076391	-0.342906	0.115229
C417	C	0.409725	-0.009573	0.448562
H418	H	-0.263742	-0.719895	-0.223820
H419	H	0.069592	-0.386562	0.109513
H420	H	0.402925	-0.053229	0.442846
H421	H	-0.267709	-0.665465	-0.175994
H422	H	0.065625	-0.332132	0.157339
H423	H	0.398958	0.001201	0.490672
H424	H	-0.207193	-0.665570	-0.227358
H425	H	0.126141	-0.332236	0.105976
H426	H	0.459474	0.001097	0.439309
C427	C	-0.368907	-0.337114	-0.420749
C428	C	-0.035574	-0.003780	-0.087416
C429	C	0.297760	0.329553	0.245918
H430	H	-0.368039	-0.293450	-0.412683
H431	H	-0.034706	0.039883	-0.079350
H432	H	0.298628	0.373216	0.253984
H433	H	-0.414024	-0.347816	-0.440714
H434	H	-0.080691	-0.014482	-0.107381
H435	H	0.252642	0.318851	0.225952
H436	H	-0.328659	-0.347901	-0.447158
H437	H	0.004674	-0.014567	-0.113825
H438	H	0.338008	0.318766	0.219508
H439	H	-0.270408	-0.978182	-0.660095
H440	H	0.062925	-0.644848	-0.326761
H441	H	0.396258	-0.311515	0.006572
H442	H	-0.270401	-0.263246	-0.229675
H443	H	0.062933	0.070088	0.103658
H444	H	0.396266	0.403421	0.436992
C445	C	-0.344012	-0.336902	-0.183686
C446	C	-0.010678	-0.003569	0.149647
C447	C	0.322655	0.329764	0.482980
H448	H	-0.340476	-0.365730	-0.150063
H449	H	-0.007143	-0.032397	0.183271
H450	H	0.326190	0.300937	0.516604
H451	H	-0.386438	-0.311335	-0.178119
H452	H	-0.053105	0.021998	0.155214
H453	H	0.280228	0.355332	0.488547
H454	H	-0.301075	-0.311414	-0.184578
H455	H	0.032259	0.021919	0.148755
H456	H	0.365592	0.355252	0.482088
C457	C	-0.344019	-1.024027	-0.871276
C458	C	-0.010685	-0.690693	-0.537943
C459	C	0.322648	-0.357360	-0.204610
H460	H	-0.344844	-1.015945	-0.914928
H461	H	-0.011510	-0.682612	-0.581594
H462	H	0.321823	-0.349279	-0.248261
H463	H	-0.384300	-1.050360	-0.860556
H464	H	-0.050966	-0.717026	-0.527223
H465	H	0.282367	-0.383693	-0.193890
H466	H	-0.298927	-1.044084	-0.860576
H467	H	0.034407	-0.710750	-0.527242
H468	H	0.367740	-0.377417	-0.193909
H469	H	-0.345736	-0.464972	-0.199764
H470	H	-0.012402	-0.131638	0.133569
H471	H	0.320931	0.201695	0.466903
H472	H	-0.270319	-0.978241	-1.063731
H473	H	0.063014	-0.644907	-0.730398
H474	H	0.396348	-0.311574	-0.397064
