data_functionalizedCrystal
_audit_creation_method	'MofGen! by Chris Wilmer'
_symmetry_space_group_name_H-M	'P1'
_symmetry_Int_Tables_number	1
_symmetry_cell_setting	triclinic
loop_
_symmetry_equiv_pos_as_xyz
  x,y,z
_cell_length_a	10.967874
_cell_length_b	14.044190
_cell_length_c	9.482900
_cell_angle_alpha	100.185237
_cell_angle_beta	68.707142
_cell_angle_gamma	88.854151
loop_
_atom_site_label
_atom_site_type_symbol
_atom_site_fract_x
_atom_site_fract_y
_atom_site_fract_z
O1	O	1.753033	0.064826	-0.560076
O2	O	2.253033	0.564826	-0.060076
O3	O	1.377284	0.089025	-0.465949
O4	O	1.877284	0.589025	0.034051
O5	O	1.559509	-0.060919	-0.511568
O6	O	2.059509	0.439081	-0.011568
O7	O	1.570807	0.214770	-0.514456
O8	O	2.070807	0.714770	-0.014456
O9	O	1.522509	-0.030343	-0.260513
O10	O	2.022509	0.469657	0.239487
O11	O	1.340283	0.119600	-0.214893
O12	O	1.840283	0.619600	0.285107
O13	O	1.716032	0.095402	-0.309020
O14	O	2.216032	0.595402	0.190980
Cu15	Cu	1.524779	0.110293	-0.239033
Cu16	Cu	2.024779	0.610293	0.260967
Cu17	Cu	1.568537	0.074134	-0.535936
Cu18	Cu	2.068537	0.574134	-0.035936
O19	O	1.533807	0.245345	-0.263400
O20	O	2.033807	0.745345	0.236600
C21	C	1.310405	0.104862	-0.328302
C22	C	1.810405	0.604862	0.171698
C23	C	1.166252	0.106488	-0.292189
C24	C	1.666252	0.606488	0.207811
C25	C	1.121151	0.091374	-0.406143
C26	C	1.621151	0.591374	0.093857
C27	C	0.972161	0.093053	-0.368822
C28	C	1.472161	0.593053	0.131178
C29	C	1.536069	-0.080825	-0.384799
C30	C	2.036069	0.419175	0.115201
C31	C	1.521336	-0.185692	-0.381096
C32	C	2.021336	0.314308	0.118904
C33	C	1.598893	-0.437866	-0.400581
C34	C	2.098893	0.062134	0.099419
C35	C	1.494431	-0.377703	-0.374403
C36	C	1.994431	0.122297	0.125597
C37	C	1.509404	-0.270859	-0.378128
C38	C	2.009404	0.229141	0.121872
C39	C	1.583921	-0.544721	-0.396857
C40	C	2.083921	-0.044721	0.103143
C41	C	1.782911	0.079564	-0.446671
C42	C	2.282911	0.579564	0.053329
C43	C	1.927066	0.077937	-0.482793
C44	C	2.427066	0.577937	0.017207
C45	C	1.557247	0.265251	-0.390173
C46	C	2.057247	0.765251	0.109827
C47	C	1.571982	0.370117	-0.393887
C48	C	2.071982	0.870117	0.106113
N49	N	1.494012	0.135724	-0.030211
N50	N	1.994012	0.635724	0.469789
N51	N	1.599313	0.048695	-0.744760
N52	N	2.099313	0.548695	-0.244760
C53	C	1.559452	0.081630	0.025606
C54	C	2.059452	0.581630	0.525606
C55	C	1.533864	0.102797	0.199429
C56	C	2.033864	0.602797	0.699429
H57	H	1.094562	0.120676	-0.166999
H58	H	1.594562	0.620676	0.333001
Cl59	Cl	0.861492	0.114961	-0.175523
Cl60	Cl	1.361492	0.614961	0.324477
H61	H	0.998750	0.063759	-0.607992
H62	H	1.498750	0.563759	-0.107992
H63	H	1.192840	0.077195	-0.531333
H64	H	1.692840	0.577195	-0.031333
Cl65	Cl	1.338988	-0.422062	-0.335465
Cl66	Cl	1.838988	0.077938	0.164535
H67	H	1.699562	-0.409132	-0.425784
H68	H	2.199562	0.090868	0.074216
H69	H	1.634417	0.019645	-0.055289
H70	H	2.134417	0.519645	0.444711
H71	H	1.458884	0.164779	0.280324
H72	H	1.958884	0.664779	0.780324
H73	H	1.419038	0.197703	0.050689
H74	H	1.919038	0.697703	0.550689
H75	H	1.674282	-0.013294	0.174347
H76	H	2.174282	0.486706	0.674347
