data_functionalizedCrystal
_audit_creation_method	'MofGen! by Chris Wilmer'
_symmetry_space_group_name_H-M	'P1'
_symmetry_Int_Tables_number	1
_symmetry_cell_setting	triclinic
loop_
_symmetry_equiv_pos_as_xyz
  x,y,z
_cell_length_a	19.188905
_cell_length_b	14.044220
_cell_length_c	12.503572
_cell_angle_alpha	86.156832
_cell_angle_beta	86.486933
_cell_angle_gamma	91.838284
loop_
_atom_site_label
_atom_site_type_symbol
_atom_site_fract_x
_atom_site_fract_y
_atom_site_fract_z
O1	O	0.937474	-0.112684	-0.089503
O2	O	0.735189	-0.128637	-0.089466
O3	O	0.833295	0.017311	-0.089473
O4	O	0.839368	-0.258631	-0.089496
O5	O	0.825918	0.006316	0.089169
O6	O	0.727811	-0.139631	0.089176
O7	O	0.930097	-0.123678	0.089140
Cu8	Cu	0.828281	-0.132658	0.105469
Cu9	Cu	0.837005	-0.119656	-0.105796
O10	O	0.831991	-0.269626	0.089147
C11	C	0.705455	-0.133622	-0.000140
C12	C	0.627850	-0.132084	-0.000126
C13	C	0.595432	-0.125352	-0.097507
C14	C	0.522515	-0.123895	-0.097520
C15	C	0.482019	-0.129151	-0.000147
C16	C	0.514445	-0.135889	0.097246
C17	C	0.587361	-0.137356	0.097257
N18	N	0.366378	-0.077382	0.072323
N19	N	0.297111	-0.075987	0.072306
C20	C	0.262329	-0.124735	-0.000173
N21	N	0.299430	-0.174918	-0.072651
N22	N	0.368703	-0.176309	-0.072637
C23	C	0.402954	-0.127562	-0.000148
C24	C	0.150846	-0.116423	-0.097575
C25	C	0.077927	-0.114972	-0.097584
C26	C	0.069859	-0.126958	0.097186
C27	C	0.142776	-0.128418	0.097192
C28	C	0.183265	-0.123146	-0.000191
C29	C	0.826948	0.047117	-0.000151
C30	C	0.819019	0.152308	-0.000148
C31	C	0.959831	-0.118693	-0.000188
C32	C	1.037436	-0.120230	-0.000210
N33	N	0.822150	-0.141803	0.254062
C34	C	0.838338	-0.299431	-0.000178
C35	C	0.846267	-0.404623	-0.000188
C36	C	0.804524	0.344909	-0.000161
C37	C	0.860759	0.402783	-0.000175
C38	C	0.852694	0.509952	-0.000182
C39	C	0.812588	0.237729	-0.000154
N40	N	0.843141	-0.110505	-0.254389
C41	C	0.813131	-0.155262	0.473178
C42	C	0.852158	-0.097048	0.526502
C43	C	0.847140	-0.104537	0.648426
C44	C	0.818148	-0.147774	0.351243
H45	H	0.496115	-0.118414	-0.176822
H46	H	0.750326	0.375846	-0.000154
N47	N	0.763883	-0.228726	0.533986
H48	H	0.767236	-0.223729	0.613726
H49	H	0.777013	-0.294707	0.514391
N50	N	0.901410	-0.023579	0.465694
H51	H	0.898062	-0.028574	0.385953
H52	H	0.950830	-0.035427	0.485267
H53	H	0.481469	-0.140171	0.176528
N54	N	0.639102	-0.119662	-0.202537
H55	H	0.607496	-0.115174	-0.264230
H56	H	0.667522	-0.178739	-0.206788
N57	N	0.194517	-0.110749	-0.202607
H58	H	0.222943	-0.169818	-0.206946
H59	H	0.226915	-0.052321	-0.206878
N60	N	0.622331	-0.144621	0.202293
H61	H	0.585616	-0.147735	0.263980
H62	H	0.654417	-0.086758	0.206547
N63	N	0.932554	0.361799	-0.000168
H64	H	0.956033	0.379936	0.066054
H65	H	0.961462	0.388078	-0.066436
H66	H	0.169171	-0.133894	0.176490
H67	H	0.051534	-0.109496	-0.176886
H68	H	0.036888	-0.131244	0.176469
