data_functionalizedCrystal
_audit_creation_method	'MofGen! by Chris Wilmer'
_symmetry_space_group_name_H-M	'P1'
_symmetry_Int_Tables_number	1
_symmetry_cell_setting	triclinic
loop_
_symmetry_equiv_pos_as_xyz
  x,y,z
_cell_length_a	6.817900
_cell_length_b	16.418055
_cell_length_c	12.200875
_cell_angle_alpha	94.312575
_cell_angle_beta	107.143593
_cell_angle_gamma	103.389726
loop_
_atom_site_label
_atom_site_type_symbol
_atom_site_fract_x
_atom_site_fract_y
_atom_site_fract_z
V1	V	-4.067902	-0.116076	-0.358060
V2	V	-3.734569	0.217258	-0.024726
V3	V	-3.401236	0.550591	0.308607
O4	O	-4.055059	0.005382	-0.350834
O5	O	-3.721725	0.338715	-0.017501
O6	O	-3.388392	0.672049	0.315833
O7	O	-4.018728	-0.229971	-0.356005
O8	O	-3.685395	0.103363	-0.022672
O9	O	-3.352062	0.436696	0.310662
O10	O	-4.037632	-0.114376	-0.514042
O11	O	-3.704298	0.218957	-0.180709
O12	O	-3.370965	0.552290	0.152625
O13	O	-4.036024	-0.111012	-0.191703
O14	O	-3.702691	0.222321	0.141631
O15	O	-3.369358	0.555654	0.474964
V16	V	-4.549282	-0.101538	-0.338114
V17	V	-4.215948	0.231795	-0.004781
V18	V	-3.882615	0.565129	0.328552
O19	O	-4.333864	-0.147966	-0.401812
O20	O	-4.000530	0.185367	-0.068478
O21	O	-3.667197	0.518701	0.264855
O22	O	-4.733518	-0.069648	-0.294362
O23	O	-4.400184	0.263686	0.038971
O24	O	-4.066851	0.597019	0.372305
O25	O	-4.375249	0.012357	-0.340169
O26	O	-4.041916	0.345690	-0.006836
O27	O	-3.708582	0.679024	0.326498
O28	O	-4.679522	-0.222996	-0.345340
O29	O	-4.346189	0.110337	-0.012007
O30	O	-4.012856	0.443671	0.321327
O31	O	-4.698556	-0.106601	-0.504471
O32	O	-4.365223	0.226732	-0.171138
O33	O	-4.031890	0.560065	0.162195
O34	O	-4.356346	-0.103237	-0.182132
O35	O	-4.023012	0.230096	0.151202
O36	O	-3.689679	0.563429	0.484535
C37	C	-3.862954	-0.257733	-0.350458
C38	C	-3.529621	0.075600	-0.017125
C39	C	-3.196288	0.408934	0.316209
C40	C	-3.904156	-0.350844	-0.349818
C41	C	-3.570823	-0.017511	-0.016484
C42	C	-3.237490	0.315823	0.316849
C43	C	-4.220403	-0.656832	-0.353543
C44	C	-3.887070	-0.323499	-0.020210
C45	C	-3.553737	0.009835	0.313123
C46	C	-4.181699	-0.569343	-0.354126
C47	C	-3.848365	-0.236009	-0.020793
C48	C	-3.515032	0.097324	0.312540
C49	C	-3.816142	-0.560792	-0.342631
C50	C	-3.482808	-0.227459	-0.009298
C51	C	-3.149475	0.105874	0.324036
C52	C	-3.854844	-0.648279	-0.342040
C53	C	-3.521510	-0.314946	-0.008706
C54	C	-3.188177	0.018387	0.324627
C55	C	-4.056982	-0.696298	-0.347502
C56	C	-3.723649	-0.362964	-0.014168
C57	C	-3.390316	-0.029631	0.319165
C58	C	-3.979576	-0.521321	-0.348676
C59	C	-3.646242	-0.187988	-0.015343
C60	C	-3.312909	0.145345	0.317990
C61	C	-3.937609	-0.426461	-0.349309
C62	C	-3.604276	-0.093128	-0.015976
C63	C	-3.270943	0.240205	0.317358
C64	C	-4.098951	-0.791163	-0.346867
C65	C	-3.765618	-0.457830	-0.013534
C66	C	-3.432285	-0.124497	0.319799
C67	C	-3.887066	-0.110280	-0.552049
C68	C	-3.553733	0.223054	-0.218715
C69	C	-3.220399	0.556387	0.114618
C70	C	-3.943595	-0.109644	-0.679568
C71	C	-3.610261	0.223689	-0.346235
C72	C	-3.276928	0.557023	-0.012901
C73	C	-4.047051	-0.108481	-0.913038
C74	C	-3.713717	0.224853	-0.579705
C75	C	-3.380384	0.558186	-0.246372
C76	C	-3.989472	-0.109128	-0.783118
C77	C	-3.656139	0.224206	-0.449785
C78	C	-3.322805	0.557539	-0.116452
C79	C	-4.194365	0.040115	-0.345713
C80	C	-3.861031	0.373448	-0.012379
C81	C	-3.527698	0.706782	0.320954
C82	C	-4.132402	0.133225	-0.346361
C83	C	-3.799068	0.466558	-0.013027
C84	C	-3.465735	0.799892	0.320306
C85	C	-4.170253	-0.107337	-0.144119
C86	C	-3.836919	0.225997	0.189214
C87	C	-3.503586	0.559330	0.522548
C88	C	-4.092962	-0.107968	-0.016599
C89	C	-3.759629	0.225365	0.316734
C90	C	-3.426296	0.558698	0.650068
H91	H	-3.721755	-0.680412	-0.337118
H92	H	-3.388422	-0.347079	-0.003785
H93	H	-3.055088	-0.013745	0.329549
H94	H	-4.314775	-0.537214	-0.359043
H95	H	-3.981441	-0.203880	-0.025710
H96	H	-3.648108	0.129453	0.307624
F97	F	-4.435533	-0.707934	-0.359353
F98	F	-4.102200	-0.374600	-0.026019
F99	F	-3.768867	-0.041267	0.307314
F100	F	-3.601018	-0.509680	-0.336815
F101	F	-3.267684	-0.176347	-0.003482
F102	F	-2.934351	0.156986	0.329851
