data_functionalizedCrystal
_audit_creation_method	'MofGen! by Chris Wilmer'
_symmetry_space_group_name_H-M	'P1'
_symmetry_Int_Tables_number	1
_symmetry_cell_setting	triclinic
loop_
_symmetry_equiv_pos_as_xyz
  x,y,z
_cell_length_a	8.497374
_cell_length_b	12.827892
_cell_length_c	12.827893
_cell_angle_alpha	89.984638
_cell_angle_beta	89.998425
_cell_angle_gamma	90.007313
loop_
_atom_site_label
_atom_site_type_symbol
_atom_site_fract_x
_atom_site_fract_y
_atom_site_fract_z
Zn1	Zn	0.891962	-0.416215	-1.597487
Zn2	Zn	0.628170	-0.590924	-1.597435
Zn3	Zn	0.628190	-0.416197	-1.422782
Zn4	Zn	0.891902	-0.590915	-1.422714
O5	O	0.760056	-0.503563	-1.510105
O6	O	0.856986	-0.439402	-1.743716
O7	O	0.407411	-0.567742	-1.574274
O8	O	0.663214	-0.269964	-1.446008
O9	O	0.663179	-0.567760	-1.743678
O10	O	0.857006	-0.269977	-1.574363
O11	O	0.407425	-0.439372	-1.445958
O12	O	0.663156	-0.439363	-1.276537
O13	O	1.112673	-0.567744	-1.445891
O14	O	0.856904	-0.567727	-1.276487
O15	O	1.112717	-0.439393	-1.574296
O16	O	0.663121	-0.737159	-1.574207
O17	O	0.856884	-0.737152	-1.445840
C18	C	0.760028	-0.775073	-1.510039
C19	C	0.760069	-0.891226	-1.510107
C20	C	0.760026	-0.503543	-1.238595
C21	C	0.760051	-0.503559	-1.122442
C22	C	0.664296	-0.942979	-1.573702
C23	C	0.664336	-1.063030	-1.573774
C24	C	1.171537	-0.503564	-1.510097
C25	C	1.350181	-0.503575	-1.510099
C26	C	0.760087	-0.503584	-1.782675
C27	C	0.760101	-0.503593	-1.898828
C28	C	0.760119	-0.230993	-1.510199
C29	C	0.760145	-0.114839	-1.510239
C30	C	0.855776	-0.567177	-1.070659
C31	C	0.855803	-0.567195	-0.950609
H32	H	0.582336	-1.107536	-1.628217
N33	N	0.651526	-0.431436	-0.957787
H34	H	0.578357	-0.473859	-1.003060
H35	H	0.715922	-0.383121	-1.003026
H36	H	0.937752	-0.621664	-0.906078
H37	H	0.678124	-0.449103	-1.077897
N38	N	0.868755	-1.055896	-1.438107
H39	H	0.941842	-1.010554	-1.480546
H40	H	0.932593	-1.107034	-1.395729
N41	N	0.555627	-0.883962	-1.645755
H42	H	0.580208	-0.902833	-1.720435
H43	H	0.571045	-0.806586	-1.635405
N44	N	0.868716	-0.950258	-1.438052
H45	H	0.844130	-0.931389	-1.363372
H46	H	0.981435	-0.931258	-1.454274
H47	H	0.937714	-0.621625	-1.115204
