data_functionalizedCrystal
_audit_creation_method	'MofGen! by Chris Wilmer'
_symmetry_space_group_name_H-M	'P1'
_symmetry_Int_Tables_number	1
_symmetry_cell_setting	triclinic
loop_
_symmetry_equiv_pos_as_xyz
  x,y,z
_cell_length_a	14.044220
_cell_length_b	19.188930
_cell_length_c	13.101039
_cell_angle_alpha	93.345801
_cell_angle_beta	86.340132
_cell_angle_gamma	88.166830
loop_
_atom_site_label
_atom_site_type_symbol
_atom_site_fract_x
_atom_site_fract_y
_atom_site_fract_z
O1	O	1.262233	0.164759	-0.085127
O2	O	0.986290	0.158685	-0.085152
O3	O	1.132223	0.060581	-0.085119
O4	O	1.116300	0.262863	-0.085160
O5	O	1.121753	0.067633	0.085309
O6	O	0.975820	0.165737	0.085275
O7	O	1.251762	0.171810	0.085300
Zn8	Zn	1.112128	0.169893	0.112347
Zn9	Zn	1.125924	0.160602	-0.112199
O10	O	1.105829	0.269914	0.085267
C11	C	0.945752	0.159553	0.000059
C12	C	0.840559	0.151623	0.000050
C13	C	0.647957	0.137129	0.000073
C14	C	0.590091	0.193363	0.000066
C15	C	0.482920	0.185298	0.000079
C16	C	0.755137	0.145193	0.000060
C17	C	1.126472	0.038063	0.000098
C18	C	1.124923	-0.039541	0.000106
C19	C	1.210553	-0.078939	0.000119
C20	C	1.209099	-0.151857	0.000103
C21	C	1.122010	-0.185374	0.000094
C22	C	1.036370	-0.145968	0.000075
C23	C	1.037827	-0.073051	0.000082
N24	N	1.051878	-0.295275	0.058088
N25	N	1.050500	-0.364543	0.058084
C26	C	1.117617	-0.405067	0.000073
N27	N	1.186177	-0.373707	-0.057921
N28	N	1.187558	-0.304433	-0.057913
C29	C	1.120421	-0.264440	0.000086
C30	C	1.201676	-0.523532	0.000066
C31	C	1.200219	-0.596452	0.000043
C32	C	1.027487	-0.590560	0.000026
C33	C	1.028947	-0.517642	0.000039
C34	C	1.116043	-0.484132	0.000064
C35	C	1.292301	0.170943	0.000087
C36	C	1.397494	0.178872	0.000089
C37	C	1.111580	0.292433	0.000048
C38	C	1.113129	0.370037	0.000033
N39	N	1.102720	0.176234	0.265593
N40	N	1.135340	0.154257	-0.265445
C41	C	1.089920	0.184867	0.474633
C42	C	1.148137	0.145626	0.525522
C43	C	1.141014	0.150429	0.641839
C44	C	1.097041	0.180064	0.358306
H45	H	0.617011	0.082932	0.000090
N46	N	0.628902	0.261361	0.000060
N47	N	0.677114	0.282466	0.071890
H48	H	0.704528	0.330488	0.071885
H49	H	1.034735	0.222068	0.518417
H50	H	1.278831	-0.183941	0.000109
N51	N	1.299525	-0.044722	0.000141
N52	N	1.375975	-0.079913	0.000150
H53	H	1.438814	-0.055747	0.000164
H54	H	1.203327	0.108423	0.481732
N55	N	0.947419	-0.180213	0.000080
N56	N	0.922928	-0.217280	0.071918
H57	H	0.860104	-0.241467	0.071919
N58	N	0.950356	-0.032804	0.000053
N59	N	0.896785	-0.041934	-0.071798
H60	H	0.835007	-0.013508	-0.071819
N61	N	1.290646	-0.489308	0.000094
N62	N	1.367098	-0.524497	0.000099
H63	H	1.429935	-0.500329	0.000120
N64	N	1.287702	-0.636688	0.000042
N65	N	1.365454	-0.606756	0.000060
H66	H	1.427242	-0.635173	0.000058
N67	N	0.938535	-0.624799	0.000006
N68	N	0.937245	-0.689903	-0.000006
H69	H	0.874421	-0.714088	-0.000024
N70	N	0.941468	-0.477404	0.000030
N71	N	0.863715	-0.507336	0.000018
H72	H	0.801929	-0.478919	0.000008
