data_functionalizedCrystal
_audit_creation_method	'MofGen! by Chris Wilmer'
_symmetry_space_group_name_H-M	'P1'
_symmetry_Int_Tables_number	1
_symmetry_cell_setting	triclinic
loop_
_symmetry_equiv_pos_as_xyz
  x,y,z
_cell_length_a	10.540514
_cell_length_b	16.974885
_cell_length_c	15.455313
_cell_angle_alpha	96.310633
_cell_angle_beta	87.291564
_cell_angle_gamma	83.954385
loop_
_atom_site_label
_atom_site_type_symbol
_atom_site_fract_x
_atom_site_fract_y
_atom_site_fract_z
O1	O	1.689075	0.108265	-0.064545
O2	O	1.319429	0.118820	-0.063804
O3	O	1.515181	-0.001886	-0.072268
O4	O	1.493323	0.228971	-0.056081
O5	O	1.503987	0.004988	0.072476
O6	O	1.308235	0.125694	0.080940
O7	O	1.677881	0.115139	0.080199
Cu8	Cu	1.492036	0.121044	0.093786
Cu9	Cu	1.505274	0.112915	-0.077391
O10	O	1.482129	0.235845	0.088663
C11	C	1.266546	0.121470	0.008513
C12	C	1.125647	0.119114	0.008348
C13	C	1.053071	0.205442	0.014399
C14	C	0.906536	0.203005	0.013897
C15	C	0.940706	0.068247	-0.077444
C16	C	1.087185	0.071277	-0.077296
C17	C	1.074886	0.077817	0.087221
C18	C	0.927841	0.077035	0.088242
C19	C	1.508960	-0.028010	-0.001971
C20	C	1.507087	-0.116092	-0.008152
C21	C	1.730765	0.112489	0.007880
C22	C	1.871664	0.114845	0.008039
C23	C	1.500102	-0.153734	0.067840
C24	C	1.498351	-0.236498	0.062024
C25	C	1.503575	-0.281618	-0.019785
C26	C	1.510564	-0.243971	-0.095783
C27	C	1.512324	-0.161209	-0.089966
C28	C	1.498973	-0.529540	-0.045642
C29	C	1.497208	-0.612307	-0.051453
C30	C	1.484998	-0.604828	0.106355
C31	C	1.486751	-0.522065	0.112164
C32	C	1.493746	-0.484426	0.036166
N33	N	1.501781	-0.366215	-0.025731
N34	N	1.495550	-0.399830	0.042114
C35	C	1.488350	0.261969	0.018364
C36	C	1.490224	0.350051	0.024539
N37	N	1.482734	0.126761	0.214182
N38	N	1.514586	0.107192	-0.197788
C39	C	1.565925	0.075500	0.255982
C40	C	1.558903	0.079831	0.347093
C41	C	1.468694	0.135428	0.396404
C42	C	1.385495	0.186691	0.354598
C43	C	1.392512	0.182355	0.263488
C44	C	1.438404	0.154120	0.669296
C45	C	1.431395	0.158453	0.760413
C46	C	1.604802	0.051592	0.752901
C47	C	1.611817	0.047264	0.661790
C48	C	1.528613	0.098525	0.619992
N49	N	1.461516	0.139858	0.489535
N50	N	1.535786	0.094090	0.526862
H51	H	0.902231	0.094576	-0.137017
O52	O	1.343581	0.212373	0.808274
C53	C	1.219746	0.197668	0.785067
H54	H	1.221528	0.132957	0.755568
H55	H	1.186198	0.238904	0.735258
C56	C	1.125196	0.292793	0.903082
C57	C	1.127383	0.213312	0.866857
H58	H	1.068219	0.302446	0.953532
H59	H	1.208625	0.302703	0.918715
H60	H	1.097243	0.327148	0.861565
H61	H	1.155350	0.178960	0.908369
H62	H	1.043955	0.203397	0.851232
H63	H	0.868680	0.233606	-0.043240
H64	H	1.501450	-0.649041	-0.118074
O65	O	1.685562	0.001680	0.793404
C66	C	1.667176	-0.078032	0.765652
H67	H	1.623350	-0.081369	0.699493
H68	H	1.600215	-0.100499	0.815194
C69	C	1.850578	-0.126152	0.839043
C70	C	1.796759	-0.130251	0.757781
H71	H	1.930509	-0.158364	0.834192
H72	H	1.862963	-0.072448	0.857743
H73	H	1.794764	-0.144873	0.880320
H74	H	1.852565	-0.111521	0.716510
H75	H	1.784387	-0.183953	0.739074
H76	H	0.904645	0.013012	0.088963
H77	H	1.312038	0.231956	0.394752
H78	H	1.076278	0.243270	0.076001
H79	H	0.858573	0.239382	0.075369
H80	H	1.518013	-0.130563	-0.151847
O81	O	1.125867	0.104831	-0.148597
C82	C	1.215528	0.050157	-0.200992
H83	H	1.202188	-0.013076	-0.186906
H84	H	1.316376	0.063513	-0.185731
C85	C	1.211639	0.135475	-0.315167
C86	C	1.195248	0.057810	-0.297872
H87	H	1.199135	0.140197	-0.374928
H88	H	1.151237	0.172312	-0.279867
H89	H	1.295680	0.146595	-0.302444
H90	H	1.111204	0.046695	-0.310585
H91	H	1.255636	0.020972	-0.333177
H92	H	1.495827	-0.117001	0.134458
H93	H	1.100921	0.109524	0.151781
H94	H	1.136837	0.007697	-0.085265
O95	O	1.132992	0.001929	0.082743
C96	C	1.219064	-0.013837	0.008692
H97	H	1.248143	0.044753	-0.011152
H98	H	1.171072	-0.046056	-0.047308
C99	C	1.302915	-0.138643	0.054631
C100	C	1.338640	-0.066682	0.030262
H101	H	1.376673	-0.171244	0.067933
H102	H	1.244924	-0.128024	0.104519
H103	H	1.262920	-0.165483	0.007959
H104	H	1.378619	-0.039840	0.076937
H105	H	1.396640	-0.077298	-0.019618
O106	O	1.311645	0.232235	0.223021
C107	C	1.230499	0.282224	0.286078
H108	H	1.277530	0.286523	0.351101
H109	H	1.135651	0.256361	0.293942
C110	C	1.148690	0.360677	0.176638
C111	C	1.206459	0.365963	0.256499
H112	H	1.133855	0.412330	0.158392
H113	H	1.203356	0.326997	0.134155
H114	H	1.069656	0.339122	0.183202
H115	H	1.285498	0.387508	0.249931
H116	H	1.151806	0.399648	0.298980
O117	O	1.491501	-0.272932	0.135930
C118	C	1.487291	-0.215363	0.209382
H119	H	1.450150	-0.154405	0.190609
H120	H	1.587426	-0.213160	0.233723
C121	C	1.443213	-0.312665	0.305157
C122	C	1.397585	-0.237797	0.282101
H123	H	1.387884	-0.326505	0.350015
H124	H	1.446054	-0.351452	0.255671
H125	H	1.526659	-0.310820	0.325435
H126	H	1.314148	-0.239646	0.261813
H127	H	1.394728	-0.199011	0.331585
O128	O	0.872335	0.117762	0.163578
C129	C	0.783138	0.180206	0.143903
H130	H	0.750898	0.165697	0.075147
H131	H	0.829490	0.238124	0.148055
C132	C	0.706237	0.207598	0.294126
C133	C	0.666631	0.189774	0.209682
H134	H	0.634372	0.213503	0.334703
H135	H	0.766333	0.165530	0.307383
H136	H	0.744864	0.255861	0.297574
H137	H	0.628020	0.141506	0.206232
H138	H	0.606525	0.231834	0.196425
O139	O	1.481766	-0.478364	0.191703
C140	C	1.475212	-0.529335	0.257530
H141	H	1.515898	-0.592488	0.230030
H142	H	1.371329	-0.529222	0.281742
C143	C	1.503452	-0.422289	0.367654
C144	C	1.553433	-0.499854	0.333880
H145	H	1.551697	-0.404102	0.414753
H146	H	1.507862	-0.387947	0.323306
H147	H	1.416883	-0.422205	0.387824
H148	H	1.639994	-0.499935	0.313701
H149	H	1.549039	-0.534194	0.378227
H150	H	1.479304	-0.635483	0.168228
H151	H	1.504667	-0.498905	-0.107525
H152	H	1.514826	-0.280715	-0.162393
H153	H	1.639388	0.030231	0.215839
O154	O	1.357480	0.203808	0.628650
C155	C	1.283556	0.158356	0.572935
H156	H	1.279732	0.097085	0.596011
H157	H	1.328633	0.151147	0.503605
C158	C	1.151774	0.276464	0.546214
C159	C	1.147068	0.201213	0.574561
H160	H	1.067583	0.302901	0.547213
H161	H	1.201580	0.307087	0.583748
H162	H	1.189344	0.270447	0.488441
H163	H	1.109514	0.207232	0.632336
H164	H	1.097252	0.170592	0.537037
H165	H	1.626642	0.038090	0.381126
O166	O	1.699004	-0.007089	0.613968
C167	C	1.634949	-0.058911	0.558121
H168	H	1.536715	-0.028277	0.546490
H169	H	1.623412	-0.115667	0.589483
C170	C	1.833915	-0.117855	0.484748
C171	C	1.713267	-0.080228	0.470457
H172	H	1.882227	-0.131008	0.430673
H173	H	1.877071	-0.082944	0.522375
H174	H	1.824283	-0.165147	0.510885
H175	H	1.722900	-0.032932	0.444330
H176	H	1.670114	-0.115131	0.432823
H177	H	1.087119	0.237144	-0.042249
H178	H	0.920014	0.003350	-0.084819
