data_functionalizedCrystal
_audit_creation_method	'MofGen! by Chris Wilmer'
_symmetry_space_group_name_H-M	'P1'
_symmetry_Int_Tables_number	1
_symmetry_cell_setting	triclinic
loop_
_symmetry_equiv_pos_as_xyz
  x,y,z
_cell_length_a	19.805407
_cell_length_b	12.594516
_cell_length_c	19.805399
_cell_angle_alpha	90.021665
_cell_angle_beta	90.020409
_cell_angle_gamma	90.020113
loop_
_atom_site_label
_atom_site_type_symbol
_atom_site_fract_x
_atom_site_fract_y
_atom_site_fract_z
Zn1	Zn	1.034774	-0.423712	0.382763
Zn2	Zn	1.534774	0.076288	0.882763
Zn3	Zn	1.034706	-0.601705	0.269586
Zn4	Zn	1.534706	-0.101705	0.769586
Zn5	Zn	0.921589	-0.423747	0.269586
Zn6	Zn	1.421589	0.076253	0.769586
Zn7	Zn	0.921569	-0.601655	0.382731
Zn8	Zn	1.421569	-0.101655	0.882731
O9	O	0.978159	-0.512705	0.326166
O10	O	1.478159	-0.012705	0.826166
O11	O	1.129482	-0.447329	0.367763
O12	O	1.629482	0.052671	0.867763
O13	O	1.019680	-0.578135	0.174869
O14	O	1.519680	-0.078135	0.674869
O15	O	0.936641	-0.274797	0.284612
O16	O	1.436641	0.225203	0.784612
O17	O	1.129431	-0.578100	0.284613
O18	O	1.629431	-0.078100	0.784613
O19	O	1.019797	-0.274771	0.367762
O20	O	1.519797	0.225229	0.867762
O21	O	0.936574	-0.447390	0.174869
O22	O	1.436574	0.052610	0.674869
O23	O	0.826870	-0.447341	0.284581
O24	O	1.326870	0.052659	0.784581
O25	O	0.936606	-0.578014	0.477452
O26	O	1.436606	-0.078014	0.977452
O27	O	0.826855	-0.578048	0.367709
O28	O	1.326855	-0.078048	0.867709
O29	O	1.019778	-0.447280	0.477475
O30	O	1.519778	0.052720	0.977475
O31	O	1.019660	-0.750644	0.284582
O32	O	1.519660	-0.250644	0.784582
O33	O	0.936539	-0.750607	0.367709
O34	O	1.436539	-0.250607	0.867709
C35	C	0.802303	-0.512694	0.326142
C36	C	1.302303	-0.012694	0.826142
C37	C	0.727071	-0.512715	0.326147
C38	C	1.227071	-0.012715	0.826147
C39	C	0.265310	-0.444739	0.369555
C40	C	0.765310	0.055261	0.869555
C41	C	0.335999	-0.444741	0.369550
C42	C	0.835999	0.055259	0.869550
C43	C	0.371310	-0.512721	0.326188
C44	C	0.871310	-0.012721	0.826188
C45	C	0.335929	-0.580710	0.282833
C46	C	0.835929	-0.080710	0.782833
C47	C	0.265242	-0.580713	0.282842
C48	C	0.765242	-0.080713	0.782842
C49	C	0.621002	-0.580702	0.282797
C50	C	1.121002	-0.080702	0.782797
C51	C	0.691694	-0.580692	0.282790
C52	C	1.191694	-0.080692	0.782790
C53	C	0.691759	-0.444731	0.369506
C54	C	1.191759	0.055269	0.869506
C55	C	0.621072	-0.444733	0.369514
C56	C	1.121072	0.055267	0.869514
C57	C	0.585697	-0.512726	0.326162
C58	C	1.085697	-0.012726	0.826162
C59	C	0.509049	-0.512725	0.326169
C60	C	1.009049	-0.012725	0.826169
C61	C	0.447957	-0.512718	0.326178
C62	C	0.947957	-0.012718	0.826178
C63	C	0.978109	-0.789246	0.326157
C64	C	1.478109	-0.289246	0.826157
C65	C	0.978149	-0.907551	0.326176
C66	C	1.478149	-0.407551	0.826176
C67	C	0.932976	-1.047586	0.371366
C68	C	1.432976	-0.547586	0.871366
C69	C	0.994681	-0.976674	0.387974
C70	C	1.494681	-0.476674	0.887974
C71	C	0.916450	-0.976891	0.309598
C72	C	1.416450	-0.476891	0.809598
C73	C	1.039997	-1.047424	0.342841
C74	C	1.539997	-0.547424	0.842841
C75	C	0.961724	-1.047648	0.264436
C76	C	1.461724	-0.547648	0.764436
C77	C	1.023472	-0.976768	0.281021
C78	C	1.523472	-0.476768	0.781021
C79	C	1.154702	-0.512716	0.326191
C80	C	1.654702	-0.012716	0.826191
C81	C	1.229934	-0.512721	0.326202
C82	C	1.729934	-0.012721	0.826202
C83	C	0.978197	-0.512638	0.502709
C84	C	1.478197	-0.012638	1.002709
C85	C	0.978214	-0.512609	0.577941
C86	C	1.478214	-0.012609	1.077941
C87	C	0.978229	-0.235084	0.326190
C88	C	1.478229	0.264916	0.826190
C89	C	0.978259	-0.116778	0.326201
C90	C	1.478259	0.383222	0.826201
C91	C	0.978161	-0.512695	0.150310
C92	C	1.478161	-0.012695	0.650310
C93	C	0.978276	-0.512423	0.075079
C94	C	1.478276	-0.012423	0.575079
C95	C	1.021522	-0.444532	0.613298
C96	C	1.521522	0.055468	1.113298
C97	C	1.021529	-0.444502	0.683987
C98	C	1.521529	0.055498	1.183987
C99	C	0.978230	-0.512553	0.719317
C100	C	1.478230	-0.012553	1.219317
C101	C	0.934917	-0.580633	0.683955
C102	C	1.434917	-0.080633	1.183955
C103	C	0.934907	-0.580658	0.613267
C104	C	1.434907	-0.080658	1.113267
C105	C	0.934955	-0.580534	0.969028
C106	C	1.434955	-0.080534	1.469028
C107	C	0.934970	-0.580506	1.039720
C108	C	1.434970	-0.080506	1.539720
C109	C	1.021577	-0.444378	1.039748
C110	C	1.521577	0.055622	1.539748
C111	C	1.021567	-0.444402	0.969060
C112	C	1.521567	0.055598	1.469060
C113	C	0.978252	-0.512477	0.933704
C114	C	1.478252	-0.012477	1.433704
C115	C	0.978244	-0.512509	0.857056
C116	C	1.478244	-0.012509	1.357056
C117	C	0.978241	-0.512528	0.795964
C118	C	1.478241	-0.012528	1.295964
H119	H	0.720442	-0.636054	0.247478
H120	H	1.220442	-0.136054	0.747478
H121	H	0.236439	-0.636073	0.247540
H122	H	0.736439	-0.136073	0.747540
Br123	Br	0.739772	-0.352455	0.428344
Br124	Br	1.239772	0.147545	0.928344
Br125	Br	1.017923	-0.924719	0.475013
Br126	Br	1.517923	-0.424719	0.975013
Br127	Br	0.573002	-0.672946	0.223941
Br128	Br	1.073002	-0.172946	0.723941
Br129	Br	0.383850	-0.672977	0.223988
Br130	Br	0.883850	-0.172977	0.723988
H131	H	1.092237	-1.078280	0.356934
H132	H	1.592237	-0.578280	0.856934
Br133	Br	0.384007	-0.352485	0.428395
Br134	Br	0.884007	0.147515	0.928395
H135	H	0.894776	-1.078677	0.409600
H136	H	1.394776	-0.578677	0.909600
Br137	Br	0.573153	-0.352468	0.428362
Br138	Br	1.073153	0.147532	0.928362
Br139	Br	1.087289	-0.925264	0.217341
Br140	Br	1.587289	-0.425264	0.717341
Br141	Br	1.080363	-0.351986	1.087734
Br142	Br	1.580363	0.148014	1.587734
Br143	Br	0.876125	-0.673044	0.565281
Br144	Br	1.376125	-0.173044	1.065281
H145	H	0.947763	-1.078845	0.212229
H146	H	1.447763	-0.578845	0.712229
Br147	Br	0.217395	-0.352468	0.428402
Br148	Br	0.717395	0.147532	0.928402
Br149	Br	0.829407	-0.925239	0.286209
Br150	Br	1.329407	-0.425239	0.786209
H151	H	1.056783	-0.389120	0.584538
H152	H	1.556783	0.110880	1.084538
H153	H	1.056797	-0.389069	0.712772
H154	H	1.556797	0.110931	1.212772
Br155	Br	1.080335	-0.352049	0.921116
Br156	Br	1.580335	0.147951	1.421116
Br157	Br	0.876205	-0.672870	1.087668
Br158	Br	1.376205	-0.172870	1.587668
H159	H	0.899695	-0.635980	0.940250
H160	H	1.399695	-0.135980	1.440250
Br161	Br	0.876150	-0.672984	0.731901
Br162	Br	1.376150	-0.172984	1.231901
