data_functionalizedCrystal
_audit_creation_method	'MofGen! by Chris Wilmer'
_symmetry_space_group_name_H-M	'P1'
_symmetry_Int_Tables_number	1
_symmetry_cell_setting	triclinic
loop_
_symmetry_equiv_pos_as_xyz
  x,y,z
_cell_length_a	6.817900
_cell_length_b	11.353959
_cell_length_c	14.858340
_cell_angle_alpha	104.867154
_cell_angle_beta	104.519754
_cell_angle_gamma	107.526623
loop_
_atom_site_label
_atom_site_type_symbol
_atom_site_fract_x
_atom_site_fract_y
_atom_site_fract_z
V1	V	-4.080000	-0.181823	-0.319402
O2	O	-4.023761	0.007879	-0.283165
O3	O	-4.072256	-0.359699	-0.346222
O4	O	-4.036065	-0.179403	-0.445472
O5	O	-4.060203	-0.173665	-0.183228
V6	V	-4.557781	-0.159088	-0.299591
O7	O	-4.353853	-0.231694	-0.362860
O8	O	-4.734124	-0.109217	-0.256134
O9	O	-4.342317	0.018788	-0.272772
O10	O	-4.731416	-0.348790	-0.335829
O11	O	-4.694974	-0.167246	-0.435766
O12	O	-4.378509	-0.161508	-0.173522
C13	C	-3.927003	-0.403049	-0.348668
C14	C	-4.001989	-0.548467	-0.371436
C15	C	-3.989831	-0.595314	-0.297739
C16	C	-4.067332	-0.745611	-0.321270
C17	C	-3.880836	-0.173062	-0.475269
C18	C	-3.926468	-0.172260	-0.578523
C19	C	-3.963523	-0.171608	-0.662376
C20	C	-4.010024	-0.170784	-0.767571
C21	C	-4.047102	-0.170127	-0.851417
C22	C	-4.093608	-0.169305	-0.956620
C23	C	-4.150914	0.062131	-0.270325
C24	C	-4.055167	0.207548	-0.247562
C25	C	-4.197080	-0.167853	-0.143720
C26	C	-4.130686	-0.168648	-0.040465
H27	H	-3.987390	-0.721295	-0.167041
H28	H	-4.069780	-0.619629	-0.451952
C29	C	-4.158901	-0.841729	-0.430051
C30	C	-4.013748	-0.832329	-0.494488
C31	C	-4.105316	-0.928448	-0.603266
C32	C	-4.342037	-1.033967	-0.647607
C33	C	-4.487205	-1.043371	-0.583169
C34	C	-4.395637	-0.947252	-0.474391
H35	H	-3.838499	-0.754215	-0.461665
H36	H	-3.997852	-0.921486	-0.650968
H37	H	-4.409822	-1.105120	-0.728131
H38	H	-4.662454	-1.121486	-0.615992
H39	H	-4.503101	-0.954214	-0.426690
H40	H	-3.922059	-0.524152	-0.217224
