data_functionalizedCrystal
_audit_creation_method	'MofGen! by Chris Wilmer'
_symmetry_space_group_name_H-M	'P1'
_symmetry_Int_Tables_number	1
_symmetry_cell_setting	triclinic
loop_
_symmetry_equiv_pos_as_xyz
  x,y,z
_cell_length_a	19.188928
_cell_length_b	19.288865
_cell_length_c	18.366186
_cell_angle_alpha	89.988521
_cell_angle_beta	90.025748
_cell_angle_gamma	96.859972
loop_
_atom_site_label
_atom_site_type_symbol
_atom_site_fract_x
_atom_site_fract_y
_atom_site_fract_z
O1	O	-0.926144	0.086710	-0.060840
O2	O	-0.426144	0.586710	0.439160
O3	O	-0.722831	0.098385	-0.060780
O4	O	-0.222831	0.598385	0.439220
O5	O	-0.830362	-0.008582	-0.060797
O6	O	-0.330362	0.491418	0.439203
O7	O	-0.818613	0.193677	-0.060823
O8	O	-0.318613	0.693677	0.439177
O9	O	-0.830344	-0.008588	0.060302
O10	O	-0.330344	0.491412	0.560302
O11	O	-0.722813	0.098380	0.060319
O12	O	-0.222813	0.598380	0.560319
O13	O	-0.926126	0.086705	0.060260
O14	O	-0.426126	0.586705	0.560260
Zn15	Zn	-0.824467	0.092542	0.079517
Zn16	Zn	-0.324467	0.592542	0.579517
Zn17	Zn	-0.824491	0.092548	-0.080037
Zn18	Zn	-0.324491	0.592548	0.419963
O19	O	-0.818595	0.193672	0.060277
O20	O	-0.318595	0.693672	0.560277
C21	C	-0.696811	0.098005	-0.000223
C22	C	-0.196811	0.598005	0.499777
C23	C	-0.619307	0.096871	-0.000200
C24	C	-0.119307	0.596871	0.499800
C25	C	-0.574378	0.159636	-0.000217
C26	C	-0.074378	0.659636	0.499783
C27	C	-0.501554	0.158570	-0.000221
C28	C	-0.001554	0.658570	0.499779
C29	C	-0.473662	0.094736	-0.000223
C30	C	0.026338	0.594736	0.499777
C31	C	-0.518601	0.031963	-0.000201
C32	C	-0.018601	0.531963	0.499799
C33	C	-0.591423	0.033030	-0.000190
C34	C	-0.091423	0.533030	0.499810
N35	N	-0.365692	0.045945	-0.041455
N36	N	0.134308	0.545945	0.458545
N37	N	-0.296513	0.044936	-0.041468
N38	N	0.203487	0.544936	0.458532
C39	C	-0.254254	0.091517	-0.000255
C40	C	0.245746	0.591517	0.499745
N41	N	-0.283785	0.139156	0.040961
N42	N	0.216215	0.639156	0.540961
N43	N	-0.352970	0.140167	0.040970
N44	N	0.147030	0.640167	0.540970
C45	C	-0.394700	0.093572	-0.000234
C46	C	0.105300	0.593572	0.499766
C47	C	-0.130361	0.153130	-0.000276
C48	C	0.369639	0.653130	0.499724
C49	C	-0.057536	0.152062	-0.000276
C50	C	0.442464	0.652062	0.499724
C51	C	-0.074584	0.025453	-0.000263
C52	C	0.425416	0.525453	0.499737
C53	C	-0.147407	0.026523	-0.000256
C54	C	0.352593	0.526523	0.499744
C55	C	-0.175291	0.090364	-0.000266
C56	C	0.324709	0.590364	0.499734
C57	C	-0.829975	-0.034461	-0.000245
C58	C	-0.329975	0.465539	0.499755
C59	C	-0.828840	-0.111565	-0.000239
C60	C	-0.328840	0.388435	0.499761
C61	C	-0.891935	-0.156257	-0.000253
C62	C	-0.391935	0.343743	0.499747
C63	C	-0.890868	-0.228704	-0.000265
C64	C	-0.390868	0.271296	0.499735
C65	C	-0.826704	-0.256456	-0.000246
C66	C	-0.326704	0.243544	0.499754
C67	C	-0.763602	-0.211754	-0.000236
C68	C	-0.263602	0.288246	0.499764
C69	C	-0.764670	-0.139309	-0.000232
C70	C	-0.264670	0.360691	0.499768
C71	C	-0.776258	-0.364749	0.042187
C72	C	-0.276258	0.135251	0.542187
C73	C	-0.775192	-0.437193	0.042187
C74	C	-0.275192	0.062807	0.542187
C75	C	-0.823408	-0.479902	-0.000262
C76	C	-0.323408	0.020098	0.499738
C77	C	-0.872700	-0.450159	-0.042702
C78	C	-0.372700	0.049841	0.457298
C79	C	-0.873768	-0.377713	-0.042698
C80	C	-0.373768	0.122287	0.457302
C81	C	-0.825539	-0.335010	-0.000251
C82	C	-0.325539	0.164990	0.499749
C83	C	-0.885350	-0.603150	-0.000290
C84	C	-0.385350	-0.103150	0.499710
C85	C	-0.884281	-0.675598	-0.000305
C86	C	-0.384281	-0.175598	0.499695
C87	C	-0.757013	-0.658646	-0.000269
C88	C	-0.257013	-0.158646	0.499731
C89	C	-0.758084	-0.586200	-0.000261
C90	C	-0.258084	-0.086200	0.499739
C91	C	-0.822254	-0.558456	-0.000268
C92	C	-0.322254	-0.058456	0.499732
C93	C	0.047855	0.087087	-0.000286
C94	C	0.547855	0.587087	0.499714
C95	C	-0.029649	0.088228	-0.000276
C96	C	0.470351	0.588228	0.499724
C97	C	-0.818982	0.219551	-0.000277
C98	C	-0.318982	0.719551	0.499723
C99	C	-0.820117	0.296655	-0.000288
C100	C	-0.320117	0.796655	0.499712
N101	N	-0.824455	0.092536	0.188408
N102	N	-0.324455	0.592536	0.688408
N103	N	-0.824507	0.092548	-0.188928
N104	N	-0.324507	0.592548	0.311072
C105	C	-0.872085	0.045194	0.226501
C106	C	-0.372085	0.545194	0.726501
C107	C	-0.872090	0.045191	0.302728
C108	C	-0.372090	0.545191	0.802728
C109	C	-0.824471	0.092542	0.340860
C110	C	-0.324471	0.592542	0.840860
C111	C	-0.776832	0.139888	0.302758
C112	C	-0.276832	0.639888	0.802758
C113	C	-0.776824	0.139885	0.226532
C114	C	-0.276824	0.639885	0.726532
C115	C	-0.815124	0.155829	0.461614
C116	C	-0.315124	0.655829	0.961614
C117	C	-0.815137	0.155833	0.537839
C118	C	-0.315137	0.655833	1.037839
C119	C	-0.824491	0.092551	0.575968
C120	C	-0.324491	0.592551	1.075968
C121	C	-0.833847	0.029262	0.537862
C122	C	-0.333847	0.529262	1.037862
C123	C	-0.833839	0.029259	0.461636
C124	C	-0.333839	0.529259	0.961636
C125	C	-0.824474	0.092550	0.423515
C126	C	-0.324474	0.592550	0.923515
C127	C	-0.872128	0.045201	0.696716
C128	C	-0.372128	0.545201	1.196716
C129	C	-0.872128	0.045197	0.772945
C130	C	-0.372128	0.545197	1.272945
C131	C	-0.776873	0.139900	0.772973
C132	C	-0.276873	0.639900	1.272973
C133	C	-0.776870	0.139898	0.696746
C134	C	-0.276870	0.639898	1.196746
C135	C	-0.824501	0.092549	0.658621
C136	C	-0.324501	0.592549	1.158621
H137	H	-0.944187	-0.133674	-0.000261
H138	H	-0.444187	0.366326	0.499739
Br139	Br	-0.940659	-0.337348	-0.100296
Br140	Br	-0.440659	0.162652	0.399704
Br141	Br	-0.802448	0.241723	0.589547
Br142	Br	-0.302448	0.741723	1.089547
H143	H	-0.597076	0.211619	-0.000226
H144	H	-0.097076	0.711619	0.499774
H145	H	-0.713289	-0.102919	-0.000219
H146	H	-0.213289	0.397081	0.499781
Br147	Br	-0.036739	-0.061180	-0.000253
Br148	Br	0.463261	0.438820	0.499747
Br149	Br	-0.936724	-0.019065	0.174760
Br150	Br	-0.436724	0.480935	0.674760
H151	H	-0.911962	-0.484931	-0.077269
H152	H	-0.411962	0.015069	0.422731
H153	H	-0.464966	0.209682	-0.000233
H154	H	0.035034	0.709682	0.499767
H155	H	-0.910911	0.006645	0.665674
H156	H	-0.410911	0.506645	1.165674
Br157	Br	-0.936736	-0.019065	0.354435
Br158	Br	-0.436736	0.480935	0.854435
Br159	Br	-0.652402	-0.052158	-0.000165
Br160	Br	-0.152402	0.447842	0.499835
H161	H	-0.841455	-0.022273	0.430613
H162	H	-0.341455	0.477727	0.930613
Br163	Br	-0.802499	0.241722	0.409876
Br164	Br	-0.302499	0.741722	0.909876
H165	H	-0.153065	0.205113	-0.000273
H166	H	0.346935	0.705113	0.499727
H167	H	-0.020955	0.203175	-0.000285
H168	H	0.479045	0.703175	0.499715
Br169	Br	-0.712177	0.204139	0.174830
Br170	Br	-0.212177	0.704139	0.674830
Br171	Br	-0.672451	-0.525542	-0.000240
Br172	Br	-0.172451	-0.025542	0.499760
H173	H	-0.735052	-0.461404	0.076741
H174	H	-0.235052	0.038596	0.576741
H175	H	-0.937602	-0.580560	-0.000299
H176	H	-0.437602	-0.080560	0.499701
H177	H	-0.183990	-0.024587	-0.000246
H178	H	0.316010	0.475413	0.499754
Br179	Br	-0.969917	-0.736255	-0.000333
Br180	Br	-0.469917	-0.236255	0.499667
H181	H	-0.736993	-0.329980	0.076758
H182	H	-0.236993	0.170020	0.576758
H183	H	-0.942249	-0.265100	-0.000280
H184	H	-0.442249	0.234900	0.499720
H185	H	-0.841463	-0.022269	0.568905
H186	H	-0.341463	0.477731	1.068905
Br187	Br	-0.669931	-0.696301	-0.000252
Br188	Br	-0.169931	-0.196301	0.499748
H189	H	-0.711359	-0.234354	-0.000222
H190	H	-0.211359	0.265646	0.499778
Br191	Br	-0.936768	-0.019063	0.824647
Br192	Br	-0.436768	0.480937	1.324647
Br193	Br	-0.712200	0.204146	0.354506
Br194	Br	-0.212200	0.704146	0.854506
H195	H	-0.738098	0.178451	0.804020
H196	H	-0.238098	0.678451	1.304020
H197	H	-0.495887	-0.020011	-0.000212
H198	H	0.004113	0.479989	0.499788
Br199	Br	-0.712228	0.204153	0.645042
Br200	Br	-0.212228	0.704153	1.145042
