data_functionalizedCrystal
_audit_creation_method	'MofGen! by Chris Wilmer'
_symmetry_space_group_name_H-M	'P1'
_symmetry_Int_Tables_number	1
_symmetry_cell_setting	triclinic
loop_
_symmetry_equiv_pos_as_xyz
  x,y,z
_cell_length_a	15.944545
_cell_length_b	15.944551
_cell_length_c	15.021413
_cell_angle_alpha	89.996935
_cell_angle_beta	90.004532
_cell_angle_gamma	83.497455
loop_
_atom_site_label
_atom_site_type_symbol
_atom_site_fract_x
_atom_site_fract_y
_atom_site_fract_z
O1	O	1.114532	0.108296	0.073976
O2	O	0.869982	0.121657	0.073991
O3	O	0.998935	-0.007298	0.073975
O4	O	0.985579	0.237252	0.073992
O5	O	0.998915	-0.007280	-0.074089
O6	O	0.869961	0.121676	-0.074073
O7	O	1.114512	0.108314	-0.074088
Zn8	Zn	0.992233	0.114998	-0.097589
Zn9	Zn	0.992260	0.114974	0.097492
O10	O	0.985558	0.237270	-0.074072
C11	C	0.838677	0.121113	-0.000039
C12	C	0.745431	0.119453	-0.000034
C13	C	0.474798	0.034559	-0.000049
C14	C	0.525370	0.075497	-0.073052
C15	C	0.409787	0.113532	-0.000050
C16	C	0.525371	0.075500	0.072928
C17	C	0.574701	0.116437	-0.000040
C18	C	0.459131	0.154449	-0.073113
C19	C	0.459128	0.154440	0.072933
C20	C	0.509667	0.195436	-0.000088
C21	C	0.314785	0.111856	-0.000056
C22	C	0.669700	0.118119	-0.000041
C23	C	0.998370	-0.038583	-0.000057
C24	C	0.996708	-0.131829	-0.000057
C25	C	0.912803	-0.346684	-0.000040
C26	C	0.951756	-0.407693	-0.073047
C27	C	0.993701	-0.302555	-0.000050
C28	C	0.951795	-0.407695	0.072933
C29	C	0.990790	-0.467468	-0.000040
C30	C	1.032675	-0.362336	-0.073118
C31	C	1.032703	-0.362331	0.072928
C32	C	1.071715	-0.423322	-0.000097
C33	C	0.995375	-0.207553	-0.000057
C34	C	0.989122	-0.562469	-0.000039
C35	C	1.145816	0.108859	-0.000056
C36	C	1.239062	0.110519	-0.000055
C37	C	0.986123	0.268555	-0.000038
C38	C	0.987785	0.361801	-0.000032
N39	N	0.992221	0.115014	-0.230727
C40	C	0.932584	0.174615	-0.470402
C41	C	1.008484	0.190920	-0.529740
C42	C	0.992242	0.114993	-0.412333
C43	C	0.916362	0.098706	-0.529737
C44	C	0.992256	0.114975	-0.587757
C45	C	1.068181	0.131336	-0.470365
C46	C	0.976009	0.039089	-0.470357
C47	C	1.051965	0.055362	-0.529668
C48	C	0.992233	0.115006	-0.311276
C49	C	0.992274	0.114961	-0.688813
N50	N	0.992279	0.114951	0.230630
H51	H	0.525159	0.263501	-0.000126
H52	H	0.917577	-0.427778	0.134659
H53	H	1.102477	0.004931	-0.555526
H54	H	1.138922	-0.456483	-0.000142
C55	C	0.957414	-0.047587	-0.435081
C56	C	0.873457	-0.081489	-0.458460
C57	C	0.854850	-0.168165	-0.423182
C58	C	0.920201	-0.220939	-0.364524
C59	C	1.004164	-0.187039	-0.341141
C60	C	1.022771	-0.100363	-0.376419
H61	H	0.825075	-0.042421	-0.501886
H62	H	0.792694	-0.193260	-0.440492
H63	H	0.906427	-0.285102	-0.338408
H64	H	1.052546	-0.226106	-0.297716
H65	H	1.084926	-0.075268	-0.359109
C66	C	0.420208	0.199484	-0.156581
C67	C	0.324201	0.206212	-0.172028
C68	C	0.285277	0.251246	-0.255495
C69	C	0.342359	0.289552	-0.323515
C70	C	0.438371	0.282825	-0.308070
C71	C	0.477296	0.237791	-0.224603
H72	H	0.281940	0.177855	-0.121673
H73	H	0.214202	0.256225	-0.266927
H74	H	0.313545	0.322888	-0.385302
H75	H	0.480632	0.311182	-0.358425
H76	H	0.548371	0.232812	-0.213171
H77	H	0.430190	0.187756	0.134658
C78	C	0.822094	-0.301678	-0.000128
C79	C	0.761902	-0.315910	-0.077466
C80	C	0.671196	-0.270903	-0.077558
C81	C	0.640682	-0.211663	-0.000312
C82	C	0.700875	-0.197428	0.077032
C83	C	0.791582	-0.242436	0.077124
H84	H	0.784489	-0.359765	-0.134653
H85	H	0.626636	-0.281441	-0.134813
H86	H	0.573536	-0.178346	-0.000381
H87	H	0.678288	-0.153573	0.134219
H88	H	0.836141	-0.231897	0.134379
C89	C	0.829667	0.080099	-0.564969
C90	C	0.749846	0.139656	-0.541577
C91	C	0.663149	0.121056	-0.576805
C92	C	0.656273	0.042899	-0.635425
C93	C	0.736097	-0.016663	-0.658820
C94	C	0.822794	0.001937	-0.623592
H95	H	0.754934	0.197517	-0.498181
H96	H	0.604058	0.165149	-0.559487
H97	H	0.592095	0.029131	-0.661503
H98	H	0.731010	-0.074524	-0.702216
H99	H	0.881885	-0.042156	-0.640910
H100	H	0.554292	0.042152	-0.134775
H101	H	0.459145	-0.033453	-0.000125
H102	H	0.554297	0.042127	0.134642
C103	C	1.027051	0.277615	-0.565006
C104	C	1.110313	0.312250	-0.540280
C105	C	1.128872	0.398944	-0.575551
C106	C	1.064169	0.451002	-0.635549
C107	C	0.980901	0.416368	-0.660279
C108	C	0.962342	0.329675	-0.625007
H109	H	1.158215	0.273713	-0.495863
H110	H	1.190513	0.424582	-0.557244
H111	H	1.077907	0.515178	-0.661659
H112	H	0.932999	0.454906	-0.704696
H113	H	0.900701	0.304036	-0.643314
C114	C	0.905523	-0.434854	-0.156421
C115	C	0.868645	-0.368081	-0.224119
C116	C	0.822405	-0.395237	-0.307488
C117	C	0.813043	-0.489167	-0.323160
C118	C	0.849922	-0.555947	-0.255460
C119	C	0.896162	-0.528790	-0.172091
H120	H	0.875574	-0.298543	-0.212520
H121	H	0.795105	-0.345802	-0.357604
H122	H	0.778814	-0.509270	-0.384875
H123	H	0.842993	-0.625485	-0.267060
H124	H	0.923462	-0.578225	-0.121975
H125	H	0.882183	0.225076	-0.444381
H126	H	1.066854	-0.342338	-0.134907
H127	H	1.066899	-0.342209	0.134648
H128	H	1.132371	0.145180	-0.444394
