data_functionalizedCrystal
_audit_creation_method	'MofGen! by Chris Wilmer'
_symmetry_space_group_name_H-M	'P1'
_symmetry_Int_Tables_number	1
_symmetry_cell_setting	triclinic
loop_
_symmetry_equiv_pos_as_xyz
  x,y,z
_cell_length_a	9.065215
_cell_length_b	19.188924
_cell_length_c	8.140239
_cell_angle_alpha	89.994791
_cell_angle_beta	89.997013
_cell_angle_gamma	84.078331
loop_
_atom_site_label
_atom_site_type_symbol
_atom_site_fract_x
_atom_site_fract_y
_atom_site_fract_z
O1	O	1.956846	0.102360	-0.136603
O2	O	1.527268	0.110759	-0.136611
O3	O	1.754459	0.004999	-0.136588
O4	O	1.729655	0.208119	-0.136627
O5	O	1.754443	0.004999	0.136639
O6	O	1.527252	0.110758	0.136616
O7	O	1.956830	0.102359	0.136624
Zn8	Zn	1.742038	0.106559	0.180000
Zn9	Zn	1.742060	0.106559	-0.179988
O10	O	1.729639	0.208118	0.136600
C11	C	1.472302	0.109952	0.000001
C12	C	1.308542	0.107540	-0.000001
C13	C	1.753649	-0.021018	0.000027
C14	C	1.751243	-0.098542	0.000032
C15	C	1.750129	-0.134949	-0.148905
C16	C	1.747847	-0.207789	-0.148917
C17	C	1.746710	-0.244221	0.000015
C18	C	1.747816	-0.207805	0.148971
C19	C	1.750082	-0.134965	0.148979
N20	N	1.827094	-0.363260	0.110863
N21	N	1.824944	-0.432455	0.110845
C22	C	1.739876	-0.463683	-0.000001
N23	N	1.657059	-0.423103	-0.110854
N24	N	1.659216	-0.353902	-0.110840
C25	C	1.744251	-0.323204	0.000023
C26	C	1.736286	-0.579073	-0.148961
C27	C	1.733995	-0.651914	-0.148968
C28	C	1.733978	-0.651928	0.148925
C29	C	1.736254	-0.579088	0.148927
C30	C	1.737415	-0.542665	-0.000020
C31	C	2.011796	0.103166	0.000007
C32	C	2.175556	0.105578	-0.000001
C33	C	1.730449	0.234136	-0.000018
C34	C	1.732855	0.311659	-0.000034
N35	N	1.742035	0.106558	0.425683
N36	N	1.742062	0.106558	0.574329
H37	H	1.751070	-0.105297	-0.270190
H38	H	1.733080	-0.681555	-0.270255
H39	H	1.750984	-0.105322	0.270265
O40	O	1.746649	-0.247072	-0.309560
H41	H	1.747843	-0.209507	-0.413129
H42	H	1.746885	-0.237472	0.270233
O43	O	1.737513	-0.539784	-0.309608
H44	H	1.739296	-0.483017	-0.284582
H45	H	1.733040	-0.681590	0.270189
O46	O	1.737493	-0.539814	0.309566
H47	H	1.736337	-0.577383	0.413130
