data_functionalizedCrystal
_audit_creation_method	'MofGen! by Chris Wilmer'
_symmetry_space_group_name_H-M	'P1'
_symmetry_Int_Tables_number	1
_symmetry_cell_setting	triclinic
loop_
_symmetry_equiv_pos_as_xyz
  x,y,z
_cell_length_a	10.654543
_cell_length_b	10.654550
_cell_length_c	9.130313
_cell_angle_alpha	89.997082
_cell_angle_beta	90.001014
_cell_angle_gamma	95.516448
loop_
_atom_site_label
_atom_site_type_symbol
_atom_site_fract_x
_atom_site_fract_y
_atom_site_fract_z
O1	O	-0.176399	1.667835	-0.121767
O2	O	0.323601	2.167835	0.378233
O3	O	-0.193205	1.302356	-0.121773
O4	O	0.306795	1.802356	0.378227
O5	O	-0.002063	1.493503	-0.121773
O6	O	0.497937	1.993503	0.378227
O7	O	-0.367542	1.476688	-0.121767
O8	O	0.132458	1.976688	0.378233
O9	O	-0.002057	1.493490	0.121825
O10	O	0.497943	1.993490	0.621825
O11	O	-0.193200	1.302343	0.121825
O12	O	0.306800	1.802343	0.621825
O13	O	-0.176394	1.667822	0.121832
O14	O	0.323606	2.167822	0.621832
Cu15	Cu	-0.184796	1.485081	0.144071
Cu16	Cu	0.315204	1.985081	0.644071
Cu17	Cu	-0.184803	1.485097	-0.144013
Cu18	Cu	0.315197	1.985097	0.355987
O19	O	-0.367537	1.476675	0.121832
O20	O	0.132463	1.976675	0.621832
C21	C	0.044738	1.492264	0.000022
C22	C	0.544738	1.992264	0.500022
C23	C	0.184182	1.488575	0.000010
C24	C	0.684182	1.988575	0.500010
C25	C	-0.177630	1.714627	0.000030
C26	C	0.322370	2.214627	0.500030
C27	C	-0.181322	1.854070	0.000023
C28	C	0.318678	2.354070	0.500023
C29	C	-0.191969	1.255552	0.000025
C30	C	0.308031	1.755552	0.500025
C31	C	-0.188277	1.116109	0.000022
C32	C	0.311723	1.616109	0.500022
C33	C	0.263668	1.601119	0.000006
C34	C	0.763668	2.101119	0.500006
C35	C	0.394689	1.597645	-0.000021
C36	C	0.894689	2.097645	0.499979
C37	C	0.366726	1.369075	-0.000034
C38	C	0.866726	1.869075	0.499966
C39	C	0.235707	1.372550	-0.000017
C40	C	0.735707	1.872550	0.499983
C41	C	0.585663	1.477921	0.000016
C42	C	1.085663	1.977921	0.500016
C43	C	0.446222	1.481627	-0.000033
C44	C	0.946222	1.981627	0.499967
N45	N	-0.184791	1.485080	0.346694
N46	N	0.315209	1.985080	0.846694
C47	C	-0.068781	1.933558	0.000016
C48	C	0.431219	2.433558	0.500016
C49	C	-0.072257	2.064579	0.000021
C50	C	0.427743	2.564579	0.500021
C51	C	-0.300827	2.036610	0.000034
C52	C	0.199173	2.536610	0.500034
C53	C	-0.297349	1.905592	0.000040
C54	C	0.202651	2.405592	0.500040
N55	N	-0.184798	1.485109	-0.346635
N56	N	0.315202	1.985109	0.153365
C57	C	-0.100189	1.569748	0.423345
C58	C	0.399811	2.069748	0.923345
C59	C	-0.100189	1.569760	0.576682
C60	C	0.399811	2.069760	1.076682
C61	C	-0.269405	1.400431	0.576702
C62	C	0.230595	1.900431	1.076702
C63	C	-0.269397	1.400414	0.423368
C64	C	0.230603	1.900414	0.923368
H65	H	0.221721	1.695594	0.000026
H66	H	0.721721	2.195594	0.500026
H67	H	-0.389000	1.840869	0.000051
H68	H	0.111000	2.340869	0.500051
F69	F	0.047526	2.149171	0.000018
F70	F	0.547526	2.649171	0.500018
H71	H	-0.338291	1.331460	0.360954
H72	H	0.161709	1.831460	0.860954
F73	F	-0.010140	1.659854	0.341749
F74	F	0.489860	2.159854	0.841749
H75	H	-0.031297	1.638704	0.639088
H76	H	0.468703	2.138704	1.139088
F77	F	0.479279	1.717430	-0.000028
F78	F	0.979279	2.217430	0.499972
H79	H	-0.338291	1.331500	0.639146
H80	H	0.161709	1.831500	1.139146
H81	H	0.408694	1.274611	-0.000053
H82	H	0.908694	1.774611	0.499947
H83	H	0.170986	1.280898	-0.000019
H84	H	0.670986	1.780898	0.499981
H85	H	0.025696	1.891613	0.000005
H86	H	0.525696	2.391613	0.500005
F87	F	-0.424305	2.091455	0.000040
F88	F	0.075695	2.591455	0.500040
