data_functionalizedCrystal
_audit_creation_method	'MofGen! by Chris Wilmer'
_symmetry_space_group_name_H-M	'P1'
_symmetry_Int_Tables_number	1
_symmetry_cell_setting	triclinic
loop_
_symmetry_equiv_pos_as_xyz
  x,y,z
_cell_length_a	16.120490
_cell_length_b	16.120531
_cell_length_c	12.759387
_cell_angle_alpha	87.139919
_cell_angle_beta	87.081216
_cell_angle_gamma	89.829344
loop_
_atom_site_label
_atom_site_type_symbol
_atom_site_fract_x
_atom_site_fract_y
_atom_site_fract_z
Zn1	Zn	1.254461	0.395621	-0.699300
Zn2	Zn	1.754461	0.895621	-0.199300
Zn3	Zn	1.247280	0.534692	-0.532020
Zn4	Zn	1.747280	1.034692	-0.032020
Zn5	Zn	1.115393	0.388594	-0.514310
Zn6	Zn	1.615393	0.888594	-0.014310
Zn7	Zn	1.108298	0.527565	-0.698331
Zn8	Zn	1.608298	1.027565	-0.198331
O9	O	1.181358	0.461618	-0.610990
O10	O	1.681358	0.961618	-0.110990
O11	O	1.369874	0.419992	-0.684927
O12	O	1.869874	0.919992	-0.184927
O13	O	1.229749	0.515354	-0.382650
O14	O	1.729749	1.015354	0.117350
O15	O	1.139815	0.273165	-0.531843
O16	O	1.639815	0.773165	-0.031843
O17	O	1.364598	0.522167	-0.562027
O18	O	1.864598	1.022167	-0.062027
O19	O	1.241988	0.278327	-0.667754
O20	O	1.741988	0.778327	-0.167754
O21	O	1.132852	0.408016	-0.369638
O22	O	1.632852	0.908016	0.130362
O23	O	0.998086	0.401106	-0.530904
O24	O	1.498086	0.901106	-0.030904
O25	O	1.127723	0.510020	-0.845481
O26	O	1.627723	1.010020	-0.345481
O27	O	0.992874	0.503207	-0.666103
O28	O	1.492874	1.003207	-0.166103
O29	O	1.235108	0.413081	-0.846192
O30	O	1.735108	0.913081	-0.346192
O31	O	1.222869	0.650108	-0.561088
O32	O	1.722869	1.150108	-0.061088
O33	O	1.120759	0.644872	-0.683276
O34	O	1.620759	1.144872	-0.183276
C35	C	0.965308	0.450621	-0.596477
C36	C	1.465308	0.950621	-0.096477
C37	C	0.872879	0.445937	-0.590295
C38	C	1.372879	0.945937	-0.090295
C39	C	0.659907	0.485911	-0.643062
C40	C	1.159907	0.985911	-0.143062
C41	C	0.703656	0.437392	-0.579006
C42	C	1.203656	0.937392	-0.079006
C43	C	0.797821	0.442148	-0.585289
C44	C	1.297821	0.942148	-0.085289
C45	C	0.565734	0.481156	-0.636780
C46	C	1.065734	0.981156	-0.136780
C47	C	1.170288	0.677662	-0.624023
C48	C	1.670288	1.177662	-0.124023
C49	C	1.165628	0.770091	-0.629639
C50	C	1.665628	1.270091	-0.129639
C51	C	1.157125	0.939320	-0.639914
C52	C	1.657125	1.439320	-0.139914
C53	C	1.205622	0.983077	-0.582009
C54	C	1.705622	1.483077	-0.082009
C55	C	1.200891	1.077242	-0.587726
C56	C	1.700891	1.577242	-0.087726
C57	C	1.161855	0.845147	-0.634198
C58	C	1.661855	1.345147	-0.134198
C59	C	1.398252	0.472658	-0.625560
C60	C	1.898252	0.972658	-0.125560
C61	C	1.490679	0.477363	-0.631769
C62	C	1.990679	0.977363	-0.131769
C63	C	1.181425	0.461540	-0.885023
C64	C	1.681425	0.961540	-0.385023
C65	C	1.181454	0.461506	-1.001800
C66	C	1.681454	0.961506	-0.501800
C67	C	1.192465	1.244729	-0.597910
C68	C	1.692465	1.744729	-0.097910
C69	C	1.197122	1.152301	-0.592281
C70	C	1.697122	1.652301	-0.092281
C71	C	1.293281	0.360571	-1.002561
C72	C	1.793281	0.860571	-0.502561
C73	C	1.349207	0.310092	-1.057803
C74	C	1.849207	0.810092	-0.557803
C75	C	1.349229	0.310062	-1.167524
C76	C	1.849229	0.810062	-0.667524
C77	C	1.293317	0.360516	-1.222006
C78	C	1.793317	0.860516	-0.722006
C79	C	1.237391	0.410996	-1.166764
C80	C	1.737391	0.910996	-0.666764
C81	C	1.237377	0.411021	-1.057041
C82	C	1.737377	0.911021	-0.557041
C83	C	1.125561	0.511925	-1.166002
C84	C	1.625561	1.011925	-0.666002
C85	C	1.125542	0.511960	-1.056281
C86	C	1.625542	1.011960	-0.556281
C87	C	1.069649	0.562379	-1.220484
C88	C	1.569649	1.062379	-0.720484
C89	C	1.013725	0.612864	-1.165243
C90	C	1.513725	1.112864	-0.665243
C91	C	1.013706	0.612892	-1.055515
C92	C	1.513706	1.112892	-0.555515
C93	C	1.069615	0.562439	-1.001040
C94	C	1.569615	1.062439	-0.501040
C95	C	1.181342	0.461638	-0.338023
C96	C	1.681342	0.961638	0.161977
C97	C	1.181487	0.461446	-0.221244
C98	C	1.681487	0.961446	0.278756
H99	H	0.693170	0.531018	-0.702615
H100	H	1.193170	1.031018	-0.202615
H101	H	0.670392	0.392281	-0.519447
H102	H	1.170392	0.892281	-0.019447
H103	H	1.293276	0.360598	-0.913221
H104	H	1.793276	0.860598	-0.413221
H105	H	1.250694	0.949819	-0.528141
H106	H	1.750694	1.449819	-0.028141
H107	H	1.394728	0.269012	-1.013431
H108	H	1.894728	0.769012	-0.513431
H109	H	1.112055	0.972576	-0.693776
H110	H	1.612055	1.472576	-0.193776
H111	H	1.069667	0.562348	-1.309824
H112	H	1.569667	1.062348	-0.809824
H113	H	1.394764	0.268952	-1.212501
H114	H	1.894764	0.768952	-0.712501
H115	H	1.293333	0.360480	-1.311346
H116	H	1.793333	0.860480	-0.811346
H117	H	0.968202	0.653935	-1.209610
H118	H	1.468202	1.153935	-0.709610
H119	H	0.968156	0.653989	-1.010542
H120	H	1.468156	1.153989	-0.510542
H121	H	1.069609	0.562461	-0.911699
H122	H	1.569609	1.062461	-0.411699
