data_functionalizedCrystal
_audit_creation_method	'MofGen! by Chris Wilmer'
_symmetry_space_group_name_H-M	'P1'
_symmetry_Int_Tables_number	1
_symmetry_cell_setting	triclinic
loop_
_symmetry_equiv_pos_as_xyz
  x,y,z
_cell_length_a	14.853566
_cell_length_b	10.540510
_cell_length_c	13.930277
_cell_angle_alpha	89.997952
_cell_angle_beta	89.995631
_cell_angle_gamma	84.073862
loop_
_atom_site_label
_atom_site_type_symbol
_atom_site_fract_x
_atom_site_fract_y
_atom_site_fract_z
O1	O	1.197276	0.165722	-0.079762
O2	O	1.697276	0.665722	0.420238
O3	O	0.934925	0.185466	-0.079777
O4	O	1.434925	0.685466	0.420223
O5	O	1.072100	-0.009181	-0.079769
O6	O	1.572100	0.490819	0.420231
O7	O	1.060101	0.360369	-0.079770
O8	O	1.560101	0.860369	0.420230
O9	O	1.072080	-0.009185	0.079893
O10	O	1.572080	0.490815	0.579893
O11	O	0.934905	0.185462	0.079885
O12	O	1.434905	0.685462	0.579885
O13	O	1.197257	0.165718	0.079900
O14	O	1.697257	0.665718	0.579900
Zn15	Zn	1.066078	0.175589	0.105242
Zn16	Zn	1.566078	0.675589	0.605242
Zn17	Zn	1.066103	0.175595	-0.105119
Zn18	Zn	1.566103	0.675595	0.394881
O19	O	1.060082	0.360365	0.079891
O20	O	1.560082	0.860365	0.579891
C21	C	0.901321	0.184570	0.000052
C22	C	1.401321	0.684570	0.500052
C23	C	0.801223	0.181890	0.000046
C24	C	1.301223	0.681890	0.500046
C25	C	0.377986	0.170556	-0.086969
C26	C	0.877986	0.670556	0.413031
C27	C	0.377987	0.170553	0.087100
C28	C	0.877987	0.670553	0.587100
C29	C	0.472035	0.173069	0.087097
C30	C	0.972035	0.673069	0.587097
C31	C	0.519063	0.174332	0.000060
C32	C	1.019063	0.674332	0.500060
C33	C	0.472043	0.173077	-0.086975
C34	C	0.972043	0.673077	0.413025
C35	C	0.519061	0.174337	0.174130
C36	C	1.019061	0.674337	0.674130
C37	C	0.613114	0.176855	0.174131
C38	C	1.113114	0.676855	0.674131
C39	C	0.660144	0.178108	0.087092
C40	C	1.160144	0.678108	0.587092
C41	C	0.613119	0.176852	0.000054
C42	C	1.113119	0.676852	0.500054
C43	C	0.660147	0.178115	-0.086983
C44	C	1.160147	0.678115	0.413017
C45	C	0.613124	0.176849	-0.174022
C46	C	1.113124	0.676849	0.325978
C47	C	0.519073	0.174330	-0.174013
C48	C	1.019073	0.674330	0.325987
C49	C	0.754195	0.180627	0.087083
C50	C	1.254195	0.680627	0.587083
C51	C	0.754203	0.180635	-0.086989
C52	C	1.254203	0.680635	0.413011
C53	C	1.071196	-0.056477	0.000060
C54	C	1.571196	0.443523	0.500060
C55	C	1.068521	-0.197397	0.000054
C56	C	1.568521	0.302603	0.500054
C57	C	1.163816	-0.415902	0.000425
C58	C	1.663816	0.084098	0.500425
C59	C	1.166669	-0.269338	0.000061
C60	C	1.666669	0.230662	0.500061
C61	C	1.018289	-0.241600	-0.091122
C62	C	1.518289	0.258400	0.408878
C63	C	1.016131	-0.388338	-0.091193
C64	C	1.516131	0.111662	0.408807
C65	C	1.014065	-0.388128	0.090372
C66	C	1.514065	0.111872	0.590372
C67	C	1.018720	-0.241838	0.091572
C68	C	1.518720	0.258162	0.591572
C69	C	1.230860	0.166614	0.000069
C70	C	1.730860	0.666614	0.500069
C71	C	1.330959	0.169294	0.000068
C72	C	1.830959	0.669294	0.500068
C73	C	1.060985	0.407661	0.000060
C74	C	1.560985	0.907661	0.500060
C75	C	1.063661	0.548581	0.000060
C76	C	1.563661	1.048581	0.500060
N77	N	1.066067	0.175585	0.248808
N78	N	1.566067	0.675585	0.748808
N79	N	1.066121	0.175589	-0.248685
N80	N	1.566121	0.675589	0.251315
C81	C	1.005360	0.261751	0.701074
C82	C	1.505360	0.761751	1.201074
C83	C	1.126872	0.089429	0.701050
C84	C	1.626872	0.589429	1.201050
C85	C	1.126861	0.089425	0.600555
C86	C	1.626861	0.589425	1.100555
C87	C	1.066100	0.175586	0.550314
C88	C	1.566100	0.675586	1.050314
C89	C	1.005349	0.261752	0.600569
C90	C	1.505349	0.761752	1.100569
C91	C	1.187617	0.003270	0.550292
C92	C	1.687617	0.503270	1.050292
C93	C	1.187609	0.003263	0.449790
C94	C	1.687609	0.503263	0.949790
C95	C	1.126843	0.089420	0.399548
C96	C	1.626843	0.589420	0.899548
C97	C	1.066089	0.175588	0.449809
C98	C	1.566089	0.675588	0.949809
C99	C	1.005327	0.261749	0.399568
C100	C	1.505327	0.761749	0.899568
C101	C	0.944568	0.347912	0.449827
C102	C	1.444568	0.847912	0.949827
C103	C	0.944582	0.347908	0.550326
C104	C	1.444582	0.847908	1.050326
C105	C	1.126829	0.089423	0.299049
C106	C	1.626829	0.589423	0.799049
C107	C	1.005317	0.261750	0.299063
C108	C	1.505317	0.761750	0.799063
H109	H	1.205973	-0.240428	0.065418
H110	H	1.705973	0.259572	0.565418
H111	H	0.940374	-0.409467	0.090982
H112	H	1.440374	0.090533	0.590982
H113	H	1.237081	-0.066896	0.408876
H114	H	1.737081	0.433104	0.908876
F115	F	0.663184	0.178201	-0.266651
F116	F	1.163184	0.678201	0.233349
F117	F	0.940640	0.353451	0.245600
F118	F	1.440640	0.853451	0.745600
F119	F	0.327933	0.169222	0.179726
F120	F	0.827933	0.669222	0.679726
F121	F	1.061026	-0.441399	-0.180268
F122	F	1.561026	0.058601	0.319732
H123	H	0.480763	0.173318	0.244992
H124	H	0.980763	0.673318	0.744992
F125	F	0.879925	0.439604	0.603819
F126	F	1.379925	0.939604	1.103819
H127	H	0.942722	-0.410524	-0.095328
H128	H	1.442722	0.089476	0.404672
H129	H	0.792476	0.181670	0.157949
H130	H	1.292476	0.681670	0.657949
F131	F	0.663151	0.178199	0.266764
F132	F	1.163151	0.678199	0.766764
F133	F	1.213788	-0.471290	0.085892
F134	F	1.713788	0.028710	0.585892
H135	H	0.895100	0.418071	0.408909
H136	H	1.395100	0.918071	0.908909
F137	F	1.213520	-0.473309	-0.084550
F138	F	1.713520	0.026691	0.415450
H139	H	0.946034	-0.193416	-0.094516
H140	H	1.446034	0.306584	0.405484
H141	H	0.955888	0.331900	0.741997
H142	H	1.455888	0.831900	1.241997
H143	H	1.206217	-0.241366	-0.065406
H144	H	1.706217	0.258634	0.434594
H145	H	0.480779	0.173299	-0.244876
H146	H	0.980779	0.673299	0.255124
H147	H	1.176302	0.019277	0.258132
H148	H	1.676302	0.519277	0.758132
H149	H	1.176347	0.019285	0.741960
H150	H	1.676347	0.519285	1.241960
H151	H	0.792487	0.181659	-0.157867
H152	H	1.292487	0.681659	0.342133
F153	F	1.063906	-0.201775	-0.179807
F154	F	1.563906	0.298225	0.320193
H155	H	1.237092	-0.066874	0.591202
H156	H	1.737092	0.433126	1.091202
H157	H	1.045247	-0.430655	0.159483
H158	H	1.545247	0.069345	0.659483
F159	F	1.066488	-0.204961	0.179738
F160	F	1.566488	0.295039	0.679738
F161	F	0.327945	0.169180	-0.179598
F162	F	0.827945	0.669180	0.320402
F163	F	0.925057	-0.176677	0.098765
F164	F	1.425057	0.323323	0.598765
