data_functionalizedCrystal
_audit_creation_method	'MofGen! by Chris Wilmer'
_symmetry_space_group_name_H-M	'P1'
_symmetry_Int_Tables_number	1
_symmetry_cell_setting	triclinic
loop_
_symmetry_equiv_pos_as_xyz
  x,y,z
_cell_length_a	8.597340
_cell_length_b	14.044190
_cell_length_c	7.681481
_cell_angle_alpha	83.728840
_cell_angle_beta	103.474906
_cell_angle_gamma	89.225172
loop_
_atom_site_label
_atom_site_type_symbol
_atom_site_fract_x
_atom_site_fract_y
_atom_site_fract_z
O1	O	2.118487	0.131086	0.174962
O2	O	2.618487	0.631086	0.674962
O3	O	1.656574	0.146189	0.104875
O4	O	2.156574	0.646189	0.604875
O5	O	1.880595	0.000651	0.138901
O6	O	2.380595	0.500651	0.638901
O7	O	1.894467	0.276624	0.140936
O8	O	2.394467	0.776624	0.640936
O9	O	1.908163	-0.017303	0.435946
O10	O	2.408163	0.482697	0.935946
O11	O	1.684142	0.128235	0.401920
O12	O	2.184142	0.628235	0.901920
O13	O	2.146055	0.113132	0.472007
O14	O	2.646055	0.613132	0.972007
Zn15	Zn	1.919475	0.117833	0.484126
Zn16	Zn	2.419475	0.617833	0.984126
Zn17	Zn	1.883154	0.141488	0.092756
Zn18	Zn	2.383154	0.641488	0.592756
O19	O	1.922034	0.258670	0.437981
O20	O	2.422034	0.758670	0.937981
C21	C	1.610886	0.136590	0.244374
C22	C	2.110886	0.636590	0.744374
C23	C	1.433677	0.134726	0.217488
C24	C	1.933677	0.634726	0.717488
C25	C	1.888308	-0.043641	0.286507
C26	C	2.388308	0.456359	0.786507
C27	C	1.870199	-0.148867	0.283775
C28	C	2.370199	0.351133	0.783775
C29	C	1.965524	-0.399152	0.298170
C30	C	2.465524	0.100848	0.798170
C31	C	1.837111	-0.341520	0.278698
C32	C	2.337111	0.158480	0.778698
C33	C	1.855526	-0.234318	0.281523
C34	C	2.355526	0.265682	0.781523
C35	C	1.947112	-0.506364	0.295344
C36	C	2.447112	-0.006364	0.795344
C37	C	2.191743	0.122731	0.332504
C38	C	2.691743	0.622731	0.832504
C39	C	2.368951	0.124596	0.359378
C40	C	2.868951	0.624596	0.859378
C41	C	1.914321	0.302962	0.290371
C42	C	2.414321	0.802962	0.790371
C43	C	1.932428	0.408189	0.293091
C44	C	2.432428	0.908189	0.793091
N45	N	1.944275	0.101689	0.751227
N46	N	2.444275	0.601689	1.251227
N47	N	1.858366	0.157625	-0.174343
N48	N	2.358366	0.657625	0.325657
H49	H	1.449108	0.117342	0.501433
H50	H	1.949108	0.617342	1.001433
H51	H	1.713343	-0.372690	0.259908
H52	H	2.213343	0.127310	0.759908
H53	H	1.353511	0.141974	0.075423
H54	H	1.853511	0.641974	0.575423
H55	H	1.770669	0.214719	0.737140
H56	H	2.270669	0.714719	1.237140
H57	H	2.089283	-0.367984	0.316966
H58	H	2.589283	0.132016	0.816966
H59	H	2.031991	0.044597	0.839755
H60	H	2.531991	0.544597	1.339755
