data_functionalizedCrystal
_audit_creation_method	'MofGen! by Chris Wilmer'
_symmetry_space_group_name_H-M	'P1'
_symmetry_Int_Tables_number	1
_symmetry_cell_setting	triclinic
loop_
_symmetry_equiv_pos_as_xyz
  x,y,z
_cell_length_a	26.455835
_cell_length_b	26.455273
_cell_length_c	26.451828
_cell_angle_alpha	60.005170
_cell_angle_beta	60.010757
_cell_angle_gamma	59.993435
loop_
_atom_site_label
_atom_site_type_symbol
_atom_site_fract_x
_atom_site_fract_y
_atom_site_fract_z
O1	O	0.069940	-0.738516	0.617604
O2	O	0.026299	-0.574986	0.497618
O3	O	0.129847	-0.678463	0.497546
O4	O	-0.033607	-0.635040	0.617676
O5	O	0.164197	-0.644116	0.531822
O6	O	0.060649	-0.540639	0.531894
O7	O	0.104290	-0.704170	0.651880
Cu8	Cu	0.085606	-0.619268	0.595016
Cu9	Cu	0.044984	-0.659887	0.554481
O10	O	0.000742	-0.600693	0.651952
N11	N	0.114179	-0.590703	0.623530
N12	N	0.016416	-0.688458	0.525968
C13	C	0.157553	-0.547535	0.933368
C14	C	0.424104	-0.547506	0.666656
C15	C	0.157413	-0.547503	0.666729
C16	C	0.157397	-0.280846	0.666749
C17	C	0.200330	-0.409550	0.709625
C18	C	0.200339	-0.504608	0.709615
C19	C	0.224118	-0.480848	0.733375
C20	C	0.327800	-0.462984	0.678792
C21	C	0.392611	-0.484588	0.657175
C22	C	0.392630	-0.589450	0.697162
C23	C	0.327821	-0.567844	0.718781
C24	C	0.215955	-0.377135	0.645910
C25	C	0.194327	-0.312320	0.624323
C26	C	0.141457	-0.312339	0.730169
C27	C	0.163084	-0.377154	0.751756
C28	C	0.136618	-0.488954	0.725292
C29	C	0.115007	-0.510553	0.703686
C30	C	0.220833	-0.563461	0.650740
C31	C	0.242447	-0.541861	0.672339
C32	C	0.136680	-0.488971	0.837094
C33	C	0.115112	-0.510589	0.901907
C34	C	0.220969	-0.563508	0.901868
C35	C	0.242535	-0.541892	0.837053
C36	C	0.200389	-0.504622	0.804668
C37	C	0.295409	-0.504610	0.709593
C38	C	0.132990	-0.570876	1.004655
C39	C	0.495389	-0.570440	0.642547
C40	C	0.132802	-0.570856	0.643399
C41	C	0.133212	-0.209553	0.643833
C42	C	-0.097217	-0.706972	0.506986
C43	C	-0.002040	-0.707108	0.412067
C44	C	-0.002230	-0.802124	0.507163
C45	C	-0.002214	-0.707101	0.507221
C46	C	-0.025925	-0.730827	0.483360
N47	N	0.553723	-0.590712	0.623415
O48	O	0.751638	-0.596429	0.475603
O49	O	0.751819	-0.716773	0.638980
O50	O	0.751753	-0.716500	0.535361
O51	O	0.751705	-0.596703	0.579222
O52	O	0.648791	-0.682239	0.569747
O53	O	0.648858	-0.682512	0.673366
O54	O	0.648676	-0.562169	0.509989
Cu55	Cu	0.639366	-0.619212	0.594817
Cu56	Cu	0.761130	-0.659729	0.554152
O57	O	0.648743	-0.562442	0.613609
N58	N	0.846773	-0.688230	0.525548
N59	N	0.114157	-0.151217	0.623565
O60	O	-0.033591	0.046803	0.617717
O61	O	0.129795	0.046806	0.497390
O62	O	0.026157	0.046789	0.497680
O63	O	0.070046	0.046819	0.617427
O64	O	0.060509	-0.056181	0.532004
O65	O	0.164146	-0.056164	0.531714
O66	O	0.000760	-0.056167	0.652041
Cu67	Cu	0.085590	-0.065568	0.595012
Cu68	Cu	0.044965	0.056206	0.554419
O69	O	0.104397	-0.056151	0.651751
N70	N	0.016390	0.141855	0.525867
N71	N	0.114410	-0.590756	1.062992
O72	O	0.108565	-0.738494	1.260998
O73	O	-0.011747	-0.575059	1.261012
O74	O	-0.011470	-0.678679	1.260970
O75	O	0.108287	-0.634874	1.261040
O76	O	0.022849	-0.644347	1.158004
O77	O	0.022572	-0.540726	1.158046
O78	O	0.142884	-0.704162	1.158033
Cu79	Cu	0.085861	-0.619309	1.148638
Cu80	Cu	0.045275	-0.659911	1.270406
O81	O	0.142606	-0.600541	1.158074
N82	N	0.016726	-0.688471	1.356052
C83	C	0.039385	-0.537207	0.498225
C84	C	0.167616	-0.665350	0.498136
C85	C	0.091204	-0.741950	0.651272
C86	C	-0.037027	-0.613806	0.651361
C87	C	0.700360	-0.716215	0.676756
C88	C	0.700279	-0.715877	0.548436
C89	C	0.700133	-0.562725	0.472214
C90	C	0.700218	-0.563065	0.600533
C91	C	0.167511	-0.004552	0.497940
C92	C	0.039211	-0.004699	0.498341
C93	C	-0.036999	-0.004682	0.651449
C94	C	0.091344	-0.004663	0.651090
C95	C	-0.011156	-0.537302	1.209530
C96	C	-0.010806	-0.665617	1.209458
C97	C	0.142293	-0.741918	1.209514
C98	C	0.141950	-0.613596	1.209563
H99	H	0.063231	-0.497836	0.928300
H100	H	0.214338	-0.004265	0.460069
H101	H	0.700208	-0.525435	0.609919
O102	O	-0.055729	-0.676779	1.209490
C103	C	-0.158836	-0.682499	1.262704
C104	C	-0.108009	-0.669856	1.262751
H105	H	-0.201122	-0.676893	1.305754
H106	H	-0.140725	-0.731699	1.262718
H107	H	-0.172303	-0.648218	1.219574
H108	H	-0.094520	-0.704097	1.305873
H109	H	-0.126149	-0.620639	1.262705
O110	O	0.102411	-0.798033	0.696154
C111	C	0.175878	-0.899948	0.724655
C112	C	0.163265	-0.836466	0.673767
H113	H	0.225082	-0.931034	0.706579
H114	H	0.141611	-0.922298	0.738189
H115	H	0.170289	-0.893490	0.766890
H116	H	0.168862	-0.842870	0.631499
H117	H	0.197530	-0.814138	0.660286
H118	H	0.179573	-0.604224	1.209577
O119	O	0.027921	-0.004754	0.453543
C120	C	-0.045649	-0.004774	0.425243
C121	C	-0.032944	-0.004714	0.476032
H122	H	-0.094861	-0.004728	0.443403
H123	H	-0.011407	-0.047887	0.411734
H124	H	-0.040093	0.038299	0.382970
H125	H	-0.038509	-0.047757	0.518338
H126	H	-0.067183	0.038428	0.489488
O127	O	-0.093023	-0.004644	0.696438
C128	C	-0.195007	-0.004668	0.725235
C129	C	-0.131591	-0.004704	0.674228
H130	H	-0.226203	-0.004730	0.707301
H131	H	-0.217273	0.038444	0.738716
H132	H	-0.188476	-0.047741	0.767469
H133	H	-0.138069	0.038341	0.631960
H134	H	-0.109347	-0.047844	0.660799
O135	O	-0.093058	-0.602656	0.696310
C136	C	-0.195018	-0.529305	0.724912
C137	C	-0.131588	-0.541845	0.673957
H138	H	-0.226192	-0.480144	0.706854
H139	H	-0.188572	-0.534845	0.767134
H140	H	-0.217264	-0.563665	0.738459
H141	H	-0.109308	-0.507496	0.660357
H142	H	-0.138074	-0.536326	0.631768
O143	O	0.102662	-0.004692	0.695917
C144	C	0.176228	-0.004661	0.724213
C145	C	0.163495	-0.004637	0.673395
H146	H	0.225406	-0.004604	0.706019
H147	H	0.170751	-0.047767	0.766467
H148	H	0.141930	0.038418	0.737762
H149	H	0.197782	-0.047688	0.659793
H150	H	0.168951	0.038497	0.631175
O151	O	-0.056162	-0.481280	1.209561
C152	C	-0.084930	-0.379277	1.209550
C153	C	-0.033912	-0.442698	1.209531
H154	H	-0.066955	-0.348061	1.209513
H155	H	-0.127156	-0.385737	1.252643
H156	H	-0.098438	-0.357067	1.166461
H157	H	-0.020351	-0.464942	1.252591
H158	H	0.008280	-0.436197	1.166410
O159	O	0.700529	-0.761306	0.732706
C160	C	0.753933	-0.826714	0.807248
C161	C	0.753826	-0.775658	0.743868
H162	H	0.797013	-0.838324	0.816298
H163	H	0.754000	-0.869885	0.807337
H164	H	0.710836	-0.809697	0.845054
H165	H	0.796916	-0.792617	0.706026
H166	H	0.753727	-0.732498	0.743831
H167	H	0.030065	-0.490230	0.460543
O168	O	0.095713	-0.452858	0.805661
C169	C	0.011814	-0.444551	0.785886
C170	C	0.058179	-0.485516	0.821511
H171	H	-0.018554	-0.470934	0.798698
H172	H	0.038141	-0.431805	0.733986
H173	H	-0.018500	-0.400563	0.798633
H174	H	0.088504	-0.529530	0.808816
H175	H	0.031813	-0.498213	0.873402
O176	O	0.261994	-0.599716	0.933226
C177	C	0.369268	-0.649875	0.926338
C178	C	0.322873	-0.608876	0.890748
H179	H	0.418499	-0.657283	0.892010
H180	H	0.361874	-0.696527	0.956661
H181	H	0.361774	-0.626128	0.956700
H182	H	0.330339	-0.632568	0.860353
H183	H	0.330279	-0.562226	0.860464
O184	O	0.095773	-0.452690	0.761432
C185	C	0.058706	-0.354017	0.772978
C186	C	0.105007	-0.395027	0.731996
H187	H	0.066147	-0.307384	0.749189
H188	H	0.066199	-0.377726	0.819590
H189	H	0.009458	-0.346571	0.780479
H190	H	0.154273	-0.402487	0.724446
H191	H	0.097460	-0.371299	0.685409
O192	O	0.700270	-0.760698	0.537149
C193	C	0.700276	-0.789032	0.463584
C194	C	0.700272	-0.738213	0.476288
H195	H	0.700290	-0.770876	0.414375
H196	H	0.657206	-0.802589	0.497836
H197	H	0.743384	-0.831276	0.469128
H198	H	0.657192	-0.695937	0.470736
H199	H	0.743370	-0.724709	0.442038
O200	O	0.700090	-0.517724	0.416198
C201	C	0.699956	-0.488921	0.314239
C202	C	0.700021	-0.539945	0.377643
H203	H	0.699887	-0.506864	0.283054
H204	H	0.743031	-0.475390	0.291943
H205	H	0.656852	-0.446714	0.320799
H206	H	0.743095	-0.582185	0.371137
H207	H	0.656917	-0.553424	0.399918
O208	O	0.187435	-0.797871	1.209483
C209	C	0.291790	-0.861341	1.209542
C210	C	0.240727	-0.797943	1.209562
H211	H	0.334885	-0.861424	1.209618
H212	H	0.303535	-0.870418	1.166429
H213	H	0.274733	-0.899133	1.252611
H214	H	0.257743	-0.760111	1.166522
H215	H	0.228990	-0.788919	1.252703
H216	H	0.294416	-0.554643	0.810656
H217	H	0.255124	-0.593799	0.620395
O218	O	0.053104	-0.495429	0.719019
C219	C	-0.043935	-0.500366	0.801214
C220	C	0.026163	-0.517544	0.783935
H221	H	-0.065740	-0.518227	0.853700
H222	H	-0.052180	-0.522224	0.779416
H223	H	-0.065787	-0.447884	0.783313
H224	H	0.048061	-0.570017	0.801833
H225	H	0.034364	-0.495642	0.805725
H226	H	0.294333	-0.554601	0.659567
O227	O	0.296450	-0.608363	0.748664
C228	C	0.303313	-0.714657	0.786072
C229	C	0.338916	-0.668836	0.752207
H230	H	0.337631	-0.763561	0.788959
H231	H	0.272968	-0.701691	0.759583
H232	H	0.272974	-0.712643	0.834791
H233	H	0.369289	-0.670827	0.703488
H234	H	0.369222	-0.681818	0.778744
H235	H	0.419022	-0.640939	0.704632
H236	H	0.301415	-0.411495	0.671309
O237	O	0.423982	-0.444065	0.627241
C238	C	0.417125	-0.337780	0.589888
C239	C	0.381518	-0.383604	0.623786
H240	H	0.382809	-0.288889	0.587095
H241	H	0.447432	-0.339715	0.541139
H242	H	0.447501	-0.350825	0.616378
H243	H	0.351108	-0.370590	0.597348
H244	H	0.351250	-0.381662	0.672538
O245	O	0.223575	-0.676395	0.453072
C246	C	0.278903	-0.681929	0.349874
C247	C	0.215493	-0.669419	0.400861
H248	H	0.272389	-0.676281	0.307644
H249	H	0.310088	-0.731115	0.367847
H250	H	0.301175	-0.647608	0.336370
H251	H	0.193167	-0.703701	0.414386
H252	H	0.184351	-0.620217	0.382859
H253	H	0.246280	-0.403511	0.611604
H254	H	0.207047	-0.285927	0.572438
H255	H	0.150353	-0.403547	0.803641
O256	O	0.105266	-0.280961	0.771176
C257	C	0.055156	-0.287817	0.878439
C258	C	0.096135	-0.323427	0.832067
H259	H	0.047772	-0.322135	0.927680
H260	H	0.008496	-0.257494	0.871041
H261	H	0.078901	-0.257451	0.870921
H262	H	0.072445	-0.353826	0.839557
H263	H	0.142793	-0.353710	0.839477
