data_functionalizedCrystal
_audit_creation_method	'MofGen! by Chris Wilmer'
_symmetry_space_group_name_H-M	'P1'
_symmetry_Int_Tables_number	1
_symmetry_cell_setting	triclinic
loop_
_symmetry_equiv_pos_as_xyz
  x,y,z
_cell_length_a	12.827892
_cell_length_b	12.827893
_cell_length_c	11.169409
_cell_angle_alpha	89.976895
_cell_angle_beta	90.033086
_cell_angle_gamma	89.986589
loop_
_atom_site_label
_atom_site_type_symbol
_atom_site_fract_x
_atom_site_fract_y
_atom_site_fract_z
Zn1	Zn	-0.416004	-1.597689	0.678642
Zn2	Zn	0.083996	-1.097689	1.178642
Zn3	Zn	-0.590791	-1.597578	0.477956
Zn4	Zn	-0.090791	-1.097578	0.977956
Zn5	Zn	-0.416059	-1.422925	0.477964
Zn6	Zn	0.083941	-0.922925	0.977964
Zn7	Zn	-0.590697	-1.422916	0.678589
Zn8	Zn	-0.090697	-0.922916	1.178589
O9	O	-0.503388	-1.510277	0.578288
O10	O	-0.003388	-1.010277	1.078288
O11	O	-0.439206	-1.743911	0.652038
O12	O	0.060794	-1.243911	1.152038
O13	O	-0.567675	-1.574367	0.310007
O14	O	-0.067675	-1.074367	0.810007
O15	O	-0.269815	-1.446158	0.504610
O16	O	0.230185	-0.946158	1.004610
O17	O	-0.567621	-1.743828	0.504595
O18	O	-0.067621	-1.243828	1.004595
O19	O	-0.269775	-1.574557	0.652047
O20	O	0.230225	-1.074557	1.152047
O21	O	-0.439299	-1.446050	0.310013
O22	O	0.060701	-0.946050	0.810013
O23	O	-0.439209	-1.276688	0.504559
O24	O	0.060791	-0.776688	1.004559
O25	O	-0.567462	-1.446143	0.846546
O26	O	-0.067462	-0.946143	1.346546
O27	O	-0.567515	-1.276681	0.651958
O28	O	-0.067515	-0.776681	1.151958
O29	O	-0.439115	-1.574548	0.846584
O30	O	0.060885	-1.074548	1.346584
O31	O	-0.737015	-1.574358	0.504545
O32	O	-0.237015	-1.074358	1.004545
O33	O	-0.736946	-1.446035	0.651949
O34	O	-0.236946	-0.946035	1.151949
C35	C	-0.503358	-1.238767	0.578254
C36	C	-0.003358	-0.738767	1.078254
C37	C	-0.503371	-1.122614	0.578269
C38	C	-0.003371	-0.622614	1.078269
C39	C	-0.566958	-1.070854	0.651092
C40	C	-0.066958	-0.570854	1.151092
C41	C	-0.566973	-0.950803	0.651108
C42	C	-0.066973	-0.450803	1.151108
C43	C	-0.774898	-1.510212	0.578267
C44	C	-0.274898	-1.010212	1.078267
C45	C	-0.891051	-1.510279	0.578298
C46	C	-0.391051	-1.010279	1.078298
C47	C	-0.942835	-1.573853	0.505438
C48	C	-0.442835	-1.073853	1.005438
C49	C	-1.062885	-1.573924	0.505469
C50	C	-0.562885	-1.073924	1.005469
C51	C	-0.230817	-1.510371	0.578335
C52	C	0.269183	-1.010371	1.078335
C53	C	-0.114664	-1.510411	0.578356
C54	C	0.385336	-1.010411	1.078356
C55	C	-0.503272	-1.510357	0.891330
C56	C	-0.003272	-1.010357	1.391330
C57	C	-0.503222	-1.510391	1.024730
C58	C	-0.003222	-1.010391	1.524730
C59	C	-0.503409	-0.782847	0.578312
C60	C	-0.003409	-0.282847	1.078312
C61	C	-0.503397	-0.899000	0.578298
C62	C	-0.003397	-0.399000	1.078298
C63	C	-0.503428	-1.510257	0.266463
C64	C	-0.003428	-1.010257	0.766463
C65	C	-0.503183	-1.510425	0.133064
C66	C	-0.003183	-1.010425	0.633064
H67	H	-0.448938	-1.078051	0.515939
H68	H	0.051062	-0.578051	1.015939
H69	H	-0.898295	-1.628233	0.443042
H70	H	-0.398295	-1.128233	0.943042
H71	H	-1.107418	-1.628349	0.443088
H72	H	-0.607418	-1.128349	0.943088
H73	H	-0.621383	-1.115416	0.713430
H74	H	-0.121383	-0.615416	1.213430
H75	H	-1.070139	-1.455976	0.640732
H76	H	-0.570139	-0.955976	1.140732
H77	H	-0.448958	-0.943506	0.515944
H78	H	0.051042	-0.443506	1.015944
H79	H	-0.621415	-0.906290	0.713451
H80	H	-0.121415	-0.406290	1.213451
H81	H	-0.935593	-1.455909	0.640702
H82	H	-0.435593	-0.955909	1.140702
