data_functionalizedCrystal
_audit_creation_method	'MofGen! by Chris Wilmer'
_symmetry_space_group_name_H-M	'P1'
_symmetry_Int_Tables_number	1
_symmetry_cell_setting	triclinic
loop_
_symmetry_equiv_pos_as_xyz
  x,y,z
_cell_length_a	18.215407
_cell_length_b	12.759394
_cell_length_c	18.215399
_cell_angle_alpha	89.974724
_cell_angle_beta	89.983101
_cell_angle_gamma	90.012296
loop_
_atom_site_label
_atom_site_type_symbol
_atom_site_fract_x
_atom_site_fract_y
_atom_site_fract_z
Zn1	Zn	1.125123	-0.418349	-0.416072
Zn2	Zn	1.125053	-0.594046	-0.293011
Zn3	Zn	1.002056	-0.418374	-0.293026
Zn4	Zn	1.002043	-0.593978	-0.416043
O5	O	1.063569	-0.506187	-0.354538
O6	O	1.228098	-0.441673	-0.399754
O7	O	1.108713	-0.570782	-0.190029
O8	O	1.018416	-0.271349	-0.309366
O9	O	1.228047	-0.570757	-0.309342
O10	O	1.108833	-0.271331	-0.399768
O11	O	1.018348	-0.441716	-0.190039
O12	O	0.899070	-0.441650	-0.309338
O13	O	1.018394	-0.570642	-0.519031
O14	O	0.899061	-0.570666	-0.399718
O15	O	1.108821	-0.441607	-0.519052
O16	O	1.108701	-0.741058	-0.309314
O17	O	1.018326	-0.741008	-0.399704
C18	C	0.872363	-0.506154	-0.354527
C19	C	0.790564	-0.506166	-0.354539
C20	C	0.525521	-0.573476	-0.401534
C21	C	0.602379	-0.573467	-0.401531
C22	C	0.602358	-0.438921	-0.307554
C23	C	0.525501	-0.438936	-0.307555
C24	C	0.487084	-0.506212	-0.354549
C25	C	0.640800	-0.506188	-0.354545
C26	C	0.724134	-0.506178	-0.354541
C27	C	0.403745	-0.506224	-0.354552
C28	C	1.063525	-0.779154	-0.354520
C29	C	1.063573	-0.895931	-0.354537
C30	C	1.157751	-0.895929	-0.260484
C31	C	1.204859	-0.950789	-0.213466
C32	C	1.204903	-1.060511	-0.213486
C33	C	1.157834	-1.115375	-0.260531
C34	C	1.110726	-1.060515	-0.307548
C35	C	1.110686	-0.950791	-0.307522
C36	C	1.016553	-1.060517	-0.401604
C37	C	1.016505	-0.950795	-0.401582
C38	C	0.969484	-1.115381	-0.448649
C39	C	0.922371	-1.060521	-0.495664
C40	C	0.922329	-0.950792	-0.495641
C41	C	0.969396	-0.895935	-0.448599
C42	C	1.255522	-0.506220	-0.354550
C43	C	1.337321	-0.506234	-0.354555
C44	C	1.063614	-0.506114	-0.546491
C45	C	1.063633	-0.506083	-0.628290
C46	C	1.063633	-0.232153	-0.354572
C47	C	1.063661	-0.115376	-0.354586
C48	C	1.110735	-0.438832	-0.816496
C49	C	1.110744	-0.438802	-0.893355
C50	C	1.016583	-0.573172	-0.893321
C51	C	1.016571	-0.573196	-0.816464
C52	C	1.063651	-0.506028	-0.778053
C53	C	1.063672	-0.505973	-0.931770
C54	C	1.063681	-0.505940	-1.015103
C55	C	1.063641	-0.506059	-0.694714
C56	C	1.063567	-0.506183	-0.163332
C57	C	1.063690	-0.505918	-0.081533
H58	H	0.633671	-0.628240	-0.439790
H59	H	0.494244	-0.628256	-0.439799
O60	O	0.876532	-0.897391	-0.541215
C61	C	0.828977	-0.834041	-0.499270
H62	H	0.854949	-0.817627	-0.443515
H63	H	0.819068	-0.756867	-0.529226
H64	H	0.774461	-0.876401	-0.491153
H65	H	0.969526	-1.204722	-0.448665
H66	H	0.969362	-0.806594	-0.448572
O67	O	0.970911	-0.638627	-0.779148
C68	C	0.986962	-0.743335	-0.797925
H69	H	1.045756	-0.748642	-0.819063
H70	H	0.980606	-0.795251	-0.747369
H71	H	0.947506	-0.770783	-0.842525
H72	H	0.884055	-1.105200	-0.533967
O73	O	1.156515	-0.373673	-0.930781
C74	C	1.204052	-0.433476	-0.975228
H75	H	1.178083	-0.513089	-0.986727
H76	H	1.213927	-0.390661	-1.029281
H77	H	1.258585	-0.445034	-0.945618
O78	O	0.639792	-0.373600	-0.261981
C79	C	0.715871	-0.388025	-0.272043
H80	H	0.726383	-0.422532	-0.328797
H81	H	0.745082	-0.309313	-0.267145
H82	H	0.737667	-0.443890	-0.228326
H83	H	0.494205	-0.384161	-0.269290
H84	H	1.157711	-0.806588	-0.260453
H85	H	1.149068	-0.384137	-0.785225
O86	O	0.970962	-0.638533	-0.930669
C87	C	1.012854	-0.706364	-0.975134
H88	H	1.070810	-0.712868	-0.951978
H89	H	0.986220	-0.787214	-0.975991
H90	H	1.015406	-0.673862	-1.033388
O91	O	1.250510	-0.897332	-0.167792
C92	C	1.240386	-0.788724	-0.177865
H93	H	1.183575	-0.773774	-0.201921
H94	H	1.245388	-0.747077	-0.122735
H95	H	1.284008	-0.757499	-0.217082
H96	H	1.243266	-1.105178	-0.175204
H97	H	1.157880	-1.204716	-0.260549
