data_functionalizedCrystal
_audit_creation_method	'MofGen! by Chris Wilmer'
_symmetry_space_group_name_H-M	'P1'
_symmetry_Int_Tables_number	1
_symmetry_cell_setting	triclinic
loop_
_symmetry_equiv_pos_as_xyz
  x,y,z
_cell_length_a	10.654541
_cell_length_b	14.519709
_cell_length_c	9.730217
_cell_angle_alpha	89.995799
_cell_angle_beta	89.999932
_cell_angle_gamma	84.082037
loop_
_atom_site_label
_atom_site_type_symbol
_atom_site_fract_x
_atom_site_fract_y
_atom_site_fract_z
O1	O	1.666593	0.129520	-0.114251
O2	O	1.300995	0.141863	-0.114263
O3	O	1.493488	0.001504	-0.114245
O4	O	1.474101	0.269880	-0.114270
O5	O	1.493482	0.001502	0.114335
O6	O	1.300990	0.141862	0.114317
O7	O	1.666587	0.129519	0.114329
Zn8	Zn	1.483787	0.135690	0.150615
Zn9	Zn	1.483795	0.135692	-0.150549
O10	O	1.474095	0.269879	0.114310
C11	C	1.254203	0.140957	0.000025
C12	C	1.114786	0.138247	0.000021
C13	C	1.085201	0.306085	-0.000012
C14	C	1.004912	0.388727	-0.000034
C15	C	0.873919	0.386175	-0.000035
C16	C	0.823213	0.300972	-0.000010
C17	C	0.903502	0.218330	0.000012
C18	C	1.034496	0.220891	0.000009
C19	C	0.933086	0.050493	0.000055
C20	C	1.064080	0.053043	0.000046
C21	C	0.882380	-0.034710	0.000080
C22	C	0.962669	-0.117354	0.000092
C23	C	1.093670	-0.114798	0.000091
C24	C	1.144369	-0.029599	0.000068
C25	C	1.492581	-0.032862	0.000046
C26	C	1.489874	-0.135257	0.000046
C27	C	1.479906	-0.510204	0.000010
C28	C	1.482674	-0.405882	0.000021
C29	C	1.484890	-0.322734	0.000030
C30	C	1.487658	-0.218405	0.000037
C31	C	1.713380	0.130425	0.000037
C32	C	1.852797	0.133135	0.000033
C33	C	1.475002	0.304244	0.000017
C34	C	1.477709	0.406639	0.000007
N35	N	1.483791	0.135689	0.356151
N36	N	1.483801	0.135686	-0.356086
C37	C	1.654312	0.011436	0.356159
C38	C	1.739581	-0.050687	0.428102
C39	C	1.739594	-0.050688	0.571982
C40	C	1.654326	0.011440	0.643921
C41	C	1.569057	0.073564	0.571978
C42	C	1.569056	0.073559	0.428095
C43	C	1.398532	0.197810	0.571971
C44	C	1.398523	0.197816	0.428091
C45	C	1.313264	0.259938	0.643910
C46	C	1.227999	0.322067	0.571967
C47	C	1.227991	0.322066	0.428078
C48	C	1.313254	0.259940	0.356147
H49	H	0.808546	0.453470	-0.000043
O50	O	1.313277	0.259949	0.799095
H51	H	1.386905	0.206323	0.837040
O52	O	1.313247	0.259928	0.200962
H53	H	1.333476	0.328958	0.163000
O54	O	1.059597	0.480624	-0.000056
H55	H	1.118562	0.485804	-0.093228
O56	O	1.285654	-0.026845	0.000085
H57	H	1.313821	0.010054	-0.093081
O58	O	0.907985	-0.209245	0.000124
H59	H	0.803409	-0.197135	0.000122
O60	O	1.180264	-0.203937	0.000130
H61	H	1.240663	-0.206798	-0.093028
O62	O	1.831569	-0.117690	0.649578
H63	H	1.778623	-0.162882	0.715135
H64	H	1.191861	0.308172	-0.000042
H65	H	1.158575	0.372643	0.630549
O66	O	0.681928	0.298213	0.000005
H67	H	0.634617	0.369993	-0.000013
O68	O	0.741095	-0.037470	0.000089
H69	H	0.700169	-0.001933	-0.093091
O70	O	1.654297	0.011441	0.200974
H71	H	1.727905	-0.042198	0.163037
H72	H	1.809004	-0.101273	0.369517
H73	H	1.654332	0.011428	0.761076
H74	H	1.158550	0.372650	0.369509
