data_functionalizedCrystal
_audit_creation_method	'MofGen! by Chris Wilmer'
_symmetry_space_group_name_H-M	'P1'
_symmetry_Int_Tables_number	1
_symmetry_cell_setting	triclinic
loop_
_symmetry_equiv_pos_as_xyz
  x,y,z
_cell_length_a	18.101398
_cell_length_b	18.101395
_cell_length_c	18.101390
_cell_angle_alpha	89.968664
_cell_angle_beta	89.975319
_cell_angle_gamma	90.026371
loop_
_atom_site_label
_atom_site_type_symbol
_atom_site_fract_x
_atom_site_fract_y
_atom_site_fract_z
Zn1	Zn	1.132124	-0.294895	-0.418847
Zn2	Zn	1.382124	-0.044895	-0.168847
Zn3	Zn	1.632124	0.205105	0.081153
Zn4	Zn	1.882124	0.455105	0.331153
Zn5	Zn	1.132019	-0.418752	-0.295009
Zn6	Zn	1.382019	-0.168752	-0.045009
Zn7	Zn	1.632019	0.081248	0.204991
Zn8	Zn	1.882019	0.331248	0.454991
Zn9	Zn	1.008282	-0.294918	-0.295008
Zn10	Zn	1.258282	-0.044918	-0.045008
Zn11	Zn	1.508282	0.205082	0.204992
Zn12	Zn	1.758282	0.455082	0.454992
Zn13	Zn	1.008233	-0.418689	-0.418797
Zn14	Zn	1.258233	-0.168689	-0.168797
Zn15	Zn	1.508233	0.081311	0.081203
Zn16	Zn	1.758233	0.331311	0.331203
O17	O	1.070164	-0.356813	-0.356915
O18	O	1.320164	-0.106813	-0.106915
O19	O	1.570164	0.143187	0.143085
O20	O	1.820164	0.393187	0.393085
O21	O	1.235743	-0.311341	-0.402441
O22	O	1.485743	-0.061341	-0.152441
O23	O	1.735743	0.188659	0.097559
O24	O	1.985743	0.438659	0.347559
O25	O	1.115581	-0.402361	-0.191376
O26	O	1.365581	-0.152361	0.058624
O27	O	1.615581	0.097639	0.308624
O28	O	1.865581	0.347639	0.558624
O29	O	1.024774	-0.191282	-0.311456
O30	O	1.274774	0.058718	-0.061456
O31	O	1.524774	0.308718	0.188544
O32	O	1.774774	0.558718	0.438544
O33	O	1.235666	-0.402338	-0.311457
O34	O	1.485666	-0.152338	-0.061457
O35	O	1.735666	0.097662	0.188543
O36	O	1.985666	0.347662	0.438543
O37	O	1.115760	-0.191265	-0.402440
O38	O	1.365760	0.058735	-0.152440
O39	O	1.615760	0.308735	0.097560
O40	O	1.865760	0.558735	0.347560
O41	O	1.024672	-0.311381	-0.191375
O42	O	1.274672	-0.061381	0.058625
O43	O	1.524672	0.188619	0.308625
O44	O	1.774672	0.438619	0.558625
O45	O	0.904642	-0.311320	-0.311408
O46	O	1.154642	-0.061320	-0.061408
O47	O	1.404642	0.188680	0.188592
O48	O	1.654642	0.438680	0.438592
O49	O	1.024691	-0.402231	-0.522437
O50	O	1.274691	-0.152231	-0.272437
O51	O	1.524691	0.097769	-0.022437
O52	O	1.774691	0.347769	0.227563
O53	O	0.904607	-0.402254	-0.402355
O54	O	1.154607	-0.152254	-0.152355
O55	O	1.404607	0.097746	0.097645
O56	O	1.654607	0.347746	0.347645
O57	O	1.115713	-0.311280	-0.522473
O58	O	1.365713	-0.061280	-0.272473
O59	O	1.615713	0.188720	-0.022473
O60	O	1.865713	0.438720	0.227527
O61	O	1.115534	-0.522376	-0.311409
O62	O	1.365534	-0.272376	-0.061409
O63	O	1.615534	-0.022376	0.188591
O64	O	1.865534	0.227624	0.438591
O65	O	1.024590	-0.522330	-0.402356
O66	O	1.274590	-0.272330	-0.152356
O67	O	1.524590	-0.022330	0.097644
O68	O	1.774590	0.227670	0.347644
C69	C	0.877754	-0.356783	-0.356877
C70	C	1.127754	-0.106783	-0.106877
C71	C	1.377754	0.143217	0.143123
C72	C	1.627754	0.393217	0.393123
C73	C	0.795440	-0.356788	-0.356878
C74	C	1.045440	-0.106788	-0.106878
C75	C	1.295440	0.143212	0.143122
C76	C	1.545440	0.393212	0.393122
C77	C	0.496349	-0.356835	-0.356940
C78	C	0.746349	-0.106835	-0.106940
C79	C	0.996349	0.143165	0.143060
C80	C	1.246349	0.393165	0.393060
C81	C	0.527672	-0.299336	-0.299997
C82	C	0.777672	-0.049336	-0.049997
C83	C	1.027672	0.200664	0.200003
C84	C	1.277672	0.450664	0.450003
C85	C	0.613290	-0.299490	-0.299754
C86	C	0.863290	-0.049490	-0.049754
C87	C	1.113290	0.200510	0.200246
C88	C	1.363290	0.450510	0.450246
C89	C	0.644731	-0.356811	-0.356909
C90	C	0.894731	-0.106811	-0.106909
C91	C	1.144731	0.143189	0.143091
C92	C	1.394731	0.393189	0.393091
C93	C	0.613613	-0.434824	-0.335587
C94	C	0.863613	-0.184824	-0.085587
C95	C	1.113613	0.065176	0.164413
C96	C	1.363613	0.315176	0.414413
C97	C	0.527968	-0.434505	-0.335191
C98	C	0.777968	-0.184505	-0.085191
C99	C	1.027968	0.065495	0.164809
C100	C	1.277968	0.315495	0.414809
C101	C	0.527964	-0.336998	-0.435339
C102	C	0.777964	-0.086998	-0.185339
C103	C	1.027964	0.163002	0.064661
C104	C	1.277964	0.413002	0.314661
C105	C	0.613615	-0.335261	-0.434911
C106	C	0.863615	-0.085261	-0.184911
C107	C	1.113615	0.164739	0.065089
C108	C	1.363615	0.414739	0.315089
C109	C	0.728591	-0.356803	-0.356893
C110	C	0.978591	-0.106803	-0.106893
C111	C	1.228591	0.143197	0.143107
C112	C	1.478591	0.393197	0.393107
C113	C	0.412489	-0.356848	-0.356954
C114	C	0.662489	-0.106848	-0.106954
C115	C	0.912489	0.143152	0.143046
C116	C	1.162489	0.393152	0.393046
C117	C	1.070065	-0.549224	-0.356893
C118	C	1.320065	-0.299224	-0.106893
C119	C	1.570065	-0.049224	0.143107
C120	C	1.820065	0.200776	0.393107
C121	C	1.070091	-0.631538	-0.356909
C122	C	1.320091	-0.381538	-0.106909
C123	C	1.570091	-0.131538	0.143091
C124	C	1.820091	0.118462	0.393091
C125	C	1.070253	-0.930629	-0.356949
C126	C	1.320253	-0.680629	-0.106949
C127	C	1.570253	-0.430629	0.143051
C128	C	1.820253	-0.180629	0.393051
C129	C	1.013166	-0.899306	-0.414312
C130	C	1.263166	-0.649306	-0.164312
C131	C	1.513166	-0.399306	0.085688
C132	C	1.763166	-0.149306	0.335688
C133	C	1.012895	-0.813688	-0.414133
C134	C	1.262895	-0.563688	-0.164133
C135	C	1.512895	-0.313688	0.085867
C136	C	1.762895	-0.063688	0.335867
C137	C	1.070172	-0.782247	-0.356930
C138	C	1.320172	-0.532247	-0.106930
C139	C	1.570172	-0.282247	0.143070
C140	C	1.820172	-0.032247	0.393070
C141	C	1.049043	-0.813402	-0.278878
C142	C	1.299043	-0.563402	-0.028878
C143	C	1.549043	-0.313402	0.221122
C144	C	1.799043	-0.063402	0.471122
C145	C	1.048675	-0.899047	-0.279221
C146	C	1.298675	-0.649047	-0.029221
C147	C	1.548675	-0.399047	0.220779
C148	C	1.798675	-0.149047	0.470779
C149	C	1.148595	-0.898978	-0.376950
C150	C	1.398595	-0.648978	-0.126950
C151	C	1.648595	-0.398978	0.123050
C152	C	1.898595	-0.148978	0.373050
C153	C	1.148134	-0.813327	-0.378661
C154	C	1.398134	-0.563327	-0.128661
C155	C	1.648134	-0.313327	0.121339
C156	C	1.898134	-0.063327	0.371339
C157	C	1.070128	-0.698387	-0.356914
C158	C	1.320128	-0.448387	-0.106914
C159	C	1.570128	-0.198387	0.143086
C160	C	1.820128	0.051613	0.393086
C161	C	1.070296	-1.014488	-0.356959
C162	C	1.320296	-0.764488	-0.106959
C163	C	1.570296	-0.514488	0.143041
C164	C	1.820296	-0.264488	0.393041
C165	C	1.263326	-0.356844	-0.356954
C166	C	1.513326	-0.106844	-0.106954
C167	C	1.763326	0.143156	0.143046
C168	C	2.013326	0.393156	0.393046
C169	C	1.345640	-0.356857	-0.356971
C170	C	1.595640	-0.106857	-0.106971
C171	C	1.845640	0.143143	0.143029
C172	C	2.095640	0.393143	0.393029
C173	C	1.070208	-0.356746	-0.550077
C174	C	1.320208	-0.106746	-0.300077
C175	C	1.570208	0.143254	-0.050077
C176	C	1.820208	0.393254	0.199923
C177	C	1.070227	-0.356717	-0.632391
C178	C	1.320227	-0.106717	-0.382391
C179	C	1.570227	0.143283	-0.132391
C180	C	1.820227	0.393283	0.117609
C181	C	1.070284	-0.163652	-0.356953
C182	C	1.320284	0.086348	-0.106953
C183	C	1.570284	0.336348	0.143047
C184	C	1.820284	0.586348	0.393047
C185	C	1.070335	-0.081337	-0.356970
C186	C	1.320335	0.168663	-0.106970
C187	C	1.570335	0.418663	0.143030
C188	C	1.820335	0.668663	0.393030
C189	C	1.070267	-0.356671	-0.931483
C190	C	1.320267	-0.106671	-0.681483
C191	C	1.570267	0.143329	-0.431483
C192	C	1.820267	0.393329	-0.181483
C193	C	1.127724	-0.299648	-0.900180
C194	C	1.377724	-0.049648	-0.650180
C195	C	1.627724	0.200352	-0.400180
C196	C	1.877724	0.450352	-0.150180
C197	C	1.127545	-0.299437	-0.814562
C198	C	1.377545	-0.049437	-0.564562
C199	C	1.627545	0.200563	-0.314562
C200	C	1.877545	0.450563	-0.064562
C201	C	1.070248	-0.356694	-0.783100
C202	C	1.320248	-0.106694	-0.533100
C203	C	1.570248	0.143306	-0.283100
C204	C	1.820248	0.393306	-0.033100
C205	C	0.992231	-0.335484	-0.814166
C206	C	1.242231	-0.085484	-0.564166
C207	C	1.492231	0.164516	-0.314166
C208	C	1.742231	0.414516	-0.064166
C209	C	0.992575	-0.335057	-0.899811
C210	C	1.242575	-0.085057	-0.649811
C211	C	1.492575	0.164943	-0.399811
C212	C	1.742575	0.414943	-0.149811
C213	C	1.090140	-0.435050	-0.899899
C214	C	1.340140	-0.185050	-0.649899
C215	C	1.590140	0.064950	-0.399899
C216	C	1.840140	0.314950	-0.149899
C217	C	1.091852	-0.434650	-0.814249
C218	C	1.341852	-0.184650	-0.564249
C219	C	1.591852	0.065350	-0.314249
C220	C	1.841852	0.315350	-0.064249
C221	C	1.070232	-0.356708	-0.699240
C222	C	1.320232	-0.106708	-0.449240
C223	C	1.570232	0.143292	-0.199240
C224	C	1.820232	0.393292	0.050760
C225	C	1.070278	-0.356655	-1.015342
C226	C	1.320278	-0.106655	-0.765342
C227	C	1.570278	0.143345	-0.515342
C228	C	1.820278	0.393345	-0.265342
C229	C	1.070163	-0.356827	-0.164505
C230	C	1.320163	-0.106827	0.085495
C231	C	1.570163	0.143173	0.335495
C232	C	1.820163	0.393173	0.585495
C233	C	1.070288	-0.356648	-0.082191
C234	C	1.320288	-0.106648	0.167809
C235	C	1.570288	0.143352	0.417809
C236	C	1.820288	0.393352	0.667809
H237	H	0.633959	-0.277852	-0.450989
H238	H	0.883959	-0.027852	-0.200989
H239	H	1.133959	0.222148	0.049011
H240	H	1.383959	0.472148	0.299011
H241	H	1.088451	-0.919770	-0.235023
H242	H	1.338451	-0.669770	0.014977
H243	H	1.588451	-0.419770	0.264977
H244	H	1.838451	-0.169770	0.514977
H245	H	1.192917	-0.791921	-0.339927
H246	H	1.442917	-0.541921	-0.089927
H247	H	1.692917	-0.291921	0.160073
H248	H	1.942917	-0.041921	0.410073
Cl249	Cl	0.646656	-0.395210	-0.503926
Cl250	Cl	0.896656	-0.145210	-0.253926
Cl251	Cl	1.146656	0.104790	-0.003926
Cl252	Cl	1.396656	0.354790	0.246074
Cl253	Cl	1.107234	-0.209790	-0.782944
Cl254	Cl	1.357234	0.040210	-0.532944
Cl255	Cl	1.607234	0.290210	-0.282944
Cl256	Cl	1.857234	0.540210	-0.032944
Cl257	Cl	0.646670	-0.461248	-0.248053
Cl258	Cl	0.896670	-0.211248	0.001947
Cl259	Cl	1.146670	0.038752	0.251947
Cl260	Cl	1.396670	0.288752	0.501947
Cl261	Cl	0.496689	-0.401656	-0.500844
Cl262	Cl	0.746689	-0.151656	-0.250844
Cl263	Cl	0.996689	0.098344	-0.000844
Cl264	Cl	1.246689	0.348344	0.249156
H265	H	1.191127	-0.919234	-0.335170
H266	H	1.441127	-0.669234	-0.085170
H267	H	1.691127	-0.419234	0.164830
H268	H	1.941127	-0.169234	0.414830
H269	H	1.026255	-0.919850	-0.472374
H270	H	1.276255	-0.669850	-0.222374
H271	H	1.526255	-0.419850	0.027626
H272	H	1.776255	-0.169850	0.277626
H273	H	1.089314	-0.793038	-0.234972
H274	H	1.339314	-0.543038	0.015028
H275	H	1.589314	-0.293038	0.265028
H276	H	1.839314	-0.043038	0.515028
H277	H	1.185396	-0.312720	-0.793559
H278	H	1.435396	-0.062720	-0.543559
H279	H	1.685396	0.187280	-0.293559
H280	H	1.935396	0.437280	-0.043559
H281	H	0.992382	-0.792013	-0.261633
H282	H	1.242382	-0.542013	-0.011633
H283	H	1.492382	-0.292013	0.238367
H284	H	1.742382	-0.042013	0.488367
H285	H	0.506392	-0.281101	-0.454725
H286	H	0.756392	-0.031101	-0.204725
H287	H	1.006392	0.218899	0.045275
H288	H	1.256392	0.468899	0.295275
H289	H	0.507101	-0.241309	-0.313215
H290	H	0.757101	0.008691	-0.063215
H291	H	1.007101	0.258691	0.186785
H292	H	1.257101	0.508691	0.436785
Cl293	Cl	1.033301	-0.781158	-0.503487
Cl294	Cl	1.283301	-0.531158	-0.253487
Cl295	Cl	1.533301	-0.281158	-0.003487
Cl296	Cl	1.783301	-0.031158	0.246513
H297	H	0.506122	-0.312301	-0.242242
H298	H	0.756122	-0.062301	0.007758
H299	H	1.006122	0.187699	0.257758
H300	H	1.256122	0.437699	0.507758
Cl301	Cl	1.031934	-0.503773	-0.781188
Cl302	Cl	1.281934	-0.253773	-0.531188
Cl303	Cl	1.531934	-0.003773	-0.281188
Cl304	Cl	1.781934	0.246227	-0.031188
H305	H	0.955450	-0.920888	-0.401230
H306	H	1.205450	-0.670888	-0.151230
H307	H	1.455450	-0.420888	0.098770
H308	H	1.705450	-0.170888	0.348770
H309	H	0.954826	-0.793261	-0.400884
H310	H	1.204826	-0.543261	-0.150884
H311	H	1.454826	-0.293261	0.099116
H312	H	1.704826	-0.043261	0.349116
Cl313	Cl	1.178337	-0.932240	-0.463326
Cl314	Cl	1.428337	-0.682240	-0.213326
Cl315	Cl	1.678337	-0.432240	0.036674
Cl316	Cl	1.928337	-0.182240	0.286674
Cl317	Cl	1.172739	-0.781884	-0.467347
Cl318	Cl	1.422739	-0.531884	-0.217347
Cl319	Cl	1.672739	-0.281884	0.032653
Cl320	Cl	1.922739	-0.031884	0.282653
Cl321	Cl	0.495971	-0.502891	-0.396425
Cl322	Cl	0.745971	-0.252891	-0.146425
Cl323	Cl	0.995971	-0.002891	0.103575
Cl324	Cl	1.245971	0.247109	0.353575
Cl325	Cl	1.025527	-0.500646	-0.931147
Cl326	Cl	1.275527	-0.250646	-0.681147
Cl327	Cl	1.525527	-0.000646	-0.431147
Cl328	Cl	1.775527	0.249354	-0.181147
Cl329	Cl	0.960259	-0.929989	-0.253066
Cl330	Cl	1.210259	-0.679989	-0.003066
Cl331	Cl	1.460259	-0.429989	0.246934
Cl332	Cl	1.710259	-0.179989	0.496934
H333	H	1.185764	-0.312767	-0.920788
H334	H	1.435764	-0.062767	-0.670788
H335	H	1.685764	0.187233	-0.420788
H336	H	1.935764	0.437233	-0.170788
H337	H	1.114736	-0.241908	-0.921715
H338	H	1.364736	0.008092	-0.671715
H339	H	1.614736	0.258092	-0.421715
H340	H	1.864736	0.508092	-0.171715
Cl341	Cl	0.966531	-0.246609	-0.930674
Cl342	Cl	1.216531	0.003391	-0.680674
Cl343	Cl	1.466531	0.253391	-0.430674
Cl344	Cl	1.716531	0.503391	-0.180674
Cl345	Cl	0.924223	-0.396376	-0.931781
Cl346	Cl	1.174223	-0.146376	-0.681781
Cl347	Cl	1.424223	0.103624	-0.431781
Cl348	Cl	1.674223	0.353624	-0.181781
H349	H	0.633743	-0.312604	-0.241661
H350	H	0.883743	-0.062604	0.008339
H351	H	1.133743	0.187396	0.258339
H352	H	1.383743	0.437396	0.508339
Cl353	Cl	0.645044	-0.502742	-0.397619
Cl354	Cl	0.895044	-0.252742	-0.147619
Cl355	Cl	1.145044	-0.002742	0.102381
Cl356	Cl	1.395044	0.247258	0.352381
Cl357	Cl	1.176468	-0.464833	-0.933263
Cl358	Cl	1.426468	-0.214833	-0.683263
Cl359	Cl	1.676468	0.035167	-0.433263
Cl360	Cl	1.926468	0.285167	-0.183263
Cl361	Cl	0.645778	-0.210173	-0.320386
Cl362	Cl	0.895778	0.039827	-0.070386
Cl363	Cl	1.145778	0.289827	0.179614
Cl364	Cl	1.395778	0.539827	0.429614
Cl365	Cl	0.924340	-0.397635	-0.782708
Cl366	Cl	1.174340	-0.147635	-0.532708
Cl367	Cl	1.424340	0.102365	-0.282708
Cl368	Cl	1.674340	0.352365	-0.032708
Cl369	Cl	0.965748	-0.248005	-0.781072
Cl370	Cl	1.215748	0.001995	-0.531072
Cl371	Cl	1.465748	0.251995	-0.281072
Cl372	Cl	1.715748	0.501995	-0.031072
Cl373	Cl	1.180497	-0.459343	-0.782907
Cl374	Cl	1.430497	-0.209343	-0.532907
Cl375	Cl	1.680497	0.040657	-0.282907
Cl376	Cl	1.930497	0.290657	-0.032907
H377	H	0.507956	-0.451326	-0.277877
H378	H	0.757956	-0.201326	-0.027877
H379	H	1.007956	0.048674	0.222123
H380	H	1.257956	0.298674	0.472123
