data_functionalizedCrystal
_audit_creation_method	'MofGen! by Chris Wilmer'
_symmetry_space_group_name_H-M	'P1'
_symmetry_Int_Tables_number	1
_symmetry_cell_setting	triclinic
loop_
_symmetry_equiv_pos_as_xyz
  x,y,z
_cell_length_a	19.121241
_cell_length_b	19.121449
_cell_length_c	19.076919
_cell_angle_alpha	90.071082
_cell_angle_beta	90.260442
_cell_angle_gamma	89.915403
loop_
_atom_site_label
_atom_site_type_symbol
_atom_site_fract_x
_atom_site_fract_y
_atom_site_fract_z
Zn1	Zn	1.067104	-0.251552	0.432899
Zn2	Zn	1.567104	0.248448	0.932899
Zn3	Zn	1.076698	-0.363700	0.310824
Zn4	Zn	1.576698	0.136300	0.810824
Zn5	Zn	0.954562	-0.251452	0.310403
Zn6	Zn	1.454562	0.248548	0.810403
Zn7	Zn	0.955211	-0.373326	0.422866
Zn8	Zn	1.455211	0.126674	0.922866
O9	O	1.013394	-0.310008	0.369248
O10	O	1.513394	0.189992	0.869248
O11	O	1.166318	-0.262443	0.421081
O12	O	1.666318	0.237557	0.921081
O13	O	1.064240	-0.344740	0.212613
O14	O	1.564240	0.155260	0.712613
O15	O	0.965205	-0.153526	0.330675
O16	O	1.465205	0.346474	0.830675
O17	O	1.173367	-0.344837	0.331393
O18	O	1.673367	0.155163	0.831393
O19	O	1.047888	-0.153600	0.420673
O20	O	1.547888	0.346400	0.920673
O21	O	0.974507	-0.262272	0.212304
O22	O	1.474507	0.237728	0.712304
O23	O	0.856707	-0.271605	0.320946
O24	O	1.356707	0.228395	0.820946
O25	O	0.966310	-0.361243	0.522351
O26	O	1.466310	0.138757	1.022351
O27	O	0.857184	-0.361146	0.403572
O28	O	1.357184	0.138854	0.903572
O29	O	1.048517	-0.271776	0.529723
O30	O	1.548517	0.228224	1.029723
O31	O	1.064869	-0.462916	0.321664
O32	O	1.564869	0.037084	0.821664
O33	O	0.975613	-0.469989	0.403980
O34	O	1.475613	0.030011	0.903980
C35	C	0.831550	-0.317410	0.361125
C36	C	1.331550	0.182590	0.861125
C37	C	0.753757	-0.320594	0.357666
C38	C	1.253757	0.179406	0.857666
C39	C	0.713541	-0.279265	0.402802
C40	C	1.213541	0.220735	0.902802
C41	C	0.640446	-0.282254	0.399546
C42	C	1.140446	0.217746	0.899546
C43	C	0.607568	-0.326575	0.351156
C44	C	1.107568	0.173425	0.851156
C45	C	0.647790	-0.367905	0.306015
C46	C	1.147790	0.132095	0.806015
C47	C	0.720883	-0.364912	0.309268
C48	C	1.220883	0.135088	0.809268
C49	C	0.387056	-0.337749	0.338991
C50	C	0.887056	0.162251	0.838991
C51	C	0.313957	-0.340740	0.335742
C52	C	0.813957	0.159260	0.835742
C53	C	0.306618	-0.255087	0.429272
C54	C	0.806618	0.244913	0.929272
C55	C	0.379713	-0.252102	0.432524
C56	C	0.879713	0.247898	0.932524
C57	C	0.419929	-0.293429	0.387381
C58	C	0.919929	0.206571	0.887381
C59	C	0.532853	-0.329632	0.347828
C60	C	1.032853	0.170368	0.847828
C61	C	0.494642	-0.290368	0.390706
C62	C	0.994642	0.209632	0.890706
C63	C	1.021371	-0.491847	0.361795
C64	C	1.521371	0.008153	0.861795
C65	C	1.024847	-0.569637	0.358633
C66	C	1.524847	-0.069637	0.858633
C67	C	0.979980	-0.609890	0.399967
C68	C	1.479980	-0.109890	0.899967
C69	C	0.983249	-0.682981	0.396993
C70	C	1.483249	-0.182981	0.896993
C71	C	1.031389	-0.715819	0.352689
C72	C	1.531389	-0.215819	0.852689
C73	C	1.076258	-0.675560	0.311350
C74	C	1.576258	-0.175560	0.811350
C75	C	1.072985	-0.602470	0.314321
C76	C	1.572985	-0.102470	0.814321
C77	C	1.043595	-0.936318	0.341574
C78	C	1.543595	-0.436318	0.841574
C79	C	1.046866	-1.009414	0.338608
C80	C	1.546866	-0.509414	0.838608
C81	C	0.953856	-1.016830	0.424250
C82	C	1.453856	-0.516830	0.924250
C83	C	0.950590	-0.943738	0.427220
C84	C	1.450590	-0.443738	0.927220
C85	C	0.995456	-0.903486	0.385879
C86	C	1.495456	-0.403486	0.885879
C87	C	1.034733	-0.790530	0.349649
C88	C	1.534733	-0.290530	0.849649
C89	C	0.992108	-0.828776	0.388914
C90	C	1.492108	-0.328776	0.888914
C91	C	1.195947	-0.302577	0.377403
C92	C	1.695947	0.197423	0.877403
C93	C	1.273741	-0.299411	0.380879
C94	C	1.773741	0.200589	0.880879
C95	C	1.006416	-0.317595	0.552199
C96	C	1.506416	0.182405	1.052199
C97	C	1.003443	-0.320828	0.630162
C98	C	1.503443	0.179172	1.130162
C99	C	1.005404	-0.127459	0.376746
C100	C	1.505404	0.372541	0.876746
C101	C	1.001999	-0.049667	0.379941
C102	C	1.501999	0.450333	0.879941
C103	C	1.020382	-0.302398	0.187012
C104	C	1.520382	0.197602	0.687012
C105	C	1.023483	-0.298963	0.109064
C106	C	1.523483	0.201037	0.609064
C107	C	1.044844	-0.275768	0.670628
C108	C	1.544844	0.224232	1.170628
C109	C	1.042042	-0.278804	0.743882
C110	C	1.542042	0.221196	1.243882
C111	C	0.997841	-0.326903	0.776669
C112	C	1.497841	0.173097	1.276669
C113	C	0.956435	-0.371964	0.736198
C114	C	1.456435	0.128036	1.236198
C115	C	0.959234	-0.368925	0.662945
C116	C	1.459234	0.131075	1.162945
C117	C	0.984876	-0.340985	0.995340
C118	C	1.484876	0.159015	1.495340
C119	C	0.982081	-0.344022	1.068598
C120	C	1.482081	0.155978	1.568598
C121	C	1.067688	-0.250860	1.076278
C122	C	1.567688	0.249140	1.576278
C123	C	1.070486	-0.247828	1.003023
C124	C	1.570486	0.252172	1.503023
C125	C	1.029077	-0.292887	0.962558
C126	C	1.529077	0.207113	1.462558
N127	N	0.994977	-0.330008	0.851547
N128	N	1.494977	0.169992	1.351547
N129	N	1.031938	-0.289778	0.887682
N130	N	1.531938	0.210222	1.387682
H131	H	0.419791	-0.371401	0.302232
H132	H	0.919791	0.128599	0.802232
Br133	Br	1.123881	-0.189711	1.131198
Br134	Br	1.623881	0.310289	1.631198
Br135	Br	0.252037	-0.199003	0.490535
Br136	Br	0.752037	0.300997	0.990535
H137	H	1.086071	-1.036147	0.302531
H138	H	1.586071	-0.536147	0.802531
Br139	Br	1.130478	-0.182551	0.958532
Br140	Br	1.630478	0.317449	1.458532
H141	H	0.951168	-0.377685	0.962401
H142	H	1.451168	0.122315	1.462401
H143	H	0.925513	-0.405610	0.629998
H144	H	1.425513	0.094390	1.129998
H145	H	1.080840	-0.236603	0.643939
H146	H	1.580840	0.263397	1.143939
Br147	Br	0.896442	-0.437238	0.780693
Br148	Br	1.396442	0.062762	1.280693
Br149	Br	0.892969	-1.071461	0.480351
Br150	Br	1.392969	-0.571461	0.980351
Br151	Br	0.775464	-0.421002	0.248009
Br152	Br	1.275464	0.078998	0.748009
H153	H	1.080128	-0.903551	0.307914
H154	H	1.580128	-0.403551	0.807914
H155	H	0.952910	-0.802038	0.424984
H156	H	1.452910	-0.302038	0.924984
H157	H	0.911391	-0.917004	0.463296
H158	H	1.411391	-0.417004	0.963296
Br159	Br	0.922088	-0.409301	1.113094
Br160	Br	1.422088	0.090699	1.613094
Br161	Br	0.539262	-0.230216	0.456372
Br162	Br	1.039262	0.269784	0.956372
H163	H	0.740304	-0.243176	0.442208
H164	H	1.240304	0.256824	0.942208
Br165	Br	0.424328	-0.191957	0.498205
Br166	Br	0.924328	0.308043	0.998205
Br167	Br	1.141590	-0.720124	0.251221
Br168	Br	1.641590	-0.220124	0.751221
Br169	Br	0.603171	-0.428050	0.240337
Br170	Br	1.103171	0.071950	0.740337
Br171	Br	0.922362	-0.737609	0.453098
Br172	Br	1.422362	-0.237609	0.953098
H173	H	0.607704	-0.248601	0.436302
H174	H	1.107704	0.251399	0.936302
H175	H	0.506076	-0.365718	0.308429
H176	H	1.006076	0.134282	0.808429
H177	H	0.940783	-0.583159	0.436047
H178	H	1.440783	-0.083159	0.936047
Br179	Br	0.269338	-0.400915	0.270086
Br180	Br	0.769338	0.099085	0.770086
Br181	Br	1.133872	-0.547839	0.258216
Br182	Br	1.633872	-0.047839	0.758216
Br183	Br	1.098266	-0.217680	0.798799
Br184	Br	1.598266	0.282320	1.298799
H185	H	1.073929	-0.817274	0.313577
H186	H	1.573929	-0.317274	0.813577
