data_functionalizedCrystal
_audit_creation_method	'MofGen! by Chris Wilmer'
_symmetry_space_group_name_H-M	'P1'
_symmetry_Int_Tables_number	1
_symmetry_cell_setting	triclinic
loop_
_symmetry_equiv_pos_as_xyz
  x,y,z
_cell_length_a	12.811449
_cell_length_b	11.295675
_cell_length_c	12.837942
_cell_angle_alpha	85.464514
_cell_angle_beta	89.411771
_cell_angle_gamma	88.700384
loop_
_atom_site_label
_atom_site_type_symbol
_atom_site_fract_x
_atom_site_fract_y
_atom_site_fract_z
O1	O	-1.390613	0.249195	-0.157175
O2	O	-1.088646	0.216588	-0.170075
O3	O	-1.232934	0.232161	-0.012642
O4	O	-1.246325	0.233622	-0.314608
O5	O	-1.245576	0.035481	0.001165
O6	O	-1.101288	0.019908	-0.156268
O7	O	-1.403256	0.052515	-0.143368
Cu8	Cu	-1.253426	0.018253	-0.148558
Cu9	Cu	-1.238475	0.250850	-0.164886
O10	O	-1.258967	0.036942	-0.300802
C11	C	-1.056048	0.114045	-0.162025
C12	C	-0.940081	0.101523	-0.158598
C13	C	-0.783521	-0.023331	-0.146241
C14	C	-0.892483	-0.011570	-0.149462
C15	C	-0.878708	0.202862	-0.164516
C16	C	-0.769746	0.191101	-0.161295
C17	C	-0.722157	0.078001	-0.152156
C18	C	-0.613193	0.066241	-0.148928
C19	C	-0.599420	0.280673	-0.163989
C20	C	-0.708382	0.292434	-0.167209
N21	N	-1.263949	-0.145342	-0.137073
C22	C	-1.152093	-0.406758	-0.259085
C23	C	-1.160068	-0.530557	-0.250397
C24	C	-1.287881	-0.516741	-0.111013
C25	C	-1.279906	-0.392942	-0.119702
C26	C	-1.212008	-0.337955	-0.193739
C27	C	-1.204027	-0.214155	-0.202422
C28	C	-1.331845	-0.200340	-0.063044
C29	C	-1.339821	-0.324139	-0.054356
C30	C	-0.435853	0.155058	-0.151418
C31	C	-0.551821	0.167581	-0.154846
C32	C	-1.234731	0.133333	0.032936
C33	C	-1.221239	0.131878	0.148174
N34	N	-1.227959	0.414446	-0.176362
C35	C	-1.257170	0.135772	-0.346379
C36	C	-1.270662	0.137235	-0.461618
C37	C	-1.383440	0.149418	0.387196
C38	C	-1.370768	0.148052	0.495473
C39	C	-1.183222	0.127788	0.473006
C40	C	-1.195894	0.129154	0.364729
C41	C	-1.296007	0.139968	0.321829
C42	C	-1.308679	0.141326	0.213550
C43	C	-1.121133	0.121070	0.191084
C44	C	-1.108461	0.119704	0.299361
H45	H	-0.747144	0.384517	-0.174654
C46	C	-1.078234	-0.347004	-0.339296
C47	C	-1.004322	-0.283459	-0.288194
C48	C	-0.936256	-0.228414	-0.362049
H49	H	-1.116792	-0.294101	-0.386393
H50	H	-1.043624	-0.405683	-0.376954
H51	H	-1.038928	-0.224786	-0.250553
H52	H	-0.965739	-0.336334	-0.241103
H53	H	-0.901646	-0.287093	-0.399707
H54	H	-0.974823	-0.175517	-0.409142
H55	H	-0.886093	-0.185301	-0.327386
H56	H	-1.049939	0.113366	0.137850
C57	C	-1.465616	0.158116	0.566582
C58	C	-1.470316	0.056751	0.636528
C59	C	-1.557672	0.065990	0.702058
H60	H	-1.527128	0.164700	0.525655
H61	H	-1.460162	0.226556	0.604532
H62	H	-1.475779	-0.011670	0.598581
H63	H	-1.408825	0.050147	0.677478
H64	H	-1.552217	0.134430	0.740008
H65	H	-1.619177	0.072577	0.661122
H66	H	-1.560867	-0.002778	0.749530
H67	H	-0.942442	-0.094086	-0.144649
H68	H	-1.390196	0.150127	0.178623
H69	H	-1.101713	0.118996	0.507954
H70	H	-0.917474	0.294943	-0.171966
C71	C	-1.413353	-0.383934	0.026153
C72	C	-1.356064	-0.461681	0.095373
C73	C	-1.423761	-0.516772	0.169563
H74	H	-1.463602	-0.427224	-0.008202
H75	H	-1.447875	-0.325268	0.063895
H76	H	-1.321559	-0.520338	0.057635
H77	H	-1.305818	-0.418419	0.129753
H78	H	-1.458284	-0.458106	0.207305
H79	H	-1.474007	-0.560056	0.135199
H80	H	-1.384900	-0.569521	0.216543
H81	H	-0.744773	-0.115422	-0.138806
C82	C	-1.094886	-0.605058	-0.321400
C83	C	-1.033701	-0.530401	-0.388076
C84	C	-0.973629	-0.598990	-0.453491
H85	H	-1.139682	-0.648847	-0.361779
H86	H	-1.050825	-0.658429	-0.280159
H87	H	-1.077757	-0.477051	-0.429312
H88	H	-0.988884	-0.486612	-0.347725
H89	H	-0.929569	-0.652361	-0.412251
H90	H	-1.018434	-0.642776	-0.493864
H91	H	-0.932101	-0.548347	-0.498732
H92	H	-0.549445	0.363185	-0.168808
C93	C	-0.999862	0.107909	0.346148
C94	C	-1.007476	0.108707	0.454966
C95	C	-0.907457	0.097823	0.498100
H96	H	-0.958903	0.172523	0.319085
H97	H	-0.967813	0.035351	0.328668
H98	H	-1.039510	0.181256	0.472437
H99	H	-1.048416	0.044095	0.482058
H100	H	-0.875407	0.025265	0.480620
H101	H	-0.866506	0.162439	0.471029
H102	H	-0.912610	0.098352	0.571937
H103	H	-1.148739	-0.169386	-0.262704
H104	H	-1.343169	-0.561527	-0.050741
C105	C	-0.561715	-0.056652	-0.139057
C106	C	-0.638782	-0.142875	-0.134598
C107	C	-0.591404	-0.256100	-0.125523
H108	H	-0.521452	-0.065663	-0.077103
H109	H	-0.517572	-0.065964	-0.197898
H110	H	-0.682908	-0.133567	-0.075763
H111	H	-0.679051	-0.133904	-0.196545
H112	H	-0.547260	-0.265412	-0.184363
H113	H	-0.551141	-0.265098	-0.063568
H114	H	-0.643686	-0.314616	-0.122505
H115	H	-1.380629	-0.144307	-0.009832
H116	H	-1.464957	0.158212	0.352268
