data_functionalizedCrystal
_audit_creation_method	'MofGen! by Chris Wilmer'
_symmetry_space_group_name_H-M	'P1'
_symmetry_Int_Tables_number	1
_symmetry_cell_setting	triclinic
loop_
_symmetry_equiv_pos_as_xyz
  x,y,z
_cell_length_a	15.944493
_cell_length_b	17.019294
_cell_length_c	14.421503
_cell_angle_alpha	86.125318
_cell_angle_beta	89.992936
_cell_angle_gamma	83.434588
loop_
_atom_site_label
_atom_site_type_symbol
_atom_site_fract_x
_atom_site_fract_y
_atom_site_fract_z
O1	O	1.114433	0.101508	-0.085203
O2	O	1.614433	0.601508	0.414797
O3	O	0.869860	0.114099	-0.086213
O4	O	1.369860	0.614099	0.413787
O5	O	0.998969	-0.007029	-0.076534
O6	O	1.498969	0.492971	0.423466
O7	O	0.985324	0.222636	-0.094882
O8	O	1.485324	0.722636	0.405118
O9	O	0.998947	-0.007011	0.077688
O10	O	1.498947	0.492989	0.577688
O11	O	0.869839	0.114117	0.068009
O12	O	1.369839	0.614117	0.568009
O13	O	1.114411	0.101527	0.069019
O14	O	1.614411	0.601527	0.569019
Cu15	Cu	0.992123	0.107824	0.082596
Cu16	Cu	1.492123	0.607824	0.582596
Cu17	Cu	0.992148	0.107802	-0.099790
Cu18	Cu	1.492148	0.607802	0.400210
O19	O	0.985303	0.222654	0.059340
O20	O	1.485303	0.722654	0.559340
C21	C	0.838556	0.113594	-0.009061
C22	C	1.338556	0.613594	0.490939
C23	C	0.745309	0.112051	-0.008940
C24	C	1.245309	0.612051	0.491060
C25	C	0.509460	0.183350	-0.014637
C26	C	1.009460	0.683350	0.485363
C27	C	0.458939	0.144910	0.064479
C28	C	0.958939	0.644910	0.564479
C29	C	0.574591	0.109192	-0.008710
C30	C	1.074591	0.609192	0.491290
C31	C	0.458965	0.144875	-0.087571
C32	C	0.958965	0.644875	0.412429
C33	C	0.409685	0.106436	-0.008492
C34	C	0.909685	0.606436	0.491508
C35	C	0.525299	0.070773	0.070467
C36	C	1.025299	0.570773	0.570467
C37	C	0.525328	0.070748	-0.081652
C38	C	1.025328	0.570748	0.418348
C39	C	0.474840	0.032254	-0.002514
C40	C	0.974840	0.532254	0.497486
C41	C	0.669589	0.110782	-0.008835
C42	C	1.169589	0.610782	0.491165
C43	C	0.314690	0.104841	-0.008360
C44	C	0.814690	0.604841	0.491640
C45	C	0.998440	-0.036408	0.002923
C46	C	1.498440	0.463592	0.502923
C47	C	0.996887	-0.123978	0.009912
C48	C	1.496887	0.376022	0.509912
C49	C	0.996172	-0.165123	-0.070870
C50	C	1.496172	0.334877	0.429130
C51	C	0.994707	-0.247403	-0.064299
C52	C	1.494707	0.252597	0.435701
C53	C	0.993965	-0.288537	0.023054
C54	C	1.493965	0.211463	0.523054
C55	C	0.994678	-0.247385	0.103842
C56	C	1.494678	0.252615	0.603842
C57	C	0.996137	-0.165106	0.097271
C58	C	1.496137	0.334894	0.597271
C59	C	0.989556	-0.536966	0.047102
C60	C	1.489556	-0.036966	0.547102
C61	C	0.988100	-0.619251	0.053667
C62	C	1.488100	-0.119251	0.553667
C63	C	0.988127	-0.619263	-0.114475
C64	C	1.488127	-0.119263	0.385525
C65	C	0.989591	-0.536983	-0.121039
C66	C	1.489591	-0.036983	0.378961
C67	C	0.990300	-0.495838	-0.040251
C68	C	1.490300	0.004162	0.459749
C69	C	0.992471	-0.372640	0.029773
C70	C	1.492471	0.127360	0.529773
C71	C	0.991788	-0.411735	-0.046970
C72	C	1.491788	0.088265	0.453030
C73	C	1.145716	0.102032	-0.008135
C74	C	1.645716	0.602032	0.491865
C75	C	1.238963	0.103575	-0.008263
C76	C	1.738963	0.603575	0.491737
C77	C	0.985831	0.252034	-0.020119
C78	C	1.485831	0.752034	0.479881
C79	C	0.987384	0.339603	-0.027115
C80	C	1.487384	0.839603	0.472885
N81	N	0.992111	0.107838	0.210876
N82	N	1.492111	0.607838	0.710876
N83	N	0.992167	0.107782	-0.228069
N84	N	1.492167	0.607782	0.271931
C85	C	0.932401	0.163823	0.456056
C86	C	1.432401	0.663823	0.956056
C87	C	1.008284	0.179122	0.516638
C88	C	1.508284	0.679122	1.016638
C89	C	0.992132	0.107819	0.400039
C90	C	1.492132	0.607819	0.900039
C91	C	0.916269	0.092538	0.523549
C92	C	1.416269	0.592538	1.023549
C93	C	0.992145	0.107803	0.582761
C94	C	1.492145	0.607803	1.082761
C95	C	1.068053	0.123154	0.459257
C96	C	1.568053	0.623154	0.959257
C97	C	0.975987	0.036539	0.466165
C98	C	1.475987	0.536539	0.966165
C99	C	1.051925	0.051809	0.526722
C100	C	1.551925	0.551809	1.026722
C101	C	0.992123	0.107831	0.294776
C102	C	1.492123	0.607831	0.794776
C103	C	0.992162	0.107791	0.688021
C104	C	1.492162	0.607791	1.188021
H105	H	0.429953	0.176235	0.126265
H106	H	0.929953	0.676235	0.626265
Cl107	Cl	0.569848	0.022463	0.173685
Cl108	Cl	1.069848	0.522463	0.673685
Cl109	Cl	0.451075	-0.066441	0.005438
Cl110	Cl	0.951075	0.433559	0.505438
Cl111	Cl	0.997035	-0.113380	0.198830
Cl112	Cl	1.497035	0.386620	0.698830
H113	H	1.132229	0.136144	0.431166
H114	H	1.632229	0.636144	0.931166
H115	H	0.852107	0.079621	0.551750
H116	H	1.352107	0.579621	1.051750
Cl117	Cl	0.570109	0.022429	-0.177054
Cl118	Cl	1.070109	0.522429	0.322946
Cl119	Cl	1.130002	-0.021326	0.574148
Cl120	Cl	1.630002	0.478674	1.074148
Cl121	Cl	0.987234	-0.670993	-0.216030
Cl122	Cl	1.487234	-0.170993	0.283970
Cl123	Cl	0.954849	-0.056488	0.431607
Cl124	Cl	1.454849	0.443512	0.931607
Cl125	Cl	0.990434	-0.485250	0.148665
Cl126	Cl	1.490434	0.014750	0.648665
H127	H	0.991869	-0.406141	0.100896
H128	H	1.491869	0.093859	0.600896
Cl129	Cl	0.533469	0.281969	-0.022405
Cl130	Cl	1.033469	0.781969	0.477595
H131	H	0.996781	-0.131639	-0.142002
H132	H	1.496781	0.368361	0.357998
Cl133	Cl	1.029387	0.272177	0.551158
Cl134	Cl	1.529387	0.772177	1.051158
Cl135	Cl	0.854495	0.236998	0.408364
Cl136	Cl	1.354495	0.736998	0.908364
H137	H	0.429996	0.176200	-0.154354
H138	H	0.929996	0.676200	0.345646
H139	H	0.994128	-0.280901	-0.130080
H140	H	1.494128	0.219099	0.369920
Cl141	Cl	0.990526	-0.485278	-0.230859
Cl142	Cl	1.490526	0.014722	0.269141
Cl143	Cl	0.987172	-0.670962	0.163491
Cl144	Cl	1.487172	-0.170962	0.663491
H145	H	0.992386	-0.378240	-0.118093
H146	H	1.492386	0.121760	0.381907
Cl147	Cl	0.993735	-0.299095	0.213659
Cl148	Cl	1.493735	0.200905	0.713659
