data_functionalizedCrystal
_audit_creation_method	'MofGen! by Chris Wilmer'
_symmetry_space_group_name_H-M	'P1'
_symmetry_Int_Tables_number	1
_symmetry_cell_setting	triclinic
loop_
_symmetry_equiv_pos_as_xyz
  x,y,z
_cell_length_a	12.759401
_cell_length_b	12.759394
_cell_length_c	12.759387
_cell_angle_alpha	89.968595
_cell_angle_beta	89.983574
_cell_angle_gamma	90.014998
loop_
_atom_site_label
_atom_site_type_symbol
_atom_site_fract_x
_atom_site_fract_y
_atom_site_fract_z
Zn1	Zn	1.606233	-0.418209	-0.593976
Zn2	Zn	1.606133	-0.593925	-0.418294
Zn3	Zn	1.430541	-0.418262	-0.418316
Zn4	Zn	1.430523	-0.593847	-0.593936
O5	O	1.518358	-0.506061	-0.506130
O6	O	1.753241	-0.441529	-0.570680
O7	O	1.582806	-0.570678	-0.271276
O8	O	1.453896	-0.271233	-0.441643
O9	O	1.753167	-0.570627	-0.441607
O10	O	1.582976	-0.271195	-0.570701
O11	O	1.453800	-0.441618	-0.271292
O12	O	1.283518	-0.441543	-0.441604
O13	O	1.453866	-0.570494	-0.740962
O14	O	1.283505	-0.570545	-0.570631
O15	O	1.582959	-0.441453	-0.740992
O16	O	1.582789	-0.740936	-0.441567
O17	O	1.453769	-0.740879	-0.570610
C18	C	1.245390	-0.506042	-0.506116
C19	C	1.128614	-0.506059	-0.506135
C20	C	1.073772	-0.573338	-0.573208
C21	C	0.964048	-0.573351	-0.573220
C22	C	0.964017	-0.438803	-0.439075
C23	C	1.073739	-0.438785	-0.439070
C24	C	1.073789	-0.651021	-0.650652
C25	C	0.964065	-0.651034	-0.650664
C26	C	1.518295	-0.779028	-0.506105
C27	C	1.518364	-0.895805	-0.506129
C28	C	1.652813	-0.895812	-0.371857
C29	C	1.720065	-0.950676	-0.304734
C30	C	1.720127	-1.060397	-0.304762
C31	C	1.652931	-1.115257	-0.371924
C32	C	1.585679	-1.060393	-0.439047
C33	C	1.585623	-0.950669	-0.439009
C34	C	1.451237	-1.060387	-0.573323
C35	C	1.451168	-0.950665	-0.573291
C36	C	1.384041	-1.115247	-0.640485
C37	C	1.316782	-1.060383	-0.707605
C38	C	1.316723	-0.950655	-0.707572
C39	C	1.383916	-0.895801	-0.640414
C40	C	1.792391	-0.506081	-0.506145
C41	C	1.909167	-0.506090	-0.506152
C42	C	1.518421	-0.505959	-0.780164
C43	C	1.518448	-0.505916	-0.896941
C44	C	1.518450	-0.232027	-0.506179
C45	C	1.518489	-0.115251	-0.506200
C46	C	1.652857	-0.640233	-1.116350
C47	C	1.720004	-0.707449	-1.061470
C48	C	1.719969	-0.707489	-0.951748
C49	C	1.652778	-0.640308	-0.896904
C50	C	1.585630	-0.573092	-0.951783
C51	C	1.585675	-0.573057	-1.061507
C52	C	1.451301	-0.438700	-0.951820
C53	C	1.451339	-0.438653	-1.061542
C54	C	1.384110	-0.371519	-0.896975
C55	C	1.316966	-0.304296	-0.951855
C56	C	1.317004	-0.304258	-1.061583
C57	C	1.384192	-0.371437	-1.116421
C58	C	1.518355	-0.506086	-0.233163
C59	C	1.518531	-0.505834	-0.116387
H60	H	0.919324	-0.384031	-0.384474
C61	C	1.793836	-0.781428	-0.891379
N62	N	1.849474	-0.837117	-0.845910
H63	H	0.930065	-0.621991	-0.728016
H64	H	1.384234	-0.371408	-1.205763
C65	C	0.923809	-0.760928	-0.621025
N66	N	0.893488	-0.843697	-0.598699
C67	C	1.653008	-1.235954	-0.371957
N68	N	1.653064	-1.326864	-0.371980
H69	H	1.652756	-0.806470	-0.371814
C70	C	1.119747	-0.755384	-0.611093
N71	N	1.154364	-0.833991	-0.581294
H72	H	1.384082	-0.371560	-0.807634
C73	C	1.243069	-0.230399	-0.891519
N74	N	1.187414	-0.174734	-0.846070
H75	H	1.118386	-0.383994	-0.384459
C76	C	1.114060	-0.621734	-0.760634
N77	N	1.144392	-0.599685	-0.843473
H78	H	1.774777	-0.905999	-0.250053
C79	C	1.794106	-1.120749	-0.230923
N80	N	1.849826	-1.166206	-0.175306
C81	C	1.242747	-0.890313	-0.781424
N82	N	1.187028	-0.844867	-0.837052
C83	C	1.384109	-1.235944	-0.640512
N84	N	1.384154	-1.326854	-0.640530
H85	H	1.262082	-1.105059	-0.762287
C86	C	1.243136	-0.230312	-1.121942
N87	N	1.187499	-0.174613	-1.167400
H88	H	1.652902	-0.640197	-1.205691
H89	H	1.383867	-0.806460	-0.640375
H90	H	1.774707	-0.762149	-1.106137
H91	H	1.652747	-0.640355	-0.807562
