data_functionalizedCrystal
_audit_creation_method	'MofGen! by Chris Wilmer'
_symmetry_space_group_name_H-M	'P1'
_symmetry_Int_Tables_number	1
_symmetry_cell_setting	triclinic
loop_
_symmetry_equiv_pos_as_xyz
  x,y,z
_cell_length_a	9.065218
_cell_length_b	9.065218
_cell_length_c	10.868271
_cell_angle_alpha	90.002492
_cell_angle_beta	90.003238
_cell_angle_gamma	94.984115
loop_
_atom_site_label
_atom_site_type_symbol
_atom_site_fract_x
_atom_site_fract_y
_atom_site_fract_z
O1	O	1.960382	-0.216358	-0.102351
O2	O	1.531098	-0.234104	-0.102346
O3	O	1.754613	-0.010588	-0.102346
O4	O	1.736867	-0.439873	-0.102351
O5	O	1.754632	-0.010580	0.102299
O6	O	1.531116	-0.234095	0.102299
O7	O	1.960401	-0.216349	0.102293
Zn8	Zn	1.745762	-0.225221	0.134788
Zn9	Zn	1.745737	-0.225232	-0.134840
O10	O	1.736885	-0.439864	0.102294
C11	C	1.476120	-0.232394	-0.000023
C12	C	1.312277	-0.227294	-0.000021
N13	N	1.745721	-0.225229	-0.318854
C14	C	1.752917	0.044403	-0.000026
C15	C	1.747817	0.208245	-0.000032
C16	C	2.015378	-0.218059	-0.000032
C17	C	2.179221	-0.223158	-0.000042
C18	C	1.738582	-0.494855	-0.000029
C19	C	1.743681	-0.658698	-0.000032
C20	C	1.745731	-0.225229	-0.430192
C21	C	1.745759	-0.225224	-0.569869
N22	N	1.745789	-0.225212	0.318802
