data_functionalizedCrystal
_audit_creation_method	'MofGen! by Chris Wilmer'
_symmetry_space_group_name_H-M	'P1'
_symmetry_Int_Tables_number	1
_symmetry_cell_setting	triclinic
loop_
_symmetry_equiv_pos_as_xyz
  x,y,z
_cell_length_a	19.288864
_cell_length_b	10.489741
_cell_length_c	17.766277
_cell_angle_alpha	89.993969
_cell_angle_beta	89.976791
_cell_angle_gamma	83.837710
loop_
_atom_site_label
_atom_site_type_symbol
_atom_site_fract_x
_atom_site_fract_y
_atom_site_fract_z
O1	O	0.922420	0.159110	-0.062835
O2	O	0.720303	0.180573	-0.062784
O3	O	0.825961	-0.015860	-0.062806
O4	O	0.816763	0.355544	-0.062813
O5	O	0.825942	-0.015870	0.062382
O6	O	0.720285	0.180564	0.062405
O7	O	0.922401	0.159100	0.062353
Cu8	Cu	0.821341	0.169831	0.073810
Cu9	Cu	0.821363	0.169843	-0.074240
O10	O	0.816744	0.355534	0.062375
C11	C	0.694413	0.179878	-0.000183
C12	C	0.617295	0.177805	-0.000163
C13	C	0.573372	0.293063	-0.000177
C14	C	0.500912	0.291115	-0.000186
C15	C	0.472378	0.173903	-0.000195
C16	C	0.516311	0.058629	-0.000177
C17	C	0.588770	0.060580	-0.000161
C18	C	0.363505	0.081764	-0.044078
C19	C	0.291047	0.079818	-0.044098
C20	C	0.248892	0.167880	-0.000240
C21	C	0.279202	0.257911	0.043628
C22	C	0.351661	0.259862	0.043644
C23	C	0.393810	0.171774	-0.000212
C24	C	0.126399	0.281035	-0.000262
C25	C	0.053938	0.279082	-0.000266
C26	C	0.069339	0.046593	-0.000265
C27	C	0.141798	0.048549	-0.000254
C28	C	0.170324	0.165773	-0.000256
C29	C	0.825257	-0.063381	-0.000212
C30	C	0.823178	-0.204964	-0.000213
C31	C	0.755951	-0.271583	-0.000202
C32	C	0.787699	-0.364429	0.061515
C33	C	0.787734	-0.364394	-0.061911
C34	C	0.854954	-0.295944	0.061554
C35	C	0.854979	-0.295900	-0.061927
C36	C	0.886776	-0.388719	-0.000196
C37	C	0.948292	0.159796	-0.000249
C38	C	1.025409	0.161869	-0.000274
C39	C	0.817448	0.403055	-0.000220
C40	C	0.819526	0.544637	-0.000224
N41	N	0.821331	0.169822	0.177940
N42	N	0.821379	0.169842	-0.178371
C43	C	0.868131	0.082883	0.217317
C44	C	0.868135	0.082878	0.296119
C45	C	0.821345	0.169832	0.335540
C46	C	0.774536	0.256777	0.296154
C47	C	0.774528	0.256772	0.217354
C48	C	0.812826	0.286045	0.460378
C49	C	0.812838	0.286051	0.539177
C50	C	0.821364	0.169847	0.578587
C51	C	0.829892	0.053631	0.539188
C52	C	0.829885	0.053626	0.460388
C53	C	0.821348	0.169847	0.420986
C54	C	0.868171	0.082895	0.703410
C55	C	0.868171	0.082888	0.782213
C56	C	0.774575	0.256798	0.782247
C57	C	0.774572	0.256795	0.703445
C58	C	0.821374	0.169845	0.664031
H59	H	0.244881	0.329619	0.079342
O60	O	0.261683	-0.007585	-0.086818
C61	C	0.278308	0.009717	-0.163170
H62	H	0.327674	0.060122	-0.167246
H63	H	0.287259	-0.087647	-0.192118
H64	H	0.233434	0.070665	-0.191885
O65	O	0.458163	0.402997	-0.000304
C66	C	0.415841	0.408823	-0.065162
H67	H	0.411689	0.307601	-0.086772
H68	H	0.361618	0.456640	-0.050598
H69	H	0.439991	0.466936	-0.110560
H70	H	0.596592	0.388516	-0.000181
O71	O	0.153999	0.395012	-0.000223
C72	C	0.099689	0.496329	-0.000248
H73	H	0.050283	0.460858	0.023445
H74	H	0.115222	0.578186	0.036101
H75	H	0.089645	0.531870	-0.060309
H76	H	0.805898	0.380681	0.571249
O77	O	0.729113	0.341419	0.334361
C78	C	0.741036	0.467629	0.315099
H79	H	0.767802	0.467343	0.257871
H80	H	0.689140	0.530680	0.312425
H81	H	0.775806	0.506919	0.359426
H82	H	0.906279	0.012085	0.814274
H83	H	0.906239	0.012081	0.185228
O84	O	0.631470	-0.051353	-0.000021
C85	C	0.673825	-0.057172	0.064812
H86	H	0.647597	0.008197	0.110126
H87	H	0.681448	-0.159960	0.086574
H88	H	0.726677	-0.024458	0.050160
H89	H	0.376336	0.333164	0.079366
H90	H	0.736475	0.327593	0.814343
H91	H	0.018175	0.372944	-0.000273
O92	O	0.690001	-0.210907	0.000018
C93	C	0.654801	-0.245629	0.065221
H94	H	0.694500	-0.279258	0.110471
H95	H	0.619500	-0.159196	0.086771
H96	H	0.621941	-0.326508	0.051145
H97	H	0.836835	-0.040993	0.571274
O98	O	0.888904	-0.259401	-0.124134
C99	C	0.890923	-0.125455	-0.122894
H100	H	0.884879	-0.089331	-0.062484
H101	H	0.942943	-0.101461	-0.146478
H102	H	0.846581	-0.077263	-0.158717
H103	H	0.046108	-0.048844	-0.000319
O104	O	0.753902	-0.400543	-0.124237
C105	C	0.788768	-0.363883	-0.189221
H106	H	0.845360	-0.352630	-0.174743
H107	H	0.787035	-0.440588	-0.234431
H108	H	0.762104	-0.268790	-0.211038
H109	H	0.759246	-0.394801	0.113706
O110	O	0.804574	0.399051	0.422215
C111	C	0.797043	0.501621	0.473884
H112	H	0.821296	0.468668	0.530047
H113	H	0.824453	0.584599	0.451096
H114	H	0.739292	0.534538	0.482287
H115	H	0.906247	0.012079	0.328185
O116	O	0.184499	-0.063380	-0.000118
C117	C	0.226852	-0.069202	0.064716
H118	H	0.200622	-0.003836	0.110031
H119	H	0.234474	-0.171992	0.086477
H120	H	0.279705	-0.036488	0.050068
H121	H	0.397823	0.010050	-0.079797
O122	O	0.729164	0.341289	0.179017
C123	C	0.766750	0.419824	0.133428
H124	H	0.820844	0.368769	0.121600
H125	H	0.737859	0.440140	0.078028
H126	H	0.771940	0.514068	0.163789
O127	O	0.838140	-0.059372	0.422233
C128	C	0.845686	-0.161943	0.473907
H129	H	0.821439	-0.128997	0.530091
H130	H	0.818279	-0.244929	0.451159
H131	H	0.903439	-0.194846	0.482254
O132	O	0.952785	-0.449129	-0.000042
C133	C	0.987953	-0.414216	0.065104
H134	H	0.948237	-0.380724	0.110395
H135	H	1.023361	-0.500509	0.086637
H136	H	1.020700	-0.333185	0.050959
O137	O	0.888916	-0.259809	0.123794
C138	C	0.947545	-0.199354	0.101755
H139	H	0.939394	-0.160191	0.042189
H140	H	0.954646	-0.117160	0.142026
H141	H	0.996003	-0.271823	0.103228
H142	H	0.736465	0.327593	0.671382
O143	O	0.913652	-0.001696	0.665234
C144	C	0.954969	-0.078423	0.716892
H145	H	0.926490	-0.079729	0.773078
H146	H	0.965055	-0.180333	0.694125
H147	H	1.006771	-0.037252	0.725243
O148	O	0.488679	-0.055310	-0.000289
C149	C	0.511093	-0.125531	-0.065129
H150	H	0.561527	-0.091061	-0.086731
H151	H	0.520606	-0.231805	-0.050546
H152	H	0.469272	-0.110510	-0.110541
