data_functionalizedCrystal
_audit_creation_method	'MofGen! by Chris Wilmer'
_symmetry_space_group_name_H-M	'P1'
_symmetry_Int_Tables_number	1
_symmetry_cell_setting	triclinic
loop_
_symmetry_equiv_pos_as_xyz
  x,y,z
_cell_length_a	10.489741
_cell_length_b	10.489741
_cell_length_c	8.965430
_cell_angle_alpha	90.000707
_cell_angle_beta	89.998843
_cell_angle_gamma	84.539174
loop_
_atom_site_label
_atom_site_type_symbol
_atom_site_fract_x
_atom_site_fract_y
_atom_site_fract_z
O1	O	1.694053	0.179958	-0.123946
O2	O	1.322858	0.196851	-0.123969
O3	O	1.516902	0.002807	-0.123948
O4	O	1.500009	0.374003	-0.123967
O5	O	1.516886	0.002820	0.124130
O6	O	1.322841	0.196864	0.124110
O7	O	1.694037	0.179971	0.124133
Cu8	Cu	1.508438	0.188419	0.146773
Cu9	Cu	1.508457	0.188404	-0.146609
O10	O	1.499993	0.374016	0.124112
C11	C	1.275318	0.195582	0.000067
C12	C	1.133688	0.191765	0.000059
C13	C	1.065548	0.068300	0.000079
C14	C	0.973430	0.126617	-0.122237
C15	C	0.973447	0.126659	0.122349
C16	C	1.043435	0.250133	-0.122358
C17	C	1.043462	0.250158	0.122338
C18	C	0.951371	0.308564	-0.000007
C19	C	1.515618	-0.044718	0.000090
C20	C	1.511801	-0.186348	0.000087
C21	C	1.388336	-0.254488	0.000069
C22	C	1.446652	-0.346604	0.122388
C23	C	1.446697	-0.346591	-0.122198
C24	C	1.570167	-0.276599	0.122508
C25	C	1.570195	-0.276576	-0.122189
C26	C	1.628600	-0.368665	0.000161
C27	C	1.741577	0.181241	0.000093
C28	C	1.883206	0.185058	0.000092
C29	C	1.501277	0.421541	0.000070
C30	C	1.505094	0.563170	0.000063
N31	N	1.508433	0.188429	0.353122
N32	N	1.508471	0.188384	-0.352958
C33	C	1.418666	0.278138	0.450418
C34	C	1.534163	0.303949	0.549838
C35	C	1.392986	0.162629	0.549830
C36	C	1.623988	0.214298	0.450352
C37	C	1.482735	0.072927	0.450336
C38	C	1.598314	0.098690	0.549711
H39	H	0.942463	0.074402	0.225758
H40	H	0.942422	0.074371	-0.225643
H41	H	1.394447	-0.377561	-0.225620
O42	O	1.740412	0.240733	0.398425
C43	C	1.725963	0.352886	0.310966
H44	H	1.633902	0.412767	0.344037
H45	H	1.721157	0.325818	0.188079
C46	C	1.954101	0.357522	0.296138
C47	C	1.841036	0.431074	0.336766
H48	H	2.025086	0.405750	0.312046
H49	H	1.963837	0.281960	0.355056
H50	H	1.950079	0.334971	0.193734
H51	H	1.845053	0.453610	0.439172
H52	H	1.831303	0.506642	0.277865
H53	H	1.074270	0.302327	-0.225883
H54	H	1.342824	0.354072	0.406821
H55	H	1.730204	-0.418089	0.000235
H56	H	1.555925	0.401606	0.593543
O57	O	1.267175	-0.195398	0.000002
C58	C	1.201636	-0.232576	-0.127765
H59	H	1.248372	-0.328379	-0.169955
H60	H	1.206201	-0.156994	-0.218489
C61	C	1.003341	-0.128204	-0.035965
C62	C	1.060737	-0.245876	-0.087777
H63	H	0.916426	-0.136403	-0.011303
H64	H	1.047496	-0.103151	0.050112
H65	H	1.007158	-0.065231	-0.111577
H66	H	1.056933	-0.308842	-0.012159
H67	H	1.016577	-0.270940	-0.173840
O68	O	1.632302	-0.239959	0.246176
C69	C	1.567452	-0.276436	0.374773
H70	H	1.508569	-0.359043	0.346270
H71	H	1.501198	-0.191626	0.416945
C72	C	1.737975	-0.217795	0.531791
C73	C	1.665662	-0.319262	0.496785
H74	H	1.798553	-0.244207	0.607057
H75	H	1.781664	-0.193215	0.445154
H76	H	1.682750	-0.147129	0.566926
H77	H	1.720885	-0.389919	0.461634
H78	H	1.621984	-0.343855	0.583420
O79	O	1.456509	-0.043490	0.398210
C80	C	1.334636	-0.070307	0.448837
H81	H	1.274955	0.023179	0.476798
H82	H	1.345729	-0.132919	0.552834
C83	C	1.340444	-0.256128	0.291542
C84	C	1.267139	-0.141306	0.325873
H85	H	1.298809	-0.299929	0.215697
H86	H	1.422554	-0.238064	0.257438
H87	H	1.349683	-0.308289	0.378217
H88	H	1.257915	-0.089141	0.239205
H89	H	1.185025	-0.159363	0.359960
H90	H	1.674327	0.022803	0.593034
O91	O	1.080720	0.312453	0.245585
C92	C	1.214711	0.316161	0.243123
H93	H	1.250707	0.305070	0.123415
H94	H	1.261895	0.234721	0.314138
C95	C	1.204500	0.458832	0.453236
C96	C	1.248710	0.445220	0.306207
H97	H	1.225474	0.538438	0.492155
H98	H	1.114228	0.456330	0.454900
H99	H	1.243825	0.390957	0.512397
H100	H	1.209373	0.513084	0.247045
H101	H	1.338976	0.447736	0.304535
O102	O	1.276438	0.136533	0.601704
C103	C	1.194315	0.119485	0.480311
H104	H	1.253882	0.091293	0.377061
H105	H	1.132248	0.212718	0.457860
C106	C	1.034827	0.047628	0.644322
C107	C	1.107988	0.012991	0.517511
H108	H	0.981571	-0.018058	0.667270
H109	H	1.090152	0.059118	0.726109
H110	H	0.983115	0.125324	0.625597
H111	H	1.159709	-0.064694	0.536245
H112	H	1.052669	0.001485	0.435728
H113	H	1.115238	-0.033196	-0.000069
H114	H	0.901947	0.410168	-0.000079
H115	H	1.622398	-0.245537	-0.225600
H116	H	1.394404	-0.377610	0.225794
