data_functionalizedCrystal
_audit_creation_method	'MofGen! by Chris Wilmer'
_symmetry_space_group_name_H-M	'P1'
_symmetry_Int_Tables_number	1
_symmetry_cell_setting	triclinic
loop_
_symmetry_equiv_pos_as_xyz
  x,y,z
_cell_length_a	29.839134
_cell_length_b	29.839126
_cell_length_c	19.121063
_cell_angle_alpha	87.583433
_cell_angle_beta	87.537743
_cell_angle_gamma	89.968028
loop_
_atom_site_label
_atom_site_type_symbol
_atom_site_fract_x
_atom_site_fract_y
_atom_site_fract_z
Zn1	Zn	0.679162	-0.261784	0.279804
Zn2	Zn	0.929162	-0.011784	0.529804
Zn3	Zn	1.179162	0.238216	0.779804
Zn4	Zn	1.429162	0.488216	1.029804
Zn5	Zn	0.675897	-0.189857	0.397245
Zn6	Zn	0.925897	0.060143	0.647245
Zn7	Zn	1.175897	0.310143	0.897245
Zn8	Zn	1.425897	0.560143	1.147245
Zn9	Zn	0.604035	-0.186651	0.279797
Zn10	Zn	0.854035	0.063349	0.529797
Zn11	Zn	1.104035	0.313349	0.779797
Zn12	Zn	1.354035	0.563349	1.029797
Zn13	Zn	0.600807	-0.264942	0.397204
Zn14	Zn	0.850807	-0.014942	0.647204
Zn15	Zn	1.100807	0.235058	0.897204
Zn16	Zn	1.350807	0.485058	1.147204
O17	O	0.639975	-0.225808	0.338512
O18	O	0.889975	0.024192	0.588512
O19	O	1.139975	0.274192	0.838512
O20	O	1.389975	0.524192	1.088512
O21	O	0.741595	-0.252264	0.295402
O22	O	0.991595	-0.002264	0.545402
O23	O	1.241595	0.247736	0.795402
O24	O	1.491595	0.497736	1.045402
O25	O	0.666349	-0.126565	0.381680
O26	O	0.916349	0.123435	0.631680
O27	O	1.166349	0.373435	0.881680
O28	O	1.416349	0.623435	1.131680
O29	O	0.616717	-0.193954	0.181513
O30	O	0.866717	0.056046	0.431513
O31	O	1.116717	0.306046	0.681513
O32	O	1.366717	0.556046	0.931513
O33	O	0.739197	-0.199419	0.381686
O34	O	0.989197	0.050581	0.631686
O35	O	1.239197	0.300581	0.881686
O36	O	1.489197	0.550581	1.131686
O37	O	0.671913	-0.249154	0.181518
O38	O	0.921913	0.000846	0.431518
O39	O	1.171913	0.250846	0.681518
O40	O	1.421913	0.500846	0.931518
O41	O	0.613552	-0.124209	0.295391
O42	O	0.863552	0.125791	0.545391
O43	O	1.113552	0.375791	0.795391
O44	O	1.363552	0.625791	1.045391
O45	O	0.540740	-0.197015	0.295351
O46	O	0.790740	0.052985	0.545351
O47	O	1.040740	0.302985	0.795351
O48	O	1.290740	0.552985	1.045351
O49	O	0.611216	-0.327389	0.381616
O50	O	0.861216	-0.077389	0.631616
O51	O	1.111216	0.172611	0.881616
O52	O	1.361216	0.422611	1.131616
O53	O	0.538368	-0.254535	0.381609
O54	O	0.788368	-0.004535	0.631609
O55	O	1.038368	0.245465	0.881609
O56	O	1.288368	0.495465	1.131609
O57	O	0.668783	-0.325070	0.295363
O58	O	0.918783	-0.075070	0.545363
O59	O	1.168783	0.174930	0.795363
O60	O	1.418783	0.424930	1.045363
O61	O	0.663219	-0.202481	0.495524
O62	O	0.913219	0.047519	0.745524
O63	O	1.163219	0.297519	0.995524
O64	O	1.413219	0.547519	1.245524
O65	O	0.608051	-0.257645	0.495494
O66	O	0.858051	-0.007645	0.745494
O67	O	1.108051	0.242355	0.995494
O68	O	1.358051	0.492355	1.245494
C69	C	0.523253	-0.225770	0.338476
C70	C	0.773253	0.024230	0.588476
C71	C	1.023253	0.274230	0.838476
C72	C	1.273253	0.524230	1.088476
C73	C	0.473319	-0.225765	0.338477
C74	C	0.723319	0.024235	0.588477
C75	C	0.973319	0.274235	0.838477
C76	C	1.223319	0.524235	1.088477
C77	C	0.117955	-0.195915	0.293531
C78	C	0.367955	0.054085	0.543531
C79	C	0.617955	0.304085	0.793531
C80	C	0.867955	0.554085	1.043531
C81	C	0.305629	-0.195887	0.293511
C82	C	0.555629	0.054113	0.543511
C83	C	0.805629	0.304113	0.793511
C84	C	1.055629	0.554113	1.043511
O85	O	0.330935	-0.170463	0.255237
O86	O	0.580935	0.079537	0.505237
O87	O	0.830935	0.329537	0.755237
O88	O	1.080935	0.579537	1.005237
N89	N	0.327874	-0.225788	0.338488
N90	N	0.577874	0.024212	0.588488
N91	N	0.827874	0.274212	0.838488
N92	N	1.077874	0.524212	1.088488
C93	C	0.303197	-0.255700	0.383470
C94	C	0.553197	-0.005700	0.633470
C95	C	0.803197	0.244300	0.883470
C96	C	1.053197	0.494300	1.133470
O97	O	0.326424	-0.281136	0.421720
O98	O	0.576424	-0.031136	0.671720
O99	O	0.826424	0.218864	0.921720
O100	O	1.076424	0.468864	1.171720
C101	C	0.115525	-0.255730	0.383486
C102	C	0.365525	-0.005730	0.633486
C103	C	0.615525	0.244270	0.883486
C104	C	0.865525	0.494270	1.133486
C105	C	0.093282	-0.225824	0.338511
C106	C	0.343282	0.024176	0.588511
C107	C	0.593282	0.274176	0.838511
C108	C	0.843282	0.524176	1.088511
C109	C	0.095712	-0.166011	0.248560
C110	C	0.345712	0.083989	0.498560
C111	C	0.595712	0.333989	0.748560
C112	C	0.845712	0.583989	0.998560
C113	C	0.048797	-0.166017	0.248568
C114	C	0.298797	0.083983	0.498568
C115	C	0.548797	0.333983	0.748568
C116	C	0.798797	0.583983	0.998568
C117	C	0.024124	-0.195926	0.293548
C118	C	0.274124	0.054074	0.543548
C119	C	0.524124	0.304074	0.793548
C120	C	0.774124	0.554074	1.043548
C121	C	0.046366	-0.225829	0.338519
C122	C	0.296366	0.024171	0.588519
C123	C	0.546366	0.274171	0.838519
C124	C	0.796366	0.524171	1.088519
C125	C	0.090849	-0.285644	0.428464
C126	C	0.340849	-0.035644	0.678464
C127	C	0.590849	0.214356	0.928464
C128	C	0.840849	0.464356	1.178464
C129	C	0.043928	-0.285649	0.428463
C130	C	0.293928	-0.035649	0.678463
C131	C	0.543928	0.214351	0.928463
C132	C	0.793928	0.464351	1.178463
C133	C	0.021686	-0.255743	0.383488
C134	C	0.271686	-0.005743	0.633488
C135	C	0.521686	0.244257	0.883488
C136	C	0.771686	0.494257	1.133488
C137	C	-0.025222	-0.255744	0.383507
C138	C	0.224778	-0.005744	0.633507
C139	C	0.474778	0.244256	0.883507
C140	C	0.724778	0.494256	1.133507
N141	N	-0.047467	-0.225843	0.338530
N142	N	0.202533	0.024157	0.588530
N143	N	0.452533	0.274157	0.838530
N144	N	0.702533	0.524157	1.088530
C145	C	-0.022794	-0.195934	0.293550
C146	C	0.227206	0.054066	0.543550
C147	C	0.477206	0.304066	0.793550
C148	C	0.727206	0.554066	1.043550
C149	C	0.401728	-0.255682	0.383460
C150	C	0.651728	-0.005682	0.633460
C151	C	0.901728	0.244318	0.883460
C152	C	1.151728	0.494318	1.133460
C153	C	0.448646	-0.255674	0.383457
C154	C	0.698646	-0.005674	0.633457
C155	C	0.948646	0.244326	0.883457
C156	C	1.198646	0.494326	1.133457
C157	C	0.451074	-0.195861	0.293497
C158	C	0.701074	0.054139	0.543497
C159	C	0.951074	0.304139	0.793497
C160	C	1.201074	0.554139	1.043497
C161	C	0.404155	-0.195867	0.293504
C162	C	0.654155	0.054133	0.543504
C163	C	0.904155	0.304133	0.793504
C164	C	1.154155	0.554133	1.043504
C165	C	0.379483	-0.225781	0.338483
C166	C	0.629483	0.024219	0.588483
C167	C	0.879483	0.274219	0.838483
C168	C	1.129483	0.524219	1.088483
C169	C	-0.121321	-0.195947	0.293571
C170	C	0.128679	0.054053	0.543571
C171	C	0.378679	0.304053	0.793571
C172	C	0.628679	0.554053	1.043571
C173	C	-0.168241	-0.195954	0.293585
C174	C	0.081759	0.054046	0.543585
C175	C	0.331759	0.304046	0.793585
C176	C	0.581759	0.554046	1.043585
C177	C	-0.170665	-0.255769	0.383542
C178	C	0.079335	-0.005769	0.633542
C179	C	0.329335	0.244231	0.883542
C180	C	0.579335	0.494231	1.133542
C181	C	-0.123749	-0.255760	0.383531
C182	C	0.126251	-0.005760	0.633531
C183	C	0.376251	0.244240	0.883531
C184	C	0.626251	0.494240	1.133531
C185	C	-0.099078	-0.225848	0.338540
C186	C	0.150922	0.024152	0.588540
C187	C	0.400922	0.274152	0.838540
C188	C	0.650922	0.524152	1.088540
O189	O	-0.050557	-0.281157	0.421756
O190	O	0.199443	-0.031157	0.671756
O191	O	0.449443	0.218843	0.921756
O192	O	0.699443	0.468843	1.171756
O193	O	-0.046029	-0.170509	0.255295
O194	O	0.203971	0.079491	0.505295
O195	O	0.453971	0.329491	0.755295
O196	O	0.703971	0.579491	1.005295
C197	C	0.164871	-0.195909	0.293523
C198	C	0.414871	0.054091	0.543523
C199	C	0.664871	0.304091	0.793523
C200	C	0.914871	0.554091	1.043523
C201	C	0.187113	-0.225812	0.338495
C202	C	0.437113	0.024188	0.588495
C203	C	0.687113	0.274188	0.838495
C204	C	0.937113	0.524188	1.088495
C205	C	0.162440	-0.255721	0.383475
C206	C	0.412440	-0.005721	0.633475
C207	C	0.662440	0.244279	0.883475
C208	C	0.912440	0.494279	1.133475
C209	C	0.234031	-0.225805	0.338492
C210	C	0.484031	0.024195	0.588492
C211	C	0.734031	0.274195	0.838492
C212	C	0.984031	0.524195	1.088492
C213	C	0.258704	-0.195896	0.293512
C214	C	0.508704	0.054104	0.543512
C215	C	0.758704	0.304104	0.793512
C216	C	1.008704	0.554104	1.043512
C217	C	0.236459	-0.165994	0.248535
C218	C	0.486459	0.084006	0.498535
C219	C	0.736459	0.334006	0.748535
C220	C	0.986459	0.584006	0.998535
C221	C	0.189544	-0.166000	0.248543
C222	C	0.439544	0.084000	0.498543
C223	C	0.689544	0.334000	0.748543
C224	C	0.939544	0.584000	0.998543
C225	C	0.184685	-0.285623	0.428452
C226	C	0.434685	-0.035623	0.678452
C227	C	0.684685	0.214377	0.928452
C228	C	0.934685	0.464377	1.178452
C229	C	0.231601	-0.285614	0.428441
C230	C	0.481601	-0.035614	0.678441
C231	C	0.731601	0.214386	0.928441
C232	C	0.981601	0.464386	1.178441
C233	C	0.256274	-0.255705	0.383461
C234	C	0.506274	-0.005705	0.633461
C235	C	0.756274	0.244295	0.883461
C236	C	1.006274	0.494295	1.133461
C237	C	0.640004	-0.342986	0.338485
C238	C	0.890004	-0.092986	0.588485
C239	C	1.140004	0.157014	0.838485
C240	C	1.390004	0.407014	1.088485
C241	C	0.640016	-0.392920	0.338474
C242	C	0.890016	-0.142920	0.588474
C243	C	1.140016	0.107080	0.838474
C244	C	1.390016	0.357080	1.088474
C245	C	0.612535	-0.701338	0.293473
C246	C	0.862535	-0.451338	0.543473
C247	C	1.112535	-0.201338	0.793473
C248	C	1.362535	0.048662	1.043473
C249	C	0.612549	-0.889010	0.293425
C250	C	0.862549	-0.639010	0.543425
C251	C	1.112549	-0.389010	0.793425
C252	C	1.362549	-0.139010	1.043425
O253	O	0.589160	-0.912234	0.255233
O254	O	0.839160	-0.662234	0.505233
O255	O	1.089160	-0.412234	0.755233
O256	O	1.339160	-0.162234	1.005233
N257	N	0.640041	-0.913702	0.338342
N258	N	0.890041	-0.663702	0.588342
N259	N	1.140041	-0.413702	0.838342
N260	N	1.390041	-0.163702	1.088342
C261	C	0.667528	-0.891473	0.383278
C262	C	0.917528	-0.641473	0.633278
C263	C	1.167528	-0.391473	0.883278
C264	C	1.417528	-0.141473	1.133278
O265	O	0.690908	-0.916782	0.421488
O266	O	0.940908	-0.666782	0.671488
O267	O	1.190908	-0.416782	0.921488
O268	O	1.440908	-0.166782	1.171488
C269	C	0.667512	-0.703803	0.383330
C270	C	0.917512	-0.453803	0.633330
C271	C	1.167512	-0.203803	0.883330
C272	C	1.417512	0.046197	1.133330
C273	C	0.640022	-0.679113	0.338405
C274	C	0.890022	-0.429113	0.588405
C275	C	1.140022	-0.179113	0.838405
C276	C	1.390022	0.070887	1.088405
C277	C	0.585047	-0.676648	0.248552
C278	C	0.835047	-0.426648	0.498552
C279	C	1.085047	-0.176648	0.748552
C280	C	1.335047	0.073352	0.998552
C281	C	0.585046	-0.629733	0.248562
C282	C	0.835046	-0.379733	0.498562
C283	C	1.085046	-0.129733	0.748562
C284	C	1.335046	0.120267	0.998562
C285	C	0.612532	-0.607508	0.293493
C286	C	0.862532	-0.357508	0.543493
C287	C	1.112532	-0.107508	0.793493
C288	C	1.362532	0.142492	1.043493
C289	C	0.640020	-0.632197	0.338415
C290	C	0.890020	-0.382197	0.588415
C291	C	1.140020	-0.132197	0.838415
C292	C	1.390020	0.117803	1.088415
C293	C	0.694997	-0.681575	0.428269
C294	C	0.944997	-0.431575	0.678269
C295	C	1.194997	-0.181575	0.928269
C296	C	1.444997	0.068425	1.178269
C297	C	0.694989	-0.634654	0.428280
C298	C	0.944989	-0.384654	0.678280
C299	C	1.194989	-0.134654	0.928280
C300	C	1.444989	0.115346	1.178280
C301	C	0.667499	-0.609964	0.383354
C302	C	0.917499	-0.359964	0.633354
C303	C	1.167499	-0.109964	0.883354
C304	C	1.417499	0.140036	1.133354
C305	C	0.667505	-0.563057	0.383356
C306	C	0.917505	-0.313057	0.633356
C307	C	1.167505	-0.063057	0.883356
C308	C	1.417505	0.186943	1.133356
N309	N	0.640014	-0.538365	0.338438
N310	N	0.890014	-0.288365	0.588438
N311	N	1.140014	-0.038365	0.838438
N312	N	1.390014	0.211635	1.088438
C313	C	0.612527	-0.560590	0.293507
C314	C	0.862527	-0.310590	0.543507
C315	C	1.112527	-0.060590	0.793507
C316	C	1.362527	0.189410	1.043507
C317	C	0.667536	-0.990003	0.383247
C318	C	0.917536	-0.740003	0.633247
C319	C	1.167536	-0.490003	0.883247
C320	C	1.417536	-0.240003	1.133247
C321	C	0.667541	-1.036921	0.383233
C322	C	0.917541	-0.786921	0.633233
C323	C	1.167541	-0.536921	0.883233
C324	C	1.417541	-0.286921	1.133233
C325	C	0.612561	-1.034454	0.293380
C326	C	0.862561	-0.784454	0.543380
C327	C	1.112561	-0.534454	0.793380
C328	C	1.362561	-0.284454	1.043380
C329	C	0.612559	-0.987535	0.293391
C330	C	0.862559	-0.737535	0.543391
C331	C	1.112559	-0.487535	0.793391
C332	C	1.362559	-0.237535	1.043391
C333	C	0.640044	-0.965311	0.338329
C334	C	0.890044	-0.715311	0.588329
C335	C	1.140044	-0.465311	0.838329
C336	C	1.390044	-0.215311	1.088329
C337	C	0.612527	-0.462065	0.293531
C338	C	0.862527	-0.212065	0.543531
C339	C	1.112527	0.037935	0.793531
C340	C	1.362527	0.287935	1.043531
C341	C	0.612529	-0.415146	0.293543
C342	C	0.862529	-0.165146	0.543543
C343	C	1.112529	0.084854	0.793543
C344	C	1.362529	0.334854	1.043543
C345	C	0.667507	-0.417617	0.383398
C346	C	0.917507	-0.167617	0.633398
C347	C	1.167507	0.082383	0.883398
C348	C	1.417507	0.332383	1.133398
C349	C	0.667507	-0.464532	0.383384
C350	C	0.917507	-0.214532	0.633384
C351	C	1.167507	0.035468	0.883384
C352	C	1.417507	0.285468	1.133384
C353	C	0.640013	-0.486755	0.338448
C354	C	0.890013	-0.236755	0.588448
C355	C	1.140013	0.013245	0.838448
C356	C	1.390013	0.263245	1.088448
O357	O	0.690879	-0.539803	0.421532
O358	O	0.940879	-0.289803	0.671532
O359	O	1.190879	-0.039803	0.921532
O360	O	1.440879	0.210197	1.171532
O361	O	0.589143	-0.535274	0.255314
O362	O	0.839143	-0.285274	0.505314
O363	O	1.089143	-0.035274	0.755314
O364	O	1.339143	0.214726	1.005314
C365	C	0.612537	-0.748253	0.293463
C366	C	0.862537	-0.498253	0.543463
C367	C	1.112537	-0.248253	0.793463
C368	C	1.362537	0.001747	1.043463
C369	C	0.640025	-0.772943	0.338385
C370	C	0.890025	-0.522943	0.588385
C371	C	1.140025	-0.272943	0.838385
C372	C	1.390025	-0.022943	1.088385
C373	C	0.667511	-0.750718	0.383316
C374	C	0.917511	-0.500718	0.633316
C375	C	1.167511	-0.250718	0.883316
C376	C	1.417511	-0.000718	1.133316
C377	C	0.640029	-0.819861	0.338371
C378	C	0.890029	-0.569861	0.588371
C379	C	1.140029	-0.319861	0.838371
C380	C	1.390029	-0.069861	1.088371
C381	C	0.612543	-0.842086	0.293440
C382	C	0.862543	-0.592086	0.543440
C383	C	1.112543	-0.342086	0.793440
C384	C	1.362543	-0.092086	1.043440
C385	C	0.585051	-0.817394	0.248522
C386	C	0.835051	-0.567394	0.498522
C387	C	1.085051	-0.317394	0.748522
C388	C	1.335051	-0.067394	0.998522
C389	C	0.585050	-0.770478	0.248532
C390	C	0.835050	-0.520478	0.498532
C391	C	1.085050	-0.270478	0.748532
C392	C	1.335050	-0.020478	0.998532
C393	C	0.695003	-0.775410	0.428234
C394	C	0.945003	-0.525410	0.678234
C395	C	1.195003	-0.275410	0.928234
C396	C	1.445003	-0.025410	1.178234
C397	C	0.695002	-0.822325	0.428219
C398	C	0.945002	-0.572325	0.678219
C399	C	1.195002	-0.322325	0.928219
C400	C	1.445002	-0.072325	1.178219
C401	C	0.667516	-0.844550	0.383288
C402	C	0.917516	-0.594550	0.633288
C403	C	1.167516	-0.344550	0.883288
C404	C	1.417516	-0.094550	1.133288
C405	C	0.757152	-0.225847	0.338549
C406	C	1.007152	0.024153	0.588549
C407	C	1.257152	0.274153	0.838549
C408	C	1.507152	0.524153	1.088549
C409	C	0.807086	-0.225863	0.338565
C410	C	1.057086	0.024137	0.588565
C411	C	1.307086	0.274137	0.838565
C412	C	1.557086	0.524137	1.088565
C413	C	0.634943	-0.230763	0.520993
C414	C	0.884943	0.019237	0.770993
C415	C	1.134943	0.269237	1.020993
C416	C	1.384943	0.519237	1.270993
C417	C	0.632831	-0.232898	0.599059
C418	C	0.882831	0.017102	0.849059
C419	C	1.132831	0.267102	1.099059
C420	C	1.382831	0.517102	1.349059
C421	C	0.639974	-0.109085	0.338488
C422	C	0.889974	0.140915	0.588488
C423	C	1.139974	0.390915	0.838488
C424	C	1.389974	0.640915	1.088488
C425	C	0.640054	-0.059146	0.338302
C426	C	0.890054	0.190854	0.588302
C427	C	1.140054	0.440854	0.838302
C428	C	1.390054	0.690854	1.088302
C429	C	0.645039	-0.220844	0.155319
C430	C	0.895039	0.029156	0.405319
C431	C	1.145039	0.279156	0.655319
C432	C	1.395039	0.529156	0.905319
C433	C	0.647197	-0.218729	0.077253
C434	C	0.897197	0.031271	0.327253
C435	C	1.147197	0.281271	0.577253
C436	C	1.397197	0.531271	0.827253
C437	C	0.660584	-0.205203	0.635727
C438	C	0.910584	0.044797	0.885727
C439	C	1.160584	0.294797	1.135727
C440	C	1.410584	0.544797	1.385727
C441	C	0.658601	-0.207214	0.709078
C442	C	0.908601	0.042786	0.959078
C443	C	1.158601	0.292786	1.209078
C444	C	1.408601	0.542786	1.459078
C445	C	0.628861	-0.236916	0.745760
C446	C	0.878861	0.013084	0.995760
C447	C	1.128861	0.263084	1.245760
C448	C	1.378861	0.513084	1.495760
C449	C	0.601107	-0.264614	0.709087
C450	C	0.851107	-0.014614	0.959087
C451	C	1.101107	0.235386	1.209087
C452	C	1.351107	0.485386	1.459087
C453	C	0.603093	-0.262605	0.635737
C454	C	0.853093	-0.012605	0.885737
C455	C	1.103093	0.237395	1.135737
C456	C	1.353093	0.487395	1.385737
C457	C	0.621429	-0.244418	0.967230
C458	C	0.871429	0.005582	1.217230
C459	C	1.121429	0.255582	1.467230
C460	C	1.371429	0.505582	1.717230
C461	C	0.619444	-0.246423	1.040585
C462	C	0.869444	0.003577	1.290585
C463	C	1.119444	0.253577	1.540585
C464	C	1.369444	0.503577	1.790585
C465	C	0.676939	-0.189024	1.040571
C466	C	0.926939	0.060976	1.290571
C467	C	1.176939	0.310976	1.540571
C468	C	1.426939	0.560976	1.790571
C469	C	0.678920	-0.187016	0.967220
C470	C	0.928920	0.062984	1.217220
C471	C	1.178920	0.312984	1.467220
C472	C	1.428920	0.562984	1.717220
C473	C	0.651167	-0.214715	0.930553
C474	C	0.901167	0.035285	1.180553
C475	C	1.151167	0.285285	1.430553
C476	C	1.401167	0.535285	1.680553
C477	C	0.626832	-0.238971	0.820737
C478	C	0.876832	0.011029	1.070737
C479	C	1.126832	0.261029	1.320737
C480	C	1.376832	0.511029	1.570737
C481	C	0.653199	-0.212662	0.855578
C482	C	0.903199	0.037338	1.105578
C483	C	1.153199	0.287338	1.355578
C484	C	1.403199	0.537338	1.605578
H485	H	0.023842	-0.310011	0.465088
H486	H	0.273842	-0.060011	0.715088
H487	H	0.523842	0.189989	0.965088
H488	H	0.773842	0.439989	1.215088
H489	H	0.689931	-1.057019	0.419808
H490	H	0.939931	-0.807019	0.669808
H491	H	1.189931	-0.557019	0.919808
H492	H	1.439931	-0.307019	1.169808
H493	H	0.466752	-0.280022	0.420088
H494	H	0.716752	-0.030022	0.670088
H495	H	0.966752	0.219978	0.920088
H496	H	1.216752	0.469978	1.170088
H497	H	-0.105638	-0.280109	0.420159
H498	H	0.144362	-0.030109	0.670159
H499	H	0.394362	0.219891	0.920159
H500	H	0.644362	0.469891	1.170159
H501	H	-0.190762	-0.280118	0.420166
H502	H	0.059238	-0.030118	0.670166
H503	H	0.309238	0.219882	0.920166
H504	H	0.559238	0.469882	1.170166
Cl505	Cl	-0.196200	-0.158355	0.237042
Cl506	Cl	0.053800	0.091645	0.487042
Cl507	Cl	0.303800	0.341645	0.737042
Cl508	Cl	0.553800	0.591645	0.987042
Cl509	Cl	0.716315	-0.149680	0.921111
Cl510	Cl	0.966315	0.100320	1.171111
Cl511	Cl	1.216315	0.350320	1.421111
Cl512	Cl	1.466315	0.600320	1.671111
H513	H	0.699535	-0.166473	1.070433
H514	H	0.949535	0.083527	1.320433
H515	H	1.199535	0.333527	1.570433
H516	H	1.449535	0.583527	1.820433
Cl517	Cl	-0.090313	-0.158342	0.237012
Cl518	Cl	0.159687	0.091658	0.487012
Cl519	Cl	0.409687	0.341658	0.737012
Cl520	Cl	0.659687	0.591658	0.987012
H521	H	0.689918	-0.971913	0.419845
H522	H	0.939918	-0.721913	0.669845
H523	H	1.189918	-0.471913	0.919845
H524	H	1.439918	-0.221913	1.169845
Cl525	Cl	0.729562	-0.747477	0.484723
Cl526	Cl	0.979562	-0.497477	0.734723
Cl527	Cl	1.229562	-0.247477	0.984723
Cl528	Cl	1.479562	0.002523	1.234723
H529	H	0.108951	-0.309997	0.465088
H530	H	0.358951	-0.059997	0.715088
H531	H	0.608951	0.190003	0.965088
H532	H	0.858951	0.440003	1.215088
Cl533	Cl	0.161589	-0.128403	0.191998
Cl534	Cl	0.411589	0.121597	0.441998
Cl535	Cl	0.661589	0.371597	0.691998
Cl536	Cl	0.911589	0.621597	0.941998
Cl537	Cl	0.729554	-0.712603	0.484757
Cl538	Cl	0.979554	-0.462603	0.734757
Cl539	Cl	1.229554	-0.212603	0.984757
Cl540	Cl	1.479554	0.037397	1.234757
H541	H	0.684800	-0.181014	0.605865
H542	H	0.934800	0.068986	0.855865
H543	H	1.184800	0.318986	1.105865
H544	H	1.434800	0.568986	1.355865
H545	H	0.595232	-0.270618	1.070450
H546	H	0.845232	-0.020618	1.320450
H547	H	1.095232	0.229382	1.570450
H548	H	1.345232	0.479382	1.820450
Cl549	Cl	0.693494	-0.172398	0.755172
Cl550	Cl	0.943494	0.077602	1.005172
Cl551	Cl	1.193494	0.327602	1.255172
Cl552	Cl	1.443494	0.577602	1.505172
H553	H	0.030691	-0.141664	0.211944
H554	H	0.280691	0.108336	0.461944
H555	H	0.530691	0.358336	0.711944
H556	H	0.780691	0.608336	0.961944
H557	H	0.590181	-1.052558	0.256794
H558	H	0.840181	-0.802558	0.506794
H559	H	1.090181	-0.552558	0.756794
H560	H	1.340181	-0.302558	1.006794
Cl561	Cl	0.370718	-0.293290	0.440014
Cl562	Cl	0.620718	-0.043290	0.690014
Cl563	Cl	0.870718	0.206710	0.940014
Cl564	Cl	1.120718	0.456710	1.190014
H565	H	0.164601	-0.309979	0.465080
H566	H	0.414601	-0.059979	0.715080
H567	H	0.664601	0.190021	0.965080
H568	H	0.914601	0.440021	1.215080
H569	H	0.115796	-0.141656	0.211927
H570	H	0.365796	0.108344	0.461927
H571	H	0.615796	0.358344	0.711927
H572	H	0.865796	0.608344	0.961927
H573	H	0.580493	-0.285158	0.605883
H574	H	0.830493	-0.035158	0.855883
H575	H	1.080493	0.214842	1.105883
H576	H	1.330493	0.464842	1.355883
H577	H	0.590139	-0.480153	0.256939
H578	H	0.840139	-0.230153	0.506939
H579	H	1.090139	0.019847	0.756939
H580	H	1.340139	0.269847	1.006939
H581	H	0.256556	-0.141640	0.211913
H582	H	0.506556	0.108360	0.461913
H583	H	0.756556	0.358360	0.711913
H584	H	1.006556	0.608360	0.961913
H585	H	0.386049	-0.171516	0.256879
H586	H	0.636049	0.078484	0.506879
H587	H	0.886049	0.328484	0.756879
H588	H	1.136049	0.578484	1.006879
H589	H	0.249707	-0.309967	0.465071
H590	H	0.499707	-0.059967	0.715071
H591	H	0.749707	0.190033	0.965071
H592	H	0.999707	0.440033	1.215071
Cl593	Cl	0.690586	-0.175325	0.809462
Cl594	Cl	0.940586	0.074675	1.059462
Cl595	Cl	1.190586	0.324675	1.309462
Cl596	Cl	1.440586	0.574675	1.559462
Cl597	Cl	0.586538	-0.279239	0.921144
Cl598	Cl	0.836538	-0.029239	1.171144
Cl599	Cl	1.086538	0.220761	1.421144
Cl600	Cl	1.336538	0.470761	1.671144
Cl601	Cl	0.577969	-0.384110	0.237059
Cl602	Cl	0.827969	-0.134110	0.487059
Cl603	Cl	1.077969	0.115890	0.737059
Cl604	Cl	1.327969	0.365890	0.987059
Cl605	Cl	0.563722	-0.301957	0.755202
Cl606	Cl	0.813722	-0.051957	1.005202
Cl607	Cl	1.063722	0.198043	1.255202
Cl608	Cl	1.313722	0.448043	1.505202
Cl609	Cl	0.550482	-0.598701	0.192086
Cl610	Cl	0.800482	-0.348701	0.442086
Cl611	Cl	1.050482	-0.098701	0.692086
Cl612	Cl	1.300482	0.151299	0.942086
Cl613	Cl	0.550482	-0.704580	0.192068
Cl614	Cl	0.800482	-0.454580	0.442068
Cl615	Cl	1.050482	-0.204580	0.692068
Cl616	Cl	1.300482	0.045420	0.942068
Cl617	Cl	0.550489	-0.739447	0.192052
Cl618	Cl	0.800489	-0.489447	0.442052
Cl619	Cl	1.050489	-0.239447	0.692052
Cl620	Cl	1.300489	0.010553	0.942052
Cl621	Cl	0.589446	-0.276310	0.866858
Cl622	Cl	0.839446	-0.026310	1.116858
Cl623	Cl	1.089446	0.223690	1.366858
Cl624	Cl	1.339446	0.473690	1.616858
Cl625	Cl	0.550498	-0.845343	0.192036
Cl626	Cl	0.800498	-0.595343	0.442036
Cl627	Cl	1.050498	-0.345343	0.692036
Cl628	Cl	1.300498	-0.095343	0.942036
Cl629	Cl	0.729544	-0.606718	0.484779
Cl630	Cl	0.979544	-0.356718	0.734779
Cl631	Cl	1.229544	-0.106718	0.984779
Cl632	Cl	1.479544	0.143282	1.234779
H633	H	0.590174	-0.967436	0.256808
H634	H	0.840174	-0.717436	0.506808
H635	H	1.090174	-0.467436	0.756808
H636	H	1.340174	-0.217436	1.006808
Cl637	Cl	0.702074	-0.495571	0.439850
Cl638	Cl	0.952074	-0.245571	0.689850
Cl639	Cl	1.202074	0.004429	0.939850
Cl640	Cl	1.452074	0.254429	1.189850
Cl641	Cl	0.482100	-0.158262	0.236951
Cl642	Cl	0.732100	0.091738	0.486951
Cl643	Cl	0.982100	0.341738	0.736951
Cl644	Cl	1.232100	0.591738	0.986951
Cl645	Cl	0.702062	-0.389667	0.439877
Cl646	Cl	0.952062	-0.139667	0.689877
Cl647	Cl	1.202062	0.110333	0.939877
Cl648	Cl	1.452062	0.360333	1.189877
H649	H	0.717392	-0.842424	0.464802
H650	H	0.967392	-0.592424	0.714802
H651	H	1.217392	-0.342424	0.964802
H652	H	1.467392	-0.092424	1.214802
