data_functionalizedCrystal
_audit_creation_method	'MofGen! by Chris Wilmer'
_symmetry_space_group_name_H-M	'P1'
_symmetry_Int_Tables_number	1
_symmetry_cell_setting	triclinic
loop_
_symmetry_equiv_pos_as_xyz
  x,y,z
_cell_length_a	18.760487
_cell_length_b	21.606444
_cell_length_c	21.606444
_cell_angle_alpha	60.001331
_cell_angle_beta	90.036891
_cell_angle_gamma	60.019231
loop_
_atom_site_label
_atom_site_type_symbol
_atom_site_fract_x
_atom_site_fract_y
_atom_site_fract_z
Zr1	Zr	0.686670	0.677450	-0.080834
O2	O	0.572846	0.806573	-0.179717
O3	O	0.721564	0.548331	-0.050524
O4	O	0.721555	0.677454	-0.179642
O5	O	0.572861	0.677445	0.051255
O6	O	0.838858	0.677454	-0.179579
O7	O	0.572855	0.677449	-0.050599
O8	O	0.838874	0.446475	0.051390
O9	O	0.572845	0.908424	-0.179714
O10	O	0.823987	0.601438	-0.037547
O11	O	0.736449	0.601435	0.038419
O12	O	0.736439	0.753462	-0.113601
O13	O	0.648901	0.753459	-0.037635
Zr14	Zr	0.873764	0.677443	0.081712
Zr15	Zr	0.873755	0.677450	-0.080734
Zr16	Zr	0.686680	0.677443	0.081612
Zr17	Zr	0.686668	0.839891	-0.080829
Zr18	Zr	0.873766	0.515003	0.081706
O19	O	0.838870	0.806563	0.051401
O20	O	0.838856	0.806573	-0.179575
O21	O	0.572860	0.806563	0.051259
O22	O	0.987588	0.548320	0.180595
O23	O	0.987574	0.548330	-0.050382
O24	O	0.721578	0.548321	0.180453
O25	O	0.987573	0.677449	-0.050377
O26	O	0.838879	0.677439	0.180520
O27	O	0.721576	0.677439	0.180457
O28	O	0.987579	0.677444	0.051477
O29	O	0.721552	0.908424	-0.179635
O30	O	0.838882	0.446470	0.180512
O31	O	0.987589	0.446470	0.180592
O32	O	0.987582	0.446475	0.051469
O33	O	0.572853	0.908418	-0.050592
O34	O	0.721560	0.908418	-0.050512
O35	O	0.823996	0.601432	0.114479
O36	O	0.911533	0.601435	0.038513
O37	O	0.823985	0.753458	-0.037542
O38	O	0.736447	0.753455	0.038424
C39	C	0.780220	0.474259	0.000432
C40	C	0.780220	0.405298	0.000430
C41	C	0.825912	0.372903	-0.039224
C42	C	0.825915	0.308103	-0.039219
C43	C	0.780221	0.275704	0.000436
C44	C	0.734528	0.308103	0.040096
C45	C	0.734530	0.372897	0.040094
C46	C	0.734518	0.046793	0.040102
C47	C	0.734516	-0.018004	0.040098
C48	C	0.825902	-0.018001	-0.039212
C49	C	0.825905	0.046793	-0.039213
C50	C	0.780216	0.079183	0.000449
C51	C	0.780214	0.149445	0.000444
C52	C	0.780217	0.205447	0.000437
C53	C	0.546203	0.677447	0.000314
C54	C	0.466780	0.677447	0.000271
C55	C	0.085264	0.756805	-0.039129
C56	C	0.176671	0.598089	0.040273
C57	C	0.251293	0.598088	0.040208
C58	C	0.242903	0.677446	0.000473
C59	C	0.159892	0.756806	-0.039197
C60	C	0.334309	0.518730	0.079871
C61	C	0.408937	0.518725	0.079807
C62	C	0.400549	0.598084	0.040076
C63	C	0.317531	0.677447	0.000405
C64	C	0.309141	0.756805	-0.039330
C65	C	0.226124	0.836169	-0.078997
C66	C	0.151503	0.836165	-0.078928
C67	C	0.475170	0.598089	0.040006
C68	C	0.383769	0.756807	-0.039399
C69	C	1.014231	0.677446	0.000564
C70	C	1.093654	0.677446	0.000606
C71	C	0.780205	0.677455	-0.202756
C72	C	0.780201	0.677458	-0.271718
C73	C	0.780215	0.880635	0.000445
C74	C	0.780214	0.949595	0.000448
C75	C	0.734501	0.756812	-0.343817
C76	C	0.734509	0.756810	-0.408611
C77	C	0.780212	0.677453	-0.401306
C78	C	0.825917	0.598092	-0.329200
C79	C	0.825914	0.598096	-0.264407
C80	C	0.825931	0.598077	-0.590503
C81	C	0.825928	0.598080	-0.655304
C82	C	0.734526	0.756792	-0.734708
C83	C	0.734523	0.756795	-0.669914
C84	C	0.780232	0.677435	-0.597814
C85	C	0.780224	0.677439	-0.527557
C86	C	0.780214	0.677448	-0.471562
C87	C	0.780229	0.677438	0.203633
C88	C	0.780233	0.677435	0.272596
C89	C	1.014234	0.474258	0.000557
C90	C	1.093657	0.405298	0.000597
C91	C	0.780231	0.474250	0.203627
C92	C	0.780236	0.405287	0.272587
C93	C	1.014246	0.474250	0.203752
C94	C	1.093673	0.405286	0.272754
C95	C	0.546188	0.880644	-0.202874
C96	C	0.466761	0.949607	-0.271877
C97	C	0.546200	0.880635	0.000320
C98	C	0.466777	0.949595	0.000280
C99	C	0.780203	0.880643	-0.202749
C100	C	0.780198	0.949607	-0.271709
C101	C	1.085257	0.372915	-0.039093
C102	C	1.159876	0.308129	-0.039070
C103	C	1.242895	0.275722	0.000647
C104	C	1.251293	0.308111	0.040339
C105	C	1.176675	0.372901	0.040311
C106	C	0.825937	0.372899	0.344680
C107	C	0.825938	0.308110	0.409482
C108	C	0.780243	0.275705	0.402189
C109	C	0.734537	0.308099	0.330088
C110	C	0.734531	0.372892	0.265288
C111	C	1.176674	0.372902	0.265505
C112	C	1.251312	0.308113	0.330334
C113	C	1.242946	0.275705	0.402412
C114	C	1.159936	0.308095	0.409659
C115	C	1.085300	0.372888	0.344831
C116	C	0.383760	0.981999	-0.264628
C117	C	0.309122	1.046808	-0.329457
C118	C	0.317488	1.079220	-0.401534
C119	C	0.400498	1.046825	-0.408782
C120	C	0.475134	0.982021	-0.343953
C121	C	0.475177	0.981985	0.039964
C122	C	0.400558	1.046789	0.039923
C123	C	0.317539	1.079198	0.000203
C124	C	0.309141	1.046806	-0.039485
C125	C	0.383759	0.982007	-0.039449
C126	C	0.825901	0.981991	-0.264392
C127	C	0.825914	1.046780	-0.329181
C128	C	0.780217	1.079189	-0.401287
C129	C	0.734512	1.046798	-0.408603
C130	C	0.734505	0.982005	-0.343815
H131	H	0.863121	0.281725	-0.071508
H132	H	0.697310	0.821410	-0.793421
H133	H	0.542758	0.533472	0.072309
C134	C	1.325051	0.204427	0.473720
C135	C	1.315861	0.168768	0.553007
C136	C	1.397969	0.097488	0.624312
C137	C	1.489267	0.061866	0.616329
C138	C	1.498460	0.097525	0.537039
C139	C	1.416352	0.168805	0.465734
H140	H	1.248274	0.195137	0.558919
H141	H	1.391163	0.071091	0.683008
H142	H	1.550048	0.009100	0.669113
H143	H	1.566048	0.071155	0.531127
H144	H	1.423158	0.195202	0.407038
H145	H	0.256787	1.131962	0.000180
C146	C	0.217819	1.082425	-0.321473
C147	C	0.208625	1.046755	-0.242187
C148	C	0.117325	1.082368	-0.234201
C149	C	0.035219	1.153652	-0.305501
C150	C	0.044410	1.189326	-0.384792
C151	C	0.135710	1.153713	-0.392778
H152	H	0.269408	0.993983	-0.189402
H153	H	0.110522	1.055960	-0.175504
H154	H	-0.032367	1.180015	-0.299589
H155	H	-0.016373	1.242098	-0.437578
H156	H	0.142513	1.180122	-0.451475
H157	H	0.863147	0.399276	0.350633
H158	H	0.780255	0.222947	0.454959
H159	H	0.697328	0.281714	0.072388
H160	H	0.697284	0.955645	-0.349784
C161	C	0.684267	0.408537	0.083714
C162	C	0.634001	0.372905	0.127333
C163	C	0.583740	0.408540	0.170957
C164	C	0.583745	0.479808	0.170961
C165	C	0.634012	0.515444	0.127340
C166	C	0.684273	0.479809	0.083716
H167	H	0.633996	0.320144	0.127331
H168	H	0.546529	0.382159	0.203248
H169	H	0.546539	0.506187	0.203254
H170	H	0.634017	0.568204	0.127342
H171	H	0.721484	0.506189	0.051425
C172	C	1.185892	0.408546	0.186225
C173	C	1.277201	0.372919	0.178268
C174	C	1.286428	0.408561	0.098990
C175	C	1.204344	0.479831	0.027671
C176	C	1.113028	0.515463	0.035626
C177	C	1.103802	0.479820	0.114903
H178	H	1.337970	0.320157	0.231065
H179	H	1.354026	0.382184	0.093102
H180	H	1.211174	0.506216	-0.031015
H181	H	1.052260	0.568225	-0.017171
H182	H	1.036203	0.506197	0.120792
C183	C	0.876182	0.510805	-0.185096
C184	C	0.876185	0.510804	-0.113824
C185	C	0.926458	0.423511	-0.034512
C186	C	0.976728	0.336217	-0.026472
C187	C	0.976727	0.336215	-0.097746
C188	C	0.926454	0.423508	-0.177058
H189	H	0.838970	0.575427	-0.119773
H190	H	0.926458	0.423513	0.018250
H191	H	1.013943	0.271597	0.032240
H192	H	1.013942	0.271592	-0.091797
H193	H	0.926454	0.423506	-0.229820
C194	C	0.876177	0.946346	-0.185080
C195	C	0.876184	0.875076	-0.113804
C196	C	0.926467	0.839432	-0.034495
C197	C	0.976744	0.875059	-0.026461
C198	C	0.976740	0.946334	-0.097740
C199	C	0.926456	0.981978	-0.177049
H200	H	0.838964	0.848699	-0.119749
H201	H	0.926471	0.786670	0.018270
H202	H	1.013967	0.848674	0.032248
H203	H	1.013959	0.972711	-0.091795
H204	H	0.926453	1.034740	-0.229814
H205	H	1.318895	0.281747	0.324420
H206	H	1.318897	0.281716	0.072675
H207	H	0.780230	1.131948	-0.454036
C208	C	0.876175	0.082425	-0.082831
C209	C	0.852318	0.126965	-0.169030
C210	C	0.902595	0.162590	-0.212645
C211	C	0.976729	0.153674	-0.170060
C212	C	1.000591	0.109132	-0.083855
C213	C	0.950314	0.073507	-0.040241
H214	H	0.797435	0.133567	-0.200559
H215	H	0.884931	0.195564	-0.276459
H216	H	1.013947	0.180046	-0.202346
H217	H	1.055473	0.102530	-0.052327
H218	H	0.967978	0.040533	0.023573
C219	C	0.684234	0.844101	-0.487920
C220	C	0.633954	0.931393	-0.495957
C221	C	0.583676	1.018688	-0.575268
C222	C	0.583679	1.018692	-0.646542
C223	C	0.633961	0.931397	-0.638507
C224	C	0.684239	0.844102	-0.559197
H225	H	0.633950	0.931393	-0.443194
H226	H	0.546454	1.083309	-0.581216
H227	H	0.546461	1.083313	-0.705253
H228	H	0.633965	0.931397	-0.691271
H229	H	0.721461	0.779480	-0.553249
H230	H	1.183527	0.399258	0.072636
H231	H	0.407413	1.073152	0.072245
C232	C	0.684246	1.082458	-0.487925
C233	C	0.708096	1.020119	-0.511763
C234	C	0.657826	1.055785	-0.591086
C235	C	0.583706	1.153791	-0.646573
C236	C	0.559851	1.216137	-0.622736
C237	C	0.610121	1.180470	-0.543412
H238	H	0.762968	0.947563	-0.470687
H239	H	0.675485	1.009632	-0.608731
H240	H	0.546493	1.180194	-0.705293
H241	H	0.504980	1.288692	-0.663811
H242	H	0.592463	1.226623	-0.525767
H243	H	0.376907	0.955638	-0.071761
C244	C	0.566492	0.946349	0.083655
C245	C	0.575714	0.981996	0.127294
C246	C	0.667026	0.946370	0.170983
C247	C	0.749116	0.875096	0.171032
C248	C	0.739897	0.839444	0.127391
C249	C	0.648585	0.875070	0.083702
H250	H	0.514943	1.034762	0.127259
H251	H	0.673850	0.972762	0.203289
H252	H	0.816711	0.848723	0.203373
H253	H	0.800668	0.786679	0.127427
H254	H	0.641761	0.848678	0.051397
H255	H	0.863117	0.399281	-0.071520
C256	C	1.150623	0.272503	-0.082726
C257	C	1.189325	0.281426	-0.147089
C258	C	1.180069	0.245802	-0.190744
C259	C	1.132112	0.201255	-0.170035
C260	C	1.093407	0.192331	-0.105668
C261	C	1.102662	0.227955	-0.062014
H262	H	1.224829	0.314403	-0.162422
H263	H	1.208721	0.252408	-0.238392
H264	H	1.125260	0.174884	-0.202351
H265	H	1.057903	0.159353	-0.090335
H266	H	1.074010	0.221348	-0.014365
H267	H	0.697303	0.821416	-0.675869
H268	H	0.863108	-0.044383	-0.071505
C269	C	0.876210	0.510781	-0.647268
C270	C	0.926492	0.423487	-0.567962
C271	C	0.976771	0.336194	-0.559928
C272	C	0.976767	0.336195	-0.631200
C273	C	0.926483	0.423492	-0.710512
C274	C	0.876205	0.510785	-0.718545
H275	H	0.926497	0.423484	-0.515197
H276	H	1.013994	0.271571	-0.501217
H277	H	1.013986	0.271575	-0.625254
H278	H	0.926479	0.423495	-0.763277
H279	H	0.838981	0.575408	-0.777257
H280	H	0.697305	-0.044381	0.072393
H281	H	0.697318	0.073154	0.072401
H282	H	0.376927	0.821431	-0.071748
C283	C	0.876198	0.510781	-0.511202
C284	C	0.975460	0.445304	-0.487323
C285	C	1.025727	0.358002	-0.408017
C286	C	0.976730	0.336177	-0.352590
C287	C	0.877462	0.401656	-0.376468
C288	C	0.827195	0.488958	-0.455774
H289	H	1.011736	0.461458	-0.528354
H290	H	1.099212	0.309530	-0.390341
H291	H	1.013940	0.271551	-0.293883
H292	H	0.841186	0.385502	-0.335437
H293	H	0.753710	0.537430	-0.473450
H294	H	0.219304	0.900783	-0.111354
H295	H	0.083907	0.900778	-0.111222
H296	H	0.017670	0.821420	-0.071422
H297	H	0.183495	0.533479	0.072621
C298	C	1.324971	0.204446	0.000680
C299	C	1.315720	0.168825	-0.042977
C300	C	1.397793	0.097547	-0.042944
C301	C	1.489116	0.061888	0.000744
C302	C	1.498371	0.097509	0.044403
C303	C	1.416299	0.168787	0.044371
H304	H	1.248114	0.195222	-0.075320
H305	H	1.390941	0.071178	-0.075264
H306	H	1.549871	0.009123	0.000768
H307	H	1.565977	0.071112	0.076747
H308	H	1.423150	0.195156	0.076691
H309	H	0.863131	1.073146	-0.323209
H310	H	0.341131	0.454121	0.112221
H311	H	0.476526	0.454102	0.112105
H312	H	0.697279	0.821435	-0.349774
H313	H	0.863134	0.533478	-0.323257
H314	H	1.017665	0.399301	-0.071445
H315	H	0.863161	0.281743	0.468183
H316	H	0.697334	0.281706	0.324160
H317	H	0.697319	0.399253	0.206588
H318	H	1.153137	0.281699	0.468353
H319	H	0.241537	1.073204	-0.071824
H320	H	1.017720	0.399247	0.350744
H321	H	0.376932	0.955613	-0.205945
H322	H	0.256708	1.131987	-0.454315
H323	H	0.407300	1.073223	-0.467475
H324	H	0.542715	0.955648	-0.349865
