data_functionalizedCrystal
_audit_creation_method	'MofGen! by Chris Wilmer'
_symmetry_space_group_name_H-M	'P1'
_symmetry_Int_Tables_number	1
_symmetry_cell_setting	triclinic
loop_
_symmetry_equiv_pos_as_xyz
  x,y,z
_cell_length_a	25.639239
_cell_length_b	21.295418
_cell_length_c	21.295412
_cell_angle_alpha	89.964379
_cell_angle_beta	89.970930
_cell_angle_gamma	90.054499
loop_
_atom_site_label
_atom_site_type_symbol
_atom_site_fract_x
_atom_site_fract_y
_atom_site_fract_z
Zn1	Zn	-0.207940	0.962270	-0.356243
Zn2	Zn	-0.295375	0.962172	-0.250972
Zn3	Zn	-0.207980	0.857008	-0.250953
Zn4	Zn	-0.295371	0.856947	-0.356169
O5	O	-0.251666	0.909599	-0.303584
O6	O	-0.219524	1.050346	-0.342318
O7	O	-0.283800	0.948206	-0.162880
O8	O	-0.134809	0.871037	-0.264943
O9	O	-0.283762	1.050274	-0.264976
O10	O	-0.134780	0.948373	-0.342299
O11	O	-0.219591	0.870942	-0.162866
O12	O	-0.219587	0.768910	-0.264871
O13	O	-0.283755	0.870934	-0.444268
O14	O	-0.283793	0.768866	-0.342172
O15	O	-0.219520	0.948314	-0.444322
O16	O	-0.368540	0.948147	-0.264904
O17	O	-0.368537	0.870839	-0.342191
C18	C	-0.251694	0.746047	-0.303512
C19	C	-0.251718	0.676079	-0.303495
C20	C	-0.285195	0.643206	-0.343686
C21	C	-0.285182	0.577463	-0.343715
C22	C	-0.251698	0.544597	-0.303541
C23	C	-0.218215	0.577478	-0.263347
C24	C	-0.218225	0.643219	-0.263325
N25	N	-0.247613	0.441329	-0.248483
N26	N	-0.247607	0.378878	-0.248506
C27	C	-0.251665	0.346522	-0.303608
N28	N	-0.255740	0.378977	-0.358686
N29	N	-0.255749	0.441434	-0.358662
C30	C	-0.251683	0.473311	-0.303561
C31	C	-0.285129	0.242363	-0.343832
C32	C	-0.285112	0.176620	-0.343862
C33	C	-0.218148	0.176636	-0.263489
C34	C	-0.218162	0.242378	-0.263465
C35	C	-0.251655	0.275238	-0.303636
C36	C	-0.387509	0.909493	-0.303555
C37	C	-0.445623	0.909506	-0.303564
C38	C	-0.805975	0.949958	-0.263409
C39	C	-0.860579	0.949983	-0.263418
O40	O	-0.888807	0.984268	-0.229245
N41	N	-0.887905	0.909710	-0.303626
C42	C	-0.860624	0.869414	-0.343833
O43	O	-0.888881	0.835161	-0.378034
C44	C	-0.806021	0.869393	-0.343827
C45	C	-0.778698	0.909665	-0.303612
C46	C	-0.778652	0.990227	-0.223198
C47	C	-0.724051	0.990202	-0.223188
C48	C	-0.696774	0.949908	-0.263391
C49	C	-0.724097	0.909639	-0.303603
C50	C	-0.778741	0.829101	-0.384037
C51	C	-0.724134	0.829084	-0.384028
C52	C	-0.696811	0.869356	-0.343812
C53	C	-0.642220	0.869320	-0.343796
N54	N	-0.614893	0.909593	-0.303588
C55	C	-0.642171	0.949887	-0.263385
C56	C	-0.975295	0.869462	-0.343842
C57	C	-1.029897	0.869479	-0.343845
C58	C	-1.029849	0.950048	-0.263431
C59	C	-0.975245	0.950028	-0.263425
C60	C	-0.947969	0.909735	-0.303634
C61	C	-0.527506	0.949830	-0.263369
C62	C	-0.472900	0.949799	-0.263361
C63	C	-0.472954	0.869232	-0.343778
C64	C	-0.527554	0.869260	-0.343783
C65	C	-0.554829	0.909565	-0.303577
O66	O	-0.613957	0.835055	-0.377953
O67	O	-0.613907	0.984140	-0.229195
C68	C	-0.115293	0.909723	-0.303627
C69	C	-0.057179	0.909775	-0.303645
C70	C	-0.251633	0.909628	-0.467774
C71	C	-0.251618	0.909640	-0.537742
C72	C	-0.251639	1.073789	-0.303657
C73	C	-0.251628	1.143758	-0.303688
C74	C	-0.218088	0.949992	-1.037230
C75	C	-0.218101	0.949987	-0.971488
C76	C	-0.251549	0.909695	-0.938582
C77	C	-0.284997	0.869416	-0.971425
C78	C	-0.284987	0.869427	-1.037166
N79	N	-0.255585	0.854573	-0.835335
N80	N	-0.255591	0.854565	-0.772884
C81	C	-0.251582	0.909662	-0.740507
N82	N	-0.247556	0.964769	-0.772942
N83	N	-0.247547	0.964776	-0.835399
C84	C	-0.251564	0.909680	-0.867297
C85	C	-0.218153	0.949936	-0.636387
C86	C	-0.218169	0.949932	-0.570643
C87	C	-0.285062	0.869356	-0.570582
C88	C	-0.285048	0.869365	-0.636324
C89	C	-0.251591	0.909654	-0.669223
C90	C	-0.251662	0.909606	-0.140032
C91	C	-0.251529	0.909716	-0.070065
H92	H	-0.312398	0.269119	-0.376545
H93	H	-0.190910	0.982741	-0.663175
N94	N	-1.057716	0.991204	-0.222358
N95	N	-1.088231	0.969093	-0.182222
H96	H	-1.107914	0.998156	-0.153215
H97	H	-0.800978	0.796305	-0.416781
N98	N	-0.319196	0.828217	-0.669878
N99	N	-0.319180	0.828229	-0.728574
H100	H	-0.343298	0.799166	-0.752273
H101	H	-0.312231	0.836611	-0.944629
H102	H	-0.190868	0.982784	-0.944748
H103	H	-0.701928	0.796274	-0.416773
H104	H	-1.052139	0.836680	-0.376587
N105	N	-0.184006	0.543919	-0.222310
N106	N	-0.135766	0.551332	-0.226591
H107	H	-0.111602	0.527632	-0.197609
H108	H	-0.190963	0.669984	-0.230596
H109	H	-0.312219	0.836628	-1.063900
H110	H	-0.312298	0.836552	-0.543791
H111	H	-0.549802	0.836470	-0.376532
N112	N	-0.444994	0.990929	-0.222270
N113	N	-0.451134	0.986789	-0.164181
H114	H	-0.431427	1.015836	-0.135159
N115	N	-0.319308	0.143048	-0.384928
N116	N	-0.349206	0.172398	-0.420791
H117	H	-0.373358	0.148688	-0.449795
N118	N	-0.696144	1.031327	-0.182099
N119	N	-0.665729	1.009187	-0.141946
H120	H	-0.646024	1.038232	-0.112920
N121	N	-0.183971	0.275970	-0.222413
N122	N	-0.150684	0.312723	-0.244621
H123	H	-0.126534	0.336449	-0.215628
N124	N	-0.183942	0.143062	-0.222463
N125	N	-0.183934	0.084365	-0.222491
H126	H	-0.159772	0.060650	-0.193518
H127	H	-0.549706	0.982651	-0.230630
H128	H	-0.190939	0.982734	-0.543911
H129	H	-0.800855	1.023043	-0.190460
H130	H	-0.312467	0.669957	-0.376398
H131	H	-0.312442	0.550693	-0.376445
H132	H	-0.953002	0.982820	-0.230679
H133	H	-0.953089	0.836645	-0.376584
N134	N	-0.183924	0.991150	-1.070844
N135	N	-0.183920	0.991158	-1.129541
H136	H	-0.159793	1.020226	-1.153283
H137	H	-0.450736	0.836423	-0.376509
