data_functionalizedCrystal
_audit_creation_method	'MofGen! by Chris Wilmer'
_symmetry_space_group_name_H-M	'P1'
_symmetry_Int_Tables_number	1
_symmetry_cell_setting	triclinic
loop_
_symmetry_equiv_pos_as_xyz
  x,y,z
_cell_length_a	17.077404
_cell_length_b	12.645330
_cell_length_c	17.077396
_cell_angle_alpha	90.026204
_cell_angle_beta	90.018362
_cell_angle_gamma	90.010616
loop_
_atom_site_label
_atom_site_type_symbol
_atom_site_fract_x
_atom_site_fract_y
_atom_site_fract_z
Zn1	Zn	1.200110	-0.422097	0.443831
Zn2	Zn	1.200041	-0.599382	0.312570
Zn3	Zn	1.068842	-0.422127	0.312582
Zn4	Zn	1.068834	-0.599312	0.443797
O5	O	1.134457	-0.510730	0.378195
O6	O	1.309948	-0.445631	0.426429
O7	O	1.182612	-0.575911	0.202725
O8	O	1.086288	-0.273776	0.330012
O9	O	1.309897	-0.575882	0.329992
O10	O	1.182730	-0.273754	0.426440
O11	O	1.086221	-0.445682	0.202733
O12	O	0.958994	-0.445614	0.329978
O13	O	1.086273	-0.575762	0.553648
O14	O	0.958988	-0.575792	0.426381
O15	O	1.182722	-0.445563	0.553674
O16	O	1.182603	-0.747720	0.329959
O17	O	1.086206	-0.747669	0.426370
C18	C	0.930509	-0.510700	0.378177
C19	C	0.843259	-0.510712	0.378189
C20	C	1.134418	-0.786159	0.378177
C21	C	1.134473	-0.903989	0.378195
C22	C	0.802296	-0.443011	0.428480
C23	C	0.720316	-0.443018	0.428483
C24	C	0.679300	-0.510732	0.378199
C25	C	0.720268	-0.578436	0.327902
C26	C	0.802247	-0.578423	0.327895
C27	C	0.549398	-0.578460	0.327922
C28	C	0.467414	-0.578475	0.327930
C29	C	0.467467	-0.443055	0.428510
C30	C	0.549446	-0.443042	0.428503
C31	C	0.590409	-0.510748	0.378207
C32	C	1.195019	-1.071541	0.317419
C33	C	1.195216	-0.948981	0.317568
C34	C	1.156905	-0.948374	0.460938
C35	C	1.157385	-1.070972	0.460616
C36	C	1.051470	-1.071312	0.357042
C37	C	1.051868	-0.948708	0.355187
C38	C	1.339201	-0.510761	0.378213
C39	C	1.426451	-0.510774	0.378221
C40	C	1.134504	-0.510651	0.582939
C41	C	1.134525	-0.510618	0.670189
C42	C	1.134518	-0.234224	0.378231
C43	C	1.134544	-0.116394	0.378246
C44	C	1.134455	-0.510731	0.174247
C45	C	1.134587	-0.510466	0.086998
C46	C	1.184747	-0.442818	0.711194
C47	C	1.184757	-0.442782	0.793174
C48	C	1.134547	-0.510554	0.834149
C49	C	1.084319	-0.578357	0.793138
C50	C	1.084306	-0.578386	0.711159
C51	C	1.084350	-0.578294	0.964009
C52	C	1.084364	-0.578266	1.045993
C53	C	1.184801	-0.442689	1.046024
C54	C	1.184788	-0.442719	0.964045
C55	C	1.134561	-0.510524	0.923040
H56	H	0.835686	-0.387873	0.469429
H57	H	1.031071	-1.102319	0.297757
Cl58	Cl	0.600893	-0.663585	0.264697
H59	H	0.434111	-0.387925	0.469461
Cl60	Cl	1.247915	-0.357525	0.912535
H61	H	1.115267	-1.100638	0.507498
H62	H	0.686968	-0.387891	0.469437
H63	H	1.181181	-0.918976	0.256215
H64	H	0.686867	-0.633565	0.286956
Cl65	Cl	1.090965	-0.903389	0.532786
H66	H	1.043477	-0.633449	1.079352
H67	H	0.835598	-0.633552	0.286943
Cl68	Cl	1.173629	-1.117172	0.222415
H69	H	1.043402	-0.633586	0.677774
Cl70	Cl	1.247945	-0.357450	1.097572
Cl71	Cl	0.601008	-0.357923	0.491725
Cl72	Cl	0.978545	-0.901443	0.418573
Cl73	Cl	1.021205	-0.663535	0.912461
H74	H	0.434021	-0.633614	0.286984
Cl75	Cl	1.289509	-1.118984	0.338829
H76	H	1.256746	-0.919576	0.331593
Cl77	Cl	1.251136	-1.115003	0.488343
Cl78	Cl	1.021195	-0.663552	0.844649
H79	H	1.216941	-0.917589	0.479198
H80	H	1.034954	-0.919709	0.294295
Cl81	Cl	1.247931	-0.357590	0.844720
H82	H	1.225636	-0.387633	0.677838
Cl83	Cl	0.981902	-1.116098	0.425439
