data_functionalizedCrystal
_audit_creation_method	'MofGen! by Chris Wilmer'
_symmetry_space_group_name_H-M	'P1'
_symmetry_Int_Tables_number	1
_symmetry_cell_setting	triclinic
loop_
_symmetry_equiv_pos_as_xyz
  x,y,z
_cell_length_a	13.897449
_cell_length_b	18.215405
_cell_length_c	18.215399
_cell_angle_alpha	90.030551
_cell_angle_beta	90.018532
_cell_angle_gamma	90.026165
loop_
_atom_site_label
_atom_site_type_symbol
_atom_site_fract_x
_atom_site_fract_y
_atom_site_fract_z
Zn1	Zn	1.474633	-0.292967	0.416077
Zn2	Zn	1.724633	-0.042967	0.666077
Zn3	Zn	1.974633	0.207033	0.916077
Zn4	Zn	2.224633	0.457033	1.166077
Zn5	Zn	1.474513	-0.416038	0.293005
Zn6	Zn	1.724513	-0.166038	0.543005
Zn7	Zn	1.974513	0.083962	0.793005
Zn8	Zn	2.224513	0.333962	1.043005
Zn9	Zn	1.313329	-0.292993	0.293027
Zn10	Zn	1.563329	-0.042993	0.543027
Zn11	Zn	1.813329	0.207007	0.793027
Zn12	Zn	2.063329	0.457007	1.043027
Zn13	Zn	1.313284	-0.415999	0.416033
Zn14	Zn	1.563284	-0.165999	0.666033
Zn15	Zn	1.813284	0.084001	0.916033
Zn16	Zn	2.063284	0.334001	1.166033
O17	O	1.393940	-0.354499	0.354536
O18	O	1.643940	-0.104499	0.604536
O19	O	1.893940	0.145501	0.854536
O20	O	2.143940	0.395501	1.104536
O21	O	1.609599	-0.309298	0.399761
O22	O	1.859599	-0.059298	0.649761
O23	O	2.109599	0.190702	0.899761
O24	O	2.359599	0.440702	1.149761
O25	O	1.453100	-0.399743	0.190024
O26	O	1.703100	-0.149743	0.440024
O27	O	1.953100	0.100257	0.690024
O28	O	2.203100	0.350257	0.940024
O29	O	1.334795	-0.190005	0.309378
O30	O	1.584795	0.059995	0.559378
O31	O	1.834795	0.309995	0.809378
O32	O	2.084795	0.559995	1.059378
O33	O	1.609511	-0.399718	0.309340
O34	O	1.859511	-0.149718	0.559340
O35	O	2.109511	0.100282	0.809340
O36	O	2.359511	0.350282	1.059340
O37	O	1.453305	-0.189986	0.399782
O38	O	1.703305	0.060014	0.649782
O39	O	1.953305	0.310014	0.899782
O40	O	2.203305	0.560014	1.149782
O41	O	1.334679	-0.309342	0.190040
O42	O	1.584679	-0.059342	0.440040
O43	O	1.834679	0.190658	0.690040
O44	O	2.084679	0.440658	0.940040
O45	O	1.178341	-0.309304	0.309335
O46	O	1.428341	-0.059304	0.559335
O47	O	1.678341	0.190696	0.809335
O48	O	1.928341	0.440696	1.059335
O49	O	1.334719	-0.399651	0.519023
O50	O	1.584719	-0.149651	0.769023
O51	O	1.834719	0.100349	1.019023
O52	O	2.084719	0.350349	1.269023
O53	O	1.178308	-0.399676	0.399707
O54	O	1.428308	-0.149676	0.649707
O55	O	1.678308	0.100324	0.899707
O56	O	1.928308	0.350324	1.149707
O57	O	1.453262	-0.309260	0.519055
O58	O	1.703262	-0.059260	0.769055
O59	O	1.953262	0.190740	1.019055
O60	O	2.203262	0.440740	1.269055
O61	O	1.453057	-0.519017	0.309297
O62	O	1.703057	-0.269017	0.559297
O63	O	1.953057	-0.019017	0.809297
O64	O	2.203057	0.230983	1.059297
O65	O	1.334602	-0.518988	0.399685
O66	O	1.584602	-0.268988	0.649685
O67	O	1.834602	-0.018988	0.899685
O68	O	2.084602	0.231012	1.149685
C69	C	1.393838	-0.545705	0.354500
C70	C	1.643838	-0.295705	0.604500
C71	C	1.893838	-0.045705	0.854500
C72	C	2.143838	0.204295	1.104500
C73	C	1.393883	-0.627504	0.354510
C74	C	1.643883	-0.377504	0.604510
C75	C	1.893883	-0.127504	0.854510
C76	C	2.143883	0.122496	1.104510
C77	C	1.143326	-0.354489	0.354519
C78	C	1.393326	-0.104489	0.604519
C79	C	1.643326	0.145511	0.854519
C80	C	1.893326	0.395511	1.104519
C81	C	1.036112	-0.354503	0.354529
C82	C	1.286112	-0.104503	0.604529
C83	C	1.536112	0.145497	0.854529
C84	C	1.786112	0.395497	1.104529
C85	C	1.455707	-0.815689	0.307531
C86	C	1.705707	-0.565689	0.557531
C87	C	1.955707	-0.315689	0.807531
C88	C	2.205707	-0.065689	1.057531
C89	C	1.455750	-0.892547	0.307549
C90	C	1.705750	-0.642547	0.557549
C91	C	1.955750	-0.392547	0.807549
C92	C	2.205750	-0.142547	1.057549
C93	C	1.332296	-0.892557	0.401593
C94	C	1.582296	-0.642557	0.651593
C95	C	1.832296	-0.392557	0.901593
C96	C	2.082296	-0.142557	1.151593
C97	C	1.332259	-0.815700	0.401578
C98	C	1.582259	-0.565700	0.651578
C99	C	1.832259	-0.315700	0.901578
C100	C	2.082259	-0.065700	1.151578
C101	C	1.393963	-0.777268	0.354543
C102	C	1.643963	-0.527268	0.604543
C103	C	1.893963	-0.277268	0.854543
C104	C	2.143963	-0.027268	1.104543
C105	C	1.394043	-0.930984	0.354576
C106	C	1.644043	-0.680984	0.604576
C107	C	1.894043	-0.430984	0.854576
C108	C	2.144043	-0.180984	1.104576
C109	C	1.394090	-1.014317	0.354595
C110	C	1.644090	-0.764317	0.604595
C111	C	1.894090	-0.514317	0.854595
C112	C	2.144090	-0.264317	1.104595
C113	C	1.393918	-0.693929	0.354524
C114	C	1.643918	-0.443929	0.604524
C115	C	1.893918	-0.193929	0.854524
C116	C	2.143918	0.056071	1.104524
C117	C	0.839817	-0.354505	0.354548
C118	C	1.089817	-0.104505	0.604548
C119	C	1.339817	0.145495	0.854548
C120	C	1.589817	0.395495	1.104548
C121	C	0.949049	-0.354502	0.354536
C122	C	1.199049	-0.104502	0.604536
C123	C	1.449049	0.145498	0.854536
C124	C	1.699049	0.395498	1.104536
C125	C	1.645533	-0.354509	0.354553
C126	C	1.895533	-0.104509	0.604553
C127	C	2.145533	0.145491	0.854553
C128	C	2.395533	0.395491	1.104553
C129	C	1.752747	-0.354514	0.354560
C130	C	2.002747	-0.104514	0.604560
C131	C	2.252747	0.145486	0.854560
C132	C	2.502747	0.395486	1.104560
C133	C	1.393999	-0.354448	0.546489
C134	C	1.643999	-0.104448	0.796489
C135	C	1.893999	0.145552	1.046489
C136	C	2.143999	0.395552	1.296489
C137	C	1.394024	-0.354427	0.628288
C138	C	1.644024	-0.104427	0.878288
C139	C	1.894024	0.145573	1.128288
C140	C	2.144024	0.395573	1.378288
C141	C	1.394068	-0.162546	0.354587
C142	C	1.644068	0.087454	0.604587
C143	C	1.894068	0.337454	0.854587
C144	C	2.144068	0.587454	1.104587
C145	C	1.394123	-0.080747	0.354609
C146	C	1.644123	0.169253	0.604609
C147	C	1.894123	0.419253	0.854609
C148	C	2.144123	0.669253	1.104609
C149	C	1.393937	-0.354496	0.163329
C150	C	1.643937	-0.104496	0.413329
C151	C	1.893937	0.145504	0.663329
C152	C	2.143937	0.395504	0.913329
C153	C	1.394099	-0.354311	0.081531
C154	C	1.644099	-0.104311	0.331531
C155	C	1.894099	0.145689	0.581531
C156	C	2.144099	0.395689	0.831531
C157	C	1.455771	-0.307316	0.816500
C158	C	1.705771	-0.057316	1.066500
C159	C	1.955771	0.192684	1.316500
C160	C	2.205771	0.442684	1.566500
C161	C	1.455783	-0.307295	0.893358
C162	C	1.705783	-0.057295	1.143358
C163	C	1.955783	0.192705	1.393358
C164	C	2.205783	0.442705	1.643358
C165	C	1.332345	-0.401424	0.893313
C166	C	1.582345	-0.151424	1.143313
C167	C	1.832345	0.098576	1.393313
C168	C	2.082345	0.348576	1.643313
C169	C	1.332329	-0.401441	0.816456
C170	C	1.582329	-0.151441	1.066456
C171	C	1.832329	0.098559	1.316456
C172	C	2.082329	0.348559	1.566456
C173	C	1.394048	-0.354388	0.778051
C174	C	1.644048	-0.104388	1.028051
C175	C	1.894048	0.145612	1.278051
C176	C	2.144048	0.395612	1.528051
C177	C	1.394075	-0.354349	0.931767
C178	C	1.644075	-0.104349	1.181767
C179	C	1.894075	0.145651	1.431767
C180	C	2.144075	0.395651	1.681767
C181	C	1.394087	-0.354326	1.015101
C182	C	1.644087	-0.104326	1.265101
C183	C	1.894087	0.145674	1.515101
C184	C	2.144087	0.395674	1.765101
C185	C	1.394035	-0.354410	0.694712
C186	C	1.644035	-0.104410	0.944712
C187	C	1.894035	0.145590	1.194712
C188	C	2.144035	0.395590	1.444712
H189	H	1.505951	-0.784399	0.269234
H190	H	1.755951	-0.534399	0.519234
H191	H	2.005951	-0.284399	0.769234
H192	H	2.255951	-0.034399	1.019234
Cl193	Cl	1.533390	-0.248122	0.941691
Cl194	Cl	1.783390	0.001878	1.191691
Cl195	Cl	2.033390	0.251878	1.441691
Cl196	Cl	2.283390	0.501878	1.691691
H197	H	1.506030	-0.923826	0.269268
H198	H	1.756030	-0.673826	0.519268
H199	H	2.006030	-0.423826	0.769268
H200	H	2.256030	-0.173826	1.019268
H201	H	1.282058	-0.923858	0.439886
H202	H	1.532058	-0.673858	0.689886
H203	H	1.782058	-0.423858	0.939886
H204	H	2.032058	-0.173858	1.189886
Cl205	Cl	1.254636	-0.767396	0.460688
Cl206	Cl	1.504636	-0.517396	0.710688
Cl207	Cl	1.754636	-0.267396	0.960688
Cl208	Cl	2.004636	-0.017396	1.210688
H209	H	1.506024	-0.269001	0.785233
H210	H	1.756024	-0.019001	1.035233
H211	H	2.006024	0.230999	1.285233
H212	H	2.256024	0.480999	1.535233
Cl213	Cl	1.254765	-0.460576	0.941599
Cl214	Cl	1.504765	-0.210576	1.191599
Cl215	Cl	1.754765	0.039424	1.441599
Cl216	Cl	2.004765	0.289424	1.691599
H217	H	1.282059	-0.439772	0.785150
H218	H	1.532059	-0.189772	1.035150
H219	H	1.782059	0.060228	1.285150
H220	H	2.032059	0.310228	1.535150
