data_functionalizedCrystal
_audit_creation_method	'MofGen! by Chris Wilmer'
_symmetry_space_group_name_H-M	'P1'
_symmetry_Int_Tables_number	1
_symmetry_cell_setting	triclinic
loop_
_symmetry_equiv_pos_as_xyz
  x,y,z
_cell_length_a	16.109301
_cell_length_b	19.188930
_cell_length_c	15.186229
_cell_angle_alpha	89.991143
_cell_angle_beta	89.999362
_cell_angle_gamma	83.303131
loop_
_atom_site_label
_atom_site_type_symbol
_atom_site_fract_x
_atom_site_fract_y
_atom_site_fract_z
O1	O	1.102833	0.089744	-0.073183
O2	O	0.860734	0.100912	-0.073198
O3	O	0.988770	-0.006311	-0.073173
O4	O	0.974797	0.196967	-0.073208
O5	O	0.988762	-0.006313	0.073284
O6	O	0.860726	0.100911	0.073259
O7	O	1.102825	0.089742	0.073274
Zn8	Zn	0.981774	0.095326	0.096520
Zn9	Zn	0.981785	0.095328	-0.096444
O10	O	0.974789	0.196966	0.073249
C11	C	0.829757	0.100459	0.000029
C12	C	0.737466	0.099103	0.000024
C13	C	0.514993	0.159573	0.000023
C14	C	0.428277	0.158294	0.000029
C15	C	0.448573	0.031076	0.000048
C16	C	0.535287	0.032357	0.000048
C17	C	0.568495	0.096608	0.000031
C18	C	0.395064	0.094047	0.000037
C19	C	0.301043	0.092659	0.000043
C20	C	0.662522	0.097996	0.000027
C21	C	0.988313	-0.032324	0.000058
C22	C	0.986955	-0.109832	0.000066
C23	C	1.062082	-0.154580	0.000075
C24	C	1.060806	-0.227407	0.000060
C25	C	0.984399	-0.255482	0.000055
C26	C	0.909261	-0.210724	0.000041
C27	C	0.910540	-0.137899	0.000046
N28	N	0.925991	-0.363624	0.049893
N29	N	0.924782	-0.432805	0.049890
C30	C	0.980543	-0.474900	0.000037
N31	N	1.037571	-0.445200	-0.049802
N32	N	1.038783	-0.376013	-0.049795
C33	C	0.983004	-0.334448	0.000049
C34	C	1.054292	-0.598616	0.000029
C35	C	1.053012	-0.671443	0.000010
C36	C	0.901465	-0.654759	-0.000001
C37	C	0.902747	-0.581933	0.000010
C38	C	0.979162	-0.553866	0.000029
C39	C	1.133802	0.090196	0.000045
C40	C	1.226093	0.091552	0.000045
C41	C	0.975246	0.222979	0.000016
C42	C	0.976604	0.300486	0.000003
N43	N	0.981772	0.095325	0.228213
N44	N	0.981793	0.095325	-0.228137
C45	C	1.038486	0.047862	0.453947
C46	C	1.038488	0.047860	0.546136
C47	C	0.925074	0.142790	0.546123
C48	C	0.925068	0.142787	0.453935
C49	C	0.981779	0.095324	0.407849
C50	C	0.981787	0.095325	0.592227
C51	C	0.981790	0.095323	0.692183
C52	C	0.981775	0.095325	0.307887
H53	H	0.542027	0.211890	0.000016
H54	H	0.384719	0.209567	0.000024
H55	H	0.878886	0.181437	0.416400
O56	O	0.870074	0.188871	0.591029
C57	C	0.882225	0.178686	0.682282
H58	H	0.948418	0.152606	0.694873
H59	H	0.835298	0.143659	0.708458
C60	C	0.788176	0.282142	0.714129
C61	C	0.869477	0.250115	0.729594
H62	H	0.780308	0.326201	0.743315
H63	H	0.779986	0.289003	0.652651
H64	H	0.749079	0.252945	0.735943
H65	H	0.908572	0.279307	0.707771
H66	H	0.877673	0.243261	0.791071
O67	O	0.827315	-0.682138	0.000028
C68	C	0.842294	-0.756012	-0.000003
H69	H	0.907235	-0.773133	0.027732
H70	H	0.838348	-0.776268	-0.070269
C71	C	0.696502	-0.765188	0.023353
C72	C	0.776261	-0.786217	0.057425
H73	H	0.655768	-0.783821	0.058774
H74	H	0.686409	-0.715418	0.023371
H75	H	0.693226	-0.782070	-0.035202
H76	H	0.779540	-0.769328	0.115974
H77	H	0.786353	-0.835985	0.057418
O78	O	1.128464	-0.571261	-0.000081
C79	C	1.133745	-0.529634	-0.075938
H80	H	1.068150	-0.511479	-0.101226
H81	H	1.170647	-0.561804	-0.129055
C82	C	1.258841	-0.487526	-0.021827
C83	C	1.178275	-0.465223	-0.052882
H84	H	1.286312	-0.447796	-0.007607
H85	H	1.255285	-0.515573	0.029278
H86	H	1.289582	-0.514335	-0.066096
H87	H	1.147532	-0.438423	-0.008609
H88	H	1.181826	-0.437170	-0.103979
H89	H	0.841570	-0.545497	0.000008
H90	H	0.421524	-0.021234	0.000066
H91	H	1.084662	0.009214	0.416426
H92	H	1.084664	0.009211	0.583666
H93	H	0.578851	-0.018920	0.000057
H94	H	1.124306	-0.131733	0.000087
H95	H	1.121986	-0.263848	0.000064
O96	O	0.835091	-0.238076	-0.000080
C97	C	0.829816	-0.279677	-0.075944
H98	H	0.895413	-0.297825	-0.101226
H99	H	0.792921	-0.247488	-0.129062
C100	C	0.704712	-0.321800	-0.021858
C101	C	0.785281	-0.344094	-0.052906
H102	H	0.677238	-0.361533	-0.007649
H103	H	0.708264	-0.293770	0.029252
H104	H	0.673977	-0.294975	-0.066128
H105	H	0.816018	-0.370910	-0.008632
H106	H	0.781734	-0.372130	-0.104008
O107	O	0.837481	-0.094526	0.000081
C108	C	0.769764	-0.134917	0.000046
H109	H	0.791062	-0.189281	0.027768
H110	H	0.746336	-0.140083	-0.070220
C111	C	0.672515	-0.031855	0.023430
C112	C	0.698671	-0.098623	0.057486
H113	H	0.628659	-0.009466	0.058858
H114	H	0.718136	-0.004641	0.023451
H115	H	0.652997	-0.036168	-0.035125
H116	H	0.718198	-0.094308	0.116035
H117	H	0.653051	-0.125835	0.057476
H118	H	1.114193	-0.707878	0.000012
