data_functionalizedCrystal
_audit_creation_method	'MofGen! by Chris Wilmer'
_symmetry_space_group_name_H-M	'P1'
_symmetry_Int_Tables_number	1
_symmetry_cell_setting	triclinic
loop_
_symmetry_equiv_pos_as_xyz
  x,y,z
_cell_length_a	14.519731
_cell_length_b	15.995350
_cell_length_c	13.596369
_cell_angle_alpha	89.996243
_cell_angle_beta	90.006433
_cell_angle_gamma	96.409386
loop_
_atom_site_label
_atom_site_type_symbol
_atom_site_fract_x
_atom_site_fract_y
_atom_site_fract_z
O1	O	-1.223657	0.109845	-0.081812
O2	O	-0.890324	0.443178	0.251522
O3	O	-0.556990	0.776512	0.584855
O4	O	-0.955159	0.122752	-0.081808
O5	O	-0.621826	0.456085	0.251526
O6	O	-0.288492	0.789418	0.584859
O7	O	-1.096748	-0.005578	-0.081809
O8	O	-0.763414	0.327756	0.251525
O9	O	-0.430081	0.661089	0.584858
O10	O	-1.082068	0.238174	-0.081810
O11	O	-0.748735	0.571508	0.251523
O12	O	-0.415402	0.904841	0.584856
O13	O	-1.096733	-0.005585	0.081774
O14	O	-0.763400	0.327749	0.415107
O15	O	-0.430067	0.661082	0.748441
O16	O	-0.955145	0.122745	0.081775
O17	O	-0.621812	0.456078	0.415109
O18	O	-0.288478	0.789412	0.748442
O19	O	-1.223643	0.109838	0.081771
O20	O	-0.890309	0.443171	0.415105
O21	O	-0.556976	0.776505	0.748438
Zn22	Zn	-1.089392	0.116290	0.107746
Zn23	Zn	-0.756058	0.449624	0.441079
Zn24	Zn	-0.422725	0.782957	0.774412
Zn25	Zn	-1.089410	0.116299	-0.107782
Zn26	Zn	-0.756077	0.449633	0.225551
Zn27	Zn	-0.422744	0.782966	0.558885
O28	O	-1.082054	0.238168	0.081773
O29	O	-0.748721	0.571501	0.415106
O30	O	-0.415388	0.904834	0.748439
C31	C	-0.920794	0.122144	-0.000016
C32	C	-0.587460	0.455477	0.333318
C33	C	-0.254127	0.788810	0.666651
C34	C	-0.818417	0.120331	-0.000014
C35	C	-0.485083	0.453665	0.333319
C36	C	-0.151750	0.786998	0.666653
C37	C	-0.735275	0.118859	-0.000017
C38	C	-0.401942	0.452192	0.333317
C39	C	-0.068609	0.785526	0.666650
C40	C	-0.630970	0.117019	-0.000015
C41	C	-0.297637	0.450352	0.333318
C42	C	0.035697	0.783686	0.666652
C43	C	-0.547834	0.115559	-0.000013
C44	C	-0.214500	0.448892	0.333320
C45	C	0.118833	0.782225	0.666653
C46	C	-0.443521	0.113719	-0.000013
C47	C	-0.110188	0.447052	0.333320
C48	C	0.223145	0.780385	0.666653
C49	C	-1.096134	-0.036777	-0.000019
C50	C	-0.762800	0.296556	0.333314
C51	C	-0.429467	0.629890	0.666647
C52	C	-1.094314	-0.129730	-0.000025
C53	C	-0.760981	0.203603	0.333309
C54	C	-0.427648	0.536937	0.666642
C55	C	-1.087781	-0.467488	-0.000021
C56	C	-0.754447	-0.134155	0.333312
C57	C	-0.421114	0.199179	0.666645
C58	C	-0.986944	-0.420212	-0.000387
C59	C	-0.653611	-0.086878	0.332947
C60	C	-0.320277	0.246455	0.666280
C61	C	-0.988764	-0.323519	-0.000018
C62	C	-0.655430	0.009815	0.333315
C63	C	-0.322097	0.343148	0.666649
C64	C	-1.091021	-0.299922	-0.000024
C65	C	-0.757688	0.033411	0.333310
C66	C	-0.424355	0.366744	0.666643
C67	C	-1.140750	-0.340926	0.093388
C68	C	-0.807416	-0.007592	0.426721
C69	C	-0.474083	0.325741	0.760054
C70	C	-1.138216	-0.437565	0.093466
C71	C	-0.804883	-0.104232	0.426799
C72	C	-0.471550	0.229101	0.760133
C73	C	-1.140316	-0.437913	-0.092558
C74	C	-0.806982	-0.104579	0.240775
C75	C	-0.473649	0.228754	0.574108
C76	C	-1.140292	-0.340967	-0.093793
C77	C	-0.806958	-0.007634	0.239540
C78	C	-0.473625	0.325699	0.572874
C79	C	-1.092858	-0.205222	-0.000022
C80	C	-0.759525	0.128111	0.333312
C81	C	-0.426192	0.461445	0.666645
C82	C	-1.085947	-0.562189	-0.000017
C83	C	-0.752613	-0.228855	0.333317
C84	C	-0.419280	0.104478	0.666650
C85	C	-0.258008	0.110446	-0.000018
C86	C	0.075325	0.443780	0.333315
C87	C	0.408659	0.777113	0.666649
C88	C	-0.360385	0.112258	-0.000012
C89	C	-0.027052	0.445592	0.333322
C90	C	0.306282	0.778925	0.666655
C91	C	-1.082668	0.269367	-0.000019
C92	C	-0.749335	0.602700	0.333314
C93	C	-0.416002	0.936033	0.666647
C94	C	-1.084488	0.362320	-0.000020
C95	C	-0.751154	0.695653	0.333313
C96	C	-0.417821	1.028987	0.666646
N97	N	-1.089386	0.116284	0.254837
N98	N	-0.756052	0.449617	0.588171
N99	N	-0.422719	0.782950	0.921504
N100	N	-1.089423	0.116299	-0.254874
N101	N	-0.756090	0.449633	0.078460
N102	N	-0.422757	0.782966	0.411793
C103	C	-1.089409	0.116300	0.656128
C104	C	-0.756076	0.449634	0.989462
C105	C	-0.422742	0.782967	1.322795
C106	C	-1.089400	0.116299	0.544477
C107	C	-0.756066	0.449632	0.877810
C108	C	-0.422733	0.782965	1.211144
C109	C	-1.089398	0.116293	0.455486
C110	C	-0.756064	0.449626	0.788820
C111	C	-0.422731	0.782959	1.122153
C112	C	-1.089388	0.116290	0.343828
C113	C	-0.756054	0.449623	0.677161
C114	C	-0.422721	0.782956	1.010495
H115	H	-0.949673	-0.295155	-0.066979
H116	H	-0.616340	0.038178	0.266355
H117	H	-0.283007	0.371512	0.599688
H118	H	-1.215875	-0.326682	0.096858
H119	H	-0.882542	0.006651	0.430191
H120	H	-0.549209	0.339984	0.763524
H121	H	-1.106199	-0.312601	0.162905
H122	H	-0.772866	0.020732	0.496238
H123	H	-0.439533	0.354065	0.829572
Br124	Br	-0.923147	-0.277174	0.111777
Br125	Br	-0.589814	0.056159	0.445110
Br126	Br	-0.256481	0.389492	0.778444
Br127	Br	-0.919863	-0.453378	0.110303
Br128	Br	-0.586529	-0.120044	0.443636
Br129	Br	-0.253196	0.213289	0.776970
Br130	Br	-1.085368	-0.472215	-0.210565
Br131	Br	-0.752035	-0.138882	0.122768
Br132	Br	-0.418701	0.194452	0.456101
Br133	Br	-1.077755	-0.468173	0.209852
Br134	Br	-0.744422	-0.134840	0.543185
Br135	Br	-0.411088	0.198493	0.876518
Br136	Br	-1.080202	-0.295101	-0.208990
Br137	Br	-0.746868	0.038232	0.124343
Br138	Br	-0.413535	0.371565	0.457677
H139	H	-1.214662	-0.469557	-0.093190
H140	H	-0.881329	-0.136224	0.240143
H141	H	-0.547995	0.197110	0.573476
Br142	Br	-0.919772	-0.451195	-0.112039
Br143	Br	-0.586438	-0.117861	0.221294
Br144	Br	-0.253105	0.215472	0.554628
Br145	Br	-1.261604	-0.491126	0.100536
Br146	Br	-0.928270	-0.157793	0.433869
Br147	Br	-0.594937	0.175540	0.767203
H148	H	-1.214863	-0.325488	-0.099437
H149	H	-0.881530	0.007845	0.233896
H150	H	-0.548196	0.341179	0.567230
