data_functionalizedCrystal
_audit_creation_method	'MofGen! by Chris Wilmer'
_symmetry_space_group_name_H-M	'P1'
_symmetry_Int_Tables_number	1
_symmetry_cell_setting	triclinic
loop_
_symmetry_equiv_pos_as_xyz
  x,y,z
_cell_length_a	14.519731
_cell_length_b	12.996460
_cell_length_c	10.723024
_cell_angle_alpha	89.999097
_cell_angle_beta	84.078361
_cell_angle_gamma	90.006310
loop_
_atom_site_label
_atom_site_type_symbol
_atom_site_fract_x
_atom_site_fract_y
_atom_site_fract_z
O1	O	1.224694	0.085566	0.163692
O2	O	0.956318	0.085568	0.182928
O3	O	1.096697	0.085563	-0.008323
O4	O	1.084316	0.085571	0.354944
O5	O	1.096679	-0.085571	-0.008312
O6	O	0.956300	-0.085566	0.182939
O7	O	1.224676	-0.085567	0.163704
Cu8	Cu	1.090487	-0.101193	0.173322
Cu9	Cu	1.090508	0.101193	0.173309
O10	O	1.084298	-0.085563	0.354955
C11	C	0.921945	0.000001	0.182032
C12	C	0.819551	0.000001	0.179331
C13	C	0.736396	0.000006	0.177137
C14	C	0.632073	0.000006	0.174395
C15	C	0.548923	0.000006	0.172218
C16	C	0.444594	0.000008	0.169476
N17	N	1.090478	-0.243540	0.173331
C18	C	1.090483	-0.336646	0.173334
C19	C	1.090491	-0.453451	0.173325
C20	C	1.090502	-0.546549	0.173312
C21	C	1.090512	-0.663362	0.173305
C22	C	1.259049	0.000002	0.164599
C23	C	1.361443	0.000008	0.167300
C24	C	1.095787	-0.000003	-0.054809
C25	C	1.093091	0.000001	-0.193338
N26	N	1.090524	0.243540	0.173291
C27	C	1.171640	0.000002	-0.269047
C28	C	1.168855	0.000006	-0.412225
C29	C	1.085208	0.000005	0.401440
C30	C	1.087904	0.000008	0.539970
H31	H	1.240949	-0.000004	-0.227866
H32	H	1.236099	0.000002	-0.477280
H33	H	1.020656	0.000000	-0.394983
H34	H	1.023782	0.000008	-0.234520
