data_functionalizedCrystal
_audit_creation_method	'MofGen! by Chris Wilmer'
_symmetry_space_group_name_H-M	'P1'
_symmetry_Int_Tables_number	1
_symmetry_cell_setting	triclinic
loop_
_symmetry_equiv_pos_as_xyz
  x,y,z
_cell_length_a	16.109301
_cell_length_b	17.038272
_cell_length_c	15.186229
_cell_angle_alpha	89.995962
_cell_angle_beta	89.999362
_cell_angle_gamma	87.286518
loop_
_atom_site_label
_atom_site_type_symbol
_atom_site_fract_x
_atom_site_fract_y
_atom_site_fract_z
O1	O	1.110268	0.100495	-0.073174
O2	O	1.610268	0.600495	0.426826
O3	O	0.869094	0.113001	-0.073188
O4	O	1.369094	0.613001	0.426812
O5	O	0.988247	-0.007067	-0.073174
O6	O	1.488247	0.492933	0.426826
O7	O	0.991114	0.220563	-0.073187
O8	O	1.491114	0.720563	0.426813
O9	O	0.988239	-0.007069	0.073284
O10	O	1.488239	0.492931	0.573284
O11	O	0.869085	0.113000	0.073270
O12	O	1.369085	0.613000	0.573270
O13	O	1.110259	0.100493	0.073284
O14	O	1.610259	0.600493	0.573284
Zn15	Zn	0.989671	0.106746	0.096530
Zn16	Zn	1.489671	0.606746	0.596530
Zn17	Zn	0.989682	0.106748	-0.096434
Zn18	Zn	1.489682	0.606748	0.403566
O19	O	0.991105	0.220562	0.073270
O20	O	1.491105	0.720562	0.573270
C21	C	0.838079	0.112494	0.000039
C22	C	1.338079	0.612494	0.500039
C23	C	0.745676	0.110975	0.000034
C24	C	1.245676	0.610975	0.500034
C25	C	0.528212	0.178690	0.000040
C26	C	1.028212	0.678690	0.500040
C27	C	0.441390	0.177257	0.000046
C28	C	0.941390	0.677257	0.500046
C29	C	0.451147	0.034799	0.000051
C30	C	0.951147	0.534799	0.500051
C31	C	0.537968	0.036233	0.000051
C32	C	1.037968	0.536233	0.500051
C33	C	0.576498	0.108181	0.000042
C34	C	1.076498	0.608181	0.500042
C35	C	0.402855	0.105314	0.000047
C36	C	0.902855	0.605314	0.500047
C37	C	0.308719	0.103759	0.000053
C38	C	0.808719	0.603759	0.500053
C39	C	0.670640	0.109736	0.000037
C40	C	1.170640	0.609736	0.500037
C41	C	0.985636	-0.036196	0.000055
C42	C	1.485636	0.463804	0.500055
C43	C	0.977857	-0.122989	0.000054
C44	C	1.477857	0.377011	0.500054
C45	C	1.049277	-0.173104	0.000059
C46	C	1.549277	0.326896	0.500059
C47	C	1.041963	-0.254654	0.000050
C48	C	1.541963	0.245346	0.500050
C49	C	0.963228	-0.286089	0.000043
C50	C	1.463228	0.213911	0.500043
C51	C	0.891802	-0.235967	0.000035
C52	C	1.391802	0.264033	0.500035
C53	C	0.899116	-0.154418	0.000038
C54	C	1.399116	0.345582	0.500038
C55	C	0.937385	-0.531846	0.000029
C56	C	1.437385	-0.031846	0.500029
C57	C	0.930076	-0.613402	0.000029
C58	C	1.430076	-0.113402	0.500029
C59	C	1.080238	-0.632083	0.000043
C60	C	1.580238	-0.132083	0.500043
C61	C	1.087546	-0.550532	0.000051
C62	C	1.587546	-0.050532	0.500051
C63	C	1.016120	-0.500418	0.000038
C64	C	1.516120	-0.000418	0.500038
C65	C	0.955749	-0.369446	0.000037
C66	C	1.455749	0.130554	0.500037
C67	C	1.023599	-0.417062	0.000038
C68	C	1.523599	0.082938	0.500038
C69	C	1.141274	0.101001	0.000055
C70	C	1.641274	0.601001	0.500055
C71	C	1.233677	0.102519	0.000054
C72	C	1.733677	0.602519	0.500054
C73	C	0.993717	0.249691	0.000039
C74	C	1.493717	0.749691	0.500039
C75	C	1.001496	0.336484	0.000034
C76	C	1.501496	0.836484	0.500034
N77	N	0.989669	0.106744	0.228223
N78	N	1.489669	0.606744	0.728223
N79	N	0.989690	0.106744	-0.228126
N80	N	1.489690	0.606744	0.271874
C81	C	1.042451	0.053596	0.453952
C82	C	1.542451	0.553596	0.953952
C83	C	1.042453	0.053594	0.546141
C84	C	1.542453	0.553594	1.046141
C85	C	0.936902	0.159895	0.546138
C86	C	1.436902	0.659895	1.046138
C87	C	0.936896	0.159893	0.453950
C88	C	1.436896	0.659893	0.953950
C89	C	0.989675	0.106744	0.407859
C90	C	1.489675	0.606744	0.907859
C91	C	0.989684	0.106745	0.592237
C92	C	1.489684	0.606745	1.092237
C93	C	0.989686	0.106743	0.692193
C94	C	1.489686	0.606743	1.192193
C95	C	0.989672	0.106744	0.307897
C96	C	1.489672	0.606744	0.807897
H97	H	0.577284	-0.021187	0.000055
H98	H	1.077284	0.478813	0.500055
N99	N	0.409579	-0.042793	0.000051
N100	N	0.909579	0.457207	0.500051
H101	H	0.426822	-0.073681	-0.054240
H102	H	0.926822	0.426319	0.445760
H103	H	0.426830	-0.073624	0.054380
H104	H	0.926830	0.426376	0.554380
H105	H	0.893916	0.203173	0.416419
H106	H	1.393916	0.703173	0.916419
H107	H	0.402079	0.234672	0.000047
H108	H	0.902079	0.734672	0.500047
N109	N	0.879984	0.217217	0.595858
N110	N	1.379984	0.717217	1.095858
H111	H	0.914205	0.251844	0.634098
H112	H	1.414205	0.751844	1.134098
H113	H	0.846557	0.250832	0.552614
H114	H	1.346557	0.750832	1.052614
N115	N	1.134202	-0.139206	0.000070
N116	N	1.634202	0.360794	0.500070
H117	H	1.128001	-0.079940	0.000075
H118	H	1.628001	0.420060	0.500075
H119	H	1.165700	-0.157548	0.054367
H120	H	1.665700	0.342452	0.554367
N121	N	0.569763	0.256291	0.000040
N122	N	1.069763	0.756291	0.500040
H123	H	0.605568	0.260058	0.054331
H124	H	1.105568	0.760058	0.554331
H125	H	0.605522	0.260021	-0.054288
H126	H	1.105522	0.760021	0.445712
N127	N	0.870830	-0.403354	0.000043
N128	N	1.370830	0.096646	0.500043
H129	H	0.826689	-0.359234	0.000045
H130	H	1.326689	0.140766	0.500045
H131	H	0.864529	-0.436777	-0.054252
H132	H	1.364529	0.063223	0.445748
H133	H	1.100122	-0.295455	0.000056
H134	H	1.600122	0.204545	0.500056
H135	H	1.085425	0.010318	0.416427
H136	H	1.585425	0.510318	0.916427
H137	H	1.138389	-0.672894	0.000051
H138	H	1.638389	-0.172894	0.500051
N139	N	1.172468	-0.516629	0.000064
N140	N	1.672468	-0.016629	0.500064
H141	H	1.216604	-0.560752	0.000066
H142	H	1.716604	-0.060752	0.500066
H143	H	1.178779	-0.483195	-0.054226
H144	H	1.678779	0.016805	0.445774
N145	N	0.845150	-0.647308	0.000020
N146	N	1.345150	-0.147308	0.500020
H147	H	0.801011	-0.603187	0.000010
H148	H	1.301011	-0.103187	0.500010
H149	H	0.838856	-0.680735	-0.054274
H150	H	1.338856	-0.180735	0.445726
H151	H	0.879224	-0.491053	0.000019
H152	H	1.379224	0.008947	0.500019
N153	N	1.099387	-0.003719	0.595856
N154	N	1.599387	0.496281	1.095856
H155	H	1.132823	-0.037383	0.552666
H156	H	1.632823	0.462617	1.052666
H157	H	1.138253	0.026238	0.634093
H158	H	1.638253	0.526238	1.134093
H159	H	0.827693	-0.261567	0.000023
H160	H	1.327693	0.238433	0.500023
H161	H	0.840958	-0.113615	0.000033
H162	H	1.340958	0.386385	0.500033
H163	H	1.087705	-0.391465	0.000025
H164	H	1.587705	0.108535	0.500025
