data_functionalizedCrystal
_audit_creation_method	'MofGen! by Chris Wilmer'
_symmetry_space_group_name_H-M	'P1'
_symmetry_Int_Tables_number	1
_symmetry_cell_setting	triclinic
loop_
_symmetry_equiv_pos_as_xyz
  x,y,z
_cell_length_a	21.395362
_cell_length_b	16.959455
_cell_length_c	21.395355
_cell_angle_alpha	90.024818
_cell_angle_beta	89.982663
_cell_angle_gamma	89.973005
loop_
_atom_site_label
_atom_site_type_symbol
_atom_site_fract_x
_atom_site_fract_y
_atom_site_fract_z
Zn1	Zn	-0.249534	-1.208409	-0.354271
Zn2	Zn	-0.354294	-1.208291	-0.249496
Zn3	Zn	-0.249532	-1.076217	-0.249507
Zn4	Zn	-0.354275	-1.076183	-0.354235
O5	O	-0.301909	-1.142275	-0.301877
O6	O	-0.263440	-1.319004	-0.340382
O7	O	-0.340404	-1.190736	-0.161819
O8	O	-0.161854	-1.093815	-0.263424
O9	O	-0.340406	-1.318918	-0.263404
O10	O	-0.161856	-1.190937	-0.340394
O11	O	-0.263436	-1.093701	-0.161828
O12	O	-0.263417	-0.965601	-0.263390
O13	O	-0.340374	-1.093758	-0.441918
O14	O	-0.340372	-0.965577	-0.340333
O15	O	-0.263422	-1.190904	-0.441944
O16	O	-0.441969	-1.190704	-0.263370
O17	O	-0.441956	-1.093644	-0.340322
C18	C	-0.301893	-0.936909	-0.301859
C19	C	-0.301901	-0.849052	-0.301866
C20	C	-0.341917	-0.807731	-0.261730
C21	C	-0.261890	-0.807819	-0.342006
C22	C	-0.261894	-0.725274	-0.342013
C23	C	-0.301909	-0.683953	-0.301876
C24	C	-0.341921	-0.725178	-0.261733
C25	C	-0.221879	-0.684042	-0.382150
C26	C	-0.221881	-0.601491	-0.382158
C27	C	-0.261900	-0.560169	-0.342024
C28	C	-0.301913	-0.601399	-0.301880
C29	C	-0.341929	-0.560078	-0.261743
C30	C	-0.381946	-0.601307	-0.221602
C31	C	-0.381940	-0.683855	-0.221599
C32	C	-0.261906	-0.477621	-0.342026
C33	C	-0.341932	-0.477525	-0.261747
C34	C	-0.464697	-1.142179	-0.301854
C35	C	-0.534338	-1.142210	-0.301865
C36	C	-1.036082	-1.192945	-0.342036
C37	C	-0.970646	-1.192921	-0.342026
C38	C	-0.937976	-1.142383	-0.301917
C39	C	-0.970746	-1.091878	-0.261803
C40	C	-1.036181	-1.091908	-0.261809
C41	C	-0.834358	-1.071124	-0.296906
C42	C	-0.768925	-1.071092	-0.296904
C43	C	-0.736155	-1.142290	-0.301893
C44	C	-0.768826	-1.213521	-0.306897
C45	C	-0.834261	-1.213552	-0.306903
C46	C	-0.867024	-1.142345	-0.301905
C47	C	-0.632440	-1.192770	-0.341990
C48	C	-0.567004	-1.192748	-0.341976
C49	C	-0.567105	-1.091698	-0.261756
C50	C	-0.632540	-1.091727	-0.261767
C51	C	-0.665204	-1.142262	-0.301887
C52	C	-0.138486	-1.142393	-0.301914
C53	C	-0.068844	-1.142443	-0.301930
C54	C	-0.301896	-1.142341	-0.465301
C55	C	-0.301891	-1.142369	-0.534942
C56	C	-0.301923	-0.348443	-0.301893
C57	C	-0.301921	-0.436300	-0.301890
C58	C	-0.261820	-1.192950	-0.567670
C59	C	-0.261793	-1.192949	-0.633105
C60	C	-0.301848	-1.142375	-0.665810
C61	C	-0.341922	-1.091783	-0.633075
C62	C	-0.341943	-1.091780	-0.567640
C63	C	-0.358263	-1.136100	-0.769477
C64	C	-0.358243	-1.136109	-0.834910
C65	C	-0.301782	-1.142380	-0.867631
C66	C	-0.245339	-1.148658	-0.834911
C67	C	-0.245361	-1.148655	-0.769477
C68	C	-0.301829	-1.142372	-0.736763
C69	C	-0.261678	-1.192963	-0.971312
C70	C	-0.261650	-1.192956	-1.036748
C71	C	-0.341785	-1.091794	-1.036716
C72	C	-0.341807	-1.091797	-0.971281
C73	C	-0.301755	-1.142385	-0.938583
C74	C	-0.301876	-1.142255	-0.139090
C75	C	-0.301705	-1.142380	-0.069449
H76	H	-0.374521	-0.443887	-0.229065
H77	H	-0.404229	-1.130782	-0.742841
O78	O	-0.420866	-0.723782	-0.182588
C79	C	-0.500219	-0.714987	-0.102939
C80	C	-0.456179	-0.669668	-0.147097
H81	H	-0.528772	-0.671256	-0.074224
H82	H	-0.533059	-0.753615	-0.131618
H83	H	-0.471394	-0.753649	-0.070252
H84	H	-0.484953	-0.630963	-0.179793
H85	H	-0.423338	-0.631090	-0.118379
H86	H	-0.374499	-0.841303	-0.229049
H87	H	-0.199363	-1.153766	-0.861551
O88	O	-0.222932	-0.847917	-0.380928
C89	C	-0.116401	-0.873210	-0.411560
C90	C	-0.160449	-0.827762	-0.367428
H91	H	-0.065875	-0.856918	-0.400670
H92	H	-0.123214	-0.939301	-0.404662
H93	H	-0.127514	-0.857013	-0.462058
H94	H	-0.149363	-0.843892	-0.316913
H95	H	-0.153627	-0.761681	-0.374381
H96	H	-0.229320	-0.444056	-0.374704
H97	H	-0.414524	-0.567653	-0.188921
H98	H	-1.062673	-1.234100	-0.374700
H99	H	-0.943966	-1.234047	-0.374686
O100	O	-0.222812	-1.241999	-0.535944
C101	C	-0.116237	-1.280464	-0.515994
C102	C	-0.160347	-1.224858	-0.551947
H103	H	-0.065726	-1.266637	-0.528929
H104	H	-0.123068	-1.271782	-0.463594
H105	H	-0.127271	-1.344188	-0.528876
H106	H	-0.149341	-1.161114	-0.539118
H107	H	-0.153508	-1.233609	-0.604338
H108	H	-0.189297	-0.567930	-0.414844
O109	O	-0.664339	-1.042547	-0.222880
C110	C	-0.684427	-0.908122	-0.192343
C111	C	-0.648388	-0.963729	-0.236435
H112	H	-0.671534	-0.844388	-0.203278
H113	H	-0.736814	-0.916752	-0.199238
H114	H	-0.671579	-0.922070	-0.141834
H115	H	-0.661183	-0.949816	-0.286960
H116	H	-0.596010	-0.955089	-0.229486
H117	H	-0.860859	-1.271551	-0.310976
O118	O	-0.736977	-1.282683	-0.311627
C119	C	-0.663043	-1.371251	-0.263778
C120	C	-0.699087	-1.292918	-0.258334
H121	H	-0.632390	-1.379543	-0.220703
H122	H	-0.697607	-1.422196	-0.267315
H123	H	-0.632415	-1.369977	-0.307376
H124	H	-0.729716	-1.294115	-0.214738
H125	H	-0.664489	-1.242007	-0.254831
O126	O	-0.664077	-1.241927	-0.380985
C127	C	-0.657072	-1.342092	-0.460595
C128	C	-0.621168	-1.286484	-0.416450
H129	H	-0.622396	-1.378120	-0.489290
H130	H	-0.687683	-1.383513	-0.431907
H131	H	-0.687726	-1.305765	-0.493302
H132	H	-0.590481	-1.322747	-0.383734
H133	H	-0.590597	-1.245062	-0.445177
H134	H	-0.540328	-1.233877	-0.374633
O135	O	-0.380920	-1.042696	-0.664772
C136	C	-0.487491	-1.004281	-0.684809
C137	C	-0.443396	-1.059915	-0.648864
H138	H	-0.538012	-1.018194	-0.671971
H139	H	-0.476538	-0.940539	-0.671913
H140	H	-0.480562	-1.012960	-0.737196
H141	H	-0.450300	-1.051307	-0.596469
H142	H	-0.454360	-1.123636	-0.661812
O143	O	-0.183045	-0.724097	-0.421224
C144	C	-0.152816	-0.749484	-0.527855
C145	C	-0.196822	-0.704052	-0.483671
H146	H	-0.163947	-0.733307	-0.578353
H147	H	-0.102266	-0.733269	-0.516995
H148	H	-0.159685	-0.815560	-0.520925
H149	H	-0.190009	-0.637966	-0.490577
H150	H	-0.247355	-0.720333	-0.494542
H151	H	-0.540505	-1.050552	-0.229096
O152	O	-0.380904	-1.042757	-0.535776
C153	C	-0.465546	-1.032071	-0.461927
C154	C	-0.421451	-1.087675	-0.497965
H155	H	-0.498348	-1.068365	-0.431358
H156	H	-0.436822	-0.990775	-0.431233
H157	H	-0.494142	-0.995901	-0.496550
H158	H	-0.392846	-1.123896	-0.463387
H159	H	-0.450211	-1.128918	-0.528669
O160	O	-0.380715	-1.042590	-1.068381
C161	C	-0.460224	-0.942286	-1.061444
C162	C	-0.416159	-0.997960	-1.025502
H163	H	-0.488901	-0.906200	-1.026792
H164	H	-0.431474	-0.900924	-1.092046
H165	H	-0.492951	-0.978565	-1.092110
H166	H	-0.383423	-0.961745	-0.994803
H167	H	-0.444948	-1.039325	-0.994940
H168	H	-0.742327	-1.013093	-0.292833
O169	O	-0.866090	-1.001883	-0.292085
C170	C	-0.859282	-0.860613	-0.282148
C171	C	-0.823269	-0.938964	-0.287617
H172	H	-0.824677	-0.809724	-0.278521
H173	H	-0.889886	-0.852201	-0.325244
H174	H	-0.889952	-0.861918	-0.238580
H175	H	-0.792565	-0.937715	-0.331160
H176	H	-0.792704	-0.947345	-0.244490
O177	O	-0.222709	-1.242120	-0.939640
C178	C	-0.143249	-1.342487	-0.946577
C179	C	-0.187339	-1.286845	-0.982519
H180	H	-0.114651	-1.378673	-0.981228
H181	H	-0.110455	-1.306257	-0.915945
H182	H	-0.172039	-1.383764	-0.915941
H183	H	-0.158601	-1.245557	-1.013189
H184	H	-0.220135	-1.323124	-1.013111
H185	H	-0.944143	-1.050730	-0.229144
H186	H	-1.062855	-1.050782	-0.229149
H187	H	-0.229159	-1.234137	-0.659757
H188	H	-0.199403	-1.153766	-0.742839
O189	O	-0.222651	-1.241978	-1.068567
C190	C	-0.138051	-1.252675	-1.142463
C191	C	-0.182171	-1.197070	-1.106457
H192	H	-0.105321	-1.216390	-1.173115
H193	H	-0.109386	-1.288812	-1.107875
H194	H	-0.166819	-1.294001	-1.173088
H195	H	-0.153452	-1.155696	-1.075831
H196	H	-0.210839	-1.160989	-1.141079
O197	O	-0.380648	-1.042584	-0.939456
C198	C	-0.389094	-0.935893	-0.865514
C199	C	-0.345036	-0.991569	-0.901527
H200	H	-0.360320	-0.894644	-0.834829
H201	H	-0.417709	-0.899686	-0.900097
H202	H	-0.421880	-0.972177	-0.834920
H203	H	-0.312212	-0.955346	-0.932122
H204	H	-0.316464	-1.027779	-0.866910
O205	O	-0.413121	-1.129969	-0.866594
C206	C	-0.525111	-1.117556	-0.859686
C207	C	-0.463004	-1.124486	-0.823728
H208	H	-0.565458	-1.113137	-0.825044
H209	H	-0.524164	-1.062555	-0.890287
H210	H	-0.531691	-1.171907	-0.890353
H211	H	-0.456385	-1.070176	-0.793027
H212	H	-0.463980	-1.179519	-0.793166
