data_functionalizedCrystal
_audit_creation_method	'MofGen! by Chris Wilmer'
_symmetry_space_group_name_H-M	'P1'
_symmetry_Int_Tables_number	1
_symmetry_cell_setting	triclinic
loop_
_symmetry_equiv_pos_as_xyz
  x,y,z
_cell_length_a	27.732048
_cell_length_b	27.732048
_cell_length_c	26.210047
_cell_angle_alpha	90.000479
_cell_angle_beta	89.996535
_cell_angle_gamma	97.357345
loop_
_atom_site_label
_atom_site_type_symbol
_atom_site_fract_x
_atom_site_fract_y
_atom_site_fract_z
O1	O	0.640931	-0.057510	-0.042369
O2	O	0.974264	0.275823	0.290965
O3	O	1.307598	0.609157	0.624298
O4	O	0.500138	-0.066256	-0.042385
O5	O	0.833471	0.267078	0.290948
O6	O	1.166804	0.600411	0.624282
O7	O	0.574907	0.008514	-0.042367
O8	O	0.908240	0.341847	0.290967
O9	O	1.241574	0.675181	0.624300
O10	O	0.566162	-0.132279	-0.042387
O11	O	0.899495	0.201054	0.290946
O12	O	1.232828	0.534387	0.624280
O13	O	0.574893	0.008502	0.042491
O14	O	0.908226	0.341836	0.375825
O15	O	1.241559	0.675169	0.709158
O16	O	0.500123	-0.066267	0.042473
O17	O	0.833457	0.267066	0.375806
O18	O	1.166790	0.600399	0.709140
O19	O	0.640917	-0.057522	0.042489
O20	O	0.974250	0.275812	0.375823
O21	O	1.307583	0.609145	0.709156
Cu22	Cu	0.570519	-0.061896	0.050229
Cu23	Cu	0.903852	0.271438	0.383563
Cu24	Cu	1.237185	0.604771	0.716896
Cu25	Cu	0.570536	-0.061882	-0.050125
Cu26	Cu	0.903869	0.271452	0.283208
Cu27	Cu	1.237202	0.604785	0.616542
O28	O	0.566147	-0.132291	0.042471
O29	O	0.899481	0.201042	0.375804
O30	O	1.232814	0.534375	0.709138
C31	C	0.482124	-0.066078	0.000042
C32	C	0.815457	0.267256	0.333376
C33	C	1.148790	0.600589	0.666709
C34	C	0.428469	-0.065525	0.000036
C35	C	0.761802	0.267808	0.333370
C36	C	1.095135	0.601142	0.666703
C37	C	0.089654	-0.106229	0.000053
C38	C	0.422987	0.227105	0.333386
C39	C	0.756320	0.560438	0.666719
C40	C	-0.112006	-0.104178	0.000057
C41	C	0.221327	0.229156	0.333391
C42	C	0.554661	0.562489	0.666724
O43	O	-0.143262	-0.141398	0.000074
O44	O	0.190072	0.191935	0.333408
O45	O	0.523405	0.525268	0.666741
N46	N	-0.131130	-0.059843	0.000063
N47	N	0.202204	0.273491	0.333396
N48	N	0.535537	0.606824	0.666730
C49	C	-0.099835	-0.016017	0.000071
C50	C	0.233498	0.317316	0.333404
C51	C	0.566832	0.650650	0.666737
O52	O	-0.120728	0.021740	0.000081
O53	O	0.212605	0.355073	0.333414
O54	O	0.545938	0.688407	0.666747
C55	C	0.101824	-0.018068	0.000069
C56	C	0.435157	0.315265	0.333403
C57	C	0.768490	0.648598	0.666736
C58	C	0.120944	-0.062407	0.000059
C59	C	0.454278	0.270927	0.333392
C60	C	0.787611	0.604260	0.666725
C61	C	0.108775	-0.150563	0.000043
C62	C	0.442108	0.182770	0.333376
C63	C	0.775442	0.516103	0.666709
C64	C	0.159187	-0.151076	0.000039
C65	C	0.492520	0.182258	0.333372
C66	C	0.825853	0.515591	0.666705
C67	C	0.190477	-0.107253	0.000045
C68	C	0.523811	0.226080	0.333378
C69	C	0.857144	0.559413	0.666711
C70	C	0.171356	-0.062919	0.000055
C71	C	0.504690	0.270415	0.333388
C72	C	0.838023	0.603748	0.666721
C73	C	0.133117	0.025757	0.000081
C74	C	0.466451	0.359090	0.333414
C75	C	0.799784	0.692423	0.666747
C76	C	0.183535	0.025240	0.000082
C77	C	0.516868	0.358573	0.333415
C78	C	0.850201	0.691906	0.666748
C79	C	0.202655	-0.019098	0.000071
C80	C	0.535989	0.314235	0.333404
C81	C	0.869322	0.647568	0.666738
C82	C	0.253059	-0.019609	0.000057
C83	C	0.586392	0.313724	0.333390
C84	C	0.919725	0.647058	0.666724
N85	N	0.272183	-0.063944	0.000051
N86	N	0.605516	0.269389	0.333385
N87	N	0.938849	0.602723	0.666718
C88	C	0.240892	-0.107766	0.000045
C89	C	0.574225	0.225567	0.333379
C90	C	0.907559	0.558900	0.666712
C91	C	-0.205709	-0.014943	0.000070
C92	C	0.127624	0.318390	0.333404
C93	C	0.460957	0.651724	0.666737
C94	C	-0.256124	-0.014430	0.000070
C95	C	0.077210	0.318903	0.333403
C96	C	0.410543	0.652237	0.666736
C97	C	-0.268291	-0.102591	0.000057
C98	C	0.065042	0.230742	0.333391
C99	C	0.398376	0.564076	0.666724
C100	C	-0.217876	-0.103104	0.000054
C101	C	0.115458	0.230230	0.333388
C102	C	0.448791	0.563563	0.666721
C103	C	-0.186585	-0.059278	0.000065
C104	C	0.146748	0.274055	0.333398
C105	C	0.480081	0.607388	0.666731
C106	C	0.346761	-0.108839	0.000036
C107	C	0.680094	0.224495	0.333370
C108	C	1.013428	0.557828	0.666703
C109	C	0.397178	-0.109347	0.000030
C110	C	0.730511	0.223986	0.333364
C111	C	1.063845	0.557319	0.666697
C112	C	0.409341	-0.021186	0.000045
C113	C	0.742674	0.312147	0.333379
C114	C	1.076008	0.645480	0.666712
C115	C	0.358929	-0.020678	0.000049
C116	C	0.692262	0.312656	0.333382
C117	C	1.025595	0.645989	0.666715
C118	C	0.327639	-0.064508	0.000046
C119	C	0.660973	0.268825	0.333379
C120	C	0.994306	0.602159	0.666713
O121	O	0.284343	0.017592	0.000046
O122	O	0.617676	0.350925	0.333379
O123	O	0.951009	0.684259	0.666713
O124	O	0.261794	-0.145518	0.000047
O125	O	0.595128	0.187816	0.333380
O126	O	0.928461	0.521149	0.666713
C127	C	0.039242	-0.105716	0.000057
C128	C	0.372575	0.227617	0.333390
C129	C	0.705908	0.560950	0.666723
C130	C	0.020120	-0.061382	0.000067
C131	C	0.353454	0.271951	0.333400
C132	C	0.686787	0.605285	0.666733
C133	C	0.051411	-0.017560	0.000073
C134	C	0.384744	0.315774	0.333406
C135	C	0.718078	0.649107	0.666740
C136	C	-0.030294	-0.060869	0.000066
C137	C	0.303039	0.272464	0.333399
C138	C	0.636373	0.605798	0.666733
C139	C	-0.061585	-0.104691	0.000060
C140	C	0.271749	0.228642	0.333393
C141	C	0.605082	0.561975	0.666727
C142	C	-0.042461	-0.149026	0.000054
C143	C	0.290872	0.184307	0.333388
C144	C	0.624206	0.517640	0.666721
C145	C	0.007951	-0.149539	0.000050
C146	C	0.341284	0.183795	0.333384
C147	C	0.674618	0.517128	0.666717
C148	C	0.032287	0.026775	0.000078
C149	C	0.365621	0.360109	0.333412
C150	C	0.698954	0.693442	0.666745
C151	C	-0.018125	0.027284	0.000082
C152	C	0.315208	0.360617	0.333415
C153	C	0.648541	0.693951	0.666749
C154	C	-0.049416	-0.016538	0.000076
C155	C	0.283917	0.316795	0.333409
C156	C	0.617251	0.650129	0.666742
C157	C	0.574716	0.026515	0.000064
C158	C	0.908050	0.359848	0.333397
C159	C	1.241383	0.693182	0.666731
C160	C	0.574164	0.080170	0.000068
C161	C	0.907497	0.413503	0.333401
C162	C	1.240830	0.746837	0.666735
C163	C	0.658931	-0.057699	0.000061
C164	C	0.992264	0.275634	0.333394
C165	C	1.325598	0.608967	0.666728
C166	C	0.712586	-0.058252	0.000064
C167	C	1.045919	0.275081	0.333397
C168	C	1.379252	0.608414	0.666730
C169	C	0.566338	-0.150292	0.000040
C170	C	0.899671	0.183041	0.333373
C171	C	1.233005	0.516374	0.666706
C172	C	0.566891	-0.203947	0.000032
C173	C	0.900224	0.129386	0.333365
C174	C	1.233557	0.462720	0.666699
N175	N	0.570510	-0.061905	0.120813
N176	N	0.903844	0.271428	0.454147
N177	N	1.237177	0.604762	0.787480
C178	C	0.614867	0.418985	0.000046
C179	C	0.948201	0.752318	0.333380
C180	C	1.281534	1.085652	0.666713
C181	C	0.612816	0.620645	0.000039
C182	C	0.946150	0.953978	0.333372
C183	C	1.279483	1.287311	0.666706
O184	O	0.650037	0.651900	0.000021
O185	O	0.983370	0.985234	0.333354
O186	O	1.316704	1.318567	0.666688
N187	N	0.568481	0.639768	0.000034
N188	N	0.901814	0.973102	0.333368
N189	N	1.235148	1.306435	0.666701
C190	C	0.524656	0.608474	0.000028
C191	C	0.857989	0.941807	0.333362
C192	C	1.191322	1.275140	0.666695
O193	O	0.486899	0.629367	0.000019
O194	O	0.820232	0.962700	0.333352
O195	O	1.153565	1.296033	0.666686
C196	C	0.526707	0.406815	0.000032
C197	C	0.860040	0.740148	0.333365
C198	C	1.193374	1.073482	0.666699
C199	C	0.571045	0.387694	0.000042
C200	C	0.904378	0.721028	0.333375
C201	C	1.237712	1.054361	0.666709
C202	C	0.659202	0.399864	0.000056
C203	C	0.992535	0.733197	0.333389
C204	C	1.325868	1.066530	0.666722
C205	C	0.659714	0.349452	0.000060
C206	C	0.993047	0.682785	0.333394
C207	C	1.326381	1.016118	0.666727
C208	C	0.615892	0.318161	0.000056
C209	C	0.949225	0.651494	0.333389
C210	C	1.282559	0.984828	0.666722
C211	C	0.571557	0.337282	0.000046
C212	C	0.904891	0.670616	0.333380
C213	C	1.238224	1.003949	0.666713
C214	C	0.482882	0.375521	0.000022
C215	C	0.816215	0.708855	0.333356
C216	C	1.149549	1.042188	0.666689
C217	C	0.483399	0.325104	0.000022
C218	C	0.816732	0.658437	0.333355
C219	C	1.150066	0.991771	0.666689
C220	C	0.527737	0.305983	0.000032
C221	C	0.861070	0.639317	0.333365
C222	C	1.194404	0.972650	0.666698
C223	C	0.528247	0.255580	0.000046
C224	C	0.861581	0.588913	0.333380
C225	C	1.194914	0.922246	0.666713
N226	N	0.572583	0.236456	0.000051
N227	N	0.905916	0.569789	0.333384
N228	N	1.239249	0.903123	0.666718
C229	C	0.616405	0.267747	0.000056
C230	C	0.949738	0.601080	0.333389
C231	C	1.283072	0.934413	0.666722
C232	C	0.523582	0.714348	0.000027
C233	C	0.856915	1.047681	0.333361
C234	C	1.190248	1.381014	0.666694
C235	C	0.523069	0.764762	0.000027
C236	C	0.856402	1.098096	0.333361
C237	C	1.189735	1.431429	0.666694
C238	C	0.611230	0.776930	0.000037
C239	C	0.944563	1.110263	0.333371
C240	C	1.277896	1.443596	0.666704
C241	C	0.611742	0.726514	0.000041
C242	C	0.945075	1.059848	0.333374
C243	C	1.278409	1.393181	0.666708
C244	C	0.567917	0.695224	0.000032
C245	C	0.901250	1.028557	0.333365
C246	C	1.234583	1.361891	0.666699
C247	C	0.617477	0.161878	0.000066
C248	C	0.950811	0.495211	0.333399
C249	C	1.284144	0.828544	0.666733
C250	C	0.617986	0.111461	0.000073
C251	C	0.951319	0.444794	0.333406
C252	C	1.284652	0.778127	0.666739
C253	C	0.529825	0.099298	0.000060
C254	C	0.863158	0.432631	0.333393
C255	C	1.196492	0.765964	0.666727
C256	C	0.529316	0.149710	0.000056
C257	C	0.862650	0.483043	0.333389
C258	C	1.195983	0.816377	0.666723
C259	C	0.573147	0.180999	0.000057
C260	C	0.906480	0.514333	0.333391
C261	C	1.239813	0.847666	0.666724
O262	O	0.491047	0.224296	0.000059
O263	O	0.824380	0.557629	0.333392
O264	O	1.157713	0.890962	0.666725
O265	O	0.654156	0.246844	0.000054
O266	O	0.987490	0.580177	0.333387
O267	O	1.320823	0.913511	0.666720
C268	C	0.614355	0.469397	0.000042
C269	C	0.947688	0.802730	0.333375
C270	C	1.281022	1.136064	0.666709
C271	C	0.570021	0.488518	0.000033
C272	C	0.903354	0.821852	0.333366
C273	C	1.236687	1.155185	0.666699
C274	C	0.526198	0.457228	0.000028
C275	C	0.859532	0.790561	0.333361
C276	C	1.192865	1.123894	0.666695
C277	C	0.569508	0.538933	0.000033
C278	C	0.902841	0.872266	0.333366
C279	C	1.236174	1.205599	0.666699
C280	C	0.613330	0.570223	0.000037
C281	C	0.946663	0.903557	0.333371
C282	C	1.279996	1.236890	0.666704
C283	C	0.657665	0.551100	0.000042
C284	C	0.990998	0.884433	0.333375
C285	C	1.324332	1.217766	0.666709
C286	C	0.658177	0.500688	0.000046
C287	C	0.991511	0.834021	0.333380
C288	C	1.324844	1.167354	0.666713
C289	C	0.481863	0.476351	0.000023
C290	C	0.815197	0.809685	0.333357
C291	C	1.148530	1.143018	0.666690
C292	C	0.481355	0.526764	0.000019
C293	C	0.814688	0.860097	0.333353
C294	C	1.148021	1.193430	0.666686
C295	C	0.525177	0.558054	0.000024
C296	C	0.858510	0.891388	0.333357
C297	C	1.191843	1.224721	0.666691
N298	N	0.570548	-0.061868	-0.120709
N299	N	0.903881	0.271465	0.212624
N300	N	1.237215	0.604798	0.545958
C301	C	0.603640	-0.028781	0.473336
C302	C	0.936974	0.304552	0.806669
C303	C	1.270307	0.637885	1.140002
C304	C	0.603651	-0.028774	0.686994
C305	C	0.936984	0.304559	1.020327
C306	C	1.270318	0.637892	1.353661
O307	O	0.631801	-0.000614	0.714623
O308	O	0.965134	0.332720	1.047956
O309	O	1.298467	0.666053	1.381290
N310	N	0.570538	-0.061871	0.713707
N311	N	0.903872	0.271462	1.047041
N312	N	1.237205	0.604796	1.380374
C313	C	0.537419	-0.094970	0.687003
C314	C	0.870752	0.238364	1.020336
C315	C	1.204085	0.571697	1.353669
O316	O	0.509251	-0.123117	0.714626
O317	O	0.842585	0.210216	1.047960
O318	O	1.175918	0.543550	1.381293
C319	C	0.537406	-0.094974	0.473345
C320	C	0.870739	0.238360	0.806678
C321	C	1.204073	0.571693	1.140012
C322	C	0.570524	-0.061878	0.446635
C323	C	0.903857	0.271455	0.779968
C324	C	1.237191	0.604788	1.113301
C325	C	0.636755	0.004312	0.446625
C326	C	0.970088	0.337645	0.779958
C327	C	1.303422	0.670979	1.113292
C328	C	0.636754	0.004308	0.393214
C329	C	0.970087	0.337642	0.726547
C330	C	1.303421	0.670975	1.059880
C331	C	0.603638	-0.028789	0.366513
C332	C	0.936971	0.304545	0.699846
C333	C	1.270304	0.637878	1.033179
C334	C	0.570523	-0.061882	0.393223
C335	C	0.903856	0.271451	0.726556
C336	C	1.237189	0.604785	1.059890
C337	C	0.504284	-0.128070	0.446641
C338	C	0.837618	0.205264	0.779975
C339	C	1.170951	0.538597	1.113308
C340	C	0.504283	-0.128067	0.393223
C341	C	0.837617	0.205266	0.726557
C342	C	1.170950	0.538600	1.059890
C343	C	0.537401	-0.094971	0.366513
C344	C	0.870735	0.238362	0.699846
C345	C	1.204068	0.571695	1.033180
C346	C	0.537405	-0.094983	0.313111
C347	C	0.870739	0.238351	0.646444
C348	C	1.204072	0.571684	0.979777
N349	N	0.570518	-0.061886	0.286397
N350	N	0.903851	0.271447	0.619731
N351	N	1.237185	0.604781	0.953064
C352	C	0.603634	-0.028789	0.313098
C353	C	0.936967	0.304544	0.646432
C354	C	1.270301	0.637878	0.979765
C355	C	0.537428	-0.094966	0.799176
C356	C	0.870762	0.238368	1.132509
C357	C	1.204095	0.571701	1.465843
C358	C	0.537432	-0.094965	0.852590
C359	C	0.870765	0.238368	1.185923
C360	C	1.204099	0.571701	1.519257
C361	C	0.603664	-0.028769	0.852578
C362	C	0.936997	0.304564	1.185911
C363	C	1.270330	0.637897	1.519245
C364	C	0.603662	-0.028773	0.799163
C365	C	0.936995	0.304561	1.132496
C366	C	1.270329	0.637894	1.465829
C367	C	0.570541	-0.061869	0.772463
C368	C	0.903874	0.271464	1.105796
C369	C	1.237207	0.604798	1.439129
C370	C	0.603629	-0.028800	0.200931
C371	C	0.936963	0.304533	0.534264
C372	C	1.270296	0.637867	0.867597
C373	C	0.603626	-0.028808	0.147514
C374	C	0.936960	0.304525	0.480848
C375	C	1.270293	0.637859	0.814181
C376	C	0.537393	-0.095002	0.147531
C377	C	0.870726	0.238331	0.480865
C378	C	1.204060	0.571665	0.814198
C379	C	0.537397	-0.094996	0.200943
C380	C	0.870731	0.238338	0.534276
C381	C	1.204064	0.571671	0.867609
C382	C	0.570517	-0.061891	0.227641
C383	C	0.903851	0.271443	0.560974
C384	C	1.237184	0.604776	0.894308
O385	O	0.509267	-0.123125	0.285449
O386	O	0.842600	0.210208	0.618782
O387	O	1.175933	0.543542	0.952116
O388	O	0.631790	-0.000639	0.285466
O389	O	0.965123	0.332694	0.618799
O390	O	1.298457	0.666028	0.952132
C391	C	0.603641	-0.028777	0.526747
C392	C	0.936975	0.304556	0.860080
C393	C	1.270308	0.637889	1.193414
C394	C	0.570527	-0.061871	0.553457
C395	C	0.903860	0.271463	0.886791
C396	C	1.237193	0.604796	1.220124
C397	C	0.537410	-0.094968	0.526756
C398	C	0.870744	0.238366	0.860090
C399	C	1.204077	0.571699	1.193423
C400	C	0.570530	-0.061870	0.606872
C401	C	0.903864	0.271463	0.940205
C402	C	1.237197	0.604796	1.273538
C403	C	0.603646	-0.028773	0.633573
C404	C	0.936980	0.304560	0.966906
C405	C	1.270313	0.637893	1.300239
C406	C	0.636759	0.004323	0.606859
C407	C	0.970092	0.337657	0.940193
C408	C	1.303426	0.670990	1.273526
C409	C	0.636758	0.004320	0.553448
C410	C	0.970091	0.337653	0.886781
C411	C	1.303424	0.670986	1.220115
C412	C	0.504298	-0.128064	0.553470
C413	C	0.837631	0.205269	0.886803
C414	C	1.170965	0.538602	1.220136
C415	C	0.504302	-0.128058	0.606881
C416	C	0.837635	0.205275	0.940214
C417	C	1.170969	0.538609	1.273548
C418	C	0.537418	-0.094961	0.633582
C419	C	0.870752	0.238372	0.966915
C420	C	1.204085	0.571706	1.300249
H421	H	0.321291	-0.144530	0.000036
H422	H	0.654624	0.188804	0.333369
H423	H	0.987957	0.522137	0.666703
H424	H	0.510456	-0.121918	0.777440
H425	H	0.843790	0.211415	1.110774
H426	H	1.177123	0.544748	1.444107
H427	H	-0.033688	0.063392	0.000086
H428	H	0.299645	0.396725	0.333420
H429	H	0.632979	0.730059	0.666753
H430	H	0.083302	-0.186251	0.000039
H431	H	0.416636	0.147083	0.333373
H432	H	0.749969	0.480416	0.666706
C433	C	0.396203	0.318145	0.000006
C434	C	0.729536	0.651478	0.333340
C435	C	1.062869	0.984811	0.666673
C436	C	0.435223	0.290710	0.000014
C437	C	0.768557	0.624044	0.333348
C438	C	1.101890	0.957377	0.666681
H439	H	0.366462	0.296911	0.000006
H440	H	0.699796	0.630245	0.333339
H441	H	1.033129	0.963578	0.666672
H442	H	0.397844	0.338059	-0.029585
H443	H	0.731178	0.671392	0.303749
H444	H	1.064511	1.004725	0.637082
H445	H	0.397835	0.338064	0.029599
H446	H	0.731168	0.671398	0.362933
H447	H	1.064502	1.004731	0.696266
H448	H	0.433593	0.270793	-0.029581
H449	H	0.766926	0.604127	0.303753
H450	H	1.100260	0.937460	0.637086
H451	H	0.433581	0.270788	0.029609
H452	H	0.766914	0.604121	0.362942
H453	H	1.100247	0.937455	0.696275
C454	C	0.438814	-0.193498	0.398605
C455	C	0.772147	0.139836	0.731938
C456	C	1.105481	0.473169	1.065271
C457	C	0.467877	-0.164452	0.363876
C458	C	0.801211	0.168882	0.697209
C459	C	1.134544	0.502215	1.030542
H460	H	0.416342	-0.215962	0.380486
H461	H	0.749675	0.117371	0.713820
H462	H	1.083009	0.450705	1.047153
H463	H	0.421581	-0.173493	0.419436
H464	H	0.754914	0.159841	0.752770
H465	H	1.088248	0.493174	1.086103
H466	H	0.458810	-0.210744	0.419439
H467	H	0.792143	0.122589	0.752772
H468	H	1.125477	0.455923	1.086106
H469	H	0.447881	-0.147203	0.343044
H470	H	0.781215	0.186131	0.676377
H471	H	1.114548	0.519464	1.009710
H472	H	0.485111	-0.184459	0.343035
H473	H	0.818445	0.148874	0.676369
H474	H	1.151778	0.482208	1.009702
H475	H	0.630629	-0.001823	0.777418
H476	H	0.963962	0.331510	1.110752
H477	H	1.297296	0.664844	1.444085
H478	H	0.654093	0.095896	0.000082
H479	H	0.987426	0.429229	0.333415
H480	H	1.320759	0.762562	0.666749
C481	C	0.420408	-0.157014	0.623326
C482	C	0.753741	0.176319	0.956659
C483	C	1.087075	0.509652	1.289992
C484	C	0.467895	-0.164439	0.636238
C485	C	0.801228	0.168894	0.969572
C486	C	1.134561	0.502228	1.302905
H487	H	0.397931	-0.179470	0.641451
H488	H	0.731264	0.153864	0.974785
H489	H	1.064598	0.487197	1.308118
H490	H	0.415675	-0.161753	0.587696
H491	H	0.749009	0.171580	0.921030
H492	H	1.082342	0.504914	1.254363
H493	H	0.415411	-0.124785	0.632081
H494	H	0.748745	0.208548	0.965414
H495	H	1.082078	0.541881	1.298748
H496	H	0.472893	-0.196667	0.627480
H497	H	0.806226	0.136666	0.960813
H498	H	1.139559	0.470000	1.294146
H499	H	0.472629	-0.159704	0.671876
H500	H	0.805962	0.173629	1.005209
H501	H	1.139296	0.506962	1.338542
H502	H	0.117558	0.061861	0.000090
H503	H	0.450892	0.395195	0.333423
H504	H	0.784225	0.728528	0.666757
H505	H	0.510469	-0.121920	0.874334
H506	H	0.843803	0.211413	1.207667
H507	H	1.177136	0.544747	1.541001
C508	C	0.471925	-0.160422	0.195587
C509	C	0.805258	0.172911	0.528920
C510	C	1.138591	0.506244	0.862253
C511	C	0.500992	-0.131372	0.230306
C512	C	0.834326	0.201961	0.563639
C513	C	1.167659	0.535294	0.896973
H514	H	0.449444	-0.182874	0.213713
H515	H	0.782778	0.150459	0.547046
H516	H	1.116111	0.483793	0.880379
H517	H	0.491913	-0.177678	0.174759
H518	H	0.825246	0.155655	0.508093
H519	H	1.158580	0.488989	0.841426
H520	H	0.454697	-0.140414	0.174747
H521	H	0.788030	0.192919	0.508080
H522	H	1.121363	0.526252	0.841414
H523	H	0.518223	-0.151380	0.251143
H524	H	0.851556	0.181953	0.584477
H525	H	1.184890	0.515287	0.917810
H526	H	0.481001	-0.114115	0.251142
H527	H	0.814335	0.219218	0.584475
H528	H	1.147668	0.552551	0.917809
H529	H	0.694282	0.485125	0.000054
H530	H	1.027615	0.818458	0.333388
H531	H	1.360949	1.151791	0.666721
H532	H	0.477317	-0.155019	0.468381
H533	H	0.810650	0.178315	0.801715
H534	H	1.143983	0.511648	1.135048
H535	H	-0.202311	-0.139207	0.000049
H536	H	0.131022	0.194126	0.333382
H537	H	0.464355	0.527459	0.666715
H538	H	0.209009	0.060929	0.000091
H539	H	0.542343	0.394262	0.333424
H540	H	0.875676	0.727595	0.666757
C541	C	0.702221	0.069752	0.558818
C542	C	1.035554	0.403085	0.892151
C543	C	1.368887	0.736418	1.225485
C544	C	0.673159	0.040703	0.524093
C545	C	1.006492	0.374037	0.857426
C546	C	1.339825	0.707370	1.190759
H547	H	0.724691	0.092217	0.540697
H548	H	1.058025	0.425550	0.874030
H549	H	1.391358	0.758883	1.207363
H550	H	0.719455	0.049748	0.579647
H551	H	1.052788	0.383082	0.912981
H552	H	1.386122	0.716415	1.246314
H553	H	0.682224	0.086997	0.579655
H554	H	1.015557	0.420330	0.912988
H555	H	1.348890	0.753663	1.246321
H556	H	0.693156	0.023455	0.503258
H557	H	1.026489	0.356789	0.836591
H558	H	1.359822	0.690122	1.169925
H559	H	0.655923	0.060709	0.503254
H560	H	0.989257	0.394043	0.836588
H561	H	1.322590	0.727376	1.169921
C562	C	0.096036	0.077352	-0.043544
C563	C	0.429370	0.410685	0.289789
C564	C	0.762703	0.744018	0.623122
C565	C	0.066678	0.074949	0.000081
C566	C	0.400012	0.408282	0.333414
C567	C	0.733345	0.741615	0.666747
H568	H	0.117268	0.107093	-0.043543
H569	H	0.450601	0.440427	0.289791
H570	H	0.783935	0.773760	0.623124
H571	H	0.076114	0.075719	-0.073128
H572	H	0.409448	0.409053	0.260205
H573	H	0.742781	0.742386	0.593539
H574	H	0.114643	0.050876	-0.043542
H575	H	0.447976	0.384209	0.289791
H576	H	0.781310	0.717542	0.623124
H577	H	0.048069	0.101423	0.000077
H578	H	0.381402	0.434756	0.333410
H579	H	0.714736	0.768090	0.666744
H580	H	0.086603	0.076586	0.029672
H581	H	0.419936	0.409919	0.363005
H582	H	0.753269	0.743253	0.696339
H583	H	0.343360	0.015426	0.000050
H584	H	0.676693	0.348759	0.333383
H585	H	1.010027	0.682093	0.666717
H586	H	0.477330	-0.155015	0.531734
H587	H	0.810663	0.178318	0.865067
H588	H	1.143997	0.511651	1.198400
C589	C	0.614626	0.037075	0.260985
C590	C	0.947959	0.370408	0.594318
C591	C	1.281293	0.703741	0.927651
C592	C	0.640035	0.007588	0.230273
C593	C	0.973369	0.340921	0.563606
C594	C	1.306702	0.674255	0.896940
H595	H	0.637104	0.059539	0.279097
H596	H	0.970437	0.392872	0.612430
H597	H	1.303770	0.726205	0.945763
H598	H	0.594911	0.017369	0.284539
H599	H	0.928245	0.350702	0.617873
H600	H	1.261578	0.684035	0.951206
H601	H	0.594637	0.054321	0.240143
H602	H	0.927970	0.387654	0.573476
H603	H	1.261303	0.720988	0.906810
H604	H	0.660022	-0.009661	0.251115
H605	H	0.993356	0.323672	0.584449
H606	H	1.326689	0.657005	0.917782
H607	H	0.659759	0.027297	0.206716
H608	H	0.993092	0.360630	0.540049
H609	H	1.326425	0.693963	0.873382
H610	H	0.663725	0.031271	0.628608
H611	H	0.997059	0.364604	0.961941
H612	H	1.330392	0.697937	1.295275
H613	H	0.646911	0.802415	0.000041
H614	H	0.980245	1.135749	0.333375
H615	H	1.313578	1.469082	0.666708
H616	H	0.663720	0.031259	0.371469
H617	H	0.997053	0.364592	0.704802
H618	H	1.330387	0.697925	1.038136
C619	C	-0.106223	-0.199583	-0.043571
C620	C	0.227110	0.133750	0.289763
C621	C	0.560444	0.467083	0.623096
C622	C	-0.076863	-0.197196	0.000049
C623	C	0.256470	0.136137	0.333382
C624	C	0.589803	0.469470	0.666715
H625	H	-0.127465	-0.229319	-0.043570
H626	H	0.205869	0.104015	0.289764
H627	H	0.539202	0.437348	0.623097
H628	H	-0.086303	-0.197955	-0.073158
H629	H	0.247031	0.135379	0.260175
H630	H	0.580364	0.468712	0.593508
H631	H	-0.124819	-0.173099	-0.043561
H632	H	0.208514	0.160234	0.289772
H633	H	0.541848	0.493567	0.623106
H634	H	-0.058265	-0.223679	0.000037
H635	H	0.275069	0.109655	0.333370
H636	H	0.608402	0.442988	0.666704
H637	H	-0.096786	-0.198830	0.029644
H638	H	0.236547	0.134503	0.362977
H639	H	0.569881	0.467837	0.696310
H640	H	0.653168	0.187348	0.000065
H641	H	0.986501	0.520681	0.333398
H642	H	1.319835	0.854015	0.666731
C643	C	0.632672	0.055112	0.869024
C644	C	0.966005	0.388445	1.202357
C645	C	1.299339	0.721779	1.535691
C646	C	0.640064	0.007615	0.881933
C647	C	0.973398	0.340948	1.215266
C648	C	1.306731	0.674282	1.548600
H649	H	0.655143	0.077574	0.887146
H650	H	0.988477	0.410907	1.220480
H651	H	1.321810	0.744240	1.553813
H652	H	0.600454	0.060131	0.877781
H653	H	0.933787	0.393464	1.211114
H654	H	1.267121	0.726797	1.544448
H655	H	0.637413	0.059845	0.833390
H656	H	0.970747	0.393178	1.166723
H657	H	1.304080	0.726512	1.500056
H658	H	0.635319	0.002881	0.917567
H659	H	0.968652	0.336214	1.250900
H660	H	1.301986	0.669547	1.584234
H661	H	0.672290	0.002594	0.873179
H662	H	1.005623	0.335928	1.206513
H663	H	1.338956	0.669261	1.539846
H664	H	0.174750	-0.187180	0.000030
H665	H	0.508083	0.146153	0.333363
H666	H	0.841417	0.479487	0.666696
H667	H	0.434827	0.014492	0.000048
H668	H	0.768160	0.347826	0.333382
H669	H	1.101494	0.681159	0.666715
H670	H	0.663722	0.031266	0.468360
H671	H	0.997056	0.364599	0.801694
H672	H	1.330389	0.697932	1.135027
H673	H	0.412743	-0.145454	0.000021
H674	H	0.746076	0.187879	0.333355
H675	H	1.079410	0.521213	0.666688
H676	H	-0.293777	-0.138273	0.000053
H677	H	0.039557	0.195061	0.333386
H678	H	0.372890	0.528394	0.666719
C679	C	-0.239020	0.072660	0.000085
C680	C	0.094313	0.405993	0.333419
C681	C	0.427646	0.739327	0.666752
C682	C	-0.277138	0.034308	0.000077
C683	C	0.056196	0.367641	0.333410
C684	C	0.389529	0.700974	0.666743
H685	H	-0.251993	0.102749	0.000095
H686	H	0.081340	0.436082	0.333428
H687	H	0.414674	0.769416	0.666762
H688	H	-0.219610	0.070630	-0.029506
H689	H	0.113723	0.403963	0.303828
H690	H	0.447057	0.737296	0.637161
H691	H	-0.219612	0.070615	0.029678
H692	H	0.113722	0.403948	0.363012
H693	H	0.447055	0.737282	0.696345
H694	H	-0.296544	0.036351	-0.029518
H695	H	0.036789	0.369684	0.303815
H696	H	0.370123	0.703017	0.637148
H697	H	-0.296556	0.036339	0.029671
H698	H	0.036777	0.369673	0.363004
H699	H	0.370111	0.703006	0.696337
C700	C	0.746803	0.366558	0.000064
C701	C	1.080136	0.699891	0.333398
C702	C	1.413469	1.033225	0.666731
C703	C	0.708452	0.328439	0.000064
C704	C	1.041786	0.661772	0.333398
C705	C	1.375119	0.995106	0.666731
H706	H	0.776893	0.353587	0.000063
H707	H	1.110226	0.686920	0.333396
H708	H	1.443559	1.020254	0.666729
H709	H	0.744763	0.385966	0.029654
H710	H	1.078096	0.719299	0.362988
H711	H	1.411430	1.052633	0.696321
H712	H	0.744765	0.385968	-0.029530
H713	H	1.078098	0.719302	0.303804
H714	H	1.411432	1.052635	0.637137
H715	H	0.710488	0.309031	0.029660
H716	H	1.043822	0.642364	0.362994
H717	H	1.377155	0.975697	0.696327
H718	H	0.710493	0.309023	-0.029529
H719	H	1.043827	0.642356	0.303805
H720	H	1.377160	0.975689	0.637138
H721	H	0.694889	0.425336	0.000058
H722	H	1.028223	0.758670	0.333391
H723	H	1.361556	1.092003	0.666724
C724	C	0.057573	-0.201264	-0.043591
C725	C	0.390906	0.132069	0.289743
C726	C	0.724239	0.465403	0.623076
C727	C	0.028960	-0.198279	0.000036
C728	C	0.362294	0.135054	0.333369
C729	C	0.695627	0.468388	0.666703
H730	H	0.070536	-0.231358	-0.043601
H731	H	0.403870	0.101975	0.289732
H732	H	0.737203	0.435309	0.623066
H733	H	0.083428	-0.175248	-0.043582
H734	H	0.416762	0.158085	0.289752
H735	H	0.750095	0.491419	0.623085
H736	H	0.038155	-0.199219	-0.073176
H737	H	0.371488	0.134115	0.260157
H738	H	0.704821	0.467448	0.593490
H739	H	0.048379	-0.200321	0.029622
H740	H	0.381713	0.133013	0.362955
H741	H	0.715046	0.466346	0.696289
H742	H	0.003101	-0.224302	0.000032
H743	H	0.336435	0.109031	0.333365
H744	H	0.669768	0.442365	0.666699
H745	H	0.647846	0.710950	0.000048
H746	H	0.981179	1.044283	0.333382
H747	H	1.314513	1.377617	0.666715
C748	C	0.435979	0.747659	0.000013
C749	C	0.769312	1.080992	0.333347
C750	C	1.102645	1.414326	0.666680
C751	C	0.474331	0.785776	0.000021
C752	C	0.807664	1.119109	0.333354
C753	C	1.140998	1.452443	0.666687
H754	H	0.405889	0.760632	0.000004
H755	H	0.739223	1.093965	0.333337
H756	H	1.072556	1.427298	0.666670
H757	H	0.438008	0.728251	0.029605
H758	H	0.771341	1.061584	0.362938
H759	H	1.104674	1.394918	0.696271
H760	H	0.438025	0.728248	-0.029579
H761	H	0.771358	1.061581	0.303754
H762	H	1.104692	1.394915	0.637087
H763	H	0.472287	0.805185	0.029616
H764	H	0.805620	1.138518	0.362949
H765	H	1.138953	1.471852	0.696282
H766	H	0.472301	0.805192	-0.029574
H767	H	0.805634	1.138526	0.303760
H768	H	1.138967	1.471859	0.637093
H769	H	0.487892	0.688875	0.000020
H770	H	0.821225	1.022208	0.333354
H771	H	1.154558	1.355542	0.666687
C772	C	0.431166	0.425142	-0.043620
C773	C	0.764499	0.758475	0.289713
C774	C	1.097832	1.091809	0.623046
C775	C	0.434143	0.396530	0.000005
C776	C	0.767477	0.729863	0.333339
C777	C	1.100810	1.063196	0.666672
H778	H	0.401075	0.438112	-0.043629
H779	H	0.734408	0.771445	0.289704
H780	H	1.067742	1.104779	0.623037
H781	H	0.433211	0.405726	-0.073203
H782	H	0.766544	0.739059	0.260130
H783	H	1.099878	1.072393	0.593463
H784	H	0.457188	0.450998	-0.043609
H785	H	0.790521	0.784331	0.289725
H786	H	1.123855	1.117664	0.623058
H787	H	0.408123	0.370672	-0.000008
H788	H	0.741456	0.704005	0.333325
H789	H	1.074789	1.037338	0.666658
H790	H	0.432093	0.415946	0.029596
H791	H	0.765426	0.749280	0.362930
H792	H	1.098760	1.082613	0.696263
H793	H	0.493213	0.165279	0.000062
H794	H	0.826546	0.498612	0.333396
H795	H	1.159879	0.831945	0.666729
H796	H	0.494146	0.073812	0.000058
H797	H	0.827480	0.407145	0.333391
H798	H	1.160813	0.740478	0.666725
H799	H	-0.180236	0.020747	0.000079
H800	H	0.153097	0.354080	0.333412
H801	H	0.486430	0.687414	0.666745
C802	C	0.696016	0.633787	0.000036
C803	C	1.029349	0.967121	0.333369
C804	C	1.362682	1.300454	0.666702
C805	C	0.705835	0.585501	0.000043
C806	C	1.039169	0.918835	0.333377
C807	C	1.372502	1.252168	0.666710
H808	H	0.725753	0.655026	0.000031
H809	H	1.059086	0.988359	0.333364
H810	H	1.392419	1.321692	0.666698
H811	H	0.677820	0.639546	0.029624
H812	H	1.011153	0.972880	0.362958
H813	H	1.344487	1.306213	0.696291
H814	H	0.677820	0.639538	-0.029560
H815	H	1.011154	0.972871	0.303774
H816	H	1.344487	1.306204	0.637107
H817	H	0.724028	0.579750	0.029641
H818	H	1.057361	0.913083	0.362974
H819	H	1.390694	1.246416	0.696307
H820	H	0.724039	0.579740	-0.029549
H821	H	1.057372	0.913073	0.303785
H822	H	1.390705	1.246406	0.637118
H823	H	0.445246	0.542327	0.000016
H824	H	0.778580	0.875660	0.333349
H825	H	1.111913	1.208993	0.666682
H826	H	0.446177	0.450879	0.000018
H827	H	0.779510	0.784212	0.333352
H828	H	1.112844	1.117545	0.666685
H829	H	0.630597	-0.001858	0.125768
H830	H	0.963930	0.331476	0.459102
H831	H	1.297263	0.664809	0.792435
H832	H	0.510432	-0.121951	0.125783
H833	H	0.843765	0.211383	0.459116
H834	H	1.177098	0.544716	0.792450
