data_functionalizedCrystal
_audit_creation_method	'MofGen! by Chris Wilmer'
_symmetry_space_group_name_H-M	'P1'
_symmetry_Int_Tables_number	1
_symmetry_cell_setting	triclinic
loop_
_symmetry_equiv_pos_as_xyz
  x,y,z
_cell_length_a	11.792241
_cell_length_b	11.792241
_cell_length_c	10.268362
_cell_angle_alpha	89.994572
_cell_angle_beta	89.999626
_cell_angle_gamma	84.193416
loop_
_atom_site_label
_atom_site_type_symbol
_atom_site_fract_x
_atom_site_fract_y
_atom_site_fract_z
O1	O	1.506909	0.155569	-0.108174
O2	O	1.756909	0.405569	0.141826
O3	O	2.006909	0.655569	0.391826
O4	O	2.256909	0.905569	0.641826
O5	O	1.176568	0.171602	-0.108205
O6	O	1.426568	0.421602	0.141795
O7	O	1.676568	0.671602	0.391795
O8	O	1.926568	0.921602	0.641795
O9	O	1.349755	-0.001585	-0.108180
O10	O	1.599755	0.248415	0.141820
O11	O	1.849755	0.498415	0.391820
O12	O	2.099755	0.748415	0.641820
O13	O	1.333722	0.328756	-0.108199
O14	O	1.583722	0.578756	0.141801
O15	O	1.833722	0.828756	0.391801
O16	O	2.083722	1.078756	0.641801
O17	O	1.349740	-0.001593	0.108421
O18	O	1.599740	0.248407	0.358421
O19	O	1.849740	0.498407	0.608421
O20	O	2.099740	0.748407	0.858421
O21	O	1.176553	0.171594	0.108396
O22	O	1.426553	0.421594	0.358396
O23	O	1.676553	0.671594	0.608396
O24	O	1.926553	0.921594	0.858396
O25	O	1.506894	0.155561	0.108426
O26	O	1.756894	0.405561	0.358426
O27	O	2.006894	0.655561	0.608426
O28	O	2.256894	0.905561	0.858426
Cu29	Cu	1.341722	0.163577	0.128188
Cu30	Cu	1.591722	0.413577	0.378188
Cu31	Cu	1.841722	0.663577	0.628188
Cu32	Cu	2.091722	0.913577	0.878188
Cu33	Cu	1.341740	0.163586	-0.127967
Cu34	Cu	1.591740	0.413586	0.122033
Cu35	Cu	1.841740	0.663586	0.372033
Cu36	Cu	2.091740	0.913586	0.622033
O37	O	1.333707	0.328748	0.108401
O38	O	1.583707	0.578748	0.358401
O39	O	1.833707	0.828748	0.608401
O40	O	2.083707	1.078748	0.858401
C41	C	1.134269	0.170591	0.000092
C42	C	1.384269	0.420591	0.250092
C43	C	1.634269	0.670591	0.500092
C44	C	1.884269	0.920591	0.750092
C45	C	1.008255	0.167576	0.000080
C46	C	1.258255	0.417576	0.250080
C47	C	1.508255	0.667576	0.500080
C48	C	1.758255	0.917576	0.750080
C49	C	1.348740	-0.043880	0.000120
C50	C	1.598740	0.206120	0.250120
C51	C	1.848740	0.456120	0.500120
C52	C	2.098740	0.706120	0.750120
C53	C	1.345726	-0.169894	0.000119
C54	C	1.595726	0.080106	0.250119
C55	C	1.845726	0.330106	0.500119
C56	C	2.095726	0.580106	0.750119
C57	C	0.777543	0.162034	0.000118
C58	C	1.027543	0.412034	0.250118
C59	C	1.277543	0.662034	0.500118
C60	C	1.527543	0.912034	0.750118
C61	C	0.905928	0.165113	0.000097
C62	C	1.155928	0.415113	0.250097
C63	C	1.405928	0.665113	0.500097
C64	C	1.655928	0.915113	0.750097
C65	C	1.340183	-0.400606	0.000096
C66	C	1.590183	-0.150606	0.250096
C67	C	1.840183	0.099394	0.500096
C68	C	2.090183	0.349394	0.750096
C69	C	1.343262	-0.272221	0.000108
C70	C	1.593262	-0.022221	0.250108
C71	C	1.843262	0.227779	0.500108
C72	C	2.093262	0.477779	0.750108
C73	C	1.549192	0.156572	0.000127
C74	C	1.799192	0.406572	0.250127
C75	C	2.049192	0.656572	0.500127
C76	C	2.299192	0.906572	0.750127
C77	C	1.675206	0.159587	0.000130
C78	C	1.925206	0.409587	0.250130
C79	C	2.175206	0.659587	0.500130
C80	C	2.425206	0.909587	0.750130
C81	C	1.334721	0.371043	0.000099
C82	C	1.584721	0.621043	0.250099
C83	C	1.834721	0.871043	0.500099
C84	C	2.084721	1.121043	0.750099
C85	C	1.337736	0.497057	0.000092
C86	C	1.587736	0.747057	0.250092
C87	C	1.837736	0.997057	0.500092
C88	C	2.087736	1.247057	0.750092
N89	N	1.341717	0.163571	0.308354
N90	N	1.591717	0.413571	0.558354
N91	N	1.841717	0.663571	0.808354
N92	N	2.091717	0.913571	1.058354
N93	N	1.341753	0.163584	-0.308133
N94	N	1.591753	0.413584	-0.058133
N95	N	1.841753	0.663584	0.191867
N96	N	2.091753	0.913584	0.441867
C97	C	1.341734	0.163583	0.574025
C98	C	1.591734	0.413583	0.824025
C99	C	1.841734	0.663583	1.074025
C100	C	2.091734	0.913583	1.324025
C101	C	1.341721	0.163580	0.426187
C102	C	1.591721	0.413580	0.676187
C103	C	1.841721	0.663580	0.926187
C104	C	2.091721	0.913580	1.176187
