data_functionalizedCrystal
_audit_creation_method	'MofGen! by Chris Wilmer'
_symmetry_space_group_name_H-M	'P1'
_symmetry_Int_Tables_number	1
_symmetry_cell_setting	triclinic
loop_
_symmetry_equiv_pos_as_xyz
  x,y,z
_cell_length_a	21.295418
_cell_length_b	12.827892
_cell_length_c	12.827885
_cell_angle_alpha	90.029786
_cell_angle_beta	89.959362
_cell_angle_gamma	89.968793
loop_
_atom_site_label
_atom_site_type_symbol
_atom_site_fract_x
_atom_site_fract_y
_atom_site_fract_z
Zn1	Zn	0.962403	0.415541	-0.591439
Zn2	Zn	0.962339	0.590319	-0.416700
Zn3	Zn	0.857132	0.415640	-0.416648
Zn4	Zn	0.857123	0.590289	-0.591335
O5	O	0.909749	0.502947	-0.504031
O6	O	1.050484	0.438697	-0.568325
O7	O	0.948359	0.567201	-0.270457
O8	O	0.871126	0.269391	-0.439857
O9	O	1.050436	0.567105	-0.439944
O10	O	0.948469	0.269318	-0.568275
O11	O	0.871064	0.438866	-0.270419
O12	O	0.769041	0.438837	-0.439756
O13	O	0.871112	0.567055	-0.737585
O14	O	0.769035	0.567151	-0.568097
O15	O	0.948460	0.438668	-0.737662
O16	O	0.948351	0.736551	-0.439843
O17	O	0.871050	0.736529	-0.568147
C18	C	0.746197	0.503002	-0.503910
C19	C	0.676229	0.503051	-0.503884
C20	C	0.909710	0.774457	-0.504012
C21	C	0.909750	0.890610	-0.504039
C22	C	0.909792	0.502847	-0.776601
C23	C	0.909811	0.502804	-0.892754
C24	C	0.643376	0.569952	-0.570611
C25	C	0.577633	0.569927	-0.570658
C26	C	0.544747	0.503010	-0.503959
C27	C	0.577608	0.436096	-0.437227
C28	C	0.643349	0.436116	-0.437189
N29	N	0.441472	0.494857	-0.412557
N30	N	0.379021	0.494844	-0.412596
C31	C	0.346672	0.502944	-0.504070
N32	N	0.379134	0.511077	-0.595505
N33	N	0.441591	0.511096	-0.595465
C34	C	0.473461	0.502981	-0.503993
C35	C	0.242533	0.569821	-0.570854
C36	C	0.176789	0.569788	-0.570902
C37	C	0.176765	0.435963	-0.437462
C38	C	0.242508	0.435990	-0.437422
C39	C	0.275388	0.502925	-0.504117
C40	C	1.073939	0.502893	-0.504152
C41	C	1.143907	0.502870	-0.504204
C42	C	0.909806	0.230377	-0.504072
C43	C	0.909830	0.114224	-0.504090
C44	C	0.948047	0.942371	-0.440621
C45	C	0.948090	1.062421	-0.440647
C46	C	0.871575	0.439287	-0.944520
C47	C	0.871593	0.439242	-1.064571
C48	C	0.909742	0.502972	-0.232521
C49	C	0.909845	0.502720	-0.116368
H50	H	0.670142	0.624454	-0.624921
Cl51	Cl	0.821053	0.355274	-1.133297
Cl52	Cl	0.998710	1.131140	-0.356810
H53	H	0.942585	0.557098	-1.071857
H54	H	0.942559	0.557150	-0.937312
H55	H	0.269305	0.624318	-0.625166
H56	H	0.877038	1.069719	-0.558384
H57	H	0.838824	0.384946	-0.899962
H58	H	0.550879	0.624405	-0.625000
Cl59	Cl	0.536266	0.351968	-0.353381
H60	H	0.149990	0.381473	-0.383159
Cl61	Cl	0.684653	0.352005	-0.353296
Cl62	Cl	0.859179	0.959402	-0.587907
Cl63	Cl	0.135487	0.653895	-0.654803
H64	H	0.980805	0.897811	-0.386310
Cl65	Cl	0.283812	0.351883	-0.353528
