data_functionalizedCrystal
_audit_creation_method	'MofGen! by Chris Wilmer'
_symmetry_space_group_name_H-M	'P1'
_symmetry_Int_Tables_number	1
_symmetry_cell_setting	triclinic
loop_
_symmetry_equiv_pos_as_xyz
  x,y,z
_cell_length_a	19.188930
_cell_length_b	14.853567
_cell_length_c	13.330367
_cell_angle_alpha	90.000844
_cell_angle_beta	90.021431
_cell_angle_gamma	83.389856
loop_
_atom_site_label
_atom_site_type_symbol
_atom_site_fract_x
_atom_site_fract_y
_atom_site_fract_z
O1	O	-0.926523	-0.112552	-0.083738
O2	O	-0.723263	-0.127704	-0.083668
O3	O	-0.830322	0.011132	-0.083708
O4	O	-0.819464	-0.251388	-0.083698
O5	O	-0.830307	0.011135	0.083139
O6	O	-0.723247	-0.127701	0.083179
O7	O	-0.926508	-0.112549	0.083109
Cu8	Cu	-0.824876	-0.120125	0.098379
Cu9	Cu	-0.824894	-0.120128	-0.098937
O10	O	-0.819448	-0.251385	0.083149
C11	C	-0.697242	-0.127211	-0.000236
C12	C	-0.619733	-0.125739	-0.000209
C13	C	-0.829823	0.044720	-0.000287
C14	C	-0.828348	0.144795	-0.000295
C15	C	-0.952528	-0.113041	-0.000325
C16	C	-1.030038	-0.114514	-0.000358
C17	C	-0.575080	-0.207203	-0.000222
C18	C	-0.502252	-0.205819	-0.000233
C19	C	-0.474079	-0.122966	-0.000252
C20	C	-0.518741	-0.041491	-0.000233
C21	C	-0.591568	-0.042878	-0.000212
N22	N	-0.365893	-0.059637	-0.057080
N23	N	-0.296710	-0.058326	-0.057102
C24	C	-0.254657	-0.118785	-0.000313
N25	N	-0.284398	-0.180619	0.056486
N26	N	-0.353587	-0.181933	0.056504
C27	C	-0.395112	-0.121454	-0.000274
C28	C	-0.131035	-0.198755	-0.000336
C29	C	-0.058205	-0.197368	-0.000341
C30	C	-0.074696	-0.033038	-0.000352
C31	C	-0.147524	-0.034427	-0.000337
C32	C	-0.175689	-0.117288	-0.000334
C33	C	-0.819948	-0.284972	-0.000274
C34	C	-0.821422	-0.385048	-0.000272
N35	N	-0.824868	-0.120121	0.237160
C36	C	-0.758520	0.556941	-0.000252
C37	C	-0.885709	0.578929	-0.000296
C38	C	-0.887095	0.484903	-0.000302
C39	C	-0.824193	0.426891	-0.000282
C40	C	-0.759904	0.462906	-0.000255
C41	C	-0.951383	0.448881	-0.000319
C42	C	-0.952772	0.354850	-0.000324
C43	C	-0.889869	0.296836	-0.000311
C44	C	-0.825577	0.332856	-0.000285
C45	C	-0.762675	0.274845	-0.000265
C46	C	-0.698383	0.310862	-0.000247
C47	C	-0.697001	0.404892	-0.000242
C48	C	-0.891251	0.202807	-0.000315
C49	C	-0.764059	0.180809	-0.000269
N50	N	-0.824908	-0.120124	-0.237719
C51	C	-0.777486	-0.181580	0.709801
C52	C	-0.872321	-0.058669	0.709733
C53	C	-0.872313	-0.058666	0.604715
C54	C	-0.824892	-0.120122	0.552235
C55	C	-0.777478	-0.181581	0.604773
C56	C	-0.919731	0.002786	0.552169
C57	C	-0.919725	0.002791	0.447144
C58	C	-0.872300	-0.058662	0.394662
C59	C	-0.824884	-0.120123	0.447207
C60	C	-0.777462	-0.181580	0.394726
C61	C	-0.730042	-0.243037	0.447269
C62	C	-0.730053	-0.243034	0.552290
C63	C	-0.872290	-0.058665	0.289641
C64	C	-0.777454	-0.181581	0.289698
H65	H	-0.598007	-0.274675	-0.000222
C66	C	-0.677880	-0.310639	0.389535
C67	C	-0.598376	-0.309380	0.404015
C68	C	-0.546216	-0.376980	0.346277
C69	C	-0.573559	-0.445841	0.274059
C70	C	-0.653067	-0.447103	0.259576
C71	C	-0.705228	-0.379502	0.317314
H72	H	-0.578132	-0.258403	0.457478
H73	H	-0.487359	-0.376045	0.356999
H74	H	-0.534947	-0.495883	0.231319
H75	H	-0.673312	-0.498080	0.206113
H76	H	-0.764084	-0.380437	0.306592
H77	H	-0.644657	0.434227	-0.000226
H78	H	-0.958344	0.052818	0.594902
C79	C	-0.162022	-0.289898	-0.000319
C80	C	-0.112901	-0.379511	-0.000315
C81	C	-0.143886	-0.470654	-0.000296
C82	C	-0.223992	-0.472184	-0.000281
C83	C	-0.273118	-0.382567	-0.000285
C84	C	-0.242133	-0.291424	-0.000304
H85	H	-0.053597	-0.378382	-0.000326
H86	H	-0.107520	-0.536995	-0.000293
H87	H	-0.246929	-0.539653	-0.000267
H88	H	-0.332422	-0.383696	-0.000274
H89	H	-0.278500	-0.225083	-0.000307
H90	H	-0.738876	-0.231616	0.752583
H91	H	-0.021850	-0.263708	-0.000346
H92	H	-0.943596	0.173485	-0.000324
H93	H	-0.910901	-0.008631	0.246865
C94	C	-0.487754	0.049648	-0.000256
C95	C	-0.439916	0.073197	0.086364
C96	C	-0.408930	0.164339	0.086347
C97	C	-0.425782	0.231932	-0.000290
C98	C	-0.473622	0.208385	-0.086916
C99	C	-0.504608	0.117242	-0.086899
H100	H	-0.427439	0.023159	0.150504
H101	H	-0.373516	0.181770	0.150474
H102	H	-0.402844	0.299401	-0.000302
H103	H	-0.486099	0.258423	-0.151056
H104	H	-0.540023	0.099811	-0.151026
H105	H	-0.465889	-0.272159	-0.000241
H106	H	-0.738835	-0.231623	0.246975
H107	H	-0.051759	0.034423	-0.000429
H108	H	-0.627925	0.023463	-0.000202
H109	H	-0.706174	0.586271	-0.000241
H110	H	-0.183881	0.031910	-0.000332
H111	H	-0.712835	0.133582	-0.000256
H112	H	-0.958336	0.052833	0.404371
H113	H	-0.910934	-0.008637	0.752466
H114	H	-0.647168	0.263617	-0.000223
C115	C	-1.023491	0.315236	-0.000358
C116	C	-1.075763	0.337232	0.086258
C117	C	-1.146483	0.297618	0.086218
C118	C	-1.164930	0.236008	-0.000438
C119	C	-1.112657	0.214009	-0.087060
C120	C	-1.041938	0.253623	-0.087020
H121	H	-1.062108	0.382842	0.150411
H122	H	-1.185178	0.313903	0.150342
H123	H	-1.217281	0.206683	-0.000467
H124	H	-1.126312	0.168399	-0.151214
H125	H	-1.003242	0.237338	-0.151144
H126	H	-0.936921	0.626167	-0.000304
H127	H	-1.002595	0.496120	-0.000326
H128	H	-0.691446	-0.293072	0.595077
