data_functionalizedCrystal
_audit_creation_method	'MofGen! by Chris Wilmer'
_symmetry_space_group_name_H-M	'P1'
_symmetry_Int_Tables_number	1
_symmetry_cell_setting	triclinic
loop_
_symmetry_equiv_pos_as_xyz
  x,y,z
_cell_length_a	6.817900
_cell_length_b	17.329528
_cell_length_c	27.923559
_cell_angle_alpha	92.997549
_cell_angle_beta	98.965071
_cell_angle_gamma	103.027692
loop_
_atom_site_label
_atom_site_type_symbol
_atom_site_fract_x
_atom_site_fract_y
_atom_site_fract_z
V1	V	-3.970931	-0.109817	-0.146829
O2	O	-3.965444	0.004127	-0.148556
O3	O	-3.917119	-0.216644	-0.141476
O4	O	-3.900785	-0.108633	-0.212850
O5	O	-3.981891	-0.104631	-0.076687
V6	V	-4.458077	-0.096129	-0.138968
O7	O	-4.224240	-0.139845	-0.164073
O8	O	-4.654965	-0.066101	-0.121723
O9	O	-4.288682	0.010697	-0.144321
O10	O	-4.580961	-0.210074	-0.137241
O11	O	-4.564514	-0.101315	-0.209109
O12	O	-4.305016	-0.097313	-0.072946
C13	C	-3.761507	-0.242670	-0.138037
C14	C	-3.798652	-0.330005	-0.134101
C15	C	-4.007334	-0.823361	-0.109588
C16	C	-3.972447	-0.741303	-0.113295
C17	C	-3.979971	-0.711832	-0.159112
C18	C	-4.022364	-0.764423	-0.201224
C19	C	-4.057235	-0.846479	-0.197517
C20	C	-3.875916	-0.464652	-0.172506
C21	C	-3.841046	-0.382590	-0.176210
C22	C	-3.791129	-0.359475	-0.088281
C23	C	-3.826015	-0.441535	-0.084577
C24	C	-3.868395	-0.494118	-0.126689
C25	C	-3.944318	-0.627955	-0.162902
C26	C	-3.904033	-0.577993	-0.122898
C27	C	-3.740671	-0.104890	-0.229082
C28	C	-3.764567	-0.104628	-0.283026
C29	C	-3.947080	-0.175098	-0.621563
C30	C	-4.036998	-0.174161	-0.824309
O31	O	-4.077702	-0.235272	-0.853945
N32	N	-4.014144	-0.102044	-0.845641
C33	C	-3.968819	-0.030157	-0.816283
O34	O	-3.951464	0.031204	-0.839079
C35	C	-3.878916	-0.031095	-0.613537
C36	C	-3.901754	-0.103216	-0.592208
C37	C	-3.969917	-0.247213	-0.600234
C38	C	-3.947428	-0.247447	-0.549550
C39	C	-3.902102	-0.175565	-0.520195
C40	C	-3.879265	-0.103449	-0.541524
C41	C	-3.833607	0.040791	-0.584180
C42	C	-3.811138	0.040550	-0.533491
C43	C	-3.833975	-0.031571	-0.512162
C44	C	-3.811449	-0.031800	-0.461486
N45	N	-3.834303	-0.103917	-0.440155
C46	C	-3.879630	-0.175799	-0.469509
C47	C	-4.016018	-0.029669	-0.922727
C48	C	-4.038490	-0.029434	-0.973413
C49	C	-4.106671	-0.173439	-0.981437
C50	C	-4.084184	-0.173673	-0.930749
C51	C	-4.038872	-0.101786	-0.901396
C52	C	-3.832396	-0.176284	-0.363069
C53	C	-3.809893	-0.176510	-0.312380
C54	C	-3.741725	-0.032507	-0.304362
C55	C	-3.764215	-0.032279	-0.355046
C56	C	-3.809560	-0.104174	-0.384399
O57	O	-3.770769	0.029278	-0.431822
O58	O	-3.897021	-0.237152	-0.446704
C59	C	-3.969570	-0.174865	-0.672247
C60	C	-3.946733	-0.102749	-0.693576
C61	C	-3.901406	-0.030867	-0.664221
C62	C	-3.969204	-0.102515	-0.744262
C63	C	-4.014531	-0.174397	-0.773616
C64	C	-4.037385	-0.246513	-0.752285
C65	C	-4.014896	-0.246747	-0.701601
C66	C	-3.878552	0.041250	-0.685553
C67	C	-3.901042	0.041477	-0.736237
C68	C	-3.946368	-0.030405	-0.765592
C69	C	-4.107637	0.036720	-0.147758
C70	C	-4.049729	0.124054	-0.151697
C71	C	-4.128473	-0.101059	-0.056712
C72	C	-4.083816	-0.101316	-0.002768
H73	H	-4.091749	-0.889294	-0.231806
Cl74	Cl	-3.838607	-0.267184	-0.285570
Cl75	Cl	-3.953763	-0.590898	-0.220499
Cl76	Cl	-4.026900	-0.337592	-0.637128
H77	H	-3.819891	-0.465524	-0.047268
Cl78	Cl	-3.737873	-0.293367	-0.035343
Cl79	Cl	-3.754204	0.130928	-0.496592
Cl80	Cl	-3.889394	-0.266667	-0.399962
H81	H	-3.704811	0.026018	-0.280452
Cl82	Cl	-3.872309	0.132154	-0.763043
Cl83	Cl	-3.976179	-0.338119	-0.522745
H84	H	-3.841648	0.099786	-0.661657
H85	H	-4.001213	-0.847350	-0.072279
H86	H	-4.102782	-0.232400	-0.913387
Cl87	Cl	-3.850520	-0.345542	-0.233813
Cl88	Cl	-4.043622	-0.337419	-0.674796
H89	H	-4.074284	-0.305042	-0.776194
H90	H	-3.979120	0.028873	-0.898831
H91	H	-4.143574	-0.231968	-1.005346
H92	H	-3.937935	-0.698491	-0.079005
H93	H	-3.745629	0.026448	-0.372413
H94	H	-3.910427	-0.507457	-0.206796
H95	H	-4.028474	-0.740421	-0.238529
H96	H	-3.897897	-0.601992	-0.085595
Cl97	Cl	-4.009733	0.061237	-1.000220
H98	H	-3.814991	0.099521	-0.601537
