data_functionalizedCrystal
_audit_creation_method	'MofGen! by Chris Wilmer'
_symmetry_space_group_name_H-M	'P1'
_symmetry_Int_Tables_number	1
_symmetry_cell_setting	triclinic
loop_
_symmetry_equiv_pos_as_xyz
  x,y,z
_cell_length_a	17.077404
_cell_length_b	16.959454
_cell_length_c	17.077396
_cell_angle_alpha	90.024615
_cell_angle_beta	89.982480
_cell_angle_gamma	89.981679
loop_
_atom_site_label
_atom_site_type_symbol
_atom_site_fract_x
_atom_site_fract_y
_atom_site_fract_z
Zn1	Zn	1.200037	0.314772	-0.443874
Zn2	Zn	1.199949	0.446962	-0.312619
Zn3	Zn	1.068774	0.314791	-0.312621
Zn4	Zn	1.068737	0.446902	-0.443842
O5	O	1.134374	0.380857	-0.378239
O6	O	1.309872	0.332325	-0.426475
O7	O	1.182527	0.429462	-0.202772
O8	O	1.086239	0.204178	-0.330047
O9	O	1.309808	0.429444	-0.330043
O10	O	1.182677	0.204164	-0.426478
O11	O	1.086153	0.332356	-0.202774
O12	O	0.958922	0.332298	-0.330016
O13	O	1.086175	0.429342	-0.553693
O14	O	0.958895	0.429360	-0.426423
O15	O	1.182641	0.332267	-0.553717
O16	O	1.182491	0.557565	-0.330011
O17	O	1.086090	0.557521	-0.426420
C18	C	0.930426	0.380825	-0.378216
C19	C	0.843176	0.380831	-0.378225
C20	C	0.467368	0.431510	-0.428382
C21	C	0.549349	0.431500	-0.428370
C22	C	0.590327	0.380878	-0.378252
C23	C	0.549322	0.330269	-0.328136
C24	C	0.467343	0.330284	-0.328145
C25	C	0.720192	0.330240	-0.328123
C26	C	0.802176	0.330224	-0.328116
C27	C	0.802198	0.431456	-0.428348
C28	C	0.720219	0.431471	-0.428357
C29	C	0.679219	0.380860	-0.378242
C30	C	1.134298	0.586223	-0.378229
C31	C	1.134337	0.674080	-0.378251
C32	C	1.084218	1.045562	-0.428445
C33	C	1.184683	1.045548	-0.328135
C34	C	1.184660	0.963002	-0.328127
C35	C	1.134414	0.921733	-0.378277
C36	C	1.084191	0.963009	-0.428436
C37	C	1.234876	0.921720	-0.277963
C38	C	1.234854	0.839169	-0.277952
C39	C	1.184611	0.797898	-0.328107
C40	C	1.134387	0.839179	-0.378268
C41	C	1.084141	0.797909	-0.428419
C42	C	1.033921	0.839189	-0.478585
C43	C	1.033949	0.921738	-0.478591
C44	C	1.184583	0.715349	-0.328101
C45	C	1.084115	0.715356	-0.428410
C46	C	1.339118	0.380889	-0.378262
C47	C	1.426368	0.380903	-0.378272
C48	C	1.134414	0.380796	-0.582983
C49	C	1.134430	0.380770	-0.670233
C50	C	1.134459	1.174689	-0.378270
C51	C	1.134464	1.086832	-0.378294
C52	C	1.084264	0.330201	-0.711224
C53	C	1.084277	0.330183	-0.793204
C54	C	1.134460	0.380730	-0.834193
C55	C	1.184629	0.431305	-0.793196
C56	C	1.184612	0.431326	-0.711217
C57	C	1.184663	0.431255	-0.964067
C58	C	1.184682	0.431233	-1.046051
C59	C	1.084328	0.330112	-1.046053
C60	C	1.084311	0.330133	-0.964074
C61	C	1.134481	0.380707	-0.923084
C62	C	1.134380	0.380861	-0.174291
C63	C	1.134515	0.380664	-0.087042
H64	H	0.434009	0.472728	-0.469198
H65	H	1.043403	0.289034	-0.677857
H66	H	0.582693	0.289055	-0.287326
H67	H	0.582727	0.472711	-0.469172
H68	H	0.686812	0.289026	-0.287316
H69	H	0.686856	0.472688	-0.469171
O70	O	0.842105	0.480512	-0.477069
C71	C	0.889538	0.435565	-0.527851
H72	H	0.901822	0.375629	-0.500262
H73	H	0.947183	0.467767	-0.538316
H74	H	0.857967	0.426954	-0.586039
H75	H	1.275777	0.955328	-0.237127
H76	H	1.225469	0.472499	-0.677844
H77	H	1.225546	0.472393	-1.079422
H78	H	0.835539	0.288995	-0.287313
H79	H	1.225468	0.681743	-0.287252
O80	O	1.233469	0.480411	-0.924369
C81	C	1.277753	0.525036	-0.978123
H82	H	1.280502	0.492644	-1.036565
H83	H	1.339590	0.533488	-0.954439
H84	H	1.248977	0.585059	-0.986831
H85	H	1.225586	1.079155	-0.287300
O86	O	1.035266	0.675183	-0.477020
C87	C	0.984561	0.627509	-0.432278
H88	H	1.012275	0.615155	-0.372813
H89	H	0.974001	0.569450	-0.464236
H90	H	0.926406	0.659369	-0.423606
H91	H	0.433961	0.289072	-0.287343
H92	H	0.993007	0.805578	-0.519414
O93	O	1.283715	0.799196	-0.229203
C94	C	1.328053	0.853325	-0.184928
H95	H	1.330763	0.912151	-0.217086
H96	H	1.389900	0.829442	-0.176613
H97	H	1.299349	0.862149	-0.125283
H98	H	0.993061	0.955355	-0.519433
O99	O	1.233487	0.480368	-0.832925
C100	C	1.311727	0.463100	-0.812916
H101	H	1.313356	0.432732	-0.753398
H102	H	1.346897	0.520152	-0.810107
H103	H	1.338196	0.422452	-0.859063
O104	O	1.035460	1.085778	-0.477099
C105	C	1.046270	1.167488	-0.466375
H106	H	1.072020	1.178784	-0.405822
H107	H	0.987479	1.198896	-0.471651
H108	H	1.088051	1.190858	-0.512979
H109	H	1.043423	0.289007	-0.826575
H110	H	1.043450	0.288969	-0.930704
O111	O	1.035496	0.281105	-1.085897
C112	C	0.984793	0.326090	-1.133309
H113	H	0.979920	0.388351	-1.108592
H114	H	0.924394	0.297498	-1.134226
H115	H	1.009063	0.328798	-1.195446
