data_functionalizedCrystal
_audit_creation_method	'MofGen! by Chris Wilmer'
_symmetry_space_group_name_H-M	'P1'
_symmetry_Int_Tables_number	1
_symmetry_cell_setting	triclinic
loop_
_symmetry_equiv_pos_as_xyz
  x,y,z
_cell_length_a	9.065215
_cell_length_b	14.044190
_cell_length_c	8.140239
_cell_angle_alpha	89.991557
_cell_angle_beta	89.997810
_cell_angle_gamma	89.103237
loop_
_atom_site_label
_atom_site_type_symbol
_atom_site_fract_x
_atom_site_fract_y
_atom_site_fract_z
O1	O	1.975824	0.139128	-0.136616
O2	O	2.475824	0.639128	0.363384
O3	O	1.547804	0.150544	-0.136625
O4	O	2.047804	0.650544	0.363375
O5	O	1.755384	0.006796	-0.136588
O6	O	2.255384	0.506796	0.363412
O7	O	1.768244	0.282876	-0.136653
O8	O	2.268244	0.782876	0.363347
O9	O	1.755372	0.006794	0.136639
O10	O	2.255372	0.506794	0.636639
O11	O	1.547792	0.150542	0.136602
O12	O	2.047792	0.650542	0.636602
O13	O	1.975812	0.139126	0.136611
O14	O	2.475812	0.639126	0.636611
Zn15	Zn	1.761800	0.144834	0.179987
Zn16	Zn	2.261800	0.644834	0.679987
Zn17	Zn	1.761816	0.144836	-0.180001
Zn18	Zn	2.261816	0.644836	0.319999
O19	O	1.768232	0.282874	0.136574
O20	O	2.268232	0.782874	0.636574
C21	C	1.492690	0.149446	-0.000012
C22	C	1.992690	0.649446	0.499988
C23	C	1.328483	0.146168	-0.000014
C24	C	1.828483	0.646168	0.499986
C25	C	1.749752	-0.028568	0.000030
C26	C	2.249752	0.471432	0.500030
C27	C	1.732971	-0.133938	0.000044
C28	C	2.232971	0.366062	0.500044
C29	C	1.821307	-0.383466	-0.000019
C30	C	2.321307	0.116534	0.499981
C31	C	1.702315	-0.326858	-0.000010
C32	C	2.202315	0.173142	0.499990
C33	C	1.719376	-0.219507	0.000020
C34	C	2.219376	0.280493	0.500020
C35	C	1.804249	-0.490827	-0.000048
C36	C	2.304249	0.009173	0.499952
C37	C	2.030926	0.140224	-0.000005
C38	C	2.530926	0.640224	0.499995
C39	C	2.195133	0.143502	-0.000014
C40	C	2.695133	0.643502	0.499986
C41	C	1.773864	0.318238	-0.000048
C42	C	2.273864	0.818238	0.499952
C43	C	1.790645	0.423608	-0.000072
C44	C	2.290645	0.923608	0.499928
N45	N	1.761799	0.144832	0.425670
N46	N	2.261799	0.644832	0.925670
N47	N	1.761828	0.144831	-0.425684
N48	N	2.261828	0.644831	0.074316
H49	H	1.587630	-0.359017	-0.000022
H50	H	2.087630	0.140983	0.499978
H51	H	1.935983	-0.351309	0.000001
H52	H	2.435983	0.148691	0.500001
