data_functionalizedCrystal
_audit_creation_method	'MofGen! by Chris Wilmer'
_symmetry_space_group_name_H-M	'P1'
_symmetry_Int_Tables_number	1
_symmetry_cell_setting	triclinic
loop_
_symmetry_equiv_pos_as_xyz
  x,y,z
_cell_length_a	19.805407
_cell_length_b	16.959453
_cell_length_c	19.805399
_cell_angle_alpha	89.973285
_cell_angle_beta	89.975799
_cell_angle_gamma	90.019234
loop_
_atom_site_label
_atom_site_type_symbol
_atom_site_fract_x
_atom_site_fract_y
_atom_site_fract_z
Zn1	Zn	1.034766	-0.314716	-0.382807
Zn2	Zn	1.368099	0.018618	-0.049474
Zn3	Zn	1.701433	0.351951	0.283859
Zn4	Zn	1.034693	-0.446898	-0.269621
Zn5	Zn	1.368027	-0.113565	0.063713
Zn6	Zn	1.701360	0.219769	0.397046
Zn7	Zn	0.921581	-0.314736	-0.269623
Zn8	Zn	1.254914	0.018598	0.063711
Zn9	Zn	1.588247	0.351931	0.397044
Zn10	Zn	0.921557	-0.446854	-0.382758
Zn11	Zn	1.254890	-0.113521	-0.049425
Zn12	Zn	1.588223	0.219812	0.283908
O13	O	0.978149	-0.380801	-0.326202
O14	O	1.311483	-0.047468	0.007131
O15	O	1.644816	0.285866	0.340464
O16	O	1.129473	-0.332260	-0.367812
O17	O	1.462806	0.001073	-0.034479
O18	O	1.796140	0.334407	0.298854
O19	O	1.019668	-0.429393	-0.174904
O20	O	1.353002	-0.096060	0.158429
O21	O	1.686335	0.237273	0.491762
O22	O	0.936635	-0.204122	-0.284658
O23	O	1.269968	0.129211	0.048675
O24	O	1.603302	0.462544	0.382008
O25	O	1.129420	-0.429374	-0.284655
O26	O	1.462753	-0.096040	0.048678
O27	O	1.796086	0.237293	0.382012
O28	O	1.019792	-0.204107	-0.367814
O29	O	1.353125	0.129226	-0.034481
O30	O	1.686459	0.462559	0.298852
O31	O	0.936565	-0.332294	-0.174906
O32	O	1.269898	0.001039	0.158427
O33	O	1.603232	0.334373	0.491761
O34	O	0.826861	-0.332252	-0.284611
O35	O	1.160194	0.001082	0.048723
O36	O	1.493528	0.334415	0.382056
O37	O	0.936595	-0.429299	-0.477481
O38	O	1.269928	-0.095966	-0.144148
O39	O	1.603261	0.237367	0.189185
O40	O	0.826843	-0.429319	-0.367731
O41	O	1.160177	-0.095985	-0.034398
O42	O	1.493510	0.237348	0.298936
O43	O	1.019769	-0.332217	-0.477517
O44	O	1.353102	0.001116	-0.144184
O45	O	1.686436	0.334449	0.189149
O46	O	1.019645	-0.557503	-0.284607
O47	O	1.352979	-0.224170	0.048726
O48	O	1.686312	0.109163	0.382059
O49	O	0.936524	-0.557471	-0.367729
O50	O	1.269858	-0.224138	-0.034396
O51	O	1.603191	0.109196	0.298938
C52	C	0.802293	-0.380783	-0.326166
C53	C	1.135626	-0.047450	0.007167
C54	C	1.468960	0.285883	0.340500
C55	C	0.727061	-0.380795	-0.326167
C56	C	1.060394	-0.047461	0.007167
C57	C	1.393728	0.285872	0.340500
C58	C	0.265279	-0.431439	-0.369458
C59	C	0.598612	-0.098105	-0.036125
C60	C	0.931945	0.235228	0.297208
C61	C	0.335967	-0.431437	-0.369444
C62	C	0.669301	-0.098104	-0.036111
C63	C	1.002634	0.235229	0.297223
C64	C	0.371299	-0.380820	-0.326229
C65	C	0.704633	-0.047487	0.007105
C66	C	1.037966	0.285847	0.340438
C67	C	0.335940	-0.330206	-0.283020
C68	C	0.669273	0.003127	0.050313
C69	C	1.002606	0.336460	0.383647
C70	C	0.265252	-0.330212	-0.283032
C71	C	0.598586	0.003121	0.050302
C72	C	0.931919	0.336454	0.383635
C73	C	0.621013	-0.330182	-0.282972
C74	C	0.954346	0.003151	0.050361
C75	C	1.287680	0.336484	0.383694
C76	C	0.691705	-0.330179	-0.282966
C77	C	1.025038	0.003155	0.050367
C78	C	1.358372	0.336488	0.383701
C79	C	0.691728	-0.431407	-0.369385
C80	C	1.025061	-0.098074	-0.036052
C81	C	1.358394	0.235259	0.297282
C82	C	0.621041	-0.431413	-0.369396
C83	C	0.954374	-0.098080	-0.036063
C84	C	1.287707	0.235253	0.297270
C85	C	0.585687	-0.380803	-0.326186
C86	C	0.919020	-0.047470	0.007148
C87	C	1.252353	0.285864	0.340481
C88	C	0.509038	-0.380806	-0.326201
C89	C	0.842372	-0.047473	0.007133
C90	C	1.175705	0.285861	0.340466
C91	C	0.447947	-0.380812	-0.326217
C92	C	0.781280	-0.047479	0.007117
C93	C	1.114613	0.285854	0.340450
C94	C	0.978093	-0.586167	-0.326177
C95	C	1.311426	-0.252834	0.007156
C96	C	1.644759	0.080499	0.340489
C97	C	0.978131	-0.674024	-0.326190
C98	C	1.311464	-0.340691	0.007144
C99	C	1.644797	-0.007357	0.340477
C100	C	1.021504	-1.045433	-0.369583
C101	C	1.354838	-0.712100	-0.036250
C102	C	1.688171	-0.378767	0.297083
C103	C	0.934983	-1.045566	-0.282922
C104	C	1.268316	-0.712232	0.050412
C105	C	1.601650	-0.378899	0.383745
C106	C	0.934958	-0.963020	-0.282906
C107	C	1.268291	-0.629686	0.050427
C108	C	1.601625	-0.296353	0.383761
C109	C	0.978206	-0.921677	-0.326231
C110	C	1.311539	-0.588343	0.007103
C111	C	1.644873	-0.255010	0.340436
C112	C	1.021479	-0.962880	-0.369571
C113	C	1.354812	-0.629546	-0.036237
C114	C	1.688146	-0.296213	0.297096
C115	C	0.891681	-0.921811	-0.239572
C116	C	1.225014	-0.588477	0.093762
C117	C	1.558347	-0.255144	0.427095
C118	C	0.891653	-0.839260	-0.239555
C119	C	1.224987	-0.505926	0.093778
C120	C	1.558320	-0.172593	0.427112
C121	C	0.934905	-0.797915	-0.282877
C122	C	1.268239	-0.464582	0.050457
C123	C	1.601572	-0.131249	0.383790
C124	C	0.978181	-0.839123	-0.326218
C125	C	1.311514	-0.505790	0.007115
C126	C	1.644847	-0.172457	0.340449
C127	C	1.021429	-0.797780	-0.369542
C128	C	1.354762	-0.464447	-0.036209
C129	C	1.688096	-0.131114	0.297124
C130	C	1.064708	-0.838987	-0.412881
C131	C	1.398042	-0.505653	-0.079547
C132	C	1.731375	-0.172320	0.253786
C133	C	1.064731	-0.921535	-0.412892
C134	C	1.398064	-0.588202	-0.079559
C135	C	1.731398	-0.254869	0.253774
C136	C	0.934882	-0.715367	-0.282865
C137	C	1.268216	-0.382033	0.050468
C138	C	1.601549	-0.048700	0.383802
C139	C	1.021404	-0.715227	-0.369530
C140	C	1.354737	-0.381893	-0.036196
C141	C	1.688070	-0.048560	0.297137
C142	C	1.154692	-0.380819	-0.326239
C143	C	1.488025	-0.047486	0.007094
C144	C	1.821359	0.285847	0.340428
C145	C	1.229924	-0.380827	-0.326255
C146	C	1.563257	-0.047494	0.007079
C147	C	1.896591	0.285839	0.340412
C148	C	0.978187	-0.380751	-0.502745
C149	C	1.311520	-0.047418	-0.169412
C150	C	1.644854	0.285915	0.163922
C151	C	0.978203	-0.380730	-0.577977
C152	C	1.311537	-0.047397	-0.244644
C153	C	1.644870	0.285937	0.088690
C154	C	0.978224	-0.174633	-0.326242
C155	C	1.311558	0.158701	0.007091
C156	C	1.644891	0.492034	0.340425
C157	C	0.978256	-0.086776	-0.326259
C158	C	1.311590	0.246557	0.007074
C159	C	1.644923	0.579891	0.340408
C160	C	1.021513	-0.330177	-0.613341
C161	C	1.354846	0.003156	-0.280008
C162	C	1.688180	0.336490	0.053326
C163	C	1.021520	-0.330154	-0.684030
C164	C	1.354853	0.003179	-0.350696
C165	C	1.688187	0.336513	-0.017363
C166	C	0.978220	-0.380689	-0.719353
C167	C	1.311553	-0.047355	-0.386019
C168	C	1.644887	0.285978	-0.052686
C169	C	0.934906	-0.431244	-0.683984
C170	C	1.268239	-0.097911	-0.350651
C171	C	1.601572	0.235423	-0.017317
C172	C	0.934896	-0.431262	-0.613297
C173	C	1.268229	-0.097929	-0.279963
C174	C	1.601562	0.235404	0.053370
C175	C	0.934944	-0.431170	-0.969057
C176	C	1.268277	-0.097837	-0.635724
C177	C	1.601610	0.235496	-0.302391
C178	C	0.934958	-0.431150	-1.039749
C179	C	1.268292	-0.097816	-0.706416
C180	C	1.601625	0.235517	-0.373083
C181	C	1.021568	-0.330062	-1.039790
C182	C	1.354901	0.003271	-0.706457
C183	C	1.688235	0.336605	-0.373124
C184	C	1.021558	-0.330080	-0.969103
C185	C	1.354892	0.003253	-0.635770
C186	C	1.688225	0.336586	-0.302436
C187	C	0.978241	-0.380632	-0.933740
C188	C	1.311575	-0.047299	-0.600407
C189	C	1.644908	0.286034	-0.267074
C190	C	0.978234	-0.380656	-0.857092
C191	C	1.311567	-0.047322	-0.523758
C192	C	1.644900	0.286011	-0.190425
C193	C	0.978231	-0.380670	-0.796000
C194	C	1.311564	-0.047337	-0.462667
C195	C	1.644898	0.285997	-0.129333
C196	C	0.978150	-0.380794	-0.150346
C197	C	1.311484	-0.047460	0.182987
C198	C	1.644817	0.285873	0.516320
C199	C	0.978265	-0.380592	-0.075115
C200	C	1.311599	-0.047259	0.258219
C201	C	1.644932	0.286075	0.591552
H202	H	0.592276	-0.472628	-0.404589
H203	H	0.925610	-0.139295	-0.071256
H204	H	1.258943	0.194038	0.262077
H205	H	0.720521	-0.472619	-0.404568
H206	H	1.053854	-0.139286	-0.071234
H207	H	1.387188	0.194048	0.262099
O208	O	0.729818	-0.275596	-0.236341
O209	O	1.063151	0.057737	0.096992
O210	O	1.396484	0.391070	0.430326
H211	H	0.693359	-0.240414	-0.206287
H212	H	1.026693	0.092920	0.127046
H213	H	1.360026	0.426253	0.460380
H214	H	0.899770	-1.079232	-0.247652
H215	H	1.233103	-0.745899	0.085682
H216	H	1.566436	-0.412565	0.419015
O217	O	1.111359	-0.794394	-0.459605
O218	O	1.444693	-0.461061	-0.126271
O219	O	1.778026	-0.127727	0.207062
H220	H	1.081034	-0.756780	-0.494003
H221	H	1.414368	-0.423447	-0.160669
H222	H	1.747701	-0.090113	0.172664
H223	H	1.056789	-0.288991	-0.712820
H224	H	1.390122	0.044343	-0.379486
H225	H	1.723456	0.377676	-0.046153
H226	H	0.592236	-0.288975	-0.247785
H227	H	0.925570	0.044358	0.085548
H228	H	1.258903	0.377692	0.418882
O229	O	0.845050	-0.966408	-0.192839
O230	O	1.178383	-0.633075	0.140494
O231	O	1.511717	-0.299742	0.473828
H232	H	0.810615	-1.004038	-0.223099
H233	H	1.143948	-0.670705	0.110235
H234	H	1.477281	-0.337371	0.443568
O235	O	0.888213	-0.670920	-0.236125
O236	O	1.221546	-0.337586	0.097208
O237	O	1.554879	-0.004253	0.430541
H238	H	0.858146	-0.713536	-0.206000
H239	H	1.191479	-0.380203	0.127334
H240	H	1.524813	-0.046870	0.460667
H241	H	0.236467	-0.288997	-0.247852
H242	H	0.569801	0.044336	0.085481
H243	H	0.903134	0.377670	0.418814
O244	O	0.374043	-0.275608	-0.236408
O245	O	0.707376	0.057726	0.096925
O246	O	1.040709	0.391059	0.430258
H247	H	0.429136	-0.284099	-0.243663
H248	H	0.762469	0.049235	0.089670
H249	H	1.095803	0.382568	0.423003
O250	O	0.227199	-0.486090	-0.416044
O251	O	0.560532	-0.152757	-0.082710
O252	O	0.893865	0.180577	0.250623
H253	H	0.240800	-0.472659	-0.469192
H254	H	0.574133	-0.139326	-0.135859
H255	H	0.907466	0.194008	0.197474
O256	O	0.888190	-0.485670	-0.930941
O257	O	1.221524	-0.152336	-0.597607
O258	O	1.554857	0.180997	-0.264274
H259	H	0.899754	-0.547712	-0.944489
H260	H	1.233087	-0.214379	-0.611156
H261	H	1.566421	0.118954	-0.277822
H262	H	1.056624	-0.681570	-0.404807
H263	H	1.389958	-0.348237	-0.071474
H264	H	1.723291	-0.014904	0.261859
O265	O	1.111397	-0.965976	-0.459645
O266	O	1.444730	-0.632643	-0.126311
O267	O	1.778064	-0.299310	0.207022
H268	H	1.104139	-1.030323	-0.452382
H269	H	1.437472	-0.696989	-0.119049
H270	H	1.770805	-0.363656	0.214284
O271	O	0.888197	-0.485747	-0.722077
O272	O	1.221530	-0.152413	-0.388744
O273	O	1.554864	0.180920	-0.055411
H274	H	0.895483	-0.477246	-0.777172
H275	H	1.228816	-0.143913	-0.443839
H276	H	1.562149	0.189420	-0.110506
O277	O	1.068177	-1.089868	-0.416333
O278	O	1.401510	-0.756535	-0.083000
O279	O	1.734844	-0.423202	0.250334
H280	H	1.060928	-1.154216	-0.409070
H281	H	1.394261	-0.820883	-0.075737
H282	H	1.727595	-0.487549	0.257596
H283	H	1.056775	-0.289028	-0.584586
H284	H	1.390108	0.044305	-0.251253
H285	H	1.723442	0.377638	0.082081
O286	O	0.374103	-0.486018	-0.416048
O287	O	0.707436	-0.152685	-0.082715
O288	O	1.040769	0.180649	0.250619
H289	H	0.337659	-0.521207	-0.446108
H290	H	0.670992	-0.187874	-0.112774
H291	H	1.004325	0.145460	0.220559
O292	O	0.844988	-0.794816	-0.192804
O293	O	1.178321	-0.461483	0.140530
O294	O	1.511655	-0.128149	0.473863
H295	H	0.814926	-0.837434	-0.162675
H296	H	1.148259	-0.504101	0.170658
H297	H	1.481592	-0.170767	0.503991
O298	O	1.068260	-0.275577	-0.931002
O299	O	1.401594	0.057756	-0.597669
O300	O	1.734927	0.391090	-0.264336
H301	H	1.098375	-0.240415	-0.967470
H302	H	1.431708	0.092919	-0.634136
H303	H	1.765041	0.426252	-0.300803
H304	H	1.056836	-0.288897	-1.068591
H305	H	1.390170	0.044436	-0.735258
H306	H	1.723503	0.377769	-0.401924
H307	H	0.899695	-0.472303	-1.068508
H308	H	1.233029	-0.138969	-0.735174
H309	H	1.566362	0.194364	-0.401841
O310	O	0.888174	-0.485776	-0.575149
O311	O	1.221508	-0.152443	-0.241815
O312	O	1.554841	0.180891	0.091518
H313	H	0.858067	-0.520914	-0.611585
H314	H	1.191400	-0.187581	-0.278252
H315	H	1.524734	0.145753	0.055082
