data_functionalizedCrystal
_audit_creation_method	'MofGen! by Chris Wilmer'
_symmetry_space_group_name_H-M	'P1'
_symmetry_Int_Tables_number	1
_symmetry_cell_setting	triclinic
loop_
_symmetry_equiv_pos_as_xyz
  x,y,z
_cell_length_a	23.096457
_cell_length_b	23.096457
_cell_length_c	14.560438
_cell_angle_alpha	60.000464
_cell_angle_beta	89.997951
_cell_angle_gamma	59.998275
loop_
_atom_site_label
_atom_site_type_symbol
_atom_site_fract_x
_atom_site_fract_y
_atom_site_fract_z
Zr1	Zr	0.557751	0.633762	-0.120540
O2	O	0.465300	0.754552	-0.267179
O3	O	0.586094	0.512972	-0.075589
O4	O	0.586092	0.633764	-0.267190
O5	O	0.465303	0.633758	0.075562
O6	O	0.681372	0.633766	-0.267195
O7	O	0.465303	0.633760	-0.075579
O8	O	0.681377	0.417691	0.075543
O9	O	0.465298	0.849833	-0.267176
O10	O	0.669287	0.562656	-0.056419
O11	O	0.598180	0.562653	0.056379
O12	O	0.598177	0.704871	-0.169206
O13	O	0.527070	0.704868	-0.056407
Zr14	Zr	0.709713	0.633762	0.120504
Zr15	Zr	0.709713	0.633765	-0.120548
Zr16	Zr	0.557751	0.633759	0.120513
Zr17	Zr	0.557748	0.785725	-0.120535
Zr18	Zr	0.709716	0.481799	0.120499
O19	O	0.681370	0.754552	0.075553
O20	O	0.681369	0.754556	-0.267192
O21	O	0.465300	0.754548	0.075566
O22	O	0.802164	0.512972	0.267143
O23	O	0.802164	0.512976	-0.075602
O24	O	0.586094	0.512968	0.267156
O25	O	0.802161	0.633766	-0.075598
O26	O	0.681372	0.633760	0.267154
O27	O	0.586092	0.633758	0.267160
O28	O	0.802161	0.633764	0.075543
O29	O	0.586087	0.849835	-0.267183
O30	O	0.681377	0.417689	0.267148
O31	O	0.802166	0.417691	0.267141
O32	O	0.802166	0.417693	0.075536
O33	O	0.465298	0.849831	-0.075572
O34	O	0.586087	0.849833	-0.075579
O35	O	0.669287	0.562653	0.169170
O36	O	0.740394	0.562656	0.056371
O37	O	0.669284	0.704870	-0.056415
O38	O	0.598177	0.704868	0.056384
C39	C	0.633736	0.443680	-0.000024
C40	C	0.633737	0.379168	-0.000025
C41	C	0.670850	-0.081349	-0.058879
C42	C	0.670848	-0.020729	-0.058889
C43	C	0.633733	0.009582	-0.000009
C44	C	0.596601	-0.020716	0.058862
C45	C	0.596598	-0.081329	0.058861
N46	N	0.638885	0.071975	0.095809
N47	N	0.638892	0.129554	0.095807
C48	C	0.633738	0.192208	-0.000006
N49	N	0.628591	0.195101	-0.095816
N50	N	0.628588	0.137514	-0.095812
C51	C	0.633731	0.075308	-0.000003
C52	C	0.670861	0.288235	-0.058891
C53	C	0.670855	0.348859	-0.058905
C54	C	0.596612	0.348865	0.058858
C55	C	0.596614	0.288247	0.058860
C56	C	0.633743	0.257933	-0.000012
C57	C	0.443652	0.633759	-0.000007
C58	C	0.379140	0.633758	-0.000003
C59	C	0.385953	0.559525	0.058859
C60	C	0.325338	0.559524	0.058864
C61	C	0.257910	0.633760	-0.000015
C62	C	0.251099	0.708002	-0.058880
C63	C	0.311715	0.708001	-0.058874
N64	N	0.135113	0.689018	-0.095841
N65	N	0.077533	0.689013	-0.095845
C66	C	0.075277	0.633767	-0.000035
N67	N	0.132781	0.578512	0.095776
N68	N	0.190367	0.578514	0.095778
C69	C	0.192178	0.633769	-0.000028
C70	C	0.016366	0.559528	0.058838
C71	C	-0.044252	0.559530	0.058846
C72	C	-0.118490	0.708010	-0.058910
C73	C	-0.057872	0.708006	-0.058907
C74	C	0.009553	0.633763	-0.000036
C75	C	0.823812	0.633765	-0.000029
C76	C	0.888324	0.633766	-0.000033
C77	C	0.633732	0.633765	-0.301537
C78	C	0.633732	0.633766	-0.403870
C79	C	0.633728	0.823844	-0.000012
C80	C	0.633727	0.888356	-0.000010
C81	C	0.596610	0.708000	-0.510820
C82	C	0.596612	0.707996	-0.606969
C83	C	0.670858	0.559519	-0.489205
C84	C	0.670860	0.559523	-0.393058
C85	C	0.553742	0.793722	-0.578811
C86	C	0.553745	0.793718	-0.674960
C87	C	0.633732	0.633759	0.301502
C88	C	0.633732	0.633758	0.403835
C89	C	0.823816	0.443683	-0.000035
C90	C	0.888329	0.379172	-0.000040
C91	C	0.633736	0.443677	0.301496
C92	C	0.633738	0.379163	0.403827
C93	C	0.823816	0.443680	0.301485
C94	C	0.888329	0.379168	0.403812
C95	C	0.443648	0.823844	-0.301521
C96	C	0.379135	0.888356	-0.403848
C97	C	0.443648	0.823841	-0.000001
C98	C	0.379135	0.888352	0.000004
C99	C	0.633728	0.823847	-0.301532
C100	C	0.633726	0.888361	-0.403863
C101	C	0.881508	0.348877	-0.058929
C102	C	0.942119	0.288270	-0.058956
C103	C	1.009550	0.257956	-0.000089
C104	C	1.016370	0.288257	0.058801
C105	C	0.955760	0.348866	0.058822
C106	C	0.670855	0.348867	0.510768
C107	C	0.670854	0.288259	0.606928
C108	C	0.633739	0.257943	0.596145
C109	C	0.596616	0.288245	0.489192
C110	C	0.596614	0.348857	0.393034
C111	C	0.955749	0.348873	0.392986
C112	C	1.016371	0.288266	0.489124
C113	C	1.009573	0.257949	0.596087
C114	C	0.942147	0.288250	0.606911
C115	C	0.881526	0.348860	0.510774
C116	C	0.311715	0.918658	-0.393022
C117	C	0.251093	0.979284	-0.489160
C118	C	0.257891	1.009604	-0.596123
C119	C	0.325317	0.979300	-0.606947
C120	C	0.385938	0.918678	-0.510810
C121	C	0.385956	0.918653	0.058883
C122	C	0.325345	0.979277	0.058884
C123	C	0.257914	1.009593	0.000013
C124	C	0.251094	0.979289	-0.058873
C125	C	0.311704	0.918671	-0.058880
C126	C	0.670849	0.918657	-0.393043
C127	C	0.670861	0.979266	-0.489185
C128	C	0.633747	1.009582	-0.596145
C129	C	0.596623	0.979279	-0.606963
C130	C	0.596615	0.918667	-0.510822
H131	H	0.701080	0.003942	-0.106829
Br132	Br	0.721244	1.020380	-0.474477
Br133	Br	0.633764	1.091843	-0.726612
Br134	Br	0.546249	0.247094	0.474576
H135	H	0.208524	1.058965	-0.674395
H136	H	0.566391	0.373516	0.305962
Br137	Br	0.600864	0.838065	-0.759858
H138	H	0.936552	0.263607	-0.106911
Br139	Br	0.546223	0.020424	0.138762
H140	H	1.058940	0.208596	0.674359
H141	H	0.961297	0.373548	0.305900
H142	H	0.566383	0.894007	-0.519647
Br143	Br	0.459152	0.848566	-0.761956
Br144	Br	0.546211	-0.122446	0.138760
H145	H	0.633746	0.208589	0.674452
H146	H	0.566387	0.373548	0.106793
H147	H	0.826632	0.373518	0.519604
H148	H	-0.173390	0.768454	-0.106852
Br149	Br	0.159591	0.808751	-0.138779
Br150	Br	0.477434	0.877558	-0.525523
H151	H	0.440856	0.893974	0.106830
Br152	Br	0.721239	0.247146	0.752063
H153	H	0.196197	1.003948	-0.480325
H154	H	0.330912	1.003940	0.106840
H155	H	0.701082	0.373530	-0.106849
Br156	Br	0.932932	0.247098	0.752084
Br157	Br	0.175663	1.091862	0.000034
Br158	Br	0.302468	0.808753	-0.138764
Br159	Br	0.593472	0.848587	-0.578839
H160	H	1.071267	0.263601	0.480292
Br161	Br	0.477456	0.458767	0.138761
H162	H	0.196183	1.003983	-0.106804
H163	H	1.058897	0.208603	-0.000114
H164	H	0.701081	-0.106027	-0.106819
Br165	Br	0.334531	1.020455	-0.752120
Br166	Br	0.965030	0.389970	0.138757
H167	H	0.306141	0.894002	-0.106822
H168	H	0.701091	0.263554	-0.106832
Br169	Br	0.302469	0.877521	-0.247870
Br170	Br	0.546250	1.020438	-0.752132
Br171	Br	0.721225	0.877528	-0.247894
Br172	Br	0.546232	0.247127	0.138763
H173	H	0.498865	0.820322	-0.570079
H174	H	0.330885	0.499073	0.106798
Br175	Br	-0.035003	0.458777	0.138756
Br176	Br	-0.067118	0.808756	-0.138800
Br177	Br	0.107874	0.458773	0.138736
Br178	Br	0.790002	0.390007	-0.138834
Br179	Br	1.107890	0.247105	0.138692
Br180	Br	0.721245	0.458765	-0.474541
Br181	Br	0.721236	0.389992	0.525435
Br182	Br	0.721237	0.458774	-0.247911
