data_functionalizedCrystal
_audit_creation_method	'MofGen! by Chris Wilmer'
_symmetry_space_group_name_H-M	'P1'
_symmetry_Int_Tables_number	1
_symmetry_cell_setting	triclinic
loop_
_symmetry_equiv_pos_as_xyz
  x,y,z
_cell_length_a	25.427154
_cell_length_b	25.426324
_cell_length_c	25.422586
_cell_angle_alpha	60.006367
_cell_angle_beta	60.012446
_cell_angle_gamma	59.992398
loop_
_atom_site_label
_atom_site_type_symbol
_atom_site_fract_x
_atom_site_fract_y
_atom_site_fract_z
O1	O	0.072968	-0.768436	0.642532
O2	O	0.572968	-0.268436	1.142532
O3	O	0.027520	-0.598284	0.517710
O4	O	0.527520	-0.098284	1.017710
O5	O	0.135268	-0.705940	0.517611
O6	O	0.635268	-0.205940	1.017611
O7	O	-0.034780	-0.660780	0.642632
O8	O	0.465220	-0.160780	1.142632
O9	O	0.171018	-0.670200	0.553260
O10	O	0.671018	-0.170200	1.053260
O11	O	0.063270	-0.562544	0.553360
O12	O	0.563270	-0.062544	1.053360
O13	O	0.108718	-0.732696	0.678182
O14	O	0.608718	-0.232696	1.178182
Zn15	Zn	0.091670	-0.641945	0.621431
Zn16	Zn	0.591670	-0.141945	1.121431
Zn17	Zn	0.044568	-0.689034	0.574461
Zn18	Zn	0.544568	-0.189034	1.074461
O19	O	0.000970	-0.625039	0.678281
O20	O	0.500970	-0.125039	1.178281
N21	N	0.123818	-0.609812	0.653490
N22	N	0.623818	-0.109812	1.153490
N23	N	0.012426	-0.721173	0.542402
N24	N	0.512426	-0.221173	1.042402
C25	C	0.168482	-0.466269	0.698103
C26	C	0.668482	0.033731	1.198103
C27	C	0.168494	-0.565177	0.698095
C28	C	0.668494	-0.065177	1.198095
C29	C	0.193243	-0.540453	0.722807
C30	C	0.693243	-0.040453	1.222807
C31	C	0.301113	-0.521853	0.665993
C32	C	0.801113	-0.021853	1.165993
C33	C	0.368545	-0.544324	0.643486
C34	C	0.868545	-0.044324	1.143486
C35	C	0.368579	-0.653434	0.685090
C36	C	0.868579	-0.153434	1.185090
C37	C	0.301149	-0.630961	0.707599
C38	C	0.801149	-0.130961	1.207599
C39	C	0.184722	-0.432539	0.631812
C40	C	0.684722	0.067461	1.131812
C41	C	0.162210	-0.365100	0.609357
C42	C	0.662210	0.134900	1.109357
C43	C	0.107225	-0.365129	0.719489
C44	C	0.607225	0.134871	1.219489
C45	C	0.129737	-0.432567	0.741943
C46	C	0.629737	0.067433	1.241943
C47	C	0.102194	-0.548896	0.714421
C48	C	0.602194	-0.048896	1.214421
C49	C	0.079702	-0.571372	0.691949
C50	C	0.579702	-0.071372	1.191949
C51	C	0.189805	-0.626409	0.636839
C52	C	0.689805	-0.126409	1.136839
C53	C	0.212300	-0.603934	0.659303
C54	C	0.712300	-0.103934	1.159303
C55	C	0.102289	-0.548918	0.830735
C56	C	0.602289	-0.048918	1.330735
C57	C	0.079866	-0.571415	0.898171
C58	C	0.579866	-0.071415	1.398171
C59	C	0.190015	-0.626466	0.898104
C60	C	0.690015	-0.126466	1.398104
C61	C	0.212437	-0.603971	0.830666
C62	C	0.712437	-0.103971	1.330666
C63	C	0.168573	-0.565195	0.796984
C64	C	0.668573	-0.065195	1.296984
C65	C	0.267418	-0.565170	0.698047
C66	C	0.767418	-0.065170	1.198047
C67	C	-0.130981	-0.765617	0.497386
C68	C	0.369019	-0.265617	0.997386
C69	C	-0.032127	-0.765741	0.497606
C70	C	0.467873	-0.265741	0.997606
C71	C	-0.056804	-0.790430	0.472789
C72	C	0.443196	-0.290430	0.972789
C73	C	-0.075480	-0.898263	0.529507
C74	C	0.424520	-0.398263	1.029507
C75	C	-0.053057	-0.965702	0.552014
C76	C	0.446943	-0.465702	1.052014
C77	C	0.056052	-0.965829	0.510599
C78	C	0.556052	-0.465829	1.010599
C79	C	0.033627	-0.898392	0.488091
C80	C	0.533627	-0.398392	0.988091
C81	C	-0.164787	-0.781859	0.563659
C82	C	0.335213	-0.281859	1.063659
C83	C	-0.232219	-0.759299	0.586018
C84	C	0.267781	-0.259299	1.086018
C85	C	-0.232034	-0.704261	0.475827
C86	C	0.267966	-0.204261	0.975827
C87	C	-0.164602	-0.726821	0.453469
C88	C	0.335398	-0.226821	0.953469
C89	C	-0.048372	-0.699446	0.481299
C90	C	0.451628	-0.199446	0.981299
C91	C	-0.025938	-0.677008	0.503867
C92	C	0.474062	-0.177008	1.003867
C93	C	0.028987	-0.787155	0.559036
C94	C	0.528987	-0.287155	1.059036
C95	C	0.006552	-0.809596	0.536475
C96	C	0.506552	-0.309596	1.036475
C97	C	-0.048188	-0.699454	0.364860
C98	C	0.451812	-0.199454	0.864860
C99	C	-0.025608	-0.677017	0.297425
C100	C	0.474392	-0.177017	0.797425
C101	C	0.029406	-0.787170	0.297492
C102	C	0.529406	-0.287170	0.797492
C103	C	0.006827	-0.809605	0.364929
C104	C	0.506827	-0.309605	0.864929
C105	C	-0.031972	-0.765745	0.398611
C106	C	0.468028	-0.265745	0.898611
C107	C	-0.032140	-0.864611	0.497548
C108	C	0.467860	-0.364611	0.997548
N109	N	0.401319	-0.609788	0.653344
N110	N	0.901319	-0.109788	1.153344
O111	O	0.621664	-0.620517	0.494685
O112	O	1.121664	-0.120517	0.994685
O113	O	0.621901	-0.745740	0.664659
O114	O	1.121901	-0.245740	1.164659
O115	O	0.621803	-0.745452	0.556857
O116	O	1.121803	-0.245452	1.056857
O117	O	0.621762	-0.620805	0.602487
O118	O	1.121762	-0.120805	1.102487
O119	O	0.514676	-0.709815	0.592658
O120	O	1.014676	-0.209815	1.092658
O121	O	0.514774	-0.710104	0.700460
O122	O	1.014774	-0.210104	1.200460
O123	O	0.514537	-0.584881	0.530485
O124	O	1.014537	-0.084881	1.030485
Zn125	Zn	0.497647	-0.641834	0.621157
Zn126	Zn	0.997647	-0.141834	1.121157
Zn127	Zn	0.638791	-0.688787	0.573988
Zn128	Zn	1.138791	-0.188787	1.073988
O129	O	0.514635	-0.585169	0.638287
O130	O	1.014635	-0.085169	1.138287
N131	N	0.735119	-0.720834	0.541794
N132	N	1.235119	-0.220834	1.041794
N133	N	0.123794	-0.332357	0.653504
N134	N	0.623794	0.167643	1.153504
O135	O	-0.034774	-0.111885	0.642639
O136	O	0.465226	0.388115	1.142639
O137	O	0.135202	-0.111860	0.517412
O138	O	0.635202	0.388140	1.017412
O139	O	0.027364	-0.111888	0.517742
O140	O	0.527364	0.388112	1.017742
O141	O	0.073064	-0.111857	0.642310
O142	O	0.573064	0.388143	1.142310
O143	O	0.063120	-0.219026	0.553444
O144	O	0.563120	0.280974	1.053444
O145	O	0.170958	-0.218998	0.553115
O146	O	0.670958	0.281002	1.053115
O147	O	0.000983	-0.219022	0.678342
O148	O	0.500983	0.280978	1.178342
Zn149	Zn	0.091647	-0.236020	0.621397
Zn150	Zn	0.591647	0.263980	1.121397
Zn151	Zn	0.044537	-0.094862	0.574357
Zn152	Zn	0.544537	0.405138	1.074357
O153	O	0.108821	-0.218994	0.678013
O154	O	0.608821	0.281006	1.178013
N155	N	0.012383	0.001474	0.542251
N156	N	0.512383	0.501474	1.042251
N157	N	0.124036	-0.609854	0.930891
N158	N	0.624036	-0.109854	1.430891
O159	O	0.113202	-0.768401	1.151342
O160	O	0.613202	-0.268401	1.651342
O161	O	-0.011992	-0.598359	1.151385
O162	O	0.488008	-0.098359	1.651385
O163	O	-0.011700	-0.706176	1.151343
O164	O	0.488300	-0.206176	1.651343
O165	O	0.112910	-0.660584	1.151384
O166	O	0.612910	-0.160584	1.651384
O167	O	0.023980	-0.670446	1.044212
O168	O	0.523980	-0.170446	1.544212
O169	O	0.023689	-0.562630	1.044253
O170	O	0.523689	-0.062630	1.544253
O171	O	0.148882	-0.732671	1.044211
O172	O	0.648882	-0.232671	1.544211
Zn173	Zn	0.091951	-0.641977	1.027223
Zn174	Zn	0.591951	-0.141977	1.527223
Zn175	Zn	0.044940	-0.689053	1.168373
Zn176	Zn	0.544940	-0.189053	1.668373
O177	O	0.148590	-0.624854	1.044252
O178	O	0.648590	-0.124854	1.544252
N179	N	0.012853	-0.721183	1.264704
N180	N	0.512853	-0.221183	1.764704
C181	C	0.041135	-0.558973	0.518338
C182	C	0.541135	-0.058973	1.018338
C183	C	0.174567	-0.692292	0.518215
C184	C	0.674567	-0.192292	1.018215
C185	C	0.095103	-0.772007	0.677553
C186	C	0.595103	-0.272007	1.177553
C187	C	-0.038330	-0.638687	0.677677
C188	C	0.461670	-0.138687	1.177677
C189	C	0.568366	-0.745166	0.703974
C190	C	1.068366	-0.245166	1.203974
C191	C	0.568246	-0.744810	0.570474
C192	C	1.068246	-0.244810	1.070474
C193	C	0.568069	-0.585454	0.491172
C194	C	1.068069	-0.085454	0.991172
C195	C	0.568192	-0.585812	0.624671
C196	C	1.068192	-0.085812	1.124671
C197	C	0.174449	-0.165294	0.517975
C198	C	0.674449	0.334706	1.017975
C199	C	0.040949	-0.165460	0.518427
C200	C	0.540949	0.334540	1.018427
C201	C	-0.038309	-0.165456	0.677735
C202	C	0.461691	0.334544	1.177735
C203	C	0.095236	-0.165423	0.677328
C204	C	0.595236	0.334577	1.177328
C205	C	-0.011393	-0.559072	1.097824
C206	C	0.488607	-0.059072	1.597824
C207	C	-0.011024	-0.692583	1.097752
C208	C	0.488976	-0.192583	1.597752
C209	C	0.148283	-0.771958	1.097772
C210	C	0.648283	-0.271958	1.597772
C211	C	0.147922	-0.638440	1.097820
C212	C	0.647922	-0.138440	1.597820
H213	H	0.066565	-0.517338	0.803314
H214	H	0.566565	-0.017338	1.303314
H215	H	0.025716	-0.558101	0.705227
H216	H	0.525716	-0.058101	1.205227
H217	H	0.187070	-0.628684	1.097824
H218	H	0.687070	-0.128684	1.597824
O219	O	0.066496	-0.829695	0.596861
O220	O	0.566496	-0.329695	1.096861
C221	C	0.035760	-0.819968	0.656815
C222	C	0.535760	-0.319968	1.156815
H223	H	0.000157	-0.768770	0.651333
H224	H	0.500157	-0.268770	1.151333
H225	H	0.073361	-0.827512	0.674181
H226	H	0.573361	-0.327512	1.174181
H227	H	0.008911	-0.855756	0.693411
H228	H	0.508911	-0.355756	1.193411
H229	H	-0.050155	-0.702322	1.097697
H230	H	0.449845	-0.202322	1.597697
O231	O	-0.264598	-0.666566	0.433081
O232	O	0.235402	-0.166566	0.933081
C233	C	-0.220300	-0.657093	0.369789
C234	C	0.279700	-0.157093	0.869789
H235	H	-0.172254	-0.664683	0.370005
H236	H	0.327746	-0.164683	0.870005
H237	H	-0.239713	-0.605947	0.337725
H238	H	0.260287	-0.105947	0.837725
H239	H	-0.213113	-0.692987	0.350459
H240	H	0.286887	-0.192987	0.850459
O241	O	0.232828	-0.703875	0.471397
O242	O	0.732828	-0.203875	0.971397
C243	C	0.244338	-0.755995	0.456510
C244	C	0.744338	-0.255995	0.956510
H245	H	0.214241	-0.786945	0.499108
H246	H	0.714241	-0.286945	0.999108
H247	H	0.297590	-0.786333	0.446054
H248	H	0.797590	-0.286333	0.946054
H249	H	0.230490	-0.736854	0.412331
H250	H	0.730490	-0.236854	0.912331
O251	O	0.106778	-0.830362	0.724245
O252	O	0.606778	-0.330362	1.224245
C253	C	0.170087	-0.870311	0.700874
C254	C	0.670087	-0.370311	1.200874
H255	H	0.187070	-0.852755	0.646007
H256	H	0.687070	-0.352755	1.146007
H257	H	0.170966	-0.921946	0.720549
H258	H	0.670966	-0.421946	1.220549
H259	H	0.203416	-0.868537	0.717169
H260	H	0.703416	-0.368537	1.217169
H261	H	0.568264	-0.783967	0.560707
H262	H	1.068264	-0.283967	1.060707
H263	H	-0.039168	-0.623025	0.490592
H264	H	0.460832	-0.123025	0.990592
H265	H	-0.087123	-0.165464	0.717049
H266	H	0.412877	0.334536	1.217049
O267	O	0.029624	-0.500637	0.471582
O268	O	0.529624	-0.000637	0.971582
C269	C	0.073828	-0.472029	0.454212
C270	C	0.573828	0.027971	0.954212
H271	H	0.092686	-0.493362	0.495499
H272	H	0.592686	0.006638	0.995499
H273	H	0.048770	-0.417843	0.443694
H274	H	0.548770	0.082157	0.943694
H275	H	0.115771	-0.481749	0.409400
H276	H	0.615771	0.018251	0.909400
O277	O	-0.058267	-0.500785	1.097723
O278	O	0.441733	-0.000785	1.597723
C279	C	-0.075584	-0.472273	1.042244
C280	C	0.424416	0.027727	1.542244
H281	H	-0.034217	-0.493581	1.003457
H282	H	0.465783	0.006419	1.503457
H283	H	-0.086236	-0.418066	1.023634
H284	H	0.413764	0.081934	1.523634
H285	H	-0.120301	-0.482116	1.054780
H286	H	0.379699	0.017884	1.554780
O287	O	0.568472	-0.792007	0.762237
O288	O	1.068472	-0.292007	1.262237
C289	C	0.568473	-0.768807	0.802329
C290	C	1.068473	-0.268807	1.302329
H291	H	0.588704	-0.727432	0.771357
H292	H	1.088704	-0.227432	1.271357
H293	H	0.599628	-0.809279	0.833157
H294	H	1.099628	-0.309279	1.333157
H295	H	0.517091	-0.750952	0.834892
H296	H	1.017091	-0.250952	1.334892
H297	H	0.031160	-0.165463	0.479291
H298	H	0.531160	0.334537	0.979291
O299	O	0.568207	-0.539035	0.636197
O300	O	1.068207	-0.039035	1.136197
C301	C	0.568105	-0.483425	0.580906
C302	C	1.068105	0.016575	1.080906
H303	H	0.588352	-0.497478	0.536612
H304	H	1.088352	0.002522	1.036612
H305	H	0.599194	-0.459412	0.575245
H306	H	1.099194	0.040588	1.075245
H307	H	0.516689	-0.448418	0.586152
H308	H	1.016689	0.051582	1.086152
H309	H	-0.087172	-0.629063	0.716934
H310	H	0.412828	-0.129063	1.216934
O311	O	0.567894	-0.538569	0.432942
O312	O	1.067894	-0.038569	0.932942
C313	C	0.512376	-0.523633	0.421439
C314	C	1.012376	-0.023633	0.921439
H315	H	0.493935	-0.566238	0.451493
H316	H	0.993935	-0.066238	0.951493
H317	H	0.524795	-0.513099	0.368175
H318	H	1.024795	-0.013099	0.868175
H319	H	0.473505	-0.479485	0.435347
H320	H	0.973505	0.020515	0.935347
H321	H	0.187590	-0.820792	1.097751
H322	H	0.687590	-0.320792	1.597751
H323	H	0.223163	-0.164989	0.478564
H324	H	0.723163	0.335011	0.978564
O325	O	0.107026	-0.165453	0.723961
O326	O	0.607026	0.334547	1.223961
C327	C	0.170339	-0.165429	0.700475
C328	C	0.670339	0.334571	1.200475
H329	H	0.200792	-0.185703	0.659118
H330	H	0.700792	0.314297	1.159118
H331	H	0.192043	-0.196538	0.740805
H332	H	0.692043	0.303462	1.240805
H333	H	0.169378	-0.114029	0.682513
H334	H	0.669378	0.385971	1.182513
H335	H	0.225736	-0.658027	0.925521
H336	H	0.725736	-0.158027	1.425521
O337	O	0.015453	-0.555509	0.930850
O338	O	0.515453	-0.055509	1.430850
C339	C	-0.018449	-0.516474	0.886657
C340	C	0.481551	-0.016474	1.386657
H341	H	0.013684	-0.491953	0.838579
H342	H	0.513684	0.008047	1.338579
H343	H	-0.063445	-0.478322	0.906163
H344	H	0.436555	0.021678	1.406163
H345	H	-0.033001	-0.547580	0.879494
H346	H	0.466999	-0.047580	1.379494
H347	H	0.066522	-0.517340	0.746005
H348	H	0.566522	-0.017340	1.246005
O349	O	0.276844	-0.619897	0.797953
O350	O	0.776844	-0.119897	1.297953
C351	C	0.304869	-0.687442	0.814397
C352	C	0.804869	-0.187442	1.314397
H353	H	0.272929	-0.711051	0.863366
H354	H	0.772929	-0.211051	1.363366
H355	H	0.354484	-0.703203	0.816675
H356	H	0.854484	-0.203203	1.316675
H357	H	0.309858	-0.702690	0.776446
H358	H	0.809858	-0.202690	1.276446
O359	O	0.232446	-0.664030	0.599146
O360	O	0.732446	-0.164030	1.099146
C361	C	0.295785	-0.673593	0.589576
C362	C	0.795785	-0.173593	1.089576
H363	H	0.295665	-0.632939	0.597115
H364	H	0.795665	-0.132939	1.097115
H365	H	0.327770	-0.673935	0.538424
H366	H	0.827770	-0.173935	1.038424
H367	H	0.315140	-0.721638	0.625450
H368	H	0.815140	-0.221638	1.125450
H369	H	0.273715	-0.666239	0.733700
H370	H	0.773715	-0.166239	1.233700
O371	O	0.276695	-0.619627	0.643377
O372	O	0.776695	-0.119627	1.143377
C373	C	0.292943	-0.562950	0.609455
C374	C	0.792943	-0.062950	1.109455
H375	H	0.254896	-0.522444	0.586660
H376	H	0.754896	-0.022444	1.086660
H377	H	0.341879	-0.571815	0.570139
H378	H	0.841879	-0.071815	1.070139
H379	H	0.295193	-0.548762	0.644132
H380	H	0.795193	-0.048762	1.144132
H381	H	0.396045	-0.707006	0.692856
H382	H	0.896045	-0.207006	1.192856
H383	H	0.395978	-0.509050	0.617384
H384	H	0.895978	-0.009050	1.117384
H385	H	0.216267	-0.459978	0.596113
H386	H	0.716267	0.040022	1.096113
O387	O	0.268419	-0.457919	0.656603
O388	O	0.768419	0.042081	1.156603
C389	C	0.284837	-0.423121	0.590022
C390	C	0.784837	0.076879	1.090022
H391	H	0.333789	-0.452583	0.563452
H392	H	0.833789	0.047417	1.063452
H393	H	0.287138	-0.375580	0.581112
H394	H	0.787138	0.124420	1.081112
H395	H	0.246862	-0.413061	0.571665
H396	H	0.746862	0.086939	1.071665
O397	O	0.177871	-0.332300	0.544964
O398	O	0.677871	0.167700	1.044964
C399	C	0.121184	-0.293282	0.528705
C400	C	0.621184	0.206718	1.028705
H401	H	0.080698	-0.313618	0.566735
H402	H	0.580698	0.186382	1.066735
H403	H	0.130034	-0.292502	0.479753
H404	H	0.630034	0.207498	0.979753
H405	H	0.106983	-0.242176	0.526479
H406	H	0.606983	0.257824	1.026479
O407	O	0.069577	-0.332485	0.762160
O408	O	0.569577	0.167515	1.262160
C409	C	0.060097	-0.376719	0.825489
C410	C	0.560097	0.123281	1.325489
H411	H	0.067637	-0.424791	0.825368
H412	H	0.567637	0.075209	1.325368
H413	H	0.008969	-0.357248	0.857532
H414	H	0.508969	0.142752	1.357532
H415	H	0.096016	-0.383885	0.844776
H416	H	0.596016	0.116115	1.344776
H417	H	0.116505	-0.460032	0.795926
H418	H	0.616505	0.039968	1.295926
H419	H	-0.079784	-0.663733	0.392281
H420	H	0.420216	-0.163733	0.892281
O421	O	-0.041485	-0.612610	0.264676
O422	O	0.458515	-0.112610	0.764676
C423	C	-0.109017	-0.584541	0.281051
C424	C	0.390983	-0.084541	0.781051
H425	H	-0.130768	-0.622902	0.299537
H426	H	0.369232	-0.122902	0.799537
H427	H	-0.121851	-0.544785	0.236659
H428	H	0.378149	-0.044785	0.736659
H429	H	-0.129039	-0.563238	0.320199
H430	H	0.370961	-0.063238	0.820199
O431	O	0.067009	-0.829839	0.264850
O432	O	0.567009	-0.329839	0.764850
C433	C	0.032932	-0.868754	0.281240
C434	C	0.532932	-0.368754	0.781240
H435	H	-0.006379	-0.869358	0.330157
H436	H	0.493621	-0.369358	0.830157
H437	H	0.067500	-0.919922	0.283606
H438	H	0.567500	-0.419922	0.783606
H439	H	0.010120	-0.848452	0.243212
H440	H	0.510120	-0.348452	0.743212
O441	O	-0.085963	-0.656758	0.443576
O442	O	0.414037	-0.156758	0.943576
C443	C	-0.095480	-0.593433	0.434016
C444	C	0.404520	-0.093433	0.934016
H445	H	-0.088016	-0.593562	0.474727
H446	H	0.411984	-0.093562	0.974727
H447	H	-0.146593	-0.561367	0.433566
H448	H	0.353407	-0.061367	0.933566
H449	H	-0.059529	-0.574164	0.386024
H450	H	0.440471	-0.074164	0.886024
O451	O	0.022416	-0.874016	0.552347
O452	O	0.522416	-0.374016	1.052347
C453	C	0.061353	-0.907914	0.591504
C454	C	0.561353	-0.407914	1.091504
H455	H	0.085872	-0.875795	0.582968
H456	H	0.585872	-0.375795	1.082968
H457	H	0.099501	-0.952947	0.578911
H458	H	0.599501	-0.452947	1.078911
H459	H	0.030173	-0.922412	0.644295
H460	H	0.530173	-0.422412	1.144295
O461	O	0.022468	-0.873989	0.397785
O462	O	0.522468	-0.373989	0.897785
C463	C	-0.034225	-0.890209	0.436681
C464	C	0.465775	-0.390209	0.936681
H465	H	-0.076584	-0.845733	0.446721
H466	H	0.423416	-0.345733	0.946721
H467	H	-0.028277	-0.929309	0.484138
H468	H	0.471723	-0.429309	0.984138
H469	H	-0.043657	-0.908702	0.410639
H470	H	0.456343	-0.408702	0.910639
H471	H	0.068924	-0.870994	0.462067
H472	H	0.568924	-0.370994	0.962067
H473	H	0.109606	-0.993335	0.502902
H474	H	0.609606	-0.493335	1.002902
O475	O	-0.095243	-0.998291	0.583030
O476	O	0.404757	-0.498291	1.083030
C477	C	-0.126792	-0.981806	0.541719
C478	C	0.373208	-0.481806	1.041719
H479	H	-0.125142	-0.932891	0.503284
H480	H	0.374858	-0.432891	1.003284
H481	H	-0.179088	-0.979384	0.570830
H482	H	0.320912	-0.479384	1.070830
H483	H	-0.101660	-1.019812	0.517639
H484	H	0.398340	-0.519812	1.017639
O485	O	-0.132196	-0.819608	0.606378
O486	O	0.367804	-0.319608	1.106378
C487	C	-0.148726	-0.876130	0.645329
C488	C	0.351274	-0.376130	1.145329
H489	H	-0.197664	-0.867027	0.645893
H490	H	0.302336	-0.367027	1.145893
H491	H	-0.151114	-0.890344	0.696500
H492	H	0.348886	-0.390344	1.196500
H493	H	-0.110770	-0.916724	0.625091
H494	H	0.389230	-0.416724	1.125091
O495	O	-0.265136	-0.775101	0.650383
O496	O	0.234864	-0.275101	1.150383
C497	C	-0.304140	-0.809000	0.666583
C498	C	0.195860	-0.309000	1.166583
H499	H	-0.314158	-0.796826	0.622085
H500	H	0.185842	-0.296826	1.122085
H501	H	-0.351599	-0.794599	0.705628
H502	H	0.148401	-0.294599	1.205628
H503	H	-0.278205	-0.862984	0.685138
H504	H	0.221795	-0.362984	1.185138
H505	H	-0.137077	-0.713589	0.399501
H506	H	0.362923	-0.213589	0.899501
H507	H	-0.129033	-0.870764	0.537213
H508	H	0.370967	-0.370764	1.037213
