data_functionalizedCrystal
_audit_creation_method	'MofGen! by Chris Wilmer'
_symmetry_space_group_name_H-M	'P1'
_symmetry_Int_Tables_number	1
_symmetry_cell_setting	triclinic
loop_
_symmetry_equiv_pos_as_xyz
  x,y,z
_cell_length_a	18.215407
_cell_length_b	12.645330
_cell_length_c	12.645323
_cell_angle_alpha	89.975130
_cell_angle_beta	89.977371
_cell_angle_gamma	90.018140
loop_
_atom_site_label
_atom_site_type_symbol
_atom_site_fract_x
_atom_site_fract_y
_atom_site_fract_z
Zn1	Zn	1.125129	-0.422018	-0.599445
Zn2	Zn	1.458462	-0.088685	-0.266112
Zn3	Zn	1.791796	0.244648	0.067222
Zn4	Zn	1.125047	-0.599306	-0.422185
Zn5	Zn	1.458380	-0.265973	-0.088852
Zn6	Zn	1.791714	0.067360	0.244482
Zn7	Zn	1.002056	-0.422059	-0.422189
Zn8	Zn	1.335389	-0.088725	-0.088856
Zn9	Zn	1.668722	0.244608	0.244477
Zn10	Zn	1.002043	-0.599242	-0.599401
Zn11	Zn	1.335376	-0.265908	-0.266067
Zn12	Zn	1.668710	0.067425	0.067266
O13	O	1.063569	-0.510656	-0.510805
O14	O	1.396902	-0.177323	-0.177472
O15	O	1.730235	0.156010	0.155862
O16	O	1.228102	-0.445546	-0.575948
O17	O	1.561436	-0.112213	-0.242614
O18	O	1.894769	0.221121	0.090719
O19	O	1.108703	-0.575838	-0.273838
O20	O	1.442036	-0.242505	0.059495
O21	O	1.775369	0.090829	0.392828
O22	O	1.018421	-0.273706	-0.445723
O23	O	1.351755	0.059627	-0.112390
O24	O	1.685088	0.392961	0.220943
O25	O	1.228042	-0.575799	-0.445716
O26	O	1.561375	-0.242465	-0.112382
O27	O	1.894709	0.090868	0.220951
O28	O	1.108843	-0.273676	-0.575952
O29	O	1.442176	0.059657	-0.242619
O30	O	1.775509	0.392990	0.090715
O31	O	1.018342	-0.445615	-0.273842
O32	O	1.351675	-0.112282	0.059492
O33	O	1.685008	0.221052	0.392825
O34	O	0.899070	-0.445552	-0.445680
O35	O	1.232403	-0.112219	-0.112347
O36	O	1.565736	0.221114	0.220986
O37	O	1.018400	-0.575689	-0.747754
O38	O	1.351733	-0.242355	-0.414420
O39	O	1.685066	0.090978	-0.081087
O40	O	0.899060	-0.575728	-0.575876
O41	O	1.232394	-0.242394	-0.242543
O42	O	1.565727	0.090939	0.090790
O43	O	1.108830	-0.445483	-0.747786
O44	O	1.442164	-0.112150	-0.414453
O45	O	1.775497	0.221183	-0.081120
O46	O	1.108690	-0.747645	-0.445673
O47	O	1.442024	-0.414312	-0.112339
O48	O	1.775357	-0.080978	0.220994
O49	O	1.018320	-0.747597	-0.575872
O50	O	1.351653	-0.414264	-0.242539
O51	O	1.684987	-0.080931	0.090795
C52	C	0.872362	-0.510638	-0.510775
C53	C	1.205696	-0.177305	-0.177441
C54	C	1.539029	0.156029	0.155892
C55	C	0.790563	-0.510656	-0.510787
C56	C	1.123897	-0.177322	-0.177453
C57	C	1.457230	0.156011	0.155880
C58	C	1.063515	-0.786086	-0.510790
C59	C	1.396848	-0.452753	-0.177457
C60	C	1.730182	-0.119419	0.155876
C61	C	1.063559	-0.903916	-0.510819
C62	C	1.396893	-0.570583	-0.177486
C63	C	1.730226	-0.237249	0.155847
C64	C	0.602384	-0.578545	-0.578495
C65	C	0.935717	-0.245211	-0.245162
C66	C	1.269051	0.088122	0.088172
C67	C	0.525525	-0.578548	-0.578508
C68	C	0.858859	-0.245215	-0.245175
C69	C	1.192192	0.088119	0.088159
C70	C	0.525505	-0.442787	-0.443138
C71	C	0.858839	-0.109453	-0.109805
C72	C	1.192172	0.223880	0.223528
C73	C	0.602363	-0.442779	-0.443131
C74	C	0.935696	-0.109446	-0.109798
C75	C	1.269029	0.223888	0.223535
C76	C	0.640800	-0.510664	-0.510808
C77	C	0.974133	-0.177331	-0.177475
C78	C	1.307467	0.156003	0.155859
C79	C	0.487084	-0.510675	-0.510828
C80	C	0.820417	-0.177342	-0.177495
C81	C	1.153751	0.155992	0.155838
C82	C	0.403750	-0.510678	-0.510842
C83	C	0.737084	-0.177345	-0.177509
C84	C	1.070417	0.155988	0.155825
C85	C	0.724139	-0.510660	-0.510796
C86	C	1.057472	-0.177326	-0.177462
C87	C	1.390806	0.156007	0.155871
C88	C	1.006942	-1.071494	-0.592980
C89	C	1.340275	-0.738161	-0.259647
C90	C	1.673608	-0.404827	0.073686
C91	C	1.006652	-0.948935	-0.592716
C92	C	1.339985	-0.615601	-0.259383
C93	C	1.673319	-0.282268	0.073950
C94	C	1.042563	-0.948510	-0.399097
C95	C	1.375896	-0.615177	-0.065764
C96	C	1.709229	-0.281844	0.267569
C97	C	1.042217	-1.071109	-0.399596
C98	C	1.375550	-0.737775	-0.066263
C99	C	1.708884	-0.404442	0.267071
C100	C	1.141520	-1.071004	-0.539474
C101	C	1.474853	-0.737671	-0.206141
C102	C	1.808187	-0.404338	0.127193
C103	C	1.141042	-0.948398	-0.541917
C104	C	1.474376	-0.615064	-0.208584
C105	C	1.807709	-0.281731	0.124750
C106	C	1.255522	-0.510675	-0.510836
C107	C	1.588855	-0.177342	-0.177503
C108	C	1.922188	0.155992	0.155831
C109	C	1.337320	-0.510683	-0.510849
C110	C	1.670654	-0.177350	-0.177516
C111	C	2.003987	0.155983	0.155817
C112	C	1.063623	-0.510574	-0.787310
C113	C	1.396956	-0.177241	-0.453977
C114	C	1.730289	0.156092	-0.120644
C115	C	1.063646	-0.510539	-0.905141
C116	C	1.396979	-0.177206	-0.571807
C117	C	1.730313	0.156127	-0.238474
C118	C	1.063643	-0.234151	-0.510843
C119	C	1.396976	0.099182	-0.177510
C120	C	1.730309	0.432516	0.155824
C121	C	1.063674	-0.116321	-0.510859
C122	C	1.397007	0.217013	-0.177526
C123	C	1.730341	0.550346	0.155807
C124	C	1.006580	-0.592065	-1.072684
C125	C	1.339914	-0.258732	-0.739351
C126	C	1.673247	0.074601	-0.406017
C127	C	1.006730	-0.592469	-0.950124
C128	C	1.340063	-0.259136	-0.616791
C129	C	1.673396	0.074198	-0.283458
C130	C	1.141189	-0.540857	-0.949660
C131	C	1.474522	-0.207524	-0.616327
C132	C	1.807856	0.125810	-0.282994
C133	C	1.140876	-0.541368	-1.072259
C134	C	1.474209	-0.208035	-0.738925
C135	C	1.807543	0.125298	-0.405592
C136	C	1.043902	-0.398240	-1.072338
C137	C	1.377235	-0.064906	-0.739005
C138	C	1.710568	0.268427	-0.405672
C139	C	1.042172	-0.398913	-0.949732
C140	C	1.375505	-0.065579	-0.616399
C141	C	1.708838	0.267754	-0.283065
C142	C	1.063557	-0.510661	-0.235375
C143	C	1.396890	-0.177328	0.097958
C144	C	1.730224	0.156005	0.431291
C145	C	1.063676	-0.510398	-0.117546
C146	C	1.397010	-0.177064	0.215788
C147	C	1.730343	0.156269	0.549121
H148	H	0.633677	-0.633818	-0.633604
H149	H	0.967011	-0.300485	-0.300271
H150	H	1.300344	0.032848	0.033062
H151	H	0.949229	-0.573497	-0.920022
H152	H	1.282562	-0.240164	-0.586689
H153	H	1.615896	0.093169	-0.253356
Cl154	Cl	0.477179	-0.357453	-0.358061
Cl155	Cl	0.810512	-0.024120	-0.024728
Cl156	Cl	1.143846	0.309214	0.308605
Cl157	Cl	0.955618	-0.901259	-0.360994
Cl158	Cl	1.288951	-0.567926	-0.027660
Cl159	Cl	1.622285	-0.234593	0.305673
Cl160	Cl	0.958119	-0.355574	-1.120046
Cl161	Cl	1.291453	-0.022240	-0.786712
Cl162	Cl	1.624786	0.311093	-0.453379
H163	H	0.494250	-0.633822	-0.633627
H164	H	0.827584	-0.300489	-0.300294
H165	H	1.160917	0.032845	0.033040
H166	H	1.080720	-0.334849	-0.919111
H167	H	1.414053	-0.001515	-0.585777
H168	H	1.747386	0.331818	-0.252444
H169	H	1.082574	-0.919351	-0.336239
H170	H	1.415907	-0.586018	-0.002905
H171	H	1.749240	-0.252685	0.330428
H172	H	1.158238	-0.621987	-0.918972
H173	H	1.491571	-0.288654	-0.585638
H174	H	1.824904	0.044679	-0.252305
H175	H	0.633642	-0.387496	-0.388012
H176	H	0.966975	-0.054162	-0.054679
H177	H	1.300308	0.279171	0.278654
Cl178	Cl	1.026931	-0.902374	-0.720618
Cl179	Cl	1.360264	-0.569041	-0.387284
Cl180	Cl	1.693597	-0.235707	-0.053951
Cl181	Cl	1.026494	-0.719623	-1.120342
Cl182	Cl	1.359827	-0.386290	-0.787009
Cl183	Cl	1.693161	-0.052956	-0.453676
Cl184	Cl	1.027032	-1.116907	-0.721305
Cl185	Cl	1.360365	-0.783574	-0.387971
Cl186	Cl	1.693699	-0.450241	-0.054638
Cl187	Cl	0.918398	-1.119225	-0.564109
Cl188	Cl	1.251732	-0.785892	-0.230776
Cl189	Cl	1.585065	-0.452559	0.102558
H190	H	0.948941	-0.919701	-0.573759
H191	H	1.282274	-0.586367	-0.240425
H192	H	1.615607	-0.253034	0.092908
H193	H	1.183787	-1.099992	-0.479662
H194	H	1.517120	-0.766659	-0.146329
H195	H	1.850454	-0.433325	0.187005
H196	H	1.085488	-0.337394	-1.101352
H197	H	1.418821	-0.004061	-0.768019
H198	H	1.752154	0.329273	-0.434685
Cl199	Cl	0.954359	-1.115412	-0.362172
Cl200	Cl	1.287692	-0.782078	-0.028839
Cl201	Cl	1.621026	-0.448745	0.304494
H202	H	1.160673	-1.101848	-0.619557
H203	H	1.494006	-0.768515	-0.286224
H204	H	1.827340	-0.435181	0.047110
H205	H	0.985107	-0.376049	-0.920633
H206	H	1.318440	-0.042715	-0.587299
H207	H	1.651773	0.290618	-0.253966
H208	H	1.156876	-0.919247	-0.624139
H209	H	1.490210	-0.585914	-0.290805
H210	H	1.823543	-0.252580	0.042528
Cl211	Cl	1.103236	-1.116902	-0.301900
Cl212	Cl	1.436569	-0.783568	0.031434
Cl213	Cl	1.769902	-0.450235	0.364767
H214	H	1.185537	-0.917747	-0.486460
H215	H	1.518870	-0.584413	-0.153127
H216	H	1.852203	-0.251080	0.180207
Cl217	Cl	0.917535	-0.563054	-1.118178
Cl218	Cl	1.250869	-0.229720	-0.784845
Cl219	Cl	1.584202	0.103613	-0.451512
Cl220	Cl	1.026927	-0.720829	-0.904858
Cl221	Cl	1.360260	-0.387496	-0.571524
Cl222	Cl	1.693593	-0.054163	-0.238191
H223	H	1.157638	-0.623358	-1.100869
H224	H	1.490971	-0.290024	-0.767536
H225	H	1.824304	0.043309	-0.434203
H226	H	1.184859	-0.484467	-1.101937
H227	H	1.518193	-0.151134	-0.768604
H228	H	1.851526	0.182199	-0.435270
Cl229	Cl	1.208633	-0.451927	-0.904682
Cl230	Cl	1.541967	-0.118594	-0.571349
Cl231	Cl	1.875300	0.214740	-0.238015
