data_functionalizedCrystal
_audit_creation_method	'MofGen! by Chris Wilmer'
_symmetry_space_group_name_H-M	'P1'
_symmetry_Int_Tables_number	1
_symmetry_cell_setting	triclinic
loop_
_symmetry_equiv_pos_as_xyz
  x,y,z
_cell_length_a	19.288859
_cell_length_b	19.188924
_cell_length_c	18.366186
_cell_angle_alpha	89.991683
_cell_angle_beta	89.990083
_cell_angle_gamma	83.137845
loop_
_atom_site_label
_atom_site_type_symbol
_atom_site_fract_x
_atom_site_fract_y
_atom_site_fract_z
O1	O	0.921360	0.087079	-0.060567
O2	O	0.719099	0.098833	-0.060566
O3	O	0.826069	-0.008701	-0.060558
O4	O	0.814390	0.194612	-0.060575
O5	O	0.826051	-0.008706	0.060541
O6	O	0.719081	0.098828	0.060533
O7	O	0.921342	0.087074	0.060532
Zn8	Zn	0.820208	0.092950	0.079760
Zn9	Zn	0.820232	0.092957	-0.079794
O10	O	0.814372	0.194607	0.060524
C11	C	0.693214	0.098453	-0.000016
C12	C	0.616110	0.097320	-0.000015
C13	C	0.052072	0.152750	-0.000021
C14	C	0.124518	0.153821	-0.000025
C15	C	0.169222	0.090725	-0.000018
C16	C	0.141474	0.026553	-0.000026
C17	C	0.069028	0.025484	-0.000030
C18	C	0.290483	0.043667	0.042415
C19	C	0.362927	0.044738	0.042423
C20	C	0.392668	0.094019	-0.000011
C21	C	0.349954	0.142241	-0.042443
C22	C	0.277509	0.141172	-0.042447
C23	C	0.247778	0.091877	-0.000015
C24	C	0.498963	0.159348	-0.000012
C25	C	0.571411	0.160416	-0.000021
C26	C	0.588365	0.033147	-0.000015
C27	C	0.515918	0.032081	-0.000014
C28	C	0.471221	0.095183	-0.000009
C29	C	0.825682	-0.034714	-0.000008
C30	C	0.824549	-0.112219	-0.000006
C31	C	0.824031	-0.148615	-0.066017
C32	C	0.822956	-0.221438	-0.066023
C33	C	0.822415	-0.257863	-0.000013
C34	C	0.822930	-0.221458	0.066007
C35	C	0.823997	-0.148636	0.066011
N36	N	0.860259	-0.377532	0.049116
N37	N	0.859246	-0.446711	0.049108
C38	C	0.819197	-0.477272	-0.000020
N39	N	0.780208	-0.436043	-0.049151
N40	N	0.781224	-0.366859	-0.049145
C41	C	0.821257	-0.336827	-0.000010
C42	C	0.817513	-0.592631	-0.066042
C43	C	0.816434	-0.665454	-0.066045
C44	C	0.816415	-0.665474	0.065987
C45	C	0.817486	-0.592651	0.065988
C46	C	0.818039	-0.556234	-0.000029
C47	C	0.947227	0.087454	-0.000019
C48	C	1.024331	0.088587	-0.000025
C49	C	0.814758	0.220621	-0.000028
C50	C	0.815891	0.298126	-0.000034
N51	N	0.820197	0.092945	0.188651
N52	N	0.820249	0.092956	-0.188685
C53	C	0.867579	0.045352	0.226755
C54	C	0.867583	0.045349	0.302983
C55	C	0.820213	0.092950	0.341104
C56	C	0.772822	0.140547	0.302991
C57	C	0.772814	0.140544	0.226764
C58	C	0.810918	0.156568	0.461859
C59	C	0.810930	0.156571	0.538084
C60	C	0.820232	0.092959	0.576211
C61	C	0.829537	0.029340	0.538105
C62	C	0.829529	0.029337	0.461878
C63	C	0.820215	0.092959	0.423758
C64	C	0.867621	0.045359	0.696970
C65	C	0.867621	0.045355	0.773199
C66	C	0.772863	0.140559	0.773206
C67	C	0.772860	0.140557	0.696978
C68	C	0.820243	0.092958	0.658865
H69	H	0.493332	-0.020168	-0.000013
C70	C	0.824572	-0.108600	0.138632
N71	N	0.825007	-0.078444	0.193331
C72	C	0.449793	0.228761	-0.000021
N73	N	0.412761	0.281044	-0.000030
H74	H	0.734291	0.179314	0.804243
C75	C	0.815898	-0.705494	-0.138667
N76	N	0.815509	-0.735655	-0.193367
H77	H	0.815968	-0.695130	0.119733
H78	H	0.837103	-0.022463	0.430855
C79	C	0.818064	-0.552615	0.138607
N80	N	0.818499	-0.522460	0.193307
C81	C	0.839768	-0.040639	0.580039
N82	N	0.847475	-0.093346	0.611627
C83	C	0.824632	-0.108560	-0.138638
N84	N	0.825082	-0.078389	-0.193336
C85	C	0.155040	0.224408	-0.000016
N86	N	0.178027	0.277574	-0.000006
C87	C	0.720719	0.192932	0.184849
N88	N	0.681491	0.232403	0.153277
H89	H	0.374167	0.182372	-0.076995
C90	C	0.919736	-0.007015	0.815113
N91	N	0.958986	-0.046465	0.846684
H92	H	0.906168	0.006592	0.334013
C93	C	0.919736	-0.007007	0.655043
N94	N	0.958989	-0.046450	0.623465
H95	H	0.734280	0.179314	0.665952
H96	H	0.803331	0.208372	0.430822
H97	H	0.803358	0.208374	0.569104
C98	C	0.919695	-0.007015	0.184835
N99	N	0.958947	-0.046461	0.153259
H100	H	0.242735	0.180434	-0.076998
C101	C	0.720711	0.192905	0.344925
N102	N	0.681457	0.232341	0.376510
C103	C	0.601924	0.231004	-0.000013
N104	N	0.624907	0.284173	-0.000005
C105	C	0.818110	-0.552568	-0.138661
N106	N	0.818557	-0.522395	-0.193358
C107	C	0.822381	-0.261481	-0.138643
N108	N	0.821947	-0.291639	-0.193341
H109	H	0.822487	-0.251120	0.119753
C110	C	0.409905	-0.008305	0.089101
N111	N	0.445287	-0.048259	0.124259
C112	C	0.002909	0.222165	-0.000012
N113	N	-0.034122	0.274449	-0.000003
H114	H	0.266276	0.003532	0.076971
C115	C	0.190649	-0.042852	-0.000015
N116	N	0.227688	-0.095131	-0.000006
C117	C	0.038513	-0.045103	-0.000025
N118	N	0.015529	-0.098271	-0.000018
C119	C	0.637535	-0.036260	-0.000010
N120	N	0.674574	-0.088538	-0.000007
