data_functionalizedCrystal
_audit_creation_method	'MofGen! by Chris Wilmer'
_symmetry_space_group_name_H-M	'P1'
_symmetry_Int_Tables_number	1
_symmetry_cell_setting	triclinic
loop_
_symmetry_equiv_pos_as_xyz
  x,y,z
_cell_length_a	13.032831
_cell_length_b	12.759394
_cell_length_c	13.032268
_cell_angle_alpha	82.850556
_cell_angle_beta	89.113023
_cell_angle_gamma	82.819699
loop_
_atom_site_label
_atom_site_type_symbol
_atom_site_fract_x
_atom_site_fract_y
_atom_site_fract_z
Zn1	Zn	1.498516	-0.709531	0.780836
Zn2	Zn	1.520266	-0.866066	0.608856
Zn3	Zn	1.348372	-0.665642	0.587076
Zn4	Zn	1.326514	-0.860386	0.758981
O5	O	1.423417	-0.775406	0.683937
O6	O	1.645323	-0.751041	0.776283
O7	O	1.515714	-0.823489	0.462050
O8	O	1.368334	-0.524452	0.612811
O9	O	1.661303	-0.866047	0.649930
O10	O	1.478644	-0.556698	0.755165
O11	O	1.389424	-0.676238	0.446049
O12	O	1.201551	-0.670730	0.591619
O13	O	1.331080	-0.856365	0.905797
O14	O	1.185492	-0.813807	0.717916
O15	O	1.457449	-0.745533	0.921853
O16	O	1.494519	-1.012324	0.628738
O17	O	1.352170	-1.008150	0.739035
C18	C	1.156204	-0.736890	0.650033
C19	C	1.041886	-0.720441	0.635554
C20	C	0.983013	-0.783991	0.691494
C21	C	0.864859	-0.766992	0.676530
C22	C	1.423358	-1.048362	0.683904
C23	C	1.423423	-1.165151	0.683937
C24	C	1.571737	-1.169469	0.569196
C25	C	1.645919	-1.226494	0.511841
C26	C	1.645976	-1.336227	0.511877
C27	C	1.571844	-1.388938	0.569276
C28	C	1.497662	-1.331913	0.626631
C29	C	1.497612	-1.222177	0.626586
C30	C	1.349354	-1.327597	0.741376
C31	C	1.349291	-1.217862	0.741336
C32	C	1.275223	-1.380309	0.798775
C33	C	1.201034	-1.323282	0.856125
C34	C	1.200980	-1.213542	0.856086
C35	C	1.275109	-1.160838	0.798690
C36	C	1.691673	-0.814073	0.717974
C37	C	1.805988	-0.830551	0.732478
C38	C	1.389400	-0.805211	0.952184
C39	C	1.374904	-0.817912	1.066495
C40	C	1.423501	-0.501391	0.683996
C41	C	1.423537	-0.384622	0.684021
C42	C	1.457360	-0.745650	0.416741
C43	C	1.472056	-0.732682	0.302456
C44	C	1.430966	-0.768737	1.125403
C45	C	1.415986	-0.781863	1.243550
H46	H	1.004816	-0.653444	0.576587
C47	C	1.726284	-1.169062	0.449548
C48	C	1.710345	-1.060751	0.461765
C49	C	1.784349	-1.007815	0.404388
H50	H	1.793521	-1.198485	0.473359
H51	H	1.720045	-1.177187	0.378516
H52	H	1.716593	-1.052633	0.532782
H53	H	1.643123	-1.031298	0.437948
H54	H	1.778110	-1.015941	0.333356
H55	H	1.851581	-1.037247	0.428204
H56	H	1.773539	-0.934320	0.412661
C57	C	1.120323	-1.151812	0.918390
C58	C	1.055409	-1.221462	0.968642
C59	C	0.981088	-1.164637	1.026037
H60	H	1.153803	-1.119586	0.968275
H61	H	1.080446	-1.098251	0.873340
H62	H	1.095280	-1.275004	1.013688
H63	H	1.021904	-1.253690	0.918781
H64	H	0.941211	-1.111076	0.980988
H65	H	1.014577	-1.132414	1.075917
H66	H	0.937029	-1.211884	1.060133
C67	C	1.274848	-1.041683	0.798737
C68	C	1.194003	-1.003016	0.861230
C69	C	1.193727	-0.893254	0.861285
H70	H	1.338866	-1.028203	0.825005
H71	H	1.265461	-1.006933	0.730108
H72	H	1.203398	-1.037754	0.929845
H73	H	1.129972	-1.016468	0.834977
H74	H	1.184340	-0.858504	0.792656
H75	H	1.257749	-0.879784	0.887552
H76	H	1.138869	-0.867002	0.903678
C77	C	1.726569	-1.397950	0.449500
C78	C	1.791465	-1.328304	0.399207
C79	C	1.865709	-1.385123	0.341726
H80	H	1.766483	-1.451534	0.494469
H81	H	1.692992	-1.430138	0.399638
H82	H	1.825040	-1.296133	0.449063
H83	H	1.751581	-1.274719	0.354221
H84	H	1.832132	-1.417311	0.291864
H85	H	1.905615	-1.438705	0.386702
H86	H	1.909744	-1.337875	0.307588
C87	C	0.855519	-0.919742	0.811197
C88	C	0.908865	-0.876508	0.884960
C89	C	0.954515	-0.958636	0.957483
H90	H	0.803364	-0.957457	0.844464
H91	H	0.902473	-0.967058	0.777086
H92	H	0.861915	-0.829210	0.919068
H93	H	0.961036	-0.838800	0.851724
H94	H	1.001469	-1.005952	0.923372
H95	H	0.902354	-0.996346	0.990742
H96	H	0.990724	-0.929314	1.007534
H97	H	1.490050	-0.716915	1.088369
C98	C	1.337285	-0.850965	1.293114
C99	C	1.338099	-0.850279	1.400447
C100	C	1.265628	-0.913935	1.446143
H101	H	1.270337	-0.823774	1.266916
H102	H	1.354533	-0.921815	1.277515
H103	H	1.320844	-0.779444	1.416039
H104	H	1.405029	-0.877479	1.426675
H105	H	1.282877	-0.984785	1.430543
H106	H	1.198685	-0.886738	1.419936
H107	H	1.266177	-0.913486	1.518973
C108	C	1.550814	-0.663645	1.252901
C109	C	1.550029	-0.664361	1.145571
C110	C	1.622565	-0.600778	1.099887
H111	H	1.533634	-0.592785	1.268456
H112	H	1.617740	-0.690905	1.279153
H113	H	1.483117	-0.637096	1.119328
H114	H	1.567220	-0.735204	1.129986
H115	H	1.689491	-0.628038	1.126139
H116	H	1.605379	-0.529922	1.115449
H117	H	1.622049	-0.601263	1.027060
C118	C	1.296191	-0.887175	1.115738
C119	C	1.321822	-0.991466	1.092478
C120	C	1.249326	-1.055299	1.137807
H121	H	1.296524	-0.886951	1.188592
H122	H	1.229288	-0.859963	1.089393
H123	H	1.388707	-1.018671	1.118828
H124	H	1.321481	-0.991723	1.019633
H125	H	1.182423	-1.028087	1.111462
H126	H	1.249664	-1.055066	1.210659
H127	H	1.266701	-1.126065	1.122024
H128	H	1.571687	-1.080115	0.569147
H129	H	0.827794	-0.699990	0.617559
C130	C	1.572050	-1.508075	0.569150
C131	C	1.652870	-1.546730	0.506623
C132	C	1.653082	-1.656471	0.506473
H133	H	1.581425	-1.542909	0.637734
H134	H	1.507993	-1.521461	0.542857
H135	H	1.716912	-1.533353	0.532920
H136	H	1.643513	-1.511926	0.438031
H137	H	1.589025	-1.669857	0.480181
H138	H	1.662454	-1.691295	0.575061
H139	H	1.707911	-1.682711	0.464043
H140	H	1.020082	-0.850981	0.750469
C141	C	1.275368	-1.499486	0.799025
C142	C	1.289165	-1.550377	0.900287
C143	C	1.289316	-1.660164	0.900556
H144	H	1.211311	-1.512978	0.772855
H145	H	1.330188	-1.525950	0.756698
H146	H	1.234349	-1.523922	0.942599
H147	H	1.353220	-1.536915	0.926476
H148	H	1.344136	-1.686628	0.858229
H149	H	1.225257	-1.673645	0.874382
H150	H	1.298686	-1.694708	0.969259
H151	H	1.140686	-1.366210	0.902860
