data_functionalizedCrystal
_audit_creation_method	'MofGen! by Chris Wilmer'
_symmetry_space_group_name_H-M	'P1'
_symmetry_Int_Tables_number	1
_symmetry_cell_setting	triclinic
loop_
_symmetry_equiv_pos_as_xyz
  x,y,z
_cell_length_a	16.994735
_cell_length_b	12.827893
_cell_length_c	12.827892
_cell_angle_alpha	90.015362
_cell_angle_beta	90.028717
_cell_angle_gamma	90.001123
loop_
_atom_site_label
_atom_site_type_symbol
_atom_site_fract_x
_atom_site_fract_y
_atom_site_fract_z
Zn1	Zn	-0.445982	-1.597482	0.415994
Zn2	Zn	-0.314085	-1.597432	0.590768
Zn3	Zn	-0.314095	-1.422779	0.416042
Zn4	Zn	-0.445952	-1.422709	0.590694
O5	O	-0.380028	-1.510101	0.503375
O6	O	-0.428494	-1.743712	0.439190
O7	O	-0.203705	-1.574272	0.567642
O8	O	-0.331607	-1.446004	0.269800
O9	O	-0.331590	-1.743675	0.567596
O10	O	-0.428503	-1.574358	0.269765
O11	O	-0.203713	-1.445955	0.439271
O12	O	-0.331578	-1.276534	0.439199
O13	O	-0.556337	-1.445885	0.567469
O14	O	-0.428452	-1.276482	0.567515
O15	O	-0.556359	-1.574290	0.439118
O16	O	-0.331561	-1.574204	0.736995
O17	O	-0.428442	-1.445836	0.736940
C18	C	-0.380013	-1.238591	0.503355
C19	C	-0.380026	-1.122438	0.503371
C20	C	-0.675089	-1.510101	0.503251
C21	C	-0.585767	-1.510092	0.503289
Zn22	Zn	-0.945918	-1.597031	0.591107
Zn23	Zn	-0.814133	-1.422200	0.589894
Zn24	Zn	-0.814049	-1.598244	0.416476
Zn25	Zn	-0.946016	-1.423660	0.415109
O26	O	-0.880029	-1.510284	0.503147
O27	O	-0.928430	-1.572721	0.737178
O28	O	-0.703740	-1.445449	0.566955
O29	O	-0.831466	-1.744315	0.440721
O30	O	-0.831608	-1.444273	0.736287
O31	O	-0.928349	-1.743424	0.569022
O32	O	-0.703679	-1.574788	0.439545
O33	O	-0.831561	-1.576204	0.270063
O34	O	-1.056384	-1.446762	0.438391
O35	O	-0.928516	-1.447938	0.269058
O36	O	-1.056312	-1.574137	0.567696
O37	O	-0.831703	-1.276162	0.565629
O38	O	-0.928597	-1.277235	0.437215
C39	C	-0.175089	-1.510173	0.503386
C40	C	-0.085767	-1.510387	0.503127
C41	C	-0.380015	-1.510035	0.774885
C42	C	-0.380035	-1.510103	0.891038
C43	C	-0.380044	-1.782671	0.503396
C44	C	-0.380051	-1.898824	0.503405
C45	C	-0.427888	-1.070655	0.566965
C46	C	-0.427902	-0.950605	0.566984
C47	C	-0.380060	-1.510195	0.230805
C48	C	-0.380073	-1.510235	0.114651
C49	C	-0.332148	-1.573699	0.942815
C50	C	-0.332168	-1.573770	1.062865
C51	C	-0.879744	-1.511969	0.231645
C52	C	-0.878885	-1.511665	0.115499
C53	C	-0.880168	-1.238782	0.501145
C54	C	-0.880204	-1.122632	0.500319
C55	C	-0.879865	-1.508401	0.775710
C56	C	-0.879404	-1.508115	0.891861
C57	C	-0.879887	-1.782846	0.505159
C58	C	-0.879827	-1.898996	0.506017
C59	C	-0.926400	-1.447968	0.063247
C60	C	-0.925514	-1.447652	-0.056797
C61	C	-0.832318	-1.070352	0.563539
C62	C	-0.832355	-0.950305	0.562687
H63	H	-0.468858	-1.115199	0.621393
H64	H	-0.966188	-1.393113	-0.101729
O65	O	-0.929262	-1.070059	0.435103
C66	C	-1.007900	-1.096551	0.457957
H67	H	-1.011942	-1.126012	0.541617
H68	H	-1.046838	-1.024815	0.448447
H69	H	-1.028510	-1.160247	0.402287
O70	O	-0.476765	-0.897326	0.631842
C71	C	-0.465891	-0.789324	0.617434
H72	H	-0.440152	-0.774525	0.536736
H73	H	-0.524942	-0.747781	0.624585
H74	H	-0.423789	-0.758333	0.679331
H75	H	-0.339069	-0.943349	0.448960
O76	O	-0.331037	-1.069428	0.438482
C77	C	-0.252371	-1.095988	0.461192
H78	H	-0.250628	-1.175256	0.501282
H79	H	-0.217093	-1.099620	0.385716
H80	H	-0.225783	-1.034569	0.514940
O81	O	-0.829485	-1.576299	0.062809
C82	C	-0.778097	-1.516635	0.000521
H83	H	-0.773396	-1.434452	0.033782
H84	H	-0.717409	-1.554490	-0.000109
H85	H	-0.801929	-1.512718	-0.082476
H86	H	-0.421051	-1.455713	0.935586
O87	O	-0.783352	-1.122809	0.628968
C88	C	-0.738821	-1.050891	0.687566
H89	H	-0.771099	-0.973051	0.690644
H90	H	-0.730469	-1.081894	0.770112
H91	H	-0.678885	-1.039575	0.649331
O92	O	-0.283154	-1.638619	1.115947
C93	C	-0.204493	-1.615918	1.089450
H94	H	-0.200412	-1.532454	1.059442
H95	H	-0.165605	-1.624940	1.161321
H96	H	-0.183853	-1.672003	1.026163
O97	O	-0.828827	-1.576288	-0.054486
C98	C	-0.874304	-1.643822	0.007835
H99	H	-0.936168	-1.650102	-0.025984
H100	H	-0.845865	-1.724295	0.009302
H101	H	-0.877654	-1.611681	0.090579
O102	O	-0.975755	-1.383330	0.116007
C103	C	-1.027171	-1.442996	0.178252
H104	H	-0.999511	-1.522279	0.194642
H105	H	-1.038229	-1.400693	0.255025
H106	H	-1.085349	-1.454263	0.135424
O107	O	-0.783518	-0.896519	0.627226
C108	C	-0.794418	-0.788633	0.611995
H109	H	-0.855285	-0.774118	0.577548
H110	H	-0.789155	-0.746499	0.689945
H111	H	-0.747627	-0.758042	0.556179
O112	O	-0.429099	-1.445327	1.061660
C113	C	-0.507753	-1.468088	1.088139
H114	H	-0.509482	-1.508232	1.167378
H115	H	-0.543078	-1.392629	1.091791
H116	H	-0.534302	-1.521806	1.026661
H117	H	-0.921269	-0.943975	0.444598
H118	H	-0.291138	-1.628098	0.898269
