data_functionalizedCrystal
_audit_creation_method	'MofGen! by Chris Wilmer'
_symmetry_space_group_name_H-M	'P1'
_symmetry_Int_Tables_number	1
_symmetry_cell_setting	triclinic
loop_
_symmetry_equiv_pos_as_xyz
  x,y,z
_cell_length_a	16.109301
_cell_length_b	13.596369
_cell_length_c	16.109301
_cell_angle_alpha	90.001433
_cell_angle_beta	96.538519
_cell_angle_gamma	89.996453
loop_
_atom_site_label
_atom_site_type_symbol
_atom_site_fract_x
_atom_site_fract_y
_atom_site_fract_z
O1	O	1.103135	-0.081732	-0.106861
O2	O	1.603135	0.418268	0.393139
O3	O	0.861073	-0.081748	-0.120160
O4	O	1.361073	0.418252	0.379840
O5	O	0.988753	-0.081730	0.007520
O6	O	1.488753	0.418270	0.507520
O7	O	0.975454	-0.081751	-0.234542
O8	O	1.475454	0.418249	0.265458
O9	O	0.988737	0.081853	0.007512
O10	O	1.488737	0.581853	0.507512
O11	O	0.861056	0.081835	-0.120169
O12	O	1.361056	0.581835	0.379831
O13	O	1.103118	0.081851	-0.106869
O14	O	1.603118	0.581851	0.393131
Zn15	Zn	0.982084	0.107815	-0.113520
Zn16	Zn	1.482084	0.607815	0.386480
Zn17	Zn	0.982106	-0.107713	-0.113509
Zn18	Zn	1.482106	0.392287	0.386491
O19	O	0.975437	0.081832	-0.234550
O20	O	1.475437	0.581832	0.265450
C21	C	0.830090	0.000041	-0.119626
C22	C	1.330090	0.500041	0.380374
C23	C	0.737794	0.000035	-0.118011
C24	C	1.237794	0.500035	0.381989
N25	N	0.982075	0.254907	-0.113527
N26	N	1.482075	0.754907	0.386473
C27	C	0.515522	0.000041	-0.190018
C28	C	1.015522	0.500041	0.309982
C29	C	0.428801	0.000047	-0.188494
C30	C	0.928801	0.500047	0.311506
C31	C	0.448676	0.000056	-0.037006
C32	C	0.948676	0.500056	0.462994
C33	C	0.535394	0.000057	-0.038530
C34	C	1.035394	0.500057	0.461470
C35	C	0.568815	0.000044	-0.115039
C36	C	1.068815	0.500044	0.384961
C37	C	0.395376	0.000050	-0.111990
C38	C	0.895376	0.500050	0.388010
C39	C	0.301350	0.000057	-0.110337
C40	C	0.801350	0.500057	0.389663
C41	C	0.662847	0.000039	-0.116693
C42	C	1.162847	0.500039	0.383307
C43	C	0.982079	0.343905	-0.113529
C44	C	1.482079	0.843905	0.386471
C45	C	0.982087	0.455556	-0.113524
C46	C	1.482087	0.955556	0.386476
C47	C	0.982097	0.544546	-0.113515
C48	C	1.482097	1.044546	0.386485
C49	C	0.982106	0.656205	-0.113511
C50	C	1.482106	1.156205	0.386489
C51	C	1.134101	0.000059	-0.107404
C52	C	1.634101	0.500059	0.392596
C53	C	1.226397	0.000058	-0.109019
C54	C	1.726397	0.500058	0.390981
C55	C	0.988206	0.000062	0.038491
C56	C	1.488206	0.500062	0.538491
C57	C	0.986591	0.000063	0.130786
C58	C	1.486591	0.500063	0.630786
N59	N	0.982116	0.745195	-0.113502
N60	N	1.482116	1.245195	0.386498
C61	C	0.975984	0.000038	-0.265521
C62	C	1.475984	0.500038	0.234479
C63	C	0.977600	0.000030	-0.357816
C64	C	1.477600	0.500030	0.142184
C65	C	1.058599	0.000052	0.353059
C66	C	1.558599	0.500052	0.853059
C67	C	1.057075	0.000044	0.439779
C68	C	1.557075	0.500044	0.939779
C69	C	0.905586	0.000038	0.419905
C70	C	1.405586	0.500038	0.919905
C71	C	0.907111	0.000039	0.333186
C72	C	1.407111	0.500039	0.833186
C73	C	0.983620	0.000051	0.299766
C74	C	1.483620	0.500051	0.799766
C75	C	0.980571	0.000042	0.473205
C76	C	1.480571	0.500042	0.973205
C77	C	0.978918	0.000033	0.567231
C78	C	1.478918	0.500033	1.067231
C79	C	0.985273	0.000058	0.205734
C80	C	1.485273	0.500058	0.705734
H81	H	0.542730	0.000038	-0.252317
H82	H	1.042730	0.500038	0.247683
H83	H	0.385413	0.000046	-0.249550
H84	H	0.885413	0.500046	0.250450
F85	F	0.413100	0.000065	0.044416
F86	F	0.913100	0.500065	0.544416
F87	F	0.592117	0.000067	0.041277
F88	F	1.092117	0.500067	0.541277
H89	H	0.843295	0.000030	0.447127
H90	H	1.343295	0.500030	0.947127
H91	H	1.120897	0.000060	0.325851
H92	H	1.620897	0.500060	0.825851
H93	H	0.846050	0.000036	0.289792
H94	H	1.346050	0.500036	0.789792
H95	H	1.118130	0.000043	0.483168
H96	H	1.618130	0.500043	0.983168
