data_functionalizedCrystal
_audit_creation_method	'MofGen! by Chris Wilmer'
_symmetry_space_group_name_H-M	'P1'
_symmetry_Int_Tables_number	1
_symmetry_cell_setting	triclinic
loop_
_symmetry_equiv_pos_as_xyz
  x,y,z
_cell_length_a	16.959454
_cell_length_b	15.298073
_cell_length_c	16.959455
_cell_angle_alpha	80.297909
_cell_angle_beta	90.005969
_cell_angle_gamma	80.321429
loop_
_atom_site_label
_atom_site_type_symbol
_atom_site_fract_x
_atom_site_fract_y
_atom_site_fract_z
Zn1	Zn	-0.106073	-1.379191	0.656487
Zn2	Zn	0.393927	-0.879191	1.156487
Zn3	Zn	-0.238228	-1.379125	0.524307
Zn4	Zn	0.261772	-0.879125	1.024307
Zn5	Zn	-0.128888	-1.228351	0.501406
Zn6	Zn	0.371112	-0.728351	1.001406
Zn7	Zn	-0.261054	-1.228288	0.633527
Zn8	Zn	0.238946	-0.728288	1.133527
O9	O	-0.183561	-1.303739	0.578932
O10	O	0.316439	-0.803739	1.078932
O11	O	-0.104503	-1.505436	0.658147
O12	O	0.395497	-1.005436	1.158147
O13	O	-0.223719	-1.359124	0.410658
O14	O	0.276281	-0.859124	0.910658
O15	O	-0.015243	-1.248414	0.522002
O16	O	0.484757	-0.748414	1.022002
O17	O	-0.201596	-1.505387	0.561034
O18	O	0.298404	-1.005387	1.061034
O19	O	0.001519	-1.359236	0.635940
O20	O	0.501519	-0.859236	1.135940
O21	O	-0.143388	-1.248351	0.393833
O22	O	0.356612	-0.748351	0.893833
O23	O	-0.165522	-1.102090	0.499739
O24	O	0.334478	-0.602090	0.999739
O25	O	-0.240501	-1.248307	0.747184
O26	O	0.259499	-0.748307	1.247184
O27	O	-0.262624	-1.102044	0.596807
O28	O	0.237376	-0.602044	1.096807
O29	O	-0.126637	-1.359175	0.764053
O30	O	0.373363	-0.859175	1.264053
O31	O	-0.351875	-1.359063	0.538771
O32	O	0.148125	-0.859063	1.038771
O33	O	-0.368645	-1.248243	0.619014
O34	O	0.131355	-0.748243	1.119014
C35	C	-0.219026	-1.069331	0.543297
C36	C	0.280974	-0.569331	1.043297
C37	C	-0.234217	-0.969050	0.528071
C38	C	0.265783	-0.469050	1.028071
C39	C	-0.075149	-0.686479	0.687717
C40	C	0.424851	-0.186479	1.187717
C41	C	-0.060879	-0.780698	0.702028
C42	C	0.439121	-0.280698	1.202028
C43	C	-0.104212	-0.827790	0.658539
C44	C	0.395788	-0.327790	1.158539
C45	C	-0.161819	-0.780655	0.600739
C46	C	0.338181	-0.280655	1.100739
C47	C	-0.176095	-0.686427	0.586432
C48	C	0.323905	-0.186427	1.086432
C49	C	-0.205157	-0.827739	0.557254
C50	C	0.294843	-0.327739	1.057254
C51	C	-0.262764	-0.780603	0.499454
C52	C	0.237236	-0.280603	0.999454
C53	C	-0.277037	-0.686384	0.485149
C54	C	0.222963	-0.186384	0.985149
C55	C	-0.233704	-0.639292	0.528637
C56	C	0.266296	-0.139292	1.028637
C57	C	-0.190881	-0.921967	0.571561
C58	C	0.309119	-0.421967	1.071561
C59	C	-0.291826	-0.921915	0.470276
C60	C	0.208174	-0.421915	0.970276
C61	C	-0.306097	-0.827696	0.455966
C62	C	0.193903	-0.327696	0.955966
C63	C	-0.388939	-1.303664	0.578907
C64	C	0.111061	-0.803664	1.078907
C65	C	-0.476788	-1.303714	0.578935
C66	C	0.023212	-0.803714	1.078935
C67	C	-0.857009	-1.246119	0.620722
C68	C	-0.357009	-0.746119	1.120722
C69	C	-0.839472	-1.361610	0.537260
C70	C	-0.339472	-0.861610	1.037260
C71	C	-0.756931	-1.361579	0.537248
C72	C	-0.256931	-0.861579	1.037248
C73	C	-0.724425	-1.303816	0.578973
C74	C	-0.224425	-0.803816	1.078973
C75	C	-0.774461	-1.246084	0.620709
C76	C	-0.274461	-0.746084	1.120709
C77	C	-0.706890	-1.419303	0.495506
C78	C	-0.206890	-0.919303	0.995506
C79	C	-0.624343	-1.419273	0.495492
C80	C	-0.124343	-0.919273	0.995492
C81	C	-0.591836	-1.361514	0.537221
C82	C	-0.091836	-0.861514	1.037221
C83	C	-0.641877	-1.303781	0.578960
C84	C	-0.141877	-0.803781	1.078960
C85	C	-0.609372	-1.246017	0.620684
C86	C	-0.109372	-0.746017	1.120684
C87	C	-0.659411	-1.188288	0.662428
C88	C	-0.159411	-0.688288	1.162428
C89	C	-0.741954	-1.188325	0.662439
C90	C	-0.241954	-0.688325	1.162439
C91	C	-0.509293	-1.361477	0.537211
C92	C	-0.009293	-0.861477	1.037211
C93	C	-0.526823	-1.245982	0.620672
C94	C	-0.026823	-0.745982	1.120672
C95	C	0.022622	-1.303840	0.578978
C96	C	0.522622	-0.803840	1.078978
C97	C	0.110485	-1.303882	0.578997
C98	C	0.610485	-0.803882	1.078997
C99	C	-0.183570	-1.303742	0.785100
C100	C	0.316430	-0.803742	1.285100
C101	C	-0.183574	-1.303743	0.872957
C102	C	0.316426	-0.803743	1.372957
C103	C	-0.147951	-0.539063	0.614699
C104	C	0.352049	-0.039063	1.114699
C105	C	-0.132759	-0.639343	0.629922
C106	C	0.367241	-0.139343	1.129922
C107	C	-0.242860	-1.246021	0.905450
C108	C	0.257140	-0.746021	1.405450
C109	C	-0.124287	-1.361461	0.923017
C110	C	0.375713	-0.861461	1.423017
C111	C	-0.124286	-1.361460	1.005563
C112	C	0.375714	-0.861460	1.505563
C113	C	-0.183572	-1.303738	1.038056
C114	C	0.316428	-0.803738	1.538056
C115	C	-0.242859	-1.246016	0.988003
C116	C	0.257141	-0.746016	1.488003
C117	C	-0.064995	-1.419174	1.055621
C118	C	0.435005	-0.919174	1.555621
C119	C	-0.064991	-1.419175	1.138172
C120	C	0.435009	-0.919175	1.638172
C121	C	-0.124281	-1.361457	1.170667
C122	C	0.375719	-0.861457	1.670667
C123	C	-0.183572	-1.303734	1.120609
C124	C	0.316428	-0.803734	1.620609
C125	C	-0.242858	-1.246012	1.153102
C126	C	0.257142	-0.746012	1.653102
C127	C	-0.302152	-1.188292	1.103045
C128	C	0.197848	-0.688292	1.603045
C129	C	-0.302149	-1.188298	1.020498
C130	C	0.197851	-0.688298	1.520498
C131	C	-0.124284	-1.361451	1.253215
C132	C	0.375716	-0.861451	1.753215
C133	C	-0.242857	-1.246007	1.235654
C134	C	0.257143	-0.746007	1.735654
C135	C	-0.183572	-1.303730	1.373564
C136	C	0.316428	-0.803730	1.873564
C137	C	-0.183570	-1.303729	1.285707
C138	C	0.316430	-0.803729	1.785707
H139	H	-0.013978	-0.819068	0.749091
H140	H	0.486022	-0.319068	1.249091
H141	H	-0.782702	-1.141324	0.696423
H142	H	-0.282702	-0.641324	1.196423
H143	H	-0.500363	-1.198948	0.654652
H144	H	-0.000363	-0.698948	1.154652
H145	H	-0.291138	-1.199029	0.864691
H146	H	0.208862	-0.699029	1.364691
H147	H	-0.039879	-0.648127	0.723124
H148	H	0.460121	-0.148127	1.223124
H149	H	-0.245326	-0.562571	0.516994
H150	H	0.254674	-0.062571	1.016994
H151	H	-0.733363	-1.466324	0.461530
H152	H	-0.233363	-0.966324	0.961530
H153	H	-0.468556	-1.408475	0.503219
H154	H	0.031444	-0.908475	1.003219
H155	H	-0.323950	-0.648009	0.438090
H156	H	0.176050	-0.148009	0.938090
H157	H	-0.353001	-0.789305	0.408904
H158	H	0.146999	-0.289305	0.908904
H159	H	-0.350423	-1.141305	0.979735
H160	H	0.149577	-0.641305	1.479735
H161	H	-0.076016	-1.408451	0.896555
H162	H	0.423984	-0.908451	1.396555
H163	H	-0.327116	-0.960258	0.434868
H164	H	0.172884	-0.460258	0.934868
H165	H	-0.143976	-0.960335	0.618622
H166	H	0.356024	-0.460335	1.118622
H167	H	-0.016725	-1.466165	1.029158
H168	H	0.483275	-0.966165	1.529158
H169	H	-0.016711	-1.466175	1.178921
H170	H	0.483289	-0.966175	1.678921
H171	H	-0.092587	-0.904508	0.670192
H172	H	0.407413	-0.404508	1.170192
H173	H	-0.632936	-1.141253	0.696396
H174	H	-0.132936	-0.641253	1.196396
H175	H	-0.897754	-1.199120	0.654711
H176	H	-0.397754	-0.699120	1.154711
H177	H	-0.865944	-1.408633	0.503285
H178	H	-0.365944	-0.908633	1.003285
H179	H	-0.583606	-1.466280	0.461503
H180	H	-0.083606	-0.966280	0.961503
H181	H	-0.291138	-1.199006	1.262104
H182	H	0.208862	-0.699006	1.762104
H183	H	-0.350419	-1.141290	1.129511
H184	H	0.149581	-0.641290	1.629511
H185	H	-0.076002	-1.408438	1.293965
H186	H	0.423998	-0.908438	1.793965
