data_functionalizedCrystal
_audit_creation_method	'MofGen! by Chris Wilmer'
_symmetry_space_group_name_H-M	'P1'
_symmetry_Int_Tables_number	1
_symmetry_cell_setting	triclinic
loop_
_symmetry_equiv_pos_as_xyz
  x,y,z
_cell_length_a	16.959454
_cell_length_b	19.805407
_cell_length_c	19.805399
_cell_angle_alpha	89.980427
_cell_angle_beta	90.017367
_cell_angle_gamma	89.999010
loop_
_atom_site_label
_atom_site_type_symbol
_atom_site_fract_x
_atom_site_fract_y
_atom_site_fract_z
Zn1	Zn	0.314700	1.034855	-0.382768
Zn2	Zn	0.648033	1.368189	-0.049434
Zn3	Zn	0.981366	1.701522	0.283899
Zn4	Zn	0.446882	1.034820	-0.269600
Zn5	Zn	0.780216	1.368154	0.063734
Zn6	Zn	1.113549	1.701487	0.397067
Zn7	Zn	0.314722	0.921670	-0.269592
Zn8	Zn	0.648055	1.255003	0.063741
Zn9	Zn	0.981388	1.588337	0.397074
Zn10	Zn	0.446840	0.921684	-0.382746
Zn11	Zn	0.780174	1.255017	-0.049413
Zn12	Zn	1.113507	1.588350	0.283920
O13	O	0.380786	0.978257	-0.326177
O14	O	0.714119	1.311591	0.007157
O15	O	1.047453	1.644924	0.340490
O16	O	0.332243	1.129567	-0.367768
O17	O	0.665576	1.462901	-0.034434
O18	O	0.998909	1.796234	0.298899
O19	O	0.429378	1.019790	-0.174882
O20	O	0.762711	1.353124	0.158451
O21	O	1.096044	1.686457	0.491785
O22	O	0.204108	0.936693	-0.284611
O23	O	0.537441	1.270026	0.048722
O24	O	0.870775	1.603360	0.382056
O25	O	0.429356	1.129542	-0.284624
O26	O	0.762690	1.462875	0.048710
O27	O	1.096023	1.796208	0.382043
O28	O	0.204092	1.019850	-0.367761
O29	O	0.537425	1.353183	-0.034427
O30	O	0.870758	1.686517	0.298906
O31	O	0.332280	0.936659	-0.174877
O32	O	0.665613	1.269993	0.158457
O33	O	0.998946	1.603326	0.491790
O34	O	0.332239	0.826955	-0.284590
O35	O	0.665572	1.160288	0.048743
O36	O	0.998906	1.493622	0.382076
O37	O	0.429285	0.936716	-0.477466
O38	O	0.762618	1.270050	-0.144133
O39	O	1.095951	1.603383	0.189201
O40	O	0.429306	0.826965	-0.367724
O41	O	0.762639	1.160299	-0.034391
O42	O	1.095973	1.493632	0.298942
O43	O	0.332202	1.019863	-0.477482
O44	O	0.665535	1.353196	-0.144148
O45	O	0.998868	1.686530	0.189185
O46	O	0.557487	1.019804	-0.284603
O47	O	0.890821	1.353137	0.048730
O48	O	1.224154	1.686470	0.382064
O49	O	0.557457	0.936683	-0.367731
O50	O	0.890790	1.270016	-0.034398
O51	O	1.224123	1.603349	0.298935
C52	C	0.380771	0.802401	-0.326155
C53	C	0.714104	1.135735	0.007179
C54	C	1.047437	1.469068	0.340512
C55	C	0.380783	0.727169	-0.326161
C56	C	0.714117	1.060503	0.007172
C57	C	1.047450	1.393836	0.340505
C58	C	0.174618	0.978274	-0.326187
C59	C	0.507951	1.311607	0.007146
C60	C	0.841284	1.644940	0.340479
C61	C	0.086761	0.978281	-0.326192
C62	C	0.420094	1.311614	0.007141
C63	C	0.753428	1.644948	0.340475
C64	C	0.431402	0.691848	-0.369379
C65	C	0.764736	1.025181	-0.036046
C66	C	1.098069	1.358515	0.297288
C67	C	0.431404	0.621160	-0.369389
C68	C	0.764737	0.954493	-0.036055
C69	C	1.098070	1.287826	0.297278
C70	C	0.380790	0.585794	-0.326177
C71	C	0.714123	0.919127	0.007157
C72	C	1.047456	1.252460	0.340490
C73	C	0.330165	0.621120	-0.282957
C74	C	0.663498	0.954453	0.050376
C75	C	0.996832	1.287786	0.383710
C76	C	0.330160	0.691807	-0.282951
C77	C	0.663494	1.025140	0.050382
C78	C	0.996827	1.358474	0.383715
C79	C	0.330183	0.336047	-0.282979
C80	C	0.663516	0.669380	0.050354
C81	C	0.996849	1.002713	0.383687
C82	C	0.330193	0.265354	-0.282987
C83	C	0.663526	0.598688	0.050347
C84	C	0.996860	0.932021	0.383680
C85	C	0.431426	0.265399	-0.369417
C86	C	0.764759	0.598733	-0.036083
C87	C	1.098093	0.932066	0.297250
C88	C	0.431421	0.336086	-0.369411
C89	C	0.764754	0.669420	-0.036078
C90	C	1.098088	1.002753	0.297256
C91	C	0.380794	0.371406	-0.326194
C92	C	0.714127	0.704740	0.007139
C93	C	1.047461	1.038073	0.340472
C94	C	0.380792	0.448055	-0.326185
C95	C	0.714125	0.781388	0.007148
C96	C	1.047459	1.114721	0.340481
C97	C	0.380795	0.509147	-0.326182
C98	C	0.714128	0.842480	0.007152
C99	C	1.047462	1.175813	0.340485
C100	C	-0.284725	1.021614	-0.369496
C101	C	0.048608	1.354948	-0.036162
C102	C	0.381941	1.688281	0.297171
C103	C	-0.284704	0.935022	-0.282911
C104	C	0.048630	1.268356	0.050422
C105	C	0.381963	1.601689	0.383755
C106	C	-0.202158	0.935013	-0.282909
C107	C	0.131176	1.268346	0.050425
C108	C	0.464509	1.601679	0.383758
C109	C	-0.160892	0.978305	-0.326200
C110	C	0.172442	1.311638	0.007134
C111	C	0.505775	1.644972	0.340467
C112	C	-0.202172	1.021607	-0.369493
C113	C	0.131162	1.354940	-0.036160
C114	C	0.464495	1.688274	0.297174
C115	C	-0.160872	0.891716	-0.239611
C116	C	0.172462	1.225049	0.093722
C117	C	0.505795	1.558383	0.427055
C118	C	-0.078321	0.891705	-0.239607
C119	C	0.255013	1.225038	0.093727
C120	C	0.588346	1.558372	0.427060
C121	C	-0.037053	0.934994	-0.282901
C122	C	0.296280	1.268328	0.050432
C123	C	0.629613	1.601661	0.383765
C124	C	-0.078338	0.978298	-0.326197
C125	C	0.254995	1.311631	0.007136
C126	C	0.588328	1.644965	0.340470
C127	C	-0.037072	1.021590	-0.369488
C128	C	0.296261	1.354923	-0.036155
C129	C	0.629594	1.688257	0.297179
C130	C	-0.078356	1.064891	-0.412788
C131	C	0.254978	1.398224	-0.079454
C132	C	0.588311	1.731557	0.253879
C133	C	-0.160904	1.064897	-0.412788
C134	C	0.172429	1.398230	-0.079455
C135	C	0.505762	1.731563	0.253879
C136	C	0.045495	0.934989	-0.282901
C137	C	0.378829	1.268322	0.050432
C138	C	0.712162	1.601655	0.383765
C139	C	0.045481	1.021583	-0.369485
C140	C	0.378815	1.354916	-0.036152
C141	C	0.712148	1.688250	0.297181
C142	C	0.586152	0.978259	-0.326180
C143	C	0.919486	1.311592	0.007153
C144	C	1.252819	1.644926	0.340486
C145	C	0.674009	0.978322	-0.326205
C146	C	1.007342	1.311655	0.007129
C147	C	1.340675	1.644989	0.340462
C148	C	0.380736	0.978295	-0.502719
C149	C	0.714069	1.311629	-0.169386
C150	C	1.047403	1.644962	0.163947
C151	C	0.380715	0.978311	-0.577951
C152	C	0.714048	1.311645	-0.244618
C153	C	1.047382	1.644978	0.088715
C154	C	0.380802	1.154800	-0.326199
C155	C	0.714135	1.488133	0.007134
C156	C	1.047468	1.821467	0.340468
C157	C	0.380808	1.230032	-0.326208
C158	C	0.714142	1.563365	0.007125
C159	C	1.047475	1.896699	0.340458
C160	C	0.330161	1.021607	-0.613305
C161	C	0.663495	1.354940	-0.279971
C162	C	0.996828	1.688274	0.053362
C163	C	0.330138	1.021614	-0.683993
C164	C	0.663472	1.354947	-0.350660
C165	C	0.996805	1.688280	-0.017327
C166	C	0.380674	0.978328	-0.719327
C167	C	0.714007	1.311662	-0.385994
C168	C	1.047340	1.644995	-0.052660
C169	C	0.431230	0.935028	-0.683969
C170	C	0.764563	1.268361	-0.350635
C171	C	1.097896	1.601695	-0.017302
C172	C	0.431248	0.935018	-0.613281
C173	C	0.764581	1.268351	-0.279948
C174	C	1.097915	1.601685	0.053385
C175	C	0.431156	0.935066	-0.969042
C176	C	0.764489	1.268399	-0.635709
C177	C	1.097822	1.601733	-0.302375
C178	C	0.431135	0.935081	-1.039734
C179	C	0.764469	1.268414	-0.706401
C180	C	1.097802	1.601747	-0.373068
C181	C	0.330046	1.021662	-1.039754
C182	C	0.663380	1.354995	-0.706421
C183	C	0.996713	1.688328	-0.373087
C184	C	0.330065	1.021652	-0.969067
C185	C	0.663398	1.354985	-0.635733
C186	C	0.996731	1.688319	-0.302400
C187	C	0.380617	0.978350	-0.933714
C188	C	0.713951	1.311683	-0.600381
C189	C	1.047284	1.645016	-0.267048
C190	C	0.380640	0.978342	-0.857066
C191	C	0.713974	1.311675	-0.523733
C192	C	1.047307	1.645008	-0.190399
C193	C	0.380655	0.978339	-0.795974
C194	C	0.713988	1.311672	-0.462641
C195	C	1.047322	1.645006	-0.129308
C196	C	0.380778	0.978258	-0.150321
C197	C	0.714112	1.311592	0.183013
C198	C	1.047445	1.644925	0.516346
C199	C	0.380577	0.978373	-0.075089
C200	C	0.713910	1.311707	0.258244
C201	C	1.047244	1.645040	0.591578
H202	H	0.472621	0.720638	-0.404565
H203	H	0.805954	1.053971	-0.071232
H204	H	1.139287	1.387305	0.262101
F205	F	0.276378	1.067682	-0.575706
F206	F	0.609711	1.401015	-0.242373
F207	F	0.943044	1.734348	0.090961
F208	F	0.276299	0.373628	-0.236986
F209	F	0.609632	0.706961	0.096348
F210	F	0.942965	1.040294	0.429681
H211	H	0.472623	0.592404	-0.404580
H212	H	0.805957	0.925738	-0.071247
H213	H	1.139290	1.259071	0.262086
F214	F	0.485052	0.888935	-0.575656
F215	F	0.818385	1.222269	-0.242323
F216	F	1.151719	1.555602	0.091011
F217	F	-0.328624	0.888954	-0.236837
F218	F	0.004710	1.222287	0.096496
F219	F	0.338043	1.555621	0.429829
F220	F	0.485308	0.227804	-0.415413
F221	F	0.818641	0.561137	-0.082080
F222	F	1.151974	0.894470	0.251254
H223	H	-0.044746	1.100142	-0.448032
H224	H	0.288587	1.433476	-0.114699
H225	H	0.621920	1.766809	0.218635
F226	F	0.484958	0.888980	-0.931427
F227	F	0.818292	1.222313	-0.598093
F228	F	1.151625	1.555646	-0.264760
H229	H	-0.318340	1.056867	-0.404752
H230	H	0.014993	1.390200	-0.071418
H231	H	0.348326	1.723534	0.261915
F232	F	-0.204793	0.845648	-0.193539
F233	F	0.128540	1.178981	0.139795
F234	F	0.461873	1.512314	0.473128
F235	F	0.485294	0.373722	-0.415400
F236	F	0.818628	0.707055	-0.082067
F237	F	1.151961	1.040388	0.251266
H238	H	0.472373	0.899782	-0.712743
H239	H	0.805707	1.233115	-0.379410
H240	H	1.139040	1.566448	-0.046076
H241	H	0.288916	1.056902	-0.940301
H242	H	0.622250	1.390235	-0.606968
H243	H	0.955583	1.723569	-0.273635
F244	F	-0.204846	1.110973	-0.458869
F245	F	0.128487	1.444307	-0.125535
F246	F	0.461821	1.777640	0.207798
F247	F	0.276293	0.583479	-0.236971
F248	F	0.609626	0.916812	0.096362
F249	F	0.942959	1.250145	0.429695
F250	F	0.276319	0.227717	-0.236993
F251	F	0.609652	0.561050	0.096340
F252	F	0.942986	0.894383	0.429674
F253	F	0.089393	1.067658	-0.415566
F254	F	0.422726	1.400992	-0.082233
F255	F	0.756060	1.734325	0.251101
F256	F	0.484924	0.889007	-1.077338
F257	F	0.818257	1.222341	-0.744004
F258	F	1.151591	1.555674	-0.410671
F259	F	-0.034391	0.845620	-0.193526
F260	F	0.298942	1.178953	0.139807
F261	F	0.632275	1.512286	0.473141
F262	F	0.276241	1.067746	-1.077384
F263	F	0.609574	1.401080	-0.744050
F264	F	0.942907	1.734413	-0.410717
F265	F	0.276283	0.729398	-0.236954
F266	F	0.609617	1.062731	0.096379
F267	F	0.942950	1.396065	0.429712
H268	H	0.079105	0.899736	-0.247645
H269	H	0.412438	1.233069	0.085688
H270	H	0.745771	1.566403	0.419022
F271	F	0.276359	1.067718	-0.721616
F272	F	0.609693	1.401051	-0.388283
F273	F	0.943026	1.734385	-0.054949
