data_functionalizedCrystal
_audit_creation_method	'MofGen! by Chris Wilmer'
_symmetry_space_group_name_H-M	'P1'
_symmetry_Int_Tables_number	1
_symmetry_cell_setting	triclinic
loop_
_symmetry_equiv_pos_as_xyz
  x,y,z
_cell_length_a	10.540539
_cell_length_b	19.188930
_cell_length_c	9.616153
_cell_angle_alpha	89.994864
_cell_angle_beta	89.998744
_cell_angle_gamma	83.835137
loop_
_atom_site_label
_atom_site_type_symbol
_atom_site_fract_x
_atom_site_fract_y
_atom_site_fract_z
O1	O	1.683718	0.098387	-0.115598
O2	O	2.183718	0.598387	0.384402
O3	O	1.314101	0.107657	-0.115617
O4	O	1.814101	0.607657	0.384383
O5	O	1.509576	0.001437	-0.115579
O6	O	2.009576	0.501437	0.384421
O7	O	1.488243	0.204606	-0.115635
O8	O	1.988243	0.704606	0.384365
O9	O	1.509561	0.001443	0.115712
O10	O	2.009561	0.501443	0.615712
O11	O	1.314086	0.107663	0.115675
O12	O	1.814086	0.607663	0.615675
O13	O	1.683704	0.098393	0.115694
O14	O	2.183704	0.598393	0.615694
Zn15	Zn	1.498893	0.103029	0.152407
Zn16	Zn	1.998893	0.603029	0.652407
Zn17	Zn	1.498912	0.103021	-0.152330
Zn18	Zn	1.998912	0.603021	0.347670
O19	O	1.488229	0.204612	0.115657
O20	O	1.988229	0.704612	0.615657
C21	C	1.266806	0.106965	0.000027
C22	C	1.766806	0.606965	0.500027
C23	C	1.125904	0.104885	0.000021
C24	C	1.625904	0.604885	0.500021
C25	C	1.508878	-0.024575	0.000070
C26	C	2.008878	0.475425	0.500070
C27	C	1.506804	-0.102094	0.000082
C28	C	2.006804	0.397906	0.500082
C29	C	0.944233	0.025184	0.000583
C30	C	1.444233	0.525184	0.500583
C31	C	1.090805	0.027292	0.000047
C32	C	1.590805	0.527292	0.500047
C33	C	1.063416	0.142222	-0.132063
C34	C	1.563416	0.642222	0.367937
C35	C	0.916930	0.139574	-0.132158
C36	C	1.416930	0.639574	0.367842
C37	C	0.916391	0.141160	0.130863
C38	C	1.416391	0.641160	0.630863
C39	C	1.063357	0.141874	0.132594
C40	C	1.563357	0.641874	0.632594
C41	C	1.621502	-0.146253	0.000095
C42	C	2.121502	0.353747	0.500095
C43	C	1.619554	-0.219090	0.000072
C44	C	2.119554	0.280910	0.500072
C45	C	1.502901	-0.247764	0.000065
C46	C	2.002901	0.252236	0.500065
C47	C	1.388187	-0.203595	0.000045
C48	C	1.888187	0.296405	0.500045
C49	C	1.390139	-0.130760	0.000053
C50	C	1.890139	0.369240	0.500053
N51	N	1.413729	-0.356361	0.078774
N52	N	1.913729	0.143639	0.578774
N53	N	1.411883	-0.425552	0.078769
N54	N	1.911883	0.074448	0.578769
C55	C	1.497014	-0.467212	0.000037
C56	C	1.997014	0.032788	0.500037
N57	N	1.584081	-0.437068	-0.078672
N58	N	2.084081	0.062932	0.421328
N59	N	1.585930	-0.367871	-0.078661
N60	N	2.085930	0.132129	0.421339
C61	C	1.500772	-0.326741	0.000055
C62	C	2.000772	0.173259	0.500055
C63	C	1.609608	-0.590350	0.000023
C64	C	2.109608	-0.090350	0.500023
C65	C	1.607655	-0.663188	-0.000008
C66	C	2.107655	-0.163188	0.499992
C67	C	1.376285	-0.647691	-0.000021
C68	C	1.876285	-0.147691	0.499979
C69	C	1.378241	-0.574855	-0.000004
C70	C	1.878241	-0.074855	0.499996
C71	C	1.494906	-0.546189	0.000025
C72	C	1.994906	-0.046189	0.500025
C73	C	1.730998	0.099085	0.000047
C74	C	2.230998	0.599085	0.500047
C75	C	1.871901	0.101165	0.000044
C76	C	2.371901	0.601165	0.500044
C77	C	1.488927	0.230625	0.000004
C78	C	1.988927	0.730625	0.500004
C79	C	1.491000	0.308143	-0.000017
C80	C	1.991000	0.808143	0.499983
N81	N	1.498889	0.103034	0.360381
N82	N	1.998889	0.603034	0.860381
N83	N	1.498925	0.103010	-0.360304
N84	N	1.998925	0.603010	0.139696
C85	C	1.394278	0.159845	0.419403
C86	C	1.894278	0.659845	0.919403
C87	C	1.393930	0.159682	0.580571
C88	C	1.893930	0.659682	1.080571
C89	C	1.470945	0.029933	0.581184
C90	C	1.970945	0.529933	1.081184
C91	C	1.470173	0.030279	0.419967
C92	C	1.970173	0.530279	0.919967
C93	C	1.631808	0.118641	0.419769
C94	C	2.131808	0.618641	0.919769
C95	C	1.630928	0.120278	0.580997
C96	C	2.130928	0.620278	1.080997
H97	H	1.134060	-0.002087	0.094731
H98	H	1.634060	0.497913	0.594731
F99	F	1.264037	-0.234113	0.000029
F100	F	1.764037	0.265887	0.500029
F101	F	1.745668	-0.115749	0.000095
F102	F	2.245668	0.384251	0.500095
H103	H	1.284841	-0.538899	-0.000006
H104	H	1.784841	-0.038899	0.499994
H105	H	1.701060	-0.699142	-0.000005
H106	H	2.201060	-0.199142	0.499995
F107	F	1.252133	-0.678203	-0.000036
F108	F	1.752133	-0.178203	0.499964
H109	H	1.375168	0.016006	0.621595
H110	H	1.875168	0.516006	1.121595
H111	H	1.712958	-0.255051	0.000077
H112	H	2.212958	0.244949	0.500077
H113	H	0.916317	-0.005467	0.095309
H114	H	1.416317	0.494533	0.595309
H115	H	1.296177	0.149914	0.378916
H116	H	1.796177	0.649914	0.878916
H117	H	1.084514	0.199204	-0.136992
H118	H	1.584514	0.699204	0.363008
H119	H	1.295287	0.149604	0.619164
H120	H	1.795287	0.649604	1.119164
H121	H	1.296735	-0.094804	0.000044
H122	H	1.796735	0.405196	0.500044
F123	F	0.875879	0.108339	0.261726
F124	F	1.375879	0.608339	0.761726
H125	H	1.704603	-0.567009	0.000040
H126	H	2.204603	-0.067009	0.500040
H127	H	1.410456	0.213972	0.620133
H128	H	1.910456	0.713972	1.120133
F129	F	1.415485	0.231052	0.368728
F130	F	1.915485	0.731052	0.868728
H131	H	1.373266	0.016670	0.382388
H132	H	1.873266	0.516670	0.882388
F133	F	0.880856	0.103497	-0.261190
F134	F	1.380856	0.603497	0.238810
H135	H	1.709647	0.077224	0.381589
H136	H	2.209647	0.577224	0.881589
F137	F	1.566038	-0.026702	0.368926
F138	F	2.066038	0.473298	0.868926
F139	F	1.119833	0.108315	-0.260531
F140	F	1.619833	0.608315	0.239469
F141	F	1.567953	-0.026717	0.631236
F142	F	2.067953	0.473283	1.131236
F143	F	1.667238	0.186879	0.366621
F144	F	2.167238	0.686879	0.866621
F145	F	0.852621	0.212511	-0.140014
F146	F	1.352621	0.712511	0.359986
F147	F	1.658709	0.190552	0.630976
F148	F	2.158709	0.690552	1.130976
H149	H	0.914704	-0.005343	-0.093599
H150	H	1.414704	0.494657	0.406401
F151	F	1.117549	0.106165	0.260314
F152	F	1.617549	0.606165	0.760314
F153	F	1.146196	-0.011229	-0.124101
F154	F	1.646196	0.488771	0.375899
F155	F	1.093384	0.215818	0.142997
F156	F	1.593384	0.715818	0.642997
F157	F	0.853050	0.214414	0.132011
F158	F	1.353050	0.714414	0.632011
F159	F	1.737376	0.069787	0.633599
F160	F	2.237376	0.569787	1.133599
