data_functionalizedCrystal
_audit_creation_method	'MofGen! by Chris Wilmer'
_symmetry_space_group_name_H-M	'P1'
_symmetry_Int_Tables_number	1
_symmetry_cell_setting	triclinic
loop_
_symmetry_equiv_pos_as_xyz
  x,y,z
_cell_length_a	27.732048
_cell_length_b	27.732048
_cell_length_c	14.421503
_cell_angle_alpha	89.999321
_cell_angle_beta	89.997938
_cell_angle_gamma	82.642655
loop_
_atom_site_label
_atom_site_type_symbol
_atom_site_fract_x
_atom_site_fract_y
_atom_site_fract_z
O1	O	0.640930	0.057510	-0.077002
O2	O	1.140930	0.557510	0.422998
O3	O	0.500137	0.066256	-0.077032
O4	O	1.000137	0.566256	0.422968
O5	O	0.574906	-0.008514	-0.076998
O6	O	1.074906	0.491486	0.423002
O7	O	0.566161	0.132280	-0.077035
O8	O	1.066161	0.632280	0.422965
O9	O	0.574894	-0.008503	0.077225
O10	O	1.074894	0.491497	0.577225
O11	O	0.500124	0.066267	0.077192
O12	O	1.000124	0.566267	0.577192
O13	O	0.640918	0.057521	0.077221
O14	O	1.140918	0.557521	0.577221
Cu15	Cu	0.570520	0.061895	0.091288
Cu16	Cu	1.070520	0.561895	0.591288
Cu17	Cu	0.570535	0.061882	-0.091099
Cu18	Cu	1.070535	0.561882	0.408901
O19	O	0.566148	0.132291	0.077188
O20	O	1.066148	0.632291	0.577188
C21	C	0.482124	0.066078	0.000077
C22	C	0.982124	0.566078	0.500077
C23	C	0.428469	0.065525	0.000066
C24	C	0.928469	0.565525	0.500066
C25	C	0.089654	0.106229	0.000096
C26	C	0.589654	0.606229	0.500096
C27	C	-0.112006	0.104178	0.000104
C28	C	0.387994	0.604178	0.500104
O29	O	-0.143262	0.141398	0.000135
O30	O	0.356738	0.641398	0.500135
N31	N	-0.131130	0.059843	0.000115
N32	N	0.368870	0.559843	0.500115
C33	C	-0.099835	0.016017	0.000128
C34	C	0.400165	0.516017	0.500128
O35	O	-0.120728	-0.021740	0.000147
O36	O	0.379272	0.478260	0.500147
C37	C	0.101824	0.018068	0.000126
C38	C	0.601824	0.518068	0.500126
C39	C	0.120944	0.062407	0.000107
C40	C	0.620944	0.562407	0.500107
C41	C	0.108775	0.150563	0.000077
C42	C	0.608775	0.650563	0.500077
C43	C	0.159187	0.151076	0.000070
C44	C	0.659187	0.651076	0.500070
C45	C	0.190477	0.107253	0.000081
C46	C	0.690477	0.607253	0.500081
C47	C	0.171356	0.062919	0.000100
C48	C	0.671356	0.562919	0.500100
C49	C	0.133117	-0.025757	0.000147
C50	C	0.633117	0.474243	0.500147
C51	C	0.183535	-0.025240	0.000149
C52	C	0.683535	0.474760	0.500149
C53	C	0.202655	0.019098	0.000129
C54	C	0.702655	0.519098	0.500129
C55	C	0.253059	0.019609	0.000103
C56	C	0.753059	0.519609	0.500103
N57	N	0.272183	0.063944	0.000093
N58	N	0.772183	0.563944	0.500093
C59	C	0.240892	0.107766	0.000082
C60	C	0.740892	0.607766	0.500082
C61	C	-0.205709	0.014943	0.000128
C62	C	0.294291	0.514943	0.500128
C63	C	-0.256124	0.014430	0.000127
C64	C	0.243876	0.514430	0.500127
C65	C	-0.268291	0.102591	0.000104
C66	C	0.231709	0.602591	0.500104
C67	C	-0.217876	0.103104	0.000099
C68	C	0.282124	0.603104	0.500099
C69	C	-0.186585	0.059278	0.000118
C70	C	0.313415	0.559278	0.500118
C71	C	0.346761	0.108839	0.000066
C72	C	0.846761	0.608839	0.500066
C73	C	0.397178	0.109347	0.000055
C74	C	0.897178	0.609347	0.500055
C75	C	0.409341	0.021186	0.000082
C76	C	0.909341	0.521186	0.500082
C77	C	0.358929	0.020678	0.000088
C78	C	0.858929	0.520678	0.500088
C79	C	0.327639	0.064508	0.000084
C80	C	0.827639	0.564508	0.500084
O81	O	0.284343	-0.017592	0.000084
O82	O	0.784343	0.482408	0.500084
O83	O	0.261794	0.145518	0.000085
O84	O	0.761794	0.645518	0.500085
C85	C	0.039242	0.105716	0.000103
C86	C	0.539242	0.605716	0.500103
C87	C	0.020120	0.061382	0.000121
C88	C	0.520120	0.561382	0.500121
C89	C	0.051411	0.017560	0.000132
C90	C	0.551411	0.517560	0.500132
C91	C	-0.030294	0.060869	0.000120
C92	C	0.469706	0.560869	0.500120
C93	C	-0.061585	0.104691	0.000109
C94	C	0.438415	0.604691	0.500109
C95	C	-0.042461	0.149026	0.000099
C96	C	0.457539	0.649026	0.500099
C97	C	0.007951	0.149539	0.000092
C98	C	0.507951	0.649539	0.500092
C99	C	0.032287	-0.026775	0.000143
C100	C	0.532287	0.473225	0.500143
C101	C	-0.018125	-0.027284	0.000149
C102	C	0.481875	0.472716	0.500149
C103	C	-0.049416	0.016538	0.000138
C104	C	0.450584	0.516538	0.500138
C105	C	0.574716	-0.026515	0.000116
C106	C	1.074716	0.473485	0.500116
C107	C	0.574164	-0.080170	0.000124
C108	C	1.074164	0.419830	0.500124
C109	C	0.614867	-0.418985	0.000084
C110	C	1.114867	0.081015	0.500084
C111	C	0.612816	-0.620645	0.000071
C112	C	1.112816	-0.120645	0.500071
O113	O	0.650037	-0.651900	0.000038
O114	O	1.150037	-0.151900	0.500038
N115	N	0.568481	-0.639768	0.000063
N116	N	1.068481	-0.139768	0.500063
C117	C	0.524656	-0.608474	0.000052
C118	C	1.024656	-0.108474	0.500052
O119	O	0.486899	-0.629367	0.000035
O120	O	0.986899	-0.129367	0.500035
C121	C	0.526707	-0.406815	0.000058
C122	C	1.026707	0.093185	0.500058
C123	C	0.571045	-0.387694	0.000076
C124	C	1.071045	0.112306	0.500076
C125	C	0.659202	-0.399864	0.000101
C126	C	1.159202	0.100136	0.500101
C127	C	0.659714	-0.349452	0.000110
C128	C	1.159714	0.150548	0.500110
C129	C	0.615892	-0.318161	0.000101
C130	C	1.115892	0.181839	0.500101
C131	C	0.571557	-0.337282	0.000084
C132	C	1.071557	0.162718	0.500084
C133	C	0.482882	-0.375521	0.000040
C134	C	0.982882	0.124479	0.500040
C135	C	0.483399	-0.325104	0.000040
C136	C	0.983399	0.174896	0.500040
C137	C	0.527737	-0.305983	0.000058
C138	C	1.027737	0.194017	0.500058
C139	C	0.528247	-0.255580	0.000084
C140	C	1.028247	0.244420	0.500084
N141	N	0.572583	-0.236456	0.000093
N142	N	1.072583	0.263544	0.500093
C143	C	0.616405	-0.267747	0.000101
C144	C	1.116405	0.232253	0.500101
C145	C	0.523582	-0.714348	0.000050
C146	C	1.023582	-0.214348	0.500050
C147	C	0.523069	-0.764762	0.000050
C148	C	1.023069	-0.264762	0.500050
C149	C	0.611230	-0.776930	0.000068
C150	C	1.111230	-0.276930	0.500068
C151	C	0.611742	-0.726514	0.000074
C152	C	1.111742	-0.226514	0.500074
C153	C	0.567917	-0.695224	0.000058
C154	C	1.067917	-0.195224	0.500058
C155	C	0.617477	-0.161878	0.000120
C156	C	1.117477	0.338122	0.500120
C157	C	0.617986	-0.111461	0.000132
C158	C	1.117986	0.388539	0.500132
C159	C	0.529825	-0.099298	0.000109
C160	C	1.029825	0.400702	0.500109
C161	C	0.529316	-0.149710	0.000102
C162	C	1.029316	0.350290	0.500102
C163	C	0.573147	-0.180999	0.000104
C164	C	1.073147	0.319001	0.500104
O165	O	0.491047	-0.224296	0.000107
O166	O	0.991047	0.275704	0.500107
O167	O	0.654156	-0.246844	0.000098
O168	O	1.154156	0.253156	0.500098
C169	C	0.614355	-0.469397	0.000076
C170	C	1.114355	0.030603	0.500076
C171	C	0.570021	-0.488518	0.000059
C172	C	1.070021	0.011482	0.500059
C173	C	0.526198	-0.457228	0.000051
C174	C	1.026198	0.042772	0.500051
C175	C	0.569508	-0.538933	0.000059
C176	C	1.069508	-0.038933	0.500059
C177	C	0.613330	-0.570223	0.000068
C178	C	1.113330	-0.070223	0.500068
C179	C	0.657665	-0.551100	0.000076
C180	C	1.157665	-0.051100	0.500076
C181	C	0.658177	-0.500688	0.000084
C182	C	1.158177	-0.000688	0.500084
C183	C	0.481863	-0.476351	0.000042
C184	C	0.981863	0.023649	0.500042
C185	C	0.481355	-0.526764	0.000035
C186	C	0.981355	-0.026764	0.500035
C187	C	0.525177	-0.558054	0.000044
C188	C	1.025177	-0.058054	0.500044
C189	C	0.658931	0.057699	0.000111
C190	C	1.158931	0.557699	0.500111
C191	C	0.712586	0.058252	0.000116
C192	C	1.212586	0.558252	0.500116
C193	C	0.566338	0.150292	0.000072
C194	C	1.066338	0.650292	0.500072
C195	C	0.566891	0.203947	0.000058
C196	C	1.066891	0.703947	0.500058
N197	N	0.570513	0.061904	0.219570
N198	N	1.070513	0.561904	0.719570
N199	N	0.570545	0.061869	-0.219380
N200	N	1.070545	0.561869	0.280620
C201	C	0.535934	0.096462	0.469208
C202	C	1.035934	0.596462	0.969208
C203	C	0.579543	0.105518	0.531017
C204	C	1.079543	0.605518	1.031017
C205	C	0.570525	0.061892	0.408731
C206	C	1.070525	0.561892	0.908731
C207	C	0.526927	0.052848	0.531016
C208	C	1.026927	0.552848	1.031016
C209	C	0.570532	0.061882	0.591453
C210	C	1.070532	0.561882	1.091453
C211	C	0.614156	0.070970	0.469179
C212	C	1.114156	0.570970	0.969179
C213	C	0.561512	0.018281	0.469173
C214	C	1.061512	0.518281	0.969173
C215	C	0.605152	0.027318	0.530954
C216	C	1.105152	0.527318	1.030954
C217	C	0.570520	0.061900	0.303470
C218	C	1.070520	0.561900	0.803470
C219	C	0.570543	0.061875	0.696711
C220	C	1.070543	0.561875	1.196711
H221	H	0.321291	0.144530	0.000065
H222	H	0.821291	0.644530	0.500065
H223	H	0.634440	-0.001923	0.557895
H224	H	1.134440	0.498077	1.057895
H225	H	0.447710	-0.299629	0.000025
H226	H	0.947710	0.200371	0.500025
H227	H	0.694889	-0.425336	0.000105
H228	H	1.194889	0.074664	0.500105
H229	H	0.653168	-0.187348	0.000118
H230	H	1.153168	0.312652	0.500118
Br231	Br	0.422705	-0.401458	0.000013
Br232	Br	0.922705	0.098542	0.500013
H233	H	0.412743	0.145454	0.000039
H234	H	0.912743	0.645454	0.500039
H235	H	0.587173	0.142395	0.558181
H236	H	1.087173	0.642395	1.058181
Br237	Br	0.675628	0.083784	0.424105
Br238	Br	1.175628	0.583784	0.924105
H239	H	0.553867	-0.018584	0.441987
H240	H	1.053867	0.481416	0.941987
H241	H	0.490054	0.045202	0.558181
H242	H	0.990054	0.545202	1.058181
Br243	Br	0.185128	0.211252	0.000048
Br244	Br	0.685128	0.711252	0.500048
Br245	Br	0.107181	-0.085934	0.000153
Br246	Br	0.607181	0.414066	0.500153
H247	H	-0.293777	0.138273	0.000096
H248	H	0.206223	0.638273	0.500096
H249	H	0.646911	-0.802415	0.000075
H250	H	1.146911	-0.302415	0.500075
H251	H	0.695819	-0.333889	0.000120
H252	H	1.195819	0.166111	0.500120
Br253	Br	0.225997	-0.084721	0.000179
Br254	Br	0.725997	0.415279	0.500179
Br255	Br	-0.191932	0.163278	0.000073
Br256	Br	0.308068	0.663278	0.500073
Br257	Br	0.066317	0.210045	0.000062
Br258	Br	0.566317	0.710045	0.500062
Br259	Br	-0.282067	-0.045745	0.000125
Br260	Br	0.217933	0.454255	0.500125
Br261	Br	0.469143	-0.175661	0.000099
Br262	Br	0.969143	0.324339	0.500099
H263	H	0.343360	-0.015426	0.000091
H264	H	0.843360	0.484574	0.500091
Br265	Br	-0.163250	-0.044540	0.000153
Br266	Br	0.336750	0.455460	0.500153
Br267	Br	0.671917	-0.700570	0.000100
Br268	Br	1.171917	-0.200570	0.500100
H269	H	0.494146	-0.073812	0.000106
H270	H	0.994146	0.426188	0.500106
Br271	Br	0.462893	-0.790705	0.000048
Br272	Br	0.962893	-0.290705	0.500048
Br273	Br	0.451816	-0.038284	0.000099
Br274	Br	0.951816	0.461716	0.500099
Br275	Br	0.464098	-0.671889	0.000026
Br276	Br	0.964098	-0.171889	0.500026
Br277	Br	0.487226	0.145224	0.424015
Br278	Br	0.987226	0.645224	0.924015
H279	H	0.023514	0.185643	0.000077
H280	H	0.523514	0.685643	0.500077
H281	H	-0.067947	0.184708	0.000086
H282	H	0.432053	0.684708	0.500086
H283	H	-0.033688	-0.063392	0.000157
H284	H	0.466312	0.436608	0.500157
H285	H	0.694282	-0.485125	0.000099
H286	H	1.194282	0.014875	0.500099
H287	H	0.654093	-0.095896	0.000149
H288	H	1.154093	0.404104	0.500149
Br289	Br	0.717137	-0.593575	0.000095
Br290	Br	1.217137	-0.093575	0.500095
H291	H	0.057760	-0.062462	0.000154
H292	H	0.557760	0.437538	0.500154
Br293	Br	0.421176	-0.552706	0.000018
Br294	Br	0.921176	-0.052706	0.500018
H295	H	0.446177	-0.450879	0.000034
H296	H	0.946177	0.049121	0.500034
