data_functionalizedCrystal
_audit_creation_method	'MofGen! by Chris Wilmer'
_symmetry_space_group_name_H-M	'P1'
_symmetry_Int_Tables_number	1
_symmetry_cell_setting	triclinic
loop_
_symmetry_equiv_pos_as_xyz
  x,y,z
_cell_length_a	17.038272
_cell_length_b	26.210047
_cell_length_c	27.732054
_cell_angle_alpha	89.995081
_cell_angle_beta	93.121621
_cell_angle_gamma	90.003985
loop_
_atom_site_label
_atom_site_type_symbol
_atom_site_fract_x
_atom_site_fract_y
_atom_site_fract_z
O1	O	1.036154	0.042384	-0.104905
O2	O	0.808543	0.042398	-0.103239
O3	O	0.929415	0.042375	-0.033999
O4	O	0.915282	0.042407	-0.174146
O5	O	0.929392	-0.042483	-0.034010
O6	O	0.808519	-0.042460	-0.103250
O7	O	1.036131	-0.042475	-0.104916
Cu8	Cu	0.922323	-0.050215	-0.104084
Cu9	Cu	0.922351	0.050139	-0.104071
O10	O	0.915258	-0.042451	-0.174156
C11	C	0.779420	-0.000029	-0.101730
C12	C	0.692680	-0.000024	-0.097209
N13	N	0.922309	-0.120799	-0.104093
C14	C	0.642084	-0.000015	-0.138712
C15	C	0.560582	-0.000023	-0.134462
C16	C	0.529679	-0.000037	-0.088708
C17	C	0.580282	-0.000047	-0.047202
C18	C	0.661782	-0.000043	-0.051453
C19	C	0.284096	-0.000054	-0.073691
C20	C	0.202590	-0.000057	-0.069443
C21	C	0.182896	-0.000034	-0.156703
C22	C	0.264398	-0.000026	-0.160950
C23	C	0.314993	-0.000039	-0.119444
C24	C	0.446372	-0.000043	-0.084363
C25	C	0.398299	-0.000036	-0.123790
C26	C	0.975867	-0.473324	-0.073419
C27	C	0.975885	-0.686982	-0.073413
O28	O	1.021391	-0.714613	-0.047334
N29	N	0.922355	-0.713693	-0.104061
C30	C	0.868813	-0.686986	-0.134710
O31	O	0.823278	-0.714608	-0.160775
C32	C	0.868793	-0.473329	-0.134713
C33	C	0.922332	-0.446620	-0.104067
C34	C	1.029401	-0.446615	-0.042775
C35	C	1.029399	-0.393204	-0.042778
C36	C	0.975863	-0.366501	-0.073426
C37	C	0.922330	-0.393209	-0.104071
C38	C	0.815249	-0.446623	-0.165360
C39	C	0.815247	-0.393205	-0.165357
C40	C	0.868786	-0.366497	-0.134711
C41	C	0.868792	-0.313094	-0.134722
N42	N	0.922322	-0.286383	-0.104074
C43	C	0.975857	-0.313087	-0.073426
C44	C	0.868829	-0.799160	-0.134707
C45	C	0.868835	-0.852574	-0.134707
C46	C	0.975905	-0.852566	-0.073409
C47	C	0.975902	-0.799151	-0.073412
C48	C	0.922359	-0.772449	-0.104059
C49	C	0.975849	-0.200919	-0.073437
C50	C	0.975845	-0.147503	-0.073445
C51	C	0.868772	-0.147515	-0.134741
C52	C	0.868779	-0.200926	-0.134735
C53	C	0.922321	-0.227627	-0.104079
O54	O	0.823303	-0.285431	-0.160784
O55	O	1.021374	-0.285456	-0.047358
C56	C	0.975869	-0.526735	-0.073415
C57	C	0.922336	-0.553443	-0.104060
C58	C	0.868800	-0.526740	-0.134708
C59	C	0.922342	-0.606858	-0.104060
C60	C	0.975877	-0.633561	-0.073411
C61	C	1.029407	-0.606850	-0.042763
C62	C	1.029405	-0.553438	-0.042767
C63	C	0.815270	-0.553451	-0.165356
C64	C	0.815277	-0.606863	-0.165350
C65	C	0.868813	-0.633566	-0.134702
C66	C	1.065253	-0.000046	-0.106426
C67	C	1.151993	-0.000048	-0.110946
N68	N	0.922370	0.120723	-0.104059
C69	C	0.915568	-0.000018	-0.192171
C70	C	0.916463	-0.000006	-0.245867
C71	C	0.922750	0.046224	-0.629315
C72	C	0.919445	0.046239	-0.427504
O73	O	0.918997	0.085579	-0.401410
N74	N	0.919019	-0.000017	-0.402270
C75	C	0.919415	-0.046278	-0.427492
O76	O	0.918969	-0.085621	-0.401399
C77	C	0.922714	-0.046292	-0.629303
C78	C	0.923148	-0.000034	-0.654534
C79	C	0.923183	0.092479	-0.654546
C80	C	0.924013	0.092475	-0.704996
C81	C	0.924411	0.046216	-0.730215
C82	C	0.923978	-0.000038	-0.704984
C83	C	0.923103	-0.092553	-0.654525
C84	C	0.923926	-0.092553	-0.704981
C85	C	0.924360	-0.046295	-0.730212
C86	C	0.925206	-0.046300	-0.780652
N87	N	0.925632	-0.000045	-0.805886
C88	C	0.925234	0.046213	-0.780667
C89	C	0.917684	-0.046268	-0.321538
C90	C	0.916861	-0.046265	-0.271086
C91	C	0.916890	0.046252	-0.271101
C92	C	0.917719	0.046249	-0.321554
C93	C	0.918110	-0.000013	-0.346772
C94	C	0.926979	0.046201	-0.886615
C95	C	0.927813	0.046193	-0.937070
C96	C	0.927779	-0.046324	-0.937050
C97	C	0.926950	-0.046316	-0.886600
C98	C	0.926547	-0.000050	-0.861384
O99	O	0.925645	-0.085620	-0.806778
O100	O	0.925663	0.085549	-0.806770
C101	C	0.921920	0.046228	-0.578866
C102	C	0.921487	-0.000026	-0.553635
C103	C	0.921884	-0.046284	-0.578853
C104	C	0.920663	-0.000023	-0.503182
C105	C	0.920266	0.046236	-0.477963
C106	C	0.920692	0.092491	-0.503197
C107	C	0.921522	0.092487	-0.553647
C108	C	0.921458	-0.092539	-0.553619
C109	C	0.920629	-0.092532	-0.503169
C110	C	0.920231	-0.046273	-0.477951
C111	C	0.929106	-0.000057	-0.015984
C112	C	0.928210	-0.000065	0.037712
H113	H	0.519389	-0.000015	-0.168258
H114	H	0.289552	-0.000009	-0.198207
O115	O	0.926440	-0.091215	-0.862035
C116	C	0.857750	-0.144913	-0.807769
C117	C	0.858241	-0.094042	-0.835551
H118	H	0.802609	-0.147220	-0.786357
H119	H	0.912032	-0.147229	-0.781948
H120	H	0.858224	-0.177970	-0.834466
H121	H	0.857741	-0.060956	-0.808890
H122	H	0.803964	-0.091770	-0.861379
H123	H	0.702977	-0.000050	-0.017657
O124	O	0.763236	-0.527595	-0.195176
C125	C	0.657013	-0.533253	-0.255957
C126	C	0.715912	-0.562595	-0.222213
H127	H	0.618725	-0.561537	-0.277819
H128	H	0.690415	-0.508259	-0.281527
H129	H	0.618257	-0.508233	-0.233478
H130	H	0.754683	-0.587642	-0.244654
H131	H	0.682461	-0.587557	-0.196642
H132	H	0.141692	-0.000024	-0.190495
O133	O	0.763205	-0.367346	-0.195176
C134	C	0.656971	-0.372996	-0.255951
C135	C	0.715874	-0.402343	-0.222213
H136	H	0.618678	-0.401278	-0.277812
H137	H	0.690370	-0.348001	-0.281521
H138	H	0.618221	-0.347978	-0.233466
H139	H	0.754639	-0.427389	-0.244658
H140	H	0.682427	-0.427306	-0.196641
H141	H	0.928168	0.083863	-0.957610
H142	H	0.177433	-0.000067	-0.032184
O143	O	0.926611	0.091189	-0.862199
C144	C	0.926652	0.182952	-0.867556
C145	C	0.927093	0.132041	-0.895265
H146	H	0.927026	0.215994	-0.894278
H147	H	0.980980	0.185308	-0.841775
H148	H	0.871563	0.185241	-0.846096
H149	H	0.982146	0.129718	-0.916753
H150	H	0.872729	0.129706	-0.921017
H151	H	0.421202	-0.000069	-0.047110
O152	O	0.918177	-0.091176	-0.346081
C153	C	0.986847	-0.144898	-0.400323
C154	C	0.986372	-0.094017	-0.372566
H155	H	1.041986	-0.147215	-0.421735
H156	H	0.932563	-0.147221	-0.426142
H157	H	0.986366	-0.177945	-0.373610
H158	H	0.986881	-0.060941	-0.399243
H159	H	1.040652	-0.091738	-0.346741
O160	O	0.920189	0.137457	-0.478749
C161	C	0.852180	0.216509	-0.465971
C162	C	0.852674	0.165614	-0.493704
H163	H	0.797591	0.239284	-0.478044
H164	H	0.907015	0.239362	-0.473726
H165	H	0.851546	0.208542	-0.425580
H166	H	0.853280	0.173535	-0.534102
H167	H	0.797843	0.142778	-0.485909
H168	H	0.920282	-0.130203	-0.482630
H169	H	0.825247	-0.874316	-0.159668
O170	O	0.816926	-0.773170	-0.164510
C171	C	0.799487	-0.712899	-0.229834
C172	C	0.858348	-0.742286	-0.196102
H173	H	0.832953	-0.687931	-0.255392
H174	H	0.760700	-0.687861	-0.207391
H175	H	0.761224	-0.741182	-0.251714
H176	H	0.896663	-0.714041	-0.174215
H177	H	0.897080	-0.767332	-0.218573
H178	H	0.325282	-0.000065	-0.039894
O179	O	0.550135	-0.000038	-0.002794
C180	C	0.433312	-0.000084	0.042428
C181	C	0.467346	-0.000083	-0.007895
H182	H	0.366373	-0.000131	0.038320
H183	H	0.454140	0.035433	0.063122
H184	H	0.454238	-0.035593	0.063099
H185	H	0.446435	0.035402	-0.028606
H186	H	0.446523	-0.035623	-0.028553
O187	O	0.922549	-0.137461	-0.629982
C188	C	0.853780	-0.191161	-0.575757
C189	C	0.854336	-0.140274	-0.603510
H190	H	0.798628	-0.193457	-0.554355
H191	H	0.908050	-0.193516	-0.549930
H192	H	0.854229	-0.224203	-0.602472
H193	H	0.853860	-0.107204	-0.576831
H194	H	0.800071	-0.137964	-0.629344
H195	H	0.667238	-0.000004	-0.175969
O196	O	0.816697	-0.226795	-0.164519
C197	C	0.710516	-0.221159	-0.225330
C198	C	0.769454	-0.191804	-0.191622
H199	H	0.672316	-0.192882	-0.247259
H200	H	0.671679	-0.246148	-0.202867
H201	H	0.743966	-0.246183	-0.250843
H202	H	0.736069	-0.166752	-0.166103
H203	H	0.808290	-0.166847	-0.214115
H204	H	0.825186	-0.125765	-0.159696
O205	O	0.921955	-0.137444	-0.578162
C206	C	0.990636	-0.191164	-0.632400
C207	C	0.990156	-0.140283	-0.604643
H208	H	1.045778	-0.193481	-0.653808
H209	H	0.936355	-0.193488	-0.658222
H210	H	0.990151	-0.224212	-0.605687
H211	H	0.990668	-0.107207	-0.631319
H212	H	1.044431	-0.138004	-0.578814
O213	O	1.081332	-0.527558	-0.012894
C214	C	1.128103	-0.511376	0.069249
C215	C	1.069238	-0.540678	0.035450
H216	H	1.118357	-0.521980	0.108341
H217	H	1.118969	-0.468594	0.064076
H218	H	1.190605	-0.521887	0.060346
H219	H	1.006712	-0.530209	0.044332
H220	H	1.078440	-0.583452	0.040629
O221	O	0.924389	0.137456	-0.729429
C222	C	0.924368	0.229219	-0.724099
C223	C	0.923927	0.178312	-0.696374
H224	H	0.924011	0.262265	-0.697385
H225	H	0.870032	0.231572	-0.749873
H226	H	0.979449	0.231505	-0.745567
H227	H	0.868882	0.175992	-0.674878
H228	H	0.978299	0.175981	-0.670629
H229	H	1.073001	-0.628600	-0.017810
H230	H	1.019497	-0.777408	-0.048457
H231	H	0.423464	-0.000028	-0.161042
O232	O	0.763234	-0.632860	-0.195055
C233	C	0.656346	-0.693138	-0.200901
C234	C	0.715257	-0.663740	-0.167212
H235	H	0.617530	-0.718103	-0.178403
H236	H	0.689738	-0.718179	-0.226430
H237	H	0.618120	-0.664862	-0.222814
H238	H	0.753499	-0.691979	-0.145267
H239	H	0.681817	-0.638691	-0.141714
O240	O	0.922661	0.137405	-0.630038
C241	C	0.854062	0.191113	-0.575749
C242	C	0.854538	0.140218	-0.603484
H243	H	0.798999	0.193399	-0.554266
H244	H	0.854462	0.224186	-0.602438
H245	H	0.908414	0.193417	-0.549986
H246	H	0.800196	0.137864	-0.629248
H247	H	0.854178	0.107169	-0.576768
H248	H	0.918071	0.083916	-0.342094
H249	H	0.916567	0.083918	-0.250559
H250	H	0.916519	-0.083933	-0.250546
H251	H	1.019445	-0.125758	-0.048489
H252	H	1.072992	-0.371461	-0.017822
O253	O	1.081443	-0.472606	-0.013069
C254	C	1.188344	-0.532865	-0.007213
C255	C	1.129428	-0.503477	-0.040907
H256	H	1.227167	-0.557823	-0.029706
H257	H	1.154957	-0.557913	0.018319
H258	H	1.226563	-0.504583	0.014698
H259	H	1.091194	-0.531722	-0.062848
H260	H	1.162864	-0.478421	-0.066407
H261	H	1.019497	-0.874317	-0.048455
H262	H	0.771653	-0.468361	-0.190315
H263	H	1.019447	-0.222652	-0.048473
O264	O	0.924196	-0.137524	-0.729430
C265	C	0.856652	-0.216571	-0.747563
C266	C	0.856260	-0.165667	-0.719839
H267	H	0.801724	-0.239334	-0.739827
H268	H	0.911147	-0.239428	-0.735466
H269	H	0.857354	-0.208616	-0.787953
H270	H	0.855530	-0.173576	-0.679444
H271	H	0.801770	-0.142825	-0.731976
O272	O	0.928021	-0.091242	-0.961584
C273	C	0.861214	-0.144893	-1.021256
C274	C	0.860845	-0.094012	-0.993493
H275	H	0.806917	-0.147145	-1.047068
H276	H	0.860709	-0.177980	-0.994588
H277	H	0.916330	-0.147205	-1.042689
H278	H	0.805738	-0.091650	-0.972059
H279	H	0.861391	-0.060949	-1.020185
H280	H	0.921875	0.130155	-0.574186
