data_functionalizedCrystal
_audit_creation_method	'MofGen! by Chris Wilmer'
_symmetry_space_group_name_H-M	'P1'
_symmetry_Int_Tables_number	1
_symmetry_cell_setting	triclinic
loop_
_symmetry_equiv_pos_as_xyz
  x,y,z
_cell_length_a	14.853567
_cell_length_b	19.188930
_cell_length_c	13.930277
_cell_angle_alpha	89.990320
_cell_angle_beta	89.995755
_cell_angle_gamma	83.389856
loop_
_atom_site_label
_atom_site_type_symbol
_atom_site_fract_x
_atom_site_fract_y
_atom_site_fract_z
O1	O	1.195862	0.091155	-0.079776
O2	O	1.695862	0.591155	0.420224
O3	O	0.933342	0.102014	-0.079794
O4	O	1.433342	0.602014	0.420206
O5	O	1.072177	-0.005046	-0.079766
O6	O	1.572177	0.494954	0.420234
O7	O	1.057026	0.198215	-0.079804
O8	O	1.557026	0.698215	0.420196
O9	O	1.072158	-0.005048	0.079896
O10	O	1.572158	0.494952	0.579896
O11	O	0.933322	0.102012	0.079868
O12	O	1.433322	0.602012	0.579868
O13	O	1.195842	0.091153	0.079886
O14	O	1.695842	0.591153	0.579886
Zn15	Zn	1.064579	0.096582	0.105227
Zn16	Zn	1.564579	0.596582	0.605227
Zn17	Zn	1.064605	0.096585	-0.105135
Zn18	Zn	1.564605	0.596585	0.394865
O19	O	1.057007	0.198213	0.079858
O20	O	1.557007	0.698213	0.579858
C21	C	0.899746	0.101521	0.000035
C22	C	1.399746	0.601521	0.500035
C23	C	0.799671	0.100046	0.000029
C24	C	1.299671	0.600046	0.500029
C25	C	0.387525	0.030218	0.000064
C26	C	0.887525	0.530218	0.500064
C27	C	0.365537	0.157407	0.000039
C28	C	0.865537	0.657407	0.500039
C29	C	0.459563	0.158794	0.000036
C30	C	0.959563	0.658794	0.500036
C31	C	0.517574	0.095891	0.000045
C32	C	1.017574	0.595891	0.500045
C33	C	0.481560	0.031602	0.000058
C34	C	0.981560	0.531602	0.500058
C35	C	0.495585	0.223081	0.000013
C36	C	0.995585	0.723081	0.500013
C37	C	0.589616	0.224470	0.000009
C38	C	1.089616	0.724470	0.500009
C39	C	0.647629	0.161567	0.000025
C40	C	1.147629	0.661567	0.500025
C41	C	0.611610	0.097276	0.000039
C42	C	1.111610	0.597276	0.500039
C43	C	0.669621	0.034373	0.000048
C44	C	1.169621	0.534373	0.500048
C45	C	0.633603	-0.029919	0.000069
C46	C	1.133603	0.470081	0.500069
C47	C	0.539574	-0.031301	0.000074
C48	C	1.039574	0.468699	0.500074
C49	C	0.741659	0.162949	0.000020
C50	C	1.241659	0.662949	0.500020
C51	C	0.763656	0.035757	0.000042
C52	C	1.263656	0.535757	0.500042
C53	C	1.071677	-0.031060	0.000068
C54	C	1.571677	0.468940	0.500068
C55	C	1.070204	-0.108569	0.000076
C56	C	1.570204	0.391431	0.500076
C57	C	1.151668	-0.153221	0.000086
C58	C	1.651668	0.346779	0.500086
C59	C	1.150285	-0.226050	0.000071
C60	C	1.650285	0.273950	0.500071
C61	C	1.067432	-0.254223	0.000065
C62	C	1.567432	0.245777	0.500065
C63	C	0.985957	-0.209561	0.000049
C64	C	1.485957	0.290439	0.500049
C65	C	0.987343	-0.136734	0.000055
C66	C	1.487343	0.363266	0.500055
N67	N	1.004095	-0.362440	0.054396
N68	N	1.504095	0.137560	0.554396
N69	N	1.002783	-0.431623	0.054393
N70	N	1.502783	0.068377	0.554393
C71	C	1.063251	-0.473645	0.000045
C72	C	1.563251	0.026355	0.500045
N73	N	1.125093	-0.443873	-0.054287
N74	N	1.625093	0.056127	0.445713
N75	N	1.126407	-0.374684	-0.054279
N76	N	1.626407	0.125316	0.445721
C77	C	1.065920	-0.333190	0.000058
C78	C	1.565920	0.166810	0.500058
C79	C	1.143220	-0.597267	0.000037
C80	C	1.643220	-0.097267	0.500037
C81	C	1.141833	-0.670096	0.000015
C82	C	1.641833	-0.170096	0.500015
C83	C	0.977503	-0.653606	0.000003
C84	C	1.477503	-0.153606	0.500003
C85	C	0.978893	-0.580778	0.000015
C86	C	1.478893	-0.080778	0.500015
C87	C	1.061754	-0.552613	0.000036
C88	C	1.561754	-0.052613	0.500036
C89	C	1.229438	0.091646	0.000055
C90	C	1.729438	0.591646	0.500055
C91	C	1.329513	0.093120	0.000055
C92	C	1.829513	0.593120	0.500055
C93	C	1.057507	0.224226	0.000022
C94	C	1.557507	0.724226	0.500022
C95	C	1.058980	0.301736	0.000008
C96	C	1.558980	0.801736	0.500008
N97	N	1.064569	0.096579	0.248793
N98	N	1.564569	0.596579	0.748793
N99	N	1.064623	0.096582	-0.248701
N100	N	1.564623	0.596582	0.251299
C101	C	1.003126	0.143972	0.701050
C102	C	1.503126	0.643972	1.201050
C103	C	1.126108	0.049192	0.701044
C104	C	1.626108	0.549192	1.201044
C105	C	1.126098	0.049190	0.600548
C106	C	1.626098	0.549190	1.100548
C107	C	1.064601	0.096580	0.550299
C108	C	1.564601	0.596580	1.050299
C109	C	1.003115	0.143973	0.600545
C110	C	1.503115	0.643973	1.100545
C111	C	1.187588	0.001803	0.550295
C112	C	1.687588	0.501803	1.050295
C113	C	1.187581	0.001799	0.449793
C114	C	1.687581	0.501799	0.949793
C115	C	1.126079	0.049187	0.399541
C116	C	1.626079	0.549187	0.899541
C117	C	1.064590	0.096581	0.449794
C118	C	1.564590	0.596581	0.949794
C119	C	1.003094	0.143971	0.399544
C120	C	1.503094	0.643971	0.899544
C121	C	0.941600	0.191363	0.449794
C122	C	1.441600	0.691363	0.949794
C123	C	0.941614	0.191361	0.550293
C124	C	1.441614	0.691361	1.050293
C125	C	1.126065	0.049189	0.299043
C126	C	1.626065	0.549189	0.799043
C127	C	1.003083	0.143972	0.299039
C128	C	1.503083	0.643972	0.799039
H129	H	0.770981	0.215294	0.000005
H130	H	1.270981	0.715294	0.500005
H131	H	0.680849	-0.081134	0.000070
H132	H	1.180849	0.418866	0.500070
N133	N	0.875267	0.242474	0.395597
N134	N	1.375267	0.742474	0.895597
H135	H	0.885446	0.292044	0.413071
H136	H	1.385446	0.792044	0.913071
H137	H	0.884629	0.235221	0.324324
H138	H	1.384629	0.735221	0.824324
N139	N	0.899478	-0.088564	0.000063
N140	N	1.399478	0.411436	0.500063
H141	H	0.896397	-0.057967	-0.059118
H142	H	1.396397	0.442033	0.440882
H143	H	0.846826	-0.117504	0.000092
H144	H	1.346826	0.382496	0.500092
N145	N	0.875299	0.242470	0.604499
N146	N	1.375299	0.742470	1.104499
H147	H	0.909634	0.273432	0.646178
H148	H	1.409634	0.773432	1.146178
H149	H	0.836350	0.272446	0.557363
H150	H	1.336350	0.772446	1.057363
N151	N	0.936797	0.195082	0.755239
N152	N	1.436797	0.695082	1.255239
H153	H	0.946129	0.187891	0.826531
H154	H	1.446129	0.687891	1.326531
H155	H	0.947009	0.244628	0.737661
H156	H	1.447009	0.744628	1.237661
H157	H	0.448345	0.274293	-0.000004
H158	H	0.948345	0.774293	0.499996
N159	N	1.238154	-0.274220	0.000102
N160	N	1.738154	0.225780	0.500102
H161	H	1.224701	-0.324629	0.000100
H162	H	1.724701	0.175371	0.500100
H163	H	1.274296	-0.265089	-0.059076
H164	H	1.774296	0.234911	0.440924
H165	H	1.237662	-0.036778	0.591211
H166	H	1.737662	0.463222	1.091211
H167	H	0.318299	0.208620	0.000023
H168	H	0.818299	0.708620	0.500023
N169	N	0.896593	-0.239942	0.000037
N170	N	1.396593	0.260058	0.500037
H171	H	0.908076	-0.292853	0.000038
H172	H	1.408076	0.207147	0.500038
H173	H	0.860948	-0.223619	0.059222
H174	H	1.360948	0.276381	0.559222
N175	N	1.192441	-0.001914	0.755236
N176	N	1.692441	0.498086	1.255236
H177	H	1.183120	0.005279	0.826527
H178	H	1.683120	0.505279	1.326527
H179	H	1.182224	-0.051461	0.737688
H180	H	1.682224	0.448539	1.237688
N181	N	0.891025	-0.532614	0.000026
N182	N	1.391025	-0.032614	0.500026
H183	H	0.904475	-0.482204	0.000032
H184	H	1.404475	0.017796	0.500032
H185	H	0.854908	-0.541733	-0.059165
H186	H	1.354908	-0.041733	0.440835
H187	H	1.210691	-0.574334	0.000050
H188	H	1.710691	-0.074334	0.500050
H189	H	1.237651	-0.036790	0.408885
H190	H	1.737651	0.463210	0.908885
N191	N	1.192388	-0.001914	0.244843
N192	N	1.692388	0.498086	0.744843
H193	H	1.231350	-0.031932	0.291926
H194	H	1.731350	0.468068	0.791926
H195	H	1.157999	-0.032833	0.203160
H196	H	1.657999	0.467167	0.703160
H197	H	0.510239	-0.083644	0.000114
H198	H	1.010239	0.416356	0.500114
N199	N	0.826217	-0.032092	0.000061
N200	N	1.326217	0.467908	0.500061
H201	H	0.814659	-0.060137	-0.059116
H202	H	1.314659	0.439863	0.440884
H203	H	0.891226	-0.021407	0.000089
H204	H	1.391226	0.478593	0.500089
H205	H	0.618933	0.276821	-0.000008
H206	H	1.118933	0.776821	0.499992
H207	H	0.910043	-0.676543	-0.000007
H208	H	1.410043	-0.176543	0.499993
H209	H	1.208174	-0.706452	0.000018
H210	H	1.708174	-0.206452	0.500018
H211	H	1.219140	-0.130295	0.000100
H212	H	1.719140	0.369705	0.500100
N213	N	0.348685	-0.039124	0.000099
N214	N	0.848685	0.460876	0.500099
H215	H	0.280315	-0.030460	0.000107
H216	H	0.780315	0.469540	0.500107
H217	H	0.369920	-0.066656	-0.059083
H218	H	0.869920	0.433344	0.440917
H219	H	0.953001	0.182561	0.258132
H220	H	1.453001	0.682561	0.758132
