data_functionalizedCrystal
_audit_creation_method	'MofGen! by Chris Wilmer'
_symmetry_space_group_name_H-M	'P1'
_symmetry_Int_Tables_number	1
_symmetry_cell_setting	triclinic
loop_
_symmetry_equiv_pos_as_xyz
  x,y,z
_cell_length_a	13.897449
_cell_length_b	12.827892
_cell_length_c	13.897449
_cell_angle_alpha	90.007969
_cell_angle_beta	90.005980
_cell_angle_gamma	90.016671
loop_
_atom_site_label
_atom_site_type_symbol
_atom_site_fract_x
_atom_site_fract_y
_atom_site_fract_z
Zn1	Zn	1.474578	-0.416174	0.545396
Zn2	Zn	1.807911	-0.082840	0.878730
Zn3	Zn	2.141244	0.250493	1.212063
Zn4	Zn	1.474520	-0.590884	0.384104
Zn5	Zn	1.807853	-0.257551	0.717438
Zn6	Zn	2.141186	0.075783	1.050771
Zn7	Zn	1.313308	-0.416161	0.384115
Zn8	Zn	1.646642	-0.082828	0.717448
Zn9	Zn	1.979975	0.250505	1.050781
Zn10	Zn	1.313255	-0.590877	0.545357
Zn11	Zn	1.646588	-0.257544	0.878690
Zn12	Zn	1.979922	0.075789	1.212023
O13	O	1.393915	-0.503524	0.464743
O14	O	1.727248	-0.170191	0.798076
O15	O	2.060582	0.163143	1.131410
O16	O	1.609551	-0.439357	0.524013
O17	O	1.942885	-0.106024	0.857346
O18	O	2.276218	0.227309	1.190679
O19	O	1.453133	-0.567704	0.249124
O20	O	1.786466	-0.234371	0.582457
O21	O	2.119799	0.098962	0.915791
O22	O	1.334748	-0.269927	0.405530
O23	O	1.668081	0.063406	0.738863
O24	O	2.001414	0.396740	1.072197
O25	O	1.609509	-0.567716	0.405512
O26	O	1.942842	-0.234383	0.738845
O27	O	2.276176	0.098950	1.072179
O28	O	1.453231	-0.269936	0.524023
O29	O	1.786565	0.063397	0.857356
O30	O	2.119898	0.396731	1.190689
O31	O	1.334691	-0.439336	0.249132
O32	O	1.668025	-0.106003	0.582465
O33	O	2.001358	0.227330	0.915798
O34	O	1.178320	-0.439330	0.405492
O35	O	1.511653	-0.105997	0.738825
O36	O	1.844986	0.227337	1.072158
O37	O	1.334657	-0.567705	0.680344
O38	O	1.667990	-0.234372	1.013677
O39	O	2.001323	0.098962	1.347010
O40	O	1.178280	-0.567693	0.523955
O41	O	1.511614	-0.234360	0.857289
O42	O	1.844947	0.098974	1.190622
O43	O	1.453180	-0.439351	0.680373
O44	O	1.786513	-0.106018	1.013706
O45	O	2.119846	0.227316	1.347039
O46	O	1.453081	-0.737119	0.405474
O47	O	1.786414	-0.403786	0.738807
O48	O	2.119748	-0.070452	1.072140
O49	O	1.334600	-0.737114	0.523945
O50	O	1.667934	-0.403781	0.857279
O51	O	2.001267	-0.070448	1.190612
C52	C	1.143301	-0.503510	0.464721
C53	C	1.476634	-0.170177	0.798054
C54	C	1.809967	0.163156	1.131388
C55	C	1.036087	-0.503529	0.464734
C56	C	1.369420	-0.170196	0.798068
C57	C	1.702753	0.163137	1.131401
C58	C	1.393855	-0.775034	0.464725
C59	C	1.727188	-0.441701	0.798058
C60	C	2.060521	-0.108367	1.131392
C61	C	1.393917	-0.891187	0.464750
C62	C	1.727250	-0.557854	0.798083
C63	C	2.060584	-0.224520	1.131416
C64	C	1.335435	-1.063095	0.406112
C65	C	1.668769	-0.729762	0.739445
C66	C	2.002102	-0.396428	1.072779
C67	C	1.335370	-0.943045	0.406085
C68	C	1.668703	-0.609711	0.739418
C69	C	2.002036	-0.276378	1.072752
C70	C	0.839792	-0.503533	0.464760
C71	C	1.173125	-0.170200	0.798093
C72	C	1.506458	0.163134	1.131426
C73	C	0.949024	-0.503528	0.464743
C74	C	1.282358	-0.170194	0.798076
C75	C	1.615691	0.163139	1.131410
C76	C	1.645508	-0.503539	0.464766
C77	C	1.978841	-0.170206	0.798099
C78	C	2.312175	0.163128	1.131432
C79	C	1.752722	-0.503545	0.464775
C80	C	2.086055	-0.170212	0.798109
C81	C	2.419389	0.163121	1.131442
C82	C	1.393919	-0.503528	0.716336
C83	C	1.727252	-0.170195	1.049669
C84	C	2.060585	0.163138	1.383003
C85	C	1.393920	-0.503530	0.823550
C86	C	1.727254	-0.170197	1.156883
C87	C	2.060587	0.163136	1.490216
C88	C	1.394002	-0.230954	0.464782
C89	C	1.727335	0.102379	0.798115
C90	C	2.060669	0.435713	1.131449
C91	C	1.394039	-0.114801	0.464799
C92	C	1.727372	0.218532	0.798132
C93	C	2.060706	0.551866	1.131465
C94	C	1.393896	-0.503535	1.019845
C95	C	1.727229	-0.170202	1.353178
C96	C	2.060563	0.163132	1.686512
C97	C	1.393906	-0.503535	0.910612
C98	C	1.727240	-0.170202	1.243946
C99	C	2.060573	0.163131	1.577279
C100	C	1.393902	-0.503541	1.214129
C101	C	1.727236	-0.170208	1.547462
C102	C	2.060569	0.163126	1.880795
C103	C	1.393895	-0.503533	1.106915
C104	C	1.727228	-0.170199	1.440248
C105	C	2.060561	0.163134	1.773581
H106	H	1.285308	-1.107704	0.355891
H107	H	1.618642	-0.774371	0.689225
H108	H	1.951975	-0.441038	1.022558
H109	H	1.285200	-0.898580	0.355837
H110	H	1.618534	-0.565246	0.689171
H111	H	1.951867	-0.231913	1.022504
H112	H	1.444096	-0.935647	0.514993
H113	H	1.777429	-0.602313	0.848326
H114	H	2.110763	-0.268980	1.181659
O115	O	1.453704	-1.061477	0.524766
O116	O	1.787038	-0.728143	0.858100
O117	O	2.120371	-0.394810	1.191433
C118	C	1.466399	-0.938101	0.654918
C119	C	1.799733	-0.604768	0.988251
C120	C	2.133066	-0.271435	1.321585
C121	C	1.398719	-0.998404	0.587048
C122	C	1.732052	-0.665071	0.920381
C123	C	2.065385	-0.331737	1.253714
H124	H	1.421970	-0.887109	0.705303
H125	H	1.755303	-0.553776	1.038636
H126	H	2.088636	-0.220443	1.371970
H127	H	1.516784	-0.886898	0.610678
H128	H	1.850117	-0.553565	0.944011
H129	H	2.183451	-0.220231	1.277344
H130	H	1.510556	-0.995722	0.699065
H131	H	1.843889	-0.662388	1.032398
H132	H	2.177223	-0.329055	1.365731
H133	H	1.354499	-0.940859	0.542887
H134	H	1.687833	-0.607526	0.876220
H135	H	2.021166	-0.274192	1.209553
H136	H	1.348397	-1.049623	0.631344
H137	H	1.681731	-0.716290	0.964677
H138	H	2.015064	-0.382956	1.298010
