data_functionalizedCrystal
_audit_creation_method	'MofGen! by Chris Wilmer'
_symmetry_space_group_name_H-M	'P1'
_symmetry_Int_Tables_number	1
_symmetry_cell_setting	triclinic
loop_
_symmetry_equiv_pos_as_xyz
  x,y,z
_cell_length_a	10.654534
_cell_length_b	17.038272
_cell_length_c	9.130313
_cell_angle_alpha	89.995195
_cell_angle_beta	90.004310
_cell_angle_gamma	92.205020
loop_
_atom_site_label
_atom_site_type_symbol
_atom_site_fract_x
_atom_site_fract_y
_atom_site_fract_z
O1	O	-1.678048	0.109818	-0.121829
O2	O	-1.313541	0.120300	-0.121826
O3	O	-1.493628	0.001232	-0.121816
O4	O	-1.497961	0.228886	-0.121839
O5	O	-1.493615	0.001228	0.121783
O6	O	-1.313527	0.120296	0.121773
O7	O	-1.678035	0.109815	0.121770
Cu8	Cu	-1.495780	0.115055	0.144014
Cu9	Cu	-1.495796	0.115059	-0.144070
O10	O	-1.497947	0.228883	0.121760
C11	C	-1.266664	0.119531	-0.000026
C12	C	-1.127007	0.117236	-0.000025
C13	C	-1.061394	0.116154	0.132764
C14	C	-0.930173	0.113985	0.132767
C15	C	-0.930188	0.113984	-0.132818
C16	C	-1.061407	0.116147	-0.132820
C17	C	-1.489681	-0.027920	-0.000017
C18	C	-1.477923	-0.114778	-0.000017
C19	C	-1.585868	-0.164294	-0.000016
C20	C	-1.574813	-0.245905	-0.000030
C21	C	-1.455813	-0.278001	-0.000034
C22	C	-1.347860	-0.228479	-0.000039
C23	C	-1.358916	-0.146869	-0.000036
C24	C	-1.416755	-0.523975	-0.000054
C25	C	-1.405707	-0.605592	-0.000053
C26	C	-1.632662	-0.623013	-0.000046
C27	C	-1.643707	-0.541400	-0.000034
C28	C	-1.535754	-0.491886	-0.000047
C29	C	-1.444511	-0.361421	-0.000044
C30	C	-1.547058	-0.408467	-0.000048
C31	C	-0.724910	0.110590	-0.000027
C32	C	-0.864566	0.112904	-0.000019
C33	C	-1.501895	0.258035	-0.000043
C34	C	-1.513652	0.344893	-0.000052
N35	N	-1.495778	0.115052	0.346636
N36	N	-1.495807	0.115056	-0.346693
C37	C	-1.575551	0.062351	0.423293
C38	C	-1.575563	0.062351	0.576630
C39	C	-1.416025	0.167760	0.576640
C40	C	-1.416007	0.167755	0.423306
H41	H	-1.682771	-0.138168	-0.000004
H42	H	-1.351079	0.210671	0.639080
H43	H	-1.114831	0.117026	-0.240958
H44	H	-0.876760	0.113098	-0.240934
H45	H	-1.662714	-0.286218	-0.000026
H46	H	-1.351040	0.210671	0.360888
C47	C	-0.858760	0.112928	0.276829
C48	C	-0.776434	0.178856	0.284564
C49	C	-0.710615	0.177900	0.417248
H50	H	-0.916474	0.113923	0.356037
H51	H	-0.812219	0.066564	0.282366
H52	H	-0.822971	0.225208	0.279042
H53	H	-0.718695	0.177875	0.205388
H54	H	-0.664075	0.131536	0.422785
H55	H	-0.768339	0.178893	0.496445
H56	H	-0.654742	0.222627	0.422508
C57	C	-1.661986	0.004981	0.340166
C58	C	-1.633350	-0.071999	0.377512
C59	C	-1.712934	-0.124880	0.300973
H60	H	-1.746800	0.013848	0.365223
H61	H	-1.650563	0.012453	0.237844
H62	H	-1.644784	-0.079467	0.479811
H63	H	-1.548551	-0.080891	0.352452
H64	H	-1.701511	-0.117408	0.198651
H65	H	-1.797743	-0.116006	0.326036
H66	H	-1.693508	-0.177116	0.326291
H67	H	-1.114802	0.117041	0.240894
H68	H	-1.640521	0.019436	0.639039
H69	H	-1.740609	-0.515275	-0.000031
C70	C	-1.676176	-0.373516	-0.000271
C71	C	-1.689146	-0.327149	-0.125577
C72	C	-1.808066	-0.294923	-0.125816
H73	H	-1.739007	-0.414608	-0.000342
H74	H	-1.685204	-0.342000	0.084635
H75	H	-1.680131	-0.358663	-0.210460
H76	H	-1.626343	-0.286044	-0.125533
H77	H	-1.817094	-0.263408	-0.040910
H78	H	-1.870887	-0.336021	-0.125883
H79	H	-1.816878	-0.263455	-0.210827
H80	H	-1.308798	-0.631720	-0.000032
C81	C	-1.749967	-0.676679	-0.000279
C82	C	-1.821134	-0.662060	-0.125589
C83	C	-1.929217	-0.711475	-0.125850
H84	H	-1.726520	-0.729906	-0.000359
H85	H	-1.798472	-0.666878	0.084624
H86	H	-1.772638	-0.671867	-0.210469
H87	H	-1.844613	-0.608843	-0.125535
H88	H	-1.977721	-0.701673	-0.040947
H89	H	-1.905757	-0.764698	-0.125926
H90	H	-1.977522	-0.701557	-0.210863
C91	C	-1.299402	-0.470355	0.000030
C92	C	-1.192826	-0.515934	0.000076
C93	C	-1.084693	-0.466562	0.000178
H94	H	-1.298814	-0.438134	-0.084893
H95	H	-1.298925	-0.438174	0.085015
H96	H	-1.193302	-0.548101	-0.084901
H97	H	-1.193372	-0.548153	0.084992
H98	H	-1.084216	-0.434381	0.085164
H99	H	-1.084118	-0.434343	-0.084746
H100	H	-1.012369	-0.497480	0.000223
C101	C	-1.218626	-0.263280	-0.000350
C102	C	-1.152878	-0.238184	-0.125697
C103	C	-1.033828	-0.270234	-0.126040
H104	H	-1.173650	-0.246352	0.084497
H105	H	-1.227449	-0.318980	-0.000427
H106	H	-1.144050	-0.182497	-0.125606
H107	H	-1.197815	-0.255111	-0.210564
H108	H	-1.042651	-0.325933	-0.126117
H109	H	-0.988864	-0.253303	-0.041187
H110	H	-0.989208	-0.253216	-0.211092
C111	C	-1.241762	-0.093068	-0.000335
C112	C	-1.241476	-0.045716	-0.125682
C113	C	-1.133563	0.003848	-0.126025
H114	H	-1.241237	-0.060799	0.084512
H115	H	-1.169272	-0.123841	-0.000415
H116	H	-1.313947	-0.014945	-0.125588
H117	H	-1.241981	-0.077964	-0.210550
H118	H	-1.061072	-0.026926	-0.126105
H119	H	-1.133047	0.036111	-0.041172
H120	H	-1.133348	0.035976	-0.211077
H121	H	-1.347620	-0.387562	-0.000044
