data_functionalizedCrystal
_audit_creation_method	'MofGen! by Chris Wilmer'
_symmetry_space_group_name_H-M	'P1'
_symmetry_Int_Tables_number	1
_symmetry_cell_setting	triclinic
loop_
_symmetry_equiv_pos_as_xyz
  x,y,z
_cell_length_a	19.121063
_cell_length_b	18.101398
_cell_length_c	19.121605
_cell_angle_alpha	92.444910
_cell_angle_beta	90.075163
_cell_angle_gamma	87.536641
loop_
_atom_site_label
_atom_site_type_symbol
_atom_site_fract_x
_atom_site_fract_y
_atom_site_fract_z
Zn1	Zn	-0.262316	-1.138672	-0.408103
Zn2	Zn	0.071018	-0.805339	-0.074770
Zn3	Zn	0.404351	-0.472006	0.258563
Zn4	Zn	-0.384556	-1.128035	-0.295862
Zn5	Zn	-0.051223	-0.794702	0.037472
Zn6	Zn	0.282110	-0.461368	0.370805
Zn7	Zn	-0.267325	-1.009341	-0.290902
Zn8	Zn	0.066009	-0.676008	0.042432
Zn9	Zn	0.399342	-0.342674	0.375765
Zn10	Zn	-0.379507	-1.009742	-0.413078
Zn11	Zn	-0.046174	-0.676408	-0.079745
Zn12	Zn	0.287159	-0.343075	0.253588
O13	O	-0.323426	-1.071447	-0.351986
O14	O	0.009907	-0.738114	-0.018653
O15	O	0.343241	-0.404781	0.314680
O16	O	-0.278548	-1.240893	-0.393208
O17	O	0.054785	-0.907560	-0.059875
O18	O	0.388119	-0.574226	0.273459
O19	O	-0.373215	-1.107670	-0.197099
O20	O	-0.039881	-0.774337	0.136235
O21	O	0.293452	-0.441004	0.469568
O22	O	-0.168553	-1.030781	-0.302291
O23	O	0.164780	-0.697448	0.031043
O24	O	0.498113	-0.364115	0.364376
O25	O	-0.368358	-1.233078	-0.310744
O26	O	-0.035024	-0.899744	0.022589
O27	O	0.298309	-0.566411	0.355922
O28	O	-0.164873	-1.125800	-0.388398
O29	O	0.168460	-0.792467	-0.055065
O30	O	0.501793	-0.459134	0.278268
O31	O	-0.287085	-1.020467	-0.193455
O32	O	0.046248	-0.687133	0.139879
O33	O	0.379582	-0.353800	0.473212
O34	O	-0.282189	-0.905762	-0.307115
O35	O	0.051144	-0.572429	0.026218
O36	O	0.384477	-0.239096	0.359552
O37	O	-0.359752	-1.031464	-0.510523
O38	O	-0.026419	-0.698131	-0.177190
O39	O	0.306914	-0.364797	0.156143
O40	O	-0.364609	-0.906057	-0.396878
O41	O	-0.031276	-0.572723	-0.063544
O42	O	0.302057	-0.239390	0.269789
O43	O	-0.273652	-1.126189	-0.506868
O44	O	0.059681	-0.792855	-0.173535
O45	O	0.393014	-0.459522	0.159798
O46	O	-0.481994	-1.108059	-0.315568
O47	O	-0.148660	-0.774726	0.017765
O48	O	0.184673	-0.441392	0.351098
O49	O	-0.478284	-1.021149	-0.401687
O50	O	-0.144951	-0.687816	-0.068354
O51	O	0.188383	-0.354483	0.264980
C52	C	-0.323396	-0.879039	-0.351998
C53	C	0.009938	-0.545705	-0.018665
C54	C	0.343271	-0.212372	0.314668
C55	C	-0.323399	-0.796726	-0.352021
C56	C	0.009935	-0.463392	-0.018688
C57	C	0.343268	-0.130059	0.314646
C58	C	-0.323437	-0.497632	-0.351999
C59	C	0.009896	-0.164299	-0.018666
C60	C	0.343229	0.169035	0.314668
C61	C	-0.375567	-0.529143	-0.408218
C62	C	-0.042234	-0.195810	-0.074885
C63	C	0.291099	0.137524	0.258448
C64	C	-0.375389	-0.614779	-0.408431
C65	C	-0.042055	-0.281446	-0.075098
C66	C	0.291278	0.051888	0.258236
C67	C	-0.323419	-0.646016	-0.352010
C68	C	0.009915	-0.312682	-0.018677
C69	C	0.343248	0.020651	0.314657
C70	C	-0.248715	-0.619083	-0.369055
C71	C	0.084618	-0.285749	-0.035721
C72	C	0.417952	0.047584	0.297612
C73	C	-0.249025	-0.533442	-0.369453
C74	C	0.084309	-0.200108	-0.036120
C75	C	0.417642	0.133225	0.297213
C76	C	-0.345365	-0.524896	-0.278576
C77	C	-0.012032	-0.191562	0.054757
C78	C	0.321301	0.141771	0.388090
C79	C	-0.346970	-0.610495	-0.279040
C80	C	-0.013637	-0.277161	0.054293
C81	C	0.319697	0.056172	0.387626
C82	C	-0.323404	-0.729876	-0.352015
C83	C	0.009930	-0.396543	-0.018681
C84	C	0.343263	-0.063209	0.314652
C85	C	-0.323447	-0.413772	-0.351996
C86	C	0.009886	-0.080438	-0.018662
C87	C	0.343220	0.252895	0.314671
C88	C	-0.505576	-1.063514	-0.359721
C89	C	-0.172243	-0.730181	-0.026388
C90	C	0.161090	-0.396847	0.306946
C91	C	-0.583500	-1.060189	-0.363054
C92	C	-0.250167	-0.726856	-0.029720
C93	C	0.083167	-0.393522	0.303613
C94	C	-0.622015	-1.103915	-0.319819
C95	C	-0.288682	-0.770581	0.013514
C96	C	0.044652	-0.437248	0.346848
C97	C	-0.695232	-1.100792	-0.322957
C98	C	-0.361899	-0.767459	0.010376
C99	C	-0.028566	-0.434125	0.343709
C100	C	-0.729933	-1.053939	-0.369327
C101	C	-0.396600	-0.720606	-0.035994
C102	C	-0.063266	-0.387273	0.297340
C103	C	-0.691413	-1.010212	-0.412567
C104	C	-0.358079	-0.676879	-0.079233
C105	C	-0.024746	-0.343545	0.254100
C106	C	-0.618197	-1.013339	-0.409431
C107	C	-0.284863	-0.680006	-0.076098
C108	C	0.048470	-0.346672	0.257235
C109	C	-0.950903	-1.042235	-0.381038
C110	C	-0.617569	-0.708902	-0.047705
C111	C	-0.284236	-0.375569	0.285629
C112	C	-1.024124	-1.039110	-0.384169
C113	C	-0.690791	-0.705777	-0.050835
C114	C	-0.357457	-0.372443	0.282498
C115	C	-1.027938	-1.129691	-0.294560
C116	C	-0.694605	-0.796358	0.038774
C117	C	-0.361272	-0.463025	0.372107
C118	C	-0.954721	-1.132811	-0.291426
C119	C	-0.621388	-0.799478	0.041908
C120	C	-0.288054	-0.466144	0.375241
C121	C	-0.916207	-1.089087	-0.334668
C122	C	-0.582873	-0.755753	-0.001334
C123	C	-0.249540	-0.422420	0.331999
C124	C	-0.804773	-1.050744	-0.372535
C125	C	-0.471440	-0.717411	-0.039201
C126	C	-0.138106	-0.384078	0.294132
C127	C	-0.841368	-1.092286	-0.331463
C128	C	-0.508035	-0.758952	0.001870
C129	C	-0.174702	-0.425619	0.335203
C130	C	-0.140564	-1.079433	-0.344236
C131	C	0.192769	-0.746099	-0.010903
C132	C	0.526103	-0.412766	0.322430
C133	C	-0.062639	-1.082836	-0.340934
C134	C	0.270694	-0.749502	-0.007601
C135	C	0.604028	-0.416169	0.325733
C136	C	-0.315580	-1.080058	-0.534845
C137	C	0.017753	-0.746724	-0.201511
C138	C	0.351086	-0.413391	0.131822
C139	C	-0.312237	-1.083727	-0.612768
C140	C	0.021096	-0.750393	-0.279435
C141	C	0.354430	-0.417060	0.053899
C142	C	-0.323454	-0.264608	-0.351979
C143	C	0.009879	0.068726	-0.018646
C144	C	0.343213	0.402059	0.314688
C145	C	-0.323457	-0.346922	-0.351988
C146	C	0.009876	-0.013589	-0.018655
C147	C	0.343209	0.319745	0.314679
C148	C	-0.291082	-1.106990	-1.053392
C149	C	0.042251	-0.773657	-0.720059
C150	C	0.375585	-0.440323	-0.386725
C151	C	-0.294227	-1.103538	-0.980175
C152	C	0.039107	-0.770204	-0.646841
C153	C	0.372440	-0.436871	-0.313508
C154	C	-0.340623	-1.052490	-0.945472
C155	C	-0.007290	-0.719156	-0.612139
C156	C	0.326044	-0.385823	-0.278806
C157	C	-0.383882	-1.004896	-0.983992
C158	C	-0.050549	-0.671563	-0.650658
C159	C	0.282785	-0.338230	-0.317325
C160	C	-0.380740	-1.008353	-1.057207
C161	C	-0.047407	-0.675019	-0.723874
C162	C	0.285926	-0.341686	-0.390541
C163	C	-0.352355	-1.039590	-0.724503
C164	C	-0.019021	-0.706256	-0.391170
C165	C	0.314312	-0.372923	-0.057836
C166	C	-0.355492	-1.036135	-0.651282
C167	C	-0.022158	-0.702802	-0.317948
C168	C	0.311175	-0.369469	0.015385
C169	C	-0.265837	-1.134778	-0.647470
C170	C	0.067497	-0.801445	-0.314137
C171	C	0.400830	-0.468111	0.019197
C172	C	-0.262696	-1.138227	-0.720687
C173	C	0.070637	-0.804894	-0.387354
C174	C	0.403971	-0.471560	-0.054021
C175	C	-0.305958	-1.090636	-0.759200
C176	C	0.027375	-0.757303	-0.425867
C177	C	0.360709	-0.423969	-0.092534
C178	C	-0.343837	-1.048958	-0.870633
C179	C	-0.010504	-0.715625	-0.537299
C180	C	0.322830	-0.382292	-0.203966
C181	C	-0.302747	-1.094172	-0.834039
C182	C	0.030586	-0.760838	-0.500705
C183	C	0.363920	-0.427505	-0.167372
C184	C	-0.331191	-1.062916	-0.169837
C185	C	0.002143	-0.729582	0.163496
C186	C	0.335476	-0.396249	0.496830
C187	C	-0.334336	-1.059398	-0.091906
C188	C	-0.001003	-0.726065	0.241428
C189	C	0.332330	-0.392732	0.574761
H190	H	-0.208615	-0.512772	-0.330205
H191	H	0.124718	-0.179438	0.003128
H192	H	0.458051	0.153895	0.336461
H193	H	-0.360979	-0.510721	-0.462372
H194	H	-0.027646	-0.177388	-0.129039
H195	H	0.305688	0.155946	0.204295
H196	H	-0.430687	-0.632827	-0.398109
H197	H	-0.097353	-0.299493	-0.064776
H198	H	0.235980	0.033840	0.268557
H199	H	-0.431038	-0.505579	-0.398047
H200	H	-0.097704	-0.172246	-0.064713
H201	H	0.235629	0.161087	0.268620
H202	H	-0.360629	-0.638391	-0.462895
H203	H	-0.027296	-0.305058	-0.129562
H204	H	0.306037	0.028275	0.203772
N205	N	-0.803939	-1.142816	-0.281453
N206	N	-0.470606	-0.809482	0.051881
N207	N	-0.137273	-0.476149	0.385214
H208	H	-0.818856	-1.128451	-0.231900
H209	H	-0.485523	-0.795118	0.101433
H210	H	-0.152190	-0.461784	0.434767
H211	H	-0.816181	-1.195676	-0.292978
H212	H	-0.482847	-0.862342	0.040356
H213	H	-0.149514	-0.529009	0.373689
H214	H	-0.381612	-1.007394	-0.842370
H215	H	-0.048278	-0.674060	-0.509037
H216	H	0.285055	-0.340727	-0.175703
H217	H	-0.421662	-0.963335	-0.955731
H218	H	-0.088329	-0.630002	-0.622398
H219	H	0.245005	-0.296669	-0.289065
H220	H	-0.230796	-0.516706	-0.423035
H221	H	0.102537	-0.183373	-0.089702
H222	H	0.435870	0.149960	0.243632
N223	N	-1.061554	-0.988573	-0.434184
N224	N	-0.728221	-0.655240	-0.100850
N225	N	-0.394887	-0.321907	0.232483
H226	H	-1.026046	-0.961349	-0.461103
H227	H	-0.692713	-0.628016	-0.127770
H228	H	-0.359380	-0.294683	0.205564
H229	H	-1.090507	-1.018927	-0.467942
H230	H	-0.757174	-0.685593	-0.134609
H231	H	-0.423840	-0.352260	0.198724
H232	H	-0.719672	-0.972067	-0.450325
H233	H	-0.386338	-0.638733	-0.116992
H234	H	-0.053005	-0.305400	0.216342
H235	H	-0.726588	-1.136397	-0.287750
H236	H	-0.393255	-0.803064	0.045583
H237	H	-0.059921	-0.469731	0.378916
N238	N	-0.195685	-0.646066	-0.316328
N239	N	0.137649	-0.312733	0.017005
N240	N	0.470982	0.020600	0.350339
H241	H	-0.219633	-0.676082	-0.280800
H242	H	0.113701	-0.342749	0.052533
H243	H	0.447034	-0.009415	0.385866
H244	H	-0.157988	-0.677929	-0.341192
H245	H	0.175345	-0.344595	-0.007859
H246	H	0.508679	-0.011262	0.325474
N247	N	-0.224217	-0.651761	-0.439230
N248	N	0.109116	-0.318428	-0.105897
N249	N	0.442450	0.014905	0.227436
H250	H	-0.261392	-0.684014	-0.460078
H251	H	0.071941	-0.350681	-0.126744
H252	H	0.405275	-0.017347	0.206589
H253	H	-0.215305	-0.610528	-0.471606
H254	H	0.118029	-0.277194	-0.138272
H255	H	0.451362	0.056139	0.195061
N256	N	-0.909368	-0.995071	-0.427669
N257	N	-0.576035	-0.661738	-0.094336
N258	N	-0.242701	-0.328405	0.238997
H259	H	-0.942463	-0.964913	-0.457515
H260	H	-0.609130	-0.631580	-0.124181
H261	H	-0.275796	-0.298246	0.209152
H262	H	-0.880253	-0.960776	-0.397806
H263	H	-0.546920	-0.627443	-0.064473
H264	H	-0.213586	-0.294109	0.268861
N265	N	-0.584588	-1.154453	-0.269810
N266	N	-0.251254	-0.821119	0.063523
N267	N	0.082079	-0.487786	0.396856
H268	H	-0.555640	-1.124153	-0.235999
H269	H	-0.222307	-0.790819	0.097334
H270	H	0.111027	-0.457486	0.430667
H271	H	-0.620140	-1.181672	-0.242948
H272	H	-0.286807	-0.848338	0.090385
H273	H	0.046526	-0.515005	0.423718
N274	N	-0.917294	-1.183356	-0.241423
N275	N	-0.583961	-0.850023	0.091910
N276	N	-0.250628	-0.516689	0.425244
H277	H	-0.952804	-1.210588	-0.214513
H278	H	-0.619471	-0.877255	0.118820
H279	H	-0.286137	-0.543921	0.452153
H280	H	-0.885660	-1.220242	-0.268694
H281	H	-0.552327	-0.886909	0.064640
H282	H	-0.218994	-0.553576	0.397973
N283	N	-0.842204	-1.000203	-0.422537
N284	N	-0.508870	-0.666869	-0.089204
N285	N	-0.175537	-0.333536	0.244129
H286	H	-0.806698	-0.972971	-0.449451
H287	H	-0.473364	-0.639637	-0.116118
H288	H	-0.140031	-0.306304	0.217215
H289	H	-0.871154	-1.030553	-0.456302
H290	H	-0.537820	-0.697220	-0.122968
H291	H	-0.204487	-0.363886	0.210365
N292	N	-0.416498	-0.492104	-0.257247
N293	N	-0.083165	-0.158771	0.076087
N294	N	0.250168	0.174563	0.409420
H295	H	-0.435230	-0.459237	-0.294967
H296	H	-0.101897	-0.125904	0.038366
H297	H	0.231436	0.207429	0.371699
H298	H	-0.449564	-0.533264	-0.250561
H299	H	-0.116231	-0.199930	0.082772
H300	H	0.217102	0.133403	0.416106
H301	H	-1.059304	-1.165290	-0.259356
H302	H	-0.725971	-0.831957	0.073978
H303	H	-0.392638	-0.498624	0.407311
N304	N	-0.219189	-1.186114	-0.605930
N305	N	0.114144	-0.852781	-0.272597
N306	N	0.447477	-0.519448	0.060736
H307	H	-0.189323	-1.218978	-0.639024
H308	H	0.144011	-0.885645	-0.305691
H309	H	0.477344	-0.552311	0.027642
H310	H	-0.188040	-1.155959	-0.574181
H311	H	0.145294	-0.822625	-0.240847
H312	H	0.478627	-0.489292	0.092486
N313	N	-0.241033	-1.162046	-1.090811
N314	N	0.092301	-0.828713	-0.757478
N315	N	0.425634	-0.495380	-0.424145
H316	H	-0.252479	-1.213881	-1.078522
H317	H	0.080854	-0.880548	-0.745189
H318	H	0.414187	-0.547214	-0.411856
H319	H	-0.245622	-1.156953	-1.143027
H320	H	0.087711	-0.823619	-0.809693
H321	H	0.421045	-0.490286	-0.476360
N322	N	-0.576652	-0.966181	-0.456065
N323	N	-0.243318	-0.632848	-0.122732
N324	N	0.090015	-0.299514	0.210602
H325	H	-0.609743	-0.936024	-0.485915
H326	H	-0.276410	-0.602691	-0.152582
H327	H	0.056924	-0.269358	0.180751
H328	H	-0.547533	-0.931885	-0.426206
H329	H	-0.214200	-0.598551	-0.092873
H330	H	0.119133	-0.265218	0.240461
N331	N	-0.427396	-0.957026	-1.098751
N332	N	-0.094063	-0.623692	-0.765418
N333	N	0.239271	-0.290359	-0.432084
H334	H	-0.457264	-0.924161	-1.065659
H335	H	-0.123931	-0.590828	-0.732326
H336	H	0.209402	-0.257495	-0.398992
H337	H	-0.397549	-0.925436	-1.127927
H338	H	-0.064216	-0.592103	-0.794594
H339	H	0.269117	-0.258769	-0.461261
N340	N	-0.295124	-0.497821	-0.223141
N341	N	0.038209	-0.164488	0.110192
N342	N	0.371542	0.168846	0.443526
H343	H	-0.321584	-0.465675	-0.186741
H344	H	0.011749	-0.132341	0.146592
H345	H	0.345082	0.200992	0.479925
H346	H	-0.271801	-0.541642	-0.200159
H347	H	0.061532	-0.208308	0.133174
H348	H	0.394866	0.125025	0.466508
N349	N	-0.247576	-1.154870	-0.938634
N350	N	0.085757	-0.821537	-0.605301
N351	N	0.419090	-0.488204	-0.271967
H352	H	-0.217705	-1.187730	-0.971728
H353	H	0.115628	-0.854397	-0.638394
H354	H	0.448961	-0.521064	-0.305061
H355	H	-0.216431	-1.124711	-0.906884
H356	H	0.116902	-0.791377	-0.573550
H357	H	0.450236	-0.458044	-0.240217
N358	N	-0.419778	-0.633405	-0.261897
N359	N	-0.086444	-0.300072	0.071437
N360	N	0.246889	0.033261	0.404770
H361	H	-0.437442	-0.666648	-0.301232
H362	H	-0.104108	-0.333314	0.032101
H363	H	0.229225	0.000019	0.365435
H364	H	-0.418496	-0.660942	-0.217043
H365	H	-0.085163	-0.327609	0.116290
H366	H	0.248171	0.005725	0.449623
H367	H	-0.393260	-0.994549	-0.623029
H368	H	-0.059926	-0.661215	-0.289696
H369	H	0.273407	-0.327882	0.043638
N370	N	-0.399011	-0.988260	-0.766036
N371	N	-0.065678	-0.654927	-0.432703
N372	N	0.267655	-0.321593	-0.099370
H373	H	-0.428876	-0.955396	-0.732941
H374	H	-0.095542	-0.622063	-0.399607
H375	H	0.237791	-0.288729	-0.066274
H376	H	-0.369163	-0.956671	-0.795211
H377	H	-0.035830	-0.623337	-0.461878
H378	H	0.297503	-0.290004	-0.128545
H379	H	-0.264974	-1.135737	-0.862297
H380	H	0.068359	-0.802404	-0.528963
H381	H	0.401693	-0.469070	-0.195630
N382	N	-0.212639	-1.193269	-0.758114
N383	N	0.120695	-0.859936	-0.424781
N384	N	0.454028	-0.526603	-0.091448
H385	H	-0.185709	-1.222891	-0.722605
H386	H	0.147624	-0.889558	-0.389272
H387	H	0.480958	-0.556224	-0.055939
H388	H	-0.239865	-1.227733	-0.789705
H389	H	0.093468	-0.894400	-0.456371
H390	H	0.426802	-0.561066	-0.123038
H391	H	-0.312010	-0.631494	-0.235156
H392	H	0.021323	-0.298160	0.098177
H393	H	0.354656	0.035173	0.431510
