data_functionalizedCrystal
_audit_creation_method	'MofGen! by Chris Wilmer'
_symmetry_space_group_name_H-M	'P1'
_symmetry_Int_Tables_number	1
_symmetry_cell_setting	triclinic
loop_
_symmetry_equiv_pos_as_xyz
  x,y,z
_cell_length_a	19.377372
_cell_length_b	14.628931
_cell_length_c	19.376995
_cell_angle_alpha	48.618805
_cell_angle_beta	93.591866
_cell_angle_gamma	72.113075
loop_
_atom_site_label
_atom_site_type_symbol
_atom_site_fract_x
_atom_site_fract_y
_atom_site_fract_z
Zr1	Zr	0.544060	1.366352	-0.236161
O2	O	0.430240	1.557068	-0.349983
O3	O	0.578952	1.175643	-0.201268
O4	O	0.551764	1.436075	-0.377164
O5	O	0.478874	1.241634	-0.035338
O6	O	0.647625	1.491066	-0.398605
O7	O	0.457428	1.296636	-0.174087
O8	O	0.696259	1.025200	-0.083960
O9	O	0.430240	1.707500	-0.349983
O10	O	0.665373	1.295120	-0.202389
O11	O	0.609838	1.213035	-0.082840
O12	O	0.577828	1.519660	-0.289935
O13	O	0.522293	1.437574	-0.170386
Zr14	Zr	0.731151	1.366335	-0.049068
Zr15	Zr	0.696947	1.454056	-0.270357
Zr16	Zr	0.578265	1.278631	-0.014872
Zr17	Zr	0.544060	1.606273	-0.236161
Zr18	Zr	0.731151	1.126413	-0.049068
O19	O	0.696259	1.557044	-0.083961
O20	O	0.647625	1.681771	-0.398605
O21	O	0.478874	1.432340	-0.035338
O22	O	0.844972	1.175619	0.064754
O23	O	0.796337	1.300346	-0.249891
O24	O	0.627586	1.050915	0.113376
O25	O	0.796337	1.491052	-0.249891
O26	O	0.723447	1.296612	0.091935
O27	O	0.627587	1.241621	0.113376
O28	O	0.817784	1.436051	-0.111142
O29	O	0.551764	1.777213	-0.377164
O30	O	0.723447	0.955474	0.091935
O31	O	0.844972	1.025187	0.064754
O32	O	0.817783	1.094913	-0.111141
O33	O	0.457428	1.637774	-0.174088
O34	O	0.578952	1.707486	-0.201269
O35	O	0.697383	1.213027	0.004705
O36	O	0.752918	1.295112	-0.114843
O37	O	0.665373	1.519652	-0.202389
O38	O	0.609838	1.437566	-0.082841
C39	C	0.637605	1.066238	-0.142614
C40	C	0.637605	0.964385	-0.142614
C41	C	0.665154	0.959695	-0.201918
C42	C	0.665155	0.854426	-0.201919
C43	C	0.446368	1.256639	-0.099840
C44	C	0.381463	1.219407	-0.085323
C45	C	-0.060482	1.682979	-0.266070
C46	C	-0.121457	1.647961	-0.252416
C47	C	-0.030058	1.413560	-0.161025
C48	C	0.030927	1.448555	-0.174667
C49	C	0.015708	1.583267	-0.227192
C50	C	0.107118	1.348844	-0.135788
C51	C	0.168096	1.383839	-0.149434
C52	C	0.152885	1.518546	-0.201959
C53	C	0.076687	1.618263	-0.240838
C54	C	0.122334	1.214135	-0.083270
C55	C	0.198524	1.114424	-0.044392
C56	C	0.259506	1.149416	-0.058031
C57	C	0.244294	1.284122	-0.110556
C58	C	0.335703	1.049699	-0.019153
C59	C	0.396682	1.084694	-0.032799
C60	C	0.305273	1.319118	-0.124202
C61	C	0.828844	1.476047	-0.185389
C62	C	0.893748	1.513280	-0.199906
C63	C	0.594821	1.476069	-0.419413
C64	C	0.580300	1.513308	-0.513356
C65	C	0.637606	1.666449	-0.142615
C66	C	0.637606	1.768302	-0.142615
C67	C	0.514140	1.682996	-0.691461
C68	C	0.527790	1.647989	-0.603182
C69	C	0.619185	1.413581	-0.511781
C70	C	0.605546	1.448569	-0.600055
C71	C	0.553022	1.583278	-0.689889
C72	C	0.644428	1.348852	-0.598483
C73	C	0.630787	1.383836	-0.686748
C74	C	0.578264	1.518538	-0.776585
C75	C	0.539381	1.618262	-0.778155
C76	C	0.696948	1.214141	-0.508646
C77	C	0.735830	1.114424	-0.507074
C78	C	0.722193	1.149410	-0.595342
C79	C	0.669670	1.284111	-0.685179
C80	C	0.761076	1.049685	-0.593773
C81	C	0.747435	1.084669	-0.682038
C82	C	0.656029	1.319095	-0.773444
C83	C	0.680390	1.256618	0.134184
C84	C	0.694911	1.219378	0.228127
C85	C	0.828843	1.175942	-0.185388
C86	C	0.893748	1.111321	-0.199905
C87	C	0.680390	0.956512	0.134185
C88	C	0.694911	0.817420	0.228128
C89	C	0.871628	1.066216	0.091410
C90	C	0.951053	0.964356	0.170836
C91	C	0.403583	1.666470	-0.376640
C92	C	0.324158	1.768330	-0.456066
C93	C	0.446368	1.556745	-0.099841
C94	C	0.381464	1.621365	-0.085324
C95	C	0.594821	1.776174	-0.419414
C96	C	0.580301	1.915267	-0.513357
C97	C	0.878528	1.080983	-0.252430
C98	C	0.939504	1.020283	-0.266090
C99	C	1.015699	0.989914	-0.227218
C100	C	1.030917	1.020261	-0.174691
C101	C	0.969941	1.080968	-0.161039
C102	C	0.747429	0.752092	0.317952
C103	C	0.761071	0.621408	0.406230
C104	C	0.722199	0.556050	0.404682
C105	C	0.669675	0.621388	0.314849
C106	C	0.656029	0.752074	0.226573
C107	C	1.017347	0.959373	0.145731
C108	C	1.091980	0.863685	0.220351
C109	C	1.100317	0.772974	0.320074
C110	C	1.034016	0.777963	0.345179
C111	C	0.959385	0.873657	0.270560
C112	C	0.257864	1.773325	-0.430961
C113	C	0.183232	1.869043	-0.505580
C114	C	0.174894	1.959759	-0.605304
C115	C	0.241195	1.954764	-0.630408
C116	C	0.315827	1.859053	-0.555790
C117	C	0.396681	1.651717	-0.032809
C118	C	0.335702	1.712453	-0.019173
C119	C	0.259507	1.742827	-0.058048
C120	C	0.244289	1.712474	-0.110570
C121	C	0.305267	1.651748	-0.124211
C122	C	0.619185	1.980586	-0.511777
C123	C	0.605557	2.111271	-0.600041
C124	C	0.553039	2.176638	-0.689883
C125	C	0.514154	2.111307	-0.691461
C126	C	0.527786	1.980621	-0.603199
H127	H	0.688737	0.850243	-0.252696
Br128	Br	0.356372	1.753629	0.052111
H129	H	1.145957	0.859638	0.199892
Br130	Br	1.201609	0.643110	0.421332
H131	H	0.614015	0.772488	-0.091844
Br132	Br	0.918834	0.979107	-0.337374
Br133	Br	0.176759	1.825241	-0.039527
H134	H	0.182243	1.737213	-0.142219
H135	H	0.614022	0.890462	-0.091841
H136	H	1.065342	0.940481	-0.238341
H137	H	0.496120	1.729199	-0.604472
H138	H	0.292866	1.627034	-0.166970
H139	H	0.369802	1.854993	-0.576243
H140	H	0.264638	1.699463	-0.349765
H141	H	1.040816	0.704094	0.426384
H142	H	0.905410	0.877695	0.291016
Br143	Br	-0.224866	1.783306	-0.305200
Br144	Br	1.134330	0.979032	-0.121939
Br145	Br	0.229867	2.077886	-0.765754
H146	H	0.496616	1.727959	-0.851307
Br147	Br	0.690463	1.891903	-0.389861
H148	H	0.688744	1.033608	-0.252686
Br149	Br	1.006053	1.082474	0.010398
H150	H	0.292883	1.428802	-0.166942
Br151	Br	0.235640	1.566048	-0.220488
H152	H	0.567157	1.547018	-0.848455
Br153	Br	0.093265	1.875795	-0.471487
H154	H	0.637224	2.164446	-0.598737
H155	H	0.982345	1.105659	-0.118263
Br156	Br	0.534545	2.354001	-0.809660
Br157	Br	0.475000	1.891996	-0.605359
H158	H	0.816490	1.105717	-0.284099
H159	H	0.471393	2.164549	-0.764622
H160	H	0.064297	1.727947	-0.283578
Br161	Br	-0.081128	1.865798	-0.337338
H162	H	0.210905	1.004743	-0.001629
H163	H	0.779086	0.805291	0.319231
Br164	Br	0.832357	0.532762	0.528132
Br165	Br	0.442871	1.865825	-0.813391
Br166	Br	0.073602	2.089646	-0.706562
H167	H	0.733317	0.449637	0.476569
H168	H	0.638028	0.568153	0.313603
Br169	Br	-0.009413	1.230744	-0.089748
H170	H	0.072677	1.185650	-0.072169
Br171	Br	0.500083	1.610515	0.019957
H172	H	0.348082	0.940021	0.023604
H173	H	0.458724	1.003493	-0.001123
H174	H	0.778593	1.004743	-0.433920
Br175	Br	0.800200	0.949336	-0.679909
H176	H	0.613263	1.428792	-0.846597
H177	H	0.708048	1.185659	-0.436776
Br178	Br	0.690461	1.230766	-0.389858
Br179	Br	0.584752	0.840713	0.104673
Br180	Br	0.832344	0.866867	-0.471846
