data_functionalizedCrystal
_audit_creation_method	'MofGen! by Chris Wilmer'
_symmetry_space_group_name_H-M	'P1'
_symmetry_Int_Tables_number	1
_symmetry_cell_setting	triclinic
loop_
_symmetry_equiv_pos_as_xyz
  x,y,z
_cell_length_a	15.944493
_cell_length_b	15.944493
_cell_length_c	13.448316
_cell_angle_alpha	89.993805
_cell_angle_beta	90.012083
_cell_angle_gamma	96.524956
loop_
_atom_site_label
_atom_site_type_symbol
_atom_site_fract_x
_atom_site_fract_y
_atom_site_fract_z
O1	O	-0.108105	1.114535	-0.082691
O2	O	-0.121513	0.869975	-0.082697
O3	O	0.007471	0.998959	-0.082674
O4	O	-0.237088	0.985551	-0.082715
O5	O	0.007479	0.998943	0.082710
O6	O	-0.121505	0.869959	0.082686
O7	O	-0.108097	1.114518	0.082693
Cu8	Cu	-0.114800	0.992237	0.097791
Cu9	Cu	-0.114809	0.992256	-0.097795
O10	O	-0.237080	0.985535	0.082669
C11	C	-0.120961	0.838673	-0.000006
C12	C	-0.119318	0.745424	-0.000007
C13	C	-0.195240	0.509649	-0.000021
C14	C	-0.154294	0.459091	0.081533
C15	C	-0.116273	0.574704	-0.000005
C16	C	-0.154283	0.459111	-0.081522
C17	C	-0.113339	0.409795	-0.000007
C18	C	-0.075349	0.525374	0.081616
C19	C	-0.075350	0.525398	-0.081512
C20	C	-0.034346	0.474873	0.000062
C21	C	-0.117966	0.669704	-0.000003
C22	C	-0.111640	0.314798	-0.000002
C23	C	-0.268379	0.986091	-0.000028
C24	C	-0.361627	0.987734	-0.000044
C25	C	-0.597403	0.911812	-0.000013
C26	C	-0.647976	0.952762	-0.081550
C27	C	-0.532348	0.990778	-0.000021
C28	C	-0.647925	0.952764	0.081505
C29	C	-0.697257	0.993713	0.000006
C30	C	-0.581692	1.031707	-0.081625
C31	C	-0.581638	1.031698	0.081503
C32	C	-0.632178	1.072706	-0.000054
C33	C	-0.437348	0.989085	-0.000037
C34	C	-0.792253	0.995412	0.000015
C35	C	0.038769	0.998403	0.000021
C36	C	0.132018	0.996760	0.000031
C37	C	-0.108649	1.145821	-0.000001
C38	C	-0.110292	1.239069	-0.000006
N39	N	-0.114793	0.992230	0.235355
N40	N	-0.114810	0.992270	-0.235359
C41	C	-0.057703	1.049361	0.287406
C42	C	-0.057702	1.049367	0.391509
C43	C	-0.114796	0.992244	0.443559
C44	C	-0.171889	0.935106	0.391501
C45	C	-0.171885	0.935098	0.287400
C46	C	-0.171895	0.935130	0.608481
C47	C	-0.171900	0.935139	0.712590
C48	C	-0.057712	1.049399	0.712590
C49	C	-0.057708	1.049390	0.608489
C50	C	-0.114802	0.992253	0.556438
H51	H	-0.187652	0.430173	-0.150460
H52	H	-0.581790	0.843791	-0.000098
H53	H	-0.552660	1.065010	0.150445
H54	H	-0.676939	0.919420	-0.150490
H55	H	-0.218373	0.888574	0.245021
H56	H	-0.011214	1.095887	0.433888
O57	O	-0.543537	1.075854	-0.173053
H58	H	-0.474129	1.074235	-0.172367
O59	O	-0.686225	0.908575	0.172833
H60	H	-0.672584	0.841844	0.172651
H61	H	-0.263261	0.525258	0.000044
H62	H	-0.647630	1.140779	-0.000094
O63	O	0.055817	0.454384	0.000135
H64	H	0.099304	0.513905	0.000818
H65	H	-0.011221	1.095908	0.566110
H66	H	-0.042017	0.554202	0.150632
H67	H	-0.011213	1.095881	0.245033
O68	O	0.003878	1.111022	0.768721
H69	H	-0.005706	1.101426	0.849854
H70	H	-0.042029	0.554358	-0.150451
H71	H	-0.218392	0.888623	0.754964
H72	H	-0.218385	0.888600	0.566105
O73	O	-0.233479	0.873502	0.447638
H74	H	-0.222747	0.808021	0.427690
O75	O	-0.198456	0.420734	0.172846
H76	H	-0.265193	0.434354	0.172668
