data_functionalizedCrystal
_audit_creation_method	'MofGen! by Chris Wilmer'
_symmetry_space_group_name_H-M	'P1'
_symmetry_Int_Tables_number	1
_symmetry_cell_setting	triclinic
loop_
_symmetry_equiv_pos_as_xyz
  x,y,z
_cell_length_a	14.519731
_cell_length_b	14.519731
_cell_length_c	11.892095
_cell_angle_alpha	86.093342
_cell_angle_beta	86.097868
_cell_angle_gamma	96.311147
loop_
_atom_site_label
_atom_site_type_symbol
_atom_site_fract_x
_atom_site_fract_y
_atom_site_fract_z
O1	O	-0.115099	1.229750	-0.093992
O2	O	0.384901	1.729750	0.406008
O3	O	-0.129315	0.961277	-0.093992
O4	O	0.370685	1.461277	0.406008
O5	O	0.012030	1.102622	-0.094001
O6	O	0.512030	1.602622	0.405999
O7	O	-0.256444	1.088405	-0.093984
O8	O	0.243556	1.588405	0.406016
O9	O	0.000264	1.090837	0.094008
O10	O	0.500264	1.590837	0.594008
O11	O	-0.141081	0.949492	0.094016
O12	O	0.358919	1.449492	0.594016
O13	O	-0.126866	1.217965	0.094016
O14	O	0.373134	1.717965	0.594016
Zn15	Zn	-0.135842	1.081858	0.123866
Zn16	Zn	0.364158	1.581858	0.623866
Zn17	Zn	-0.120338	1.097385	-0.123843
Zn18	Zn	0.379662	1.597385	0.376157
O19	O	-0.268211	1.076620	0.094024
O20	O	0.231789	1.576620	0.594024
C21	C	-0.134532	0.921025	0.000011
C22	C	0.365468	1.421025	0.500011
C23	C	-0.132536	0.818645	0.000011
C24	C	0.367464	1.318645	0.500011
C25	C	-0.130914	0.735501	0.000006
C26	C	0.369086	1.235501	0.500006
C27	C	-0.128887	0.631192	0.000005
C28	C	0.371113	1.131192	0.500005
C29	C	-0.127279	0.548053	0.000005
C30	C	0.372721	1.048053	0.500005
C31	C	-0.125252	0.443737	0.000003
C32	C	0.374748	0.943737	0.500003
C33	C	-0.296687	1.083179	0.000022
C34	C	0.203313	1.583179	0.500022
C35	C	-0.399068	1.085174	0.000028
C36	C	0.100932	1.585174	0.500028
C37	C	-0.482212	1.086797	0.000023
C38	C	0.017788	1.586797	0.500023
C39	C	-0.586520	1.088824	0.000013
C40	C	-0.086520	1.588824	0.500013
C41	C	-0.669658	1.090433	0.000003
C42	C	-0.169658	1.590433	0.500003
C43	C	-0.773973	1.092460	-0.000005
C44	C	-0.273973	1.592460	0.499995
C45	C	0.040507	1.096064	-0.000001
C46	C	0.540507	1.596064	0.499999
C47	C	0.142888	1.094069	-0.000014
C48	C	0.642888	1.594069	0.499986
C49	C	-0.121648	1.258217	0.000009
C50	C	0.378352	1.758217	0.500009
C51	C	-0.123644	1.360598	0.000003
C52	C	0.376356	1.860598	0.500003
N53	N	-0.146422	1.071267	0.292921
N54	N	0.353578	1.571267	0.792921
N55	N	-0.109751	1.107982	-0.292897
N56	N	0.390249	1.607982	0.207103
C57	C	-0.036077	1.181675	0.529562
C58	C	0.463923	1.681675	1.029562
C59	C	-0.043479	1.174279	0.647905
C60	C	0.456521	1.674279	1.147905
C61	C	-0.168623	1.049076	0.647950
C62	C	0.331377	1.549076	1.147950
C63	C	-0.161221	1.056472	0.529608
C64	C	0.338779	1.556472	1.029608
C65	C	-0.094947	1.122774	0.470418
C66	C	0.405053	1.622774	0.970418
C67	C	-0.087550	1.130174	0.352073
C68	C	0.412450	1.630174	0.852073
C69	C	-0.212689	1.004967	0.352121
C70	C	0.287311	1.504967	0.852121
C71	C	-0.220091	0.997571	0.470463
C72	C	0.279909	1.497571	0.970463
H73	H	-0.033588	1.184163	0.303882
H74	H	0.466412	1.684163	0.803882
H75	H	-0.260627	0.957009	0.303952
H76	H	0.239373	1.457009	0.803952
Cl77	Cl	0.047228	1.265034	0.455151
Cl78	Cl	0.547228	1.765034	0.955151
Cl79	Cl	0.030534	1.248326	0.722254
Cl80	Cl	0.530534	1.748326	1.222254
H81	H	-0.222576	0.995088	0.696157
H82	H	0.277424	1.495088	1.196157
H83	H	-0.274048	0.943587	0.518669
H84	H	0.225952	1.443587	1.018669
