data_functionalizedCrystal
_audit_creation_method	'MofGen! by Chris Wilmer'
_symmetry_space_group_name_H-M	'P1'
_symmetry_Int_Tables_number	1
_symmetry_cell_setting	triclinic
loop_
_symmetry_equiv_pos_as_xyz
  x,y,z
_cell_length_a	12.594517
_cell_length_b	11.169416
_cell_length_c	12.594509
_cell_angle_alpha	89.975638
_cell_angle_beta	89.978673
_cell_angle_gamma	90.004038
loop_
_atom_site_label
_atom_site_type_symbol
_atom_site_fract_x
_atom_site_fract_y
_atom_site_fract_z
Zn1	Zn	1.627354	-0.477777	-0.601889
Zn2	Zn	1.627282	-0.678500	-0.423922
Zn3	Zn	1.449358	-0.477829	-0.423918
Zn4	Zn	1.449377	-0.678416	-0.601852
O5	O	1.538343	-0.578131	-0.512895
O6	O	1.776291	-0.504417	-0.578298
O7	O	1.603642	-0.651937	-0.274976
O8	O	1.472992	-0.309872	-0.447539
O9	O	1.776237	-0.651887	-0.447547
O10	O	1.603765	-0.309834	-0.578294
O11	O	1.472922	-0.504505	-0.274972
O12	O	1.300415	-0.504424	-0.447504
O13	O	1.473024	-0.651745	-0.750803
O14	O	1.300429	-0.651795	-0.578232
O15	O	1.603784	-0.504336	-0.750830
O16	O	1.603660	-0.846438	-0.447512
O17	O	1.472954	-0.846377	-0.578236
C18	C	1.261802	-0.578106	-0.512864
C19	C	1.143496	-0.578125	-0.512876
C20	C	1.538385	-0.265088	-0.512920
C21	C	1.538402	-0.131688	-0.512931
C22	C	1.538330	-0.889955	-0.512894
C23	C	1.538422	-1.023355	-0.512929
C24	C	1.074205	-0.497861	-0.441908
C25	C	1.003414	-0.607337	-0.415735
C26	C	1.003488	-0.468703	-0.539067
C27	C	1.074264	-0.687659	-0.486651
C28	C	1.074344	-0.548951	-0.610029
C29	C	1.003586	-0.658503	-0.583892
C30	C	1.815964	-0.578156	-0.512927
C31	C	1.934269	-0.578166	-0.512941
C32	C	1.538414	-0.578025	-0.790516
C33	C	1.538445	-0.577981	-0.908822
C34	C	1.467347	-0.658111	-0.978060
C35	C	1.564473	-0.687435	-1.048853
C36	C	1.441394	-0.548583	-1.048829
C37	C	1.635621	-0.607363	-0.978056
C38	C	1.512477	-0.468460	-0.978026
C39	C	1.609670	-0.497743	-1.048786
C40	C	1.538333	-0.578149	-0.236354
C41	C	1.538509	-0.577855	-0.118049
H42	H	1.105213	-0.430050	-0.381820
C43	C	1.116479	-0.515529	-0.720950
N44	N	1.148219	-0.490341	-0.804495
H45	H	1.490450	-0.375921	-0.946892
C46	C	1.594190	-0.812485	-1.090887
N47	N	1.616565	-0.906675	-1.122546
H48	H	1.105222	-0.780241	-0.464435
H49	H	0.972260	-0.632039	-0.333602
C50	C	0.961946	-0.750330	-0.665002
N51	N	0.930578	-0.819498	-0.726088
C52	C	0.961494	-0.343665	-0.568963
N53	N	0.929868	-0.249484	-0.591474
C54	C	1.330479	-0.515058	-1.090822
N55	N	1.246935	-0.489814	-1.122447
H56	H	1.407269	-0.725979	-0.947007
H57	H	1.717746	-0.632280	-0.947098
H58	H	1.669892	-0.429926	-1.079644
