data_functionalizedCrystal
_audit_creation_method	'MofGen! by Chris Wilmer'
_symmetry_space_group_name_H-M	'P1'
_symmetry_Int_Tables_number	1
_symmetry_cell_setting	triclinic
loop_
_symmetry_equiv_pos_as_xyz
  x,y,z
_cell_length_a	19.188923
_cell_length_b	17.666332
_cell_length_c	19.188924
_cell_angle_alpha	90.008552
_cell_angle_beta	96.858228
_cell_angle_gamma	89.988569
loop_
_atom_site_label
_atom_site_type_symbol
_atom_site_fract_x
_atom_site_fract_y
_atom_site_fract_z
O1	O	-0.926151	0.062988	0.087143
O2	O	-0.426151	0.562988	0.587143
O3	O	-0.722839	0.062982	0.098883
O4	O	-0.222839	0.562982	0.598883
O5	O	-0.830364	0.062976	-0.008643
O6	O	-0.330364	0.562976	0.491357
O7	O	-0.818625	0.062994	0.194669
O8	O	-0.318625	0.562994	0.694669
O9	O	-0.830346	-0.062921	-0.008649
O10	O	-0.330346	0.437079	0.491351
O11	O	-0.722820	-0.062915	0.098877
O12	O	-0.222820	0.437085	0.598877
O13	O	-0.926132	-0.062909	0.087137
O14	O	-0.426132	0.437091	0.587137
Cu15	Cu	-0.824474	-0.074407	0.093007
Cu16	Cu	-0.324474	0.425593	0.593007
Cu17	Cu	-0.824496	0.074480	0.093014
Cu18	Cu	-0.324496	0.574480	0.593014
O19	O	-0.818606	-0.062903	0.194664
O20	O	-0.318606	0.437097	0.694664
C21	C	-0.696818	0.000033	0.098501
C22	C	-0.196818	0.500033	0.598501
C23	C	-0.619313	0.000030	0.097362
C24	C	-0.119313	0.500030	0.597362
N25	N	-0.824464	-0.179127	0.093002
N26	N	-0.324464	0.320873	0.593002
C27	C	-0.057541	0.000025	0.152831
C28	C	0.442459	0.500025	0.652831
C29	C	-0.130364	0.000030	0.153907
C30	C	0.369636	0.500030	0.653907
C31	C	-0.175300	0.000024	0.090815
C32	C	0.324700	0.500024	0.590815
C33	C	-0.147408	0.000032	0.026641
C34	C	0.352592	0.500032	0.526641
C35	C	-0.074586	0.000034	0.025567
C36	C	0.425414	0.500034	0.525567
N37	N	-0.295972	-0.042833	0.045135
N38	N	0.204028	0.457167	0.545135
N39	N	-0.365150	-0.042836	0.046160
N40	N	0.134850	0.457164	0.546160
C41	C	-0.394710	0.000021	0.094047
C42	C	0.105290	0.500021	0.594047
N43	N	-0.352478	0.042872	0.140881
N44	N	0.147522	0.542872	0.640881
N45	N	-0.283294	0.042872	0.139858
N46	N	0.216706	0.542872	0.639858
C47	C	-0.254265	0.000023	0.091972
C48	C	0.245735	0.500023	0.591972
C49	C	-0.501557	0.000024	0.159383
C50	C	-0.001557	0.500024	0.659383
C51	C	-0.574382	0.000035	0.160456
C52	C	-0.074382	0.500035	0.660456
C53	C	-0.591425	0.000029	0.033188
C54	C	-0.091425	0.500029	0.533188
C55	C	-0.518601	0.000026	0.032116
C56	C	-0.018601	0.500026	0.532116
C57	C	-0.473671	0.000020	0.095216
C58	C	0.026329	0.500020	0.595216
C59	C	-0.872091	-0.218739	0.045412
C60	C	-0.372091	0.281261	0.545412
C61	C	-0.872096	-0.297987	0.045409
C62	C	-0.372096	0.202013	0.545409
C63	C	-0.824478	-0.337619	0.093007
C64	C	-0.324478	0.162381	0.593007
C65	C	-0.776842	-0.297997	0.140600
C66	C	-0.276842	0.202003	0.640600
C67	C	-0.776834	-0.218751	0.140597
C68	C	-0.276834	0.281249	0.640597
N69	N	-0.815401	-0.462032	0.154815
N70	N	-0.315401	0.037968	0.654815
N71	N	-0.815412	-0.537313	0.154815
N72	N	-0.315412	-0.037313	0.654815
C73	C	-0.824497	-0.576383	0.093017
C74	C	-0.324497	-0.076383	0.593017
N75	N	-0.833584	-0.537329	0.031216
N76	N	-0.333584	-0.037329	0.531216
N77	N	-0.833576	-0.462041	0.031216
N78	N	-0.333576	0.037959	0.531216
C79	C	-0.824481	-0.423548	0.093015
C80	C	-0.324481	0.076452	0.593015
C81	C	-0.872132	-0.701924	0.045420
C82	C	-0.372132	-0.201924	0.545420
C83	C	-0.872131	-0.781174	0.045415
C84	C	-0.372131	-0.281174	0.545415
C85	C	-0.776880	-0.781182	0.140613
C86	C	-0.276880	-0.281182	0.640613
C87	C	-0.776878	-0.701935	0.140611
C88	C	-0.276878	-0.201935	0.640611
C89	C	-0.824507	-0.662311	0.093015
C90	C	-0.324507	-0.162311	0.593015
C91	C	0.047848	0.000037	0.087522
C92	C	0.547848	0.500037	0.587522
C93	C	-0.029656	0.000028	0.088666
C94	C	0.470344	0.500028	0.588666
C95	C	-0.829976	0.000027	-0.034657
C96	C	-0.329976	0.500027	0.465343
C97	C	-0.828837	0.000025	-0.112162
C98	C	-0.328837	0.500025	0.387838
N99	N	-0.824512	0.179200	0.093013
N100	N	-0.324512	0.679200	0.593013
C101	C	-0.828316	0.068651	-0.148558
C102	C	-0.328316	0.568651	0.351442
C103	C	-0.827236	0.068657	-0.221380
C104	C	-0.327236	0.568657	0.278620
C105	C	-0.826691	0.000033	-0.257806
C106	C	-0.326691	0.500033	0.242194
C107	C	-0.827208	-0.068603	-0.221401
C108	C	-0.327208	0.431397	0.278599
C109	C	-0.828281	-0.068607	-0.148579
C110	C	-0.328281	0.431393	0.351421
N111	N	-0.864731	-0.051042	-0.377473
N112	N	-0.364731	0.448958	0.122527
N113	N	-0.863714	-0.051034	-0.446651
N114	N	-0.363714	0.448966	0.053349
C115	C	-0.823457	0.000040	-0.477215
C116	C	-0.323457	0.500040	0.022785
N117	N	-0.784265	0.051116	-0.435989
N118	N	-0.284265	0.551116	0.064011
N119	N	-0.785286	0.051110	-0.366805
N120	N	-0.285286	0.551110	0.133195
C121	C	-0.825527	0.000029	-0.336770
C122	C	-0.325527	0.500029	0.163230
C123	C	-0.821764	0.068677	-0.592574
C124	C	-0.321764	0.568677	-0.092574
C125	C	-0.820679	0.068680	-0.665397
C126	C	-0.320679	0.568680	-0.165397
C127	C	-0.820659	-0.068582	-0.665417
C128	C	-0.320659	0.431418	-0.165417
C129	C	-0.821737	-0.068583	-0.592594
C130	C	-0.321737	0.431417	-0.092594
C131	C	-0.822292	0.000049	-0.556177
C132	C	-0.322292	0.500049	-0.056177
C133	C	-0.818995	0.000048	0.220677
C134	C	-0.318995	0.500048	0.720677
C135	C	-0.820134	0.000055	0.298182
C136	C	-0.320134	0.500055	0.798182
H137	H	-0.020963	0.000024	0.204212
H138	H	0.479037	0.500024	0.704212
H139	H	-0.910872	-0.186479	0.006656
H140	H	-0.410872	0.313521	0.506656
C141	C	-0.724466	-0.341589	0.192958
C142	C	-0.224466	0.158411	0.692958
H143	H	-0.731297	-0.394459	0.186149
H144	H	-0.231297	0.105541	0.686149
H145	H	-0.677893	-0.328621	0.185492
H146	H	-0.177893	0.171379	0.685492
H147	H	-0.731906	-0.328587	0.239540
H148	H	-0.231906	0.171413	0.739540
C149	C	-0.828856	-0.144097	-0.108539
C150	C	-0.328856	0.355903	0.391461
H151	H	-0.829570	-0.134270	-0.059952
H152	H	-0.329570	0.365730	0.440048
H153	H	-0.869380	-0.172298	-0.125929
H154	H	-0.369380	0.327702	0.374071
H155	H	-0.787962	-0.172291	-0.115024
H156	H	-0.287962	0.327709	0.384976
C157	C	-0.924513	-0.658335	-0.006939
C158	C	-0.424513	-0.158335	0.493061
H159	H	-0.952873	-0.693280	-0.035291
H160	H	-0.452873	-0.193280	0.464709
H161	H	-0.953496	-0.627407	0.018102
H162	H	-0.453496	-0.127407	0.518102
H163	H	-0.899481	-0.627435	-0.035943
H164	H	-0.399481	-0.127435	0.464057
H165	H	-0.153073	0.000020	0.206160
H166	H	0.346927	0.500020	0.706160
H167	H	-0.495897	0.000025	-0.020134
H168	H	0.004103	0.500025	0.479866
H169	H	-0.826763	-0.124478	-0.251064
H170	H	-0.326763	0.375522	0.248936
H171	H	-0.910881	-0.330245	0.006654
H172	H	-0.410881	0.169755	0.506654
H173	H	-0.464973	0.000021	0.210762
H174	H	0.035027	0.500021	0.710762
C175	C	-0.724447	-0.175176	0.192953
C176	C	-0.224447	0.324824	0.692953
H177	H	-0.696089	-0.210126	0.221304
H178	H	-0.196089	0.289874	0.721304
H179	H	-0.695462	-0.144272	0.167910
H180	H	-0.195462	0.355728	0.667910
H181	H	-0.749475	-0.144252	0.221957
H182	H	-0.249475	0.355748	0.721957
H183	H	-0.822212	0.124561	-0.562921
H184	H	-0.322212	0.624561	-0.062921
H185	H	-0.183999	0.000030	-0.024729
H186	H	0.316001	0.500030	0.475271
H187	H	-0.826807	0.124543	-0.251019
H188	H	-0.326807	0.624543	0.248981
H189	H	-0.910913	-0.813426	0.006659
H190	H	-0.410913	-0.313426	0.506659
C191	C	-0.828914	0.144143	-0.108501
C192	C	-0.328914	0.644143	0.391499
H193	H	-0.828442	0.185016	-0.140610
H194	H	-0.328442	0.685016	0.359390
H195	H	-0.870037	0.147000	-0.085539
H196	H	-0.370037	0.647000	0.414461
H197	H	-0.788619	0.146992	-0.074645
H198	H	-0.288619	0.646992	0.425355
H199	H	-0.051884	0.000037	-0.026685
H200	H	0.448116	0.500037	0.473315
C201	C	-0.605055	0.000029	0.231041
C202	C	-0.105055	0.500029	0.731041
H203	H	-0.567865	0.000018	0.268464
H204	H	-0.067865	0.500018	0.768464
H205	H	-0.633116	0.043931	0.234115
H206	H	-0.133116	0.543931	0.734115
H207	H	-0.633101	-0.043880	0.234095
H208	H	-0.133101	0.456120	0.734095
H209	H	-0.738107	-0.813450	0.179365
H210	H	-0.238107	-0.313450	0.679365
C211	C	-0.724494	-0.658359	0.192967
C212	C	-0.224494	-0.158359	0.692967
H213	H	-0.696139	-0.693310	0.221319
H214	H	-0.196139	-0.193310	0.721319
H215	H	-0.695507	-0.627458	0.167925
H216	H	-0.195507	-0.127458	0.667925
H217	H	-0.749522	-0.627434	0.221970
H218	H	-0.249522	-0.127434	0.721970
H219	H	-0.820252	0.124566	-0.695029
H220	H	-0.320252	0.624566	-0.195029
H221	H	-0.820211	-0.124458	-0.695074
H222	H	-0.320211	0.375542	-0.195074
C223	C	-0.822322	-0.144073	-0.552559
C224	C	-0.322322	0.355927	-0.052559
H225	H	-0.821849	-0.184944	-0.584681
H226	H	-0.321849	0.315056	-0.084681
H227	H	-0.782035	-0.146931	-0.518698
H228	H	-0.282035	0.353069	-0.018698
H229	H	-0.863453	-0.146923	-0.529606
H230	H	-0.363453	0.353077	-0.029606
H231	H	-0.628011	0.000030	-0.018183
H232	H	-0.128011	0.500030	0.481817
