data_functionalizedCrystal
_audit_creation_method	'MofGen! by Chris Wilmer'
_symmetry_space_group_name_H-M	'P1'
_symmetry_Int_Tables_number	1
_symmetry_cell_setting	triclinic
loop_
_symmetry_equiv_pos_as_xyz
  x,y,z
_cell_length_a	8.559649
_cell_length_b	11.026607
_cell_length_c	7.088929
_cell_angle_alpha	82.408099
_cell_angle_beta	95.325015
_cell_angle_gamma	89.182341
loop_
_atom_site_label
_atom_site_type_symbol
_atom_site_fract_x
_atom_site_fract_y
_atom_site_fract_z
O1	O	2.096118	-0.026458	-0.158957
O2	O	1.648469	0.034577	-0.158966
O3	O	1.835194	-0.169136	-0.158955
O4	O	1.909394	0.177256	-0.158968
O5	O	1.860132	-0.196415	0.159021
O6	O	1.673407	0.007298	0.159011
O7	O	2.121056	-0.053737	0.159019
Cu8	Cu	1.899509	-0.025710	0.188049
Cu9	Cu	1.870017	0.006551	-0.187995
O10	O	1.934332	0.149977	0.159009
C11	C	1.602739	0.025563	0.000021
C12	C	1.429319	0.039332	0.000018
C13	C	1.833974	-0.226711	0.000030
C14	C	1.793166	-0.357621	0.000023
C15	C	1.905841	-0.441927	0.000022
C16	C	1.863667	-0.577231	0.000014
C17	C	2.166786	-0.044723	0.000028
C18	C	2.340205	-0.058490	0.000019
C19	C	1.935551	0.207551	0.000019
C20	C	1.976358	0.338463	0.000014
N21	N	1.920263	-0.048402	0.452538
N22	N	1.849272	0.029232	-0.452485
H23	H	1.372932	0.133621	0.000004
C24	C	1.957266	-0.266790	0.514520
C25	C	2.019602	-0.157019	0.562758
H26	H	2.018598	-0.333842	0.582559
H27	H	1.852272	-0.272654	0.547264
H28	H	1.958678	-0.268327	0.381020
H29	H	2.018179	-0.155478	0.696256
H30	H	2.124623	-0.151154	0.530028
H31	H	1.775696	0.109685	0.465865
H32	H	1.396583	-0.152772	0.000013
H33	H	1.665478	-0.385611	0.000008
C34	C	2.086634	-0.277430	0.000046
C35	C	2.078221	-0.404155	0.000036
H36	H	2.193058	-0.254118	0.000067
H37	H	2.027600	-0.236600	-0.110836
H38	H	2.044970	-0.255634	0.110936
H39	H	2.119874	-0.425950	-0.110863
H40	H	2.137277	-0.445000	0.110928
C41	C	1.648126	-0.670060	-0.163457
C42	C	1.691280	-0.615000	0.000005
H43	H	1.541707	-0.693384	-0.163453
H44	H	1.660028	-0.613670	-0.274317
H45	H	1.713364	-0.740483	-0.163440
H46	H	1.626049	-0.544571	-0.000019
H47	H	1.679364	-0.671394	0.110894
C48	C	2.210119	-0.655933	-0.163442
C49	C	2.148747	-0.623774	0.000018
H50	H	2.316540	-0.632611	-0.163441
H51	H	2.204390	-0.741894	-0.163429
H52	H	2.151062	-0.615082	-0.274315
H53	H	2.207798	-0.664632	0.110892
H54	H	2.154488	-0.537796	0.000022
