data_functionalizedCrystal
_audit_creation_method	'MofGen! by Chris Wilmer'
_symmetry_space_group_name_H-M	'P1'
_symmetry_Int_Tables_number	1
_symmetry_cell_setting	triclinic
loop_
_symmetry_equiv_pos_as_xyz
  x,y,z
_cell_length_a	16.959455
_cell_length_b	16.959447
_cell_length_c	15.297327
_cell_angle_alpha	99.644956
_cell_angle_beta	99.706112
_cell_angle_gamma	89.980656
loop_
_atom_site_label
_atom_site_type_symbol
_atom_site_fract_x
_atom_site_fract_y
_atom_site_fract_z
Zn1	Zn	1.153908	-0.501386	-0.359169
Zn2	Zn	1.130932	-0.392071	-0.510048
Zn3	Zn	1.021725	-0.369223	-0.359203
Zn4	Zn	0.998818	-0.524195	-0.509985
O5	O	1.076346	-0.446719	-0.434601
O6	O	1.261469	-0.486902	-0.379195
O7	O	1.116416	-0.278436	-0.490078
O8	O	1.058462	-0.367648	-0.232953
O9	O	1.244588	-0.406589	-0.490045
O10	O	1.155576	-0.464747	-0.232928
O11	O	1.036183	-0.261649	-0.379253
O12	O	0.908077	-0.389764	-0.379193
O13	O	1.019420	-0.631774	-0.489939
O14	O	0.891247	-0.503621	-0.489972
O15	O	1.133364	-0.615017	-0.379135
O16	O	1.094204	-0.428705	-0.636285
O17	O	0.997140	-0.525776	-0.636239
C18	C	0.870983	-0.446689	-0.434580
C19	C	0.783124	-0.446698	-0.434592
C20	C	0.750602	-0.387487	-0.376832
C21	C	0.733092	-0.505922	-0.492359
C22	C	0.650544	-0.505936	-0.492369
C23	C	0.618022	-0.446724	-0.434609
C24	C	0.668047	-0.387499	-0.376839
C25	C	0.600514	-0.565164	-0.550132
C26	C	0.517962	-0.565180	-0.550144
C27	C	0.485437	-0.505964	-0.492388
C28	C	0.535467	-0.446737	-0.434616
C29	C	0.502945	-0.387525	-0.376856
C30	C	0.552973	-0.328294	-0.319088
C31	C	0.635523	-0.328284	-0.319083
C32	C	0.402888	-0.505974	-0.492393
C33	C	0.420391	-0.387538	-0.376863
C34	C	1.076399	-0.652876	-0.434526
C35	C	1.076422	-0.740728	-0.434494
C36	C	1.034732	-1.103456	-0.376698
C37	C	1.118280	-1.120923	-0.492101
C38	C	1.118263	-1.038380	-0.492122
C39	C	1.076479	-0.988371	-0.434431
C40	C	1.034712	-1.020905	-0.376719
C41	C	1.160023	-1.005841	-0.549839
C42	C	1.160007	-0.923293	-0.549863
C43	C	1.118227	-0.873282	-0.492167
C44	C	1.076459	-0.905821	-0.434452
C45	C	1.034675	-0.855812	-0.376761
C46	C	0.992911	-0.888348	-0.319041
C47	C	0.992932	-0.970894	-0.319023
C48	C	1.118206	-0.790737	-0.492185
C49	C	1.034655	-0.773262	-0.376782
C50	C	1.282510	-0.446750	-0.434623
C51	C	1.370365	-0.446763	-0.434633
C52	C	1.040715	-0.482212	-0.668996
C53	C	1.025544	-0.497423	-0.769272
C54	C	1.076347	-0.241354	-0.434611
C55	C	1.076516	-0.153464	-0.434389
C56	C	1.185099	-0.338277	-1.051901
C57	C	1.199352	-0.323982	-0.957688
C58	C	1.155901	-0.367341	-0.910579
C59	C	1.098195	-0.424997	-0.957693
C60	C	1.083936	-0.439289	-1.051916
C61	C	1.054738	-0.468353	-0.910594
C62	C	0.997032	-0.526010	-0.957708
C63	C	0.982776	-0.540299	-1.051922
C64	C	1.026226	-0.496940	-1.099030
C65	C	1.068998	-0.454061	-0.816371
C66	C	0.967835	-0.555074	-0.816386
C67	C	0.953581	-0.569369	-0.910600
C68	C	1.112137	-0.411105	-0.199291
C69	C	1.127389	-0.395928	-0.099015
H70	H	0.759578	-0.554133	-0.539380
C71	C	0.759603	-0.270408	-0.262651
C72	C	0.805586	-0.322376	-0.313341
H73	H	0.793549	-0.230208	-0.223460
H74	H	0.732667	-0.299680	-0.228186
H75	H	0.721415	-0.246081	-0.301932
H76	H	0.843770	-0.346707	-0.274060
H77	H	0.832534	-0.293100	-0.347809
C78	C	0.329444	-0.279316	-0.364206
C79	C	0.384651	-0.322439	-0.313377
H80	H	0.307386	-0.239122	-0.325013
H81	H	0.287835	-0.314588	-0.398591
H82	H	0.355675	-0.254982	-0.403476
H83	H	0.358418	-0.346778	-0.274112
H84	H	0.426266	-0.287161	-0.278977
H85	H	0.526484	-0.280087	-0.272056
C86	C	0.719283	-0.617716	-0.601423
C87	C	0.636263	-0.630243	-0.613622
H88	H	0.741352	-0.657891	-0.640628
H89	H	0.742022	-0.620193	-0.540831
H90	H	0.730775	-0.566571	-0.614554
H91	H	0.624770	-0.681386	-0.600486
H92	H	0.613515	-0.627773	-0.674229
C93	C	0.508953	-0.682243	-0.664348
C94	C	0.462973	-0.630278	-0.613651
H95	H	0.475002	-0.722426	-0.703560
H96	H	0.547124	-0.706586	-0.625079
H97	H	0.535905	-0.652960	-0.698799
H98	H	0.436025	-0.659560	-0.579195
H99	H	0.424787	-0.605934	-0.652925
C100	C	0.910625	-0.707571	-0.939551
C101	C	0.890149	-0.632741	-0.962396
H102	H	0.871467	-0.746694	-0.971533
H103	H	0.912888	-0.705264	-0.876706
H104	H	0.961402	-0.721509	-0.954934
H105	H	0.839374	-0.618801	-0.947007
H106	H	0.887878	-0.635047	-1.025255
H107	H	1.167509	-0.355698	-0.833866
C108	C	0.944777	-0.578027	-0.671967
C109	C	0.920072	-0.602742	-0.764614
H110	H	0.915295	-0.607457	-0.640003
H111	H	0.935566	-0.522581	-0.656584
H112	H	1.000226	-0.587296	-0.656482
H113	H	0.864624	-0.593468	-0.780100
H114	H	0.929277	-0.658202	-0.780003
H115	H	1.000633	-0.732549	-0.329798
H116	H	0.362160	-0.554204	-0.539421
H117	H	1.014626	-0.508578	-1.175747
C118	C	0.955787	-0.754052	-0.267844
C119	C	0.946983	-0.833373	-0.255627
H120	H	0.927437	-0.720112	-0.228692
H121	H	0.934993	-0.749703	-0.328456
H122	H	1.010903	-0.738544	-0.254653
H123	H	0.891868	-0.848883	-0.268825
H124	H	0.967774	-0.837725	-0.195001
H125	H	0.676263	-0.280061	-0.272051
C126	C	0.939818	-0.678501	-1.080862
C127	C	0.919341	-0.603672	-1.103711
H128	H	0.900658	-0.717624	-1.112838
H129	H	0.942088	-0.676190	-1.018016
H130	H	0.990593	-0.692441	-1.096252
H131	H	0.868569	-0.589729	-1.088315
H132	H	0.917063	-0.605981	-1.166571
C133	C	1.275369	-0.343425	-1.157811
C134	C	1.232825	-0.290608	-1.103698
H135	H	1.304829	-0.313987	-1.189788
H136	H	1.238959	-0.379808	-1.199334
H137	H	1.311180	-0.372291	-1.121005
H138	H	1.197009	-0.261746	-1.140505
H139	H	1.269239	-0.254211	-1.062170
C140	C	0.955862	-1.089675	-0.267757
C141	C	0.947025	-1.006661	-0.255585
H142	H	0.927516	-1.111756	-0.228598
H143	H	1.010976	-1.101209	-0.254555
H144	H	0.935076	-1.112359	-0.328372
H145	H	0.967817	-0.983976	-0.194972
H146	H	0.891900	-0.995120	-0.268781
H147	H	1.115983	-0.407117	-0.778019
C148	C	1.155396	-1.255215	-0.543314
C149	C	1.164202	-1.175891	-0.555517
H150	H	1.183752	-1.289150	-0.582464
H151	H	1.100288	-1.270722	-0.556508
H152	H	1.176190	-1.259570	-0.482694
H153	H	1.143403	-1.171534	-0.616135
H154	H	1.219322	-1.160379	-0.542329
H155	H	1.000732	-1.129950	-0.329701
H156	H	1.194031	-1.046565	-0.596818
H157	H	1.194013	-0.896810	-0.596863
H158	H	1.152216	-0.764248	-0.539174
C159	C	1.297919	-0.225583	-0.967144
C160	C	1.262787	-0.260617	-0.905902
H161	H	1.337089	-0.186467	-0.935171
H162	H	1.257931	-0.200896	-1.003943
H163	H	1.322576	-0.265626	-1.003841
H164	H	1.238125	-0.220575	-0.869210
H165	H	1.302782	-0.285304	-0.869087
