data_functionalizedCrystal
_audit_creation_method	'MofGen! by Chris Wilmer'
_symmetry_space_group_name_H-M	'P1'
_symmetry_Int_Tables_number	1
_symmetry_cell_setting	triclinic
loop_
_symmetry_equiv_pos_as_xyz
  x,y,z
_cell_length_a	21.295418
_cell_length_b	16.625546
_cell_length_c	16.625539
_cell_angle_alpha	90.030397
_cell_angle_beta	89.960218
_cell_angle_gamma	89.961719
loop_
_atom_site_label
_atom_site_type_symbol
_atom_site_fract_x
_atom_site_fract_y
_atom_site_fract_z
Zn1	Zn	0.962366	0.320660	-0.456311
Zn2	Zn	0.962291	0.455503	-0.321473
Zn3	Zn	0.857097	0.320725	-0.321446
Zn4	Zn	0.857074	0.455491	-0.456218
O5	O	0.909707	0.388095	-0.388862
O6	O	1.050446	0.338524	-0.438475
O7	O	0.948315	0.437657	-0.208637
O8	O	0.871102	0.207884	-0.339364
O9	O	1.050390	0.437593	-0.339410
O10	O	0.948443	0.207836	-0.438449
O11	O	0.871029	0.338636	-0.208618
O12	O	0.769004	0.338625	-0.339274
O13	O	0.871063	0.437573	-0.569063
O14	O	0.768987	0.437637	-0.438290
O15	O	0.948421	0.338513	-0.569131
O16	O	0.948292	0.568334	-0.339320
O17	O	0.870990	0.568325	-0.438316
C18	C	0.746155	0.388137	-0.388769
C19	C	0.676187	0.388175	-0.388749
C20	C	0.909647	0.597586	-0.388828
C21	C	0.909679	0.687207	-0.388841
C22	C	0.909748	0.388035	-0.599171
C23	C	0.909765	0.388009	-0.688792
C24	C	0.643328	0.439799	-0.440230
C25	C	0.577586	0.439779	-0.440266
C26	C	0.544705	0.388144	-0.388807
C27	C	0.577572	0.336510	-0.337323
C28	C	0.643313	0.336525	-0.337294
N29	N	0.441432	0.381847	-0.318284
N30	N	0.378980	0.381837	-0.318314
C31	C	0.346630	0.388092	-0.388892
N32	N	0.379090	0.394374	-0.459441
N33	N	0.441548	0.394388	-0.459411
C34	C	0.473419	0.388120	-0.388833
C35	C	0.242485	0.439697	-0.440417
C36	C	0.176742	0.439672	-0.440454
C37	C	0.176729	0.336407	-0.337504
C38	C	0.242471	0.336428	-0.337474
C39	C	0.275346	0.388078	-0.388929
C40	C	1.073897	0.388053	-0.388956
C41	C	1.143865	0.388035	-0.388996
C42	C	0.909784	0.177786	-0.388914
C43	C	0.909817	0.088165	-0.388936
C44	C	0.909789	1.015382	-0.388925
C45	C	0.909757	0.924074	-0.388904
C46	C	0.909734	0.851297	-0.388883
C47	C	0.909702	0.759983	-0.388862
C48	C	0.909794	0.387919	-1.016968
C49	C	0.909785	0.387947	-0.925660
C50	C	0.909780	0.387965	-0.852883
C51	C	0.909770	0.387991	-0.761569
C52	C	0.909702	0.388096	-0.179371
C53	C	0.909807	0.387895	-0.089751
H54	H	0.670090	0.481855	-0.482130
N55	N	0.678758	0.280837	-0.281772
H56	H	0.647955	0.248118	-0.249181
H57	H	0.705983	0.313613	-0.244384
N58	N	0.542134	0.495459	-0.495795
H59	H	0.572936	0.528179	-0.528387
H60	H	0.514807	0.532721	-0.462912
H61	H	0.269226	0.294394	-0.295548
N62	N	0.277949	0.495398	-0.495913
H63	H	0.247154	0.528096	-0.528538
H64	H	0.305280	0.462632	-0.533272
N65	N	0.542112	0.280826	-0.281810
H66	H	0.495478	0.288655	-0.289633
H67	H	0.553555	0.293317	-0.224201
H68	H	0.149989	0.481708	-0.482381
H69	H	0.149958	0.294360	-0.295609
