data_functionalizedCrystal
_audit_creation_method	'MofGen! by Chris Wilmer'
_symmetry_space_group_name_H-M	'P1'
_symmetry_Int_Tables_number	1
_symmetry_cell_setting	triclinic
loop_
_symmetry_equiv_pos_as_xyz
  x,y,z
_cell_length_a	29.839134
_cell_length_b	12.594517
_cell_length_c	12.594501
_cell_angle_alpha	89.939871
_cell_angle_beta	90.043822
_cell_angle_gamma	90.012795
loop_
_atom_site_label
_atom_site_type_symbol
_atom_site_fract_x
_atom_site_fract_y
_atom_site_fract_z
Zn1	Zn	0.686968	0.423872	0.601888
Zn2	Zn	0.686905	0.601998	0.423926
Zn3	Zn	0.611810	0.423973	0.423918
Zn4	Zn	0.611845	0.601749	0.601857
O5	O	0.649382	0.512898	0.512897
O6	O	0.749827	0.447563	0.578298
O7	O	0.676902	0.578529	0.274979
O8	O	0.621792	0.275014	0.447536
O9	O	0.749780	0.578431	0.447549
O10	O	0.677011	0.274940	0.578290
O11	O	0.621730	0.447735	0.274973
O12	O	0.548947	0.447494	0.447506
O13	O	0.621851	0.578007	0.750807
O14	O	0.548973	0.578105	0.578237
O15	O	0.677044	0.447322	0.750830
O16	O	0.676936	0.750910	0.447519
O17	O	0.621789	0.750728	0.578244
C18	C	0.532659	0.512784	0.512868
C19	C	0.482725	0.512761	0.512880
C20	C	0.126158	0.444897	0.581112
C21	C	0.313831	0.444811	0.581087
O22	O	0.338113	0.386976	0.639096
N23	N	0.337280	0.512831	0.512905
C24	C	0.313807	0.580881	0.444730
O25	O	0.338058	0.638741	0.386744
C26	C	0.126135	0.580971	0.444760
C27	C	0.102689	0.512940	0.512939
C28	C	0.102712	0.376872	0.649286
C29	C	0.055796	0.376890	0.649288
C30	C	0.032327	0.444933	0.581115
C31	C	0.055773	0.512958	0.512941
C32	C	0.102664	0.649026	0.376591
C33	C	0.055742	0.649044	0.376606
C34	C	0.032296	0.581013	0.444785
C35	C	-0.014611	0.581019	0.444769
N36	N	-0.038060	0.512999	0.512951
C37	C	-0.014591	0.444957	0.581124
C38	C	0.412338	0.580827	0.444717
C39	C	0.459256	0.580804	0.444708
C40	C	0.459276	0.444735	0.581067
C41	C	0.412358	0.444754	0.581070
C42	C	0.388889	0.512808	0.512899
C43	C	-0.113117	0.444999	0.581121
C44	C	-0.160036	0.445020	0.581113
C45	C	-0.160053	0.581092	0.444758
C46	C	-0.113137	0.581067	0.444762
C47	C	-0.089670	0.513017	0.512952
O48	O	-0.038922	0.638833	0.386800
O49	O	-0.038850	0.387122	0.639118
C50	C	0.173074	0.444879	0.581111
C51	C	0.196520	0.512904	0.512937
C52	C	0.173051	0.580947	0.444764
C53	C	0.243438	0.512880	0.512927
C54	C	0.266907	0.444837	0.581100
C55	C	0.243458	0.376818	0.649282
C56	C	0.196543	0.376836	0.649283
C57	C	0.196499	0.648966	0.376582
C58	C	0.243415	0.648941	0.376585
C59	C	0.266884	0.580899	0.444758
C60	C	0.649404	0.235277	0.512916
C61	C	0.649414	0.116972	0.512924
C62	C	0.679444	0.047678	0.584045
C63	C	0.690405	-0.023006	0.486945
C64	C	0.638468	-0.023143	0.610029
C65	C	0.660396	0.047846	0.415772
C66	C	0.608440	0.047715	0.538922
C67	C	0.619385	-0.022937	0.441755
C68	C	0.766560	0.513013	0.512928
C69	C	0.816495	0.513063	0.512941
C70	C	0.649372	0.789439	0.512902
C71	C	0.649408	0.907744	0.512940
C72	C	0.649331	0.513093	0.236356
C73	C	0.649386	0.512910	0.118051
C74	C	0.679645	0.583394	0.048747
C75	C	0.638772	0.609959	-0.022305
C76	C	0.690361	0.485989	-0.021695
C77	C	0.608490	0.539528	0.048556
C78	C	0.660106	0.415512	0.049173
C79	C	0.619205	0.442041	-0.021847
C80	C	0.649459	0.512625	0.790519
C81	C	0.649491	0.512509	0.908824
H82	H	0.393271	0.389356	0.636586
H83	H	-0.094046	0.636454	0.389235
H84	H	-0.179170	0.636486	0.389250
O85	O	0.627929	0.707947	-0.059807
C86	C	0.588600	0.701110	-0.121546
H87	H	0.568798	0.627588	-0.097259
H88	H	0.567257	0.774957	-0.108203
H89	H	0.597942	0.695257	-0.209099
O90	O	0.033045	0.310925	0.715679
C91	C	0.044566	0.334233	0.821715
H92	H	0.057477	0.419265	0.826940
H93	H	0.013733	0.325102	0.874333
H94	H	0.071805	0.277181	0.849617
O95	O	0.567224	0.566650	0.085394
C96	C	0.567668	0.566560	0.197338
H97	H	0.603489	0.577863	0.226771
H98	H	0.545806	0.634126	0.227945
H99	H	0.554069	0.487623	0.227820
O100	O	0.567131	0.084766	0.565372
C101	C	0.555717	0.048635	0.667840
H102	H	0.587565	0.028719	0.713770
H103	H	0.536440	0.113380	0.711488
H104	H	0.533918	-0.025407	0.661123
O105	O	0.125453	0.714967	0.310256
C106	C	0.152569	0.654345	0.241604
H107	H	0.138419	0.570514	0.235149
H108	H	0.153075	0.692814	0.159639
H109	H	0.188139	0.650689	0.274509
H110	H	0.177457	0.321438	0.704802
H111	H	-0.094015	0.389586	0.636647
O112	O	0.032897	0.715005	0.310328
C113	C	0.005733	0.654388	0.241655
H114	H	-0.001299	0.573747	0.279316
H115	H	-0.027256	0.697753	0.227322
H116	H	0.023788	0.642646	0.162796
H117	H	0.121815	0.321463	0.704806
H118	H	0.593631	0.382263	-0.052650
H119	H	0.629212	-0.054324	0.692143
H120	H	0.704861	0.078685	0.644109
O121	O	0.482029	0.378694	0.647444
C122	C	0.470617	0.402049	0.753492
H123	H	0.436557	0.442973	0.755639
H124	H	0.469020	0.325265	0.801353
H125	H	0.497043	0.456791	0.789237
H126	H	0.478342	0.636190	0.389178
H127	H	0.724969	0.463386	-0.052562
H128	H	0.705158	0.643219	0.079746
O129	O	0.671422	0.084998	0.317785
C130	C	0.635979	0.147353	0.277776
H131	H	0.614878	0.178205	0.346561
H132	H	0.650242	0.217299	0.231254
H133	H	0.614156	0.096979	0.223161
O134	O	0.389613	0.646967	0.378383
C135	C	0.420376	0.707005	0.318227
H136	H	0.453810	0.663380	0.314620
H137	H	0.406798	0.718318	0.234345
H138	H	0.425396	0.787862	0.357071
O139	O	0.266208	0.714880	0.310238
C140	C	0.293326	0.654255	0.241594
H141	H	0.279176	0.570423	0.235142
H142	H	0.293834	0.692719	0.159627
H143	H	0.328895	0.650600	0.274505
H144	H	0.725053	-0.054072	0.464955
H145	H	0.593987	-0.053749	0.381547
O146	O	0.670945	0.317571	0.086784
C147	C	0.709821	0.324816	0.150068
H148	H	0.713556	0.409450	0.180840
H149	H	0.706928	0.267766	0.220062
H150	H	0.740415	0.303091	0.100476
O151	O	-0.182791	0.379048	0.647501
C152	C	-0.171277	0.402348	0.753543
H153	H	-0.158365	0.487378	0.758778
H154	H	-0.202114	0.393216	0.806149
H155	H	-0.144041	0.345291	0.781452
O156	O	0.266212	0.310776	0.715656
C157	C	0.254798	0.334121	0.821705
H158	H	0.220738	0.375040	0.823855
H159	H	0.253203	0.257334	0.869561
H160	H	0.281223	0.388865	0.857455
O161	O	0.173775	0.715096	0.310250
C162	C	0.204537	0.775138	0.250098
H163	H	0.237972	0.731521	0.246496
H164	H	0.190961	0.786448	0.166214
H165	H	0.209553	0.855997	0.288942
