data_functionalizedCrystal
_audit_creation_method	'MofGen! by Chris Wilmer'
_symmetry_space_group_name_H-M	'P1'
_symmetry_Int_Tables_number	1
_symmetry_cell_setting	triclinic
loop_
_symmetry_equiv_pos_as_xyz
  x,y,z
_cell_length_a	33.359672
_cell_length_b	33.359725
_cell_length_c	33.359897
_cell_angle_alpha	90.003509
_cell_angle_beta	120.000882
_cell_angle_gamma	60.000258
loop_
_atom_site_label
_atom_site_type_symbol
_atom_site_fract_x
_atom_site_fract_y
_atom_site_fract_z
O1	O	0.353543	-0.341621	0.628550
O2	O	0.271467	-0.283338	0.488178
O3	O	0.353544	-0.283330	0.570257
O4	O	0.271466	-0.341628	0.546471
O5	O	0.286872	-0.216660	0.570257
O6	O	0.204795	-0.216667	0.488178
O7	O	0.286871	-0.274950	0.628550
Cu8	Cu	0.239746	-0.239721	0.558364
Cu9	Cu	0.318593	-0.318567	0.558364
O10	O	0.204794	-0.274958	0.546471
C11	C	0.117465	-0.146288	0.263818
C12	C	0.141360	-0.170521	0.239468
C13	C	0.044878	-0.073699	0.191237
C14	C	0.068883	-0.098041	0.166997
C15	C	0.117463	-0.146283	0.191228
C16	C	0.068885	-0.098047	0.239477
C17	C	0.123170	-0.146105	0.342273
C18	C	0.149738	-0.168957	0.391845
C19	C	0.199403	-0.216758	0.416703
C20	C	0.228213	-0.241536	0.470452
C21	C	0.222505	-0.241715	0.391993
C22	C	0.195937	-0.218865	0.342423
C23	C	0.146272	-0.171060	0.317565
C24	C	0.196101	-0.219030	0.191407
C25	C	0.222824	-0.242033	0.168554
C26	C	0.199885	-0.217227	0.120755
C27	C	0.228858	-0.242165	0.095975
C28	C	0.150219	-0.169418	0.095800
C29	C	0.123497	-0.146417	0.118650
C30	C	0.146440	-0.171223	0.166454
C31	C	-0.027681	0.004750	0.191435
C32	C	-0.073531	0.054325	0.168594
C33	C	-0.096529	0.079191	0.120794
C34	C	-0.146245	0.132941	0.096024
C35	C	-0.073681	0.054490	0.095832
C36	C	-0.027832	0.004917	0.118671
C37	C	-0.004833	-0.019950	0.166473
C38	C	0.440872	-0.073698	0.587216
C39	C	0.489455	-0.098044	0.587555
C40	C	0.440872	-0.146287	0.587216
C41	C	0.489455	-0.170523	0.587555
C42	C	0.513462	-0.146287	0.587216
C43	C	0.416976	-0.098044	0.587555
C44	C	0.362230	0.004755	0.581326
C45	C	0.335505	0.054329	0.577608
C46	C	0.358444	0.079192	0.575743
C47	C	0.329469	0.132944	0.571709
C48	C	0.408112	0.054486	0.577599
C49	C	0.434836	0.004915	0.581319
C50	C	0.411893	-0.019949	0.583180
C51	C	0.586026	-0.146098	0.581326
C52	C	0.631882	-0.168948	0.577608
C53	C	0.654880	-0.216750	0.575743
C54	C	0.704599	-0.241527	0.571709
C55	C	0.632030	-0.241711	0.577599
C56	C	0.586178	-0.218864	0.581319
C57	C	0.563176	-0.171057	0.583180
C58	C	0.362230	-0.146100	0.581326
C59	C	0.335501	-0.168948	0.577601
C60	C	0.358440	-0.216750	0.575736
C61	C	0.329465	-0.241527	0.571703
C62	C	0.408103	-0.241708	0.577591
C63	C	0.434832	-0.218862	0.581313
C64	C	0.411893	-0.171058	0.583180
C65	C	0.044874	-0.411999	0.529512
C66	C	0.068881	-0.460242	0.529173
C67	C	0.117464	-0.411999	0.529512
C68	C	0.141360	-0.460242	0.529173
C69	C	0.117463	-0.484588	0.529512
C70	C	0.068882	-0.387763	0.529173
C71	C	-0.027689	-0.339246	0.535403
C72	C	-0.073546	-0.316239	0.539120
C73	C	-0.096544	-0.341042	0.540986
C74	C	-0.146262	-0.316100	0.545019
C75	C	-0.073695	-0.388853	0.539129
C76	C	-0.027842	-0.411858	0.535409
C77	C	-0.004840	-0.387054	0.533548
C78	C	0.123164	-0.563041	0.535402
C79	C	0.149731	-0.612615	0.539120
C80	C	0.199398	-0.637479	0.540985
C81	C	0.228208	-0.691230	0.545019
C82	C	0.222503	-0.612772	0.539129
C83	C	0.195936	-0.563201	0.535409
C84	C	0.146269	-0.538337	0.533548
C85	C	0.123166	-0.339247	0.535403
C86	C	0.149738	-0.316242	0.539127
C87	C	0.199406	-0.341046	0.540992
C88	C	0.228216	-0.316104	0.545025
C89	C	0.222510	-0.388855	0.539137
C90	C	0.195942	-0.411861	0.535415
C91	C	0.146270	-0.387055	0.533548
O92	O	0.837462	-0.341626	0.546471
O93	O	0.720873	-0.283328	0.570257
O94	O	0.720876	-0.283336	0.488178
O95	O	0.837459	-0.341619	0.628550
O96	O	0.720877	-0.216665	0.488178
O97	O	0.720874	-0.216658	0.570257
O98	O	0.837464	-0.274956	0.546471
Cu99	Cu	0.779169	-0.239719	0.558364
Cu100	Cu	0.779167	-0.318565	0.558364
O101	O	0.837461	-0.274948	0.628550
O102	O	-0.279104	0.291033	0.062618
O103	O	-0.162521	0.150662	0.120894
O104	O	-0.162517	0.232741	0.120907
O105	O	-0.279108	0.208954	0.062606
O106	O	-0.162520	0.232746	0.054234
O107	O	-0.162524	0.150667	0.054222
O108	O	-0.279106	0.291038	-0.004054
Cu109	Cu	-0.220815	0.220853	0.018996
Cu110	Cu	-0.220812	0.220847	0.097844
O111	O	-0.279111	0.208960	-0.004066
O112	O	0.271461	0.291045	0.546471
O113	O	0.353543	0.150671	0.570257
O114	O	0.271464	0.232746	0.488178
O115	O	0.353540	0.208971	0.628550
O116	O	0.204794	0.232743	0.488178
O117	O	0.286873	0.150669	0.570257
O118	O	0.204791	0.291042	0.546471
Cu119	Cu	0.239744	0.220856	0.558364
Cu120	Cu	0.318590	0.220858	0.558364
O121	O	0.286870	0.208968	0.628550
O122	O	0.286859	-0.274922	-0.004125
O123	O	0.204783	-0.216637	0.054176
O124	O	0.286864	-0.216634	0.054178
O125	O	0.204779	-0.274926	-0.004127
O126	O	0.353533	-0.283305	0.120842
O127	O	0.271452	-0.283308	0.120840
O128	O	0.353528	-0.341594	0.062539
Cu129	Cu	0.318578	-0.318539	0.097776
Cu130	Cu	0.239734	-0.239692	0.018939
O131	O	0.271448	-0.341597	0.062537
C132	C	0.513452	-0.484557	0.925503
C133	C	0.489444	-0.460210	0.949738
C134	C	0.440865	-0.411974	0.852915
C135	C	0.416967	-0.387737	0.877261
C136	C	0.440862	-0.411969	0.925503
C137	C	0.489446	-0.460215	0.877261
C138	C	0.586016	-0.563010	0.925314
C139	C	0.631872	-0.612582	0.948163
C140	C	0.654869	-0.637442	0.995964
C141	C	0.704586	-0.691192	1.020740
C142	C	0.632018	-0.612734	1.020924
C143	C	0.586166	-0.563164	0.998077
C144	C	0.563165	-0.538305	0.950272
C145	C	0.435158	-0.412153	0.998254
C146	C	0.408590	-0.389302	1.021260
C147	C	0.358923	-0.341502	0.996457
C148	C	0.330112	-0.316724	1.021398
C149	C	0.335820	-0.316545	0.948647
C150	C	0.362389	-0.339394	0.925643
C151	C	0.412055	-0.387198	0.950446
C152	C	0.435165	-0.412168	0.774463
C153	C	0.408595	-0.389324	0.724888
C154	C	0.358928	-0.341524	0.700025
C155	C	0.330120	-0.316752	0.646274
C156	C	0.335823	-0.316564	0.724729
C157	C	0.362389	-0.339406	0.774302
C158	C	0.412060	-0.387208	0.799167
C159	C	0.440888	-0.073734	0.191225
C160	C	0.416991	-0.098082	0.166990
C161	C	0.513474	-0.146316	0.263813
C162	C	0.489467	-0.170554	0.239468
C163	C	0.440887	-0.146323	0.191226
C164	C	0.489468	-0.098075	0.239467
C165	C	0.435187	0.004720	0.191412
C166	C	0.408620	0.054292	0.168562
C167	C	0.358955	0.079151	0.120761
C168	C	0.330146	0.132901	0.095984
C169	C	0.335851	0.054443	0.095801
C170	C	0.362417	0.004873	0.118649
C171	C	0.412083	-0.019986	0.166454
C172	C	0.362246	-0.146140	0.118476
C173	C	0.335523	-0.168992	0.095471
C174	C	0.358460	-0.216792	0.120275
C175	C	0.329485	-0.241570	0.095334
C176	C	0.408126	-0.241748	0.168084
C177	C	0.434850	-0.218899	0.191088
C178	C	0.411908	-0.171095	0.166283
C179	C	0.586035	-0.146120	0.342265
C180	C	0.631885	-0.168963	0.391840
C181	C	0.654882	-0.216763	0.416703
C182	C	0.704598	-0.241534	0.470454
C183	C	0.632033	-0.241724	0.392000
C184	C	0.586183	-0.218883	0.342427
C185	C	0.563186	-0.171081	0.317562
C186	C	1.117451	-0.411971	0.925504
C187	C	1.141345	-0.460212	0.949738
C188	C	1.044862	-0.411975	0.852915
C189	C	1.068867	-0.460216	0.877260
C190	C	1.117447	-0.484559	0.925502
C191	C	1.068870	-0.387738	0.877262
C192	C	1.123156	-0.339221	0.925317
C193	C	1.149725	-0.316214	0.948167
C194	C	1.199390	-0.341015	0.995968
C195	C	1.228201	-0.316073	1.020745
C196	C	1.222492	-0.388823	1.020928
C197	C	1.195923	-0.411828	0.998080
C198	C	1.146258	-0.387027	0.950274
C199	C	1.196085	-0.563008	0.998252
C200	C	1.222807	-0.612580	1.021257
C201	C	1.199868	-0.637444	0.996453
C202	C	1.228840	-0.691194	1.021393
C203	C	1.150202	-0.612740	0.948643
C204	C	1.123480	-0.563171	0.925640
C205	C	1.146424	-0.538306	0.950445
C206	C	0.972303	-0.339228	0.774464
C207	C	0.926453	-0.316227	0.724889
C208	C	0.903454	-0.341032	0.700025
C209	C	0.853738	-0.316093	0.646274
C210	C	0.926301	-0.388838	0.724728
C211	C	0.972152	-0.411841	0.774301
C212	C	0.995150	-0.387034	0.799167
C213	C	0.117483	0.249707	0.191281
C214	C	0.141381	0.250044	0.239525
C215	C	0.044895	0.249704	0.191281
C216	C	0.068904	0.250040	0.239525
C217	C	0.117486	0.249702	0.263872
C218	C	0.068900	0.250046	0.167045
C219	C	0.123180	0.243823	0.118526
C220	C	0.149746	0.240108	0.095519
C221	C	0.199413	0.238243	0.120323
C222	C	0.228221	0.234213	0.095380
C223	C	0.222520	0.240097	0.168135
C224	C	0.195954	0.243814	0.191141
C225	C	0.146286	0.245675	0.166336
C226	C	0.196132	0.243809	0.342327
C227	C	0.222858	0.240088	0.391902
C228	C	0.199921	0.238220	0.416766
C229	C	0.228898	0.234183	0.470518
C230	C	0.150253	0.240076	0.392059
C231	C	0.123527	0.243799	0.342486
C232	C	0.146468	0.245663	0.317623
C233	C	-0.027672	0.243816	0.118526
C234	C	-0.073524	0.240092	0.095520
C235	C	-0.096521	0.238223	0.120325
C236	C	-0.146240	0.234189	0.095382
C237	C	-0.073669	0.240075	0.168135
C238	C	-0.027816	0.243797	0.191142
C239	C	-0.004820	0.245668	0.166336
O240	O	0.204807	0.290996	-0.004105
O241	O	0.286894	0.150624	0.054184
O242	O	0.204813	0.232699	0.054190
O243	O	0.286887	0.208921	-0.004110
O244	O	0.271483	0.232705	0.120858
O245	O	0.353563	0.150630	0.120853
O246	O	0.271476	0.291002	0.062564
Cu247	Cu	0.318607	0.220816	0.097796
Cu248	Cu	0.239763	0.220809	0.018952
O249	O	0.353557	0.208927	0.062559
C250	C	-0.559115	0.191999	-0.147030
C251	C	-0.583009	0.191657	-0.122683
C252	C	-0.486523	0.191997	-0.074439
C253	C	-0.510528	0.191655	-0.050202
C254	C	-0.559110	0.191993	-0.074439
C255	C	-0.510532	0.191660	-0.122683
C256	C	-0.564821	0.197895	-0.225485
C257	C	-0.591391	0.201616	-0.275060
C258	C	-0.641058	0.203480	-0.299924
C259	C	-0.669871	0.207517	-0.353676
C260	C	-0.664160	0.201621	-0.275216
C261	C	-0.637591	0.197898	-0.225644
C262	C	-0.587923	0.196038	-0.200780
C263	C	-0.637751	0.197880	-0.074626
C264	C	-0.664473	0.201595	-0.051775
C265	C	-0.641532	0.203457	-0.003971
C266	C	-0.670505	0.207488	0.020807
C267	C	-0.591864	0.201601	0.020990
C268	C	-0.565142	0.197884	-0.001859
C269	C	-0.588087	0.196026	-0.049667
C270	C	-0.413960	0.197890	-0.074628
C271	C	-0.368108	0.201615	-0.051779
C272	C	-0.345107	0.203477	-0.003976
C273	C	-0.295388	0.207511	0.020801
C274	C	-0.367955	0.201620	0.020984
C275	C	-0.413807	0.197897	-0.001863
C276	C	-0.436808	0.196033	-0.049668
H277	H	0.082726	-0.107182	0.322034
H278	H	1.082713	-0.319022	0.886393
C279	C	-0.510509	0.195842	0.025596
N280	N	-0.469360	0.194304	0.046276
C281	C	-0.510182	0.195843	-0.198136
N282	N	-0.469028	0.194299	-0.177538
C283	C	0.221365	0.245867	0.314977
N284	N	0.240373	0.247416	0.294378
H285	H	0.475629	-0.015519	0.230336
C286	C	0.516611	-0.224101	0.265874
N287	N	0.537055	-0.264432	0.285761
H288	H	-0.490432	0.191107	-0.010563
C289	C	0.068527	-0.311957	0.533349
N290	N	0.027374	-0.291403	0.531806
C291	C	0.277145	-0.294300	0.419344
N292	N	0.318299	-0.333906	0.439942
H293	H	1.262936	-0.409015	1.059853
C294	C	-0.565978	0.203663	-0.302234
N295	N	-0.546837	0.205204	-0.322702
C296	C	-0.002701	-0.022254	0.091211
N297	N	0.016227	-0.042719	0.070526
C298	C	-0.342978	0.203656	-0.079237
N299	N	-0.324050	0.205196	-0.099920
H300	H	-0.092409	0.074740	0.056908
H301	H	-0.092127	0.238585	0.056593
C302	C	0.221355	-0.536027	0.533376
N303	N	0.240505	-0.515561	0.531849
H304	H	0.262947	-0.633024	0.540646
H305	H	-0.573186	0.203116	0.059918
C306	C	0.277490	0.238046	0.419074
N307	N	0.318640	0.236508	0.439544
H308	H	0.567578	-0.239209	0.322315
C309	C	0.901316	-0.263636	0.697723
N310	N	0.882379	-0.224022	0.677260
C311	C	0.657325	-0.640085	1.073513
N312	N	0.676386	-0.660683	1.113124
H313	H	0.214784	-0.239233	0.230330
H314	H	0.082720	-0.542799	0.533884
C315	C	0.516589	-0.486623	0.850855
N316	N	0.537032	-0.506513	0.830966
H317	H	0.343575	-0.319073	0.886715
C318	C	-0.635821	0.190918	-0.149089
N319	N	-0.675597	0.190361	-0.168977
C320	C	0.433341	0.081843	0.575544
N321	N	0.452345	0.102447	0.573995
H322	H	0.475276	-0.015200	0.582832
C323	C	-0.718803	0.203676	-0.302574
N324	N	-0.759960	0.205225	-0.323177
H325	H	0.130923	-0.148634	0.411959
C326	C	-0.342652	0.203669	0.073573
N327	N	-0.323590	0.205211	0.113183
H328	H	0.650472	-0.632695	0.927836
H329	H	-0.490469	0.191156	-0.142246
C330	C	0.434034	0.081468	0.196020
N331	N	0.453176	0.101938	0.216700
H332	H	0.509558	-0.078525	0.259010
C333	C	0.125024	0.238020	0.419415
N334	N	0.106019	0.236472	0.440018
H335	H	0.214745	-0.239188	0.322304
H336	H	0.377873	-0.078491	0.588086
H337	H	1.214732	-0.450753	1.018404
H338	H	-0.008951	0.245340	0.098324
H339	H	0.295068	0.074440	0.576097
H340	H	0.567301	-0.107173	0.582844
H341	H	0.426778	-0.280633	0.576067
C342	C	-0.002710	-0.464447	0.533365
N343	N	0.016221	-0.504058	0.531827
H344	H	-0.432410	0.196386	0.018462
C345	C	0.194169	-0.224069	0.265868
N346	N	0.233944	-0.264400	0.285751
H347	H	0.343573	-0.319081	0.794414
C348	C	0.281184	-0.263979	0.697377
N349	N	0.240032	-0.224372	0.676774
C350	C	0.561083	-0.246339	0.583415
N351	N	0.542195	-0.267040	0.585012
C352	C	0.041763	0.250773	0.265932
N353	N	0.021321	0.251326	0.285821
C354	C	0.124317	-0.263651	0.541161
N355	N	0.105171	-0.224038	0.542694
H356	H	0.082736	0.245342	0.098325
C357	C	0.516598	-0.071638	0.588293
N358	N	0.537042	-0.051749	0.588848
H359	H	-0.432683	0.196369	-0.113552
H360	H	0.048781	-0.479783	0.528618
C361	C	-0.098674	-0.263651	0.541164
N362	N	-0.117604	-0.224040	0.542703
C363	C	0.124313	-0.639787	0.541164
N364	N	0.105172	-0.660256	0.542704
C365	C	0.281223	0.081790	0.043209
N366	N	0.240081	0.102384	0.003595
C367	C	0.434019	-0.416781	0.697719
N368	N	0.453167	-0.437462	0.677253
H369	H	0.214757	-0.450790	0.533906
C370	C	0.657332	-0.294309	0.419353
N371	N	0.676391	-0.333916	0.439956
H372	H	0.475601	-0.451076	1.018454
C373	C	-0.719106	0.203638	-0.079236
N374	N	-0.760257	0.205179	-0.099917
H375	H	1.263244	-0.632687	1.060184
H376	H	0.650482	-0.148620	0.576098
H377	H	0.650764	-0.280638	0.576081
C378	C	0.281179	-0.263961	0.921363
N379	N	0.240023	-0.224355	0.900811
H380	H	0.990747	-0.450765	0.794415
C381	C	0.364157	-0.334189	0.850856
N382	N	0.324382	-0.293858	0.830970
H383	H	0.509540	-0.210159	0.588093
H384	H	0.295067	-0.148623	0.576095
C385	C	0.997601	-0.311938	0.801814
N386	N	1.016659	-0.291385	0.822413
H387	H	-0.656406	0.196391	-0.205530
H388	H	-0.092130	0.074432	0.188922
C389	C	0.041757	0.250783	0.113495
N390	N	0.021312	0.251338	0.073163
C391	C	0.124329	0.238067	0.042930
N392	N	0.105184	0.236531	0.003317
H393	H	0.343564	-0.107217	0.098275
H394	H	-0.656436	0.196365	-0.113553
C395	C	0.280898	-0.141540	0.042879
N396	N	0.239756	-0.120866	0.003265
C397	C	1.221320	-0.535657	1.025544
N398	N	1.240328	-0.515056	1.046101
H399	H	0.377900	-0.078537	0.127352
H400	H	-0.092429	-0.409046	0.540647
H401	H	0.048797	-0.078505	0.259028
H402	H	0.650485	-0.148635	0.411949
C403	C	0.277161	0.238043	0.195420
N404	N	0.318317	0.236496	0.215973
C405	C	0.516573	-0.486618	1.003280
N406	N	0.537000	-0.506511	1.043604
C407	C	-0.002383	-0.022601	0.244019
N408	N	0.016675	-0.043201	0.283627
C409	C	-0.098968	0.238020	0.195422
N410	N	-0.118027	0.236475	0.215972
H411	H	0.263260	-0.280960	0.188878
H412	H	1.048769	-0.479759	0.857713
H413	H	0.343547	-0.015487	0.582843
C414	C	0.124987	-0.142132	0.043214
N415	N	0.105980	-0.121580	0.003607
H416	H	0.475268	-0.239185	0.582820
H417	H	0.048787	-0.348124	0.528626
H418	H	1.131526	-0.632992	0.928450
H419	H	-0.008965	-0.319045	0.533884
C420	C	0.336992	-0.093513	0.583377
N421	N	0.317980	-0.053902	0.584917
H422	H	0.262957	-0.409053	0.540659
C423	C	0.434009	-0.416756	1.073851
N424	N	0.453154	-0.437432	1.113463
H425	H	0.083058	-0.107492	0.098330
C426	C	0.560734	-0.093534	0.314917
N427	N	0.541671	-0.053923	0.294320
C428	C	0.337006	-0.022307	0.091195
N429	N	0.317865	-0.042778	0.070516
C430	C	1.068851	-0.535997	0.873052
N431	N	1.027704	-0.515530	0.833441
H432	H	0.180454	-0.479787	0.528628
C433	C	0.433353	-0.294332	0.195370
N434	N	0.452356	-0.333937	0.215923
C435	C	1.124313	-0.263629	0.920710
N436	N	1.105172	-0.224020	0.900029
C437	C	0.900999	-0.416125	0.697375
N438	N	0.881938	-0.436676	0.676772
H439	H	0.475612	-0.451089	0.794706
H440	H	0.048786	-0.078493	0.127359
H441	H	0.567293	-0.542771	0.886389
H442	H	0.475293	-0.239223	0.230011
H443	H	0.567563	-0.543048	1.018401
H444	H	1.180435	-0.479753	0.989377
H445	H	1.048783	-0.348102	0.857718
H446	H	0.180479	0.250583	0.259073
H447	H	0.214768	0.245324	0.230069
H448	H	0.083084	0.245315	0.322370
H449	H	-0.009209	0.245303	0.230072
