data_functionalizedCrystal
_audit_creation_method	'MofGen! by Chris Wilmer'
_symmetry_space_group_name_H-M	'P1'
_symmetry_Int_Tables_number	1
_symmetry_cell_setting	triclinic
loop_
_symmetry_equiv_pos_as_xyz
  x,y,z
_cell_length_a	10.723024
_cell_length_b	14.044220
_cell_length_c	9.198806
_cell_angle_alpha	89.995861
_cell_angle_beta	89.996352
_cell_angle_gamma	88.828373
loop_
_atom_site_label
_atom_site_type_symbol
_atom_site_fract_x
_atom_site_fract_y
_atom_site_fract_z
O1	O	1.670498	0.133040	-0.120888
O2	O	1.308620	0.145774	-0.120893
O3	O	1.484127	0.001387	-0.120876
O4	O	1.494991	0.277427	-0.120905
O5	O	1.484112	0.001387	0.120909
O6	O	1.308604	0.145774	0.120892
O7	O	1.670483	0.133039	0.120898
Cu8	Cu	1.489542	0.139407	0.142972
Cu9	Cu	1.489560	0.139407	-0.142967
O10	O	1.494975	0.277427	0.120881
C11	C	1.262020	0.144847	-0.000001
C12	C	1.123188	0.142075	-0.000003
C13	C	1.056288	0.222866	-0.000012
C14	C	0.912798	0.220002	-0.000013
C15	C	1.479364	-0.033958	0.000017
C16	C	1.465180	-0.139276	0.000019
C17	C	1.439248	-0.332106	-0.000003
C18	C	1.539849	-0.389085	-0.000006
C19	C	1.525420	-0.496383	-0.000017
C20	C	1.453675	-0.224799	0.000009
C21	C	1.717083	0.133966	0.000002
C22	C	1.855914	0.136739	-0.000006
C23	C	1.499738	0.312772	-0.000016
C24	C	1.513923	0.418090	-0.000027
N25	N	1.489539	0.139406	0.344086
N26	N	1.489573	0.139401	-0.344081
C27	C	1.563202	0.078514	0.416290
C28	C	1.563221	0.078511	0.583702
H29	H	0.855286	0.289166	-0.000027
H30	H	0.913420	0.067571	-0.000007
N31	N	1.668291	-0.346968	0.000033
H32	H	1.733422	-0.399946	0.000036
H33	H	1.678659	-0.306345	-0.089590
H34	H	1.626293	0.026383	0.645795
N35	N	1.058348	0.047643	0.000020
H36	H	1.004455	0.042767	-0.089607
H37	H	1.122778	-0.005827	0.000084
N38	N	1.310812	-0.374221	-0.000007
H39	H	1.318582	-0.446013	-0.000010
H40	H	1.263972	-0.352374	0.089633
H41	H	1.626251	0.026381	0.354170
N42	N	1.406023	0.208465	0.573704
H43	H	1.458608	0.250646	0.510537
H44	H	1.346617	0.171856	0.510652
N45	N	1.121117	0.317303	-0.000012
H46	H	1.214432	0.305962	-0.000009
H47	H	1.096086	0.354564	-0.089650
N48	N	1.406013	0.208456	0.426366
H49	H	1.428103	0.275848	0.399947
H50	H	1.316134	0.197039	0.399939
