data_functionalizedCrystal
_audit_creation_method	'MofGen! by Chris Wilmer'
_symmetry_space_group_name_H-M	'P1'
_symmetry_Int_Tables_number	1
_symmetry_cell_setting	triclinic
loop_
_symmetry_equiv_pos_as_xyz
  x,y,z
_cell_length_a	17.000383
_cell_length_b	17.019294
_cell_length_c	15.500227
_cell_angle_alpha	88.951630
_cell_angle_beta	87.377684
_cell_angle_gamma	79.506204
loop_
_atom_site_label
_atom_site_type_symbol
_atom_site_fract_x
_atom_site_fract_y
_atom_site_fract_z
O1	O	1.059871	0.024415	-0.073822
O2	O	1.559871	0.524415	0.426178
O3	O	0.828216	0.052930	-0.075935
O4	O	1.328216	0.552930	0.424065
O5	O	0.950068	-0.076142	-0.066321
O6	O	1.450068	0.423858	0.433679
O7	O	0.938019	0.153488	-0.083436
O8	O	1.438019	0.653488	0.416564
O9	O	0.942674	-0.068338	0.076986
O10	O	1.442674	0.431662	0.576986
O11	O	0.820821	0.060734	0.067373
O12	O	1.320821	0.560734	0.567373
O13	O	1.052477	0.032219	0.069485
O14	O	1.552477	0.532219	0.569485
Cu15	Cu	0.935974	0.047189	0.081514
Cu16	Cu	1.435974	0.547189	0.581514
Cu17	Cu	0.944719	0.037960	-0.087964
Cu18	Cu	1.444719	0.537960	0.412036
O19	O	0.930625	0.161292	0.059872
O20	O	1.430625	0.661292	0.559872
C21	C	0.794869	0.058364	-0.004394
C22	C	1.294869	0.558364	0.495606
C23	C	0.706523	0.062918	-0.004728
C24	C	1.206523	0.562918	0.495272
C25	C	0.945768	-0.101477	0.007510
C26	C	1.445768	0.398523	0.507510
C27	C	0.943963	-0.188592	0.013998
C28	C	1.443963	0.311408	0.513998
C29	C	0.206387	0.092320	-0.006952
C30	C	0.706387	0.592320	0.493048
C31	C	0.289398	0.088035	-0.006632
C32	C	0.789398	0.588035	0.493368
C33	C	0.340192	0.013661	-0.001082
C34	C	0.840192	0.513661	0.498918
C35	C	0.307970	-0.056433	0.004139
C36	C	0.807970	0.443567	0.504139
C37	C	0.224961	-0.052147	0.003813
C38	C	0.724961	0.447853	0.503813
C39	C	0.591292	-0.002891	0.000167
C40	C	1.091292	0.497109	0.500167
C41	C	0.674306	-0.007171	0.000495
C42	C	1.174306	0.492829	0.500495
C43	C	0.655728	0.137298	-0.010278
C44	C	1.155728	0.637298	0.489722
C45	C	0.572718	0.141576	-0.010598
C46	C	1.072718	0.641576	0.489402
C47	C	0.540504	0.071482	-0.005382
C48	C	1.040504	0.571482	0.494618
C49	C	0.425043	0.009280	-0.000752
C50	C	0.925043	0.509280	0.499248
C51	C	0.455655	0.075864	-0.005718
C52	C	0.955655	0.575864	0.494282
C53	C	0.947147	-0.233768	-0.061071
C54	C	1.447147	0.266232	0.438929
C55	C	0.945446	-0.315621	-0.054972
C56	C	1.445446	0.184379	0.445028
C57	C	0.940566	-0.352297	0.026196
C58	C	1.440566	0.147703	0.526196
C59	C	0.937379	-0.307114	0.101269
C60	C	1.437379	0.192886	0.601269
C61	C	0.939075	-0.225262	0.095170
C62	C	1.439075	0.274738	0.595170
C63	C	0.935239	-0.599224	0.048520
C64	C	1.435239	-0.099224	0.548520
C65	C	0.933546	-0.681083	0.054614
C66	C	1.433546	-0.181083	0.554614
C67	C	0.941611	-0.689584	-0.101629
C68	C	1.441611	-0.189584	0.398371
C69	C	0.943312	-0.607730	-0.107721
C70	C	1.443312	-0.107730	0.392279
C71	C	0.940120	-0.562554	-0.032647
C72	C	1.440120	-0.062554	0.467353
C73	C	0.938829	-0.435964	0.032431
C74	C	1.438829	0.064036	0.532431
C75	C	0.941851	-0.478887	-0.038884
C76	C	1.441851	0.021113	0.461116
C77	C	1.085824	0.026786	-0.002058
C78	C	1.585824	0.526786	0.497942
C79	C	1.174171	0.022231	-0.001729
C80	C	1.674171	0.522231	0.498271
C81	C	0.934925	0.186626	-0.013961
C82	C	1.434925	0.686626	0.486039
C83	C	0.936730	0.273741	-0.020455
C84	C	1.436730	0.773741	0.479545
N85	N	0.929829	0.053679	0.200716
N86	N	1.429829	0.553679	0.700716
N87	N	0.950870	0.031464	-0.207165
N88	N	1.450870	0.531464	0.292835
C89	C	0.981480	-0.000996	0.250065
C90	C	1.481480	0.499004	0.750065
C91	C	0.976841	0.003920	0.340271
C92	C	1.476841	0.503920	0.840271
C93	C	0.920553	0.063514	0.381127
C94	C	1.420553	0.563514	0.881127
C95	C	0.868896	0.118191	0.331772
C96	C	1.368896	0.618191	0.831772
C97	C	0.873533	0.113272	0.241567
C98	C	1.373533	0.613272	0.741567
C99	C	0.903850	0.081222	0.653275
C100	C	1.403850	0.581222	1.153275
C101	C	0.899219	0.086139	0.743486
C102	C	1.399219	0.586139	1.243486
C103	C	1.007163	-0.028135	0.751980
C104	C	1.507163	0.471865	1.251980
C105	C	1.011797	-0.033046	0.661773
C106	C	1.511797	0.466954	1.161773
C107	C	0.960138	0.021629	0.612425
C108	C	1.460138	0.521629	1.112425
C109	C	0.915810	0.068541	0.473333
C110	C	1.415810	0.568541	0.973333
C111	C	0.964877	0.016598	0.520222
C112	C	1.464877	0.516598	1.020222
H113	H	0.165035	0.152884	-0.011465
H114	H	0.665035	0.652884	0.488535
H115	H	0.929567	-0.710941	0.120713
H116	H	1.429567	-0.210941	0.620713
C117	C	0.730179	-0.088992	0.006593
C118	C	1.230179	0.411008	0.506593
N119	N	0.772262	-0.150617	0.011186
N120	N	1.272262	0.349383	0.511186
C121	C	0.837293	0.151697	0.788426
C122	C	1.337293	0.651697	1.288426
N123	N	0.790653	0.201074	0.822274
N124	N	1.290653	0.701074	1.322274
H125	H	0.933400	-0.336981	0.167358
H126	H	1.433400	0.163019	0.667358
C127	C	0.480923	-0.072529	0.005368
C128	C	0.980923	0.427471	0.505368
N129	N	0.523014	-0.134147	0.009980
N130	N	1.023014	0.365853	0.509980
H131	H	0.861788	0.125742	0.613103
H132	H	1.361788	0.625742	1.113103
H133	H	0.414295	0.136419	-0.010240
H134	H	0.914295	0.636419	0.489760
C135	C	0.691171	0.214396	-0.016023
C136	C	1.191171	0.714396	0.483977
N137	N	0.717866	0.272469	-0.020355
N138	N	1.217866	0.772469	0.479645
C139	C	0.363846	-0.138245	0.010249
C140	C	0.863846	0.361755	0.510249
N141	N	0.405931	-0.199867	0.014857
N142	N	0.905931	0.300133	0.514857
H143	H	0.936470	-0.188478	0.156299
H144	H	1.436470	0.311522	0.656299
H145	H	0.947287	-0.577875	-0.173816
H146	H	1.447287	-0.077875	0.326184
C147	C	0.816719	0.173425	0.187283
C148	C	1.316719	0.673425	0.687283
N149	N	0.773925	0.218734	0.146397
N150	N	1.273925	0.718734	0.646397
C151	C	0.189524	-0.129251	0.009562
C152	C	0.689524	0.370749	0.509562
N153	N	0.162835	-0.187327	0.013891
N154	N	0.662835	0.312673	0.513891
H155	H	0.565074	-0.059967	0.004417
H156	H	1.065074	0.440033	0.504417
H157	H	0.948042	-0.352401	-0.116101
H158	H	1.448042	0.147599	0.383899
C159	C	0.931732	-0.549541	0.131104
C160	C	1.431732	-0.049541	0.631104
N161	N	0.929091	-0.512117	0.193311
N162	N	1.429091	-0.012117	0.693311
H163	H	0.951126	-0.203914	-0.127166
H164	H	1.451126	0.296086	0.372834
C165	C	0.853890	0.134089	0.518283
C166	C	1.353890	0.634089	1.018283
N167	N	0.807248	0.183456	0.552144
N168	N	1.307248	0.683456	1.052144
C169	C	0.945113	-0.739282	-0.184205
C170	C	1.445113	-0.239282	0.315795
N171	N	0.947746	-0.776715	-0.246404
N172	N	1.447746	-0.276715	0.253596
H173	H	0.315624	0.145109	-0.010894
H174	H	0.815624	0.645109	0.489106
H175	H	0.945819	-0.449021	-0.104970
H176	H	1.445819	0.050979	0.395030
C177	C	1.043401	-0.066555	0.205132
C178	C	1.543401	0.433445	0.705132
N179	N	1.090040	-0.115938	0.171291
N180	N	1.590040	0.384062	0.671291
H181	H	0.934858	-0.465835	0.098518
H182	H	1.434858	0.034165	0.598518
H183	H	1.049220	-0.072649	0.792167
H184	H	1.549220	0.427351	1.292167
H185	H	0.823061	0.166712	0.365042
H186	H	1.323061	0.666712	0.865042
H187	H	1.018898	-0.040602	0.380451
H188	H	1.518898	0.459398	0.880451
C189	C	1.073714	-0.098608	0.616839
C190	C	1.573714	0.401392	1.116839
N191	N	1.120351	-0.147990	0.582994
N192	N	1.620351	0.352010	1.082994
H193	H	0.531366	0.202140	-0.015120
H194	H	1.031366	0.702140	0.484880
C195	C	1.026785	-0.048960	0.475278
C196	C	1.526785	0.451040	0.975278
N197	N	1.073415	-0.098339	0.441418
N198	N	1.573415	0.401661	0.941418
