data_functionalizedCrystal
_audit_creation_method	'MofGen! by Chris Wilmer'
_symmetry_space_group_name_H-M	'P1'
_symmetry_Int_Tables_number	1
_symmetry_cell_setting	triclinic
loop_
_symmetry_equiv_pos_as_xyz
  x,y,z
_cell_length_a	17.699104
_cell_length_b	17.699104
_cell_length_c	18.366186
_cell_angle_alpha	89.992818
_cell_angle_beta	89.990066
_cell_angle_gamma	83.291517
loop_
_atom_site_label
_atom_site_type_symbol
_atom_site_fract_x
_atom_site_fract_y
_atom_site_fract_z
O1	O	1.004078	0.095786	-0.060566
O2	O	1.504078	0.595786	0.439434
O3	O	0.783703	0.108222	-0.060564
O4	O	1.283703	0.608222	0.439436
O5	O	0.900108	-0.008183	-0.060559
O6	O	1.400108	0.491817	0.439441
O7	O	0.887672	0.212192	-0.060572
O8	O	1.387672	0.712192	0.439428
O9	O	0.900088	-0.008189	0.060541
O10	O	1.400088	0.491811	0.560541
O11	O	0.783683	0.108216	0.060535
O12	O	1.283683	0.608216	0.560535
O13	O	1.004058	0.095781	0.060534
O14	O	1.504058	0.595781	0.560534
Zn15	Zn	0.893867	0.101998	0.079761
Zn16	Zn	1.393867	0.601998	0.579761
Zn17	Zn	0.893893	0.102005	-0.079792
Zn18	Zn	1.393893	0.602005	0.420208
O19	O	0.887653	0.212186	0.060528
O20	O	1.387653	0.712186	0.560528
C21	C	0.755496	0.107771	-0.000014
C22	C	1.255496	0.607771	0.499986
C23	C	0.671479	0.106426	-0.000014
C24	C	1.171479	0.606426	0.499986
C25	C	0.146612	0.167169	-0.000025
C26	C	0.646612	0.667169	0.499975
C27	C	0.225556	0.168429	-0.000027
C28	C	0.725556	0.668429	0.499973
C29	C	0.274168	0.100094	-0.000023
C30	C	0.774168	0.600094	0.499977
C31	C	0.243833	0.030496	-0.000024
C32	C	0.743833	0.530496	0.499976
C33	C	0.164891	0.029238	-0.000027
C34	C	0.664891	0.529238	0.499973
C35	C	0.562200	0.035569	-0.000012
C36	C	1.062200	0.535569	0.499988
C37	C	0.641147	0.036833	-0.000007
C38	C	1.141147	0.536833	0.499993
C39	C	0.622865	0.174760	-0.000013
C40	C	1.122865	0.674760	0.499987
C41	C	0.543922	0.173502	-0.000016
C42	C	1.043922	0.673502	0.499984
C43	C	0.513594	0.103904	-0.000020
C44	C	1.013594	0.603904	0.499980
C45	C	0.427994	0.102540	-0.000020
C46	C	0.927994	0.602540	0.499980
C47	C	0.359767	0.101458	-0.000018
C48	C	0.859767	0.601458	0.499982
C49	C	0.899650	-0.036383	-0.000009
C50	C	1.399650	0.463617	0.499991
C51	C	0.898305	-0.120400	-0.000008
C52	C	1.398305	0.379600	0.499992
C53	C	0.959048	-0.645267	-0.000030
C54	C	1.459048	-0.145267	0.499970
C55	C	0.960307	-0.566323	-0.000023
C56	C	1.460307	-0.066323	0.499977
C57	C	0.891973	-0.517711	-0.000021
C58	C	1.391973	-0.017711	0.499979
C59	C	0.822375	-0.548045	-0.000018
C60	C	1.322375	-0.048045	0.499982
C61	C	0.821117	-0.626988	-0.000019
C62	C	1.321117	-0.126988	0.499981
C63	C	0.827448	-0.229679	-0.000012
C64	C	1.327448	0.270321	0.499988
C65	C	0.828712	-0.150732	-0.000013
C66	C	1.328712	0.349268	0.499987
C67	C	0.966639	-0.169014	-0.000016
C68	C	1.466639	0.330986	0.499984
C69	C	0.965381	-0.247957	-0.000017
C70	C	1.465381	0.252043	0.499983
C71	C	0.895783	-0.278285	-0.000010
C72	C	1.395783	0.221715	0.499990
C73	C	0.894418	-0.363885	-0.000016
C74	C	1.394418	0.136115	0.499984
C75	C	0.893337	-0.432112	-0.000021
C76	C	1.393337	0.067888	0.499979
C77	C	1.032265	0.096232	-0.000018
C78	C	1.532265	0.596232	0.499982
C79	C	1.116282	0.097577	-0.000024
C80	C	1.616282	0.597577	0.499976
C81	C	0.888111	0.240386	-0.000024
C82	C	1.388111	0.740386	0.499976
C83	C	0.889456	0.324403	-0.000029
C84	C	1.389456	0.824403	0.499971
N85	N	0.893855	0.101992	0.188653
N86	N	1.393855	0.601992	0.688653
N87	N	0.893912	0.102005	-0.188683
N88	N	1.393912	0.602005	0.311317
C89	C	0.945416	0.050473	0.226755
C90	C	1.445416	0.550473	0.726755
C91	C	0.945421	0.050470	0.302983
C92	C	1.445421	0.550470	0.802983
C93	C	0.893872	0.101998	0.341105
C94	C	1.393872	0.601998	0.841105
C95	C	0.842301	0.153521	0.302993
C96	C	1.342301	0.653521	0.802993
C97	C	0.842293	0.153518	0.226767
C98	C	1.342293	0.653518	0.726767
C99	C	0.883834	0.170946	0.461862
C100	C	1.383834	0.670946	0.961862
C101	C	0.883848	0.170950	0.538087
C102	C	1.383848	0.670950	1.038087
C103	C	0.893893	0.102008	0.576213
C104	C	1.393893	0.602008	1.076213
C105	C	0.903941	0.033058	0.538105
C106	C	1.403941	0.533058	1.038105
C107	C	0.903933	0.033055	0.461878
C108	C	1.403933	0.533055	0.961878
C109	C	0.893875	0.102007	0.423760
C110	C	1.393875	0.602007	0.923760
C111	C	0.945463	0.050481	0.696971
C112	C	1.445463	0.550481	1.196971
C113	C	0.945462	0.050476	0.773200
C114	C	1.445462	0.550476	1.273200
C115	C	0.842346	0.153535	0.773208
C116	C	1.342346	0.653535	1.273208
C117	C	0.842343	0.153533	0.696981
C118	C	1.342343	0.653533	1.196981
C119	C	0.893905	0.102006	0.658866
C120	C	1.393905	0.602006	1.158866
H121	H	0.647567	0.231430	-0.000012
H122	H	1.147567	0.731430	0.499988
H123	H	1.016977	-0.541632	-0.000023
H124	H	1.516977	-0.041632	0.499977
C125	C	0.753540	-0.097259	-0.000003
C126	C	1.253540	0.402741	0.499997
H127	H	0.711910	-0.126627	0.000008
H128	H	1.211910	0.373373	0.500008
H129	H	0.751167	-0.066078	-0.042233
H130	H	1.251167	0.433922	0.457767
H131	H	0.751166	-0.066090	0.042233
H132	H	1.251166	0.433910	0.542233
H133	H	1.021026	-0.287534	-0.000023
H134	H	1.521026	0.212466	0.499977
H135	H	0.250246	0.225098	-0.000035
H136	H	0.750246	0.725098	0.499965
C137	C	0.744567	-0.660355	-0.000019
C138	C	1.244567	-0.160355	0.499981
H139	H	0.753604	-0.714332	-0.000013
H140	H	1.253604	-0.214332	0.499987
H141	H	0.716440	-0.643659	-0.042247
H142	H	1.216440	-0.143659	0.457753
H143	H	0.716433	-0.643667	0.042218
H144	H	1.216433	-0.143667	0.542218
C145	C	1.043198	-0.135655	-0.000014
C146	C	1.543198	0.364345	0.499986
H147	H	1.083714	-0.175914	-0.000024
H148	H	1.583714	0.324086	0.499976
H149	H	1.046554	-0.105246	0.042216
H150	H	1.546554	0.394754	0.542216
H151	H	1.046562	-0.105234	-0.042249
H152	H	1.546562	0.394766	0.457751
H153	H	0.770777	-0.254362	-0.000015
H154	H	1.270777	0.245638	0.499985
H155	H	0.504345	0.229147	-0.000015
H156	H	1.004345	0.729147	0.499985
H157	H	0.800370	0.195487	0.804247
H158	H	1.300370	0.695487	1.304247
C159	C	0.785578	0.210197	0.184852
C160	C	1.285578	0.710197	0.684852
H161	H	0.754879	0.240889	0.218470
H162	H	1.254879	0.740889	0.718470
H163	H	0.754122	0.183009	0.155125
H164	H	1.254122	0.683009	0.655125
H165	H	0.812750	0.241673	0.155108
H166	H	1.312750	0.741673	0.655108
C167	C	0.785633	0.210212	0.655065
C168	C	1.285633	0.710212	1.155065
H169	H	0.754936	0.240906	0.688685
H170	H	1.254936	0.740906	1.188685
H171	H	0.754175	0.183025	0.625340
H172	H	1.254175	0.683025	1.125340
H173	H	0.812804	0.241688	0.625319
H174	H	1.312804	0.741688	1.125319
H175	H	0.875641	0.227091	0.430826
H176	H	1.375641	0.727091	0.930826
H177	H	1.014695	-0.684842	-0.000037
H178	H	1.514695	-0.184842	0.499963
C179	C	0.747208	-0.494574	-0.000017
C180	C	1.247208	0.005426	0.499983
H181	H	0.757924	-0.443214	-0.000024
H182	H	1.257924	0.056786	0.499976
H183	H	0.718657	-0.503760	0.042212
H184	H	1.218657	-0.003760	0.542212
H185	H	0.718675	-0.503754	-0.042253
H186	H	1.218675	-0.003754	0.457747
C187	C	0.528848	-0.040985	-0.000005
C188	C	1.028848	0.459015	0.499995
H189	H	0.569108	-0.081500	0.000008
H190	H	1.069108	0.418500	0.500008
H191	H	0.498441	-0.044348	-0.042235
H192	H	0.998441	0.455652	0.457765
H193	H	0.498426	-0.044342	0.042230
H194	H	0.998426	0.455658	0.542230
C195	C	0.093145	0.242339	-0.000033
C196	C	0.593145	0.742339	0.499967
H197	H	0.122518	0.283965	-0.000042
H198	H	0.622518	0.783965	0.499958
H199	H	0.061958	0.244718	0.042193
H200	H	0.561958	0.744718	0.542193
H201	H	0.061983	0.244713	-0.042272
H202	H	0.561983	0.744713	0.457728
H203	H	0.875671	0.227093	0.569108
H204	H	1.375671	0.727093	1.069108
H205	H	0.987400	0.008516	0.195725
H206	H	1.487400	0.508516	0.695725
C207	C	1.002142	-0.006202	0.344905
C208	C	1.502142	0.493798	0.844905
H209	H	1.032851	-0.036887	0.311288
H210	H	1.532851	0.463113	0.811288
H211	H	0.974981	-0.037676	0.374656
H212	H	1.474981	0.462324	0.874656
H213	H	1.033599	0.020999	0.374626
H214	H	1.533599	0.520999	0.874626
H215	H	0.912112	-0.023085	0.430854
H216	H	1.412112	0.476915	0.930854
C217	C	0.297305	-0.044671	-0.000017
C218	C	0.797305	0.455329	0.499983
H219	H	0.348664	-0.033955	-0.000007
H220	H	0.848664	0.466045	0.499993
H221	H	0.288134	-0.073214	-0.042245
H222	H	0.788134	0.426786	0.457755
H223	H	0.288110	-0.073212	0.042220
H224	H	0.788110	0.426788	0.542220
C225	C	0.914986	-0.042782	0.580033
C226	C	1.414986	0.457218	1.080033
H227	H	0.913542	-0.032909	0.630888
H228	H	1.413542	0.467091	1.130888
H229	H	0.962764	-0.069832	0.567536
H230	H	1.462764	0.430168	1.067536
H231	H	0.875451	-0.072389	0.567551
H232	H	1.375451	0.427611	1.067551
H233	H	0.987446	0.008523	0.665937
H234	H	1.487446	0.508523	1.165937
C235	C	1.002184	-0.006196	0.815113
C236	C	1.502184	0.493804	1.315113
H237	H	1.032894	-0.036876	0.781494
H238	H	1.532894	0.463124	1.281494
H239	H	0.975025	-0.037674	0.844862
H240	H	1.475025	0.462326	1.344862
H241	H	1.033639	0.021004	0.844836
H242	H	1.533639	0.521004	1.344836
C243	C	0.785601	0.210204	0.344924
C244	C	1.285601	0.710204	0.844924
H245	H	0.792995	0.202833	0.395779
H246	H	1.292995	0.702833	0.895779
H247	H	0.735104	0.202044	0.332449
H248	H	1.235104	0.702044	0.832449
H249	H	0.793732	0.260709	0.332419
H250	H	1.293732	0.760709	0.832419
C251	C	0.131524	-0.047312	-0.000026
C252	C	0.631524	0.452688	0.499974
H253	H	0.077547	-0.038275	-0.000036
H254	H	0.577547	0.461725	0.499964
H255	H	0.148205	-0.075449	0.042204
H256	H	0.648205	0.424551	0.542204
H257	H	0.148227	-0.075436	-0.042261
H258	H	0.648227	0.424564	0.457739
C259	C	0.694623	-0.038337	-0.000008
C260	C	1.194623	0.461663	0.499992
H261	H	0.745982	-0.027617	0.000002
H262	H	1.245982	0.472383	0.500002
H263	H	0.685454	-0.066875	-0.042240
H264	H	1.185454	0.433125	0.457760
H265	H	0.685433	-0.066885	0.042225
H266	H	1.185433	0.433115	0.542225
