data_functionalizedCrystal
_audit_creation_method	'MofGen! by Chris Wilmer'
_symmetry_space_group_name_H-M	'P1'
_symmetry_Int_Tables_number	1
_symmetry_cell_setting	triclinic
loop_
_symmetry_equiv_pos_as_xyz
  x,y,z
_cell_length_a	11.792254
_cell_length_b	11.792241
_cell_length_c	15.186229
_cell_angle_alpha	89.998764
_cell_angle_beta	89.996693
_cell_angle_gamma	95.803993
loop_
_atom_site_label
_atom_site_type_symbol
_atom_site_fract_x
_atom_site_fract_y
_atom_site_fract_z
O1	O	1.506898	-0.155635	-0.073217
O2	O	2.006898	0.344365	0.426783
O3	O	1.176559	-0.171653	-0.073218
O4	O	1.676559	0.328347	0.426782
O5	O	1.349745	0.001526	-0.073223
O6	O	1.849745	0.501526	0.426777
O7	O	1.333712	-0.328814	-0.073213
O8	O	1.833712	0.171186	0.426787
O9	O	1.349734	0.001529	0.073234
O10	O	1.849734	0.501529	0.573234
O11	O	1.176548	-0.171650	0.073239
O12	O	1.676548	0.328350	0.573239
O13	O	1.506887	-0.155632	0.073240
O14	O	2.006887	0.344368	0.573240
Zn15	Zn	1.341715	-0.163641	0.096493
Zn16	Zn	1.841715	0.336359	0.596493
Zn17	Zn	1.341731	-0.163644	-0.096471
Zn18	Zn	1.841731	0.336356	0.403529
O19	O	1.333701	-0.328811	0.073245
O20	O	1.833701	0.171189	0.573245
C21	C	1.134263	-0.170642	0.000010
C22	C	1.634263	0.329358	0.500010
C23	C	1.008250	-0.167622	0.000009
C24	C	1.508250	0.332378	0.500009
C25	C	0.905913	-0.165168	0.000005
C26	C	1.405913	0.334832	0.500005
C27	C	0.777527	-0.162100	0.000005
C28	C	1.277527	0.337900	0.500005
C29	C	1.334714	-0.371104	0.000017
C30	C	1.834714	0.128896	0.500017
C31	C	1.337728	-0.497118	0.000021
C32	C	1.837728	0.002882	0.500021
C33	C	1.343271	-0.727830	-0.000001
C34	C	1.843271	-0.227830	0.499999
C35	C	1.340191	-0.599445	0.000011
C36	C	1.840191	-0.099445	0.500011
C37	C	1.549183	-0.156643	0.000010
C38	C	2.049183	0.343357	0.500010
C39	C	1.675196	-0.159663	0.000005
C40	C	2.175196	0.340337	0.500005
C41	C	1.348732	0.043819	0.000002
C42	C	1.848732	0.543819	0.500002
C43	C	1.345718	0.169832	-0.000007
C44	C	1.845718	0.669832	0.499993
N45	N	1.341713	-0.163638	0.228185
N46	N	1.841713	0.336362	0.728185
N47	N	1.341742	-0.163638	-0.228164
N48	N	1.841742	0.336362	0.271836
C49	C	1.418426	-0.086980	0.453906
C50	C	1.918426	0.413020	0.953906
C51	C	1.418430	-0.086978	0.546096
C52	C	1.918430	0.413022	1.046096
C53	C	1.265020	-0.240299	0.546109
C54	C	1.765020	0.259701	1.046109
C55	C	1.265012	-0.240296	0.453921
C56	C	1.765012	0.259704	0.953921
C57	C	1.341722	-0.163638	0.407822
C58	C	1.841722	0.336362	0.907822
C59	C	1.341733	-0.163639	0.592200
C60	C	1.841733	0.336361	1.092200
C61	C	1.341737	-0.163636	0.692156
C62	C	1.841737	0.336364	1.192156
C63	C	1.341717	-0.163638	0.307860
C64	C	1.841717	0.336362	0.807860
H65	H	1.480888	-0.024555	0.583615
H66	H	1.980888	0.475445	1.083615
C67	C	1.181692	-0.323349	0.596277
C68	C	1.681692	0.176651	1.096277
C69	C	1.111871	-0.262421	0.649230
C70	C	1.611871	0.237579	1.149230
C71	C	1.035107	-0.338891	0.695465
C72	C	1.535107	0.161109	1.195465
H73	H	1.135894	-0.369035	0.555729
H74	H	1.635894	0.130965	1.055729
H75	H	1.222786	-0.370857	0.632285
H76	H	1.722786	0.129143	1.132285
H77	H	1.070781	-0.214933	0.613225
H78	H	1.570781	0.285067	1.113225
H79	H	1.157637	-0.216739	0.689794
H80	H	1.657637	0.283261	1.189794
H81	H	1.076201	-0.386399	0.731472
H82	H	1.576201	0.113601	1.231472
H83	H	0.989318	-0.384573	0.654910
H84	H	1.489318	0.115427	1.154910
H85	H	0.987732	-0.297563	0.731404
H86	H	1.487732	0.202437	1.231404
C87	C	1.501749	-0.003619	0.404014
C88	C	2.001749	0.496381	0.904014
C89	C	1.568903	0.063535	0.464109
C90	C	2.068903	0.563535	0.964109
C91	C	1.645661	0.140355	0.418184
C92	C	2.145661	0.640355	0.918184
H93	H	1.549352	-0.044631	0.368043
H94	H	2.049352	0.455369	0.868043
H95	H	1.460655	0.043968	0.368075
H96	H	1.960655	0.543968	0.868075
H97	H	1.609994	0.015955	0.500032
H98	H	2.109994	0.515955	1.000032
H99	H	1.521331	0.104572	0.500082
H100	H	2.021331	0.604572	1.000082
H101	H	1.604567	0.187942	0.382245
H102	H	2.104567	0.687942	0.882245
H103	H	1.693256	0.099333	0.382214
H104	H	2.193256	0.599333	0.882214
H105	H	1.691226	0.185935	0.458951
H106	H	2.191226	0.685935	0.958951
C107	C	1.181678	-0.323657	0.404039
C108	C	1.681678	0.176343	0.904039
C109	C	1.114528	-0.390818	0.464140
C110	C	1.614528	0.109182	0.964140
C111	C	1.037761	-0.467625	0.418221
C112	C	1.537761	0.032375	0.918221
H113	H	1.134075	-0.282635	0.368079
H114	H	1.634075	0.217365	0.868079
H115	H	1.222766	-0.371240	0.368090
H116	H	1.722766	0.128760	0.868090
H117	H	1.073444	-0.343241	0.500074
H118	H	1.573444	0.156759	1.000074
H119	H	1.162101	-0.431865	0.500102
H120	H	1.662101	0.068135	1.000102
H121	H	1.078848	-0.515208	0.382271
H122	H	1.578848	-0.015208	0.882271
H123	H	0.990165	-0.426594	0.382262
H124	H	1.490165	0.073406	0.882262
H125	H	0.992197	-0.513210	0.458992
H126	H	1.492197	-0.013210	0.958992
