data_functionalizedCrystal
_audit_creation_method	'MofGen! by Chris Wilmer'
_symmetry_space_group_name_H-M	'P1'
_symmetry_Int_Tables_number	1
_symmetry_cell_setting	triclinic
loop_
_symmetry_equiv_pos_as_xyz
  x,y,z
_cell_length_a	12.759395
_cell_length_b	12.759394
_cell_length_c	21.395355
_cell_angle_alpha	90.014577
_cell_angle_beta	90.022159
_cell_angle_gamma	90.016374
loop_
_atom_site_label
_atom_site_type_symbol
_atom_site_fract_x
_atom_site_fract_y
_atom_site_fract_z
Zn1	Zn	1.606285	-0.418345	0.354239
Zn2	Zn	1.606170	-0.594010	0.249468
Zn3	Zn	1.430578	-0.418350	0.249480
Zn4	Zn	1.430575	-0.593987	0.354213
O5	O	1.518402	-0.506173	0.301850
O6	O	1.753291	-0.441655	0.340347
O7	O	1.582830	-0.570720	0.161792
O8	O	1.453935	-0.271328	0.263392
O9	O	1.753206	-0.570715	0.263372
O10	O	1.583026	-0.271325	0.340358
O11	O	1.453824	-0.441663	0.161800
O12	O	1.283556	-0.441641	0.263367
O13	O	1.453930	-0.570677	0.441894
O14	O	1.283554	-0.570681	0.340314
O15	O	1.583023	-0.441633	0.441913
O16	O	1.582828	-0.741028	0.263347
O17	O	1.453819	-0.741011	0.340303
C18	C	1.245434	-0.506160	0.301839
C19	C	1.128658	-0.506180	0.301849
C20	C	1.128694	-0.640767	0.381845
C21	C	1.073851	-0.708068	0.421844
C22	C	0.964130	-0.708081	0.421852
C23	C	0.909248	-0.640783	0.381857
C24	C	0.964091	-0.573481	0.341858
C25	C	1.073815	-0.573478	0.341853
C26	C	0.964055	-0.438891	0.261866
C27	C	1.073776	-0.438882	0.261855
C28	C	0.909173	-0.371593	0.221872
C29	C	0.964016	-0.304295	0.181868
C30	C	1.073744	-0.304286	0.181862
C31	C	1.128619	-0.371580	0.221855
C32	C	1.518339	-0.779141	0.301835
C33	C	1.518408	-0.895917	0.301849
C34	C	1.652846	-0.895881	0.221776
C35	C	1.720092	-0.950724	0.181746
C36	C	1.720154	-1.060445	0.181763
C37	C	1.652964	-1.115327	0.221815
C38	C	1.585718	-1.060484	0.261845
C39	C	1.585661	-0.950760	0.261822
C40	C	1.451287	-1.060520	0.341920
C41	C	1.451218	-0.950799	0.341901
C42	C	1.384097	-1.115402	0.381973
C43	C	1.316844	-1.060559	0.422000
C44	C	1.316784	-0.950831	0.421981
C45	C	1.383972	-0.895956	0.381931
C46	C	1.792435	-0.506187	0.301861
C47	C	1.909212	-0.506192	0.301866
C48	C	1.518489	-0.506152	0.465273
C49	C	1.518526	-0.506143	0.534914
C50	C	1.518494	-0.232140	0.301879
C51	C	1.518533	-0.115363	0.301891
C52	C	1.518375	-0.506118	0.139062
C53	C	1.518542	-0.505832	0.069421
C54	C	1.585742	-0.438947	0.567638
C55	C	1.585741	-0.438902	0.633074
C56	C	1.518534	-0.506071	0.665783
C57	C	1.451305	-0.573272	0.633051
C58	C	1.451301	-0.573308	0.567617
C59	C	1.510217	-0.600670	0.769452
C60	C	1.510228	-0.600636	0.834885
C61	C	1.518541	-0.505960	0.867604
C62	C	1.526864	-0.411315	0.834881
C63	C	1.526860	-0.411351	0.769447
C64	C	1.518531	-0.506039	0.736735
C65	C	1.585759	-0.438710	0.971280
C66	C	1.585750	-0.438663	1.036717
C67	C	1.451320	-0.573042	1.036693
C68	C	1.451323	-0.573080	0.971257
C69	C	1.518548	-0.505915	0.938555
H70	H	1.218035	-0.640771	0.381838
F71	F	1.791729	-1.118814	0.139163
F72	F	1.501393	-0.701447	0.734638
H73	H	1.640481	-0.384255	0.541016
H74	H	1.383923	-0.806615	0.381907
H75	H	0.919323	-0.249501	0.149311
H76	H	1.384156	-1.204743	0.381986
F77	F	1.653016	-0.779106	0.221892
H78	H	1.774800	-0.906030	0.149137
H79	H	1.118390	-0.249473	0.149293
H80	H	1.533634	-0.334288	0.742806
H81	H	1.503457	-0.677702	0.861523
H82	H	1.118548	-0.762859	0.454408
H83	H	1.533635	-0.334221	0.861519
H84	H	1.217960	-0.371582	0.221852
F85	F	1.245215	-0.892471	0.464590
H86	H	1.640474	-0.384177	0.659723
H87	H	1.640484	-0.383938	1.063360
H88	H	1.396595	-0.627804	0.944613
H89	H	0.919477	-0.762879	0.454426
F90	F	0.792472	-0.640787	0.381875
F91	F	1.652685	-1.232101	0.221623
H92	H	1.640492	-0.384014	0.944653
H93	H	1.262148	-1.105252	0.454610
H94	H	0.819832	-0.371603	0.221883
F95	F	1.379786	-0.644522	1.071500
F96	F	1.379776	-0.644755	0.667863
H97	H	1.396561	-0.628025	0.540973
