data_functionalizedCrystal
_audit_creation_method	'MofGen! by Chris Wilmer'
_symmetry_space_group_name_H-M	'P1'
_symmetry_Int_Tables_number	1
_symmetry_cell_setting	triclinic
loop_
_symmetry_equiv_pos_as_xyz
  x,y,z
_cell_length_a	11.792241
_cell_length_b	11.792254
_cell_length_c	10.868271
_cell_angle_alpha	90.005308
_cell_angle_beta	90.000107
_cell_angle_gamma	84.196007
loop_
_atom_site_label
_atom_site_type_symbol
_atom_site_fract_x
_atom_site_fract_y
_atom_site_fract_z
O1	O	-1.506915	-0.155568	-0.102203
O2	O	-1.006915	0.344432	0.397797
O3	O	-1.176575	-0.171600	-0.102232
O4	O	-0.676575	0.328400	0.397768
O5	O	-1.349754	0.001586	-0.102208
O6	O	-0.849754	0.501586	0.397792
O7	O	-1.333736	-0.328754	-0.102227
O8	O	-0.833736	0.171246	0.397773
O9	O	-1.349740	0.001592	0.102436
O10	O	-0.849740	0.501592	0.602436
O11	O	-1.176561	-0.171594	0.102413
O12	O	-0.676561	0.328406	0.602413
O13	O	-1.506901	-0.155561	0.102441
O14	O	-1.006901	0.344439	0.602441
Zn15	Zn	-1.341729	-0.163576	0.134919
Zn16	Zn	-0.841729	0.336424	0.634919
Zn17	Zn	-1.341748	-0.163585	-0.134709
Zn18	Zn	-0.841748	0.336415	0.365291
O19	O	-1.333722	-0.328747	0.102418
O20	O	-0.833722	0.171253	0.602418
C21	C	-1.134277	-0.170590	0.000087
C22	C	-0.634277	0.329410	0.500087
C23	C	-1.008263	-0.167576	0.000076
C24	C	-0.508263	0.332424	0.500076
N25	N	-1.341724	-0.163569	0.318933
N26	N	-0.841724	0.336431	0.818933
C27	C	-1.348738	0.043880	0.000114
C28	C	-0.848738	0.543880	0.500114
C29	C	-1.345718	0.169893	0.000112
C30	C	-0.845718	0.669893	0.500112
C31	C	-1.549199	-0.156571	0.000120
C32	C	-1.049199	0.343429	0.500120
C33	C	-1.675213	-0.159586	0.000123
C34	C	-1.175213	0.340414	0.500123
C35	C	-0.777551	-0.162033	0.000112
C36	C	-0.277551	0.337967	0.500112
C37	C	-0.905936	-0.165112	0.000092
C38	C	-0.405936	0.334888	0.500092
C39	C	-1.334738	-0.371041	0.000093
C40	C	-0.834738	0.128959	0.500093
C41	C	-1.337758	-0.497054	0.000086
C42	C	-0.837758	0.002946	0.500086
C43	C	-1.343264	0.272229	0.000108
C44	C	-0.843264	0.772229	0.500108
C45	C	-1.340196	0.400616	0.000096
C46	C	-0.840196	0.900616	0.500096
N47	N	-1.341761	-0.163583	-0.318724
N48	N	-0.841761	0.336417	0.181276
C49	C	-1.341742	-0.163583	0.569939
C50	C	-0.841742	0.336417	1.069939
C51	C	-1.341728	-0.163579	0.430261
C52	C	-0.841728	0.336421	0.930261
