data_functionalizedCrystal
_audit_creation_method	'MofGen! by Chris Wilmer'
_symmetry_space_group_name_H-M	'P1'
_symmetry_Int_Tables_number	1
_symmetry_cell_setting	triclinic
loop_
_symmetry_equiv_pos_as_xyz
  x,y,z
_cell_length_a	22.610064
_cell_length_b	19.288864
_cell_length_c	19.288865
_cell_angle_alpha	83.136245
_cell_angle_beta	89.998829
_cell_angle_gamma	89.977953
loop_
_atom_site_label
_atom_site_type_symbol
_atom_site_fract_x
_atom_site_fract_y
_atom_site_fract_z
O1	O	0.049381	-0.921353	-0.086638
O2	O	0.549381	-0.421353	0.413362
O3	O	0.049341	-0.719093	-0.098327
O4	O	0.549341	-0.219093	0.401673
O5	O	0.049351	-0.826067	0.008648
O6	O	0.549351	-0.326067	0.508648
O7	O	0.049372	-0.814378	-0.193613
O8	O	0.549372	-0.314378	0.306387
O9	O	-0.049019	-0.826048	0.008632
O10	O	0.450981	-0.326048	0.508632
O11	O	-0.049028	-0.719074	-0.098343
O12	O	0.450972	-0.219074	0.401657
O13	O	-0.048988	-0.921334	-0.086654
O14	O	0.451012	-0.421334	0.413346
Zn15	Zn	-0.064626	-0.820201	-0.092501
Zn16	Zn	0.435374	-0.320201	0.407499
Zn17	Zn	0.064979	-0.820226	-0.092480
Zn18	Zn	0.564979	-0.320226	0.407520
O19	O	-0.048997	-0.814360	-0.193628
O20	O	0.451003	-0.314360	0.306372
C21	C	0.000152	-0.693207	-0.097959
C22	C	0.500152	-0.193207	0.402041
C23	C	0.000136	-0.616103	-0.096830
C24	C	0.500136	-0.116103	0.403170
N25	N	-0.153079	-0.820189	-0.092514
N26	N	0.346921	-0.320189	0.407486
C27	C	0.000164	-0.825682	0.034516
C28	C	0.500164	-0.325682	0.534516
C29	C	0.000159	-0.824553	0.111620
C30	C	0.500159	-0.324553	0.611620
C31	C	-0.561716	-0.867596	-0.045119
C32	C	-0.061716	-0.367596	0.454881
C33	C	-0.623636	-0.867600	-0.045114
C34	C	-0.123636	-0.367600	0.454886
O35	O	-0.655651	-0.907878	-0.004827
O36	O	-0.155651	-0.407878	0.495173
N37	N	-0.654616	-0.820225	-0.092466
N38	N	-0.154616	-0.320225	0.407534
C39	C	-0.623673	-0.772839	-0.139821
C40	C	-0.123673	-0.272839	0.360179
O41	O	-0.655709	-0.732544	-0.180096
O42	O	-0.155709	-0.232544	0.319904
C43	C	-0.561754	-0.772833	-0.139822
C44	C	-0.061754	-0.272833	0.360178
C45	C	-0.530777	-0.820215	-0.092472
C46	C	-0.030777	-0.320215	0.407528
C47	C	-0.530739	-0.914974	0.002228
C48	C	-0.030739	-0.414974	0.502228
C49	C	-0.468824	-0.914971	0.002222
C50	C	0.031176	-0.414971	0.502222
C51	C	-0.437885	-0.867591	-0.045131
C52	C	0.062115	-0.367591	0.454869
C53	C	-0.468861	-0.820213	-0.092478
C54	C	0.031139	-0.320213	0.407522
C55	C	-0.530812	-0.725444	-0.187173
C56	C	-0.030812	-0.225444	0.312827
C57	C	-0.468889	-0.725442	-0.187170
C58	C	0.031111	-0.225442	0.312830
C59	C	-0.437912	-0.772824	-0.139820
C60	C	0.062088	-0.272824	0.360180
C61	C	-0.376007	-0.772829	-0.139837
C62	C	0.123993	-0.272829	0.360163
N63	N	-0.345027	-0.820203	-0.092485
N64	N	0.154973	-0.320203	0.407515
C65	C	-0.375966	-0.867584	-0.045132
C66	C	0.124034	-0.367584	0.454868
C67	C	-0.753706	-0.772855	-0.139814
C68	C	-0.253706	-0.272855	0.360186
C69	C	-0.815624	-0.772865	-0.139817
C70	C	-0.315624	-0.272865	0.360183
C71	C	-0.815583	-0.867624	-0.045109
C72	C	-0.315583	-0.367624	0.454891
C73	C	-0.753664	-0.867618	-0.045110
C74	C	-0.253664	-0.367618	0.454890
C75	C	-0.722726	-0.820230	-0.092462
C76	C	-0.222726	-0.320230	0.407538
C77	C	-0.245939	-0.867575	-0.045149
C78	C	0.254061	-0.367575	0.454851
C79	C	-0.184018	-0.867570	-0.045161
C80	C	0.315982	-0.367570	0.454839
C81	C	-0.184064	-0.772808	-0.139867
C82	C	0.315936	-0.272808	0.360133
C83	C	-0.245980	-0.772815	-0.139857
C84	C	0.254020	-0.272815	0.360143
C85	C	-0.276915	-0.820201	-0.092493
C86	C	0.223085	-0.320201	0.407507
O87	O	-0.343952	-0.732570	-0.180101
O88	O	0.156048	-0.232570	0.319899
O89	O	-0.343922	-0.907867	-0.004857
O90	O	0.156078	-0.407867	0.495143
N91	N	0.153432	-0.820243	-0.092461
N92	N	0.653432	-0.320243	0.407539
C93	C	0.000203	-0.947220	-0.087022
C94	C	0.500203	-0.447220	0.412978
C95	C	0.000222	-1.024324	-0.088151
C96	C	0.500222	-0.524324	0.411849
C97	C	0.000152	-0.571407	-0.159598
C98	C	0.500152	-0.071407	0.340402
C99	C	0.000158	-0.498960	-0.158537
C100	C	0.500158	0.001040	0.341463
C101	C	0.000161	-0.471212	-0.094705
C102	C	0.500161	0.028788	0.405295
C103	C	0.000142	-0.515918	-0.031929
C104	C	0.500142	-0.015918	0.468071
C105	C	0.000129	-0.588364	-0.032991
C106	C	0.500129	-0.088364	0.467009
C107	C	0.034638	-0.362957	-0.044520
C108	C	0.534638	0.137043	0.455480
C109	C	0.034654	-0.290512	-0.043460
C110	C	0.534654	0.209488	0.456540
C111	C	0.000196	-0.247767	-0.091425
C112	C	0.500196	0.252233	0.408575
C113	C	-0.034270	-0.277473	-0.140462
C114	C	0.465730	0.222527	0.359538
C115	C	-0.034283	-0.349918	-0.141524
C116	C	0.465717	0.150082	0.358476
C117	C	0.000174	-0.392658	-0.093546
C118	C	0.500174	0.107342	0.406454
C119	C	0.000218	-0.124514	-0.153047
C120	C	0.500218	0.375486	0.346953
C121	C	0.000221	-0.052066	-0.151984
C122	C	0.500221	0.447934	0.348016
C123	C	0.000210	-0.069026	-0.025374
C124	C	0.500210	0.430974	0.474626
C125	C	0.000201	-0.141473	-0.026439
C126	C	0.500201	0.358527	0.473561
C127	C	0.000208	-0.169212	-0.090277
C128	C	0.500208	0.330788	0.409723
C129	C	0.000190	-0.814745	-0.219497
C130	C	0.500190	-0.314745	0.280503
C131	C	0.000200	-0.815874	-0.296601
C132	C	0.500200	-0.315874	0.203399
C133	C	0.000168	-0.887321	0.156316
C134	C	0.500168	-0.387321	0.656316
C135	C	0.000177	-0.886260	0.228763
C136	C	0.500177	-0.386260	0.728763
C137	C	0.000165	-0.822428	0.256511
C138	C	0.500165	-0.322428	0.756511
C139	C	0.000159	-0.759652	0.211805
C140	C	0.500159	-0.259652	0.711805
C141	C	0.000156	-0.760714	0.139359
C142	C	0.500156	-0.260714	0.639359
C143	C	-0.034301	-0.772242	0.364793
C144	C	0.465699	-0.272242	0.864793
C145	C	-0.034302	-0.771182	0.437237
C146	C	0.465698	-0.271182	0.937237
C147	C	0.000178	-0.819148	0.479956
C148	C	0.500178	-0.319148	0.979956
C149	C	0.034650	-0.868186	0.450224
C150	C	0.534650	-0.368186	0.950224
C151	C	0.034647	-0.869249	0.377778
C152	C	0.534647	-0.369249	0.877778
C153	C	0.000169	-0.821269	0.335065
C154	C	0.500169	-0.321269	0.835065
C155	C	0.000198	-0.880770	0.603209
C156	C	0.500198	-0.380770	1.103209
C157	C	0.000211	-0.879707	0.675657
C158	C	0.500211	-0.379707	1.175657
C159	C	0.000187	-0.753097	0.658697
C160	C	0.500187	-0.253097	1.158697
C161	C	0.000180	-0.754162	0.586250
C162	C	0.500180	-0.254162	1.086250
C163	C	0.000183	-0.818001	0.558511
C164	C	0.500183	-0.318001	1.058511
H165	H	-0.158798	-0.906157	-0.006603
H166	H	0.341202	-0.406157	0.493397
H167	H	0.062727	-0.907245	0.485005
H168	H	0.562727	-0.407245	0.985005
H169	H	0.000230	-0.015674	-0.203099
H170	H	0.500230	0.484326	0.296901
C171	C	0.000212	-0.038508	0.044843
C172	C	0.500212	0.461492	0.544843
N173	N	0.000212	-0.015519	0.097732
N174	N	0.500212	0.484481	0.597732
C175	C	0.000191	-0.190641	0.042612
C176	C	0.500191	0.309359	0.542612
N177	N	0.000182	-0.227675	0.094624
N178	N	0.500182	0.272325	0.594624
C179	C	0.072564	-0.257843	0.010484
C180	C	0.572564	0.242157	0.510484
N181	N	0.101116	-0.233239	0.051120
N182	N	0.601116	0.266761	0.551120
C183	C	-0.072237	-0.719474	0.317808
C184	C	0.427763	-0.219474	0.817808
N185	N	-0.100810	-0.679731	0.282421
N186	N	0.399190	-0.179731	0.782421
H187	H	0.000170	-0.462561	-0.209652
H188	H	0.500170	0.037439	0.290348
H189	H	-0.062349	-0.374102	-0.181449
H190	H	0.437651	0.125898	0.318551
C191	C	-0.564762	-0.967097	0.054330
C192	C	-0.064762	-0.467097	0.554330
N193	N	-0.590384	-1.006360	0.093575
N194	N	-0.090384	-0.506360	0.593575
C195	C	0.000142	-0.689436	0.242328
C196	C	0.500142	-0.189436	0.742328
N197	N	0.000129	-0.636547	0.265319
N198	N	0.500129	-0.136547	0.765319
H199	H	-0.062330	-0.242670	-0.179519
H200	H	0.437670	0.257330	0.320481
H201	H	0.062702	-0.397755	-0.005460
H202	H	0.562702	0.102245	0.494540
C203	C	0.000218	-0.155030	-0.223270
C204	C	0.500218	0.344970	0.276730
N205	N	0.000217	-0.178012	-0.276163
N206	N	0.500217	0.321988	0.223837
H207	H	0.000152	-0.493322	0.020044
H208	H	0.500152	0.006678	0.520044
H209	H	-0.556024	-0.686861	-0.225730
H210	H	-0.056024	-0.186861	0.274270
C211	C	-0.434861	-0.673317	-0.239270
C212	C	0.065139	-0.173317	0.260730
N213	N	-0.409233	-0.634060	-0.278516
N214	N	0.090767	-0.134060	0.221484
C215	C	-0.849691	-0.720745	-0.191910
C216	C	-0.349691	-0.220745	0.308090
N217	N	-0.875349	-0.681483	-0.231146
N218	N	-0.375349	-0.181483	0.268854
C219	C	-0.279959	-0.919704	0.006953
C220	C	0.220041	-0.419704	0.506953
N221	N	-0.305583	-0.958971	0.046193
N222	N	0.194417	-0.458971	0.546193
C223	C	0.000184	-0.955312	0.277938
C224	C	0.500184	-0.455312	0.777938
N225	N	0.000187	-1.007323	0.314975
N226	N	0.500187	-0.507323	0.814975
H227	H	0.000117	-0.624756	0.018124
H228	H	0.500117	-0.124756	0.518124
H229	H	0.000172	-0.939303	0.133736
H230	H	0.500172	-0.439303	0.633736
H231	H	0.062716	-0.909176	0.353573
H232	H	0.562716	-0.409176	0.853573
C233	C	-0.434757	-0.967089	0.054319
C234	C	0.065243	-0.467089	0.554319
N235	N	-0.409102	-1.006344	0.093564
N236	N	0.090898	-0.506344	0.593564
C237	C	-0.719680	-0.720753	-0.191941
C238	C	-0.219680	-0.220753	0.308059
N239	N	-0.694055	-0.681519	-0.231212
N240	N	-0.194055	-0.181519	0.268788
C241	C	0.000210	-0.950993	0.572693
C242	C	0.500210	-0.450993	1.072693
N243	N	0.000221	-1.003886	0.549711
N244	N	0.500221	-0.503886	1.049711
H245	H	0.000222	-0.930822	0.712049
H246	H	0.500222	-0.430822	1.212049
C247	C	0.000175	-0.682880	0.689215
C248	C	0.500175	-0.182880	1.189215
N249	N	0.000168	-0.629991	0.712204
N250	N	0.500168	-0.129991	1.212204
H251	H	0.000169	-0.703049	0.549857
H252	H	0.500169	-0.203049	1.049857
C253	C	-0.072222	-0.717239	0.469936
C254	C	0.427778	-0.217239	0.969936
N255	N	-0.100783	-0.676607	0.494563
N256	N	0.399217	-0.176607	0.994563
H257	H	-0.728446	-0.906200	-0.006553
H258	H	-0.228446	-0.406200	0.493447
H259	H	0.000148	-0.709599	0.102967
H260	H	0.500148	-0.209599	0.602967
H261	H	-0.158864	-0.734233	-0.178423
H262	H	0.341136	-0.234233	0.321577
C263	C	-0.849628	-0.919740	0.006986
C264	C	-0.349628	-0.419740	0.506986
N265	N	-0.875272	-0.958990	0.046221
N266	N	-0.375272	-0.458990	0.546221
H267	H	-0.271201	-0.734239	-0.178421
H268	H	0.228799	-0.234239	0.321579
H269	H	0.000159	-0.593987	-0.211580
H270	H	0.500159	-0.093987	0.288420
