data_functionalizedCrystal
_audit_creation_method	'MofGen! by Chris Wilmer'
_symmetry_space_group_name_H-M	'P1'
_symmetry_Int_Tables_number	1
_symmetry_cell_setting	triclinic
loop_
_symmetry_equiv_pos_as_xyz
  x,y,z
_cell_length_a	14.908979
_cell_length_b	14.909351
_cell_length_c	11.169409
_cell_angle_alpha	93.264174
_cell_angle_beta	93.272192
_cell_angle_gamma	89.836914
loop_
_atom_site_label
_atom_site_type_symbol
_atom_site_fract_x
_atom_site_fract_y
_atom_site_fract_z
Zn1	Zn	1.395279	-0.278479	-0.593037
Zn2	Zn	1.403846	-0.428862	-0.403245
Zn3	Zn	1.244913	-0.287215	-0.404561
Zn4	Zn	1.253562	-0.437465	-0.616063
O5	O	1.324400	-0.358005	-0.504226
O6	O	1.522238	-0.291172	-0.557673
O7	O	1.382730	-0.410128	-0.235476
O8	O	1.257654	-0.160240	-0.420478
O9	O	1.528533	-0.401658	-0.418234
O10	O	1.368127	-0.153822	-0.558950
O11	O	1.265962	-0.306060	-0.236444
O12	O	1.120238	-0.314402	-0.442805
O13	O	1.272395	-0.416319	-0.780951
O14	O	1.126592	-0.424790	-0.598194
O15	O	1.376514	-0.299513	-0.764034
O16	O	1.391116	-0.555819	-0.440561
O17	O	1.280703	-0.562139	-0.596917
C18	C	1.090791	-0.371478	-0.523142
C19	C	0.990853	-0.377263	-0.531264
C20	C	1.337802	-0.591600	-0.521119
C21	C	1.343618	-0.691529	-0.528379
C22	C	0.853332	-0.442977	-0.623482
C23	C	0.947232	-0.437542	-0.615861
C24	C	0.940565	-0.322417	-0.454279
C25	C	0.846665	-0.327852	-0.461900
C26	C	0.803051	-0.388133	-0.546505
C27	C	0.709149	-0.393564	-0.554131
C28	C	0.702484	-0.278444	-0.392544
C29	C	0.796384	-0.273008	-0.384923
C30	C	1.409272	-0.828962	-0.610757
C31	C	1.403814	-0.735070	-0.603942
C32	C	1.288878	-0.741885	-0.459624
C33	C	1.294336	-0.835777	-0.466439
C34	C	1.354534	-0.879312	-0.542010
C35	C	1.359987	-0.973206	-0.548831
C36	C	1.245057	-0.980019	-0.404508
C37	C	1.239599	-0.886127	-0.397692
C38	C	1.558922	-0.344481	-0.485238
C39	C	1.658861	-0.338718	-0.477146
C40	C	1.324464	-0.357901	-0.817256
C41	C	1.324491	-0.357857	-0.950651
C42	C	1.310970	-0.123497	-0.487292
C43	C	1.305247	-0.023563	-0.480076
C44	C	1.324385	-0.358041	-0.192406
C45	C	1.324518	-0.357822	-0.058979
H46	H	0.673640	-0.442644	-0.623026
H47	H	1.200480	-1.021025	-0.348536
C48	C	1.475479	-0.876860	-0.693889
C49	C	1.549841	-0.937310	-0.640937
C50	C	1.616047	-0.985207	-0.724072
C51	C	1.607891	-0.972654	-0.860158
C52	C	1.533526	-0.912201	-0.913117
C53	C	1.467320	-0.864304	-0.829982
H54	H	1.555882	-0.946605	-0.540191
H55	H	1.671098	-1.029958	-0.684867
H56	H	1.656901	-1.008110	-0.921699
H57	H	1.527485	-0.902906	-1.013862
H58	H	1.412270	-0.819553	-0.869186
H59	H	1.408996	-1.008651	-0.610375
C60	C	1.222670	-0.693980	-0.376501
C61	C	1.230816	-0.706526	-0.240412
C62	C	1.164608	-0.658618	-0.157290
C63	C	1.090255	-0.598164	-0.210256
C64	C	1.082107	-0.585615	-0.346351
C65	C	1.148314	-0.633523	-0.429474
H66	H	1.285859	-0.751281	-0.201198
H67	H	1.170641	-0.667908	-0.056543
H68	H	1.041245	-0.562699	-0.148724
H69	H	1.027064	-0.540861	-0.385566
H70	H	1.142282	-0.624234	-0.530221
H71	H	1.448388	-0.694077	-0.659921
C72	C	0.988561	-0.256106	-0.361237
C73	C	0.969790	-0.154652	-0.364933
C74	C	1.017791	-0.088337	-0.271902
C75	C	1.084561	-0.123474	-0.175174
C76	C	1.103335	-0.224933	-0.171474
C77	C	1.055334	-0.291249	-0.264506
H78	H	0.920360	-0.128637	-0.436540
H79	H	1.003893	-0.013230	-0.274641
H80	H	1.120094	-0.074384	-0.106306
H81	H	1.152765	-0.250949	-0.099868
H82	H	1.069232	-0.366356	-0.261767
H83	H	0.817821	-0.492053	-0.692381
H84	H	0.661535	-0.233782	-0.329868
H85	H	1.190589	-0.850670	-0.336160
H86	H	0.831907	-0.223932	-0.316037
C87	C	1.002542	-0.497868	-0.700540
C88	C	0.995502	-0.600816	-0.698964
C89	C	1.050811	-0.661146	-0.783646
C90	C	1.113161	-0.618528	-0.869903
C91	C	1.120204	-0.515575	-0.871482
C92	C	1.064895	-0.455245	-0.786801
H93	H	0.949344	-0.632368	-0.635108
H94	H	1.045597	-0.737358	-0.782476
H95	H	1.154105	-0.663188	-0.932589
H96	H	1.166362	-0.484022	-0.935338
H97	H	1.070109	-0.379032	-0.787971
