data_functionalizedCrystal
_audit_creation_method	'MofGen! by Chris Wilmer'
_symmetry_space_group_name_H-M	'P1'
_symmetry_Int_Tables_number	1
_symmetry_cell_setting	triclinic
loop_
_symmetry_equiv_pos_as_xyz
  x,y,z
_cell_length_a	13.185408
_cell_length_b	17.666332
_cell_length_c	13.339070
_cell_angle_alpha	89.997681
_cell_angle_beta	96.198603
_cell_angle_gamma	90.007295
loop_
_atom_site_label
_atom_site_type_symbol
_atom_site_fract_x
_atom_site_fract_y
_atom_site_fract_z
O1	O	1.373302	0.062896	0.243486
O2	O	1.084470	0.062908	0.148749
O3	O	1.195737	0.062901	0.334357
O4	O	1.262035	0.062903	0.057879
O5	O	1.195708	-0.062996	0.334357
O6	O	1.084440	-0.062989	0.148749
O7	O	1.373273	-0.063001	0.243487
Cu8	Cu	1.228854	-0.074490	0.196118
Cu9	Cu	1.228889	0.074397	0.196118
O10	O	1.262005	-0.062994	0.057879
C11	C	1.046733	-0.000039	0.139145
C12	C	0.934328	-0.000035	0.110538
N13	N	1.228837	-0.179210	0.196121
C14	C	0.895277	-0.000032	0.008684
C15	C	0.789668	-0.000039	-0.018197
C16	C	0.723099	-0.000042	0.056774
C17	C	0.762150	-0.000039	0.158631
C18	C	0.867770	-0.000038	0.185514
C19	C	0.695592	-0.000048	0.233605
C20	C	0.734643	-0.000044	0.335461
C21	C	0.840253	-0.000043	0.362340
C22	C	0.906821	-0.000040	0.287369
C23	C	0.589973	-0.000048	0.206722
C24	C	0.562466	-0.000054	0.383552
C25	C	0.668075	-0.000047	0.410432
C26	C	1.278137	-0.218822	0.278283
C27	C	1.278142	-0.298070	0.278289
C28	C	1.228860	-0.337702	0.196120
C29	C	1.179548	-0.298080	0.113949
C30	C	1.179536	-0.218833	0.113950
N31	N	1.241058	-0.462120	0.109928
N32	N	1.241074	-0.537400	0.109932
C33	C	1.228891	-0.576466	0.196114
N34	N	1.216709	-0.537407	0.282300
N35	N	1.216698	-0.462120	0.282296
C36	C	1.228867	-0.423631	0.196110
C37	C	1.278199	-0.702008	0.278288
C38	C	1.278196	-0.781257	0.278294
C39	C	1.179609	-0.781265	0.113948
C40	C	1.179604	-0.702017	0.113949
C41	C	1.228905	-0.662394	0.196120
C42	C	1.411010	-0.000052	0.253091
C43	C	1.523415	-0.000052	0.281698
C44	C	1.184524	-0.000046	0.368997
C45	C	1.151143	-0.000041	0.472211
N46	N	1.228912	0.179117	0.196124
C47	C	1.273219	-0.000045	0.023239
C48	C	1.306600	-0.000045	-0.079975
C49	C	1.410697	-0.000052	0.907668
C50	C	1.442064	-0.000061	0.810695
C51	C	1.369336	-0.000056	0.726069
C52	C	1.265237	-0.000043	0.738426
C53	C	1.233867	-0.000040	0.835408
C54	C	1.192506	-0.000044	0.653810
C55	C	1.088406	-0.000031	0.666166
C56	C	1.057042	-0.000028	0.763140
C57	C	1.129770	-0.000033	0.847766
C58	C	1.223876	-0.000046	0.556827
C59	C	1.047045	-0.000034	0.484568
C60	C	1.015679	-0.000026	0.581541
H61	H	0.558188	-0.000052	0.123789
H62	H	1.318290	-0.330329	0.345197
H63	H	0.992818	-0.000037	0.309250
H64	H	0.949485	-0.000036	-0.052346
H65	H	1.394881	-0.000063	0.647111
H66	H	0.987824	-0.000034	0.415664
H67	H	0.637108	-0.000048	0.034882
N68	N	1.129273	-0.821726	0.029999
N69	N	1.085266	-0.786343	-0.043362
H70	H	1.049713	-0.814921	-0.102654
H71	H	0.699886	-0.000045	0.493365
H72	H	0.930919	-0.000015	0.591616
H73	H	0.508265	-0.000022	0.444600
H74	H	0.872044	-0.000050	0.445278
H75	H	1.308634	-0.000057	0.546778
H76	H	1.526821	-0.000072	0.800642
N77	N	1.328608	-0.178361	0.362168
N78	N	1.372696	-0.213745	0.435486
H79	H	1.408383	-0.185169	0.494710
H80	H	1.469901	-0.000063	0.976575
N81	N	1.328398	-0.661539	0.362310
N82	N	1.372299	-0.696922	0.435725
H83	H	1.407693	-0.668343	0.495098
N84	N	1.097706	-0.000022	0.946815
N85	N	1.044241	0.053049	0.973961
H86	H	1.021594	0.053057	1.043916
N87	N	0.749797	-0.000046	-0.122237
N88	N	0.809239	-0.000044	-0.189166
H89	H	0.781082	-0.000049	-0.262650
N90	N	0.950709	-0.000034	0.775763
N91	N	0.894999	-0.053100	0.740742
H92	H	0.819900	-0.053106	0.749655
H93	H	1.139464	-0.669763	0.047042
N94	N	1.129190	-0.338559	0.030025
N95	N	1.057680	-0.382792	0.042694
H96	H	1.022108	-0.411381	-0.016578
N97	N	1.129166	-0.178378	0.030013
N98	N	1.085158	-0.213768	-0.043345
H99	H	1.049584	-0.185195	-0.102628
N100	N	1.328552	-0.821711	0.362239
N101	N	1.372561	-0.786320	0.435595
H102	H	1.408126	-0.814891	0.494884
