data_functionalizedCrystal
_audit_creation_method	'MofGen! by Chris Wilmer'
_symmetry_space_group_name_H-M	'P1'
_symmetry_Int_Tables_number	1
_symmetry_cell_setting	triclinic
loop_
_symmetry_equiv_pos_as_xyz
  x,y,z
_cell_length_a	19.077212
_cell_length_b	16.120484
_cell_length_c	16.120256
_cell_angle_alpha	84.383827
_cell_angle_beta	89.541074
_cell_angle_gamma	95.329300
loop_
_atom_site_label
_atom_site_type_symbol
_atom_site_fract_x
_atom_site_fract_y
_atom_site_fract_z
Zn1	Zn	1.039772	-0.309798	0.536695
Zn2	Zn	1.039684	-0.442488	0.404000
Zn3	Zn	0.928358	-0.307763	0.391878
Zn4	Zn	0.915756	-0.455131	0.538093
O5	O	0.980893	-0.378795	0.467667
O6	O	1.138252	-0.322961	0.523580
O7	O	1.030153	-0.418473	0.285668
O8	O	0.948448	-0.190827	0.405430
O9	O	1.138187	-0.420447	0.426090
O10	O	1.030304	-0.192323	0.511826
O11	O	0.948363	-0.319491	0.276762
O12	O	0.828195	-0.331750	0.406786
O13	O	0.926970	-0.441996	0.654633
O14	O	0.818936	-0.440021	0.514210
O15	O	1.018084	-0.335220	0.653605
O16	O	1.017934	-0.561371	0.427447
O17	O	0.926884	-0.570659	0.525964
C18	C	0.798028	-0.387038	0.459335
C19	C	0.719795	-0.390585	0.455791
C20	C	0.971050	-0.596405	0.478192
C21	C	0.966903	-0.689498	0.482725
C22	C	0.279426	-0.415994	0.430413
C23	C	0.352934	-0.412656	0.433736
C24	C	0.389716	-0.360323	0.486247
C25	C	0.352987	-0.311319	0.535431
C26	C	0.279481	-0.314653	0.532103
C27	C	0.609560	-0.344915	0.501648
C28	C	0.683071	-0.341586	0.504974
C29	C	0.683013	-0.442923	0.403278
C30	C	0.609505	-0.446256	0.399958
C31	C	0.572783	-0.397248	0.449139
N32	N	0.464853	-0.356912	0.489647
N33	N	0.497648	-0.400656	0.445734
C34	C	0.959334	-0.859940	0.491019
C35	C	1.002577	-0.896804	0.444333
C36	C	0.998366	-0.991644	0.448948
C37	C	0.963544	-0.765092	0.486406
C38	C	1.164472	-0.370521	0.476031
C39	C	1.242702	-0.366995	0.479596
C40	C	0.971131	-0.390245	0.685230
C41	C	0.966972	-0.395125	0.777943
C42	C	0.990792	-0.160335	0.457120
C43	C	0.995010	-0.067241	0.452625
C44	C	0.990659	-0.367327	0.250948
C45	C	0.994966	-0.362205	0.158231
C46	C	1.002584	-0.353328	0.988487
C47	C	0.959355	-0.404000	0.947682
C48	C	0.963594	-0.399060	0.853230
C49	C	0.998346	-0.358266	1.082947
H50	H	0.249483	-0.458613	0.387658
H51	H	0.919158	-0.451087	0.983683
H52	H	0.713017	-0.298965	0.547733
H53	H	1.042775	-0.306241	0.952488
H54	H	0.382832	-0.452555	0.393685
H55	H	0.579563	-0.488870	0.357197
H56	H	0.919152	-0.899604	0.534451
O57	O	0.718798	-0.490438	0.355529
C58	C	0.832009	-0.530250	0.315615
C59	C	0.791573	-0.476382	0.369725
H60	H	0.890854	-0.518919	0.327086
H61	H	0.821280	-0.512544	0.246994
H62	H	0.813817	-0.599222	0.332749
H63	H	0.809742	-0.407395	0.352664
H64	H	0.802303	-0.494159	0.438332
H65	H	0.579669	-0.305014	0.541699
H66	H	0.382941	-0.268705	0.578183
H67	H	0.249581	-0.274750	0.572150
H68	H	1.042761	-0.857137	0.400898
