data_functionalizedCrystal
_audit_creation_method	'MofGen! by Chris Wilmer'
_symmetry_space_group_name_H-M	'P1'
_symmetry_Int_Tables_number	1
_symmetry_cell_setting	triclinic
loop_
_symmetry_equiv_pos_as_xyz
  x,y,z
_cell_length_a	14.044220
_cell_length_b	19.288865
_cell_length_c	17.766277
_cell_angle_alpha	90.011603
_cell_angle_beta	90.004280
_cell_angle_gamma	88.162563
loop_
_atom_site_label
_atom_site_type_symbol
_atom_site_fract_x
_atom_site_fract_y
_atom_site_fract_z
O1	O	-1.256998	-0.167413	-0.062531
O2	O	-0.756998	0.332587	0.437469
O3	O	-0.981055	-0.161372	-0.062549
O4	O	-0.481055	0.338628	0.437451
O5	O	-1.127000	-0.063774	-0.062525
O6	O	-0.627000	0.436226	0.437475
O7	O	-1.111053	-0.265010	-0.062556
O8	O	-0.611053	0.234990	0.437444
O9	O	-1.126975	-0.063767	0.062664
O10	O	-0.626975	0.436233	0.562664
O11	O	-0.981029	-0.161365	0.062639
O12	O	-0.481029	0.338635	0.562639
O13	O	-1.256973	-0.167406	0.062658
O14	O	-0.756973	0.332594	0.562658
Cu15	Cu	-1.118999	-0.164385	0.074079
Cu16	Cu	-0.618999	0.335615	0.574079
Cu17	Cu	-1.119029	-0.164393	-0.073971
Cu18	Cu	-0.619029	0.335607	0.426029
O19	O	-1.111028	-0.265003	0.062633
O20	O	-0.611028	0.234997	0.562633
C21	C	-1.126474	-0.037862	0.000072
C22	C	-0.626474	0.462138	0.500072
C23	C	-1.124934	0.039341	0.000078
C24	C	-0.624934	0.539341	0.500078
C25	C	-0.945739	-0.158724	0.000043
C26	C	-0.445739	0.341276	0.500043
C27	C	-0.840547	-0.150836	0.000036
C28	C	-0.340547	0.349164	0.500036
C29	C	-1.292289	-0.170054	0.000064
C30	C	-0.792289	0.329946	0.500064
C31	C	-1.397481	-0.177942	0.000065
C32	C	-0.897481	0.322058	0.500065
C33	C	-0.647947	-0.136416	0.000053
C34	C	-0.147947	0.363584	0.500053
C35	C	-0.590075	-0.192359	0.000048
C36	C	-0.090075	0.307641	0.500048
C37	C	-0.482906	-0.184335	0.000058
C38	C	0.017094	0.315665	0.500058
C39	C	-0.755126	-0.144438	0.000044
C40	C	-0.255126	0.355562	0.500044
C41	C	-1.111554	-0.290916	0.000035
C42	C	-0.611554	0.209084	0.500035
C43	C	-1.113094	-0.368119	0.000023
C44	C	-0.613094	0.131881	0.500023
N45	N	-1.118984	-0.164379	0.178209
N46	N	-0.618984	0.335621	0.678209
C47	C	-1.210568	0.078535	0.000088
C48	C	-0.710568	0.578535	0.500088
C49	C	-1.209121	0.151075	0.000076
C50	C	-0.709121	0.651075	0.500076
C51	C	-1.122035	0.184418	0.000069
C52	C	-0.622035	0.684418	0.500069
C53	C	-1.036390	0.145215	0.000056
C54	C	-0.536390	0.645215	0.500056
C55	C	-1.037839	0.072676	0.000060
C56	C	-0.537839	0.572676	0.500060
C57	C	-1.053566	0.297107	0.043916
C58	C	-0.553566	0.797107	0.543916
C59	C	-1.052120	0.369644	0.043916
C60	C	-0.552120	0.869644	0.543916
C61	C	-1.117560	0.408151	0.000052
C62	C	-0.617560	0.908151	0.500052
C63	C	-1.184463	0.374113	-0.043802
C64	C	-0.684463	0.874113	0.456198
C65	C	-1.185912	0.301574	-0.043797
C66	C	-0.685912	0.801574	0.456203
C67	C	-1.120453	0.263074	0.000064
C68	C	-0.620453	0.763074	0.500064
C69	C	-1.201631	0.526002	0.000048
C70	C	-0.701631	1.026002	0.500048
C71	C	-1.200181	0.598543	0.000031
C72	C	-0.700181	1.098543	0.500031
C73	C	-1.027447	0.592681	0.000019
C74	C	-0.527447	1.092681	0.500019
C75	C	-1.028900	0.520142	0.000028
C76	C	-0.528900	1.020142	0.500028
C77	C	-1.115995	0.486806	0.000046
C78	C	-0.615995	0.986806	0.500046
N79	N	-1.119051	-0.164394	-0.178101
N80	N	-0.619051	0.335606	0.321899
C81	C	-1.183630	-0.121187	0.217607
C82	C	-0.683630	0.378813	0.717607
C83	C	-1.183635	-0.121184	0.296409
C84	C	-0.683635	0.378816	0.796409
C85	C	-1.119004	-0.164386	0.335810
C86	C	-0.619004	0.335614	0.835810
C87	C	-1.054347	-0.207580	0.296403
C88	C	-0.554347	0.292420	0.796403
C89	C	-1.054337	-0.207577	0.217602
C90	C	-0.554337	0.292423	0.717602
C91	C	-1.106318	-0.226858	0.460638
C92	C	-0.606318	0.273142	0.960638
C93	C	-1.106335	-0.226863	0.539437
C94	C	-0.606335	0.273137	1.039437
C95	C	-1.119030	-0.164396	0.578856
C96	C	-0.619030	0.335604	1.078856
C97	C	-1.131728	-0.101922	0.539467
C98	C	-0.631728	0.398078	1.039467
C99	C	-1.131718	-0.101919	0.460667
C100	C	-0.631718	0.398081	0.960667
C101	C	-1.119008	-0.164394	0.421256
C102	C	-0.619008	0.335606	0.921256
C103	C	-1.183684	-0.121197	0.703700
C104	C	-0.683684	0.378803	1.203700
C105	C	-1.183683	-0.121193	0.782503
C106	C	-0.683683	0.378807	1.282503
C107	C	-1.054400	-0.207595	0.782495
C108	C	-0.554400	0.292405	1.282495
C109	C	-1.054396	-0.207593	0.703694
C110	C	-0.554396	0.292407	1.203694
C111	C	-1.119044	-0.164395	0.664301
C112	C	-0.619044	0.335605	1.164301
H113	H	-0.621016	-0.246280	0.000036
H114	H	-0.121016	0.253720	0.500036
C115	C	-1.254735	-0.073661	0.174280
C116	C	-0.754735	0.426339	0.674280
N117	N	-1.308289	-0.037861	0.141644
N118	N	-0.808289	0.462139	0.641644
H119	H	-0.617008	-0.082499	0.000066
H120	H	-0.117008	0.417501	0.500066
H121	H	-1.281487	0.051398	0.000100
H122	H	-0.781487	0.551398	0.500100
C123	C	-1.303328	0.194197	0.000091
C124	C	-0.803328	0.694197	0.500091
N125	N	-1.374286	0.226675	0.000104
N126	N	-0.874286	0.726675	0.500104
H127	H	-1.240385	0.273863	-0.079506
H128	H	-0.740385	0.773863	0.420494
C129	C	-1.256450	0.416465	-0.092059
C130	C	-0.756450	0.916465	0.407941
N131	N	-1.310669	0.448368	-0.128405
N132	N	-0.810669	0.948368	0.371595
C133	C	-1.297436	0.489331	0.000056
C134	C	-0.797436	0.989331	0.500056
N135	N	-1.369598	0.461712	0.000060
N136	N	-0.869598	0.961712	0.500060
C137	C	-0.934695	0.477026	0.000021
C138	C	-0.434695	0.977026	0.500021
N139	N	-0.863734	0.444552	0.000014
N140	N	-0.363734	0.944552	0.500014
C141	C	-0.981575	0.254756	0.092176
C142	C	-0.481575	0.754756	0.592176
N143	N	-0.927355	0.222858	0.128525
N144	N	-0.427355	0.722858	0.628525
C145	C	-0.943631	0.029561	0.000052
C146	C	-0.443631	0.529561	0.500052
N147	N	-0.872671	-0.002914	0.000047
N148	N	-0.372671	0.497086	0.500047
C149	C	-0.983349	-0.255163	0.660354
C150	C	-0.483349	0.244837	1.160354
N151	N	-0.929853	-0.291011	0.627711
N152	N	-0.429853	0.208989	1.127711
C153	C	-1.254786	-0.073663	0.825841
C154	C	-0.754786	0.426337	1.325841
N155	N	-1.308338	-0.037860	0.858483
N156	N	-0.808338	0.462140	1.358483
H157	H	-1.236279	-0.086011	0.328493
H158	H	-0.736279	0.413989	0.828493
C159	C	-0.983260	-0.255126	0.174263
C160	C	-0.483260	0.244874	0.674263
N161	N	-0.929739	-0.290953	0.141619
N162	N	-0.429739	0.209047	0.641619
H163	H	-1.269917	0.630454	0.000034
H164	H	-0.769917	1.130454	0.500034
C165	C	-1.145674	-0.033199	0.417342
C166	C	-0.645674	0.466801	0.917342
N167	N	-1.156180	0.018563	0.384710
N168	N	-0.656180	0.518563	0.884710
H169	H	-0.956540	0.619828	0.000010
H170	H	-0.456540	1.119828	0.500010
H171	H	-0.997640	0.397352	0.079620
H172	H	-0.497640	0.897352	0.579620
H173	H	-0.965484	0.172367	0.000049
H174	H	-0.465484	0.672367	0.500049
C175	C	-1.145691	-0.033202	0.582823
C176	C	-0.645691	0.466798	1.082823
N177	N	-1.156209	0.018556	0.615482
N178	N	-0.656209	0.518556	1.115482
H179	H	-1.236322	-0.086020	0.671625
H180	H	-0.736322	0.413980	1.171625
C181	C	-0.983305	-0.255118	0.825832
C182	C	-0.483305	0.244882	1.325832
N183	N	-0.929755	-0.290913	0.858477
N184	N	-0.429755	0.209087	1.358477
H185	H	-1.096001	-0.277733	0.571501
H186	H	-0.596001	0.222267	1.071501
H187	H	-1.095964	-0.277729	0.428549
H188	H	-0.595964	0.222271	0.928549
H189	H	-1.001722	-0.242754	0.328487
H190	H	-0.501722	0.257246	0.828487
