data_functionalizedCrystal
_audit_creation_method	'MofGen! by Chris Wilmer'
_symmetry_space_group_name_H-M	'P1'
_symmetry_Int_Tables_number	1
_symmetry_cell_setting	triclinic
loop_
_symmetry_equiv_pos_as_xyz
  x,y,z
_cell_length_a	11.026607
_cell_length_b	12.811415
_cell_length_c	9.482900
_cell_angle_alpha	94.039455
_cell_angle_beta	78.636152
_cell_angle_gamma	96.259367
loop_
_atom_site_label
_atom_site_type_symbol
_atom_site_fract_x
_atom_site_fract_y
_atom_site_fract_z
O1	O	1.639892	0.421157	-0.176420
O2	O	1.285318	0.371754	-0.169909
O3	O	1.468435	0.247436	-0.153512
O4	O	1.456775	0.545475	-0.192818
O5	O	1.431243	0.272818	0.084933
O6	O	1.248126	0.397136	0.068536
O7	O	1.602700	0.446539	0.062024
Cu8	Cu	1.422017	0.424155	0.087052
Cu9	Cu	1.466001	0.394138	-0.194937
O10	O	1.419583	0.570857	0.045627
C11	C	1.221277	0.375331	-0.049485
C12	C	1.085865	0.348162	-0.045904
C13	C	1.013987	0.423180	-0.055799
C14	C	0.874031	0.395101	-0.052097
C15	C	1.448046	0.221378	-0.029182
C16	C	1.442688	0.105916	-0.013964
C17	C	1.473148	-0.138716	-0.245350
C18	C	1.468115	-0.247204	-0.231058
C19	C	1.427578	-0.219549	0.028910
C20	C	1.432612	-0.111062	0.014618
C21	C	1.455399	-0.070649	-0.122516
C22	C	1.460441	0.037841	-0.136807
C23	C	1.419896	0.065492	0.123160
C24	C	1.414863	-0.042995	0.137452
C25	C	1.666741	0.442961	-0.058403
C26	C	1.802155	0.470129	-0.061993
C27	C	1.439973	0.596914	-0.078706
C28	C	1.445332	0.712376	-0.093933
N29	N	1.391090	0.445268	0.285387
N30	N	1.496937	0.373019	-0.393271
C31	C	1.456870	0.400359	0.363510
C32	C	1.431147	0.417935	0.528609
H33	H	0.844221	0.555149	-0.073196
H34	H	1.572298	0.321550	0.551393
H35	H	0.831968	0.310079	-0.040922
C36	C	1.498222	-0.094257	-0.396186
H37	H	1.508069	-0.150335	-0.467297
H38	H	1.571884	-0.047220	-0.407858
H39	H	1.430162	-0.057803	-0.406468
H40	H	1.315725	0.496724	0.340730
C41	C	1.329318	0.487441	0.603349
H42	H	1.291373	0.513326	0.532928
H43	H	1.365340	0.544846	0.655162
H44	H	1.268397	0.447012	0.668055
C45	C	1.029044	0.233315	-0.030757
H46	H	1.092287	0.189891	-0.025020
H47	H	0.992867	0.210745	-0.112097
H48	H	0.966934	0.228452	0.054215
C49	C	1.485502	0.082295	-0.287646
H50	H	1.495338	0.026213	-0.358752
H51	H	1.559165	0.129330	-0.299335
H52	H	1.417439	0.118749	-0.297917
H53	H	1.056060	0.508193	-0.067002
C54	C	1.400362	0.140367	0.258282
H55	H	1.406614	0.210767	0.230135
H56	H	1.462061	0.133558	0.313337
H57	H	1.320340	0.122978	0.314725
H58	H	1.482563	-0.302621	-0.331082
C59	C	1.558674	0.330837	0.288759
H60	H	1.562612	0.328149	0.187599
H61	H	1.539629	0.261836	0.322738
H62	H	1.636601	0.359651	0.309811
H63	H	1.409016	-0.252474	0.140558
H64	H	1.396305	-0.075915	0.249102
