data_functionalizedCrystal
_audit_creation_method	'MofGen! by Chris Wilmer'
_symmetry_space_group_name_H-M	'P1'
_symmetry_Int_Tables_number	1
_symmetry_cell_setting	triclinic
loop_
_symmetry_equiv_pos_as_xyz
  x,y,z
_cell_length_a	27.440280
_cell_length_b	14.560432
_cell_length_c	27.440280
_cell_angle_alpha	60.006325
_cell_angle_beta	90.000400
_cell_angle_gamma	59.996434
loop_
_atom_site_label
_atom_site_type_symbol
_atom_site_fract_x
_atom_site_fract_y
_atom_site_fract_z
Zr1	Zr	0.469504	1.005187	-0.063958
O2	O	0.391688	1.196781	-0.141765
O3	O	0.493357	0.813590	-0.040107
O4	O	0.493358	1.005167	-0.141769
O5	O	0.391688	1.005221	0.040091
O6	O	0.573560	1.005155	-0.141771
O7	O	0.391687	1.005204	-0.040103
O8	O	0.573558	0.662459	0.040084
O9	O	0.391690	1.347917	-0.141764
O10	O	0.563386	0.892390	-0.029935
O11	O	0.503533	0.892411	0.029914
O12	O	0.503535	1.117968	-0.089780
O13	O	0.443682	1.117990	-0.029931
Zr14	Zr	0.597418	1.005197	0.063938
Zr15	Zr	0.597416	1.005169	-0.063962
Zr16	Zr	0.469506	1.005215	0.063941
Zr17	Zr	0.469508	1.246233	-0.063957
Zr18	Zr	0.597414	0.764151	0.063936
O19	O	0.573565	1.196795	0.040086
O20	O	0.573562	1.196755	-0.141770
O21	O	0.391691	1.196821	0.040091
O22	O	0.675234	0.813604	0.141744
O23	O	0.675231	0.813564	-0.040112
O24	O	0.493360	0.813630	0.141750
O25	O	0.675234	1.005163	-0.040111
O26	O	0.573564	1.005218	0.141748
O27	O	0.493363	1.005229	0.141750
O28	O	0.675235	1.005181	0.040083
O29	O	0.493363	1.347903	-0.141767
O30	O	0.573559	0.662481	0.141747
O31	O	0.675232	0.662467	0.141744
O32	O	0.675230	0.662445	0.040081
O33	O	0.391692	1.347940	-0.040101
O34	O	0.493365	1.347925	-0.040104
O35	O	0.563387	0.892416	0.089760
O36	O	0.623240	0.892394	0.029910
O37	O	0.563389	1.117973	-0.029934
O38	O	0.503536	1.117995	0.029915
C39	C	0.533457	0.703680	-0.000012
C40	C	0.533456	0.601350	-0.000012
C41	C	0.445082	0.767859	-0.088367
C42	C	0.400895	0.803035	-0.132541
C43	C	0.400897	0.706882	-0.132539
C44	C	0.445091	0.575541	-0.088359
C45	C	0.489278	0.540364	-0.044185
C46	C	0.489270	0.636529	-0.044190
C47	C	0.577653	0.373858	0.044166
C48	C	0.577650	0.470009	0.044168
C49	C	0.621847	0.242517	0.088347
C50	C	0.666033	0.207338	0.132525
C51	C	0.666029	0.303500	0.132521
C52	C	0.621836	0.434832	0.088343
C53	C	0.373463	1.005215	-0.000006
C54	C	0.319161	1.005223	-0.000004
C55	C	0.084475	1.005184	0.044182
C56	C	0.135495	1.005188	0.044183
O57	O	0.161896	1.005153	0.081767
N58	N	0.161007	1.005188	0.000001
C59	C	0.135501	1.005171	-0.044182
O60	O	0.161886	1.005170	-0.081762
C61	C	0.084485	1.005159	-0.044180
C62	C	0.058971	1.005172	0.000001
C63	C	0.058962	1.005196	0.088360
C64	C	0.007945	1.005195	0.088358
C65	C	-0.017558	1.005183	0.044178
C66	C	0.007955	1.005171	-0.000001
C67	C	0.058982	1.005133	-0.088360
C68	C	0.007963	1.005120	-0.088354
C69	C	-0.017551	1.005133	-0.044173
C70	C	-0.068565	1.005158	-0.044183
N71	N	-0.094078	1.005158	-0.000001
C72	C	-0.068574	1.005170	0.044179
C73	C	0.242639	1.005195	-0.044182
C74	C	0.293652	1.005217	-0.044187
C75	C	0.293642	1.005231	0.044179
C76	C	0.242626	1.005218	0.044181
C77	C	0.217126	1.005195	0.000000
C78	C	-0.175713	1.005170	0.044171
C79	C	-0.226736	1.005174	0.044164
C80	C	-0.226720	1.005153	-0.044199
C81	C	-0.175704	1.005156	-0.044194
C82	C	-0.150201	1.005159	-0.000004
O83	O	-0.094997	1.005187	-0.081747
O84	O	-0.094961	1.005154	0.081757
C85	C	0.693459	1.005169	-0.000015
C86	C	0.747761	1.005162	-0.000016
C87	C	0.533459	1.005157	-0.159993
C88	C	0.533458	1.005145	-0.214289
C89	C	0.533465	1.306704	-0.000009
C90	C	0.533466	1.409034	-0.000008
C91	C	0.502225	1.122964	-0.582262
C92	C	0.502226	1.122971	-0.633284
O93	O	0.475675	1.223112	-0.686239
N94	N	0.533467	1.005222	-0.627563
C95	C	0.564713	0.887459	-0.570815
O96	O	0.591286	0.787305	-0.570634
C97	C	0.564714	0.887453	-0.519794
C98	C	0.533467	1.005209	-0.525520
C99	C	0.470980	1.240710	-0.587985
C100	C	0.470978	1.240703	-0.536966
C101	C	0.502220	1.122948	-0.480224
C102	C	0.533464	1.005202	-0.474501
C103	C	0.595963	0.769691	-0.463048
C104	C	0.595962	0.769695	-0.412026
C105	C	0.564715	0.887451	-0.417751
C106	C	0.564703	0.887439	-0.366740
N107	N	0.533463	1.005188	-0.372461
C108	C	0.502221	1.122942	-0.429203
C109	C	0.564708	0.887480	-0.677965
C110	C	0.564704	0.887484	-0.728985
C111	C	0.502218	1.122997	-0.791450
C112	C	0.502220	1.122991	-0.740429
C113	C	0.533468	1.005228	-0.683686
C114	C	0.502218	1.122917	-0.322057
C115	C	0.502216	1.122899	-0.271031
C116	C	0.564704	0.887388	-0.208570
C117	C	0.564703	0.887405	-0.259592
C118	C	0.533459	1.005180	-0.316337
O119	O	0.591243	0.787349	-0.313766
O120	O	0.475659	1.223079	-0.429373
C121	C	0.533463	1.005228	0.159972
C122	C	0.533464	1.005240	0.214269
C123	C	0.693455	0.703658	-0.000016
C124	C	0.747755	0.601320	-0.000018
C125	C	0.533459	0.703716	0.159971
C126	C	0.533459	0.601397	0.214267
C127	C	0.693457	0.703693	0.159966
C128	C	0.747758	0.601367	0.214261
C129	C	0.373465	1.306691	-0.159987
C130	C	0.319164	1.409018	-0.214281
C131	C	0.373467	1.306727	-0.000004
C132	C	0.319167	1.409065	-0.000002
C133	C	0.533463	1.306669	-0.159991
C134	C	0.533463	1.408987	-0.214287
C135	C	0.742012	0.553258	-0.031263
C136	C	0.793028	0.457114	-0.031277
C137	C	0.849787	0.409026	-0.000042
C138	C	0.855529	0.457097	0.031204
C139	C	0.804513	0.553246	0.031214
C140	C	0.564702	0.553350	0.271009
C141	C	0.564699	0.457225	0.322031
C142	C	0.533456	0.409142	0.316309
C143	C	0.502209	0.457198	0.259561
C144	C	0.502209	0.553329	0.208540
C145	C	0.804506	0.553302	0.208517
C146	C	0.855533	0.457169	0.259528
C147	C	0.849810	0.409096	0.316281
C148	C	0.793056	0.457171	0.322024
C149	C	0.742031	0.553308	0.271014
C150	C	0.262416	1.457094	-0.208538
C151	C	0.211389	1.553257	-0.259548
C152	C	0.217112	1.601335	-0.316302
C153	C	0.273866	1.553254	-0.322044
C154	C	0.324891	1.457100	-0.271034
C155	C	0.324910	1.457136	0.031238
C156	C	0.273894	1.553307	0.031237
C157	C	0.217135	1.601398	0.000001
C158	C	0.211393	1.553323	-0.031243
C159	C	0.262409	1.457160	-0.031246
C160	C	0.564712	1.457040	-0.208546
C161	C	0.564724	1.553166	-0.259558
C162	C	0.533484	1.601244	-0.316311
C163	C	0.502234	1.553182	-0.322050
C164	C	0.502226	1.457051	-0.271039
H165	H	0.364914	0.909982	-0.168513
H166	H	-0.154936	1.005164	-0.080176
H167	H	0.371097	1.417957	-0.275717
H168	H	-0.154953	1.005170	0.080156
H169	H	0.788405	0.418016	0.368239
F170	F	0.162800	1.703671	-0.370587
F171	F	0.279947	1.604433	-0.382450
H172	H	0.590146	0.418108	0.368233
H173	H	0.278581	1.592434	0.056682
H174	H	0.257745	1.417954	-0.162331
H175	H	0.165183	1.592387	-0.254861
H176	H	0.695826	0.592430	0.275698
H177	H	-0.012823	1.005201	0.124336
F178	F	0.597959	0.604503	0.277112
H179	H	0.364919	0.735530	-0.168512
H180	H	0.590152	1.417909	-0.162340
F181	F	0.915929	0.406018	0.253404
H182	H	0.371121	1.417988	0.056679
H183	H	0.590171	1.592288	-0.254873
H184	H	0.809198	0.592366	0.056661
H185	H	0.175600	1.679700	0.000008
H186	H	0.165174	1.592493	-0.056675
H187	H	0.257724	1.418023	-0.056684
H188	H	0.476777	1.417938	-0.275722
F189	F	0.533497	1.703559	-0.370597
F190	F	0.468984	1.604373	-0.382455
F191	F	0.597954	0.762077	-0.253498
F192	F	0.468965	1.248267	-0.382443
F193	F	0.533462	0.306829	0.370616
F194	F	0.468957	0.604448	0.148152
F195	F	0.445071	0.870201	-0.088367
H196	H	0.702014	0.100399	0.168490
H197	H	0.445093	0.497255	-0.088366
F198	F	0.810610	0.604453	0.148121
F199	F	0.713062	0.266048	0.179536
F200	F	-0.253872	1.005144	-0.091219
H201	H	0.621826	0.513136	0.088338
F202	F	-0.253887	1.005192	0.091189
F203	F	0.621850	0.140184	0.088346
H204	H	0.476772	0.418035	0.254911
H205	H	0.445536	1.336592	-0.541635
H206	H	0.221857	1.005228	0.080157
F207	F	0.086099	1.005207	0.135387
H208	H	0.314416	1.005227	-0.080169
F209	F	0.320796	1.005241	0.091200
F210	F	0.904122	0.306776	0.370566
H211	H	0.221877	1.005187	-0.080163
H212	H	0.079748	1.005121	-0.124336
H213	H	0.476768	1.218795	-0.275700
F214	F	-0.019172	1.005091	-0.135378
H215	H	0.891322	0.330735	-0.000055
H216	H	0.445540	1.336605	-0.634184
H217	H	0.476775	1.218879	-0.745097
H218	H	0.476779	1.218879	-0.837660
H219	H	0.590141	0.791595	-0.724315
H220	H	0.590151	0.791578	-0.631762
H221	H	0.590138	0.791515	-0.162363
H222	H	0.621409	0.673801	-0.458374
H223	H	0.621409	0.673796	-0.365824
H224	H	0.695801	0.592410	-0.056706
H225	H	0.788341	0.417986	-0.056721
F226	F	0.915941	0.405903	0.064446
