data_functionalizedCrystal
_audit_creation_method	'MofGen! by Chris Wilmer'
_symmetry_space_group_name_H-M	'P1'
_symmetry_Int_Tables_number	1
_symmetry_cell_setting	triclinic
loop_
_symmetry_equiv_pos_as_xyz
  x,y,z
_cell_length_a	10.654550
_cell_length_b	9.065218
_cell_length_c	8.140239
_cell_angle_alpha	90.001686
_cell_angle_beta	89.997573
_cell_angle_gamma	95.249606
loop_
_atom_site_label
_atom_site_type_symbol
_atom_site_fract_x
_atom_site_fract_y
_atom_site_fract_z
O1	O	1.668659	-0.207232	-0.136596
O2	O	1.303259	-0.226976	-0.136601
O3	O	1.493512	-0.002421	-0.136595
O4	O	1.478406	-0.431788	-0.136602
O5	O	1.493501	-0.002418	0.136632
O6	O	1.303248	-0.226974	0.136626
O7	O	1.668648	-0.207230	0.136631
Zn8	Zn	1.485947	-0.217101	0.180010
Zn9	Zn	1.485961	-0.217105	-0.179979
O10	O	1.478395	-0.431786	0.136625
C11	C	1.256450	-0.225525	0.000012
C12	C	1.116989	-0.221188	0.000010
C13	C	1.715457	-0.208681	0.000015
C14	C	1.854918	-0.213018	0.000006
C15	C	1.933880	-0.080803	0.000002
C16	C	2.064917	-0.084888	0.000010
C17	C	2.038017	-0.353413	0.000019
C18	C	1.906983	-0.349327	0.000023
C19	C	1.881815	0.055506	-0.000015
C20	C	1.960778	0.187732	-0.000021
C21	C	2.091815	0.183647	-0.000013
C22	C	2.143889	0.047337	0.000001
C23	C	1.492055	0.052559	0.000016
C24	C	1.487714	0.216378	0.000008
C25	C	1.479852	-0.486766	0.000011
C26	C	1.484193	-0.650585	0.000008
N27	N	1.485946	-0.217098	0.425692
N28	N	1.485971	-0.217096	-0.425662
H29	H	1.918371	0.298710	-0.000046
C30	C	1.737680	0.060004	-0.000017
H31	H	1.717979	0.160117	-0.000016
H32	H	1.703073	0.011331	-0.095291
H33	H	1.703070	0.011355	0.095281
C34	C	2.178671	0.329085	-0.000018
H35	H	2.128891	0.410845	-0.000040
H36	H	2.230346	0.333087	0.095260
H37	H	2.230346	0.333062	-0.095313
C38	C	2.288027	0.042846	-0.000011
H39	H	2.327600	0.141112	-0.000028
H40	H	2.312714	-0.007664	0.095260
H41	H	2.312691	-0.007661	-0.095313
C42	C	1.820120	-0.494760	0.000008
H43	H	1.869893	-0.576525	-0.000010
H44	H	1.768438	-0.498749	0.095286
H45	H	1.768452	-0.498738	-0.095287
H46	H	2.080426	-0.464390	0.000029
