data_functionalizedCrystal
_audit_creation_method	'MofGen! by Chris Wilmer'
_symmetry_space_group_name_H-M	'P1'
_symmetry_Int_Tables_number	1
_symmetry_cell_setting	triclinic
loop_
_symmetry_equiv_pos_as_xyz
  x,y,z
_cell_length_a	17.699077
_cell_length_b	17.699083
_cell_length_c	16.176319
_cell_angle_alpha	90.007696
_cell_angle_beta	90.006860
_cell_angle_gamma	83.281795
loop_
_atom_site_label
_atom_site_type_symbol
_atom_site_fract_x
_atom_site_fract_y
_atom_site_fract_z
O1	O	-1.004082	-0.095692	-0.068737
O2	O	-0.670748	0.237642	0.264596
O3	O	-0.337415	0.570975	0.597929
O4	O	-0.783703	-0.108149	-0.068741
O5	O	-0.450369	0.225185	0.264592
O6	O	-0.117036	0.558518	0.597925
O7	O	-0.900118	0.008269	-0.068732
O8	O	-0.566785	0.341602	0.264601
O9	O	-0.233452	0.674936	0.597935
O10	O	-0.887666	-0.212110	-0.068747
O11	O	-0.554333	0.121224	0.264587
O12	O	-0.220999	0.454557	0.597920
O13	O	-0.900102	0.008277	0.068761
O14	O	-0.566769	0.341610	0.402095
O15	O	-0.233436	0.674943	0.735428
O16	O	-0.783687	-0.108141	0.068752
O17	O	-0.450353	0.225192	0.402085
O18	O	-0.117020	0.558525	0.735418
O19	O	-1.004066	-0.095684	0.068756
O20	O	-0.670732	0.237649	0.402089
O21	O	-0.337399	0.570982	0.735423
Cu22	Cu	-0.893875	-0.101912	0.081308
Cu23	Cu	-0.560541	0.231421	0.414641
Cu24	Cu	-0.227208	0.564755	0.747975
Cu25	Cu	-0.893894	-0.101921	-0.081294
Cu26	Cu	-0.560560	0.231412	0.252040
Cu27	Cu	-0.227227	0.564746	0.585373
O28	O	-0.887650	-0.212102	0.068746
O29	O	-0.554317	0.121231	0.402080
O30	O	-0.220983	0.454565	0.735413
C31	C	-0.755498	-0.107700	0.000005
C32	C	-0.422164	0.225634	0.333338
C33	C	-0.088831	0.558967	0.666671
C34	C	-0.671479	-0.106363	0.000003
C35	C	-0.338146	0.226971	0.333337
C36	C	-0.004813	0.560304	0.666670
C37	C	-1.032271	-0.096133	0.000008
C38	C	-0.698937	0.237200	0.333341
C39	C	-0.365604	0.570533	0.666675
C40	C	-1.116289	-0.097470	0.000004
C41	C	-0.782956	0.235863	0.333337
C42	C	-0.449622	0.569196	0.666671
C43	C	-0.899664	0.036470	0.000015
C44	C	-0.566331	0.369803	0.333348
C45	C	-0.232998	0.703136	0.666681
C46	C	-0.898326	0.120488	0.000015
C47	C	-0.564992	0.453821	0.333348
C48	C	-0.231659	0.787155	0.666682
C49	C	-0.632003	-0.105729	0.074952
C50	C	-0.298670	0.227605	0.408285
C51	C	0.034664	0.560938	0.741618
C52	C	-0.553061	-0.104461	0.074953
C53	C	-0.219727	0.228873	0.408286
C54	C	0.113606	0.562206	0.741619
C55	C	-0.513595	-0.103832	0.000004
C56	C	-0.180262	0.229502	0.333338
C57	C	0.153072	0.562835	0.666671
C58	C	-0.553077	-0.104464	-0.074950
C59	C	-0.219743	0.228870	0.258383
C60	C	0.113590	0.562203	0.591717
C61	C	-0.632019	-0.105726	-0.074950
C62	C	-0.298685	0.227607	0.258383
C63	C	0.034648	0.560940	0.591717
C64	C	-0.234714	-0.099370	-0.074951
C65	C	0.098620	0.233963	0.258382
C66	C	0.431953	0.567296	0.591715
C67	C	-0.155766	-0.098110	-0.074945
C68	C	0.177567	0.235224	0.258388
C69	C	0.510901	0.568557	0.591721
C70	C	-0.155755	-0.098105	0.074952
C71	C	0.177578	0.235229	0.408285
C72	C	0.510911	0.568562	0.741618
C73	C	-0.234697	-0.099367	0.074951
C74	C	0.098636	0.233966	0.408285
C75	C	0.431969	0.567299	0.741618
C76	C	-0.274173	-0.099995	-0.000002
C77	C	0.059160	0.233338	0.333331
C78	C	0.392494	0.566672	0.666664
C79	C	-0.359772	-0.101369	-0.000002
C80	C	-0.026438	0.231965	0.333331
C81	C	0.306895	0.565298	0.666664
C82	C	-0.427997	-0.102464	0.000004
C83	C	-0.094664	0.230870	0.333337
C84	C	0.238670	0.564203	0.666670
N85	N	-0.893867	-0.101906	0.195673
N86	N	-0.560534	0.231428	0.529007
N87	N	-0.227200	0.564761	0.862340
C88	C	-0.888104	-0.240303	-0.000002
C89	C	-0.554771	0.093031	0.333331
C90	C	-0.221437	0.426364	0.666665
C91	C	-0.889443	-0.324321	-0.000008
C92	C	-0.556109	0.009012	0.333326
C93	C	-0.222776	0.342346	0.666659
C94	C	-0.966659	0.169110	0.000018
C95	C	-0.633326	0.502444	0.333351
C96	C	-0.299993	0.835777	0.666684
C97	C	-0.965397	0.248054	0.000010
C98	C	-0.632064	0.581387	0.333344
C99	C	-0.298730	0.914720	0.666677
C100	C	-0.895800	0.278373	0.000006
C101	C	-0.562467	0.611706	0.333340
C102	C	-0.229134	0.945040	0.666673
C103	C	-0.827461	0.229744	0.000001
C104	C	-0.494128	0.563078	0.333335
C105	C	-0.160795	0.896411	0.666668
C106	C	-0.828724	0.150803	0.000003
C107	C	-0.495391	0.484136	0.333336
C108	C	-0.162058	0.817469	0.666669
C109	C	-0.822366	0.548107	-0.000005
C110	C	-0.489033	0.881441	0.333328
C111	C	-0.155699	1.214774	0.666661
C112	C	-0.821108	0.627055	-0.000004
C113	C	-0.487775	0.960388	0.333329
C114	C	-0.154442	1.293722	0.666662
C115	C	-0.959039	0.645358	0.000002
C116	C	-0.625705	0.978692	0.333335
C117	C	-0.292372	1.312025	0.666669
C118	C	-0.960302	0.566417	0.000003
C119	C	-0.626968	0.899750	0.333337
C120	C	-0.293635	1.233083	0.666670
C121	C	-0.891963	0.517795	-0.000006
C122	C	-0.558630	0.851128	0.333327
C123	C	-0.225297	1.184461	0.666661
C124	C	-0.893333	0.432196	0.000000
C125	C	-0.559999	0.765529	0.333334
C126	C	-0.226666	1.098862	0.666667
C127	C	-0.894430	0.363971	0.000006
C128	C	-0.561097	0.697304	0.333339
C129	C	-0.227763	1.030637	0.666673
N130	N	-0.893907	-0.101921	-0.195659
N131	N	-0.560574	0.231412	0.137675
N132	N	-0.227241	0.564745	0.471008
C133	C	-0.945431	-0.050377	0.238942
C134	C	-0.612098	0.282957	0.572275
C135	C	-0.278765	0.616290	0.905608
C136	C	-0.945435	-0.050376	0.325489
C137	C	-0.612102	0.282957	0.658822
C138	C	-0.278768	0.616291	0.992155
C139	C	-0.893878	-0.101908	0.368766
C140	C	-0.560544	0.231425	0.702099
C141	C	-0.227211	0.564759	1.035433
C142	C	-0.842308	-0.153439	0.325491
C143	C	-0.508974	0.179894	0.658825
C144	C	-0.175641	0.513227	0.992158
C145	C	-0.842301	-0.153436	0.238946
C146	C	-0.508968	0.179897	0.572279
C147	C	-0.175634	0.513231	0.905613
C148	C	-0.842334	-0.153454	0.674520
C149	C	-0.509000	0.179880	1.007853
C150	C	-0.175667	0.513213	1.341186
C151	C	-0.842346	-0.153455	0.761071
C152	C	-0.509013	0.179879	1.094405
C153	C	-0.175679	0.513212	1.427738
C154	C	-0.945468	-0.050393	0.761063
C155	C	-0.612135	0.282940	1.094396
C156	C	-0.278801	0.616273	1.427729
C157	C	-0.945461	-0.050390	0.674517
C158	C	-0.612128	0.282943	1.007850
C159	C	-0.278794	0.616277	1.341184
C160	C	-0.893889	-0.101918	0.631250
C161	C	-0.560556	0.231415	0.964583
C162	C	-0.227222	0.564748	1.297917
C163	C	-0.893884	-0.101918	0.537406
C164	C	-0.560551	0.231416	0.870739
C165	C	-0.227218	0.564749	1.204073
C166	C	-0.893885	-0.101913	0.462608
C167	C	-0.560552	0.231420	0.795942
C168	C	-0.227218	0.564754	1.129275
H169	H	-0.664130	-0.106247	0.135984
H170	H	-0.330796	0.227086	0.469317
H171	H	0.002537	0.560420	0.802650
H172	H	-0.764431	0.651737	-0.000006
H173	H	-0.431098	0.985071	0.333327
H174	H	-0.097764	1.318404	0.666661
H175	H	-1.014683	0.684956	0.000005
H176	H	-0.681350	1.018289	0.333339
H177	H	-0.348016	1.351623	0.666672
H178	H	-0.987459	-0.008434	0.796300
H179	H	-0.654125	0.324900	1.129633
H180	H	-0.320792	0.658233	1.462966
F181	F	-0.276716	-0.100039	-0.154724
F182	F	0.056617	0.233294	0.178610
F183	F	0.389950	0.566628	0.511943
H184	H	-0.664159	-0.106244	-0.135981
H185	H	-0.330826	0.227089	0.197352
H186	H	0.002508	0.560423	0.530686
F187	F	-0.749634	0.496370	-0.000017
F188	F	-0.416301	0.829704	0.333316
F189	F	-0.082967	1.163037	0.666649
H190	H	-0.800311	-0.195395	0.203718
H191	H	-0.466978	0.137938	0.537051
H192	H	-0.133644	0.471272	0.870384
F193	F	-0.113737	-0.097433	0.154725
F194	F	0.219596	0.235900	0.488058
F195	F	0.552930	0.569234	0.821392
H196	H	-0.520938	-0.103946	-0.135974
H197	H	-0.187605	0.229387	0.197359
H198	H	0.145728	0.562720	0.530692
H199	H	-1.023333	0.144431	0.000026
H200	H	-0.690000	0.477764	0.333359
H201	H	-0.356666	0.811098	0.666693
F202	F	-1.000311	0.004469	0.192891
F203	F	-0.666977	0.337802	0.526224
F204	F	-0.333644	0.671135	0.859558
F205	F	-0.787450	-0.208295	0.628478
F206	F	-0.454116	0.125038	0.961812
F207	F	-0.120783	0.458372	1.295145
H208	H	-0.987422	-0.008417	0.360718
H209	H	-0.654089	0.324917	0.694051
H210	H	-0.320755	0.658250	1.027384
F211	F	-0.113765	-0.097439	-0.154720
F212	F	0.219568	0.235894	0.178614
F213	F	0.552902	0.569227	0.511947
F214	F	-0.511049	-0.103796	0.154723
F215	F	-0.177716	0.229537	0.488057
F216	F	0.155617	0.562870	0.821390
F217	F	-0.753391	0.262014	-0.000012
F218	F	-0.420058	0.595348	0.333321
F219	F	-0.086724	0.928681	0.666655
F220	F	-0.276695	-0.100041	0.154722
F221	F	0.056639	0.233292	0.488055
F222	F	0.389972	0.566626	0.821388
F223	F	-1.038127	0.299798	0.000014
F224	F	-0.704794	0.633132	0.333348
F225	F	-0.371460	0.966465	0.666681
F226	F	-1.034376	0.534153	0.000007
F227	F	-0.701042	0.867487	0.333340
F228	F	-0.367709	1.200820	0.666673
F229	F	-0.755994	0.099055	-0.000002
F230	F	-0.422661	0.432388	0.333331
F231	F	-0.089328	0.765721	0.666664
F232	F	-1.000338	0.004454	0.628462
F233	F	-0.667004	0.337788	0.961795
F234	F	-0.333671	0.671121	1.295128
F235	F	-0.787468	-0.208304	0.807128
F236	F	-0.454135	0.125029	1.140462
F237	F	-0.120801	0.458362	1.473795
H238	H	-0.800325	-0.195395	0.360733
H239	H	-0.466992	0.137938	0.694066
H240	H	-0.133658	0.471271	1.027399
