data_functionalizedCrystal
_audit_creation_method	'MofGen! by Chris Wilmer'
_symmetry_space_group_name_H-M	'P1'
_symmetry_Int_Tables_number	1
_symmetry_cell_setting	triclinic
loop_
_symmetry_equiv_pos_as_xyz
  x,y,z
_cell_length_a	13.033304
_cell_length_b	13.032721
_cell_length_c	13.032268
_cell_angle_alpha	76.710373
_cell_angle_beta	90.922231
_cell_angle_gamma	105.183092
loop_
_atom_site_label
_atom_site_type_symbol
_atom_site_fract_x
_atom_site_fract_y
_atom_site_fract_z
Zn1	Zn	-1.451133	0.335813	-0.818131
Zn2	Zn	-0.951133	0.835813	-0.318131
Zn3	Zn	-1.451019	0.490910	-0.663066
Zn4	Zn	-0.951019	0.990910	-0.163066
Zn5	Zn	-1.301797	0.330110	-0.623681
Zn6	Zn	-0.801797	0.830110	-0.123681
Zn7	Zn	-1.250931	0.535896	-0.818005
Zn8	Zn	-0.750931	1.035896	-0.318005
O9	O	-1.363720	0.423183	-0.730721
O10	O	-0.863720	0.923183	-0.230721
O11	O	-1.597353	0.339947	-0.814097
O12	O	-1.097353	0.839947	-0.314097
O13	O	-1.452464	0.448366	-0.511621
O14	O	-0.952464	0.948366	-0.011621
O15	O	-1.342943	0.179836	-0.633046
O16	O	-0.842943	0.679836	-0.133046
O17	O	-1.597269	0.453897	-0.700172
O18	O	-1.097269	0.953897	-0.200172
O19	O	-1.452659	0.184026	-0.775907
O20	O	-0.952659	0.684026	-0.275907
O21	O	-1.342832	0.330227	-0.482685
O22	O	-0.842832	0.830227	0.017315
O23	O	-1.148815	0.373848	-0.632923
O24	O	-0.648815	0.873848	-0.132923
O25	O	-1.256248	0.530569	-0.964242
O26	O	-0.756248	1.030569	-0.464242
O27	O	-1.111443	0.525038	-0.775692
O28	O	-0.611443	1.025038	-0.275692
O29	O	-1.403335	0.383568	-0.964335
O30	O	-0.903335	0.883568	-0.464335
O31	O	-1.403141	0.647909	-0.700049
O32	O	-0.903141	1.147909	-0.200049
O33	O	-1.256137	0.680960	-0.813882
O34	O	-0.756137	1.180960	-0.313882
C35	C	-1.092212	0.453707	-0.700021
C36	C	-0.592212	0.953707	-0.200021
C37	C	-0.976052	0.466795	-0.686914
C38	C	-0.476052	0.966795	-0.186914
C39	C	-0.924277	0.416366	-0.737549
C40	C	-0.424277	0.916366	-0.237549
C41	C	-0.804220	0.429892	-0.724004
C42	C	-0.304220	0.929892	-0.224004
C43	C	-1.324132	0.703595	-0.761252
C44	C	-0.824132	1.203595	-0.261252
C45	C	-1.307287	0.823551	-0.774359
C46	C	-0.807287	1.323551	-0.274359
C47	C	-1.324130	0.462723	-1.003262
C48	C	-0.824130	0.962723	-0.503262
C49	C	-1.307259	0.479572	-1.119403
C50	C	-0.807259	0.979572	-0.619403
C51	C	-0.636290	0.392534	-0.761534
C52	C	-0.136290	0.892534	-0.261534
C53	C	-0.752448	0.379456	-0.774646
C54	C	-0.252448	0.879456	-0.274646
C55	C	-1.403488	0.141675	-0.700097
C56	C	-0.903488	0.641675	-0.200097
C57	C	-1.420434	0.021713	-0.687047
C58	C	-0.920434	0.521713	-0.187047
C59	C	-1.372560	0.860644	-0.723934
C60	C	-0.872560	1.360644	-0.223934
C61	C	-1.355151	0.984625	-0.737479
C62	C	-0.855151	1.484625	-0.237479
C63	C	-1.372514	0.414352	-1.171228
C64	C	-0.872514	0.914352	-0.671228
C65	C	-1.355079	0.431765	-1.291266
C66	C	-0.855079	0.931765	-0.791266
C67	C	-1.403227	0.383712	-0.459238
C68	C	-0.903227	0.883712	0.040762
C69	C	-1.420343	0.366535	-0.343088
C70	C	-0.920343	0.866535	0.156912
H71	H	-0.759669	0.483080	-0.670621
H72	H	-0.259669	0.983080	-0.170621
H73	H	-1.286294	0.500493	-1.335758
H74	H	-0.786294	1.000493	-0.835758
H75	H	-1.286379	1.044652	-0.790686
H76	H	-0.786379	1.544652	-0.290686
H77	H	-1.489214	0.961688	-0.633849
H78	H	-0.989214	1.461688	-0.133849
H79	H	-0.968833	0.363174	-0.790922
H80	H	-0.468833	0.863174	-0.290922
H81	H	-1.441285	0.345619	-1.126729
H82	H	-0.941285	0.845619	-0.626729
H83	H	-0.796999	0.326258	-0.828021
H84	H	-0.296999	0.826258	-0.328021
H85	H	-1.238519	0.883581	-0.827562
H86	H	-0.738519	1.383581	-0.327562
H87	H	-1.489117	0.297795	-1.298594
H88	H	-0.989117	0.797795	-0.798594
N89	N	-0.920155	0.533505	-0.619944
N90	N	-0.420155	1.033505	-0.119944
N91	N	-0.822709	0.544393	-0.609031
N92	N	-0.322709	1.044393	-0.109031
H93	H	-0.783233	0.591507	-0.561730
H94	H	-0.283233	1.091507	-0.061730
N95	N	-1.220965	0.565778	-1.175213
N96	N	-0.720965	1.065778	-0.675213
N97	N	-1.150956	0.544055	-1.224467
N98	N	-0.650956	1.044055	-0.724467
H99	H	-1.090007	0.604938	-1.263882
H100	H	-0.590007	1.104938	-0.763882
N101	N	-1.458843	0.785334	-0.657213
N102	N	-0.958843	1.285334	-0.157213
N103	N	-1.472869	0.684727	-0.646313
N104	N	-0.972869	1.184727	-0.146313
H105	H	-1.533811	0.631538	-0.599193
H106	H	-1.033811	1.131538	-0.099193
