data_functionalizedCrystal
_audit_creation_method	'MofGen! by Chris Wilmer'
_symmetry_space_group_name_H-M	'P1'
_symmetry_Int_Tables_number	1
_symmetry_cell_setting	triclinic
loop_
_symmetry_equiv_pos_as_xyz
  x,y,z
_cell_length_a	12.759401
_cell_length_b	13.032721
_cell_length_c	12.759393
_cell_angle_alpha	97.147684
_cell_angle_beta	89.982620
_cell_angle_gamma	97.204304
loop_
_atom_site_label
_atom_site_type_symbol
_atom_site_fract_x
_atom_site_fract_y
_atom_site_fract_z
Zn1	Zn	1.553085	-0.415968	-0.647064
Zn2	Zn	1.530647	-0.590750	-0.493688
Zn3	Zn	1.377384	-0.416023	-0.471410
Zn4	Zn	1.355050	-0.590669	-0.669319
O5	O	1.454041	-0.503352	-0.570370
O6	O	1.697128	-0.439164	-0.626727
O7	O	1.510272	-0.567629	-0.343719
O8	O	1.419428	-0.269779	-0.476073
O9	O	1.680643	-0.567576	-0.514043
O10	O	1.548515	-0.269738	-0.605125
O11	O	1.397670	-0.439258	-0.327351
O12	O	1.227401	-0.439179	-0.497654
O13	O	1.381364	-0.567437	-0.813381
O14	O	1.210993	-0.567491	-0.643057
O15	O	1.526859	-0.439085	-0.797030
O16	O	1.488616	-0.736976	-0.535623
O17	O	1.359606	-0.736917	-0.664659
C18	C	1.181077	-0.503333	-0.570353
C19	C	1.064298	-0.503350	-0.570374
C20	C	1.000906	-0.570269	-0.645988
C21	C	0.891180	-0.570282	-0.646001
C22	C	0.908248	-0.436455	-0.494777
C23	C	1.017973	-0.436437	-0.494770
C24	C	0.991050	-0.647537	-0.733294
C25	C	0.881324	-0.647550	-0.733307
C26	C	1.419281	-0.774864	-0.604996
C27	C	1.404507	-0.891018	-0.619845
C28	C	1.461808	-0.942798	-0.562668
C29	C	1.446540	-1.062849	-0.578013
C30	C	1.728072	-0.503373	-0.570388
C31	C	1.844848	-0.503381	-0.570395
C32	C	1.454123	-0.503246	-0.844390
C33	C	1.454158	-0.503201	-0.961161
C34	C	1.488966	-0.230780	-0.535632
C35	C	1.503849	-0.114627	-0.520828
C36	C	1.395556	-0.436345	-1.007505
C37	C	1.395592	-0.436314	-1.117225
C38	C	1.512840	-0.569997	-1.134248
C39	C	1.512798	-0.570032	-1.024530
C40	C	1.327868	-0.359162	-0.997677
C41	C	1.327904	-0.359131	-1.107398
C42	C	1.454030	-0.503383	-0.297407
C43	C	1.454236	-0.503134	-0.180599
H44	H	0.841189	-0.728466	-0.721700
H45	H	1.243709	-0.380835	-0.970666
H46	H	1.015245	-0.724377	-0.713815
O47	O	1.533744	-0.889503	-0.490728
C48	C	1.614628	-0.721259	-0.409919
C49	C	1.533105	-0.781481	-0.491411
H50	H	1.614154	-0.633912	-0.410460
H51	H	1.593522	-0.742657	-0.327879
H52	H	1.696622	-0.742635	-0.431143
H53	H	1.451081	-0.760137	-0.470286
H54	H	1.554301	-0.760077	-0.573429
H55	H	1.560583	-0.624408	-1.185856
H56	H	1.386178	-1.107392	-0.638333
O57	O	1.079617	-0.371316	-0.421462
C58	C	1.221585	-0.230232	-0.389581
C59	C	1.151830	-0.303903	-0.472713
H60	H	1.280001	-0.175725	-0.430987
H61	H	1.169685	-0.182336	-0.335555
H62	H	1.266760	-0.278154	-0.340650
H63	H	1.106643	-0.256062	-0.521718
H64	H	1.203786	-0.351802	-0.526667
O65	O	0.845125	-0.612925	-0.821079
C66	C	0.753271	-0.484922	-0.890737
C67	C	0.794237	-0.524010	-0.791257
H68	H	0.712100	-0.413042	-0.866661
H69	H	0.822459	-0.463974	-0.943924
H70	H	0.694859	-0.548871	-0.935277
H71	H	0.852631	-0.460108	-0.746633
H72	H	0.724996	-0.544989	-0.738147
O73	O	1.575787	-1.061337	-0.448882
C74	C	1.656670	-0.893095	-0.368064
C75	C	1.575150	-0.953314	-0.449561
H76	H	1.656197	-0.805748	-0.368602
H77	H	1.635561	-0.914497	-0.286026
H78	H	1.738665	-0.914472	-0.389286
H79	H	1.493126	-0.931970	-0.428438
H80	H	1.596350	-0.931907	-0.531577
O81	O	1.374365	-0.267381	-0.945547
C82	C	1.461924	-0.094930	-0.959992
C83	C	1.409269	-0.198807	-1.019160
H84	H	1.490178	-0.039468	-1.019482
H85	H	1.402377	-0.058561	-0.905111
H86	H	1.532271	-0.109893	-0.911569
H87	H	1.338929	-0.183933	-1.067642
H88	H	1.468884	-0.235144	-1.073977
H89	H	0.870517	-0.381976	-0.433224
H90	H	1.344150	-0.935565	-0.680160
H91	H	1.560500	-0.624488	-0.986804
H92	H	1.360066	-0.278183	-1.126865
O93	O	1.029741	-0.621723	-0.827160
C94	C	0.989981	-0.574844	-0.998251
C95	C	0.946026	-0.604041	-0.891991
H96	H	0.922317	-0.560562	-1.050705
H97	H	1.049009	-0.501091	-0.983725
H98	H	1.031161	-0.641345	-1.039016
H99	H	0.904794	-0.537608	-0.851170
H100	H	0.887051	-0.677826	-0.906587
O101	O	1.231195	-0.393666	-1.152234
C102	C	1.049467	-0.458739	-1.124112
C103	C	1.158921	-0.419624	-1.073192
H104	H	0.991009	-0.479758	-1.060233
H105	H	1.021101	-0.394869	-1.166229
H106	H	1.055284	-0.530624	-1.183592
H107	H	1.153192	-0.347758	-1.013668
H108	H	1.187247	-0.483558	-1.031143
