data_functionalizedCrystal
_audit_creation_method	'MofGen! by Chris Wilmer'
_symmetry_space_group_name_H-M	'P1'
_symmetry_Int_Tables_number	1
_symmetry_cell_setting	triclinic
loop_
_symmetry_equiv_pos_as_xyz
  x,y,z
_cell_length_a	12.594516
_cell_length_b	21.395362
_cell_length_c	21.395355
_cell_angle_alpha	89.951961
_cell_angle_beta	90.011407
_cell_angle_gamma	89.965683
loop_
_atom_site_label
_atom_site_type_symbol
_atom_site_fract_x
_atom_site_fract_y
_atom_site_fract_z
Zn1	Zn	-0.423347	-0.957923	0.354685
Zn2	Zn	0.076653	-0.457923	0.854685
Zn3	Zn	-0.601311	-0.957853	0.249921
Zn4	Zn	-0.101311	-0.457853	0.749921
Zn5	Zn	-0.423403	-0.853138	0.249879
Zn6	Zn	0.076597	-0.353138	0.749879
Zn7	Zn	-0.601340	-0.853134	0.354618
Zn8	Zn	-0.101340	-0.353134	0.854618
O9	O	-0.512350	-0.905512	0.302276
O10	O	-0.012350	-0.405512	0.802276
O11	O	-0.446918	-1.045592	0.340834
O12	O	0.053082	-0.545592	0.840834
O13	O	-0.577723	-0.943934	0.162237
O14	O	-0.077723	-0.443934	0.662237
O15	O	-0.274450	-0.867070	0.263792
O16	O	0.225550	-0.367070	0.763792
O17	O	-0.577667	-1.045540	0.263863
O18	O	-0.077667	-0.545540	0.763863
O19	O	-0.274408	-0.944055	0.340793
O20	O	0.225592	-0.444055	0.840793
O21	O	-0.447015	-0.867001	0.162207
O22	O	0.052985	-0.367001	0.662207
O23	O	-0.447043	-0.765460	0.263727
O24	O	0.052957	-0.265460	0.763727
O25	O	-0.577717	-0.867063	0.442305
O26	O	-0.077717	-0.367063	0.942305
O27	O	-0.577773	-0.765457	0.340678
O28	O	-0.077773	-0.265457	0.840678
O29	O	-0.446946	-0.944051	0.442354
O30	O	0.053054	-0.444051	0.942354
O31	O	-0.750261	-0.943930	0.263798
O32	O	-0.250261	-0.443930	0.763798
O33	O	-0.750282	-0.866994	0.340719
O34	O	-0.250282	-0.366994	0.840719
C35	C	-0.512418	-0.742724	0.302191
C36	C	-0.012418	-0.242724	0.802191
C37	C	-0.512473	-0.673083	0.302170
C38	C	-0.012473	-0.173083	0.802170
C39	C	-0.580636	-0.640385	0.342176
C40	C	-0.080636	-0.140385	0.842176
C41	C	-0.580614	-0.574950	0.342200
C42	C	-0.080614	-0.074950	0.842200
C43	C	-0.512441	-0.542215	0.302205
C44	C	-0.012441	-0.042215	0.802205
C45	C	-0.444264	-0.574921	0.262196
C46	C	0.055736	-0.074921	0.762196
C47	C	-0.444280	-0.640355	0.262179
C48	C	0.055720	-0.140355	0.762179
C49	C	-0.503874	-0.438489	0.245792
C50	C	-0.003874	0.061511	0.745792
C51	C	-0.503865	-0.373056	0.245809
C52	C	-0.003865	0.126944	0.745809
C53	C	-0.512386	-0.340394	0.302260
C54	C	-0.012386	0.159606	0.802260
C55	C	-0.520937	-0.373173	0.358697
C56	C	-0.020937	0.126827	0.858697
C57	C	-0.520953	-0.438608	0.358679
C58	C	-0.020953	0.061392	0.858679
C59	C	-0.512416	-0.471263	0.302220
C60	C	-0.012416	0.028737	0.802220
C61	C	-0.580529	-0.236743	0.342295
C62	C	-0.080529	0.263257	0.842295
C63	C	-0.580500	-0.171307	0.342319
C64	C	-0.080500	0.328693	0.842319
C65	C	-0.444156	-0.171280	0.262310
C66	C	0.055844	0.328720	0.762310
C67	C	-0.444179	-0.236715	0.262292
C68	C	0.055821	0.263285	0.762292
C69	C	-0.512372	-0.269443	0.302283
C70	C	-0.012372	0.230557	0.802283
C71	C	-0.788891	-0.905471	0.302269
C72	C	-0.288891	-0.405471	0.802269
C73	C	-0.907197	-0.905511	0.302288
C74	C	-0.407197	-0.405511	0.802288
C75	C	-0.976500	-0.863661	0.344096
C76	C	-0.476500	-0.363661	0.844096
C77	C	-1.047349	-0.848392	0.286917
C78	C	-0.547349	-0.348392	0.786917
C79	C	-1.047147	-0.920837	0.359476
C80	C	-0.547147	-0.420837	0.859476
C81	C	-0.976487	-0.890211	0.245079
C82	C	-0.476487	-0.390211	0.745079
C83	C	-0.976279	-0.962683	0.317677
C84	C	-0.476279	-0.462683	0.817677
C85	C	-1.047096	-0.947436	0.260459
C86	C	-0.547096	-0.447436	0.760459
C87	C	-0.234729	-0.905570	0.302296
C88	C	0.265271	-0.405570	0.802296
C89	C	-0.116424	-0.905595	0.302304
C90	C	0.383576	-0.405595	0.802304
C91	C	-0.512329	-0.905564	0.465699
C92	C	-0.012329	-0.405564	0.965699
C93	C	-0.512319	-0.905586	0.535340
C94	C	-0.012319	-0.405586	1.035340
C95	C	-0.512301	-0.068935	0.302343
C96	C	-0.012301	0.431065	0.802343
C97	C	-0.512325	-0.138577	0.302325
C98	C	-0.012325	0.361423	0.802325
C99	C	-0.512295	-0.905496	0.139488
C100	C	-0.012295	-0.405496	0.639488
C101	C	-0.512004	-0.905596	0.069847
C102	C	-0.012004	-0.405596	0.569847
C103	C	-0.444224	-0.945672	0.568080
C104	C	0.055776	-0.445672	1.068080
C105	C	-0.444178	-0.945671	0.633516
C106	C	0.055822	-0.445671	1.133516
C107	C	-0.512247	-0.905591	0.666209
C108	C	-0.012247	-0.405591	1.166209
C109	C	-0.580347	-0.865497	0.633461
C110	C	-0.080347	-0.365497	1.133461
C111	C	-0.580383	-0.865495	0.568027
C112	C	-0.080383	-0.365495	1.068027
C113	C	-0.608087	-0.900630	0.769879
C114	C	-0.108087	-0.400630	1.269879
C115	C	-0.608053	-0.900636	0.835312
C116	C	-0.108053	-0.400636	1.335312
C117	C	-0.512134	-0.905595	0.868030
C118	C	-0.012134	-0.405595	1.368030
C119	C	-0.416248	-0.910560	0.835306
C120	C	0.083752	-0.410560	1.335306
C121	C	-0.416284	-0.910557	0.769872
C122	C	0.083716	-0.410557	1.269872
C123	C	-0.512215	-0.905589	0.737161
C124	C	-0.012215	-0.405589	1.237161
C125	C	-0.443984	-0.945682	0.971722
C126	C	0.056016	-0.445682	1.471722
C127	C	-0.443936	-0.945677	1.037159
C128	C	0.056064	-0.445677	1.537159
C129	C	-0.580114	-0.865506	1.037103
C130	C	-0.080114	-0.365506	1.537103
C131	C	-0.580153	-0.865508	0.971667
C132	C	-0.080153	-0.365508	1.471667
C133	C	-0.512089	-0.905600	0.938981
C134	C	-0.012089	-0.405600	1.438981
H135	H	-0.527912	-0.465294	0.404632
H136	H	-0.027912	0.034706	0.904632
Br137	Br	-0.351730	-1.000062	0.677958
Br138	Br	0.148270	-0.500062	1.177958
H139	H	-1.078185	-0.933766	0.407833
H140	H	-0.578185	-0.433766	0.907833
H141	H	-0.945577	-0.877226	0.196709
H142	H	-0.445577	-0.377226	0.696709
H143	H	-0.338210	-0.914598	0.743231
H144	H	0.161790	-0.414598	1.243231
H145	H	-0.338142	-0.914599	0.861943
H146	H	0.161858	-0.414599	1.361943
H147	H	-0.635766	-0.832862	0.660084
H148	H	-0.135766	-0.332862	1.160084
H149	H	-0.388770	-0.666978	0.229601
H150	H	0.111230	-0.166978	0.729601
H151	H	-0.388800	-0.978317	0.541471
H152	H	0.111200	-0.478317	1.041471
H153	H	-0.635526	-0.832866	1.063721
H154	H	-0.135526	-0.332866	1.563721
Br155	Br	-1.099373	-0.767868	0.265225
Br156	Br	-0.599373	-0.267868	0.765225
H157	H	-0.635833	-0.832849	0.541370
H158	H	-0.135833	-0.332849	1.041370
Br159	Br	-0.924829	-0.804573	0.402940
Br160	Br	-0.424829	-0.304573	0.902940
Br161	Br	-1.098437	-1.006487	0.201478
Br162	Br	-0.598437	-0.506487	0.701478
H163	H	-0.636050	-0.263392	0.374861
H164	H	-0.136050	0.236608	0.874861
H165	H	-0.636162	-0.667028	0.374741
H166	H	-0.136162	-0.167028	0.874741
Br167	Br	-0.673126	-0.530563	0.396499
Br168	Br	-0.173126	-0.030563	0.896499
Br169	Br	-0.924212	-1.043187	0.339393
Br170	Br	-0.424212	-0.543187	0.839393
H171	H	-0.388556	-0.978323	0.945107
H172	H	0.111444	-0.478323	1.445107
H173	H	-0.388679	-0.263338	0.229711
H174	H	0.111321	0.236662	0.729711
H175	H	-0.686129	-0.896598	0.861951
H176	H	-0.186129	-0.396598	1.361951
Br177	Br	-0.351529	-1.000094	1.081593
Br178	Br	0.148471	-0.500094	1.581593
Br179	Br	-0.672575	-0.811104	0.927231
Br180	Br	-0.172575	-0.311104	1.427231
Br181	Br	-0.351623	-0.126861	0.208037
Br182	Br	0.148377	0.373139	0.708037
Br183	Br	-0.738276	-0.893918	0.725484
Br184	Br	-0.238276	-0.393918	1.225484
H185	H	-0.527873	-0.346582	0.404665
H186	H	-0.027873	0.153418	0.904665
H187	H	-0.636005	-0.144685	0.374901
H188	H	-0.136005	0.355315	0.874901
H189	H	-0.496909	-0.346372	0.199855
H190	H	0.003091	0.153628	0.699855
Br191	Br	-0.351734	-0.530497	0.207923
Br192	Br	0.148266	-0.030497	0.707923
Br193	Br	-0.492310	-0.482809	0.169172
Br194	Br	0.007690	0.017191	0.669172
