data_functionalizedCrystal
_audit_creation_method	'MofGen! by Chris Wilmer'
_symmetry_space_group_name_H-M	'P1'
_symmetry_Int_Tables_number	1
_symmetry_cell_setting	triclinic
loop_
_symmetry_equiv_pos_as_xyz
  x,y,z
_cell_length_a	11.169417
_cell_length_b	12.827892
_cell_length_c	11.169409
_cell_angle_alpha	89.966724
_cell_angle_beta	89.980487
_cell_angle_gamma	90.016641
loop_
_atom_site_label
_atom_site_type_symbol
_atom_site_fract_x
_atom_site_fract_y
_atom_site_fract_z
Zn1	Zn	1.834920	-0.415914	-0.678525
Zn2	Zn	2.084920	-0.165914	-0.428525
Zn3	Zn	2.334920	0.084086	-0.178525
Zn4	Zn	2.584920	0.334086	0.071475
Zn5	Zn	1.834792	-0.590701	-0.477839
Zn6	Zn	2.084792	-0.340701	-0.227839
Zn7	Zn	2.334792	-0.090701	0.022161
Zn8	Zn	2.584792	0.159299	0.272161
Zn9	Zn	1.634206	-0.415978	-0.477860
Zn10	Zn	1.884206	-0.165978	-0.227860
Zn11	Zn	2.134206	0.084022	0.022140
Zn12	Zn	2.384206	0.334022	0.272140
Zn13	Zn	1.634196	-0.590617	-0.678485
Zn14	Zn	1.884196	-0.340617	-0.428485
Zn15	Zn	2.134196	-0.090617	-0.178485
Zn16	Zn	2.384196	0.159383	0.071515
O17	O	1.734528	-0.503303	-0.578177
O18	O	1.984528	-0.253303	-0.328177
O19	O	2.234528	-0.003303	-0.078177
O20	O	2.484528	0.246697	0.171823
O21	O	2.002853	-0.439108	-0.651911
O22	O	2.252853	-0.189108	-0.401911
O23	O	2.502853	0.060892	-0.151911
O24	O	2.752853	0.310892	0.098089
O25	O	1.808134	-0.567586	-0.309892
O26	O	2.058134	-0.317586	-0.059892
O27	O	2.308134	-0.067586	0.190108
O28	O	2.558134	0.182414	0.440108
O29	O	1.660889	-0.269734	-0.504505
O30	O	1.910889	-0.019734	-0.254505
O31	O	2.160889	0.230266	-0.004505
O32	O	2.410889	0.480266	0.245495
O33	O	2.002759	-0.567523	-0.504468
O34	O	2.252759	-0.317523	-0.254468
O35	O	2.502759	-0.067523	-0.004468
O36	O	2.752759	0.182477	0.245532
O37	O	1.808353	-0.269686	-0.651932
O38	O	2.058353	-0.019686	-0.401932
O39	O	2.308353	0.230314	-0.151932
O40	O	2.558353	0.480314	0.098068
O41	O	1.660765	-0.439218	-0.309908
O42	O	1.910765	-0.189218	-0.059908
O43	O	2.160765	0.060782	0.190092
O44	O	2.410765	0.310782	0.440092
O45	O	1.466255	-0.439137	-0.504466
O46	O	1.716255	-0.189137	-0.254466
O47	O	1.966255	0.060863	-0.004466
O48	O	2.216255	0.310863	0.245534
O49	O	1.660872	-0.567380	-0.846440
O50	O	1.910872	-0.317380	-0.596440
O51	O	2.160872	-0.067380	-0.346440
O52	O	2.410872	0.182620	-0.096440
O53	O	1.466248	-0.567443	-0.651864
O54	O	1.716248	-0.317443	-0.401864
O55	O	1.966248	-0.067443	-0.151864
O56	O	2.216248	0.182557	0.098136
O57	O	1.808343	-0.439026	-0.846469
O58	O	2.058343	-0.189026	-0.596469
O59	O	2.308343	0.060974	-0.346469
O60	O	2.558343	0.310974	-0.096469
O61	O	1.808124	-0.736926	-0.504429
O62	O	2.058124	-0.486926	-0.254429
O63	O	2.308124	-0.236926	-0.004429
O64	O	2.558124	0.013074	0.245571
O65	O	1.660747	-0.736864	-0.651842
O66	O	1.910747	-0.486864	-0.401842
O67	O	2.160747	-0.236864	-0.151842
O68	O	2.410747	0.013136	0.098158
C69	C	1.422704	-0.503288	-0.578163
C70	C	1.672704	-0.253288	-0.328163
C71	C	1.922704	-0.003288	-0.078163
C72	C	2.172704	0.246712	0.171837
C73	C	1.289304	-0.503308	-0.578186
C74	C	1.539304	-0.253308	-0.328186
C75	C	1.789304	-0.003308	-0.078186
C76	C	2.039304	0.246692	0.171814
C77	C	1.734453	-0.774812	-0.578155
C78	C	1.984453	-0.524812	-0.328155
C79	C	2.234453	-0.274812	-0.078155
C80	C	2.484453	-0.024812	0.171845
C81	C	1.734531	-0.890966	-0.578186
C82	C	1.984531	-0.640966	-0.328186
C83	C	2.234531	-0.390966	-0.078186
C84	C	2.484531	-0.140966	0.171814
C85	C	1.807468	-0.942643	-0.651203
C86	C	2.057468	-0.692643	-0.401203
C87	C	2.307468	-0.442643	-0.151203
C88	C	2.557468	-0.192643	0.098797
C89	C	1.807550	-1.062694	-0.651236
C90	C	2.057550	-0.812694	-0.401236
C91	C	2.307550	-0.562694	-0.151236
C92	C	2.557550	-0.312694	0.098764
C93	C	2.047571	-0.503317	-0.578192
C94	C	2.297571	-0.253317	-0.328192
C95	C	2.547571	-0.003317	-0.078192
C96	C	2.797571	0.246683	0.171808
C97	C	2.180971	-0.503324	-0.578198
C98	C	2.430971	-0.253324	-0.328198
C99	C	2.680971	-0.003324	-0.078198
C100	C	2.930971	0.246676	0.171802
C101	C	1.734621	-0.503186	-0.891220
C102	C	1.984621	-0.253186	-0.641220
C103	C	2.234621	-0.003186	-0.391220
C104	C	2.484621	0.246814	-0.141220
C105	C	1.734660	-0.503137	-1.024620
C106	C	1.984660	-0.253137	-0.774620
C107	C	2.234660	-0.003137	-0.524620
C108	C	2.484660	0.246863	-0.274620
C109	C	1.734637	-0.230732	-0.578226
C110	C	1.984637	0.019268	-0.328226
C111	C	2.234637	0.269268	-0.078226
C112	C	2.484637	0.519268	0.171774
C113	C	1.734683	-0.114579	-0.578246
C114	C	1.984683	0.135421	-0.328246
C115	C	2.234683	0.385421	-0.078246
C116	C	2.484683	0.635421	0.171754
C117	C	1.734506	-0.503343	-0.266352
C118	C	1.984506	-0.253343	-0.016352
C119	C	2.234506	-0.003343	0.233648
C120	C	2.484506	0.246657	0.483648
C121	C	1.734699	-0.503098	-0.132953
C122	C	1.984699	-0.253098	0.117047
C123	C	2.234699	-0.003098	0.367047
C124	C	2.484699	0.246902	0.617047
H125	H	1.869848	-0.898012	-0.713697
H126	H	2.119848	-0.648012	-0.463697
H127	H	2.369848	-0.398012	-0.213697
H128	H	2.619848	-0.148012	0.036303
H129	H	1.672239	-1.070145	-0.515725
H130	H	1.922239	-0.820145	-0.265725
H131	H	2.172239	-0.570145	-0.015725
H132	H	2.422239	-0.320145	0.234275
H133	H	1.672142	-0.935599	-0.515703
H134	H	1.922142	-0.685599	-0.265703
H135	H	2.172142	-0.435599	-0.015703
H136	H	2.422142	-0.185599	0.234297
O137	O	1.881876	-1.115753	-0.725946
O138	O	2.131876	-0.865753	-0.475946
O139	O	2.381876	-0.615753	-0.225946
O140	O	2.631876	-0.365753	0.024054
C141	C	1.813480	-1.178907	-0.803331
C142	C	2.063480	-0.928907	-0.553331
C143	C	2.313480	-0.678907	-0.303331
C144	C	2.563480	-0.428907	-0.053331
H145	H	1.718962	-1.146015	-0.810686
H146	H	1.968962	-0.896015	-0.560686
H147	H	2.218962	-0.646015	-0.310686
H148	H	2.468962	-0.396015	-0.060686
H149	H	1.856836	-1.180157	-0.895732
H150	H	2.106836	-0.930157	-0.645732
H151	H	2.356836	-0.680157	-0.395732
H152	H	2.606836	-0.430157	-0.145732
H153	H	1.809334	-1.261615	-0.766152
H154	H	2.059334	-1.011615	-0.516152
H155	H	2.309334	-0.761615	-0.266152
H156	H	2.559334	-0.511615	-0.016152
