data_functionalizedCrystal
_audit_creation_method	'MofGen! by Chris Wilmer'
_symmetry_space_group_name_H-M	'P1'
_symmetry_Int_Tables_number	1
_symmetry_cell_setting	triclinic
loop_
_symmetry_equiv_pos_as_xyz
  x,y,z
_cell_length_a	14.908520
_cell_length_b	17.077404
_cell_length_c	17.077396
_cell_angle_alpha	90.019501
_cell_angle_beta	86.731679
_cell_angle_gamma	93.320938
loop_
_atom_site_label
_atom_site_type_symbol
_atom_site_fract_x
_atom_site_fract_y
_atom_site_fract_z
Zn1	Zn	-0.359154	1.182024	0.461868
Zn2	Zn	0.140846	1.682024	0.961868
Zn3	Zn	-0.510026	1.174357	0.338173
Zn4	Zn	-0.010026	1.674357	0.838173
Zn5	Zn	-0.359186	1.050754	0.330617
Zn6	Zn	0.140814	1.550754	0.830617
Zn7	Zn	-0.509972	1.043152	0.469394
Zn8	Zn	-0.009972	1.543152	0.969394
O9	O	-0.434584	1.112572	0.400013
O10	O	0.065416	1.612572	0.900013
O11	O	-0.379177	1.290853	0.445472
O12	O	0.120823	1.790853	0.945472
O13	O	-0.490052	1.157933	0.227326
O14	O	0.009948	1.657933	0.727326
O15	O	-0.232937	1.074557	0.341715
O16	O	0.267063	1.574557	0.841715
O17	O	-0.490021	1.285220	0.354594
O18	O	0.009979	1.785220	0.854594
O19	O	-0.232913	1.171001	0.438145
O20	O	0.267087	1.671001	0.938145
O21	O	-0.379231	1.067123	0.221774
O22	O	0.120769	1.567123	0.721774
O23	O	-0.379179	0.939899	0.349014
O24	O	0.120821	1.439899	0.849014
O25	O	-0.489930	1.061601	0.578241
O26	O	0.010070	1.561601	1.078241
O27	O	-0.489961	0.934314	0.450973
O28	O	0.010039	1.434314	0.950973
O29	O	-0.379125	1.163629	0.572711
O30	O	0.120875	1.663629	1.072711
O31	O	-0.636263	1.150562	0.361892
O32	O	-0.136263	1.650562	0.861892
O33	O	-0.636224	1.054166	0.458300
O34	O	-0.136224	1.554166	0.958300
C35	C	-0.434568	0.908625	0.399990
C36	C	0.065432	1.408625	0.899990
C37	C	-0.434583	0.821374	0.400001
C38	C	0.065417	1.321374	0.900001
C39	C	-0.492354	0.777492	0.453014
C40	C	0.007646	1.277492	0.953014
C41	C	-0.492356	0.695511	0.453027
C42	C	0.007644	1.195511	0.953027
C43	C	-0.434591	0.657414	0.400022
C44	C	0.065409	1.157414	0.900022
C45	C	-0.376813	0.701302	0.347005
C46	C	0.123187	1.201302	0.847005
C47	C	-0.376807	0.783282	0.346997
C48	C	0.123193	1.283282	0.846997
C49	C	-0.376831	0.530432	0.347025
C50	C	0.123169	1.030432	0.847025
C51	C	-0.376837	0.448447	0.347032
C52	C	0.123163	0.948447	0.847032
C53	C	-0.492380	0.442661	0.453055
C54	C	0.007620	0.942661	0.953055
C55	C	-0.492374	0.524640	0.453047
C56	C	0.007626	1.024640	0.953047
C57	C	-0.434597	0.568523	0.400029
C58	C	0.065403	1.068523	0.900029
C59	C	-0.668978	1.100728	0.411750
C60	C	-0.168978	1.600728	0.911750
C61	C	-0.769252	1.095734	0.416797
C62	C	-0.269252	1.595734	0.916797
C63	C	-0.957658	1.186828	0.325973
C64	C	-0.457658	1.686828	0.825973
C65	C	-1.051875	1.182137	0.330713
C66	C	-0.551875	1.682137	0.830713
C67	C	-1.051904	1.081667	0.431020
C68	C	-0.551904	1.581667	0.931020
C69	C	-0.957687	1.086357	0.426280
C70	C	-0.457687	1.586357	0.926280
C71	C	-0.910568	1.138939	0.373754
C72	C	-0.410568	1.638939	0.873754
C73	C	-0.816349	1.143625	0.369011
C74	C	-0.316349	1.643625	0.869011
C75	C	-0.816380	1.043159	0.469321
C76	C	-0.316380	1.543159	0.969321
C77	C	-0.910597	1.038468	0.474061
C78	C	-0.410597	1.538468	0.974061
C79	C	-0.199276	1.124482	0.388248
C80	C	0.300724	1.624482	0.888248
C81	C	-0.099001	1.129558	0.383234
C82	C	0.400999	1.629558	0.883234
C83	C	-0.434518	1.112622	0.604754
C84	C	0.065482	1.612622	1.104754
C85	C	-0.434490	1.112644	0.692002
C86	C	0.065510	1.612644	1.192002
C87	C	-0.434601	1.317315	0.400036
C88	C	0.065399	1.817315	0.900036
C89	C	-0.434609	1.404564	0.400046
C90	C	0.065391	1.904564	0.900046
C91	C	-0.434585	1.112569	0.196065
C92	C	0.065415	1.612569	0.696065
C93	C	-0.434360	1.112713	0.108804
C94	C	0.065640	1.612713	0.608804
C95	C	-0.376788	1.165772	0.730114
C96	C	0.123212	1.665772	1.230114
C97	C	-0.376758	1.165783	0.812093
C98	C	0.123242	1.665783	1.312093
C99	C	-0.434435	1.112669	0.855959
C100	C	0.065565	1.612669	1.355959
C101	C	-0.492138	1.059535	0.817842
C102	C	0.007862	1.559535	1.317842
C103	C	-0.492163	1.059521	0.735864
C104	C	0.007837	1.559521	1.235864
C105	C	-0.492084	1.059569	0.988709
C106	C	0.007916	1.559569	1.488709
C107	C	-0.492061	1.059584	1.070693
C108	C	0.007939	1.559584	1.570693
C109	C	-0.376679	1.165832	1.064938
C110	C	0.123321	1.665832	1.564938
C111	C	-0.376704	1.165818	0.982961
C112	C	0.123296	1.665818	1.482961
C113	C	-0.434409	1.112684	0.944849
C114	C	0.065591	1.612684	1.444849
H115	H	-0.539396	0.808504	0.496175
H116	H	-0.039396	1.308504	0.996175
H117	H	-1.090285	1.038863	0.473789
H118	H	-0.590285	1.538863	0.973789
H119	H	-0.329789	0.417431	0.303879
H120	H	0.170211	0.917431	0.803879
H121	H	-0.778028	1.004162	0.508225
H122	H	-0.278028	1.504162	1.008225
N123	N	-0.554229	1.002265	1.118003
N124	N	-0.054229	1.502265	1.618003
H125	H	-0.545448	1.010333	1.175718
H126	H	-0.045448	1.510333	1.675718
H127	H	-0.618679	1.011183	1.106913
H128	H	-0.118679	1.511183	1.606913
N129	N	-0.314515	0.660213	0.289830
N130	N	0.185485	1.160213	0.789830
H131	H	-0.277915	0.700455	0.256245
H132	H	0.222085	1.200455	0.756245
H133	H	-0.272814	0.628317	0.319755
H134	H	0.227186	1.128317	0.819755
N135	N	-0.906823	1.243530	0.269322
N136	N	-0.406823	1.743530	0.769322
H137	H	-0.923272	1.230552	0.214052
H138	H	-0.423272	1.730552	0.714052
H139	H	-0.923170	1.298775	0.282452
H140	H	-0.423170	1.798775	0.782452
H141	H	-0.948974	0.995660	0.516828
H142	H	-0.448974	1.495660	1.016828
N143	N	-0.314512	0.577765	0.289847
N144	N	0.185488	1.077765	0.789847
H145	H	-0.277920	0.541192	0.256267
H146	H	0.222080	1.041192	0.756267
H147	H	-0.351180	0.609911	0.255301
H148	H	0.148820	1.109911	0.755301
N149	N	-0.314586	1.223065	0.682805
N150	N	0.185414	1.723065	1.182805
H151	H	-0.278027	1.256722	0.719391
H152	H	0.221973	1.756722	1.219391
H153	H	-0.272843	1.193222	0.646698
H154	H	0.227157	1.693222	1.146698
H155	H	-0.329692	1.209094	1.095973
H156	H	0.170308	1.709094	1.595973
H157	H	-0.329759	0.819010	0.303831
H158	H	0.170241	1.319010	0.803831
N159	N	-0.554317	1.002259	0.947600
N160	N	-0.054317	1.502259	1.447600
H161	H	-0.590854	0.968615	0.987827
H162	H	-0.090854	1.468615	1.487827
H163	H	-0.596079	1.032093	0.915679
H164	H	-0.096079	1.532093	1.415679
H165	H	-0.777985	1.186437	0.326240
H166	H	-0.277985	1.686437	0.826240
H167	H	-0.329744	1.209072	0.947247
H168	H	0.170256	1.709072	1.447247
N169	N	-1.102668	1.233791	0.279181
N170	N	-0.602668	1.733791	0.779181
H171	H	-1.058518	1.267811	0.245189
H172	H	-0.558518	1.767811	0.745189
H173	H	-1.141818	1.199913	0.244791
H174	H	-0.641818	1.699913	0.744791
H175	H	-0.539096	1.016286	0.853564
H176	H	-0.039096	1.516286	1.353564
N177	N	-0.554679	0.648180	0.510195
N178	N	-0.054679	1.148180	1.010195
H179	H	-0.591281	0.684753	0.543765
H180	H	-0.091281	1.184753	1.043765
H181	H	-0.596376	0.612051	0.480261
H182	H	-0.096376	1.112051	0.980261
H183	H	-0.539140	1.016251	0.704834
H184	H	-0.039140	1.516251	1.204834
N185	N	-0.314533	1.223085	0.853212
N186	N	0.185467	1.723085	1.353212
H187	H	-0.272713	1.193303	0.885126
H188	H	0.227287	1.693303	1.385126
H189	H	-0.278058	1.256725	0.812946
H190	H	0.221942	1.756725	1.312946
H191	H	-0.539421	0.406928	0.496226
H192	H	-0.039421	0.906928	0.996226
N193	N	-0.554684	0.565733	0.510209
N194	N	-0.054684	1.065733	1.010209
H195	H	-0.591286	0.525496	0.543797
H196	H	-0.091286	1.025496	1.043797
H197	H	-0.518013	0.601617	0.544747
H198	H	-0.018013	1.101617	1.044747
