data_functionalizedCrystal
_audit_creation_method	'MofGen! by Chris Wilmer'
_symmetry_space_group_name_H-M	'P1'
_symmetry_Int_Tables_number	1
_symmetry_cell_setting	triclinic
loop_
_symmetry_equiv_pos_as_xyz
  x,y,z
_cell_length_a	17.638336
_cell_length_b	12.827892
_cell_length_c	12.827885
_cell_angle_alpha	90.029786
_cell_angle_beta	78.781769
_cell_angle_gamma	101.218681
loop_
_atom_site_label
_atom_site_type_symbol
_atom_site_fract_x
_atom_site_fract_y
_atom_site_fract_z
Zn1	Zn	1.208562	0.739548	-0.913435
Zn2	Zn	1.708562	1.239548	-0.413435
Zn3	Zn	1.208482	0.914304	-0.738674
Zn4	Zn	1.708482	1.414304	-0.238674
Zn5	Zn	1.076365	0.704207	-0.703423
Zn6	Zn	1.576365	1.204207	-0.203423
Zn7	Zn	1.076354	0.878852	-0.878107
Zn8	Zn	1.576354	1.378852	-0.378107
O9	O	1.142441	0.809228	-0.808410
O10	O	1.642441	1.309228	-0.308410
O11	O	1.319172	0.792358	-0.919790
O12	O	1.819172	1.292358	-0.419790
O13	O	1.190927	0.886481	-0.587754
O14	O	1.690927	1.386481	-0.087754
O15	O	1.093939	0.562669	-0.731314
O16	O	1.593939	1.062669	-0.231314
O17	O	1.319113	0.920750	-0.791394
O18	O	1.819113	1.420750	-0.291394
O19	O	1.191064	0.588634	-0.885609
O20	O	1.691064	1.088634	-0.385609
O21	O	1.093862	0.732123	-0.561855
O22	O	1.593862	1.232123	-0.061855
O23	O	0.965743	0.697746	-0.697057
O24	O	1.465743	1.197746	-0.197057
O25	O	1.093921	0.860327	-1.029037
O26	O	1.593921	1.360327	-0.529037
O27	O	0.965735	0.826058	-0.825397
O28	O	1.465735	1.326058	-0.325397
O29	O	1.191053	0.757981	-1.054992
O30	O	1.691053	1.257981	-0.554992
O31	O	1.190916	1.055827	-0.757138
O32	O	1.690916	1.555827	-0.257138
O33	O	1.093843	1.029781	-0.859578
O34	O	1.593843	1.529781	-0.359578
C35	C	0.937056	0.754221	-0.753569
C36	C	1.437056	1.254221	-0.253569
C37	C	0.849192	0.730714	-0.730133
C38	C	1.349192	1.230714	-0.230133
C39	C	0.725332	0.630674	-0.630384
C40	C	1.225332	1.130674	-0.130384
C41	C	0.807894	0.652770	-0.652414
C42	C	1.307894	1.152770	-0.152414
C43	C	0.807937	0.786596	-0.785849
C44	C	1.307937	1.286596	-0.285849
C45	C	0.725374	0.764515	-0.763826
C46	C	1.225374	1.264515	-0.263826
C47	C	0.684078	0.686552	-0.686094
C48	C	1.184078	1.186552	-0.186094
C49	C	0.684119	0.820393	-0.819536
C50	C	1.184119	1.320393	-0.319536
C51	C	0.601563	0.798309	-0.797518
C52	C	1.101563	1.298309	-0.297518
C53	C	0.560261	0.720348	-0.719792
C54	C	1.060261	1.220348	-0.219792
C55	C	0.601521	0.664468	-0.664076
C56	C	1.101521	1.164468	-0.164076
C57	C	0.725417	0.898351	-0.897273
C58	C	1.225417	1.398351	-0.397273
C59	C	0.684162	0.954229	-0.952983
C60	C	1.184162	1.454229	-0.452983
C61	C	0.601604	0.932151	-0.930961
C62	C	1.101604	1.432151	-0.430961
C63	C	0.560302	0.854189	-0.853234
C64	C	1.060302	1.354189	-0.353234
C65	C	0.560344	0.988030	-0.986676
C66	C	1.060344	1.488030	-0.486676
C67	C	0.477788	0.965946	-0.964659
C68	C	0.977788	1.465946	-0.464659
C69	C	0.477746	0.832105	-0.831217
C70	C	0.977746	1.332105	-0.331217
C71	C	1.142391	1.080725	-0.808378
C72	C	1.642391	1.580725	-0.308378
C73	C	1.142442	1.196891	-0.808419
C74	C	1.642442	1.696891	-0.308419
C75	C	1.142494	0.809142	-1.080994
C76	C	1.642494	1.309142	-0.580994
C77	C	1.142517	0.809105	-1.197154
C78	C	1.642517	1.309105	-0.697154
C79	C	1.348627	0.864451	-0.863465
C80	C	1.848627	1.364451	-0.363465
C81	C	1.436491	0.887983	-0.886926
C82	C	1.936491	1.387983	-0.386926
C83	C	1.142512	0.536677	-0.808470
C84	C	1.642512	1.036677	-0.308470
C85	C	1.142542	0.420532	-0.808496
C86	C	1.642542	0.920532	-0.308496
C87	C	1.190535	1.261545	-0.757814
C88	C	1.690535	1.761545	-0.257814
C89	C	1.190589	1.381610	-0.757854
C90	C	1.690589	1.881610	-0.257854
C91	C	1.190587	0.758450	-1.261783
C92	C	1.690587	1.258450	-0.761783
C93	C	1.190612	0.758411	-1.381840
C94	C	1.690612	1.258411	-0.881840
C95	C	1.142433	0.809250	-0.536898
C96	C	1.642433	1.309250	-0.036898
C97	C	1.142563	0.809034	-0.420780
C98	C	1.642563	1.309034	0.079220
H99	H	0.567895	0.600983	-0.600779
H100	H	1.067895	1.100983	-0.100779
Br101	Br	0.669279	0.524885	-0.524869
Br102	Br	1.169279	1.024885	-0.024869
H103	H	1.231672	1.228014	-0.714462
H104	H	1.731672	1.728014	-0.214462
H105	H	1.231760	1.437161	-0.714526
H106	H	1.731760	1.937161	-0.214526
H107	H	1.101409	0.852408	-1.365256
H108	H	1.601409	1.352408	-0.865256
Br109	Br	1.073903	1.327953	-0.880703
Br110	Br	1.573903	1.827953	-0.380703
Br111	Br	0.837459	0.928323	-0.927153
Br112	Br	1.337459	1.428323	-0.427153
Br113	Br	1.259130	0.686174	-1.205871
Br114	Br	1.759130	1.186174	-0.705871
H115	H	0.717797	1.017704	-1.016275
H116	H	1.217797	1.517704	-0.516275
Br117	Br	1.259216	0.686135	-1.474391
Br118	Br	1.759216	1.186135	-0.974391
H119	H	0.444197	1.011445	-1.010026
H120	H	0.944197	1.511445	-0.510026
H121	H	0.593980	1.051500	-1.049973
H122	H	1.093980	1.551500	-0.549973
H123	H	1.101377	0.852436	-1.230702
H124	H	1.601377	1.352436	-0.730702
H125	H	0.444120	0.768620	-0.767919
H126	H	0.944120	1.268620	-0.267919
H127	H	0.841572	0.850071	-0.849141
H128	H	1.341572	1.350071	-0.349141
H129	H	0.841480	0.607252	-0.607052
H130	H	1.341480	1.107252	-0.107052
Br131	Br	0.448218	0.690367	-0.689915
Br132	Br	0.948218	1.190367	-0.189915
H133	H	1.101312	1.230427	-0.851779
H134	H	1.601312	1.730427	-0.351779
