data_functionalizedCrystal
_audit_creation_method	'MofGen! by Chris Wilmer'
_symmetry_space_group_name_H-M	'P1'
_symmetry_Int_Tables_number	1
_symmetry_cell_setting	triclinic
loop_
_symmetry_equiv_pos_as_xyz
  x,y,z
_cell_length_a	21.395362
_cell_length_b	16.959454
_cell_length_c	21.395356
_cell_angle_alpha	89.977834
_cell_angle_beta	89.957023
_cell_angle_gamma	90.035955
loop_
_atom_site_label
_atom_site_type_symbol
_atom_site_fract_x
_atom_site_fract_y
_atom_site_fract_z
Zn1	Zn	0.957900	-0.314366	-0.354610
Zn2	Zn	1.457900	0.185634	0.145390
Zn3	Zn	0.957824	-0.446548	-0.249842
Zn4	Zn	1.457824	0.053452	0.250158
Zn5	Zn	0.853117	-0.314424	-0.249811
Zn6	Zn	1.353117	0.185576	0.250189
Zn7	Zn	0.853103	-0.446544	-0.354547
Zn8	Zn	1.353103	0.053456	0.145453
O9	O	0.905486	-0.380471	-0.302202
O10	O	1.405486	0.119529	0.197798
O11	O	1.045568	-0.331878	-0.340751
O12	O	1.545568	0.168122	0.159249
O13	O	0.943907	-0.429048	-0.162160
O14	O	1.443907	0.070952	0.337840
O15	O	0.867054	-0.203806	-0.263726
O16	O	1.367054	0.296194	0.236274
O17	O	1.045512	-0.428992	-0.263779
O18	O	1.545512	0.071008	0.236221
O19	O	0.944038	-0.203763	-0.340721
O20	O	1.444038	0.296237	0.159279
O21	O	0.866980	-0.331977	-0.162137
O22	O	1.366980	0.168023	0.337863
O23	O	0.765437	-0.331973	-0.263665
O24	O	1.265437	0.168027	0.236335
O25	O	0.867031	-0.428984	-0.442233
O26	O	1.367031	0.071016	0.057767
O27	O	0.765427	-0.429040	-0.340614
O28	O	1.265427	0.070960	0.159386
O29	O	0.944025	-0.331874	-0.442279
O30	O	1.444025	0.168126	0.057721
O31	O	0.943895	-0.557159	-0.263718
O32	O	1.443895	-0.057159	0.236282
O33	O	0.866957	-0.557155	-0.340645
O34	O	1.366957	-0.057155	0.159355
C35	C	0.742698	-0.380513	-0.302130
C36	C	1.242698	0.119487	0.197870
C37	C	0.673057	-0.380549	-0.302114
C38	C	1.173057	0.119451	0.197886
C39	C	0.640355	-0.431159	-0.342121
C40	C	1.140355	0.068841	0.157879
C41	C	0.574920	-0.431140	-0.342149
C42	C	1.074920	0.068860	0.157851
C43	C	0.542189	-0.380519	-0.302158
C44	C	1.042189	0.119481	0.197842
C45	C	0.574898	-0.329899	-0.262148
C46	C	1.074898	0.170101	0.237852
C47	C	0.640332	-0.329914	-0.262126
C48	C	1.140332	0.170086	0.237874
C49	C	0.438464	-0.374163	-0.245752
C50	C	0.938464	0.125837	0.254248
C51	C	0.373031	-0.374153	-0.245774
C52	C	0.873031	0.125847	0.254226
C53	C	0.340368	-0.380467	-0.302227
C54	C	0.840368	0.119533	0.197773
C55	C	0.373146	-0.386808	-0.358661
C56	C	0.873146	0.113192	0.141339
C57	C	0.438580	-0.386823	-0.358639
C58	C	0.938580	0.113177	0.141361
C59	C	0.471236	-0.380496	-0.302178
C60	C	0.971236	0.119504	0.197822
C61	C	0.236714	-0.431059	-0.342268
C62	C	0.736714	0.068941	0.157732
C63	C	0.171277	-0.431034	-0.342297
C64	C	0.671277	0.068966	0.157703
C65	C	0.171257	-0.329797	-0.262291
C66	C	0.671257	0.170203	0.237709
C67	C	0.236692	-0.329818	-0.262267
C68	C	0.736692	0.170182	0.237733
C69	C	0.269417	-0.380453	-0.302255
C70	C	0.769417	0.119547	0.197745
C71	C	0.905433	-0.585837	-0.302192
C72	C	1.405433	-0.085837	0.197808
C73	C	0.905468	-0.673694	-0.302208
C74	C	1.405468	-0.173694	0.197792
C75	C	0.865483	-1.045197	-0.342254
C76	C	1.365483	-0.545197	0.157746
C77	C	0.945664	-1.045141	-0.262215
C78	C	1.445664	-0.545141	0.237785
C79	C	0.945642	-0.962595	-0.262209
C80	C	1.445642	-0.462595	0.237791
C81	C	0.905539	-0.921346	-0.302226
C82	C	1.405539	-0.421346	0.197774
C83	C	0.865458	-0.962644	-0.342248
C84	C	1.365458	-0.462644	0.157752
C85	C	0.985717	-0.921292	-0.222184
C86	C	1.485717	-0.421292	0.277816
C87	C	0.985696	-0.838741	-0.222176
C88	C	1.485696	-0.338741	0.277824
C89	C	0.945596	-0.797491	-0.262196
C90	C	1.445596	-0.297491	0.237804
C91	C	0.905515	-0.838793	-0.302220
C92	C	1.405515	-0.338793	0.197780
C93	C	0.865412	-0.797544	-0.342236
C94	C	1.365412	-0.297544	0.157764
C95	C	0.825333	-0.838845	-0.382264
C96	C	1.325333	-0.338845	0.117736
C97	C	0.825358	-0.921394	-0.382268
C98	C	1.325358	-0.421394	0.117732
C99	C	0.945571	-0.714942	-0.262192
C100	C	1.445571	-0.214942	0.237808
C101	C	0.865387	-0.714991	-0.342230
C102	C	1.365387	-0.214991	0.157770
C103	C	1.068909	-0.380429	-0.302276
C104	C	1.568909	0.119571	0.197724
C105	C	1.138550	-0.380412	-0.302307
C106	C	1.638550	0.119588	0.197693
C107	C	0.905535	-0.380422	-0.465626
C108	C	1.405535	0.119578	0.034374
C109	C	0.905556	-0.380401	-0.535267
C110	C	1.405556	0.119599	-0.035267
C111	C	0.905556	-0.174302	-0.302227
C112	C	1.405556	0.325698	0.197773
C113	C	0.905585	-0.086446	-0.302237
C114	C	1.405585	0.413554	0.197763
C115	C	0.865511	-0.329850	-0.567958
C116	C	1.365511	0.170150	-0.067958
C117	C	0.865508	-0.329836	-0.633394
C118	C	1.365508	0.170164	-0.133394
C119	C	0.905563	-0.380363	-0.666135
C120	C	1.405563	0.119637	-0.166135
C121	C	0.945611	-0.430924	-0.633436
C122	C	1.445611	0.069076	-0.133436
C123	C	0.945608	-0.430942	-0.568002
C124	C	1.445608	0.069058	-0.068002
C125	C	0.962016	-0.386558	-0.769841
C126	C	1.462016	0.113442	-0.269841
C127	C	0.962020	-0.386533	-0.835274
C128	C	1.462020	0.113467	-0.335274
C129	C	0.905573	-0.380310	-0.867956
C130	C	1.405573	0.119690	-0.367956
C131	C	0.849120	-0.374094	-0.835197
C132	C	1.349120	0.125906	-0.335197
C133	C	0.849117	-0.374113	-0.769763
C134	C	1.349117	0.125887	-0.269763
C135	C	0.905571	-0.380349	-0.737088
C136	C	1.405571	0.119651	-0.237088
C137	C	0.865522	-0.329741	-0.971600
C138	C	1.365522	0.170259	-0.471600
C139	C	0.865519	-0.329732	-1.037037
C140	C	1.365519	0.170268	-0.537037
C141	C	0.945627	-0.430815	-1.037078
C142	C	1.445627	0.069185	-0.537078
C143	C	0.945625	-0.430829	-0.971643
C144	C	1.445625	0.069171	-0.471643
C145	C	0.905573	-0.380287	-0.938908
C146	C	1.405573	0.119713	-0.438908
C147	C	0.905473	-0.380462	-0.139415
C148	C	1.405473	0.119538	0.360585
C149	C	0.905573	-0.380261	-0.069774
C150	C	1.405573	0.119739	0.430226
H151	H	0.144608	-0.288577	-0.229733
H152	H	0.644608	0.211423	0.270267
C153	C	0.538937	-0.486814	-0.386155
C154	C	1.038937	0.013186	0.113845
H155	H	0.495280	-0.479549	-0.380443
H156	H	0.995280	0.020451	0.119557
H157	H	0.549616	-0.539909	-0.376907
H158	H	1.049616	-0.039909	0.123093
H159	H	0.549711	-0.475320	-0.428269
H160	H	1.049711	0.024680	0.071731
C161	C	0.337226	-0.393751	-0.420764
C162	C	0.837226	0.106249	0.079236
H163	H	0.293561	-0.392825	-0.412698
H164	H	0.793561	0.107175	0.087302
H165	H	0.347938	-0.441907	-0.440731
H166	H	0.847938	0.058093	0.059269
H167	H	0.348010	-0.350794	-0.447172
H168	H	0.848010	0.149206	0.052828
C169	C	0.336981	-0.367177	-0.183700
C170	C	0.836981	0.132823	0.316300
H171	H	0.365804	-0.363404	-0.150076
H172	H	0.865804	0.136596	0.349924
H173	H	0.311420	-0.412461	-0.178135
H174	H	0.811420	0.087539	0.321865
H175	H	0.311486	-0.321349	-0.184590
H176	H	0.811486	0.178651	0.315410
C177	C	0.781270	-0.966825	-0.426286
C178	C	1.281270	-0.466825	0.073714
H179	H	0.787023	-1.021895	-0.420551
H180	H	1.287023	-0.521895	0.079449
H181	H	0.790408	-0.953266	-0.468396
H182	H	1.290408	-0.453266	0.031604
H183	H	0.739172	-0.953352	-0.417055
H184	H	1.239172	-0.453352	0.082945
H185	H	0.832853	-1.078828	-0.374845
H186	H	1.332853	-0.578828	0.125155
H187	H	0.978310	-1.078731	-0.229632
H188	H	1.478310	-0.578731	0.270368
H189	H	0.832904	-0.288570	-1.063653
H190	H	1.332904	0.211430	-0.563653
H191	H	0.666958	-0.288699	-0.229547
H192	H	1.166958	0.211301	0.270453
C193	C	0.821453	-0.274167	-0.935589
C194	C	1.321453	0.225833	-0.435589
H195	H	0.797593	-0.244070	-0.964433
H196	H	1.297593	0.255930	-0.464433
H197	H	0.845422	-0.239723	-0.910081
H198	H	1.345422	0.260277	-0.410081
H199	H	0.794145	-0.304433	-0.910044
H200	H	1.294145	0.195567	-0.410044
H201	H	0.465053	-0.369017	-0.199778
H202	H	0.965053	0.130983	0.300222
C203	C	0.821274	-0.669623	-0.386250
C204	C	1.321274	-0.169623	0.113750
H205	H	0.797408	-0.706045	-0.410085
H206	H	1.297408	-0.206045	0.089915
H207	H	0.845218	-0.637371	-0.413575
H208	H	1.345218	-0.137371	0.086425
H209	H	0.793973	-0.637474	-0.362243
H210	H	1.293973	-0.137474	0.137757
H211	H	1.018362	-0.954882	-0.189600
H212	H	1.518362	-0.454882	0.310400
H213	H	0.978242	-0.471954	-1.063736
H214	H	1.478242	0.028046	-0.563736
C215	C	0.787023	-0.367289	-0.733730
C216	C	1.287023	0.132711	-0.233730
H217	H	0.753403	-0.363586	-0.762561
H218	H	1.253403	0.136414	-0.262561
H219	H	0.787848	-0.321481	-0.708207
H220	H	1.287848	0.178519	-0.208207
H221	H	0.781505	-0.412607	-0.708198
H222	H	1.281505	0.087393	-0.208198
C223	C	0.781223	-0.793470	-0.426282
C224	C	1.281223	-0.293470	0.073718
H225	H	0.757354	-0.829885	-0.450120
H226	H	1.257354	-0.329885	0.049880
H227	H	0.805170	-0.761217	-0.453604
H228	H	1.305170	-0.261217	0.046396
H229	H	0.753923	-0.761320	-0.402272
H230	H	1.253923	-0.261320	0.097728
C231	C	1.029771	-0.793313	-0.178140
C232	C	1.529771	-0.293313	0.321860
H233	H	1.024009	-0.738242	-0.183861
H234	H	1.524009	-0.238242	0.316139
H235	H	1.071871	-0.806778	-0.187351
H236	H	1.571871	-0.306778	0.312649
H237	H	1.020610	-0.806885	-0.136034
H238	H	1.520610	-0.306885	0.363966
H239	H	0.978200	-0.681319	-0.229599
H240	H	1.478200	-0.181319	0.270401
H241	H	0.832895	-0.288698	-0.541310
H242	H	1.332895	0.211302	-0.041310
C243	C	0.676349	-0.486847	-0.386113
C244	C	1.176349	0.013153	0.113887
H245	H	0.647497	-0.516980	-0.409948
H246	H	1.147497	-0.016980	0.090052
H247	H	0.701829	-0.521253	-0.362094
H248	H	1.201829	-0.021253	0.137906
H249	H	0.701920	-0.456654	-0.413448
H250	H	1.201920	0.043346	0.086552
C251	C	0.821462	-0.274224	-0.669365
C252	C	1.321462	0.225776	-0.169365
H253	H	0.827200	-0.281455	-0.713023
H254	H	1.327200	0.218545	-0.213023
H255	H	0.830655	-0.221118	-0.658653
H256	H	1.330655	0.278882	-0.158653
H257	H	0.779355	-0.285802	-0.658614
H258	H	1.279355	0.214198	-0.158614
C259	C	0.787023	-0.367271	-0.871138
C260	C	1.287023	0.132729	-0.371138
H261	H	0.795107	-0.368165	-0.914800
H262	H	1.295107	0.131835	-0.414800
H263	H	0.766993	-0.319164	-0.860415
H264	H	1.266993	0.180836	-0.360415
H265	H	0.760664	-0.410291	-0.860381
H266	H	1.260664	0.089709	-0.360381
H267	H	1.007986	-0.391619	-0.743237
H268	H	1.507986	0.108381	-0.243237
H269	H	0.548244	-0.288682	-0.229588
H270	H	1.048244	0.211318	0.270412
C271	C	0.989684	-0.486425	-0.935680
C272	C	1.489684	0.013575	-0.435680
H273	H	1.013543	-0.516511	-0.964550
H274	H	1.513543	-0.016511	-0.464550
H275	H	0.965706	-0.520879	-0.910131
H276	H	1.465706	-0.020879	-0.410131
H277	H	1.016994	-0.456181	-0.910180
H278	H	1.516994	0.043819	-0.410180
C279	C	1.024113	-0.393372	-0.871306
C280	C	1.524113	0.106628	-0.371306
H281	H	1.016033	-0.392460	-0.914957
H282	H	1.516033	0.107540	-0.414957
H283	H	1.044127	-0.441492	-0.860591
H284	H	1.544127	0.058508	-0.360591
H285	H	1.050486	-0.350368	-0.860606
H286	H	1.550486	0.149632	-0.360606
H287	H	0.978224	-0.472064	-0.660099
H288	H	1.478224	0.027936	-0.160099
C289	C	0.474637	-0.393794	-0.420709
C290	C	0.974637	0.106206	0.079291
H291	H	0.518284	-0.392905	-0.412607
H292	H	1.018284	0.107095	0.087393
H293	H	0.463972	-0.350839	-0.447129
H294	H	0.963972	0.149161	0.052871
H295	H	0.463905	-0.441952	-0.440680
H296	H	0.963905	0.058048	0.059320
C297	C	0.272713	-0.486745	-0.386259
C298	C	0.772713	0.013255	0.113741
H299	H	0.243863	-0.516876	-0.410098
H300	H	0.743863	-0.016876	0.089902
H301	H	0.298190	-0.521154	-0.362238
H302	H	0.798190	-0.021154	0.137762
H303	H	0.298289	-0.456554	-0.413591
H304	H	0.798289	0.043446	0.086409
C305	C	0.135305	-0.486719	-0.386299
C306	C	0.635305	0.013281	0.113701
H307	H	0.164169	-0.516884	-0.410102
H308	H	0.664169	-0.016884	0.089898
H309	H	0.109825	-0.456536	-0.413654
H310	H	0.609825	0.043464	0.086346
H311	H	0.109735	-0.521108	-0.362279
H312	H	0.609735	-0.021108	0.137721
C313	C	0.272669	-0.274154	-0.218256
C314	C	0.772669	0.225846	0.281744
H315	H	0.316326	-0.281408	-0.223973
H316	H	0.816326	0.218592	0.276027
H317	H	0.261892	-0.285647	-0.176146
H318	H	0.761892	0.214353	0.323854
H319	H	0.261989	-0.221055	-0.227506
H320	H	0.761989	0.278945	0.272494
C321	C	0.989664	-0.486546	-0.532040
C322	C	1.489664	0.013454	-0.032040
H323	H	1.013522	-0.516635	-0.560909
H324	H	1.513522	-0.016635	-0.060909
H325	H	0.965685	-0.520996	-0.506490
H326	H	1.465685	-0.020996	-0.006490
H327	H	1.016976	-0.456302	-0.506541
H328	H	1.516976	0.043698	-0.006541
