data_functionalizedCrystal
_audit_creation_method	'MofGen! by Chris Wilmer'
_symmetry_space_group_name_H-M	'P1'
_symmetry_Int_Tables_number	1
_symmetry_cell_setting	triclinic
loop_
_symmetry_equiv_pos_as_xyz
  x,y,z
_cell_length_a	27.731994
_cell_length_b	27.732048
_cell_length_c	26.210047
_cell_angle_alpha	90.011237
_cell_angle_beta	90.018354
_cell_angle_gamma	82.631595
loop_
_atom_site_label
_atom_site_type_symbol
_atom_site_fract_x
_atom_site_fract_y
_atom_site_fract_z
O1	O	0.640958	0.057392	0.042362
O2	O	0.974292	0.390725	0.375695
O3	O	1.307625	0.724058	0.709028
O4	O	0.500161	0.066164	0.042379
O5	O	0.833494	0.399498	0.375713
O6	O	1.166828	0.732831	0.709046
O7	O	0.574933	-0.008620	0.042360
O8	O	0.908266	0.324714	0.375694
O9	O	1.241599	0.658047	0.709027
O10	O	0.566187	0.132176	0.042381
O11	O	0.899520	0.465509	0.375714
O12	O	1.232854	0.798842	0.709047
O13	O	0.574898	-0.008620	-0.042498
O14	O	0.908231	0.324713	0.290836
O15	O	1.241565	0.658046	0.624169
O16	O	0.500127	0.066164	-0.042479
O17	O	0.833460	0.399497	0.290855
O18	O	1.166793	0.732830	0.624188
O19	O	0.640924	0.057391	-0.042496
O20	O	0.974257	0.390724	0.290837
O21	O	1.307591	0.724057	0.624170
Cu22	Cu	0.570522	0.061777	-0.050236
Cu23	Cu	0.903855	0.395110	0.283098
Cu24	Cu	1.237189	0.728444	0.616431
Cu25	Cu	0.570563	0.061778	0.050119
Cu26	Cu	0.903896	0.395111	0.383452
Cu27	Cu	1.237230	0.728445	0.716785
O28	O	0.566152	0.132175	-0.042477
O29	O	0.899486	0.465508	0.290856
O30	O	1.232819	0.798841	0.624189
C31	C	0.482137	0.065984	-0.000047
C32	C	0.815470	0.399317	0.333286
C33	C	1.148803	0.732651	0.666619
C34	C	0.428480	0.065442	-0.000041
C35	C	0.761814	0.398775	0.333292
C36	C	1.095147	0.732108	0.666626
C37	C	0.095743	0.062025	-0.046317
C38	C	0.429076	0.395359	0.287016
C39	C	0.762410	0.728692	0.620349
C40	C	-0.105915	0.059964	-0.046324
C41	C	0.227418	0.393297	0.287010
C42	C	0.560751	0.726630	0.620343
O43	O	-0.132004	0.059676	-0.085663
O44	O	0.201330	0.393009	0.247671
O45	O	0.534663	0.726343	0.581004
N46	N	-0.131111	0.059708	-0.000067
N47	N	0.202222	0.393042	0.333266
N48	N	0.535555	0.726375	0.666599
C49	C	-0.105889	0.059965	0.046193
C50	C	0.227444	0.393298	0.379527
C51	C	0.560777	0.726631	0.712860
O52	O	-0.131946	0.059695	0.085537
O53	O	0.201387	0.393028	0.418870
O54	O	0.534720	0.726362	0.752204
C55	C	0.095769	0.062023	0.046199
C56	C	0.429102	0.395356	0.379532
C57	C	0.762435	0.728690	0.712866
C58	C	0.120961	0.062283	-0.000060
C59	C	0.454295	0.395617	0.333273
C60	C	0.787628	0.728950	0.666607
C61	C	0.120936	0.062285	-0.092573
C62	C	0.454269	0.395619	0.240761
C63	C	0.787602	0.728952	0.574094
C64	C	0.171347	0.062803	-0.092571
C65	C	0.504680	0.396137	0.240763
C66	C	0.838014	0.729470	0.574096
C67	C	0.196565	0.063061	-0.046313
C68	C	0.529899	0.396395	0.287020
C69	C	0.863232	0.729728	0.620353
C70	C	0.171372	0.062801	-0.000058
C71	C	0.504706	0.396135	0.333275
C72	C	0.838039	0.729468	0.666609
C73	C	0.120990	0.062276	0.092459
C74	C	0.454323	0.395609	0.425793
C75	C	0.787657	0.728943	0.759126
C76	C	0.171408	0.062789	0.092457
C77	C	0.504741	0.396123	0.425790
C78	C	0.838075	0.729456	0.759123
C79	C	0.196601	0.063050	0.046197
C80	C	0.529934	0.396383	0.379531
C81	C	0.863267	0.729717	0.712864
C82	C	0.247002	0.063578	0.046201
C83	C	0.580335	0.396911	0.379534
C84	C	0.913669	0.730244	0.712868
N85	N	0.272198	0.063833	-0.000055
N86	N	0.605531	0.397167	0.333278
N87	N	0.938865	0.730500	0.666612
C88	C	0.246980	0.063575	-0.046312
C89	C	0.580313	0.396908	0.287021
C90	C	0.913646	0.730242	0.620354
C91	C	-0.211763	0.058885	0.046187
C92	C	0.121571	0.392219	0.379521
C93	C	0.454904	0.725552	0.712854
C94	C	-0.262177	0.058372	0.046186
C95	C	0.071156	0.391705	0.379519
C96	C	0.404490	0.725038	0.712853
C97	C	-0.262199	0.058370	-0.046331
C98	C	0.071134	0.391703	0.287002
C99	C	0.404467	0.725036	0.620335
C100	C	-0.211784	0.058887	-0.046329
C101	C	0.121549	0.392220	0.287004
C102	C	0.454882	0.725553	0.620337
C103	C	-0.186567	0.059141	-0.000069
C104	C	0.146767	0.392474	0.333264
C105	C	0.480100	0.725807	0.666598
C106	C	0.352847	0.064663	-0.046305
C107	C	0.686180	0.397997	0.287029
C108	C	1.019513	0.731330	0.620362
C109	C	0.403262	0.065184	-0.046298
C110	C	0.736595	0.398517	0.287035
C111	C	1.069929	0.731850	0.620368
C112	C	0.403280	0.065183	0.046218
C113	C	0.736614	0.398516	0.379552
C114	C	1.069947	0.731850	0.712885
C115	C	0.352869	0.064665	0.046213
C116	C	0.686202	0.397999	0.379546
C117	C	1.019536	0.731332	0.712879
C118	C	0.327654	0.064404	-0.000053
C119	C	0.660987	0.397737	0.333280
C120	C	0.994320	0.731071	0.666614
O121	O	0.273122	0.063860	0.085520
O122	O	0.606456	0.397194	0.418853
O123	O	0.939789	0.730527	0.752186
O124	O	0.273047	0.063834	-0.085650
O125	O	0.606380	0.397167	0.247684
O126	O	0.939714	0.730501	0.581017
C127	C	0.045332	0.061507	-0.046319
C128	C	0.378665	0.394841	0.287014
C129	C	0.711998	0.728174	0.620347
C130	C	0.020139	0.061247	-0.000064
C131	C	0.353472	0.394581	0.333269
C132	C	0.686806	0.727914	0.666603
C133	C	0.045357	0.061505	0.046193
C134	C	0.378691	0.394839	0.379527
C135	C	0.712024	0.728172	0.712860
C136	C	-0.030275	0.060734	-0.000065
C137	C	0.303058	0.394067	0.333268
C138	C	0.636391	0.727400	0.666601
C139	C	-0.055494	0.060476	-0.046323
C140	C	0.277840	0.393809	0.287011
C141	C	0.611173	0.727142	0.620344
C142	C	-0.030298	0.060731	-0.092579
C143	C	0.303036	0.394065	0.240755
C144	C	0.636369	0.727398	0.574088
C145	C	0.020114	0.061249	-0.092577
C146	C	0.353447	0.394583	0.240757
C147	C	0.686780	0.727916	0.574090
C148	C	0.020161	0.061250	0.092449
C149	C	0.353495	0.394583	0.425783
C150	C	0.686828	0.727917	0.759116
C151	C	-0.030250	0.060732	0.092443
C152	C	0.303083	0.394066	0.425777
C153	C	0.636417	0.727399	0.759110
C154	C	-0.055468	0.060474	0.046186
C155	C	0.277865	0.393808	0.379519
C156	C	0.611198	0.727141	0.712853
C157	C	0.574732	-0.026627	-0.000070
C158	C	0.908065	0.306706	0.333263
C159	C	1.241398	0.640040	0.666597
C160	C	0.574179	-0.080282	-0.000074
C161	C	0.907512	0.253052	0.333259
C162	C	1.240846	0.586385	0.666592
C163	C	0.614884	-0.419105	-0.000053
C164	C	0.948217	-0.085771	0.333280
C165	C	1.281551	0.247562	0.666613
C166	C	0.612833	-0.620764	-0.000046
C167	C	0.946166	-0.287431	0.333288
C168	C	1.279499	0.045903	0.666621
O169	O	0.650055	-0.652027	-0.000028
O170	O	0.983388	-0.318693	0.333305
O171	O	1.316721	0.014640	0.666638
N172	N	0.568496	-0.639879	-0.000041
N173	N	0.901830	-0.306546	0.333293
N174	N	1.235163	0.026788	0.666626
C175	C	0.524670	-0.608576	-0.000034
C176	C	0.858003	-0.275242	0.333299
C177	C	1.191336	0.058091	0.666633
O178	O	0.486912	-0.629462	-0.000024
O179	O	0.820245	-0.296128	0.333309
O180	O	1.153578	0.037205	0.666642
C181	C	0.526721	-0.406918	-0.000038
C182	C	0.860055	-0.073584	0.333296
C183	C	1.193388	0.259749	0.666629
C184	C	0.571060	-0.387805	-0.000048
C185	C	0.904394	-0.054472	0.333285
C186	C	1.237727	0.278861	0.666619
C187	C	0.659220	-0.399992	-0.000063
C188	C	0.992553	-0.066659	0.333270
C189	C	1.325886	0.266675	0.666604
C190	C	0.659732	-0.349580	-0.000068
C191	C	0.993065	-0.016247	0.333266
C192	C	1.326398	0.317086	0.666599
C193	C	0.615908	-0.318281	-0.000062
C194	C	0.949242	0.015052	0.333271
C195	C	1.282575	0.348386	0.666604
C196	C	0.571573	-0.337394	-0.000053
C197	C	0.904906	-0.004060	0.333281
C198	C	1.238239	0.329273	0.666614
C199	C	0.482895	-0.375615	-0.000028
C200	C	0.816228	-0.042282	0.333306
C201	C	1.149562	0.291051	0.666639
C202	C	0.483412	-0.325198	-0.000027
C203	C	0.816745	0.008135	0.333306
C204	C	1.150078	0.341468	0.666639
C205	C	0.527751	-0.306086	-0.000037
C206	C	0.861084	0.027247	0.333296
C207	C	1.194418	0.360581	0.666629
C208	C	0.528262	-0.255683	-0.000052
C209	C	0.861595	0.077651	0.333281
C210	C	1.194928	0.410984	0.666614
N211	N	0.572598	-0.236567	-0.000057
N212	N	0.905931	0.096766	0.333276
N213	N	1.239265	0.430099	0.666609
C214	C	0.616421	-0.267867	-0.000062
C215	C	0.949755	0.065467	0.333271
C216	C	1.283088	0.398800	0.666604
C217	C	0.523596	-0.714450	-0.000033
C218	C	0.856929	-0.381116	0.333300
C219	C	1.190262	-0.047783	0.666634
C220	C	0.523083	-0.764864	-0.000033
C221	C	0.856416	-0.431531	0.333300
C222	C	1.189749	-0.098197	0.666634
C223	C	0.611246	-0.777049	-0.000044
C224	C	0.944579	-0.443715	0.333289
C225	C	1.277913	-0.110382	0.666623
C226	C	0.611759	-0.726633	-0.000048
C227	C	0.945092	-0.393300	0.333286
C228	C	1.278425	-0.059967	0.666619
C229	C	0.567932	-0.695335	-0.000038
C230	C	0.901265	-0.362001	0.333295
C231	C	1.234599	-0.028668	0.666628
C232	C	0.617494	-0.161998	-0.000073
C233	C	0.950827	0.171336	0.333261
C234	C	1.284161	0.504669	0.666594
C235	C	0.618002	-0.111581	-0.000079
C236	C	0.951336	0.221752	0.333254
C237	C	1.284669	0.555086	0.666587
C238	C	0.529839	-0.099401	-0.000066
C239	C	0.863173	0.233933	0.333267
C240	C	1.196506	0.567266	0.666601
C241	C	0.529331	-0.149813	-0.000062
C242	C	0.862664	0.183520	0.333271
C243	C	1.195997	0.516854	0.666605
C244	C	0.573162	-0.181111	-0.000063
C245	C	0.906495	0.152222	0.333270
C246	C	1.239829	0.485556	0.666603
O247	O	0.491060	-0.224391	-0.000064
O248	O	0.824393	0.108942	0.333269
O249	O	1.157727	0.442275	0.666603
O250	O	0.654174	-0.246971	-0.000061
O251	O	0.987507	0.086362	0.333272
O252	O	1.320841	0.419695	0.666606
C253	C	0.614372	-0.469517	-0.000049
C254	C	0.947705	-0.136183	0.333285
C255	C	1.281038	0.197150	0.666618
C256	C	0.570036	-0.488629	-0.000039
C257	C	0.903369	-0.155296	0.333294
C258	C	1.236703	0.178037	0.666628
C259	C	0.526213	-0.457330	-0.000034
C260	C	0.859546	-0.123997	0.333300
C261	C	1.192879	0.209337	0.666633
C262	C	0.569523	-0.539043	-0.000039
C263	C	0.902856	-0.205710	0.333294
C264	C	1.236190	0.127623	0.666628
C265	C	0.613346	-0.570343	-0.000044
C266	C	0.946680	-0.237009	0.333289
C267	C	1.280013	0.096324	0.666623
C268	C	0.657683	-0.551228	-0.000049
C269	C	0.991016	-0.217894	0.333284
C270	C	1.324349	0.115439	0.666618
C271	C	0.658195	-0.500816	-0.000054
C272	C	0.991528	-0.167482	0.333280
C273	C	1.324862	0.165851	0.666613
C274	C	0.481876	-0.476445	-0.000029
C275	C	0.815209	-0.143112	0.333305
C276	C	1.148543	0.190222	0.666638
C277	C	0.481367	-0.526857	-0.000025
C278	C	0.814701	-0.193524	0.333309
C279	C	1.148034	0.139809	0.666642
C280	C	0.525191	-0.558157	-0.000030
C281	C	0.858524	-0.224823	0.333304
C282	C	1.191857	0.108510	0.666637
C283	C	0.658949	0.057571	-0.000068
C284	C	0.992282	0.390904	0.333265
C285	C	1.325615	0.724238	0.666598
C286	C	0.712605	0.058114	-0.000071
C287	C	1.045938	0.391447	0.333262
C288	C	1.379272	0.724780	0.666595
C289	C	0.566353	0.150182	-0.000046
C290	C	0.899687	0.483515	0.333288
C291	C	1.233020	0.816849	0.666621
C292	C	0.566906	0.203837	-0.000038
C293	C	0.900239	0.537170	0.333295
C294	C	1.233573	0.870503	0.666628
N295	N	0.570497	0.061776	-0.120820
N296	N	0.903830	0.395109	0.212514
N297	N	1.237164	0.728443	0.545847
C298	C	0.537423	0.094877	-0.526779
C299	C	0.870756	0.428210	-0.193445
C300	C	1.204089	0.761543	0.139888
C301	C	0.537399	0.094877	-0.313120
C302	C	0.870733	0.428210	0.020213
C303	C	1.204066	0.761544	0.353547
O304	O	0.509221	0.123016	-0.285494
O305	O	0.842554	0.456349	0.047839
O306	O	1.175887	0.789683	0.381173
N307	N	0.570512	0.061774	-0.286403
N308	N	0.903846	0.395108	0.046930
N309	N	1.237179	0.728441	0.380263
C310	C	0.603632	0.028667	-0.313105
C311	C	0.936965	0.362001	0.020229
C312	C	1.270298	0.695334	0.353562
O313	O	0.631792	0.000508	-0.285478
O314	O	0.965126	0.333841	0.047855
O315	O	1.298459	0.667175	0.381189
C316	C	0.603652	0.028665	-0.526762
C317	C	0.936985	0.361998	-0.193429
C318	C	1.270319	0.695332	0.139904
C319	C	0.570540	0.061773	-0.553476
C320	C	0.903873	0.395106	-0.220143
C321	C	1.237207	0.728440	0.113190
C322	C	0.504313	0.127982	-0.553493
C323	C	0.837646	0.461315	-0.220159
C324	C	1.170980	0.794648	0.113174
C325	C	0.504321	0.127983	-0.606904
C326	C	0.837654	0.461317	-0.273571
C327	C	1.170987	0.794650	0.059763
C328	C	0.537438	0.094880	-0.633602
C329	C	0.870772	0.428213	-0.300268
C330	C	1.204105	0.761546	0.033065
C331	C	0.570548	0.061774	-0.606888
C332	C	0.903881	0.395108	-0.273554
C333	C	1.237215	0.728441	0.059779
C334	C	0.636769	-0.004444	-0.553463
C335	C	0.970102	0.328889	-0.220129
C336	C	1.303435	0.662223	0.113204
C337	C	0.636770	-0.004442	-0.606880
C338	C	0.970103	0.328891	-0.273547
C339	C	1.303437	0.662224	0.059786
C340	C	0.603658	0.028666	-0.633594
C341	C	0.936991	0.361999	-0.300261
C342	C	1.270325	0.695332	0.033072
C343	C	0.603674	0.028672	-0.686997
C344	C	0.937007	0.362006	-0.353663
C345	C	1.270340	0.695339	-0.020330
N346	N	0.570560	0.061775	-0.713713
N347	N	0.903894	0.395108	-0.380380
N348	N	1.237227	0.728441	-0.047047
C349	C	0.537443	0.094878	-0.687016
C350	C	0.870776	0.428212	-0.353682
C351	C	1.204109	0.761545	-0.020349
C352	C	0.603619	0.028671	-0.200931
C353	C	0.936952	0.362005	0.132402
C354	C	1.270286	0.695338	0.465735
C355	C	0.603615	0.028672	-0.147517
C356	C	0.936948	0.362006	0.185816
C357	C	1.270281	0.695339	0.519149
C358	C	0.537382	0.094882	-0.147536
C359	C	0.870715	0.428215	0.185797
C360	C	1.204048	0.761548	0.519130
C361	C	0.537389	0.094883	-0.200951
C362	C	0.870722	0.428216	0.132382
C363	C	1.204055	0.761549	0.465715
C364	C	0.570506	0.061774	-0.227648
C365	C	0.903839	0.395107	0.105685
C366	C	1.237173	0.728441	0.439019
C367	C	0.537462	0.094879	-0.799184
C368	C	0.870796	0.428212	-0.465850
C369	C	1.204129	0.761546	-0.132517
C370	C	0.537474	0.094879	-0.852600
C371	C	0.870808	0.428212	-0.519266
C372	C	1.204141	0.761545	-0.185933
C373	C	0.603705	0.028668	-0.852576
C374	C	0.937039	0.362001	-0.519243
C375	C	1.270372	0.695335	-0.185909
C376	C	0.603695	0.028670	-0.799165
C377	C	0.937029	0.362003	-0.465831
C378	C	1.270362	0.695336	-0.132498
C379	C	0.570570	0.061777	-0.772470
C380	C	0.903903	0.395110	-0.439136
C381	C	1.237236	0.728444	-0.105803
O382	O	0.631834	0.000544	-0.714655
O383	O	0.965167	0.333878	-0.381322
O384	O	1.298500	0.667211	-0.047989
O385	O	0.509279	0.123026	-0.714652
O386	O	0.842612	0.456360	-0.381318
O387	O	1.175946	0.789693	-0.047985
C388	C	0.537415	0.094875	-0.473367
C389	C	0.870748	0.428209	-0.140034
C390	C	1.204081	0.761542	0.193299
C391	C	0.570524	0.061770	-0.446653
C392	C	0.903858	0.395104	-0.113320
C393	C	1.237191	0.728437	0.220013
C394	C	0.603642	0.028667	-0.473351
C395	C	0.936975	0.362000	-0.140018
C396	C	1.270309	0.695333	0.193316
C397	C	0.570520	0.061771	-0.393239
C398	C	0.903853	0.395105	-0.059906
C399	C	1.237187	0.728438	0.273428
C400	C	0.537402	0.094875	-0.366542
C401	C	0.870736	0.428208	-0.033208
C402	C	1.204069	0.761542	0.300125
C403	C	0.504289	0.127978	-0.393258
C404	C	0.837622	0.461311	-0.059925
C405	C	1.170956	0.794644	0.273409
C406	C	0.504297	0.127979	-0.446670
C407	C	0.837630	0.461312	-0.113336
C408	C	1.170964	0.794646	0.219997
C409	C	0.636755	-0.004436	-0.446634
C410	C	0.970088	0.328897	-0.113301
C411	C	1.303422	0.662231	0.220032
C412	C	0.636745	-0.004434	-0.393223
C413	C	0.970078	0.328899	-0.059889
C414	C	1.303411	0.662233	0.273444
C415	C	0.603627	0.028670	-0.366525
C416	C	0.936961	0.362003	-0.033192
C417	C	1.270294	0.695336	0.300141
N418	N	0.570592	0.061775	0.120703
N419	N	0.903925	0.395108	0.454036
N420	N	1.237259	0.728442	0.787369
H421	H	-0.050758	0.060524	0.130116
H422	H	0.282575	0.393858	0.463449
H423	H	0.615908	0.727191	0.796783
H424	H	0.446789	-0.391167	-0.000016
H425	H	0.780123	-0.057834	0.333317
H426	H	1.113456	0.275499	0.666651
H427	H	0.486977	-0.780420	-0.000034
H428	H	0.820311	-0.447087	0.333300
H429	H	1.153644	-0.113754	0.666633
H430	H	0.040689	0.061459	0.130118
H431	H	0.374022	0.394792	0.463452
H432	H	0.707356	0.728125	0.796785
H433	H	0.510426	0.121842	-0.222699
H434	H	0.843759	0.455175	0.110635
H435	H	1.177093	0.788508	0.443968
H436	H	-0.191276	0.059099	-0.083998
H437	H	0.142057	0.392433	0.249336
H438	H	0.475391	0.725766	0.582669
H439	H	0.630588	0.001710	-0.222664
H440	H	0.963922	0.335043	0.110669
H441	H	1.297255	0.668376	0.444002
F442	F	-0.288985	0.058103	0.095421
F443	F	0.044349	0.391437	0.428754
F444	F	0.377682	0.724770	0.762088
H445	H	0.510416	0.121837	-0.125790
H446	H	0.843750	0.455170	0.207543
H447	H	1.177083	0.788504	0.540877
F448	F	0.658950	-0.706298	-0.000058
F449	F	0.992283	-0.372964	0.333275
F450	F	1.325616	-0.039631	0.666608
H451	H	0.423771	0.065397	-0.083970
H452	H	0.757105	0.398731	0.249364
H453	H	1.090438	0.732064	0.582697
F454	F	0.046919	0.061526	-0.141812
F455	F	0.380253	0.394860	0.191521
F456	F	0.713586	0.728193	0.524854
H457	H	0.663731	-0.031404	-0.531720
H458	H	0.997064	0.301930	-0.198386
H459	H	1.330398	0.635263	0.134947
H460	H	0.510488	0.121838	-0.777455
H461	H	0.843821	0.455171	-0.444121
H462	H	1.177154	0.788504	-0.110788
H463	H	0.487905	-0.688970	-0.000026
H464	H	0.821238	-0.355637	0.333308
H465	H	1.154571	-0.022303	0.666641
F466	F	0.436764	-0.291890	-0.000016
F467	F	0.770098	0.041443	0.333317
F468	F	1.103431	0.374777	0.666650
F469	F	0.469054	0.163217	-0.475094
F470	F	0.802388	0.496550	-0.141761
F471	F	1.135721	0.829884	0.191572
H472	H	-0.282741	0.058161	-0.083996
H473	H	0.050593	0.391494	0.249338
H474	H	0.383926	0.724827	0.582671
H475	H	0.493226	-0.165375	-0.000068
H476	H	0.826559	0.167959	0.333266
H477	H	1.159893	0.501292	0.666599
F478	F	0.704323	-0.584547	-0.000057
F479	F	1.037656	-0.251214	0.333276
F480	F	1.370989	0.082119	0.666609
F481	F	0.638863	-0.006560	-0.119092
F482	F	0.972196	0.326774	0.214242
F483	F	1.305529	0.660107	0.547575
F484	F	0.198244	0.063058	0.141695
F485	F	0.531577	0.396392	0.475028
F486	F	0.864911	0.729725	0.808362
F487	F	-0.184930	0.059156	0.095427
F488	F	0.148403	0.392490	0.428761
F489	F	0.481737	0.725823	0.762094
F490	F	0.483202	-0.066081	-0.000061
F491	F	0.816535	0.267252	0.333273
F492	F	1.149868	0.600585	0.666606
F493	F	0.326018	0.064384	-0.095546
F494	F	0.659351	0.397718	0.237788
F495	F	0.992684	0.731051	0.571121
H496	H	0.694301	-0.485260	-0.000062
H497	H	1.027634	-0.151926	0.333271
H498	H	1.360967	0.181407	0.666605
F499	F	0.094189	0.061998	0.141695
F500	F	0.427522	0.395331	0.475029
F501	F	0.760856	0.728665	0.808362
H502	H	0.663738	-0.031405	-0.628614
H503	H	0.997071	0.301928	-0.295281
H504	H	1.330404	0.635262	0.038052
H505	H	0.445258	-0.542413	-0.000021
H506	H	0.778592	-0.209080	0.333313
H507	H	1.111925	0.124253	0.666646
H508	H	0.477357	0.154941	-0.628651
H509	H	0.810690	0.488275	-0.295318
H510	H	1.144024	0.821608	0.038015
F511	F	0.435231	-0.443140	-0.000022
F512	F	0.768564	-0.109807	0.333312
F513	F	1.101897	0.223527	0.666645
F514	F	0.664144	-0.195300	-0.000074
F515	F	0.997478	0.138033	0.333259
F516	F	1.330811	0.471366	0.666593
F517	F	0.502232	0.130119	-0.881028
F518	F	0.835565	0.463453	-0.547695
F519	F	1.168898	0.796786	-0.214361
H520	H	-0.050840	0.060524	-0.130243
H521	H	0.282494	0.393857	0.203090
H522	H	0.615827	0.727190	0.536424
H523	H	0.477342	0.154939	-0.531760
H524	H	0.810676	0.488272	-0.198427
H525	H	1.144009	0.821605	0.134907
H526	H	0.646929	-0.802541	-0.000048
H527	H	0.980262	-0.469208	0.333285
H528	H	1.313595	-0.135875	0.666618
H529	H	0.630663	0.001715	-0.777414
H530	H	0.963996	0.335048	-0.444080
H531	H	1.297329	0.668381	-0.110747
H532	H	0.630671	0.001717	-0.874322
H533	H	0.964004	0.335050	-0.540988
H534	H	1.297338	0.668383	-0.207655
F535	F	0.665196	-0.091244	-0.000090
F536	F	0.998530	0.242090	0.333243
F537	F	1.331863	0.575423	0.666577
F538	F	0.469044	0.163211	-0.364835
F539	F	0.802378	0.496544	-0.031502
F540	F	1.135711	0.829877	0.301831
F541	F	0.671992	-0.039672	-0.364797
F542	F	1.005325	0.293661	-0.031464
F543	F	1.338658	0.626994	0.301870
H544	H	0.663723	-0.031394	-0.468367
H545	H	0.997056	0.301940	-0.135034
H546	H	1.330390	0.635273	0.198299
H547	H	0.191855	0.063013	-0.130240
H548	H	0.525188	0.396346	0.203094
H549	H	0.858522	0.729679	0.536427
H550	H	0.100409	0.062074	-0.130243
H551	H	0.433742	0.395407	0.203090
H552	H	0.767075	0.728741	0.536424
F553	F	0.430128	0.065456	0.095446
F554	F	0.763462	0.398789	0.428780
F555	F	1.096795	0.732123	0.762113
F556	F	0.706924	-0.329246	-0.000067
F557	F	1.040257	0.004087	0.333266
F558	F	1.373591	0.337420	0.666599
F559	F	0.705867	-0.433296	-0.000068
F560	F	1.039200	-0.099963	0.333265
F561	F	1.372533	0.233370	0.666599
F562	F	0.326055	0.064396	0.095446
F563	F	0.659388	0.397729	0.428780
F564	F	0.992722	0.731063	0.762113
