data_functionalizedCrystal
_audit_creation_method	'MofGen! by Chris Wilmer'
_symmetry_space_group_name_H-M	'P1'
_symmetry_Int_Tables_number	1
_symmetry_cell_setting	triclinic
loop_
_symmetry_equiv_pos_as_xyz
  x,y,z
_cell_length_a	14.519731
_cell_length_b	14.519731
_cell_length_c	9.798715
_cell_angle_alpha	89.995867
_cell_angle_beta	89.996220
_cell_angle_gamma	83.688853
loop_
_atom_site_label
_atom_site_type_symbol
_atom_site_fract_x
_atom_site_fract_y
_atom_site_fract_z
O1	O	1.223864	0.120982	-0.113497
O2	O	1.723864	0.620982	0.386503
O3	O	0.955391	0.135197	-0.113500
O4	O	1.455391	0.635197	0.386500
O5	O	1.096735	-0.006147	-0.113486
O6	O	1.596735	0.493853	0.386514
O7	O	1.082519	0.262326	-0.113511
O8	O	1.582519	0.762326	0.386489
O9	O	1.096725	-0.006147	0.113496
O10	O	1.596725	0.493853	0.613496
O11	O	0.955380	0.135197	0.113483
O12	O	1.455380	0.635197	0.613483
O13	O	1.223853	0.120981	0.113485
O14	O	1.723853	0.620981	0.613485
Zn15	Zn	1.089615	0.128089	0.149522
Zn16	Zn	1.589615	0.628089	0.649522
Zn17	Zn	1.089629	0.128090	-0.149537
Zn18	Zn	1.589629	0.628090	0.350463
O19	O	1.082509	0.262326	0.113471
O20	O	1.582509	0.762326	0.613471
C21	C	0.921026	0.134531	-0.000009
C22	C	1.421026	0.634531	0.499991
C23	C	0.818645	0.132535	-0.000009
C24	C	1.318645	0.632535	0.499991
C25	C	0.735501	0.130913	-0.000015
C26	C	1.235501	0.630913	0.499985
C27	C	0.631192	0.128887	-0.000015
C28	C	1.131192	0.628887	0.499985
C29	C	0.548053	0.127278	-0.000015
C30	C	1.048053	0.627278	0.499985
C31	C	0.443738	0.125252	-0.000017
C32	C	0.943738	0.625252	0.499983
C33	C	1.096064	-0.040507	0.000006
C34	C	1.596064	0.459493	0.500006
C35	C	1.094068	-0.142887	0.000006
C36	C	1.594068	0.357113	0.500006
C37	C	1.092446	-0.226031	0.000003
C38	C	1.592446	0.273969	0.500003
C39	C	1.090419	-0.330340	-0.000007
C40	C	1.590419	0.169660	0.499993
C41	C	1.088811	-0.413479	-0.000016
C42	C	1.588811	0.086521	0.499984
C43	C	1.086785	-0.517795	-0.000024
C44	C	1.586785	-0.017795	0.499976
C45	C	1.258218	0.121648	-0.000009
C46	C	1.758218	0.621648	0.499991
C47	C	1.360598	0.123643	-0.000017
C48	C	1.860598	0.623643	0.499983
C49	C	1.083180	0.296685	-0.000023
C50	C	1.583180	0.796685	0.499977
C51	C	1.085176	0.399066	-0.000033
C52	C	1.585176	0.899066	0.499967
N53	N	1.089612	0.128088	0.353622
N54	N	1.589612	0.628088	0.853622
N55	N	1.089639	0.128083	-0.353636
N56	N	1.589639	0.628083	0.146364
C57	C	1.148961	0.068482	0.421405
C58	C	1.648961	0.568482	0.921405
C59	C	1.148976	0.068479	0.578567
C60	C	1.648976	0.568479	1.078567
H61	H	1.199790	0.017450	0.636857
H62	H	1.699790	0.517450	1.136857
O63	O	1.209476	0.007492	0.351873
O64	O	1.709476	0.507492	0.851873
C65	C	1.262843	-0.152795	0.307852
C66	C	1.762843	0.347205	0.807852
C67	C	1.194240	-0.083836	0.386671
C68	C	1.694240	0.416164	0.886671
H69	H	1.250562	-0.226648	0.335979
H70	H	1.750562	0.273352	0.835979
H71	H	1.252015	-0.142000	0.193487
H72	H	1.752015	0.358000	0.693487
H73	H	1.336793	-0.140779	0.335812
H74	H	1.836793	0.359221	0.835812
H75	H	1.120263	-0.095810	0.358826
H76	H	1.620263	0.404190	0.858826
H77	H	1.205150	-0.094648	0.501018
H78	H	1.705150	0.405352	1.001018
O79	O	1.029144	0.189009	0.576694
O80	O	1.529144	0.689009	1.076694
C81	C	1.010163	0.314869	0.415266
C82	C	1.510163	0.814869	0.915266
C83	C	1.078774	0.245909	0.494069
C84	C	1.578774	0.745909	0.994069
H85	H	1.050263	0.360904	0.348466
H86	H	1.550263	0.860904	0.848466
H87	H	0.963952	0.275098	0.348289
H88	H	1.463952	0.775098	0.848289
H89	H	0.965473	0.359703	0.490790
H90	H	1.465473	0.859703	0.990790
H91	H	1.123526	0.201057	0.418643
H92	H	1.623526	0.701057	0.918643
H93	H	1.124921	0.285737	0.561066
H94	H	1.624921	0.785737	1.061066
O95	O	1.028966	0.188842	0.423336
O96	O	1.528966	0.688842	0.923336
C97	C	0.903155	0.208417	0.584801
C98	C	1.403155	0.708417	1.084801
C99	C	0.971800	0.139512	0.505964
C100	C	1.471800	0.639512	1.005964
H101	H	0.856905	0.168561	0.651603
H102	H	1.356905	0.668561	1.151603
H103	H	0.943187	0.254396	0.651778
H104	H	1.443187	0.754396	1.151778
H105	H	0.858509	0.253316	0.509298
H106	H	1.358509	0.753316	1.009298
H107	H	1.016463	0.094552	0.581368
H108	H	1.516463	0.594552	1.081368
H109	H	0.931712	0.093597	0.438966
H110	H	1.431712	0.593597	0.938966
