data_functionalizedCrystal
_audit_creation_method	'MofGen! by Chris Wilmer'
_symmetry_space_group_name_H-M	'P1'
_symmetry_Int_Tables_number	1
_symmetry_cell_setting	triclinic
loop_
_symmetry_equiv_pos_as_xyz
  x,y,z
_cell_length_a	21.395362
_cell_length_b	18.215405
_cell_length_c	18.215399
_cell_angle_alpha	89.967040
_cell_angle_beta	89.963930
_cell_angle_gamma	90.040762
loop_
_atom_site_label
_atom_site_type_symbol
_atom_site_fract_x
_atom_site_fract_y
_atom_site_fract_z
Zn1	Zn	0.957836	-0.292662	-0.416481
Zn2	Zn	1.457836	0.207338	0.083519
Zn3	Zn	0.957764	-0.415739	-0.293409
Zn4	Zn	1.457764	0.084261	0.206591
Zn5	Zn	0.853065	-0.292725	-0.293387
Zn6	Zn	1.353065	0.207275	0.206613
Zn7	Zn	0.853031	-0.415726	-0.416392
Zn8	Zn	1.353031	0.084274	0.083608
O9	O	0.905424	-0.354213	-0.354917
O10	O	1.405424	0.145787	0.145083
O11	O	1.045504	-0.308968	-0.400201
O12	O	1.545504	0.191032	0.099799
O13	O	0.943859	-0.399452	-0.190421
O14	O	1.443859	0.100548	0.309579
O15	O	0.867008	-0.189732	-0.309743
O16	O	1.367008	0.310268	0.190257
O17	O	1.045451	-0.399392	-0.309781
O18	O	1.545451	0.100608	0.190219
O19	O	0.943983	-0.189686	-0.400180
O20	O	1.443983	0.310314	0.099820
O21	O	0.866938	-0.309074	-0.190405
O22	O	1.366938	0.190926	0.309595
O23	O	0.765383	-0.309062	-0.309657
O24	O	1.265383	0.190938	0.190343
O25	O	0.866949	-0.399370	-0.519388
O26	O	1.366949	0.100630	-0.019388
O27	O	0.765358	-0.399430	-0.400029
O28	O	1.265358	0.100570	0.099971
O29	O	0.943949	-0.308955	-0.519453
O30	O	1.443949	0.191045	-0.019453
O31	O	0.943826	-0.518721	-0.309695
O32	O	1.443826	-0.018721	0.190305
O33	O	0.866879	-0.518712	-0.400051
O34	O	1.366879	-0.018712	0.099949
C35	C	0.742636	-0.354252	-0.354832
C36	C	1.242636	0.145748	0.145168
C37	C	0.672995	-0.354286	-0.354813
C38	C	1.172995	0.145714	0.145187
C39	C	0.640285	-0.401403	-0.401799
C40	C	1.140285	0.098597	0.098201
C41	C	0.574850	-0.401385	-0.401832
C42	C	1.074850	0.098615	0.098168
C43	C	0.542127	-0.354258	-0.354865
C44	C	1.042127	0.145742	0.145135
C45	C	0.574845	-0.307132	-0.307876
C46	C	1.074845	0.192868	0.192124
C47	C	0.640279	-0.307146	-0.307849
C48	C	1.140279	0.192854	0.192151
C49	C	0.438409	-0.348344	-0.288613
C50	C	0.938409	0.151656	0.211387
C51	C	0.372976	-0.348335	-0.288638
C52	C	0.872976	0.151665	0.211362
C53	C	0.340306	-0.354210	-0.354946
C54	C	0.840306	0.145790	0.145054
C55	C	0.373077	-0.360109	-0.421232
C56	C	0.873077	0.139891	0.078768
C57	C	0.438511	-0.360123	-0.421206
C58	C	0.938511	0.139877	0.078794
C59	C	0.471175	-0.354237	-0.354889
C60	C	0.971175	0.145763	0.145111
C61	C	0.236644	-0.401310	-0.401972
C62	C	0.736644	0.098690	0.098028
C63	C	0.171207	-0.401287	-0.402006
C64	C	0.671207	0.098713	0.097994
C65	C	0.171203	-0.307037	-0.308044
C66	C	0.671203	0.192963	0.191956
C67	C	0.236639	-0.307056	-0.308016
C68	C	0.736639	0.192944	0.191984
C69	C	0.269355	-0.354197	-0.354979
C70	C	0.769355	0.145803	0.145021
C71	C	0.905358	-0.545419	-0.354882
C72	C	1.405358	-0.045419	0.145118
C73	C	0.905387	-0.627218	-0.354891
C74	C	1.405387	-0.127218	0.145109
C75	C	0.945547	-0.815393	-0.307930
C76	C	1.445547	-0.315393	0.192070
C77	C	0.945575	-0.892251	-0.307948
C78	C	1.445575	-0.392251	0.192052
C79	C	0.865381	-0.892281	-0.401957
C80	C	1.365381	-0.392281	0.098043
C81	C	0.865357	-0.815424	-0.401943
C82	C	1.365357	-0.315424	0.098057
C83	C	0.905439	-0.776982	-0.354925
C84	C	1.405439	-0.276982	0.145075
C85	C	0.905491	-0.930698	-0.354957
C86	C	1.405491	-0.430698	0.145043
C87	C	0.905521	-1.014031	-0.354977
C88	C	1.405521	-0.514031	0.145023
C89	C	0.905410	-0.693643	-0.354906
C90	C	1.405410	-0.193643	0.145094
C91	C	1.068847	-0.354174	-0.355003
C92	C	1.568847	0.145826	0.144997
C93	C	1.138489	-0.354158	-0.355040
C94	C	1.638489	0.145842	0.144960
C95	C	0.905454	-0.354154	-0.546870
C96	C	1.405454	0.145846	-0.046870
C97	C	0.905466	-0.354129	-0.628669
C98	C	1.405466	0.145871	-0.128669
C99	C	0.905508	-0.162260	-0.354969
C100	C	1.405508	0.337740	0.145031
C101	C	0.905543	-0.080461	-0.354991
C102	C	1.405543	0.419539	0.145009
C103	C	0.865447	-0.307038	-0.816856
C104	C	1.365447	0.192962	-0.316856
C105	C	0.865458	-0.307023	-0.893714
C106	C	1.365458	0.192977	-0.393714
C107	C	0.945560	-0.401133	-0.893721
C108	C	1.445560	0.098867	-0.393721
C109	C	0.945546	-0.401151	-0.816863
C110	C	1.445546	0.098849	-0.316863
C111	C	0.905490	-0.354099	-0.778433
C112	C	1.405490	0.145901	-0.278433
C113	C	0.905516	-0.354066	-0.932149
C114	C	1.405516	0.145934	-0.432149
C115	C	0.905528	-0.354050	-1.015483
C116	C	1.405528	0.145950	-0.515483
C117	C	0.905477	-0.354116	-0.695094
C118	C	1.405477	0.145884	-0.195094
C119	C	0.905431	-0.354218	-0.163711
C120	C	1.405431	0.145782	0.336289
C121	C	0.905539	-0.354036	-0.081912
C122	C	1.405539	0.145964	0.418088
H123	H	0.465190	-0.364924	-0.475177
H124	H	0.965190	0.135076	0.024823
H125	H	0.465004	-0.343558	-0.234613
H126	H	0.965004	0.156442	0.265387
H127	H	0.346478	-0.364891	-0.475227
H128	H	0.846478	0.135109	0.024773
C129	C	0.786115	-0.884591	-0.494886
C130	C	1.286115	-0.384591	0.005114
C131	C	0.821322	-0.934539	-0.453636
C132	C	1.321322	-0.434539	0.046364
H133	H	0.758917	-0.910679	-0.526792
H134	H	1.258917	-0.410679	-0.026792
H135	H	0.762158	-0.854671	-0.462780
H136	H	1.262158	-0.354671	0.037220
H137	H	0.813396	-0.854556	-0.523069
H138	H	1.313396	-0.354556	-0.023069
H139	H	0.794041	-0.964571	-0.425448
H140	H	1.294041	-0.464571	0.074552
H141	H	0.845281	-0.964472	-0.485745
H142	H	1.345281	-0.464472	0.014255
H143	H	0.978173	-0.439440	-0.925020
H144	H	1.478173	0.060560	-0.425020
H145	H	0.832696	-0.784148	-0.440215
H146	H	1.332696	-0.284148	0.059785
C147	C	0.786263	-0.214022	-0.824572
C148	C	1.286263	0.285978	-0.324572
C149	C	0.821411	-0.255328	-0.774612
C150	C	1.321411	0.244672	-0.274612
H151	H	0.759073	-0.182104	-0.798493
H152	H	1.259073	0.317896	-0.298493
H153	H	0.813577	-0.185855	-0.854569
H154	H	1.313577	0.314145	-0.354569
H155	H	0.762295	-0.246097	-0.854530
H156	H	1.262295	0.253903	-0.354530
H157	H	0.845383	-0.223254	-0.744658
H158	H	1.345383	0.276746	-0.244658
H159	H	0.794094	-0.283498	-0.744603
H160	H	1.294094	0.216502	-0.244603
C161	C	0.501193	-0.500376	-0.411896
C162	C	1.001193	-0.000376	0.088104
C163	C	0.538887	-0.453183	-0.453481
C164	C	1.038887	0.046817	0.046519
H165	H	0.478991	-0.532349	-0.443784
H166	H	0.978991	-0.032349	0.056216
H167	H	0.526673	-0.528486	-0.379776
H168	H	1.026673	-0.028486	0.120224
H169	H	0.472344	-0.472294	-0.383934
H170	H	0.972344	0.027706	0.116066
H171	H	0.567739	-0.481264	-0.481439
H172	H	1.067739	0.018736	0.018561
H173	H	0.513404	-0.425069	-0.485614
H174	H	1.013404	0.074931	0.014386
C175	C	1.051704	-0.915738	-0.272284
C176	C	1.551704	-0.415738	0.227716
C177	C	0.989682	-0.934444	-0.256288
C178	C	1.489682	-0.434444	0.243712
H179	H	1.078940	-0.941775	-0.240387
H180	H	1.578940	-0.441775	0.259613
H181	H	1.060842	-0.928296	-0.321739
H182	H	1.560842	-0.428296	0.178261
H183	H	1.057395	-0.864456	-0.265561
H184	H	1.557395	-0.364456	0.234439
H185	H	0.983990	-0.985726	-0.263016
H186	H	1.483990	-0.485726	0.236984
H187	H	0.980542	-0.921891	-0.206820
H188	H	1.480542	-0.421891	0.293180
H189	H	0.832851	-0.268701	-0.924995
H190	H	1.332851	0.231299	-0.424995
H191	H	0.666911	-0.268775	-0.269588
H192	H	1.166911	0.231225	0.230412
H193	H	0.978185	-0.784095	-0.269646
H194	H	1.478185	-0.284095	0.230354
C195	C	0.151104	-0.182377	-0.272421
C196	C	0.651104	0.317623	0.227579
C197	C	0.135231	-0.255241	-0.256418
C198	C	0.635231	0.244759	0.243582
H199	H	0.128887	-0.150403	-0.240552
H200	H	0.628887	0.349597	0.259448
H201	H	0.194749	-0.175639	-0.265669
H202	H	0.694749	0.324361	0.234331
H203	H	0.140430	-0.171673	-0.321894
H204	H	0.640430	0.328327	0.178106
H205	H	0.145909	-0.265947	-0.206946
H206	H	0.645909	0.234053	0.293054
H207	H	0.091577	-0.261983	-0.263164
H208	H	0.591577	0.238017	0.236836
H209	H	0.263283	-0.439691	-0.440216
H210	H	0.763283	0.060309	0.059784
H211	H	0.144576	-0.439654	-0.440272
H212	H	0.644576	0.060346	0.059728
C213	C	1.024733	-0.494172	-0.824583
C214	C	1.524733	0.005828	-0.324583
C215	C	0.989566	-0.452883	-0.774623
C216	C	1.489566	0.047117	-0.274623
H217	H	1.051908	-0.526105	-0.798504
H218	H	1.551908	-0.026105	-0.298504
H219	H	0.997430	-0.522322	-0.854536
H220	H	1.497430	-0.022322	-0.354536
H221	H	1.048718	-0.462087	-0.854584
H222	H	1.548718	0.037913	-0.354584
H223	H	0.965577	-0.484968	-0.744626
H224	H	1.465577	0.015032	-0.244626
H225	H	1.016872	-0.424731	-0.744657
H226	H	1.516872	0.075269	-0.244657
H227	H	0.666919	-0.439788	-0.440041
H228	H	1.166919	0.060212	0.059959
H229	H	0.346299	-0.343537	-0.234664
H230	H	0.846299	0.156463	0.265336
C231	C	0.256711	-0.271065	-0.183456
C232	C	0.756711	0.228935	0.316544
C233	C	0.272598	-0.255271	-0.256359
C234	C	0.772598	0.244729	0.243641
H235	H	0.278914	-0.239094	-0.151566
H236	H	0.778914	0.260906	0.348434
H237	H	0.213064	-0.264308	-0.176755
H238	H	0.713064	0.235692	0.323245
H239	H	0.267391	-0.320502	-0.172601
H240	H	0.767391	0.179498	0.327399
H241	H	0.261914	-0.205834	-0.267215
H242	H	0.761914	0.294166	0.232785
H243	H	0.316255	-0.262021	-0.263063
H244	H	0.816255	0.237979	0.236937
C245	C	0.554632	-0.271124	-0.183330
C246	C	1.054632	0.228876	0.316670
C247	C	0.538882	-0.255328	-0.256245
C248	C	1.038882	0.244672	0.243755
H249	H	0.532433	-0.239136	-0.151457
H250	H	1.032433	0.260864	0.348543
H251	H	0.543859	-0.320549	-0.172478
H252	H	1.043859	0.179451	0.327522
H253	H	0.598285	-0.264388	-0.176603
H254	H	1.098285	0.235612	0.323397
H255	H	0.495229	-0.262069	-0.262974
H256	H	0.995229	0.237931	0.237026
H257	H	0.549651	-0.205892	-0.267101
H258	H	1.049651	0.294108	0.232899
