data_functionalizedCrystal
_audit_creation_method	'MofGen! by Chris Wilmer'
_symmetry_space_group_name_H-M	'P1'
_symmetry_Int_Tables_number	1
_symmetry_cell_setting	triclinic
loop_
_symmetry_equiv_pos_as_xyz
  x,y,z
_cell_length_a	18.050591
_cell_length_b	18.050583
_cell_length_c	16.959453
_cell_angle_alpha	89.963670
_cell_angle_beta	90.015994
_cell_angle_gamma	89.977979
loop_
_atom_site_label
_atom_site_type_symbol
_atom_site_fract_x
_atom_site_fract_y
_atom_site_fract_z
Zn1	Zn	1.135343	-0.420031	-0.314709
Zn2	Zn	1.135269	-0.295841	-0.446914
Zn3	Zn	1.011160	-0.295842	-0.314744
Zn4	Zn	1.011128	-0.419977	-0.446840
O5	O	1.073225	-0.357923	-0.380802
O6	O	1.239258	-0.403579	-0.332262
O7	O	1.118788	-0.191917	-0.429426
O8	O	1.027677	-0.312340	-0.204128
O9	O	1.239204	-0.312337	-0.429393
O10	O	1.118914	-0.403581	-0.204103
O11	O	1.027606	-0.191917	-0.332322
O12	O	0.907231	-0.312287	-0.332251
O13	O	1.027623	-0.523908	-0.429267
O14	O	0.907208	-0.403488	-0.429301
O15	O	1.118883	-0.523949	-0.332191
O16	O	1.118757	-0.312284	-0.557515
O17	O	1.027552	-0.403486	-0.557461
C18	C	0.880273	-0.357882	-0.380772
C19	C	0.797727	-0.357882	-0.380779
C20	C	0.598268	-0.308401	-0.327941
C21	C	0.548857	-0.290125	-0.400040
C22	C	0.646597	-0.357915	-0.380803
C23	C	0.548925	-0.376190	-0.308729
C24	C	0.500612	-0.357946	-0.380819
C25	C	0.598274	-0.339604	-0.452939
C26	C	0.598346	-0.425700	-0.361580
C27	C	0.548958	-0.407450	-0.433728
C28	C	0.730695	-0.357896	-0.380792
C29	C	0.416515	-0.357966	-0.380838
C30	C	1.073258	-0.551628	-0.380717
C31	C	1.073272	-0.634174	-0.380681
C32	C	1.122949	-0.833647	-0.327866
C33	C	1.055213	-0.883035	-0.308515
C34	C	1.073302	-0.785305	-0.380668
C35	C	1.141065	-0.882999	-0.399968
C36	C	1.073336	-0.931290	-0.380653
C37	C	1.005529	-0.833605	-0.361280
C38	C	1.091428	-0.833565	-0.452767
C39	C	1.023645	-0.882930	-0.433443
C40	C	1.073283	-0.701206	-0.380674
C41	C	1.073348	-1.015386	-0.380647
C42	C	1.266931	-0.357964	-0.380832
C43	C	1.349476	-0.357982	-0.380845
C44	C	1.073163	-0.357896	-0.586168
C45	C	1.073205	-0.357909	-0.674025
C46	C	1.073235	-0.164971	-0.380829
C47	C	1.073365	-0.082425	-0.380642
C48	C	1.120793	-0.405522	-1.045428
C49	C	1.025865	-0.310434	-1.045572
C50	C	1.025837	-0.310417	-0.963026
C51	C	1.073287	-0.357954	-0.921677
C52	C	1.120765	-0.405508	-0.962875
C53	C	0.978355	-0.262870	-0.921823
C54	C	0.978325	-0.262851	-0.839272
C55	C	1.025779	-0.310385	-0.797922
C56	C	1.073260	-0.357940	-0.839124
C57	C	1.120710	-0.405477	-0.797775
C58	C	1.168195	-0.453028	-0.838976
C59	C	1.168220	-0.453041	-0.921525
C60	C	1.025754	-0.310372	-0.715373
C61	C	1.120682	-0.405463	-0.715222
C62	C	1.073308	-0.357966	-0.174633
C63	C	1.073343	-0.357985	-0.086777
H64	H	0.527121	-0.232814	-0.416311
H65	H	0.619919	-0.266483	-0.283286
H66	H	1.198357	-0.904698	-0.416298
O67	O	0.973473	-0.908681	-0.486605
C68	C	0.920390	-0.952637	-0.447492
H69	H	0.944847	-0.974455	-0.390008
H70	H	0.869256	-0.917760	-0.434103
C71	C	0.868404	-0.991497	-0.571111
C72	C	0.898445	-1.018299	-0.500510
H73	H	0.854864	-1.031999	-0.603815
H74	H	0.904165	-0.961881	-0.597463
H75	H	0.825795	-0.962433	-0.559942
H76	H	0.941057	-1.047355	-0.511679
H77	H	0.862690	-1.047922	-0.474162
H78	H	0.620101	-0.482994	-0.345286
O79	O	0.523251	-0.457505	-0.487015
C80	C	0.480294	-0.511391	-0.447879
H81	H	0.497005	-0.513726	-0.383097
H82	H	0.419146	-0.496205	-0.452672
C83	C	0.472871	-0.584744	-0.565729
C84	C	0.493401	-0.587617	-0.486165
H85	H	0.480953	-0.631764	-0.589347
H86	H	0.501810	-0.548439	-0.592097
H87	H	0.421916	-0.572087	-0.569713
H88	H	0.544357	-0.600265	-0.482183
H89	H	0.464471	-0.623926	-0.459797
H90	H	1.159325	-0.444170	-0.681561
O91	O	1.173039	-0.807786	-0.274676
C92	C	1.226800	-0.764796	-0.313954
H93	H	1.229071	-0.781593	-0.378695
H94	H	1.211522	-0.703666	-0.309307
C95	C	1.300308	-0.757092	-0.196169
C96	C	1.303101	-0.777726	-0.275684
H97	H	1.347373	-0.765064	-0.172561
H98	H	1.264087	-0.786053	-0.169705
H99	H	1.287573	-0.706151	-0.192307
H100	H	1.315826	-0.828668	-0.279544
H101	H	1.339326	-0.748774	-0.302148
H102	H	1.159456	-0.444235	-1.078978
O103	O	1.214290	-0.499343	-0.961467
C104	C	1.197978	-0.573337	-0.941252
H105	H	1.169424	-0.574830	-0.881325
H106	H	1.159776	-0.598308	-0.987704
C107	C	1.305406	-0.616583	-1.010977
C108	C	1.270341	-0.618417	-0.937370
H109	H	1.350042	-0.644392	-1.008585
H110	H	1.316394	-0.566733	-1.024598
H111	H	1.273563	-0.637391	-1.049679
H112	H	1.302180	-0.597601	-0.898671
H113	H	1.259360	-0.668265	-0.923742
H114	H	0.939661	-0.224132	-0.805731
O115	O	1.036831	-0.908889	-0.235771
C116	C	0.965887	-0.882670	-0.215002
H117	H	0.953013	-0.830266	-0.249974
H118	H	0.922750	-0.926869	-0.228991
C119	C	0.979865	-0.929476	-0.083226
C120	C	0.964056	-0.865109	-0.126174
H121	H	0.978734	-0.918647	-0.028432
H122	H	1.027660	-0.947143	-0.097219
H123	H	0.943916	-0.966303	-0.094892
H124	H	1.000010	-0.828288	-0.114515
H125	H	0.916266	-0.847436	-0.112177
O126	O	0.523152	-0.394533	-0.235948
C127	C	0.548261	-0.342153	-0.180404
H128	H	0.600241	-0.313814	-0.203783
H129	H	0.503249	-0.298928	-0.170020
C130	C	0.502431	-0.416413	-0.073462
C131	C	0.566278	-0.381612	-0.102174
H132	H	0.513542	-0.440752	-0.025205
H133	H	0.485512	-0.451701	-0.110883
H134	H	0.464927	-0.380386	-0.064815
H135	H	0.603777	-0.417640	-0.110830
H136	H	0.583203	-0.346330	-0.064753
H137	H	1.106769	-0.811821	-0.513728
H138	H	0.619860	-0.324097	-0.513916
O139	O	0.937212	-0.807713	-0.341688
C140	C	0.938022	-0.729607	-0.341921
H141	H	0.997201	-0.709175	-0.333140
H142	H	0.915937	-0.708429	-0.400751
C143	C	0.816113	-0.725591	-0.285351
C144	C	0.888797	-0.700497	-0.274559
H145	H	0.785746	-0.707634	-0.243802
H146	H	0.815566	-0.778212	-0.285197
H147	H	0.797719	-0.707941	-0.334378
H148	H	0.907192	-0.718155	-0.225537
H149	H	0.889346	-0.647877	-0.274703
O150	O	1.214182	-0.499242	-0.798718
C151	C	1.171845	-0.547167	-0.750976
H152	H	1.115575	-0.520915	-0.738683
H153	H	1.163666	-0.602201	-0.782747
C154	C	1.281770	-0.592882	-0.687614
C155	C	1.212660	-0.560635	-0.672510
H156	H	1.306947	-0.601194	-0.639214
H157	H	1.310294	-0.560596	-0.719781
H158	H	1.274944	-0.638740	-0.714092
H159	H	1.219486	-0.514774	-0.646042
H160	H	1.184138	-0.592914	-0.640337
O161	O	0.979739	-0.264363	-1.085823
C162	C	0.931747	-0.306604	-1.133552
H163	H	0.957904	-0.362916	-1.145847
H164	H	0.876694	-0.314696	-1.101769
C165	C	0.886232	-0.196583	-1.196912
C166	C	0.918361	-0.265745	-1.212019
H167	H	0.877971	-0.171379	-1.245313
H168	H	0.918563	-0.168124	-1.164754
H169	H	0.840358	-0.203336	-1.170425
H170	H	0.964238	-0.258991	-1.238497
H171	H	0.886038	-0.294202	-1.244183
O172	O	0.932232	-0.216798	-0.962077
C173	C	0.884248	-0.259037	-1.009816
H174	H	0.910407	-0.315349	-1.022109
H175	H	0.829191	-0.267131	-0.978043
C176	C	0.838741	-0.149014	-1.073178
C177	C	0.870873	-0.218175	-1.088283
H178	H	0.830487	-0.123808	-1.121579
H179	H	0.871066	-0.120556	-1.041014
H180	H	0.792863	-0.155769	-1.046699
H181	H	0.916753	-0.211419	-1.114753
H182	H	0.838554	-0.246631	-1.120454
H183	H	0.987090	-0.271659	-0.681831
