data_functionalizedCrystal
_audit_creation_method	'MofGen! by Chris Wilmer'
_symmetry_space_group_name_H-M	'P1'
_symmetry_Int_Tables_number	1
_symmetry_cell_setting	triclinic
loop_
_symmetry_equiv_pos_as_xyz
  x,y,z
_cell_length_a	14.044191
_cell_length_b	12.503572
_cell_length_c	14.519731
_cell_angle_alpha	86.470900
_cell_angle_beta	88.440315
_cell_angle_gamma	93.837835
loop_
_atom_site_label
_atom_site_type_symbol
_atom_site_fract_x
_atom_site_fract_y
_atom_site_fract_z
O1	O	1.263557	0.089273	0.217515
O2	O	1.513557	0.339273	0.467515
O3	O	1.763557	0.589273	0.717515
O4	O	2.013557	0.839273	0.967515
O5	O	0.987574	0.089286	0.209483
O6	O	1.237574	0.339286	0.459483
O7	O	1.487574	0.589286	0.709483
O8	O	1.737574	0.839286	0.959483
O9	O	1.132872	0.089269	0.079852
O10	O	1.382872	0.339269	0.329852
O11	O	1.632872	0.589269	0.579852
O12	O	1.882872	0.839269	0.829852
O13	O	1.118260	0.089289	0.347146
O14	O	1.368260	0.339289	0.597146
O15	O	1.618260	0.589289	0.847146
O16	O	1.868260	0.839289	1.097146
O17	O	1.121945	-0.089371	0.089619
O18	O	1.371945	0.160629	0.339619
O19	O	1.621945	0.410629	0.589619
O20	O	1.871945	0.660629	0.839619
O21	O	0.976647	-0.089355	0.219250
O22	O	1.226647	0.160645	0.469250
O23	O	1.476647	0.410645	0.719250
O24	O	1.726647	0.660645	0.969250
O25	O	1.252630	-0.089368	0.227282
O26	O	1.502630	0.160632	0.477282
O27	O	1.752630	0.410632	0.727282
O28	O	2.002630	0.660632	0.977282
Cu29	Cu	1.113641	-0.105673	0.224157
Cu30	Cu	1.363641	0.144327	0.474157
Cu31	Cu	1.613641	0.394327	0.724157
Cu32	Cu	1.863641	0.644327	0.974157
Cu33	Cu	1.126564	0.105591	0.212607
Cu34	Cu	1.376564	0.355591	0.462607
Cu35	Cu	1.626564	0.605591	0.712607
Cu36	Cu	1.876564	0.855591	0.962607
O37	O	1.107332	-0.089351	0.356913
O38	O	1.357332	0.160649	0.606913
O39	O	1.607332	0.410649	0.856913
O40	O	1.857332	0.660649	1.106913
C41	C	0.946790	-0.000033	0.210853
C42	C	1.196790	0.249967	0.460853
C43	C	1.446790	0.499967	0.710853
C44	C	1.696790	0.749967	0.960853
C45	C	0.841546	-0.000028	0.200373
C46	C	1.091546	0.249972	0.450373
C47	C	1.341546	0.499972	0.700373
C48	C	1.591546	0.749972	0.950373
N49	N	1.104559	-0.254264	0.232281
N50	N	1.354559	-0.004264	0.482281
N51	N	1.604559	0.245736	0.732281
N52	N	1.854559	0.495736	0.982281
C53	C	0.591357	-0.000034	0.255539
C54	C	0.841357	0.249966	0.505539
C55	C	1.091357	0.499966	0.755539
C56	C	1.341357	0.749966	1.005539
C57	C	0.648854	-0.000038	0.181230
C58	C	0.898854	0.249962	0.431230
C59	C	1.148854	0.499962	0.681230
C60	C	1.398854	0.749962	0.931230
C61	C	0.756077	-0.000032	0.191884
C62	C	1.006077	0.249968	0.441884
C63	C	1.256077	0.499968	0.691884
C64	C	1.506077	0.749968	0.941884
C65	C	0.484123	-0.000040	0.244886
C66	C	0.734123	0.249960	0.494886
C67	C	0.984123	0.499960	0.744886
C68	C	1.234123	0.749960	0.994886
C69	C	1.091198	-0.473378	0.244239
C70	C	1.341198	-0.223378	0.494239
C71	C	1.591198	0.026622	0.744239
C72	C	1.841198	0.276622	0.994239
C73	C	1.149010	-0.526711	0.192521
C74	C	1.399010	-0.276711	0.442521
C75	C	1.649010	-0.026711	0.692521
C76	C	1.899010	0.223289	0.942521
C77	C	1.141577	-0.648634	0.199175
C78	C	1.391577	-0.398634	0.449175
C79	C	1.641577	-0.148634	0.699175
C80	C	1.891577	0.101366	0.949175
C81	C	1.098631	-0.351444	0.237587
C82	C	1.348631	-0.101444	0.487587
C83	C	1.598631	0.148556	0.737587
C84	C	1.848631	0.398556	0.987587
C85	C	1.293414	-0.000047	0.225911
C86	C	1.543414	0.249953	0.475911
C87	C	1.793414	0.499953	0.725911
C88	C	2.043414	0.749953	0.975911
C89	C	1.398659	-0.000045	0.236391
C90	C	1.648659	0.249955	0.486391
C91	C	1.898659	0.499955	0.736391
C92	C	2.148659	0.749955	0.986391
C93	C	1.126724	-0.000051	0.050321
C94	C	1.376724	0.249949	0.300321
C95	C	1.626724	0.499949	0.550321
C96	C	1.876724	0.749949	0.800321
C97	C	1.124672	-0.000052	-0.052225
C98	C	1.374672	0.249948	0.197775
C99	C	1.624672	0.499948	0.447775
C100	C	1.874672	0.749948	0.697775
N101	N	1.135653	0.254182	0.204477
N102	N	1.385653	0.504182	0.454477
N103	N	1.635653	0.754182	0.704477
N104	N	1.885653	1.004182	0.954477
C105	C	1.123005	-0.000049	-0.135504
C106	C	1.373005	0.249951	0.114496
C107	C	1.623005	0.499951	0.364496
C108	C	1.873005	0.749951	0.614496
C109	C	1.120922	-0.000041	-0.239981
C110	C	1.370922	0.249959	0.010019
C111	C	1.620922	0.499959	0.260019
C112	C	1.870922	0.749959	0.510019
C113	C	1.119269	-0.000034	-0.323254
C114	C	1.369269	0.249966	-0.073254
C115	C	1.619269	0.499966	0.176746
C116	C	1.869269	0.749966	0.426746
C117	C	1.117186	-0.000028	-0.427738
C118	C	1.367186	0.249972	-0.177738
C119	C	1.617186	0.499972	0.072262
C120	C	1.867186	0.749972	0.322262
C121	C	1.113481	-0.000028	0.386444
C122	C	1.363481	0.249972	0.636444
C123	C	1.613481	0.499972	0.886444
C124	C	1.863481	0.749972	1.136444
C125	C	1.115533	-0.000021	0.488989
C126	C	1.365533	0.249979	0.738989
C127	C	1.615533	0.499979	0.988989
C128	C	1.865533	0.749979	1.238989
H129	H	0.617556	0.000032	0.109606
H130	H	0.867556	0.250032	0.359606
H131	H	1.117556	0.500032	0.609606
H132	H	1.367556	0.750032	0.859606
H133	H	0.622658	-0.000026	0.327153
H134	H	0.872658	0.249974	0.577153
H135	H	1.122658	0.499974	0.827153
H136	H	1.372658	0.749974	1.077153
H137	H	1.204089	-0.480805	0.143248
H138	H	1.454089	-0.230805	0.393248
H139	H	1.704089	0.019195	0.643248
H140	H	1.954089	0.269195	0.893248
H141	H	1.036125	-0.519279	0.293511
H142	H	1.286125	-0.269279	0.543511
H143	H	1.536125	-0.019279	0.793511
H144	H	1.786125	0.230721	1.043511
