data_functionalizedCrystal
_audit_creation_method	'MofGen! by Chris Wilmer'
_symmetry_space_group_name_H-M	'P1'
_symmetry_Int_Tables_number	1
_symmetry_cell_setting	triclinic
loop_
_symmetry_equiv_pos_as_xyz
  x,y,z
_cell_length_a	18.101398
_cell_length_b	18.101395
_cell_length_c	18.101389
_cell_angle_alpha	89.983159
_cell_angle_beta	90.009745
_cell_angle_gamma	89.973339
loop_
_atom_site_label
_atom_site_type_symbol
_atom_site_fract_x
_atom_site_fract_y
_atom_site_fract_z
Zn1	Zn	1.132121	0.294995	0.418559
Zn2	Zn	1.465454	0.628328	0.751892
Zn3	Zn	1.798788	0.961662	1.085225
Zn4	Zn	1.132017	0.418821	0.294721
Zn5	Zn	1.465350	0.752154	0.628054
Zn6	Zn	1.798683	1.085487	0.961387
Zn7	Zn	1.008280	0.294988	0.294751
Zn8	Zn	1.341613	0.628321	0.628085
Zn9	Zn	1.674947	0.961655	0.961418
Zn10	Zn	1.008231	0.418790	0.418541
Zn11	Zn	1.341564	0.752123	0.751874
Zn12	Zn	1.674897	1.085456	1.085207
O13	O	1.070162	0.356898	0.356643
O14	O	1.403495	0.690232	0.689976
O15	O	1.736829	1.023565	1.023310
O16	O	1.235740	0.311437	0.402126
O17	O	1.569073	0.644770	0.735459
O18	O	1.902407	0.978104	1.068793
O19	O	1.115580	0.402404	0.191092
O20	O	1.448913	0.735738	0.524425
O21	O	1.782247	1.069071	0.857758
O22	O	1.024772	0.191356	0.311195
O23	O	1.358105	0.524689	0.644528
O24	O	1.691438	0.858023	0.977862
O25	O	1.235663	0.402411	0.311143
O26	O	1.568997	0.735744	0.644476
O27	O	1.902330	1.069078	0.977809
O28	O	1.115757	0.191361	0.402156
O29	O	1.449091	0.524695	0.735489
O30	O	1.782424	0.858028	1.068822
O31	O	1.024671	0.311425	0.191114
O32	O	1.358004	0.644758	0.524448
O33	O	1.691338	0.978091	0.857781
O34	O	0.904640	0.311395	0.311178
O35	O	1.237974	0.644728	0.644511
O36	O	1.571307	0.978061	0.977844
O37	O	1.024688	0.402358	0.522176
O38	O	1.358021	0.735691	0.855509
O39	O	1.691355	1.069025	1.188843
O40	O	0.904604	0.402351	0.402125
O41	O	1.237938	0.735685	0.735458
O42	O	1.571271	1.069018	1.068792
O43	O	1.115710	0.311407	0.522189
O44	O	1.449043	0.644740	0.855523
O45	O	1.782376	0.978073	1.188856
O46	O	1.115532	0.522450	0.311125
O47	O	1.448865	0.855783	0.644459
O48	O	1.782199	1.189116	0.977792
O49	O	1.024587	0.522427	0.402095
O50	O	1.357920	0.855760	0.735429
O51	O	1.691254	1.189093	1.068762
C52	C	0.877751	0.356869	0.356653
C53	C	1.211085	0.690203	0.689987
C54	C	1.544418	1.023536	1.023320
C55	C	0.795437	0.356875	0.356675
C56	C	1.128771	0.690208	0.690008
C57	C	1.462104	1.023541	1.023342
C58	C	1.070063	0.549309	0.356621
C59	C	1.403396	0.882642	0.689954
C60	C	1.736730	1.215976	1.023288
C61	C	1.070088	0.631623	0.356637
C62	C	1.403422	0.964956	0.689970
C63	C	1.736755	1.298290	1.023303
C64	C	1.070205	0.356880	0.549805
C65	C	1.403538	0.690213	0.883138
C66	C	1.736871	1.023546	1.216471
C67	C	1.070223	0.356872	0.632119
C68	C	1.403556	0.690205	0.965452
C69	C	1.736890	1.023538	1.298786
C70	C	0.496346	0.356918	0.356644
C71	C	0.829680	0.690252	0.689978
C72	C	1.163013	1.023585	1.023311
C73	C	0.527674	0.414422	0.413583
C74	C	0.861007	0.747756	0.746917
C75	C	1.194340	1.081089	1.080250
C76	C	0.613292	0.414242	0.413817
C77	C	0.946625	0.747576	0.747151
C78	C	1.279959	1.080909	1.080484
C79	C	0.644729	0.356897	0.356660
C80	C	0.978062	0.690231	0.689993
C81	C	1.311396	1.023564	1.023326
C82	C	0.613675	0.278899	0.377985
C83	C	0.947008	0.612232	0.711319
C84	C	1.280341	0.945565	1.044652
C85	C	0.528029	0.279244	0.378390
C86	C	0.861363	0.612577	0.711723
C87	C	1.194696	0.945911	1.045057
C88	C	0.527894	0.376725	0.278242
C89	C	0.861227	0.710059	0.611575
C90	C	1.194561	1.043392	0.944909
C91	C	0.613544	0.378437	0.278661
C92	C	0.946877	0.711770	0.611994
C93	C	1.280210	1.045103	0.945328
C94	C	0.728588	0.356881	0.356667
C95	C	1.061922	0.690214	0.690000
C96	C	1.395255	1.023547	1.023334
C97	C	0.412487	0.356930	0.356639
C98	C	0.745820	0.690263	0.689972
C99	C	1.079154	1.023596	1.023305
C100	C	1.263324	0.356928	0.356633
C101	C	1.596657	0.690262	0.689966
C102	C	1.929991	1.023595	1.023300
C103	C	1.345638	0.356941	0.356629
C104	C	1.678971	0.690274	0.689962
C105	C	2.012305	1.023608	1.023295
C106	C	1.070282	0.163736	0.356681
C107	C	1.403615	0.497070	0.690014
C108	C	1.736948	0.830403	1.023348
C109	C	1.070333	0.081422	0.356697
C110	C	1.403666	0.414756	0.690030
C111	C	1.736999	0.748089	1.023364
C112	C	1.070251	0.930714	0.356676
C113	C	1.403584	1.264047	0.690010
C114	C	1.736917	1.597381	1.023343
C115	C	1.013163	0.899405	0.414054
C116	C	1.346497	1.232739	0.747388
C117	C	1.679830	1.566072	1.080721
C118	C	1.012892	0.813787	0.413875
C119	C	1.346225	1.147121	0.747208
C120	C	1.679559	1.480454	1.080542
C121	C	1.070170	0.782331	0.356657
C122	C	1.403503	1.115665	0.689991
C123	C	1.736837	1.448998	1.023324
C124	C	1.049041	0.813467	0.278611
C125	C	1.382374	1.146800	0.611945
C126	C	1.715708	1.480134	0.945278
C127	C	1.048673	0.899112	0.278955
C128	C	1.382006	1.232445	0.612288
C129	C	1.715340	1.565779	0.945621
C130	C	1.148592	0.899067	0.376658
C131	C	1.481926	1.232401	0.709991
C132	C	1.815259	1.565734	1.043324
C133	C	1.148132	0.813417	0.378369
C134	C	1.481465	1.146750	0.711703
C135	C	1.814798	1.480083	1.045036
C136	C	1.070126	0.698472	0.356642
C137	C	1.403459	1.031805	0.689975
C138	C	1.736793	1.365139	1.023308
C139	C	1.070293	1.014573	0.356687
C140	C	1.403627	1.347907	0.690020
C141	C	1.736960	1.681240	1.023353
C142	C	1.070162	0.356864	0.164232
C143	C	1.403495	0.690197	0.497566
C144	C	1.736829	1.023530	0.830899
C145	C	1.070287	0.356663	0.081919
C146	C	1.403621	0.689996	0.415252
C147	C	1.736954	1.023330	0.748585
C148	C	1.070266	0.356733	0.931210
C149	C	1.403600	0.690066	1.264543
C150	C	1.736933	1.023400	1.597877
C151	C	1.012801	0.413775	0.899877
C152	C	1.346134	0.747108	1.233210
C153	C	1.679467	1.080442	1.566543
C154	C	1.012956	0.414040	0.814258
C155	C	1.346289	0.747373	1.147592
C156	C	1.679623	1.080706	1.480925
C157	C	1.070244	0.356802	0.782827
C158	C	1.403577	0.690135	1.116161
C159	C	1.736911	1.023468	1.449494
C160	C	1.148270	0.377992	0.813914
C161	C	1.481603	0.711325	1.147247
C162	C	1.814936	1.044659	1.480581
C163	C	1.147949	0.378366	0.899559
C164	C	1.481283	0.711700	1.232892
C165	C	1.814616	1.045033	1.566226
C166	C	1.050385	0.278374	0.899637
C167	C	1.383718	0.611707	1.232971
C168	C	1.717051	0.945040	1.566304
C169	C	1.048649	0.278826	0.813987
C170	C	1.381982	0.612160	1.147320
C171	C	1.715315	0.945493	1.480653
C172	C	1.070236	0.356839	0.698968
C173	C	1.403570	0.690173	1.032301
C174	C	1.736903	1.023506	1.365635
C175	C	1.070279	0.356697	1.015070
C176	C	1.403612	0.690030	1.348403
C177	C	1.736946	1.023364	1.681736
H178	H	0.634287	0.472083	0.400452
H179	H	0.967620	0.805416	0.733785
H180	H	1.300954	1.138750	1.067119
Cl181	Cl	1.172736	0.781997	0.467049
Cl182	Cl	1.506069	1.115330	0.800382
Cl183	Cl	1.839402	1.448663	1.133715
Cl184	Cl	0.923237	0.782239	0.393445
Cl185	Cl	1.256570	1.115573	0.726779
Cl186	Cl	1.589904	1.448906	1.060112
Cl187	Cl	1.178334	0.932352	0.463026
Cl188	Cl	1.511668	1.265685	0.796360
Cl189	Cl	1.845001	1.599018	1.129693
H190	H	1.026251	0.919965	0.472113
H191	H	1.359585	1.253298	0.805446
H192	H	1.692918	1.586631	1.138779
Cl193	Cl	1.217278	0.780348	0.318553
Cl194	Cl	1.550612	1.113681	0.651887
Cl195	Cl	1.883945	1.447014	0.985220
Cl196	Cl	0.497207	0.253307	0.466881
Cl197	Cl	0.830541	0.586641	0.800214
Cl198	Cl	1.163874	0.919974	1.133547
Cl199	Cl	0.494513	0.463029	0.248313
Cl200	Cl	0.827847	0.796362	0.581646
Cl201	Cl	1.161180	1.129695	0.914979
Cl202	Cl	0.960257	0.930049	0.252821
Cl203	Cl	1.293590	1.263382	0.586155
Cl204	Cl	1.626923	1.596715	0.919488
Cl205	Cl	0.644952	0.394009	0.503506
Cl206	Cl	0.978285	0.727342	0.836839
Cl207	Cl	1.311618	1.060676	1.170172
H208	H	1.165415	0.434665	0.792469
H209	H	1.498749	0.767998	1.125802
H210	H	1.832082	1.101331	1.459136
H211	H	1.025796	0.471503	0.921400
H212	H	1.359129	0.804836	1.254734
H213	H	1.692463	1.138169	1.588067
Cl214	Cl	1.110075	0.931094	0.210695
Cl215	Cl	1.443408	1.264427	0.544029
Cl216	Cl	1.776741	1.597761	0.877362
H217	H	0.994478	0.259069	0.921237
H218	H	1.327811	0.592402	1.254570
H219	H	1.661144	0.925736	1.587904
Cl220	Cl	1.214263	0.930340	0.312149
Cl221	Cl	1.547596	1.263673	0.645482
Cl222	Cl	1.880930	1.597007	0.978815
H223	H	1.164804	0.435648	0.919540
H224	H	1.498137	0.768981	1.252873
H225	H	1.831470	1.102315	1.586206
H226	H	0.507308	0.234865	0.338820
H227	H	0.840641	0.568198	0.672153
H228	H	1.173974	0.901531	1.005486
H229	H	0.507058	0.472452	0.400367
H230	H	0.840392	0.805785	0.733701
H231	H	1.173725	1.139119	1.067034
Cl232	Cl	1.216255	0.316966	0.931565
Cl233	Cl	1.549588	0.650299	1.264898
Cl234	Cl	1.882922	0.983632	1.598232
H235	H	1.087450	0.234070	0.792592
H236	H	1.420783	0.567404	1.125925
H237	H	1.754117	0.900737	1.459258
H238	H	0.506163	0.401485	0.471339
H239	H	0.839496	0.734818	0.804672
H240	H	1.172830	1.068151	1.138005
H241	H	0.954768	0.400650	0.920477
H242	H	1.288101	0.733983	1.253810
H243	H	1.621434	1.067317	1.587143
H244	H	1.192236	0.337751	0.793556
H245	H	1.525569	0.671084	1.126889
H246	H	1.858902	1.004417	1.460222
Cl247	Cl	1.033264	0.503705	0.782627
Cl248	Cl	1.366597	0.837038	1.115960
Cl249	Cl	1.699930	1.170371	1.449293
Cl250	Cl	0.923627	0.393563	0.781804
Cl251	Cl	1.256960	0.726896	1.115138
Cl252	Cl	1.590293	1.060230	1.448471
Cl253	Cl	0.924056	0.932738	0.393895
Cl254	Cl	1.257390	1.266071	0.727229
Cl255	Cl	1.590723	1.599404	1.060562
H256	H	0.991229	0.262847	0.793669
H257	H	1.324562	0.596180	1.127002
H258	H	1.657896	0.929513	1.460336
H259	H	1.092240	0.235875	0.919901
H260	H	1.425573	0.569208	1.253235
H261	H	1.758907	0.902541	1.586568
H262	H	0.634039	0.234893	0.337807
H263	H	0.967372	0.568227	0.671140
H264	H	1.300705	0.901560	1.004474
Cl265	Cl	0.646810	0.252488	0.465515
Cl266	Cl	0.980143	0.585821	0.798848
Cl267	Cl	1.313476	0.919154	1.132182
H268	H	0.992380	0.792075	0.261380
H269	H	1.325714	1.125408	0.594713
H270	H	1.659047	1.458741	0.928047
H271	H	0.507635	0.334839	0.235817
H272	H	0.840969	0.668173	0.569150
H273	H	1.174302	1.001506	0.902484
Cl274	Cl	0.644879	0.467057	0.253832
Cl275	Cl	0.978212	0.800390	0.587165
Cl276	Cl	1.311545	1.133724	0.920498
H277	H	0.634944	0.339594	0.233959
H278	H	0.968277	0.672927	0.567292
H279	H	1.301611	1.006260	0.900625
H280	H	1.089313	0.793092	0.234695
H281	H	1.422646	1.126425	0.568028
H282	H	1.755979	1.459758	0.901362
Cl283	Cl	1.033298	0.781280	0.503224
Cl284	Cl	1.366631	1.114614	0.836557
Cl285	Cl	1.699965	1.447947	1.169891
