data_functionalizedCrystal
_audit_creation_method	'MofGen! by Chris Wilmer'
_symmetry_space_group_name_H-M	'P1'
_symmetry_Int_Tables_number	1
_symmetry_cell_setting	triclinic
loop_
_symmetry_equiv_pos_as_xyz
  x,y,z
_cell_length_a	14.908520
_cell_length_b	14.908941
_cell_length_c	14.908308
_cell_angle_alpha	83.630660
_cell_angle_beta	96.360765
_cell_angle_gamma	83.580981
loop_
_atom_site_label
_atom_site_type_symbol
_atom_site_fract_x
_atom_site_fract_y
_atom_site_fract_z
Zn1	Zn	-0.308088	-1.335359	-0.450935
Zn2	Zn	0.191912	-0.835359	0.049065
Zn3	Zn	-0.450739	-1.335256	-0.308311
Zn4	Zn	0.049261	-0.835256	0.191689
Zn5	Zn	-0.308126	-1.192730	-0.308312
Zn6	Zn	0.191874	-0.692730	0.191688
Zn7	Zn	-0.469283	-1.174091	-0.469473
Zn8	Zn	0.030717	-0.674091	0.030527
O9	O	-0.384059	-1.259359	-0.384258
O10	O	0.115941	-0.759359	0.115742
O11	O	-0.319234	-1.462484	-0.424257
O12	O	0.180766	-0.962484	0.075743
O13	O	-0.424077	-1.324107	-0.181177
O14	O	0.075923	-0.824107	0.318823
O15	O	-0.180976	-1.219494	-0.319473
O16	O	0.319024	-0.719494	0.180527
O17	O	-0.424040	-1.462408	-0.319472
O18	O	0.075960	-0.962408	0.180528
O19	O	-0.180948	-1.324283	-0.424258
O20	O	0.319052	-0.824283	0.075742
O21	O	-0.319299	-1.219394	-0.181177
O22	O	0.180701	-0.719394	0.318823
O23	O	-0.337280	-1.063119	-0.337448
O24	O	0.162720	-0.563119	0.162552
O25	O	-0.455645	-1.187726	-0.594148
O26	O	0.044355	-0.687726	-0.094148
O27	O	-0.455682	-1.049425	-0.455853
O28	O	0.044318	-0.549425	0.044147
O29	O	-0.337216	-1.306209	-0.580529
O30	O	0.162784	-0.806209	-0.080529
O31	O	-0.580344	-1.306033	-0.337448
O32	O	-0.080344	-0.806033	0.162552
O33	O	-0.593968	-1.187626	-0.455852
O34	O	-0.093968	-0.687626	0.044148
C35	C	-0.398498	-1.023306	-0.398663
C36	C	0.101502	-0.523306	0.101337
C37	C	-0.404698	-0.922319	-0.404848
C38	C	0.095302	-0.422319	0.095152
C39	C	-0.292893	-0.746763	-0.293328
C40	C	0.207107	-0.246763	0.206672
C41	C	-0.298715	-0.651877	-0.299137
C42	C	0.201285	-0.151877	0.200863
C43	C	-0.422170	-0.637659	-0.422269
C44	C	0.077830	-0.137659	0.077731
C45	C	-0.416347	-0.732545	-0.416460
C46	C	0.083653	-0.232545	0.083540
C47	C	-0.351706	-0.787094	-0.351989
C48	C	0.148294	-0.287094	0.148011
C49	C	-0.345879	-0.881982	-0.346185
C50	C	0.154121	-0.381982	0.153815
C51	C	-0.469337	-0.867763	-0.469312
C52	C	0.030663	-0.367763	0.030688
C53	C	-0.475160	-0.772877	-0.475121
C54	C	0.024840	-0.272877	0.024879
C55	C	-0.620123	-1.244819	-0.398680
C56	C	-0.120123	-0.744819	0.101320
C57	C	-0.721110	-1.238680	-0.404875
C58	C	-0.221110	-0.738680	0.095125
C59	C	-0.896624	-1.350556	-0.293309
C60	C	-0.396624	-0.850556	0.206691
C61	C	-0.991509	-1.344791	-0.299126
C62	C	-0.491509	-0.844791	0.200874
C63	C	-1.005766	-1.221391	-0.422332
C64	C	-0.505766	-0.721391	0.077668
C65	C	-0.910881	-1.227156	-0.416515
C66	C	-0.410881	-0.727156	0.083485
C67	C	-0.856313	-1.291739	-0.352000
C68	C	-0.356313	-0.791739	0.148000
C69	C	-0.761426	-1.297499	-0.346178
C70	C	-0.261426	-0.797499	0.153822
C71	C	-0.775686	-1.174104	-0.469388
C72	C	-0.275686	-0.674104	0.030612
C73	C	-0.870571	-1.168339	-0.475206
C74	C	-0.370571	-0.668339	0.024794
C75	C	-0.147073	-1.273979	-0.369797
C76	C	0.352927	-0.773979	0.130203
C77	C	-0.046083	-1.280210	-0.363635
C78	C	0.453917	-0.780210	0.136365
C79	C	-0.398495	-1.244900	-0.621225
C80	C	0.101505	-0.744900	-0.121225
C81	C	-0.404646	-1.238738	-0.722206
C82	C	0.095354	-0.738738	-0.222206
C83	C	-0.369555	-0.496335	-0.369790
C84	C	0.130445	0.003665	0.130210
C85	C	-0.363351	-0.597322	-0.363606
C86	C	0.136649	-0.097322	0.136394
C87	C	-0.292864	-1.350535	-0.897779
C88	C	0.207136	-0.850535	-0.397779
C89	C	-0.298640	-1.344748	-0.992660
C90	C	0.201360	-0.844748	-0.492660
C91	C	-0.421971	-1.221375	-1.006850
C92	C	0.078029	-0.721375	-0.506850
C93	C	-0.416194	-1.227162	-0.911969
C94	C	0.083806	-0.727162	-0.411969
C95	C	-0.351640	-1.291745	-0.857437
C96	C	0.148360	-0.791745	-0.357437
C97	C	-0.345868	-1.297535	-0.762555
C98	C	0.154132	-0.797535	-0.262555
C99	C	-0.469194	-1.174158	-0.776746
C100	C	0.030806	-0.674158	-0.276746
C101	C	-0.474970	-1.168372	-0.871627
C102	C	0.025030	-0.668372	-0.371627
C103	C	-0.369611	-1.273818	-0.148205
C104	C	0.130389	-0.773818	0.351795
C105	C	-0.363193	-1.280172	-0.047198
C106	C	0.136807	-0.780172	0.452802
H107	H	-0.517223	-0.900610	-0.517083
H108	H	-0.017223	-0.400610	-0.017083
H109	H	-0.716997	-1.350084	-0.293645
H110	H	-0.216997	-0.850084	0.206355
H111	H	-0.250823	-0.619043	-0.251370
H112	H	0.249177	-0.119043	0.248630
H113	H	-0.250777	-1.392619	-1.025502
H114	H	0.249223	-0.892619	-0.525502
H115	H	-1.024326	-1.392687	-0.251336
H116	H	-0.524326	-0.892687	0.248664
H117	H	-0.527791	-0.728451	-0.527609
H118	H	-0.027791	-0.228451	-0.027609
C119	C	-0.221858	-1.421579	-0.837792
C120	C	0.278142	-0.921579	-0.337792
N121	N	-0.168374	-1.475091	-0.792611
N122	N	0.331626	-0.975091	-0.292611
H123	H	-0.474528	-1.168795	-1.051266
H124	H	0.025472	-0.668795	-0.551266
H125	H	-0.915013	-1.115759	-0.527734
H126	H	-0.415013	-0.615759	-0.027734
C127	C	-0.836597	-1.421595	-0.222341
C128	C	-0.336597	-0.921595	0.277659
N129	N	-0.791385	-1.475105	-0.168887
N130	N	-0.291385	-0.975105	0.331113
C131	C	-0.533852	-1.109485	-0.732362
C132	C	-0.033852	-0.609485	-0.232362
N133	N	-0.582552	-1.060776	-0.698932
N134	N	-0.082552	-0.560776	-0.198932
C135	C	-0.731337	-1.109401	-0.533952
C136	C	-0.231337	-0.609401	-0.033952
N137	N	-0.697932	-1.060668	-0.582579
N138	N	-0.197932	-0.560668	-0.082579
H139	H	-0.474805	-0.593230	-0.474750
H140	H	0.025195	-0.093230	0.025250
C141	C	-0.274854	-1.368574	-0.702571
C142	C	0.225146	-0.868574	-0.202571
N143	N	-0.221361	-1.422079	-0.657393
N144	N	0.278639	-0.922079	-0.157393
C145	C	-1.065807	-1.150353	-0.493292
C146	C	-0.565807	-0.650353	0.006708
N147	N	-1.111031	-1.096844	-0.546737
N148	N	-0.611031	-0.596844	-0.046737
C149	C	-0.274775	-0.941984	-0.275264
C150	C	0.225225	-0.441984	0.224736
N151	N	-0.221220	-0.987175	-0.221841
N152	N	0.278780	-0.487175	0.278159
C153	C	-0.221784	-0.806768	-0.222414
C154	C	0.278216	-0.306768	0.277586
N155	N	-0.168224	-0.851963	-0.168999
N156	N	0.331776	-0.351963	0.331001
H157	H	-0.527527	-1.115789	-0.916039
H158	H	-0.027527	-0.615789	-0.416039
