data_functionalizedCrystal
_audit_creation_method	'MofGen! by Chris Wilmer'
_symmetry_space_group_name_H-M	'P1'
_symmetry_Int_Tables_number	1
_symmetry_cell_setting	triclinic
loop_
_symmetry_equiv_pos_as_xyz
  x,y,z
_cell_length_a	29.839131
_cell_length_b	16.959455
_cell_length_c	16.959447
_cell_angle_alpha	90.023646
_cell_angle_beta	89.970255
_cell_angle_gamma	89.963305
loop_
_atom_site_label
_atom_site_type_symbol
_atom_site_fract_x
_atom_site_fract_y
_atom_site_fract_z
Zn1	Zn	-0.178904	-1.208265	-0.447108
Zn2	Zn	0.321096	-0.708265	0.052892
Zn3	Zn	-0.254038	-1.208138	-0.314931
Zn4	Zn	0.245962	-0.708138	0.185069
Zn5	Zn	-0.178916	-1.076093	-0.314924
Zn6	Zn	0.321084	-0.576093	0.185076
Zn7	Zn	-0.254002	-1.076008	-0.447048
Zn8	Zn	0.245998	-0.576008	0.052952
O9	O	-0.216465	-1.142126	-0.381003
O10	O	0.283535	-0.642126	0.118997
O11	O	-0.188881	-1.318859	-0.429603
O12	O	0.311119	-0.818859	0.070397
O13	O	-0.244093	-1.190604	-0.204319
O14	O	0.255907	-0.690604	0.295681
O15	O	-0.116047	-1.093715	-0.332481
O16	O	0.383953	-0.593715	0.167519
O17	O	-0.244081	-1.318765	-0.332493
O18	O	0.255919	-0.818765	0.167507
O19	O	-0.116039	-1.190821	-0.429596
O20	O	0.383961	-0.690821	0.070404
O21	O	-0.188901	-1.093592	-0.204314
O22	O	0.311099	-0.593592	0.295686
O23	O	-0.188866	-0.965471	-0.332423
O24	O	0.311134	-0.465471	0.167577
O25	O	-0.244020	-1.093570	-0.557667
O26	O	0.255980	-0.593570	-0.057667
O27	O	-0.244031	-0.965409	-0.429494
O28	O	0.255969	-0.465409	0.070506
O29	O	-0.188846	-1.190739	-0.557711
O30	O	0.311154	-0.690739	-0.057711
O31	O	-0.316900	-1.190521	-0.332434
O32	O	0.183100	-0.690521	0.167566
O33	O	-0.316874	-1.093447	-0.429500
O34	O	0.183126	-0.593447	0.070500
C35	C	-0.216446	-0.936760	-0.380952
C36	C	0.283554	-0.436760	0.119048
C37	C	-0.216449	-0.848903	-0.380948
C38	C	0.283551	-0.348903	0.119052
C39	C	-0.245166	-0.477368	-0.330374
C40	C	0.254834	0.022632	0.169626
C41	C	-0.187775	-0.477487	-0.431652
C42	C	0.312225	0.022513	0.068348
C43	C	-0.187769	-0.560033	-0.431638
C44	C	0.312231	-0.060033	0.068362
C45	C	-0.216463	-0.601250	-0.380992
C46	C	0.283537	-0.101250	0.119008
C47	C	-0.245162	-0.559922	-0.330360
C48	C	0.254838	-0.059922	0.169640
C49	C	-0.159073	-0.601368	-0.482274
C50	C	0.340927	-0.101368	0.017726
C51	C	-0.159067	-0.683918	-0.482262
C52	C	0.340933	-0.183918	0.017738
C53	C	-0.187758	-0.725137	-0.431612
C54	C	0.312242	-0.225137	0.068388
C55	C	-0.216459	-0.683804	-0.380977
C56	C	0.283541	-0.183804	0.119023
C57	C	-0.245152	-0.725021	-0.330331
C58	C	0.254848	-0.225021	0.169669
C59	C	-0.273850	-0.683689	-0.279692
C60	C	0.226150	-0.183689	0.220308
C61	C	-0.273854	-0.601141	-0.279709
C62	C	0.226146	-0.101141	0.220291
C63	C	-0.187755	-0.807686	-0.431595
C64	C	0.312245	-0.307686	0.068405
C65	C	-0.245148	-0.807575	-0.330316
C66	C	0.254852	-0.307575	0.169684
C67	C	-0.333188	-1.141982	-0.380979
C68	C	0.166812	-0.641982	0.119021
C69	C	-0.383122	-1.141993	-0.380995
C70	C	0.116878	-0.641993	0.119005
C71	C	-0.739711	-1.091612	-0.431542
C72	C	-0.239711	-0.591612	0.068458
C73	C	-0.552038	-1.091507	-0.431517
C74	C	-0.052038	-0.591507	0.068483
O75	O	-0.527775	-1.048499	-0.474479
O76	O	-0.027775	-0.548499	0.025521
N77	N	-0.528567	-1.142077	-0.381018
N78	N	-0.028567	-0.642077	0.118982
C79	C	-0.552017	-1.192680	-0.330526
C80	C	-0.052017	-0.692680	0.169474
O81	O	-0.527748	-1.235695	-0.287579
O82	O	-0.027748	-0.735695	0.212421
C83	C	-0.739690	-1.192787	-0.330555
C84	C	-0.239690	-0.692787	0.169445
C85	C	-0.763158	-1.142209	-0.381052
C86	C	-0.263158	-0.642209	0.118948
C87	C	-0.763179	-1.041038	-0.482035
C88	C	-0.263179	-0.541038	0.017965
C89	C	-0.810095	-1.041062	-0.482037
C90	C	-0.310095	-0.541062	0.017963
C91	C	-0.833542	-1.091659	-0.431547
C92	C	-0.333542	-0.591659	0.068453
C93	C	-0.810073	-1.142233	-0.381054
C94	C	-0.310073	-0.642233	0.118946
C95	C	-0.763139	-1.243394	-0.280068
C96	C	-0.263139	-0.743394	0.219932
C97	C	-0.810060	-1.243418	-0.280081
C98	C	-0.310060	-0.743418	0.219919
C99	C	-0.833528	-1.192839	-0.330577
C100	C	-0.333528	-0.692839	0.169423
C101	C	-0.880436	-1.192853	-0.330567
C102	C	-0.380436	-0.692853	0.169433
N103	N	-0.903907	-1.142284	-0.381065
N104	N	-0.403907	-0.642284	0.118935
C105	C	-0.880460	-1.091687	-0.431556
C106	C	-0.380460	-0.591687	0.068444
C107	C	-0.453487	-1.192618	-0.330513
C108	C	0.046513	-0.692618	0.169487
C109	C	-0.406569	-1.192590	-0.330505
C110	C	0.093431	-0.692590	0.169495
C111	C	-0.406593	-1.091419	-0.431497
C112	C	0.093407	-0.591419	0.068503
C113	C	-0.453511	-1.091443	-0.431501
C114	C	0.046489	-0.591443	0.068499
C115	C	-0.476958	-1.142049	-0.381012
C116	C	0.023042	-0.642049	0.118988
C117	C	-0.978985	-1.091740	-0.431557
C118	C	-0.478985	-0.591740	0.068443
C119	C	-1.025905	-1.091765	-0.431553
C120	C	-0.525905	-0.591765	0.068447
C121	C	-1.025877	-1.192939	-0.330564
C122	C	-0.525877	-0.692939	0.169436
C123	C	-0.978962	-1.192911	-0.330565
C124	C	-0.478962	-0.692911	0.169435
C125	C	-0.955517	-1.142308	-0.381068
C126	C	-0.455517	-0.642308	0.118932
O127	O	-0.904728	-1.235845	-0.287634
O128	O	-0.404728	-0.735845	0.212366
O129	O	-0.904737	-1.048690	-0.474509
O130	O	-0.404737	-0.548690	0.025491
C131	C	-0.692795	-1.091588	-0.431539
C132	C	-0.192795	-0.591588	0.068461
C133	C	-0.669327	-1.142162	-0.381046
C134	C	-0.169327	-0.642162	0.118954
C135	C	-0.692774	-1.192759	-0.330556
C136	C	-0.192774	-0.692759	0.169444
C137	C	-0.622409	-1.142134	-0.381038
C138	C	-0.122409	-0.642134	0.118962
C139	C	-0.598962	-1.091537	-0.431528
C140	C	-0.098962	-0.591537	0.068472
C141	C	-0.622433	-1.040967	-0.482027
C142	C	-0.122433	-0.540967	0.017973
C143	C	-0.669348	-1.040991	-0.482029
C144	C	-0.169348	-0.540991	0.017971
C145	C	-0.669303	-1.243328	-0.280058
C146	C	-0.169303	-0.743328	0.219942
C147	C	-0.622388	-1.243300	-0.280058
C148	C	-0.122388	-0.743300	0.219942
C149	C	-0.598941	-1.192703	-0.330549
C150	C	-0.098941	-0.692703	0.169451
C151	C	-0.099287	-1.142292	-0.381045
C152	C	0.400713	-0.642292	0.118955
C153	C	-0.049352	-1.142363	-0.381062
C154	C	0.450648	-0.642363	0.118938
C155	C	-0.216428	-1.142159	-0.587171
C156	C	0.283572	-0.642159	-0.087171
C157	C	-0.216412	-1.142173	-0.675028
C158	C	0.283588	-0.642173	-0.175028
C159	C	-0.216479	-0.348294	-0.381041
C160	C	0.283521	0.151706	0.118959
C161	C	-0.216472	-0.436151	-0.381020
C162	C	0.283528	0.063849	0.118980
C163	C	-0.245091	-1.091676	-1.046483
C164	C	0.254909	-0.591676	-0.546483
C165	C	-0.187638	-1.192859	-1.046524
C166	C	0.312362	-0.692859	-0.546524
C167	C	-0.187648	-1.192838	-0.963978
C168	C	0.312352	-0.692838	-0.463978
C169	C	-0.216380	-1.142236	-0.922681
C170	C	0.283620	-0.642236	-0.422681
C171	C	-0.245102	-1.091655	-0.963930
C172	C	0.254898	-0.591655	-0.463930
C173	C	-0.158929	-1.243423	-0.922724
C174	C	0.341071	-0.743423	-0.422724
C175	C	-0.158938	-1.243405	-0.840173
C176	C	0.341062	-0.743405	-0.340173
C177	C	-0.187668	-1.192798	-0.798874
C178	C	0.312332	-0.692798	-0.298874
C179	C	-0.216391	-1.142215	-0.840128
C180	C	0.283609	-0.642215	-0.340128
C181	C	-0.245123	-1.091613	-0.798830
C182	C	0.254877	-0.591613	-0.298830
C183	C	-0.273844	-1.041025	-0.840082
C184	C	0.226156	-0.541025	-0.340082
C185	C	-0.273832	-1.041049	-0.922631
C186	C	0.226168	-0.541049	-0.422631
C187	C	-0.187680	-1.192775	-0.716325
C188	C	0.312320	-0.692775	-0.216325
C189	C	-0.245134	-1.091592	-0.716277
C190	C	0.254866	-0.591592	-0.216277
C191	C	-0.216470	-1.142139	-0.175637
C192	C	0.283530	-0.642139	0.324363
C193	C	-0.216359	-1.142278	-0.087781
C194	C	0.283641	-0.642278	0.412219
H195	H	-0.164391	-0.841335	-0.472826
H196	H	0.335609	-0.341335	0.027174
F197	F	-1.050879	-1.037930	-0.485300
F198	F	-0.550879	-0.537930	0.014700
F199	F	-0.128543	-0.557497	-0.536181
F200	F	0.371457	-0.057497	-0.036181
F201	F	-0.304390	-0.727565	-0.225797
F202	F	0.195610	-0.227565	0.274203
F203	F	-0.275705	-0.433380	-0.276480
F204	F	0.224295	0.066620	0.223520
F205	F	-0.304424	-0.987177	-0.796121
F206	F	0.195576	-0.487177	-0.296121
H207	H	-0.297217	-0.999866	-0.956226
H208	H	0.202783	-0.499866	-0.456226
H209	H	-0.268474	-1.050487	-1.080074
H210	H	0.231526	-0.550487	-0.580074
H211	H	-0.135540	-1.284625	-0.956354
H212	H	0.364460	-0.784625	-0.456354
F213	F	-0.157118	-1.246615	-0.672425
F214	F	0.342882	-0.746615	-0.172425
H215	H	-0.164248	-1.234061	-1.080154
H216	H	0.335752	-0.734061	-0.580154
F217	F	-0.128369	-1.297242	-0.796277
F218	F	0.371631	-0.797242	-0.296277
H219	H	-0.387494	-1.050219	-0.472607
H220	H	0.112506	-0.550219	0.027393
H221	H	-0.268513	-0.841128	-0.289071
H222	H	0.231487	-0.341128	0.210929
F223	F	-0.835066	-0.987238	-0.535792
F224	F	-0.335066	-0.487238	-0.035792
F225	F	-0.157243	-0.433619	-0.485558
F226	F	0.342757	0.066381	0.014442
F227	F	-0.304394	-0.557147	-0.225821
F228	F	0.195606	-0.057147	0.274179
F229	F	-0.128524	-0.727900	-0.536156
F230	F	0.371476	-0.227900	-0.036156
H231	H	-0.959902	-1.050535	-0.472682
H232	H	-0.459902	-0.550535	0.027318
H233	H	-0.744093	-0.999836	-0.523153
H234	H	-0.244093	-0.499836	-0.023153
H235	H	-0.472616	-1.050262	-0.472624
H236	H	0.027384	-0.550262	0.027376
F237	F	-0.478434	-1.246482	-0.276771
F238	F	0.021566	-0.746482	0.223229
F239	F	-0.381597	-1.246414	-0.276751
F240	F	0.118403	-0.746414	0.223249
H241	H	-0.688452	-0.999806	-0.523150
H242	H	-0.188452	-0.499806	-0.023150
H243	H	-0.829148	-1.284630	-0.238968
H244	H	-0.329148	-0.784630	0.261032
F245	F	-0.738172	-1.297234	-0.226328
F246	F	-0.238172	-0.797234	0.273672
F247	F	-0.953984	-1.246727	-0.276807
F248	F	-0.453984	-0.746727	0.223193
H249	H	-1.044976	-1.234132	-0.289453
H250	H	-0.544976	-0.734132	0.210547
H251	H	-0.603335	-0.999766	-0.523135
H252	H	-0.103335	-0.499766	-0.023135
H253	H	-0.688389	-1.284533	-0.238942
H254	H	-0.188389	-0.784533	0.261058
F255	F	-0.597416	-1.297135	-0.226307
F256	F	-0.097416	-0.797135	0.273693
H257	H	-0.268528	-1.050379	-0.682658
H258	H	0.231472	-0.550379	-0.182658
