data_functionalizedCrystal
_audit_creation_method	'MofGen! by Chris Wilmer'
_symmetry_space_group_name_H-M	'P1'
_symmetry_Int_Tables_number	1
_symmetry_cell_setting	triclinic
loop_
_symmetry_equiv_pos_as_xyz
  x,y,z
_cell_length_a	14.519709
_cell_length_b	13.101039
_cell_length_c	14.519731
_cell_angle_alpha	86.632198
_cell_angle_beta	96.315501
_cell_angle_gamma	86.642264
loop_
_atom_site_label
_atom_site_type_symbol
_atom_site_fract_x
_atom_site_fract_y
_atom_site_fract_z
O1	O	-1.228933	0.085070	0.115817
O2	O	-0.978933	0.335070	0.365817
O3	O	-0.728933	0.585070	0.615817
O4	O	-0.478933	0.835070	0.865817
O5	O	-0.960459	0.085105	0.130051
O6	O	-0.710459	0.335105	0.380051
O7	O	-0.460459	0.585105	0.630051
O8	O	-0.210459	0.835105	0.880051
O9	O	-1.101803	0.085077	-0.011302
O10	O	-0.851803	0.335077	0.238698
O11	O	-0.601803	0.585077	0.488698
O12	O	-0.351803	0.835077	0.738698
O13	O	-1.087588	0.085098	0.257171
O14	O	-0.837588	0.335098	0.507171
O15	O	-0.587588	0.585098	0.757171
O16	O	-0.337588	0.835098	1.007171
O17	O	-1.091662	-0.085351	-0.001144
O18	O	-0.841662	0.164649	0.248856
O19	O	-0.591662	0.414649	0.498856
O20	O	-0.341662	0.664649	0.748856
O21	O	-0.950318	-0.085323	0.140210
O22	O	-0.700318	0.164677	0.390210
O23	O	-0.450318	0.414677	0.640210
O24	O	-0.200318	0.664677	0.890210
O25	O	-1.218791	-0.085358	0.125976
O26	O	-0.968791	0.164642	0.375976
O27	O	-0.718791	0.414642	0.625976
O28	O	-0.468791	0.664642	0.875976
Zn29	Zn	-1.082944	-0.112400	0.134706
Zn30	Zn	-0.832944	0.137600	0.384706
Zn31	Zn	-0.582944	0.387600	0.634706
Zn32	Zn	-0.332944	0.637600	0.884706
Zn33	Zn	-1.096306	0.112147	0.121321
Zn34	Zn	-0.846306	0.362147	0.371321
Zn35	Zn	-0.596306	0.612147	0.621321
Zn36	Zn	-0.346306	0.862147	0.871321
O37	O	-1.077447	-0.085330	0.267329
O38	O	-0.827447	0.164670	0.517329
O39	O	-0.577447	0.414670	0.767329
O40	O	-0.327447	0.664670	1.017329
C41	C	-0.921029	-0.000105	0.134467
C42	C	-0.671029	0.249895	0.384467
C43	C	-0.421029	0.499895	0.634467
C44	C	-0.171029	0.749895	0.884467
C45	C	-0.818648	-0.000092	0.132478
C46	C	-0.568648	0.249908	0.382478
C47	C	-0.318648	0.499908	0.632478
C48	C	-0.068648	0.749908	0.882478
C49	C	-0.443749	-0.000136	0.125161
C50	C	-0.193749	0.249864	0.375161
C51	C	0.056251	0.499864	0.625161
C52	C	0.306251	0.749864	0.875161
C53	C	-0.548058	-0.000123	0.127193
C54	C	-0.298058	0.249877	0.377193
C55	C	-0.048058	0.499877	0.627193
C56	C	0.201942	0.749877	0.877193
C57	C	-0.631195	-0.000113	0.128819
C58	C	-0.381195	0.249887	0.378819
C59	C	-0.131195	0.499887	0.628819
C60	C	0.118805	0.749887	0.878819
C61	C	-0.735511	-0.000102	0.130852
C62	C	-0.485511	0.249898	0.380852
C63	C	-0.235511	0.499898	0.630852
C64	C	0.014489	0.749898	0.880852
N65	N	-1.073832	-0.265646	0.143840
N66	N	-0.823832	-0.015646	0.393840
N67	N	-0.573832	0.234354	0.643840
N68	N	-0.323832	0.484354	0.893840
C69	C	-1.061435	-0.474686	0.156276
C70	C	-0.811435	-0.224686	0.406276
C71	C	-0.561435	0.025314	0.656276
C72	C	-0.311435	0.275314	0.906276
C73	C	-1.117820	-0.525573	0.099747
C74	C	-0.867820	-0.275573	0.349747
C75	C	-0.617820	-0.025573	0.599747
C76	C	-0.367820	0.224427	0.849747
C77	C	-1.110922	-0.641890	0.106667
C78	C	-0.860922	-0.391890	0.356667
C79	C	-0.610922	-0.141890	0.606667
C80	C	-0.360922	0.108110	0.856667
C81	C	-1.068332	-0.358359	0.149357
C82	C	-0.818332	-0.108359	0.399357
C83	C	-0.568332	0.141641	0.649357
C84	C	-0.318332	0.391641	0.899357
C85	C	-0.258222	-0.000143	0.121560
C86	C	-0.008222	0.249857	0.371560
C87	C	0.241778	0.499857	0.621560
C88	C	0.491778	0.749857	0.871560
C89	C	-0.360603	-0.000142	0.123548
C90	C	-0.110603	0.249858	0.373548
C91	C	0.139397	0.499858	0.623548
C92	C	0.389397	0.749858	0.873548
C93	C	-1.096066	-0.000137	-0.040582
C94	C	-0.846066	0.249863	0.209418
C95	C	-0.596066	0.499863	0.459418
C96	C	-0.346066	0.749863	0.709418
C97	C	-1.094070	-0.000137	-0.142963
C98	C	-0.844070	0.249863	0.107037
C99	C	-0.594070	0.499863	0.357037
C100	C	-0.344070	0.749863	0.607037
N101	N	-1.105425	0.265393	0.112180
N102	N	-0.855425	0.515393	0.362180
N103	N	-0.605425	0.765393	0.612180
N104	N	-0.355425	1.015393	0.862180
C105	C	-1.092449	-0.000135	-0.226107
C106	C	-0.842449	0.249865	0.023893
C107	C	-0.592449	0.499865	0.273893
C108	C	-0.342449	0.749865	0.523893
C109	C	-1.090423	-0.000127	-0.330416
C110	C	-0.840423	0.249873	-0.080416
C111	C	-0.590423	0.499873	0.169584
C112	C	-0.340423	0.749873	0.419584
C113	C	-1.088815	-0.000120	-0.413556
C114	C	-0.838815	0.249880	-0.163556
C115	C	-0.588815	0.499880	0.086444
C116	C	-0.338815	0.749880	0.336444
C117	C	-1.086789	-0.000114	-0.517871
C118	C	-0.836789	0.249886	-0.267871
C119	C	-0.586789	0.499886	-0.017871
C120	C	-0.336789	0.749886	0.232129
C121	C	-1.083184	-0.000114	0.296609
C122	C	-0.833184	0.249886	0.546609
C123	C	-0.583184	0.499886	0.796609
C124	C	-0.333184	0.749886	1.046609
C125	C	-1.085181	-0.000107	0.398989
C126	C	-0.835181	0.249893	0.648989
C127	C	-0.585181	0.499893	0.898989
C128	C	-0.335181	0.749893	1.148989
H129	H	-1.007985	-0.518473	0.209865
H130	H	-0.757985	-0.268473	0.459865
H131	H	-0.507985	-0.018473	0.709865
H132	H	-0.257985	0.231527	0.959865
O133	O	-1.188627	-0.467576	0.028754
O134	O	-0.938627	-0.217576	0.278754
O135	O	-0.688627	0.032424	0.528754
O136	O	-0.438627	0.282424	0.778754
H137	H	-1.236443	-0.418698	0.064732
H138	H	-0.986443	-0.168698	0.314732
H139	H	-0.736443	0.081302	0.564732
H140	H	-0.486443	0.331302	0.814732
