data_functionalizedCrystal
_audit_creation_method	'MofGen! by Chris Wilmer'
_symmetry_space_group_name_H-M	'P1'
_symmetry_Int_Tables_number	1
_symmetry_cell_setting	triclinic
loop_
_symmetry_equiv_pos_as_xyz
  x,y,z
_cell_length_a	13.897448
_cell_length_b	11.169417
_cell_length_c	11.169409
_cell_angle_alpha	89.980487
_cell_angle_beta	89.964424
_cell_angle_gamma	90.018942
loop_
_atom_site_label
_atom_site_type_symbol
_atom_site_fract_x
_atom_site_fract_y
_atom_site_fract_z
Zn1	Zn	-0.383905	1.834901	-0.678506
Zn2	Zn	-0.545240	1.834765	-0.477811
Zn3	Zn	-0.383964	1.634187	-0.477841
Zn4	Zn	-0.545163	1.634169	-0.678457
O5	O	-0.464568	1.734505	-0.578154
O6	O	-0.405314	2.002833	-0.651891
O7	O	-0.523904	1.808108	-0.309865
O8	O	-0.248975	1.660877	-0.504493
O9	O	-0.523846	2.002732	-0.504442
O10	O	-0.248931	1.808341	-0.651920
O11	O	-0.405416	1.660744	-0.309887
O12	O	-0.405340	1.466235	-0.504446
O13	O	-0.523714	1.660846	-0.846414
O14	O	-0.523772	1.466221	-0.651837
O15	O	-0.405238	1.808323	-0.846449
O16	O	-0.680212	1.808090	-0.504395
O17	O	-0.680155	1.660713	-0.651808
C18	C	-0.464555	1.422681	-0.578140
C19	C	-0.464573	1.289281	-0.578163
C20	C	-0.715182	1.734418	-0.578119
C21	C	-0.822396	1.734490	-0.578144
C22	C	-1.018691	1.734616	-0.578220
C23	C	-0.909459	1.734543	-0.578181
C24	C	-0.212975	1.734626	-0.578215
C25	C	-0.105761	1.734677	-0.578241
C26	C	-0.464461	1.734597	-0.891196
C27	C	-0.464415	1.734637	-1.024597
C28	C	-0.464582	2.047548	-0.578168
C29	C	-0.464588	2.180948	-0.578175
C30	C	-0.464605	1.734483	-0.266329
C31	C	-0.464379	1.734676	-0.132930
