data_functionalizedCrystal
_audit_creation_method	'MofGen! by Chris Wilmer'
_symmetry_space_group_name_H-M	'P1'
_symmetry_Int_Tables_number	1
_symmetry_cell_setting	triclinic
loop_
_symmetry_equiv_pos_as_xyz
  x,y,z
_cell_length_a	16.109301
_cell_length_b	12.811415
_cell_length_c	15.186229
_cell_angle_alpha	84.565396
_cell_angle_beta	89.999006
_cell_angle_gamma	83.754019
loop_
_atom_site_label
_atom_site_type_symbol
_atom_site_fract_x
_atom_site_fract_y
_atom_site_fract_z
O1	O	1.103626	0.134913	-0.083952
O2	O	0.861626	0.151703	-0.085305
O3	O	0.988714	-0.009486	-0.072423
O4	O	0.976538	0.296103	-0.096835
O5	O	0.988706	-0.009489	0.074035
O6	O	0.861618	0.151700	0.061152
O7	O	1.103618	0.134911	0.062505
Zn8	Zn	0.982616	0.143305	0.085082
Zn9	Zn	0.982628	0.143308	-0.107882
O10	O	0.976530	0.296100	0.049623
C11	C	0.830644	0.151021	-0.012024
C12	C	0.738342	0.148982	-0.011865
C13	C	0.429670	0.237963	-0.018958
C14	C	0.516398	0.239889	-0.019117
C15	C	0.535568	0.048643	-0.003851
C16	C	0.448842	0.046719	-0.003699
C17	C	0.395895	0.141382	-0.011248
C18	C	0.569349	0.145232	-0.011560
C19	C	0.663382	0.147319	-0.011732
C20	C	0.301856	0.139295	-0.011077
C21	C	0.988028	-0.048592	0.003928
C22	C	0.985984	-0.165109	0.013230
C23	C	0.982139	-0.384044	-0.128977
C24	C	0.980219	-0.493522	-0.120241
C25	C	0.980218	-0.493546	0.039436
C26	C	0.982138	-0.384067	0.030700
C27	C	0.983100	-0.329320	-0.053509
C28	C	0.985026	-0.219841	-0.062244
C29	C	0.985019	-0.219865	0.097433
C30	C	0.983099	-0.329344	0.106169
C31	C	1.134599	0.135592	-0.010778
C32	C	1.226902	0.137631	-0.010942
C33	C	0.977216	0.335205	-0.026730
C34	C	0.979260	0.451723	-0.036037
N35	N	0.982615	0.143303	0.216775
N36	N	0.982636	0.143303	-0.239574
C37	C	1.038909	0.071952	0.448200
C38	C	1.038911	0.071950	0.540390
C39	C	0.926336	0.214657	0.528994
C40	C	0.926330	0.214653	0.436806
C41	C	0.982621	0.143302	0.396412
C42	C	0.982630	0.143303	0.580789
C43	C	0.982632	0.143301	0.680745
C44	C	0.982618	0.143303	0.296449
H45	H	0.386563	0.315044	-0.025106
C46	C	1.100824	-0.006544	0.403770
N47	N	1.147458	-0.065674	0.370309
H48	H	0.880506	0.272751	0.561892
H49	H	0.578688	-0.028428	0.002297
H50	H	0.880490	0.272756	0.394637
H51	H	0.979433	-0.538073	-0.181696
H52	H	0.421343	-0.031934	0.002577
C53	C	0.553546	0.346136	-0.027592
N54	N	0.581524	0.426166	-0.033974
C55	C	0.986080	-0.159620	-0.154875
N56	N	0.986871	-0.114265	-0.224648
C57	C	0.983201	-0.323820	-0.221607
N58	N	0.984000	-0.278462	-0.291378
H59	H	0.979429	-0.538138	0.107996
C60	C	0.982038	-0.389577	0.198794
N61	N	0.981241	-0.434944	0.268562
C62	C	0.986078	-0.159661	0.180453
N63	N	0.986878	-0.114314	0.242983
C64	C	1.100826	-0.006550	0.597354
N65	N	1.147459	-0.065683	0.640260
