data_functionalizedCrystal
_audit_creation_method	'MofGen! by Chris Wilmer'
_symmetry_space_group_name_H-M	'P1'
_symmetry_Int_Tables_number	1
_symmetry_cell_setting	triclinic
loop_
_symmetry_equiv_pos_as_xyz
  x,y,z
_cell_length_a	16.120484
_cell_length_b	15.297475
_cell_length_c	15.296721
_cell_angle_alpha	88.382971
_cell_angle_beta	101.986619
_cell_angle_gamma	96.312526
loop_
_atom_site_label
_atom_site_type_symbol
_atom_site_fract_x
_atom_site_fract_y
_atom_site_fract_z
Zn1	Zn	-0.646918	-1.212938	-0.755054
Zn2	Zn	-0.146918	-0.712938	-0.255054
Zn3	Zn	-0.766608	-1.230713	-0.613834
Zn4	Zn	-0.266608	-0.730713	-0.113834
Zn5	Zn	-0.600221	-1.094736	-0.581241
Zn6	Zn	-0.100221	-0.594736	-0.081241
Zn7	Zn	-0.758437	-1.059451	-0.734603
Zn8	Zn	-0.258437	-0.559451	-0.234603
O9	O	-0.693046	-1.149459	-0.671183
O10	O	-0.193046	-0.649459	-0.171183
O11	O	-0.685757	-1.336437	-0.758520
O12	O	-0.185757	-0.836437	-0.258520
O13	O	-0.728413	-1.234882	-0.486227
O14	O	-0.228413	-0.734882	0.013773
O15	O	-0.490111	-1.117743	-0.599215
O16	O	0.009889	-0.617743	-0.099215
O17	O	-0.773693	-1.349497	-0.654767
O18	O	-0.273693	-0.849497	-0.154767
O19	O	-0.524419	-1.204586	-0.726915
O20	O	-0.024419	-0.704586	-0.226915
O21	O	-0.606170	-1.134980	-0.462281
O22	O	-0.106170	-0.634980	0.037719
O23	O	-0.598247	-0.968914	-0.579385
O24	O	-0.098247	-0.468914	-0.079385
O25	O	-0.759767	-1.057605	-0.860600
O26	O	-0.259767	-0.557605	-0.360600
O27	O	-0.714488	-0.942990	-0.692060
O28	O	-0.214488	-0.442990	-0.192060
O29	O	-0.677834	-1.170371	-0.875625
O30	O	-0.177834	-0.670371	-0.375625
O31	O	-0.881829	-1.200667	-0.634936
O32	O	-0.381829	-0.700667	-0.134936
O33	O	-0.875826	-1.074842	-0.723665
O34	O	-0.375826	-0.574842	-0.223665
C35	C	-0.908991	-1.135874	-0.680642
C36	C	-0.408991	-0.635874	-0.180642
C37	C	-1.001392	-1.130137	-0.684732
C38	C	-0.501392	-0.630137	-0.184732
C39	C	-0.650414	-0.924541	-0.629967
C40	C	-0.150414	-0.424541	-0.129967
C41	C	-0.632199	-0.828315	-0.612357
C42	C	-0.132199	-0.328315	-0.112357
C43	C	-0.723098	-1.108069	-0.900972
C44	C	-0.223098	-0.608069	-0.400972
C45	C	-0.735905	-1.090431	-0.998895
C46	C	-0.235905	-0.590431	-0.498895
C47	C	-1.170573	-1.119663	-0.692220
C48	C	-0.670573	-0.619663	-0.192220
C49	C	-1.214710	-1.179409	-0.650189
C50	C	-0.714710	-0.679409	-0.150189
C51	C	-1.308848	-1.173581	-0.654355
C52	C	-0.808848	-0.673581	-0.154355
C53	C	-1.076426	-1.125489	-0.688055
C54	C	-0.576426	-0.625489	-0.188055
C55	C	-0.476265	-1.163118	-0.661711
C56	C	0.023735	-0.663118	-0.161711
C57	C	-0.383886	-1.168938	-0.657674
C58	C	0.116114	-0.668938	-0.157674
C59	C	-0.735845	-1.375256	-0.712560
C60	C	-0.235845	-0.875256	-0.212560
C61	C	-0.754083	-1.471477	-0.730193
C62	C	-0.254083	-0.971477	-0.230193
C63	C	-0.823240	-0.503219	-0.797050
C64	C	-0.323240	-0.003219	-0.297050
C65	C	-0.840360	-0.593629	-0.813594
C66	C	-0.340360	-0.093629	-0.313594
C67	C	-0.788321	-0.652304	-0.763286
C68	C	-0.288321	-0.152304	-0.263286
C69	C	-0.719159	-0.620562	-0.696432
C70	C	-0.219159	-0.120562	-0.196432
C71	C	-0.702042	-0.530145	-0.679882
C72	C	-0.202042	-0.030145	-0.179882
C73	C	-0.667123	-0.679230	-0.646118
C74	C	-0.167123	-0.179230	-0.146118
C75	C	-0.597961	-0.647488	-0.579263
C76	C	-0.097961	-0.147488	-0.079263
C77	C	-0.580846	-0.557078	-0.562717
C78	C	-0.080846	-0.057078	-0.062717
C79	C	-0.632885	-0.498403	-0.613024
C80	C	-0.132885	0.001597	-0.113024
C81	C	-0.684241	-0.769647	-0.662668
C82	C	-0.184241	-0.269647	-0.162668
C83	C	-0.563042	-0.796573	-0.545499
C84	C	-0.063042	-0.296573	-0.045499
C85	C	-0.545922	-0.706163	-0.528956
C86	C	-0.045922	-0.206163	-0.028956
C87	C	-0.784578	-1.023430	-1.037073
C88	C	-0.284578	-0.523430	-0.537073
C89	C	-0.796615	-1.006859	-1.129076
C90	C	-0.296615	-0.506859	-0.629076
C91	C	-0.759975	-1.057283	-1.182910
C92	C	-0.259975	-0.557283	-0.682910
C93	C	-0.711296	-1.124282	-1.144731
C94	C	-0.211296	-0.624282	-0.644731
C95	C	-0.699263	-1.140859	-1.052720
C96	C	-0.199263	-0.640859	-0.552720
C97	C	-0.674660	-1.174712	-1.198557
C98	C	-0.174660	-0.674712	-0.698557
C99	C	-0.625981	-1.241711	-1.160378
C100	C	-0.125981	-0.741711	-0.660378
C101	C	-0.613950	-1.258284	-1.068375
C102	C	-0.113950	-0.758284	-0.568375
C103	C	-0.650590	-1.207860	-1.014542
C104	C	-0.150590	-0.707860	-0.514542
C105	C	-0.686693	-1.158135	-1.290568
C106	C	-0.186693	-0.658135	-0.790568
C107	C	-0.601378	-1.275564	-1.306215
C108	C	-0.101378	-0.775564	-0.806215
C109	C	-0.589341	-1.292135	-1.214211
C110	C	-0.089341	-0.792135	-0.714211
C111	C	-0.663060	-1.190742	-0.442294
C112	C	-0.163060	-0.690742	0.057706
C113	C	-0.650051	-1.208562	-0.344393
C114	C	-0.150051	-0.708562	0.155607
H115	H	-1.181796	-1.234935	-0.611077
H116	H	-0.681796	-0.734935	-0.111077
H117	H	-0.489610	-0.680306	-0.474522
H118	H	0.010390	-0.180306	0.025478
Cl119	Cl	-1.221385	-1.033936	-0.752599
Cl120	Cl	-0.721385	-0.533936	-0.252599
Cl121	Cl	-0.927303	-0.633527	-0.897635
Cl122	Cl	-0.427303	-0.133527	-0.397635
H123	H	-0.740552	-0.795482	-0.717102
H124	H	-0.240552	-0.295482	-0.217102
H125	H	-0.865607	-0.455439	-0.837998
H126	H	-0.365607	0.044561	-0.337998
H127	H	-0.524538	-0.531239	-0.508271
H128	H	-0.024538	-0.031239	-0.008271
Cl129	Cl	-0.611361	-0.384739	-0.592234
Cl130	Cl	-0.111361	0.115261	-0.092234
Cl131	Cl	-0.809843	-0.765963	-0.784088
Cl132	Cl	-0.309843	-0.265963	-0.284088
Cl133	Cl	-0.497622	-0.870331	-0.482248
Cl134	Cl	0.002378	-0.370331	0.017752
H135	H	-0.726328	-1.103584	-1.321644
H136	H	-0.226328	-0.603584	-0.821644
Cl137	Cl	-0.775106	-1.036447	-1.298572
Cl138	Cl	-0.275106	-0.536447	-0.798572
Cl139	Cl	-0.857816	-0.922642	-1.177068
Cl140	Cl	-0.357816	-0.422642	-0.677068
Cl141	Cl	-0.528136	-1.376351	-1.166202
Cl142	Cl	-0.028136	-0.876351	-0.666202
H143	H	-0.814410	-0.982386	-0.993235
H144	H	-0.314410	-0.482386	-0.493235
H145	H	-0.640786	-1.221344	-0.939623
H146	H	-0.140786	-0.721344	-0.439623
Cl147	Cl	-0.552764	-1.342521	-1.020383
Cl148	Cl	-0.052764	-0.842521	-0.520383
H149	H	-0.571544	-1.316624	-1.350046
H150	H	-0.071544	-0.816624	-0.850046
