data_functionalizedCrystal
_audit_creation_method	'MofGen! by Chris Wilmer'
_symmetry_space_group_name_H-M	'P1'
_symmetry_Int_Tables_number	1
_symmetry_cell_setting	triclinic
loop_
_symmetry_equiv_pos_as_xyz
  x,y,z
_cell_length_a	17.038272
_cell_length_b	7.088929
_cell_length_c	17.038274
_cell_angle_alpha	96.682291
_cell_angle_beta	88.888328
_cell_angle_gamma	96.660609
loop_
_atom_site_label
_atom_site_type_symbol
_atom_site_fract_x
_atom_site_fract_y
_atom_site_fract_z
O1	O	1.041238	-0.158812	-0.178065
O2	O	0.813424	-0.158867	-0.175360
O3	O	0.925980	-0.158787	-0.062804
O4	O	0.928683	-0.158892	-0.290621
O5	O	0.941019	0.159199	-0.047726
O6	O	0.828464	0.159119	-0.160282
O7	O	1.056278	0.159174	-0.162987
Cu8	Cu	0.943744	0.188181	-0.160257
Cu9	Cu	0.925958	-0.187874	-0.178089
O10	O	0.943722	0.159094	-0.275542
C11	C	0.791651	0.000120	-0.165358
C12	C	0.704366	0.000101	-0.158011
N13	N	0.956259	0.452678	-0.147715
N14	N	0.913449	-0.452371	-0.190626
C15	C	0.658756	0.000071	-0.225476
C16	C	0.576745	0.000101	-0.218566
C17	C	0.540346	0.000146	-0.144190
C18	C	0.585963	0.000182	-0.076720
C19	C	0.667973	0.000166	-0.083630
C20	C	0.292961	0.000209	-0.119777
C21	C	0.210945	0.000219	-0.112871
C22	C	0.201733	0.000142	-0.254718
C23	C	0.283744	0.000114	-0.261622
C24	C	0.329355	0.000160	-0.194151
C25	C	0.456518	0.000171	-0.137125
C26	C	0.413182	0.000149	-0.201216
C27	C	1.078051	0.000183	-0.172989
C28	C	1.165335	0.000189	-0.180337
C29	C	0.931037	0.000215	-0.025972
C30	C	0.923690	0.000241	0.061313
C31	C	0.991155	0.000275	0.106924
C32	C	0.984246	0.000283	0.188936
C33	C	0.909872	0.000270	0.225336
C34	C	0.842402	0.000230	0.179719
C35	C	0.849311	0.000209	0.097708
C36	C	0.885464	0.000320	0.472727
C37	C	0.878560	0.000346	0.554744
C38	C	1.020405	0.000395	0.563955
C39	C	1.027308	0.000386	0.481943
C40	C	0.959837	0.000336	0.436332
C41	C	0.902809	0.000283	0.309166
C42	C	0.966900	0.000309	0.352503
C43	C	0.938669	0.000171	0.687629
C44	C	0.946025	0.000380	0.600355
H45	H	0.539612	0.000074	-0.273503
H46	H	1.000637	0.534366	-0.103251
H47	H	0.181312	0.000254	-0.052303
O48	O	0.337139	0.000160	-0.054162
C49	C	0.287425	0.000246	0.012964
H50	H	0.224765	-0.059965	-0.005760
H51	H	0.309969	-0.092046	0.056196
H52	H	0.287340	0.152813	0.042736
O53	O	0.770122	-0.000126	0.215025
C54	C	0.720871	-0.164811	0.184355
H55	H	0.758824	-0.279910	0.159044
H56	H	0.681546	-0.220085	0.233577
H57	H	0.682419	-0.127607	0.135645
H58	H	1.051719	0.000297	0.077293
H59	H	0.794373	0.000181	0.060572
H60	H	0.688386	0.000033	-0.286040
H61	H	1.087871	0.000396	0.452311
H62	H	0.313374	0.000055	-0.322188
O63	O	1.049867	0.000413	0.233130
C64	C	1.116990	0.000389	0.183414
H65	H	1.103967	0.060566	0.126460
H66	H	1.168959	0.092741	0.214713
H67	H	1.132324	-0.152155	0.168870
O68	O	1.085857	0.000341	0.608374
C69	C	1.063818	0.000405	0.688567
H70	H	0.999076	-0.059806	0.692954
H71	H	1.102119	-0.091899	0.718295
H72	H	1.072437	0.152965	0.719298
O73	O	0.550554	-0.000112	-0.004505
C74	C	0.495580	-0.164768	-0.004078
H75	H	0.512230	-0.279898	-0.051864
H76	H	0.496107	-0.220016	0.056105
H77	H	0.433951	-0.127536	-0.016131
H78	H	0.817994	0.000367	0.584380
H79	H	0.830523	0.000280	0.435600
H80	H	1.027453	0.000277	0.322860
H81	H	0.164589	0.000108	-0.309648
H82	H	0.842253	0.000277	0.338813
H83	H	0.442822	0.000123	-0.261772
O84	O	0.712353	-0.000068	-0.018165
C85	C	0.752253	-0.164784	-0.025717
H86	H	0.757936	-0.219724	-0.090932
H87	H	0.813627	-0.127737	0.001194
H88	H	0.717461	-0.280081	0.006479
O89	O	0.421104	-0.000139	-0.064913
C90	C	0.366124	-0.164788	-0.064497
H91	H	0.382776	-0.279917	-0.112282
H92	H	0.366640	-0.220046	-0.004314
H93	H	0.304499	-0.127544	-0.076558
H94	H	0.869080	0.465951	-0.235093
