data_functionalizedCrystal
_audit_creation_method	'MofGen! by Chris Wilmer'
_symmetry_space_group_name_H-M	'P1'
_symmetry_Int_Tables_number	1
_symmetry_cell_setting	triclinic
loop_
_symmetry_equiv_pos_as_xyz
  x,y,z
_cell_length_a	10.654562
_cell_length_b	14.519709
_cell_length_c	9.730223
_cell_angle_alpha	89.997715
_cell_angle_beta	89.996961
_cell_angle_gamma	84.085124
loop_
_atom_site_label
_atom_site_type_symbol
_atom_site_fract_x
_atom_site_fract_y
_atom_site_fract_z
O1	O	1.666579	0.129584	-0.114384
O2	O	1.300984	0.141913	-0.114367
O3	O	1.493474	0.001560	-0.114363
O4	O	1.474088	0.269936	-0.114387
O5	O	1.493472	0.001564	0.114217
O6	O	1.300982	0.141916	0.114213
O7	O	1.666576	0.129588	0.114196
Zn8	Zn	1.483779	0.135752	0.150497
Zn9	Zn	1.483782	0.135748	-0.150667
O10	O	1.474086	0.269940	0.114193
C11	C	1.254194	0.141007	-0.000075
C12	C	1.114777	0.138291	-0.000068
C13	C	1.049258	0.137026	0.124521
C14	C	0.918260	0.134482	0.124498
C15	C	0.918312	0.134471	-0.124713
C16	C	1.049309	0.137009	-0.124688
C17	C	1.114726	0.138309	0.249141
C18	C	1.049206	0.137045	0.373740
C19	C	0.918208	0.134501	0.373717
C20	C	0.852730	0.133220	0.249096
C21	C	1.492570	-0.032802	-0.000073
C22	C	1.489862	-0.135198	-0.000072
C23	C	1.479895	-0.510145	-0.000107
C24	C	1.482663	-0.405823	-0.000097
C25	C	1.484879	-0.322675	-0.000088
C26	C	1.487647	-0.218346	-0.000081
C27	C	1.713367	0.130493	-0.000099
C28	C	1.852783	0.133209	-0.000115
C29	C	1.474990	0.304302	-0.000100
C30	C	1.477698	0.406698	-0.000110
N31	N	1.483786	0.135755	0.356033
N32	N	1.483784	0.135738	-0.356204
C33	C	1.569042	0.073628	0.427961
C34	C	1.569039	0.073617	0.571844
C35	C	1.398519	0.197868	0.571859
C36	C	1.398517	0.197874	0.427978
C37	C	1.654311	0.011510	0.356015
C38	C	1.739576	-0.050621	0.427943
C39	C	1.739573	-0.050632	0.571826
C40	C	1.654305	0.011488	0.643781
H41	H	0.864990	0.133431	-0.226173
O42	O	1.112966	0.138164	0.494702
C43	C	1.202749	0.059893	0.502196
H44	H	1.227075	0.033690	0.394018
H45	H	1.162079	0.003084	0.563683
C46	C	1.293028	0.118713	0.706321
C47	C	1.322912	0.086535	0.573454
H48	H	1.367148	0.135144	0.750281
H49	H	1.232536	0.171444	0.701276
H50	H	1.259134	0.071366	0.757543
H51	H	1.356791	0.133885	0.522230
H52	H	1.383413	0.033812	0.578492
O53	O	0.854399	0.133385	0.494654
C54	C	0.764610	0.211655	0.502103
H55	H	0.740330	0.237853	0.393912
H56	H	0.805252	0.268467	0.563598
C57	C	0.674247	0.152841	0.706201
C58	C	0.644418	0.185013	0.573318
H59	H	0.600108	0.136409	0.750135
H60	H	0.734742	0.100110	0.701186
H61	H	0.708117	0.200190	0.757429
H62	H	0.610563	0.137660	0.522087
H63	H	0.583913	0.237736	0.578325
H64	H	1.102656	0.138043	-0.226139
H65	H	1.808991	-0.101202	0.369350
H66	H	0.746063	0.131146	0.249087
O67	O	1.654445	0.011369	0.216249
C68	C	1.748007	-0.056761	0.168168
H69	H	1.769798	-0.111557	0.251075
H70	H	1.837313	-0.023221	0.142642
C71	C	1.673373	-0.035171	-0.063693
C72	C	1.700129	-0.102476	0.038131
H73	H	1.643843	-0.063368	-0.143910
H74	H	1.610341	0.010732	-0.031301
H75	H	1.747800	-0.007226	-0.084948
H76	H	1.625699	-0.130411	0.059396
H77	H	1.763147	-0.148385	0.005740
H78	H	1.221390	0.140383	0.249174
O79	O	1.822510	-0.111020	0.641486
C80	C	1.897741	-0.165858	0.547126
H81	H	1.899238	-0.128029	0.444567
H82	H	1.856824	-0.234651	0.531818
C83	C	2.031331	-0.230399	0.729235
C84	C	2.033178	-0.183932	0.603274
H85	H	2.114874	-0.241552	0.763871
H86	H	1.980644	-0.193456	0.792809
H87	H	1.997228	-0.287721	0.716462
H88	H	2.067266	-0.126607	0.616052
H89	H	2.083874	-0.220866	0.539703
O90	O	1.315823	0.258178	0.641965
C91	C	1.334088	0.244835	0.784381
H92	H	1.433853	0.211050	0.804021
H93	H	1.262912	0.198090	0.825217
C94	C	1.192890	0.380541	0.834135
C95	C	1.315427	0.339052	0.858257
H96	H	1.181374	0.438657	0.879708
H97	H	1.180580	0.389529	0.738187
H98	H	1.133590	0.341577	0.868166
H99	H	1.374724	0.378011	0.824212
H100	H	1.327746	0.330073	0.954202
O101	O	1.315658	0.258314	0.358312
C102	C	1.240385	0.313131	0.452662
H103	H	1.291869	0.314526	0.555224
H104	H	1.147034	0.282544	0.467967
C105	C	1.151483	0.410732	0.270537
C106	C	1.214722	0.412451	0.396503
H107	H	1.135647	0.471996	0.235895
H108	H	1.202192	0.373799	0.206971
H109	H	1.073698	0.385238	0.283308
H110	H	1.292512	0.437934	0.383727
H111	H	1.164025	0.449391	0.460066
H112	H	1.654301	0.011467	0.760941
