data_functionalizedCrystal
_audit_creation_method	'MofGen! by Chris Wilmer'
_symmetry_space_group_name_H-M	'P1'
_symmetry_Int_Tables_number	1
_symmetry_cell_setting	triclinic
loop_
_symmetry_equiv_pos_as_xyz
  x,y,z
_cell_length_a	17.077404
_cell_length_b	18.101395
_cell_length_c	17.077396
_cell_angle_alpha	89.972533
_cell_angle_beta	89.980223
_cell_angle_gamma	90.026490
loop_
_atom_site_label
_atom_site_type_symbol
_atom_site_fract_x
_atom_site_fract_y
_atom_site_fract_z
Zn1	Zn	1.200010	-0.294921	-0.443854
Zn2	Zn	1.450010	-0.044921	-0.193854
Zn3	Zn	1.700010	0.205079	0.056146
Zn4	Zn	1.950010	0.455079	0.306146
Zn5	Zn	1.199898	-0.418769	-0.312590
Zn6	Zn	1.449898	-0.168769	-0.062590
Zn7	Zn	1.699898	0.081231	0.187410
Zn8	Zn	1.949898	0.331231	0.437410
Zn9	Zn	1.068742	-0.294936	-0.312601
Zn10	Zn	1.318742	-0.044936	-0.062601
Zn11	Zn	1.568742	0.205064	0.187399
Zn12	Zn	1.818742	0.455064	0.437399
Zn13	Zn	1.068691	-0.418715	-0.443813
Zn14	Zn	1.318691	-0.168715	-0.193813
Zn15	Zn	1.568691	0.081285	0.056187
Zn16	Zn	1.818691	0.331285	0.306187
O17	O	1.134335	-0.356835	-0.378215
O18	O	1.384335	-0.106835	-0.128215
O19	O	1.634335	0.143165	0.121785
O20	O	1.884335	0.393165	0.371785
O21	O	1.309842	-0.311366	-0.426454
O22	O	1.559842	-0.061366	-0.176454
O23	O	1.809842	0.188634	0.073546
O24	O	2.059842	0.438634	0.323546
O25	O	1.182474	-0.402372	-0.202745
O26	O	1.432474	-0.152372	0.047255
O27	O	1.682474	0.097628	0.297255
O28	O	1.932474	0.347628	0.547255
O29	O	1.086223	-0.191301	-0.330034
O30	O	1.336223	0.058699	-0.080034
O31	O	1.586223	0.308699	0.169966
O32	O	1.836223	0.558699	0.419966
O33	O	1.309760	-0.402357	-0.330015
O34	O	1.559760	-0.152357	-0.080015
O35	O	1.809760	0.097643	0.169985
O36	O	2.059760	0.347643	0.419985
O37	O	1.182665	-0.191290	-0.426465
O38	O	1.432665	0.058710	-0.176465
O39	O	1.682665	0.308710	0.073535
O40	O	1.932665	0.558710	0.323535
O41	O	1.086114	-0.311392	-0.202753
O42	O	1.336114	-0.061392	0.047247
O43	O	1.586114	0.188608	0.297247
O44	O	1.836114	0.438608	0.547247
O45	O	0.958888	-0.311340	-0.329994
O46	O	1.208888	-0.061340	-0.079994
O47	O	1.458888	0.188660	0.170006
O48	O	1.708888	0.438660	0.420006
O49	O	1.086136	-0.402264	-0.553666
O50	O	1.336136	-0.152264	-0.303666
O51	O	1.586136	0.097736	-0.053666
O52	O	1.836136	0.347736	0.196334
O53	O	0.958851	-0.402279	-0.426395
O54	O	1.208851	-0.152279	-0.176395
O55	O	1.458851	0.097721	0.073605
O56	O	1.708851	0.347721	0.323605
O57	O	1.182616	-0.311313	-0.553696
O58	O	1.432616	-0.061313	-0.303696
O59	O	1.682616	0.188687	-0.053696
O60	O	1.932616	0.438687	0.196304
O61	O	1.182425	-0.522395	-0.329976
O62	O	1.432425	-0.272395	-0.079976
O63	O	1.682425	-0.022395	0.170024
O64	O	1.932425	0.227605	0.420024
O65	O	1.086028	-0.522355	-0.426385
O66	O	1.336028	-0.272355	-0.176385
O67	O	1.586028	-0.022355	0.073615
O68	O	1.836028	0.227645	0.323615
C69	C	0.930387	-0.356806	-0.378192
C70	C	1.180387	-0.106806	-0.128192
C71	C	1.430387	0.143194	0.121808
C72	C	1.680387	0.393194	0.371808
C73	C	0.843137	-0.356811	-0.378201
C74	C	1.093137	-0.106811	-0.128201
C75	C	1.343137	0.143189	0.121799
C76	C	1.593137	0.393189	0.371799
C77	C	0.467324	-0.404294	-0.428354
C78	C	0.717324	-0.154294	-0.178354
C79	C	0.967324	0.095706	0.071646
C80	C	1.217324	0.345706	0.321646
C81	C	0.549305	-0.404284	-0.428342
C82	C	0.799305	-0.154284	-0.178342
C83	C	1.049305	0.095716	0.071658
C84	C	1.299305	0.345716	0.321658
C85	C	0.590288	-0.356855	-0.378227
C86	C	0.840288	-0.106855	-0.128227
C87	C	1.090288	0.143145	0.121773
C88	C	1.340288	0.393145	0.371773
C89	C	0.549288	-0.309438	-0.328115
C90	C	0.799288	-0.059438	-0.078115
C91	C	1.049288	0.190562	0.171885
C92	C	1.299288	0.440562	0.421885
C93	C	0.467309	-0.309452	-0.328124
C94	C	0.717309	-0.059452	-0.078124
C95	C	0.967309	0.190548	0.171876
C96	C	1.217309	0.440548	0.421876
C97	C	0.720158	-0.309411	-0.328102
C98	C	0.970158	-0.059411	-0.078102
C99	C	1.220158	0.190589	0.171898
C100	C	1.470158	0.440589	0.421898
C101	C	0.802142	-0.309396	-0.328095
C102	C	1.052142	-0.059396	-0.078095
C103	C	1.302142	0.190604	0.171905
C104	C	1.552142	0.440604	0.421905
C105	C	0.802154	-0.404243	-0.428321
C106	C	1.052154	-0.154243	-0.178321
C107	C	1.302154	0.095757	0.071679
C108	C	1.552154	0.345757	0.321679
C109	C	0.720175	-0.404257	-0.428329
C110	C	0.970175	-0.154257	-0.178329
C111	C	1.220175	0.095743	0.071671
C112	C	1.470175	0.345743	0.321671
C113	C	0.679179	-0.356839	-0.378218
C114	C	0.929179	-0.106839	-0.128218
C115	C	1.179179	0.143161	0.121782
C116	C	1.429179	0.393161	0.371782
C117	C	1.134230	-0.549246	-0.378192
C118	C	1.384230	-0.299246	-0.128192
C119	C	1.634230	-0.049246	0.121808
C120	C	1.884230	0.200754	0.371808
C121	C	1.134257	-0.631560	-0.378208
C122	C	1.384257	-0.381560	-0.128208
C123	C	1.634257	-0.131560	0.121792
C124	C	1.884257	0.118440	0.371792
C125	C	1.134429	-0.930651	-0.378250
C126	C	1.384429	-0.680651	-0.128250
C127	C	1.634429	-0.430651	0.121750
C128	C	1.884429	-0.180651	0.371750
C129	C	1.073919	-0.899331	-0.439059
C130	C	1.323919	-0.649331	-0.189059
C131	C	1.573919	-0.399331	0.060941
C132	C	1.823919	-0.149331	0.310941
C133	C	1.073632	-0.813714	-0.438869
C134	C	1.323632	-0.563714	-0.188869
C135	C	1.573632	-0.313714	0.061131
C136	C	1.823632	-0.063714	0.311131
C137	C	1.134344	-0.782268	-0.378230
C138	C	1.384344	-0.532268	-0.128230
C139	C	1.634344	-0.282268	0.121770
C140	C	1.884344	-0.032268	0.371770
C141	C	1.111947	-0.813418	-0.295500
C142	C	1.361947	-0.563418	-0.045500
C143	C	1.611947	-0.313418	0.204500
C144	C	1.861947	-0.063418	0.454500
C145	C	1.111557	-0.899063	-0.295864
C146	C	1.361557	-0.649063	-0.045864
C147	C	1.611557	-0.399063	0.204136
C148	C	1.861557	-0.149063	0.454136
C149	C	1.217469	-0.899001	-0.399443
C150	C	1.467469	-0.649001	-0.149443
C151	C	1.717469	-0.399001	0.100557
C152	C	1.967469	-0.149001	0.350557
C153	C	1.216980	-0.813350	-0.401257
C154	C	1.466980	-0.563350	-0.151257
C155	C	1.716980	-0.313350	0.098743
C156	C	1.966980	-0.063350	0.348743
C157	C	1.134297	-0.698409	-0.378213
C158	C	1.384297	-0.448409	-0.128213
C159	C	1.634297	-0.198409	0.121787
C160	C	1.884297	0.051591	0.371787
C161	C	1.134474	-1.014510	-0.378261
C162	C	1.384474	-0.764510	-0.128261
C163	C	1.634474	-0.514510	0.121739
C164	C	1.884474	-0.264510	0.371739
C165	C	1.339079	-0.356866	-0.378238
C166	C	1.589079	-0.106866	-0.128238
C167	C	1.839079	0.143134	0.121762
C168	C	2.089079	0.393134	0.371762
C169	C	1.426329	-0.356879	-0.378248
C170	C	1.676329	-0.106879	-0.128248
C171	C	1.926329	0.143121	0.121752
C172	C	2.176329	0.393121	0.371752
C173	C	1.134462	-0.163673	-0.378255
C174	C	1.384462	0.086327	-0.128255
C175	C	1.634462	0.336327	0.121745
C176	C	1.884462	0.586327	0.371745
C177	C	1.134516	-0.081359	-0.378272
C178	C	1.384516	0.168641	-0.128272
C179	C	1.634516	0.418641	0.121728
C180	C	1.884516	0.668641	0.371728
C181	C	1.134383	-0.356781	-0.582959
C182	C	1.384383	-0.106781	-0.332959
C183	C	1.634383	0.143219	-0.082959
C184	C	1.884383	0.393219	0.167041
C185	C	1.134403	-0.356758	-0.670209
C186	C	1.384403	-0.106758	-0.420209
C187	C	1.634403	0.143242	-0.170209
C188	C	1.884403	0.393242	0.079791
C189	C	1.184641	-0.309395	-0.711216
C190	C	1.434641	-0.059395	-0.461216
C191	C	1.684641	0.190605	-0.211216
C192	C	1.934641	0.440605	0.038784
C193	C	1.184651	-0.309371	-0.793196
C194	C	1.434651	-0.059371	-0.543196
C195	C	1.684651	0.190629	-0.293196
C196	C	1.934651	0.440629	-0.043196
C197	C	1.134425	-0.356713	-0.834168
C198	C	1.384425	-0.106713	-0.584168
C199	C	1.634425	0.143287	-0.334168
C200	C	1.884425	0.393287	-0.084168
C201	C	1.084181	-0.404077	-0.793156
C202	C	1.334181	-0.154077	-0.543156
C203	C	1.584181	0.095923	-0.293156
C204	C	1.834181	0.345923	-0.043156
C205	C	1.084168	-0.404097	-0.711177
C206	C	1.334168	-0.154097	-0.461177
C207	C	1.584168	0.095903	-0.211177
C208	C	1.834168	0.345903	0.038823
C209	C	1.084212	-0.404032	-0.964026
C210	C	1.334212	-0.154032	-0.714026
C211	C	1.584212	0.095968	-0.464026
C212	C	1.834212	0.345968	-0.214026
C213	C	1.084226	-0.404013	-1.046010
C214	C	1.334226	-0.154013	-0.796010
C215	C	1.584226	0.095987	-0.546010
C216	C	1.834226	0.345987	-0.296010
C217	C	1.184695	-0.309306	-1.046046
C218	C	1.434695	-0.059306	-0.796046
C219	C	1.684695	0.190694	-0.546046
C220	C	1.934695	0.440694	-0.296046
C221	C	1.184683	-0.309326	-0.964067
C222	C	1.434683	-0.059326	-0.714067
C223	C	1.684683	0.190674	-0.464067
C224	C	1.934683	0.440674	-0.214067
C225	C	1.134439	-0.356692	-0.923059
C226	C	1.384439	-0.106692	-0.673059
C227	C	1.634439	0.143308	-0.423059
C228	C	1.884439	0.393308	-0.173059
C229	C	1.134333	-0.356836	-0.174267
C230	C	1.384333	-0.106836	0.075733
C231	C	1.634333	0.143164	0.325733
C232	C	1.884333	0.393164	0.575733
C233	C	1.134465	-0.356651	-0.087017
C234	C	1.384465	-0.106651	0.162983
C235	C	1.634465	0.143349	0.412983
C236	C	1.884465	0.393349	0.662983
H237	H	0.433932	-0.270840	-0.287324
H238	H	0.683932	-0.020840	-0.037324
H239	H	0.933932	0.229160	0.212676
H240	H	1.183932	0.479160	0.462676
H241	H	1.012743	-0.920913	-0.425197
H242	H	1.262743	-0.670913	-0.175197
H243	H	1.512743	-0.420913	0.074803
H244	H	1.762743	-0.170913	0.324803
H245	H	1.087644	-0.792650	-0.500212
H246	H	1.337644	-0.542650	-0.250212
H247	H	1.587644	-0.292650	-0.000212
H248	H	1.837644	-0.042650	0.249788
H249	H	1.087793	-0.919880	-0.500600
H250	H	1.337793	-0.669880	-0.250600
H251	H	1.587793	-0.419880	-0.000600
H252	H	1.837793	-0.169880	0.249400
H253	H	1.225544	-0.270846	-0.677862
H254	H	1.475544	-0.020846	-0.427862
H255	H	1.725544	0.229154	-0.177862
H256	H	1.975544	0.479154	0.072138
H257	H	1.237888	-0.920550	-0.458741
H258	H	1.487888	-0.670550	-0.208741
H259	H	1.737888	-0.420550	0.041259
H260	H	1.987888	-0.170550	0.291259
H261	H	0.835536	-0.442851	-0.469125
H262	H	1.085536	-0.192851	-0.219125
H263	H	1.335536	0.057149	0.030875
H264	H	1.585536	0.307149	0.280875
H265	H	0.582679	-0.442896	-0.469142
H266	H	0.832679	-0.192896	-0.219142
H267	H	1.082679	0.057104	0.030858
H268	H	1.332679	0.307104	0.280858
H269	H	0.686808	-0.442874	-0.469141
H270	H	0.936808	-0.192874	-0.219141
H271	H	1.186808	0.057126	0.030859
H272	H	1.436808	0.307126	0.280859
H273	H	1.012081	-0.793286	-0.424830
H274	H	1.262081	-0.543286	-0.174830
H275	H	1.512081	-0.293286	0.075170
H276	H	1.762081	-0.043286	0.325170
H277	H	1.233870	-0.792988	-0.462142
H278	H	1.483870	-0.542988	-0.212142
H279	H	1.733870	-0.292988	0.037858
H280	H	1.983870	-0.042988	0.287858
H281	H	1.154633	-0.793051	-0.248958
H282	H	1.404633	-0.543051	0.001042
H283	H	1.654633	-0.293051	0.251042
H284	H	1.904633	-0.043051	0.501042
H285	H	1.043326	-0.442561	-1.079368
H286	H	1.293326	-0.192561	-0.829368
H287	H	1.543326	0.057439	-0.579368
H288	H	1.793326	0.307439	-0.329368
H289	H	0.433961	-0.442912	-0.469168
H290	H	0.683961	-0.192912	-0.219168
H291	H	0.933961	0.057088	0.030832
H292	H	1.183961	0.307088	0.280832
H293	H	1.050855	-0.919102	-0.277912
H294	H	1.300855	-0.669102	-0.027912
H295	H	1.550855	-0.419102	0.222088
H296	H	1.800855	-0.169102	0.472088
H297	H	0.835509	-0.270768	-0.287294
H298	H	1.085509	-0.020768	-0.037294
H299	H	1.335509	0.229232	0.212706
H300	H	1.585509	0.479232	0.462706
H301	H	0.686782	-0.270796	-0.287298
H302	H	0.936782	-0.020796	-0.037298
H303	H	1.186782	0.229204	0.212702
H304	H	1.436782	0.479204	0.462702
H305	H	1.262551	-0.919254	-0.355154
H306	H	1.512551	-0.669254	-0.105154
H307	H	1.762551	-0.419254	0.144846
H308	H	2.012551	-0.169254	0.394846
H309	H	0.582663	-0.270824	-0.287307
H310	H	0.832663	-0.020824	-0.037307
H311	H	1.082663	0.229176	0.212693
H312	H	1.332663	0.479176	0.462693
H313	H	1.153718	-0.919784	-0.249012
H314	H	1.403718	-0.669784	0.000988
H315	H	1.653718	-0.419784	0.250988
H316	H	1.903718	-0.169784	0.500988
H317	H	1.225562	-0.270805	-0.826581
H318	H	1.475562	-0.020805	-0.576581
H319	H	1.725562	0.229195	-0.326581
H320	H	1.975562	0.479195	-0.076581
H321	H	1.051888	-0.792029	-0.277226
H322	H	1.301888	-0.542029	-0.027226
H323	H	1.551888	-0.292029	0.222774
H324	H	1.801888	-0.042029	0.472774
H325	H	1.043251	-0.442657	-0.677790
H326	H	1.293251	-0.192657	-0.427790
H327	H	1.543251	0.057343	-0.177790
H328	H	1.793251	0.307343	0.072210
H329	H	1.264448	-0.791941	-0.360196
H330	H	1.514448	-0.541941	-0.110196
H331	H	1.764448	-0.291941	0.139804
H332	H	2.014448	-0.041941	0.389804
H333	H	1.225585	-0.270781	-0.930709
H334	H	1.475585	-0.020781	-0.680709
H335	H	1.725585	0.229219	-0.430709
H336	H	1.975585	0.479219	-0.180709
H337	H	1.225604	-0.270738	-1.079437
H338	H	1.475604	-0.020738	-0.829437
H339	H	1.725604	0.229262	-0.579437
H340	H	1.975604	0.479262	-0.329437
H341	H	1.043287	-0.442591	-0.930640
H342	H	1.293287	-0.192591	-0.680640
H343	H	1.543287	0.057409	-0.430640
H344	H	1.793287	0.307409	-0.180640
H345	H	1.043283	-0.442621	-0.826522
H346	H	1.293283	-0.192621	-0.576522
H347	H	1.543283	0.057379	-0.326522
H348	H	1.793283	0.307379	-0.076522
