data_functionalizedCrystal
_audit_creation_method	'MofGen! by Chris Wilmer'
_symmetry_space_group_name_H-M	'P1'
_symmetry_Int_Tables_number	1
_symmetry_cell_setting	triclinic
loop_
_symmetry_equiv_pos_as_xyz
  x,y,z
_cell_length_a	19.121102
_cell_length_b	29.839131
_cell_length_c	19.120969
_cell_angle_alpha	92.523640
_cell_angle_beta	90.151580
_cell_angle_gamma	87.595578
loop_
_atom_site_label
_atom_site_type_symbol
_atom_site_fract_x
_atom_site_fract_y
_atom_site_fract_z
Zn1	Zn	1.055003	-0.195380	0.442073
Zn2	Zn	1.388336	0.137953	0.775406
Zn3	Zn	1.721669	0.471286	1.108740
Zn4	Zn	1.059823	-0.273907	0.324818
Zn5	Zn	1.393156	0.059426	0.658152
Zn6	Zn	1.726490	0.392760	0.991485
Zn7	Zn	0.942704	-0.195729	0.319848
Zn8	Zn	1.276038	0.137604	0.653181
Zn9	Zn	1.609371	0.470937	0.986514
Zn10	Zn	0.937699	-0.267418	0.437030
Zn11	Zn	1.271033	0.065915	0.770363
Zn12	Zn	1.604366	0.399248	1.103697
O13	O	0.998807	-0.233109	0.380942
O14	O	1.332141	0.100225	0.714276
O15	O	1.665474	0.433558	1.047609
O16	O	1.153749	-0.208366	0.430710
O17	O	1.487082	0.124967	0.764043
O18	O	1.820415	0.458300	1.097376
O19	O	1.048399	-0.266398	0.226046
O20	O	1.381732	0.066935	0.559380
O21	O	1.715066	0.400269	0.892713
O22	O	0.957678	-0.132817	0.336091
O23	O	1.291012	0.200516	0.669425
O24	O	1.624345	0.533850	1.002758
O25	O	1.157290	-0.266060	0.344563
O26	O	1.490624	0.067274	0.677897
O27	O	1.823957	0.400607	1.011230
O28	O	1.040183	-0.132561	0.425890
O29	O	1.373517	0.200773	0.759223
O30	O	1.706850	0.534106	1.092557
O31	O	0.962352	-0.208961	0.222394
O32	O	1.295686	0.124372	0.555728
O33	O	1.629019	0.457705	0.889061
O34	O	0.843934	-0.202669	0.331201
O35	O	1.177267	0.130664	0.664535
O36	O	1.510600	0.463997	0.997868
O37	O	0.949148	-0.255001	0.535812
O38	O	1.282481	0.078333	0.869145
O39	O	1.615814	0.411666	1.202478
O40	O	0.840257	-0.255339	0.417295
O41	O	1.173590	0.077994	0.750628
O42	O	1.506923	0.411328	1.083961
O43	O	1.035330	-0.202075	0.539517
O44	O	1.368664	0.131259	0.872850
O45	O	1.701997	0.464592	1.206184
O46	O	1.043546	-0.335912	0.339673
O47	O	1.376879	-0.002579	0.673006
O48	O	1.710212	0.330755	1.006340
O49	O	0.953822	-0.331145	0.422115
O50	O	1.287155	0.002188	0.755448
O51	O	1.620489	0.335522	1.088781
C52	C	0.816657	-0.228338	0.373162
C53	C	1.149991	0.104995	0.706495
C54	C	1.483324	0.438328	1.039828
C55	C	0.738732	-0.226308	0.369850
C56	C	1.072065	0.107025	0.703183
C57	C	1.405398	0.440359	1.036516
C58	C	0.700229	-0.252822	0.413048
C59	C	1.033562	0.080512	0.746381
C60	C	1.366896	0.413845	1.079714
C61	C	0.627010	-0.250908	0.409939
C62	C	0.960343	0.082425	0.743272
C63	C	1.293677	0.415759	1.076606
C64	C	0.592295	-0.222482	0.363629
C65	C	0.925628	0.110851	0.696962
C66	C	1.258961	0.444184	1.030295
C67	C	0.630803	-0.195966	0.320429
C68	C	0.964136	0.137368	0.653763
C69	C	1.297469	0.470701	0.987096
C70	C	0.704020	-0.197877	0.323542
C71	C	1.037354	0.135456	0.656875
C72	C	1.370687	0.468789	0.990208
C73	C	0.371319	-0.215334	0.351995
C74	C	0.704652	0.118000	0.685329
C75	C	1.037986	0.451333	1.018662
C76	C	0.298096	-0.213425	0.348884
C77	C	0.631429	0.119908	0.682218
C78	C	0.964763	0.453242	1.015551
C79	C	0.294308	-0.268367	0.438396
C80	C	0.627642	0.064966	0.771729
C81	C	0.960975	0.398300	1.105062
C82	C	0.367528	-0.270278	0.441501
C83	C	0.700861	0.063055	0.774834
C84	C	1.034194	0.396389	1.108168
C85	C	0.406029	-0.243760	0.398304
C86	C	0.739362	0.089574	0.731638
C87	C	1.072696	0.422907	1.064971
C88	C	0.517453	-0.220527	0.360449
C89	C	0.850786	0.112807	0.693782
C90	C	1.184120	0.446140	1.027115
C91	C	0.480869	-0.245713	0.401488
C92	C	0.814203	0.087620	0.734822
C93	C	1.147536	0.420953	1.068155
C94	C	0.998682	-0.349829	0.380902
C95	C	1.332016	-0.016496	0.714235
C96	C	1.665349	0.316838	1.047569
C97	C	0.998692	-0.399763	0.380911
C98	C	1.332025	-0.066430	0.714244
C99	C	1.665358	0.266903	1.047578
C100	C	1.045605	-0.711879	0.338084
C101	C	1.378939	-0.378546	0.671417
C102	C	1.712272	-0.045212	1.004751
C103	C	1.045691	-0.899553	0.338115
C104	C	1.379024	-0.566220	0.671448
C105	C	1.712357	-0.232887	1.004782
O106	O	1.085479	-0.925918	0.301671
O107	O	1.418812	-0.592585	0.635004
O108	O	1.752146	-0.259252	0.968337
N109	N	0.998950	-0.920553	0.381001
N110	N	1.332284	-0.587220	0.714335
N111	N	1.665617	-0.253886	1.047668
C112	C	0.952189	-0.894631	0.423886
C113	C	1.285522	-0.561298	0.757220
C114	C	1.618855	-0.227964	1.090553
O115	O	0.912440	-0.916799	0.460370
O116	O	1.245773	-0.583465	0.793703
O117	O	1.579107	-0.250132	1.127037
C118	C	0.952107	-0.706957	0.423859
C119	C	1.285441	-0.373624	0.757192
C120	C	1.618774	-0.040291	1.090525
C121	C	0.998846	-0.685960	0.380964
C122	C	1.332179	-0.352627	0.714298
C123	C	1.665512	-0.019294	1.047631
C124	C	1.092341	-0.690882	0.295194
C125	C	1.425674	-0.357548	0.628527
C126	C	1.759007	-0.024215	0.961860
C127	C	1.092316	-0.643966	0.295183
C128	C	1.425649	-0.310633	0.628517
C129	C	1.758983	0.022701	0.961850
C130	C	1.045557	-0.618047	0.338064
C131	C	1.378890	-0.284714	0.671397
C132	C	1.712223	0.048619	1.004730
C133	C	0.998821	-0.639044	0.380954
C134	C	1.332155	-0.305711	0.714287
C135	C	1.665488	0.027622	1.047621
C136	C	0.905349	-0.681036	0.466747
C137	C	1.238683	-0.347703	0.800080
C138	C	1.572016	-0.014369	1.133414
C139	C	0.905334	-0.634115	0.466738
C140	C	1.238668	-0.300781	0.800071
C141	C	1.572001	0.032552	1.133404
C142	C	0.952073	-0.613118	0.423843
C143	C	1.285406	-0.279785	0.757177
C144	C	1.618739	0.053549	1.090510
C145	C	0.952037	-0.566210	0.423824
C146	C	1.285371	-0.232877	0.757158
C147	C	1.618704	0.100457	1.090491
N148	N	0.998778	-0.545210	0.380938
N149	N	1.332111	-0.211877	0.714271
N150	N	1.665444	0.121456	1.047605
C151	C	1.045537	-0.571129	0.338058
C152	C	1.378870	-0.237796	0.671391
C153	C	1.712204	0.095538	1.004724
C154	C	0.952234	-0.993162	0.423897
C155	C	1.285567	-0.659829	0.757230
C156	C	1.618900	-0.326496	1.090564
C157	C	0.952253	-1.040081	0.423903
C158	C	1.285587	-0.706747	0.757236
C159	C	1.618920	-0.373414	1.090570
C160	C	1.045756	-1.045000	0.338132
C161	C	1.379090	-0.711667	0.671466
C162	C	1.712423	-0.378333	1.004799
C163	C	1.045733	-0.998081	0.338123
C164	C	1.379066	-0.664748	0.671456
C165	C	1.712400	-0.331414	1.004790
C166	C	0.998974	-0.972163	0.381011
C167	C	1.332307	-0.638830	0.714344
C168	C	1.665641	-0.305496	1.047677
C169	C	1.045482	-0.472602	0.338039
C170	C	1.378815	-0.139269	0.671373
C171	C	1.712149	0.194064	1.004706
C172	C	1.045451	-0.425682	0.338031
C173	C	1.378785	-0.092349	0.671364
C174	C	1.712118	0.240985	1.004697
C175	C	0.951951	-0.420767	0.423804
C176	C	1.285284	-0.087433	0.757137
C177	C	1.618618	0.245900	1.090471
C178	C	0.951979	-0.467683	0.423810
C179	C	1.285312	-0.134350	0.757143
C180	C	1.618645	0.198984	1.090477
C181	C	0.998750	-0.493600	0.380926
C182	C	1.332083	-0.160266	0.714259
C183	C	1.665417	0.173067	1.047592
O184	O	0.912275	-0.539817	0.460255
O185	O	1.245609	-0.206484	0.793589
O186	O	1.578942	0.126849	1.126922
O187	O	1.085290	-0.548953	0.301591
O188	O	1.418624	-0.215620	0.634924
O189	O	1.751957	0.117714	0.968258
C190	C	1.045630	-0.758795	0.338094
C191	C	1.378963	-0.425461	0.671427
C192	C	1.712296	-0.092128	1.004761
C193	C	0.998894	-0.779792	0.380984
C194	C	1.332228	-0.446459	0.714318
C195	C	1.665561	-0.113125	1.047651
C196	C	0.952135	-0.753873	0.423865
C197	C	1.285468	-0.420540	0.757198
C198	C	1.618802	-0.087207	1.090531
C199	C	0.998914	-0.826710	0.380991
C200	C	1.332247	-0.493377	0.714324
C201	C	1.665581	-0.160043	1.047657
C202	C	1.045673	-0.852629	0.338110
C203	C	1.379007	-0.519295	0.671444
C204	C	1.712340	-0.185962	1.004777
C205	C	1.092414	-0.831629	0.295224
C206	C	1.425747	-0.498296	0.628557
C207	C	1.759080	-0.164963	0.961891
C208	C	1.092389	-0.784713	0.295214
C209	C	1.425723	-0.451380	0.628547
C210	C	1.759056	-0.118047	0.961880
C211	C	0.905395	-0.774873	0.466751
C212	C	1.238728	-0.441540	0.800085
C213	C	1.572061	-0.108206	1.133418
C214	C	0.905422	-0.821789	0.466757
C215	C	1.238756	-0.488456	0.800091
C216	C	1.572089	-0.155122	1.133424
C217	C	0.952182	-0.847708	0.423877
C218	C	1.285515	-0.514374	0.757210
C219	C	1.618849	-0.181041	1.090544
C220	C	1.181669	-0.237898	0.388754
C221	C	1.515002	0.095435	0.722087
C222	C	1.848335	0.428769	1.055420
C223	C	1.259593	-0.239939	0.392082
C224	C	1.592927	0.093395	0.725416
C225	C	1.926260	0.426728	1.058749
C226	C	0.998951	-0.115933	0.380999
C227	C	1.332285	0.217401	0.714332
C228	C	1.665618	0.550734	1.047665
C229	C	0.999013	-0.065999	0.381023
C230	C	1.332346	0.267334	0.714356
C231	C	1.665679	0.600667	1.047689
C232	C	1.006482	-0.238390	0.198783
C233	C	1.339816	0.094943	0.532116
C234	C	1.673149	0.428276	0.865449
C235	C	1.009884	-0.240540	0.120859
C236	C	1.343218	0.092793	0.454193
C237	C	1.676551	0.426126	0.787526
C238	C	0.966358	-0.211848	0.082368
C239	C	1.299691	0.121485	0.415702
C240	C	1.633024	0.454819	0.749035
C241	C	0.969560	-0.213868	0.009151
C242	C	1.302894	0.119466	0.342485
C243	C	1.636227	0.452799	0.675818
C244	C	1.016287	-0.244583	-0.025574
C245	C	1.349620	0.088751	0.307760
C246	C	1.682953	0.422084	0.641093
C247	C	1.059818	-0.273276	0.012923
C248	C	1.393151	0.060057	0.346256
C249	C	1.726485	0.393391	0.679589
C250	C	1.056618	-0.271254	0.086138
C251	C	1.389952	0.062080	0.419472
C252	C	1.723285	0.395413	0.752805
C253	C	1.028208	-0.252173	-0.246543
C254	C	1.361542	0.081160	0.086790
C255	C	1.694875	0.414494	0.420123
C256	C	1.031403	-0.254194	-0.319765
C257	C	1.364737	0.079139	0.013569
C258	C	1.698070	0.412472	0.346902
C259	C	0.941146	-0.194785	-0.323531
C260	C	1.274480	0.138548	0.009803
C261	C	1.607813	0.471881	0.343136
C262	C	0.937948	-0.192767	-0.250313
C263	C	1.271281	0.140566	0.083020
C264	C	1.604615	0.473899	0.416353
C265	C	0.981482	-0.221459	-0.211824
C266	C	1.314815	0.111874	0.121510
C267	C	1.648148	0.445207	0.454843
C268	C	1.019560	-0.246649	-0.100413
C269	C	1.352893	0.086684	0.232920
C270	C	1.686227	0.420018	0.566254
C271	C	0.978211	-0.219390	-0.136985
C272	C	1.311545	0.113943	0.196348
C273	C	1.644878	0.447276	0.529681
C274	C	0.991143	-0.227775	0.563815
C275	C	1.324476	0.105558	0.897148
C276	C	1.657810	0.438892	1.230482
C277	C	0.987877	-0.225502	0.641745
C278	C	1.321210	0.107831	0.975078
C279	C	1.654544	0.441165	1.308411
H280	H	0.395788	-0.293426	0.479210
H281	H	0.729121	0.039907	0.812544
H282	H	1.062454	0.373240	1.145877
H283	H	1.130485	-0.852740	0.260307
H284	H	1.463819	-0.519407	0.593640
H285	H	1.797152	-0.186074	0.926974
O286	O	0.927208	-0.185977	-0.028133
O287	O	1.260541	0.147356	0.305201
O288	O	1.593875	0.480690	0.638534
C289	C	0.885291	-0.158428	0.018217
C290	C	1.218624	0.174906	0.351550
C291	C	1.551957	0.508239	0.684883
H292	H	0.880770	-0.175344	0.070226
H293	H	1.214103	0.157989	0.403560
H294	H	1.547437	0.491322	0.736893
H295	H	0.830935	-0.153030	-0.005380
H296	H	1.164268	0.180303	0.327953
H297	H	1.497602	0.513636	0.661287
H298	H	0.910270	-0.124632	0.027283
H299	H	1.243604	0.208701	0.360616
H300	H	1.576937	0.542034	0.693950
O301	O	0.859938	-0.749651	0.508305
O302	O	1.193271	-0.416318	0.841639
O303	O	1.526604	-0.082984	1.174972
C304	C	0.816336	-0.722545	0.466410
C305	C	1.149670	-0.389212	0.799744
C306	C	1.483003	-0.055878	1.133077
H307	H	0.843331	-0.717705	0.414357
H308	H	1.176665	-0.384372	0.747690
H309	H	1.509998	-0.051039	1.081023
H310	H	0.805695	-0.688474	0.494554
H311	H	1.139029	-0.355141	0.827887
H312	H	1.472362	-0.021807	1.161220
H313	H	0.764726	-0.739536	0.456443
H314	H	1.098060	-0.406203	0.789776
H315	H	1.431393	-0.072869	1.123110
O316	O	1.137690	-0.716117	0.253538
O317	O	1.471024	-0.382783	0.586871
O318	O	1.804357	-0.049450	0.920204
C319	C	1.099761	-0.743582	0.206505
C320	C	1.433094	-0.410249	0.539838
C321	C	1.766428	-0.076916	0.873171
H322	H	1.045563	-0.748524	0.228884
H323	H	1.378896	-0.415191	0.562217
H324	H	1.712229	-0.081857	0.895550
H325	H	1.128740	-0.777580	0.198409
H326	H	1.462074	-0.444247	0.531742
H327	H	1.795407	-0.110914	0.865075
H328	H	1.094310	-0.726853	0.154191
H329	H	1.427644	-0.393520	0.487524
H330	H	1.760977	-0.060186	0.820857
H331	H	1.083569	-0.493698	0.303120
H332	H	1.416902	-0.160365	0.636454
H333	H	1.750236	0.172968	0.969787
H334	H	1.097866	-0.298283	-0.015356
H335	H	1.431200	0.035050	0.317977
H336	H	1.764533	0.368384	0.651311
O337	O	0.408744	-0.189529	0.310134
O338	O	0.742077	0.143804	0.643467
O339	O	1.075410	0.477138	0.976801
C340	C	0.449470	-0.160499	0.351934
C341	C	0.782803	0.172834	0.685268
C342	C	1.116136	0.506167	1.018601
H343	H	0.425104	-0.155591	0.406224
H344	H	0.758437	0.177742	0.739558
H345	H	1.091770	0.511075	1.072891
H346	H	0.451390	-0.126660	0.326710
H347	H	0.784723	0.206673	0.660043
H348	H	1.118056	0.540006	0.993376
H349	H	0.504847	-0.175771	0.356670
H350	H	0.838180	0.157563	0.690003
H351	H	1.171513	0.490896	1.023336
O352	O	0.257015	-0.294164	0.480390
O353	O	0.590348	0.039170	0.813724
O354	O	0.923681	0.372503	1.147057
C355	C	0.303355	-0.319651	0.521948
C356	C	0.636689	0.013682	0.855281
C357	C	0.970022	0.347015	1.188615
H358	H	0.356742	-0.323382	0.495440
H359	H	0.690075	0.009951	0.828774
H360	H	1.023408	0.343284	1.162107
H361	H	0.281855	-0.354285	0.528436
H362	H	0.615188	-0.020951	0.861770
H363	H	0.948521	0.312382	1.195103
H364	H	0.308942	-0.301897	0.575571
H365	H	0.642275	0.031436	0.908905
H366	H	0.975609	0.364770	1.242238
H367	H	0.602532	-0.172819	0.282725
H368	H	0.935865	0.160514	0.616059
H369	H	1.269198	0.493848	0.949392
O370	O	0.859991	-0.842110	0.508493
O371	O	1.193324	-0.508777	0.841826
O372	O	1.526657	-0.175444	1.175159
C373	C	0.818708	-0.809167	0.546323
C374	C	1.152041	-0.475834	0.879656
C375	C	1.485374	-0.142501	1.212989
H376	H	0.847304	-0.776382	0.549983
H377	H	1.180638	-0.443049	0.883316
H378	H	1.513971	-0.109716	1.216649
H379	H	0.808881	-0.820902	0.601243
H380	H	1.142214	-0.487568	0.934576
H381	H	1.475547	-0.154235	1.267909
H382	H	0.766556	-0.803579	0.518334
H383	H	1.099889	-0.470246	0.851667
H384	H	1.433222	-0.136913	1.185001
H385	H	1.083511	-0.408588	0.303099
H386	H	1.416845	-0.075255	0.636432
H387	H	1.750178	0.258079	0.969765
H388	H	0.899895	-0.167758	-0.222046
H389	H	1.233229	0.165575	0.111288
H390	H	1.566562	0.498909	0.444621
O391	O	1.070397	-0.280056	-0.209080
O392	O	1.403730	0.053278	0.124253
O393	O	1.737064	0.386611	0.457586
C394	C	1.028946	-0.307063	-0.168620
C395	C	1.362279	0.026270	0.164714
C396	C	1.695613	0.359603	0.498047
H397	H	0.975174	-0.289775	-0.159958
H398	H	1.308507	0.043558	0.173375
H399	H	1.641841	0.376891	0.506708
H400	H	1.055316	-0.312266	-0.115885
H401	H	1.388649	0.021067	0.217448
H402	H	1.721983	0.354401	0.550782
H403	H	1.022830	-0.340987	-0.197296
H404	H	1.356163	-0.007653	0.136037
H405	H	1.689496	0.325680	0.469371
O406	O	0.741450	-0.172073	0.281678
O407	O	1.074783	0.161260	0.615011
O408	O	1.408117	0.494593	0.948345
C409	C	0.782177	-0.143044	0.323479
C410	C	1.115510	0.190289	0.656812
C411	C	1.448843	0.523623	0.990146
H412	H	0.757812	-0.138138	0.377770
H413	H	1.091145	0.195196	0.711103
H414	H	1.424479	0.528529	1.044436
H415	H	0.784095	-0.109204	0.298256
H416	H	1.117428	0.224129	0.631590
H417	H	1.450761	0.557462	0.964923
H418	H	0.837554	-0.158315	0.328212
H419	H	1.170888	0.175019	0.661545
H420	H	1.504221	0.508352	0.994878
H421	H	1.092063	-0.294617	0.117477
H422	H	1.425397	0.038716	0.450810
H423	H	1.758730	0.372049	0.784144
O424	O	0.898936	-0.166932	-0.361025
O425	O	1.232269	0.166401	-0.027692
O426	O	1.565602	0.499735	0.305641
C427	C	0.911764	-0.175309	-0.433094
C428	C	1.245097	0.158024	-0.099761
C429	C	1.578431	0.491358	0.233572
H430	H	0.966450	-0.191467	-0.440744
H431	H	1.299783	0.141866	-0.107411
H432	H	1.633117	0.475199	0.225923
H433	H	0.907881	-0.142312	-0.461000
H434	H	1.241214	0.191022	-0.127667
H435	H	1.574547	0.524355	0.205666
H436	H	0.871335	-0.198921	-0.455815
H437	H	1.204669	0.134413	-0.122482
H438	H	1.538002	0.467746	0.210851
H439	H	0.269833	-0.190272	0.311177
H440	H	0.603166	0.143061	0.644511
H441	H	0.936500	0.476394	0.977844
H442	H	0.509137	-0.268855	0.439197
H443	H	0.842471	0.064478	0.772530
H444	H	1.175804	0.397811	1.105864
H445	H	1.130376	-0.626873	0.260257
H446	H	1.463710	-0.293540	0.593591
H447	H	1.797043	0.039794	0.926924
H448	H	1.069469	-0.279199	-0.348035
H449	H	1.402803	0.054135	-0.014701
H450	H	1.736136	0.387468	0.318632
H451	H	0.595664	-0.272499	0.445115
H452	H	0.928997	0.060835	0.778448
H453	H	1.262331	0.394168	1.111781
O454	O	1.091203	-0.977758	0.296439
O455	O	1.424537	-0.644425	0.629772
O456	O	1.757870	-0.311091	0.963105
C457	C	1.132460	-1.010701	0.258580
C458	C	1.465794	-0.677368	0.591913
C459	C	1.799127	-0.344035	0.925247
H460	H	1.133671	-1.043362	0.287410
H461	H	1.467004	-0.710029	0.620743
H462	H	1.800337	-0.376696	0.954077
H463	H	1.188012	-0.998777	0.253501
H464	H	1.521345	-0.665443	0.586834
H465	H	1.854678	-0.332110	0.920167
H466	H	1.109062	-1.016603	0.204218
H467	H	1.442395	-0.683270	0.537551
H468	H	1.775729	-0.349937	0.870884
H469	H	1.083830	-1.066111	0.303218
H470	H	1.417163	-0.732778	0.636551
H471	H	1.750497	-0.399444	0.969884
H472	H	0.914188	-1.057172	0.458825
H473	H	1.247521	-0.723839	0.792159
H474	H	1.580854	-0.390505	1.125492
H475	H	0.914155	-0.972063	0.458822
H476	H	1.247489	-0.638729	0.792155
H477	H	1.580822	-0.305396	1.125489
O478	O	0.483696	-0.192979	0.315392
O479	O	0.817029	0.140354	0.648726
O480	O	1.150362	0.473687	0.982059
C481	C	0.443185	-0.218725	0.268251
C482	C	0.776518	0.114609	0.601584
C483	C	1.109852	0.447942	0.934918
H484	H	0.465402	-0.254807	0.264742
H485	H	0.798735	0.078527	0.598076
H486	H	1.132069	0.411860	0.931409
H487	H	0.444602	-0.203968	0.214309
H488	H	0.777935	0.129365	0.547642
H489	H	1.111269	0.462698	0.880975
H490	H	0.386795	-0.218217	0.287581
H491	H	0.720128	0.115116	0.620915
H492	H	1.053462	0.448449	0.954248
H493	H	0.867287	-0.698123	0.501673
H494	H	1.200620	-0.364790	0.835006
H495	H	1.533953	-0.031457	1.168340
O496	O	0.859943	-0.608985	0.508499
O497	O	1.193276	-0.275652	0.841832
O498	O	1.526609	0.057682	1.175166
C499	C	0.872303	-0.618777	0.579044
C500	C	1.205636	-0.285443	0.912377
C501	C	1.538970	0.047890	1.245710
H502	H	0.899208	-0.653486	0.581672
H503	H	1.232541	-0.320152	0.915005
H504	H	1.565875	0.013181	1.248338
H505	H	0.820368	-0.618170	0.608284
H506	H	1.153701	-0.284837	0.941617
H507	H	1.487035	0.048497	1.274950
H508	H	0.907326	-0.592593	0.604219
H509	H	1.240659	-0.259260	0.937553
H510	H	1.573993	0.074073	1.270886
O511	O	0.906551	-0.488010	0.465539
O512	O	1.239884	-0.154677	0.798873
O513	O	1.573218	0.178656	1.132206
C514	C	0.865261	-0.455070	0.503368
C515	C	1.198594	-0.121737	0.836702
C516	C	1.531928	0.211596	1.170035
H517	H	0.893852	-0.422283	0.507031
H518	H	1.227185	-0.088950	0.840364
H519	H	1.560519	0.244384	1.173697
H520	H	0.855435	-0.466806	0.558288
H521	H	1.188768	-0.133473	0.891621
H522	H	1.522101	0.199861	1.224954
H523	H	0.813109	-0.449486	0.475378
H524	H	1.146443	-0.116152	0.808711
H525	H	1.479776	0.217181	1.142045
O526	O	0.906632	-0.395563	0.465537
O527	O	1.239965	-0.062230	0.798870
O528	O	1.573298	0.271103	1.132203
C529	C	0.944612	-0.368102	0.512530
C530	C	1.277946	-0.034768	0.845863
C531	C	1.611279	0.298565	1.179196
H532	H	0.999645	-0.383525	0.519261
H533	H	1.332979	-0.050192	0.852594
H534	H	1.666312	0.283141	1.185927
H535	H	0.916960	-0.365329	0.565385
H536	H	1.250293	-0.031996	0.898718
H537	H	1.583626	0.301338	1.232051
H538	H	0.947944	-0.333245	0.490945
H539	H	1.281277	0.000088	0.824278
H540	H	1.614611	0.333422	1.157612
H541	H	1.130448	-0.767621	0.260285
H542	H	1.463782	-0.434288	0.593619
H543	H	1.797115	-0.100955	0.926952
H544	H	0.940170	-0.194381	-0.108709
H545	H	1.273503	0.138953	0.224624
H546	H	1.606837	0.472286	0.557958
O547	O	0.920890	-0.182073	0.116124
O548	O	1.254224	0.151260	0.449457
O549	O	1.587557	0.484593	0.782791
C550	C	0.874035	-0.205516	0.156373
C551	C	1.207368	0.127817	0.489706
C552	C	1.540702	0.461150	0.823040
H553	H	0.871033	-0.241429	0.133980
H554	H	1.204367	0.091905	0.467314
H555	H	1.537700	0.425238	0.800647
H556	H	0.819884	-0.188080	0.154862
H557	H	1.153217	0.145253	0.488195
H558	H	1.486550	0.478587	0.821528
H559	H	0.893298	-0.205996	0.212822
H560	H	1.226631	0.127337	0.546155
H561	H	1.559964	0.460670	0.879488
H562	H	1.057603	-0.271658	-0.128694
H563	H	1.390937	0.061675	0.204639
H564	H	1.724270	0.395009	0.537972
H565	H	0.728489	-0.275970	0.450756
H566	H	1.061822	0.057363	0.784090
H567	H	1.395155	0.390696	1.117423
