data_functionalizedCrystal
_audit_creation_method	'MofGen! by Chris Wilmer'
_symmetry_space_group_name_H-M	'P1'
_symmetry_Int_Tables_number	1
_symmetry_cell_setting	triclinic
loop_
_symmetry_equiv_pos_as_xyz
  x,y,z
_cell_length_a	19.805407
_cell_length_b	19.805405
_cell_length_c	19.805399
_cell_angle_alpha	90.029301
_cell_angle_beta	90.019573
_cell_angle_gamma	90.026410
loop_
_atom_site_label
_atom_site_type_symbol
_atom_site_fract_x
_atom_site_fract_y
_atom_site_fract_z
Zn1	Zn	1.034736	-0.269479	0.382712
Zn2	Zn	1.284736	-0.019479	0.632712
Zn3	Zn	1.534736	0.230521	0.882712
Zn4	Zn	1.784736	0.480521	1.132712
Zn5	Zn	1.034651	-0.382667	0.269520
Zn6	Zn	1.284651	-0.132667	0.519520
Zn7	Zn	1.534651	0.117333	0.769520
Zn8	Zn	1.784651	0.367333	1.019520
Zn9	Zn	0.921550	-0.269498	0.269536
Zn10	Zn	1.171550	-0.019498	0.519536
Zn11	Zn	1.421550	0.230502	0.769536
Zn12	Zn	1.671550	0.480502	1.019536
Zn13	Zn	0.921514	-0.382631	0.382667
Zn14	Zn	1.171514	-0.132631	0.632667
Zn15	Zn	1.421514	0.117369	0.882667
Zn16	Zn	1.671514	0.367369	1.132667
O17	O	0.978113	-0.326069	0.326109
O18	O	1.228113	-0.076069	0.576109
O19	O	1.478113	0.173931	0.826109
O20	O	1.728113	0.423931	1.076109
O21	O	1.129441	-0.284501	0.367708
O22	O	1.379441	-0.034501	0.617708
O23	O	1.629441	0.215499	0.867708
O24	O	1.879441	0.465499	1.117708
O25	O	1.019627	-0.367678	0.174805
O26	O	1.269627	-0.117678	0.424805
O27	O	1.519627	0.132322	0.674805
O28	O	1.769627	0.382322	0.924805
O29	O	0.936616	-0.174778	0.284575
O30	O	1.186616	0.075222	0.534575
O31	O	1.436616	0.325222	0.784575
O32	O	1.686616	0.575222	1.034575
O33	O	1.129378	-0.367660	0.284547
O34	O	1.379378	-0.117660	0.534547
O35	O	1.629378	0.132340	0.784547
O36	O	1.879378	0.382340	1.034547
O37	O	1.019772	-0.174765	0.367724
O38	O	1.269772	0.075235	0.617724
O39	O	1.519772	0.325235	0.867724
O40	O	1.769772	0.575235	1.117724
O41	O	0.936533	-0.284533	0.174817
O42	O	1.186533	-0.034533	0.424817
O43	O	1.436533	0.215467	0.674817
O44	O	1.686533	0.465467	0.924817
O45	O	0.826829	-0.284498	0.284531
O46	O	1.076829	-0.034498	0.534531
O47	O	1.326829	0.215502	0.784531
O48	O	1.576829	0.465502	1.034531
O49	O	0.936553	-0.367598	0.477389
O50	O	1.186553	-0.117598	0.727389
O51	O	1.436553	0.132402	0.977389
O52	O	1.686553	0.382402	1.227389
O53	O	0.826802	-0.367617	0.367648
O54	O	1.076802	-0.117617	0.617648
O55	O	1.326802	0.132383	0.867648
O56	O	1.576802	0.382383	1.117648
O57	O	1.019737	-0.284466	0.477422
O58	O	1.269737	-0.034466	0.727422
O59	O	1.519737	0.215534	0.977422
O60	O	1.769737	0.465534	1.227422
O61	O	1.019592	-0.477379	0.284503
O62	O	1.269592	-0.227379	0.534503
O63	O	1.519592	0.022621	0.784503
O64	O	1.769592	0.272621	1.034503
O65	O	0.936471	-0.477353	0.367632
O66	O	1.186471	-0.227353	0.617632
O67	O	1.436471	0.022647	0.867632
O68	O	1.686471	0.272647	1.117632
C69	C	0.802257	-0.326056	0.326087
C70	C	1.052257	-0.076056	0.576087
C71	C	1.302257	0.173944	0.826087
C72	C	1.552257	0.423944	1.076087
C73	C	0.727025	-0.326067	0.326093
C74	C	0.977025	-0.076067	0.576093
C75	C	1.227025	0.173933	0.826093
C76	C	1.477025	0.423933	1.076093
C77	C	0.978036	-0.501925	0.326076
C78	C	1.228036	-0.251925	0.576076
C79	C	1.478036	-0.001925	0.826076
C80	C	1.728036	0.248075	1.076076
C81	C	0.978066	-0.577157	0.326084
C82	C	1.228066	-0.327157	0.576084
C83	C	1.478066	-0.077157	0.826084
C84	C	1.728066	0.172843	1.076084
C85	C	0.691684	-0.369412	0.369302
C86	C	0.941684	-0.119412	0.619302
C87	C	1.191684	0.130588	0.869302
C88	C	1.441684	0.380588	1.119302
C89	C	0.620996	-0.369413	0.369312
C90	C	0.870996	-0.119413	0.619312
C91	C	1.120996	0.130587	0.869312
C92	C	1.370996	0.380587	1.119312
C93	C	0.585649	-0.326072	0.326109
C94	C	0.835649	-0.076072	0.576109
C95	C	1.085649	0.173928	0.826109
C96	C	1.335649	0.423928	1.076109
C97	C	0.620994	-0.282722	0.282898
C98	C	0.870994	-0.032722	0.532898
C99	C	1.120994	0.217278	0.782898
C100	C	1.370994	0.467278	1.032898
C101	C	0.691681	-0.282718	0.282892
C102	C	0.941681	-0.032718	0.532892
C103	C	1.191681	0.217282	0.782892
C104	C	1.441681	0.467282	1.032892
C105	C	0.335921	-0.282737	0.282920
C106	C	0.585921	-0.032737	0.532920
C107	C	0.835921	0.217263	0.782920
C108	C	1.085921	0.467263	1.032920
C109	C	0.265229	-0.282746	0.282928
C110	C	0.515229	-0.032746	0.532928
C111	C	0.765229	0.217254	0.782928
C112	C	1.015229	0.467254	1.032928
C113	C	0.265235	-0.369432	0.369340
C114	C	0.515235	-0.119432	0.619340
C115	C	0.765235	0.130568	0.869340
C116	C	1.015235	0.380568	1.119340
C117	C	0.335922	-0.369428	0.369334
C118	C	0.585922	-0.119428	0.619334
C119	C	0.835922	0.130572	0.869334
C120	C	1.085922	0.380572	1.119334
C121	C	0.371262	-0.326076	0.326126
C122	C	0.621262	-0.076076	0.576126
C123	C	0.871262	0.173924	0.826126
C124	C	1.121262	0.423924	1.076126
C125	C	0.447910	-0.326074	0.326117
C126	C	0.697910	-0.076074	0.576117
C127	C	0.947910	0.173926	0.826117
C128	C	1.197910	0.423926	1.076117
C129	C	0.509002	-0.326076	0.326114
C130	C	0.759002	-0.076076	0.576114
C131	C	1.009002	0.173924	0.826114
C132	C	1.259002	0.423924	1.076114
C133	C	1.021389	-0.612492	0.282845
C134	C	1.271389	-0.362492	0.532845
C135	C	1.521389	-0.112492	0.782845
C136	C	1.771389	0.137508	1.032845
C137	C	1.021418	-0.683181	0.282860
C138	C	1.271418	-0.433181	0.532860
C139	C	1.521418	-0.183181	0.782860
C140	C	1.771418	0.066819	1.032860
C141	C	0.978119	-0.718532	0.326111
C142	C	1.228119	-0.468532	0.576111
C143	C	1.478119	-0.218532	0.826111
C144	C	1.728119	0.031468	1.076111
C145	C	0.934794	-0.683192	0.369356
C146	C	1.184794	-0.433192	0.619356
C147	C	1.434794	-0.183192	0.869356
C148	C	1.684794	0.066808	1.119356
C149	C	0.934769	-0.612505	0.369344
C150	C	1.184769	-0.362505	0.619344
C151	C	1.434769	-0.112505	0.869344
C152	C	1.684769	0.137495	1.119344
C153	C	0.934894	-0.968265	0.369406
C154	C	1.184894	-0.718265	0.619406
C155	C	1.434894	-0.468265	0.869406
C156	C	1.684894	-0.218265	1.119406
C157	C	0.934921	-1.038957	0.369413
C158	C	1.184921	-0.788957	0.619413
C159	C	1.434921	-0.538957	0.869413
C160	C	1.684921	-0.288957	1.119413
C161	C	1.021542	-1.038941	0.282922
C162	C	1.271542	-0.788941	0.532922
C163	C	1.521542	-0.538941	0.782922
C164	C	1.771542	-0.288941	1.032922
C165	C	1.021517	-0.968254	0.282910
C166	C	1.271517	-0.718254	0.532910
C167	C	1.521517	-0.468254	0.782910
C168	C	1.771517	-0.218254	1.032910
C169	C	0.978195	-0.932920	0.326157
C170	C	1.228195	-0.682920	0.576157
C171	C	1.478195	-0.432920	0.826157
C172	C	1.728195	-0.182920	1.076157
C173	C	0.978166	-0.856271	0.326141
C174	C	1.228166	-0.606271	0.576141
C175	C	1.478166	-0.356271	0.826141
C176	C	1.728166	-0.106271	1.076141
C177	C	0.978145	-0.795179	0.326124
C178	C	1.228145	-0.545179	0.576124
C179	C	1.478145	-0.295179	0.826124
C180	C	1.728145	-0.045179	1.076124
C181	C	1.154655	-0.326082	0.326131
C182	C	1.404655	-0.076082	0.576131
C183	C	1.654655	0.173918	0.826131
C184	C	1.904655	0.423918	1.076131
C185	C	1.229887	-0.326088	0.326140
C186	C	1.479887	-0.076088	0.576140
C187	C	1.729887	0.173912	0.826140
C188	C	1.979887	0.423912	1.076140
C189	C	0.978151	-0.326026	0.502651
C190	C	1.228151	-0.076026	0.752651
C191	C	1.478151	0.173974	1.002651
C192	C	1.728151	0.423974	1.252651
C193	C	0.978167	-0.326008	0.577883
C194	C	1.228167	-0.076008	0.827883
C195	C	1.478167	0.173992	1.077883
C196	C	1.728167	0.423992	1.327883
C197	C	0.978207	-0.149526	0.326156
C198	C	1.228207	0.100474	0.576156
C199	C	1.478207	0.350474	0.826156
C200	C	1.728207	0.600474	1.076156
C201	C	0.978248	-0.074294	0.326177
C202	C	1.228248	0.175706	0.576177
C203	C	1.478248	0.425706	0.826177
C204	C	1.728248	0.675706	1.076177
C205	C	0.978114	-0.326062	0.150253
C206	C	1.228114	-0.076062	0.400253
C207	C	1.478114	0.173938	0.650253
C208	C	1.728114	0.423938	0.900253
C209	C	0.978229	-0.325890	0.075021
C210	C	1.228229	-0.075890	0.325021
C211	C	1.478229	0.174110	0.575021
C212	C	1.728229	0.424110	0.825021
C213	C	1.021481	-0.282719	0.613246
C214	C	1.271481	-0.032719	0.863246
C215	C	1.521481	0.217281	1.113246
C216	C	1.771481	0.467281	1.363246
C217	C	1.021488	-0.282699	0.683934
C218	C	1.271488	-0.032699	0.933934
C219	C	1.521488	0.217301	1.183934
C220	C	1.771488	0.467301	1.433934
C221	C	0.978184	-0.325973	0.719259
C222	C	1.228184	-0.075973	0.969259
C223	C	1.478184	0.174027	1.219259
C224	C	1.728184	0.424027	1.469259
C225	C	0.934864	-0.369264	0.683892
C226	C	1.184864	-0.119264	0.933892
C227	C	1.434864	0.130736	1.183892
C228	C	1.684864	0.380736	1.433892
C229	C	0.934854	-0.369279	0.613204
C230	C	1.184854	-0.119279	0.863204
C231	C	1.434854	0.130721	1.113204
C232	C	1.684854	0.380721	1.363204
C233	C	0.934902	-0.369201	0.968965
C234	C	1.184902	-0.119201	1.218965
C235	C	1.434902	0.130799	1.468965
C236	C	1.684902	0.380799	1.718965
C237	C	0.934917	-0.369183	1.039657
C238	C	1.184917	-0.119183	1.289657
C239	C	1.434917	0.130817	1.539657
C240	C	1.684917	0.380817	1.789657
C241	C	1.021536	-0.282620	1.039695
C242	C	1.271536	-0.032620	1.289695
C243	C	1.521536	0.217380	1.539695
C244	C	1.771536	0.467380	1.789695
C245	C	1.021527	-0.282636	0.969008
C246	C	1.271527	-0.032636	1.219008
C247	C	1.521527	0.217364	1.469008
C248	C	1.771527	0.467364	1.719008
C249	C	0.978205	-0.325924	0.933647
C250	C	1.228205	-0.075924	1.183647
C251	C	1.478205	0.174076	1.433647
C252	C	1.728205	0.424076	1.683647
C253	C	0.978197	-0.325944	0.856998
C254	C	1.228197	-0.075944	1.106998
C255	C	1.478197	0.174056	1.356998
C256	C	1.728197	0.424056	1.606998
C257	C	0.978194	-0.325957	0.795906
C258	C	1.228194	-0.075957	1.045906
C259	C	1.478194	0.174043	1.295906
C260	C	1.728194	0.424043	1.545906
H261	H	0.720458	-0.404707	0.404481
H262	H	0.970458	-0.154707	0.654481
H263	H	1.220458	0.095293	0.904481
H264	H	1.470458	0.345293	1.154481
F265	F	0.888786	-0.930669	0.415432
F266	F	1.138786	-0.680669	0.665432
F267	F	1.388786	-0.430669	0.915432
F268	F	1.638786	-0.180669	1.165432
F269	F	0.888835	-1.076580	0.415451
F270	F	1.138835	-0.826580	0.665451
F271	F	1.388835	-0.576580	0.915451
F272	F	1.638835	-0.326580	1.165451
F273	F	0.888823	-0.415243	1.077251
F274	F	1.138823	-0.165243	1.327251
F275	F	1.388823	0.084757	1.577251
F276	F	1.638823	0.334757	1.827251
F277	F	0.227619	-0.415571	0.415326
F278	F	0.477619	-0.165571	0.665326
F279	F	0.727619	0.084429	0.915326
F280	F	0.977619	0.334429	1.165326
H281	H	0.899543	-0.711981	0.404575
H282	H	1.149543	-0.461981	0.654575
H283	H	1.399543	-0.211981	0.904575
H284	H	1.649543	0.038019	1.154575
H285	H	0.899492	-0.583735	0.404555
H286	H	1.149492	-0.333735	0.654555
H287	H	1.399492	-0.083735	0.904555
H288	H	1.649492	0.166265	1.154555
H289	H	1.056747	-0.247482	0.584489
H290	H	1.306747	0.002518	0.834489
H291	H	1.556747	0.252518	1.084489
H292	H	1.806747	0.502518	1.334489
H293	H	1.056761	-0.247450	0.712723
H294	H	1.306761	0.002550	0.962723
H295	H	1.556761	0.252550	1.212723
H296	H	1.806761	0.502550	1.462723
F297	F	0.583387	-0.415547	0.415301
F298	F	0.833387	-0.165547	0.665301
F299	F	1.083387	0.084453	0.915301
F300	F	1.333387	0.334453	1.165301
H301	H	1.056695	-0.711948	0.247649
H302	H	1.306695	-0.461948	0.497649
H303	H	1.556695	-0.211948	0.747649
H304	H	1.806695	0.038052	0.997649
H305	H	1.056792	-0.247400	0.940250
H306	H	1.306792	0.002600	1.190250
H307	H	1.556792	0.252600	1.440250
H308	H	1.806792	0.502600	1.690250
H309	H	0.899602	-0.404495	0.712659
H310	H	1.149602	-0.154495	0.962659
H311	H	1.399602	0.095505	1.212659
H312	H	1.649602	0.345505	1.462659
F313	F	1.067642	-0.236546	1.077334
F314	F	1.317642	0.013454	1.327334
F315	F	1.567642	0.263454	1.577334
F316	F	1.817642	0.513454	1.827334
H317	H	0.364698	-0.404723	0.404512
H318	H	0.614698	-0.154723	0.654512
H319	H	0.864698	0.095277	0.904512
H320	H	1.114698	0.345277	1.154512
F321	F	0.888796	-0.415272	0.931340
F322	F	1.138796	-0.165272	1.181340
F323	F	1.388796	0.084728	1.431340
F324	F	1.638796	0.334728	1.681340
F325	F	0.888751	-0.415352	0.575570
F326	F	1.138751	-0.165352	0.825570
F327	F	1.388751	0.084648	1.075570
F328	F	1.638751	0.334648	1.325570
F329	F	0.227612	-0.236613	0.236944
F330	F	0.477612	0.013387	0.486944
F331	F	0.727612	0.263387	0.736944
F332	F	0.977612	0.513387	0.986944
H333	H	0.592209	-0.247430	0.247724
H334	H	0.842209	0.002570	0.497724
H335	H	1.092209	0.252570	0.747724
H336	H	1.342209	0.502570	0.997724
F337	F	0.373523	-0.236596	0.236936
F338	F	0.623523	0.013404	0.486936
F339	F	0.873523	0.263404	0.736936
F340	F	1.123523	0.513404	0.986936
H341	H	1.056820	-1.067719	0.247711
H342	H	1.306820	-0.817719	0.497711
H343	H	1.556820	-0.567719	0.747711
H344	H	1.806820	-0.317719	0.997711
F345	F	0.729293	-0.236583	0.236905
F346	F	0.979293	0.013417	0.486905
F347	F	1.229293	0.263417	0.736905
F348	F	1.479293	0.513417	0.986905
F349	F	1.067470	-0.574875	0.236805
F350	F	1.317470	-0.324875	0.486805
F351	F	1.567470	-0.074875	0.736805
F352	F	1.817470	0.175125	0.986805
H353	H	1.056773	-0.939473	0.247688
H354	H	1.306773	-0.689473	0.497688
H355	H	1.556773	-0.439473	0.747688
H356	H	1.806773	-0.189473	0.997688
