data_functionalizedCrystal
_audit_creation_method	'MofGen! by Chris Wilmer'
_symmetry_space_group_name_H-M	'P1'
_symmetry_Int_Tables_number	1
_symmetry_cell_setting	triclinic
loop_
_symmetry_equiv_pos_as_xyz
  x,y,z
_cell_length_a	16.109301
_cell_length_b	22.610064
_cell_length_c	16.109301
_cell_angle_alpha	89.994133
_cell_angle_beta	96.538519
_cell_angle_gamma	90.012563
loop_
_atom_site_label
_atom_site_type_symbol
_atom_site_fract_x
_atom_site_fract_y
_atom_site_fract_z
O1	O	1.103145	0.049149	-0.106865
O2	O	1.603145	0.549149	0.393135
O3	O	0.861083	0.049159	-0.120165
O4	O	1.361083	0.549159	0.379835
O5	O	0.988764	0.049148	0.007516
O6	O	1.488764	0.549148	0.507516
O7	O	0.975464	0.049160	-0.234546
O8	O	1.475464	0.549160	0.265454
O9	O	0.988726	-0.049222	0.007516
O10	O	1.488726	0.450778	0.507516
O11	O	0.861046	-0.049211	-0.120164
O12	O	1.361046	0.450789	0.379836
O13	O	1.103108	-0.049220	-0.106865
O14	O	1.603108	0.450780	0.393135
Zn15	Zn	0.982071	-0.064834	-0.113515
Zn16	Zn	1.482071	0.435166	0.386485
Zn17	Zn	0.982120	0.064772	-0.113515
Zn18	Zn	1.482120	0.564772	0.386485
O19	O	0.975427	-0.049209	-0.234546
O20	O	1.475427	0.450791	0.265454
C21	C	0.830090	-0.000025	-0.119626
C22	C	1.330090	0.499975	0.380374
C23	C	0.737794	-0.000021	-0.118011
C24	C	1.237794	0.499979	0.381989
C25	C	0.515522	-0.000024	-0.190018
C26	C	1.015522	0.499976	0.309982
C27	C	0.428801	-0.000028	-0.188494
C28	C	0.928801	0.499972	0.311506
C29	C	0.448676	-0.000034	-0.037006
C30	C	0.948676	0.499966	0.462994
C31	C	0.535394	-0.000034	-0.038530
C32	C	1.035394	0.499966	0.461470
C33	C	0.568815	-0.000026	-0.115039
C34	C	1.068815	0.499974	0.384961
C35	C	0.395376	-0.000030	-0.111990
C36	C	0.895376	0.499970	0.388010
C37	C	0.301350	-0.000034	-0.110337
C38	C	0.801350	0.499966	0.389663
C39	C	0.662847	-0.000023	-0.116693
C40	C	1.162847	0.499977	0.383307
N41	N	0.982043	-0.153286	-0.113514
N42	N	1.482043	0.346714	0.386486
C43	C	1.032529	-0.561927	-0.163947
C44	C	1.532529	-0.061927	0.336053
C45	C	1.032540	-0.623847	-0.163945
C46	C	1.532540	-0.123847	0.336055
O47	O	1.075432	-0.655865	-0.206820
O48	O	1.575432	-0.155865	0.293180
N49	N	0.982136	-0.654823	-0.113505
N50	N	1.482136	-0.154823	0.386495
C51	C	0.931725	-0.623876	-0.063058
C52	C	1.431725	-0.123876	0.436942
O53	O	0.888854	-0.655910	-0.020155
O54	O	1.388854	-0.155910	0.479845
C55	C	0.931719	-0.561958	-0.063056
C56	C	1.431719	-0.061958	0.436944
C57	C	0.982120	-0.530984	-0.113506
C58	C	1.482120	-0.030984	0.386494
C59	C	1.082927	-0.530954	-0.214392
C60	C	1.582927	-0.030954	0.285608
C61	C	1.082915	-0.469038	-0.214395
C62	C	1.582915	0.030962	0.285605
C63	C	1.032506	-0.438096	-0.163953
C64	C	1.532506	0.061904	0.336047
C65	C	0.982108	-0.469069	-0.113509
C66	C	1.482108	0.030931	0.386491
C67	C	0.881313	-0.531012	-0.012605
C68	C	1.381313	-0.031012	0.487395
C69	C	0.881313	-0.469089	-0.012607
C70	C	1.381313	0.030911	0.487393
C71	C	0.931713	-0.438116	-0.063057
C72	C	1.431713	0.061884	0.436943
C73	C	0.931687	-0.376211	-0.063070
C74	C	1.431687	0.123789	0.436930
N75	N	0.982091	-0.345234	-0.113510
N76	N	1.482091	0.154766	0.386490
C77	C	1.032500	-0.376177	-0.163951
C78	C	1.532500	0.123823	0.336049
C79	C	0.931741	-0.753910	-0.063065
C80	C	1.431741	-0.253910	0.436935
C81	C	0.931741	-0.815828	-0.063070
C82	C	1.431741	-0.315828	0.436930
C83	C	1.032558	-0.815794	-0.163956
C84	C	1.532558	-0.315794	0.336044
C85	C	1.032552	-0.753875	-0.163955
C86	C	1.532552	-0.253875	0.336045
C87	C	0.982145	-0.722934	-0.113504
C88	C	1.482145	-0.222934	0.386496
C89	C	1.032471	-0.246149	-0.163954
C90	C	1.532471	0.253851	0.336046
C91	C	1.032452	-0.184228	-0.163955
C92	C	1.532452	0.315772	0.336045
C93	C	0.931640	-0.184268	-0.063067
C94	C	1.431640	0.315732	0.436933
C95	C	0.931655	-0.246183	-0.063068
C96	C	1.431655	0.253817	0.436932
C97	C	0.982077	-0.277123	-0.113515
C98	C	1.482077	0.222877	0.386485
O99	O	0.888820	-0.344153	-0.020215
O100	O	1.388820	0.155847	0.479785
O101	O	1.075372	-0.344136	-0.206840
O102	O	1.575372	0.155864	0.293160
C103	C	1.134101	-0.000035	-0.107404
C104	C	1.634101	0.499965	0.392596
C105	C	1.226397	-0.000035	-0.109019
C106	C	1.726397	0.499965	0.390981
C107	C	0.988206	-0.000037	0.038491
C108	C	1.488206	0.499963	0.538491
C109	C	0.986591	-0.000038	0.130786
C110	C	1.486591	0.499962	0.630786
N111	N	0.982154	0.153225	-0.113509
N112	N	1.482154	0.653225	0.386491
C113	C	0.975984	-0.000023	-0.265521
C114	C	1.475984	0.499977	0.234479
C115	C	0.977600	-0.000018	-0.357816
C116	C	1.477600	0.499982	0.142184
C117	C	1.058599	-0.000032	0.353059
C118	C	1.558599	0.499968	0.853059
C119	C	1.057075	-0.000027	0.439779
C120	C	1.557075	0.499973	0.939779
C121	C	0.905586	-0.000023	0.419905
C122	C	1.405586	0.499977	0.919905
C123	C	0.907111	-0.000024	0.333186
C124	C	1.407111	0.499976	0.833186
C125	C	0.983620	-0.000031	0.299766
C126	C	1.483620	0.499969	0.799766
C127	C	0.980571	-0.000025	0.473205
C128	C	1.480571	0.499975	0.973205
C129	C	0.978918	-0.000020	0.567231
C130	C	1.478918	0.499980	1.067231
C131	C	0.985273	-0.000035	0.205734
C132	C	1.485273	0.499965	0.705734
H133	H	0.421454	-0.000043	0.025285
H134	H	0.921454	0.499957	0.525285
Br135	Br	0.607728	-0.000044	0.063234
Br136	Br	1.107728	0.499956	0.563234
Br137	Br	0.560876	-0.000016	-0.293851
Br138	Br	1.060876	0.499984	0.206149
H139	H	1.073494	-0.159013	-0.205041
H140	H	1.573494	0.340987	0.294959
H141	H	1.073530	-0.271333	-0.205032
H142	H	1.573530	0.228667	0.294968
H143	H	1.123960	-0.443825	-0.255472
H144	H	1.623960	0.056175	0.244528
H145	H	1.120897	-0.000036	0.325851
H146	H	1.620897	0.499964	0.825851
H147	H	1.123980	-0.556140	-0.255467
H148	H	1.623980	-0.056140	0.244533
Br149	Br	0.805346	-0.000015	0.260853
Br150	Br	1.305346	0.499985	0.760853
H151	H	0.385413	-0.000028	-0.249550
H152	H	0.885413	0.499972	0.250450
H153	H	0.840273	-0.556220	0.028477
H154	H	1.340273	-0.056220	0.528477
H155	H	1.118130	-0.000026	0.483168
H156	H	1.618130	0.499974	0.983168
H157	H	0.843295	-0.000018	0.447127
H158	H	1.343295	0.499982	0.947127
Br159	Br	1.100958	-0.711846	-0.232421
Br160	Br	1.600958	-0.211846	0.267579
Br161	Br	1.100974	-0.857799	-0.232411
Br162	Br	1.600974	-0.357799	0.267589
Br163	Br	0.863322	-0.857855	0.005383
Br164	Br	1.363322	-0.357855	0.505383
H165	H	0.890685	-0.728721	-0.021985
H166	H	1.390685	-0.228721	0.478015
H167	H	0.890604	-0.271403	-0.021999
H168	H	1.390604	0.228597	0.478001
Br169	Br	0.863228	-0.142263	0.005384
Br170	Br	1.363228	0.357737	0.505384
Br171	Br	0.812908	-0.427101	0.055874
Br172	Br	1.312908	0.072899	0.555874
