data_functionalizedCrystal
_audit_creation_method	'MofGen! by Chris Wilmer'
_symmetry_space_group_name_H-M	'P1'
_symmetry_Int_Tables_number	1
_symmetry_cell_setting	triclinic
loop_
_symmetry_equiv_pos_as_xyz
  x,y,z
_cell_length_a	13.897449
_cell_length_b	12.594516
_cell_length_c	13.897441
_cell_angle_alpha	89.971947
_cell_angle_beta	89.979267
_cell_angle_gamma	90.013095
loop_
_atom_site_label
_atom_site_type_symbol
_atom_site_fract_x
_atom_site_fract_y
_atom_site_fract_z
Zn1	Zn	1.474742	-0.423672	-0.545398
Zn2	Zn	1.474653	-0.601683	-0.384107
Zn3	Zn	1.313431	-0.423722	-0.384117
Zn4	Zn	1.313429	-0.601613	-0.545359
O5	O	1.394064	-0.512672	-0.464745
O6	O	1.609712	-0.447293	-0.524015
O7	O	1.453229	-0.578126	-0.249126
O8	O	1.334868	-0.274770	-0.405531
O9	O	1.609646	-0.578077	-0.405515
O10	O	1.453382	-0.274733	-0.524024
O11	O	1.334781	-0.447380	-0.249134
O12	O	1.178449	-0.447312	-0.405494
O13	O	1.334865	-0.577958	-0.680346
O14	O	1.178448	-0.578007	-0.523958
O15	O	1.453380	-0.447226	-0.680375
O16	O	1.453228	-0.750619	-0.405477
O17	O	1.334778	-0.750568	-0.523949
C18	C	1.143449	-0.512658	-0.464723
C19	C	1.036236	-0.512678	-0.464737
C20	C	1.394019	-0.789213	-0.464729
C21	C	1.394088	-0.907519	-0.464754
C22	C	0.839940	-0.512681	-0.464762
C23	C	0.949173	-0.512676	-0.464745
C24	C	1.458588	-0.976761	-0.400386
C25	C	1.482161	-1.047457	-0.488426
C26	C	1.370635	-1.047622	-0.376769
C27	C	1.417707	-0.976656	-0.552841
C28	C	1.306140	-0.976815	-0.441124
C29	C	1.329680	-1.047479	-0.529225
C30	C	1.645657	-0.512687	-0.464768
C31	C	1.752871	-0.512694	-0.464778
C32	C	1.394132	-0.512578	-0.716338
C33	C	1.394161	-0.512538	-0.823552
C34	C	1.394135	-0.235052	-0.464783
C35	C	1.394165	-0.116746	-0.464799
C36	C	1.394188	-0.512466	-1.019848
C37	C	1.394170	-0.512509	-0.910615
C38	C	1.394051	-0.512689	-0.214131
C39	C	1.394209	-0.512430	-0.106918
H40	H	1.513142	-0.945709	-0.346001
H41	H	1.556570	-1.078490	-0.508439
C42	C	1.444135	-0.935340	-0.652180
C43	C	1.376919	-0.971985	-0.719445
C44	C	1.401230	-0.933933	-0.810960
H45	H	1.506410	-0.960091	-0.669217
H46	H	1.443930	-0.859909	-0.651596
H47	H	1.377134	-1.047400	-0.720032
H48	H	1.314640	-0.947237	-0.702439
H49	H	1.401025	-0.858502	-0.810376
H50	H	1.463505	-0.958686	-0.827987
H51	H	1.355624	-0.958783	-0.856609
C52	C	1.257008	-1.088841	-0.601828
C53	C	1.257257	-1.200001	-0.600511
C54	C	1.190321	-1.238143	-0.667372
H55	H	1.273767	-1.064521	-0.664337
H56	H	1.194664	-1.063642	-0.585553
H57	H	1.319587	-1.225190	-0.616792
H58	H	1.240487	-1.224349	-0.538018
H59	H	1.127977	-1.212944	-0.651098
H60	H	1.207086	-1.213816	-0.729877
H61	H	1.190475	-1.313568	-0.666482
H62	H	1.231752	-0.945760	-0.421085
C63	C	1.344267	-1.089037	-0.277446
C64	C	1.411983	-1.053181	-0.210333
C65	C	1.387726	-1.091296	-0.118825
H66	H	1.343926	-1.164452	-0.278188
H67	H	1.282219	-1.063779	-0.260149
H68	H	1.474015	-1.078445	-0.227626
H69	H	1.412334	-0.977771	-0.209561
H70	H	1.325678	-1.066038	-0.101528
H71	H	1.387385	-1.166710	-0.119576
H72	H	1.433662	-1.066966	-0.073276
