data_functionalizedCrystal
_audit_creation_method	'MofGen! by Chris Wilmer'
_symmetry_space_group_name_H-M	'P1'
_symmetry_Int_Tables_number	1
_symmetry_cell_setting	triclinic
loop_
_symmetry_equiv_pos_as_xyz
  x,y,z
_cell_length_a	6.817900
_cell_length_b	19.551136
_cell_length_c	10.773894
_cell_angle_alpha	96.651751
_cell_angle_beta	96.645922
_cell_angle_gamma	101.650842
loop_
_atom_site_label
_atom_site_type_symbol
_atom_site_fract_x
_atom_site_fract_y
_atom_site_fract_z
V1	V	-3.940036	-0.094105	-0.389542
O2	O	-3.938617	0.007164	-0.381495
O3	O	-3.883090	-0.189135	-0.387486
O4	O	-3.857944	-0.091498	-0.559158
O5	O	-3.963937	-0.091149	-0.208635
V6	V	-4.429137	-0.082129	-0.367830
O7	O	-4.189059	-0.120375	-0.437169
O8	O	-4.630313	-0.055859	-0.320204
O9	O	-4.262877	0.012901	-0.369887
O10	O	-4.547953	-0.183398	-0.375878
O11	O	-4.522633	-0.085085	-0.548738
O12	O	-4.288024	-0.084736	-0.198215
C13	C	-3.727102	-0.212338	-0.381498
C14	C	-3.761603	-0.290019	-0.380947
C15	C	-3.761301	-0.317266	-0.266376
C16	C	-3.793798	-0.390254	-0.265821
C17	C	-3.826557	-0.435992	-0.379841
C18	C	-3.826868	-0.408738	-0.494427
C19	C	-3.794392	-0.335752	-0.494980
C20	C	-3.774646	-0.556457	-0.462514
C21	C	-3.807109	-0.629442	-0.461956
C22	C	-3.926736	-0.661108	-0.378140
C23	C	-4.013867	-0.619777	-0.294860
C24	C	-3.981390	-0.546791	-0.295413
C25	C	-3.861776	-0.515135	-0.379254
C26	C	-3.961672	-0.767496	-0.262959
C27	C	-3.994183	-0.840486	-0.262409
C28	C	-4.027233	-0.858968	-0.491018
C29	C	-3.994742	-0.785980	-0.491566
C30	C	-3.961954	-0.740247	-0.377532
C31	C	-3.695025	-0.087791	-0.600480
C32	C	-3.709132	-0.086289	-0.739146
C33	C	-3.886972	-0.088893	-0.807024
C34	C	-3.901557	-0.087340	-0.950343
C35	C	-4.082208	0.036100	-0.375871
C36	C	-4.026943	0.113781	-0.376430
C37	C	-4.114286	-0.088445	-0.156886
C38	C	-4.079418	-0.089944	-0.018219
H39	H	-4.053907	-0.896208	-0.583855
H40	H	-4.220892	-0.093326	-0.970238
H41	H	-3.734618	-0.280034	-0.173522
H42	H	-3.853545	-0.445983	-0.587263
H43	H	-3.760083	-0.083956	-0.998325
H44	H	-3.793548	-0.412443	-0.172520
H45	H	-4.052340	-0.513143	-0.227606
H46	H	-4.111261	-0.645557	-0.226601
C47	C	-3.925631	-0.717185	-0.137530
C48	C	-3.925334	-0.747160	-0.011499
C49	C	-3.889296	-0.696852	0.113931
C50	C	-3.853555	-0.616569	0.113330
C51	C	-3.853851	-0.586590	-0.012706
C52	C	-3.889889	-0.636898	-0.138136
H53	H	-3.951793	-0.806594	-0.011049
H54	H	-3.889078	-0.719045	0.207231
H55	H	-3.826878	-0.579328	0.206180
H56	H	-3.827392	-0.527156	-0.013155
H57	H	-3.890107	-0.614705	-0.231435
H58	H	-3.993947	-0.862668	-0.169108
H59	H	-3.994975	-0.763796	-0.584861
H60	H	-3.567671	-0.082905	-0.787133
C61	C	-3.794708	-0.305777	-0.621016
C62	C	-3.640836	-0.320106	-0.709285
C63	C	-3.641146	-0.290130	-0.835321
C64	C	-3.795328	-0.245823	-0.873089
C65	C	-3.949211	-0.231491	-0.784818
C66	C	-3.948901	-0.261468	-0.658781
H67	H	-3.526691	-0.352907	-0.681329
H68	H	-3.527231	-0.300740	-0.900665
H69	H	-3.795558	-0.223633	-0.966389
H70	H	-4.063357	-0.198691	-0.812774
H71	H	-4.062817	-0.250858	-0.593437
C72	C	-3.711220	-0.674898	-0.553535
C73	C	-3.579633	-0.640072	-0.645731
C74	C	-3.483718	-0.685525	-0.737300
C75	C	-3.519389	-0.765805	-0.736673
C76	C	-3.650981	-0.800636	-0.644474
C77	C	-3.746897	-0.755183	-0.552904
H78	H	-3.553222	-0.580640	-0.646198
H79	H	-3.386305	-0.659741	-0.805553
H80	H	-3.448387	-0.799452	-0.804458
H81	H	-3.677393	-0.860068	-0.644006
H82	H	-3.844310	-0.780967	-0.484652
H83	H	-3.677231	-0.530682	-0.530773
H84	H	-4.028428	-0.092267	-0.759034
