data_functionalizedCrystal
_audit_creation_method	'MofGen! by Chris Wilmer'
_symmetry_space_group_name_H-M	'P1'
_symmetry_Int_Tables_number	1
_symmetry_cell_setting	triclinic
loop_
_symmetry_equiv_pos_as_xyz
  x,y,z
_cell_length_a	19.121215
_cell_length_b	19.121063
_cell_length_c	21.395364
_cell_angle_alpha	87.573606
_cell_angle_beta	92.454287
_cell_angle_gamma	95.002544
loop_
_atom_site_label
_atom_site_type_symbol
_atom_site_fract_x
_atom_site_fract_y
_atom_site_fract_z
Zn1	Zn	1.063649	-0.234487	0.403764
Zn2	Zn	1.396983	0.098846	0.737098
Zn3	Zn	1.730316	0.432179	1.070431
Zn4	Zn	1.058561	-0.352125	0.303265
Zn5	Zn	1.391895	-0.018792	0.636599
Zn6	Zn	1.725228	0.314542	0.969932
Zn7	Zn	0.946007	-0.239480	0.294702
Zn8	Zn	1.279341	0.093854	0.628035
Zn9	Zn	1.612674	0.427187	0.961368
Zn10	Zn	0.940925	-0.357125	0.403707
Zn11	Zn	1.274258	-0.023792	0.737040
Zn12	Zn	1.607591	0.309541	1.070373
O13	O	1.002286	-0.295804	0.351360
O14	O	1.335619	0.037529	0.684693
O15	O	1.668952	0.370862	1.018026
O16	O	1.161440	-0.245910	0.394041
O17	O	1.494773	0.087423	0.727374
O18	O	1.828106	0.420757	1.060708
O19	O	1.043629	-0.337179	0.214451
O20	O	1.376962	-0.003846	0.547785
O21	O	1.710295	0.329487	0.881118
O22	O	0.965869	-0.140350	0.305609
O23	O	1.299203	0.192983	0.638943
O24	O	1.632536	0.526316	0.972276
O25	O	1.157701	-0.332338	0.320205
O26	O	1.491035	0.000995	0.653538
O27	O	1.824368	0.334328	0.986871
O28	O	1.052300	-0.136682	0.385737
O29	O	1.385634	0.196651	0.719071
O30	O	1.718967	0.529984	1.052404
O31	O	0.960936	-0.254419	0.208160
O32	O	1.294269	0.078914	0.541493
O33	O	1.627602	0.412248	0.874826
O34	O	0.846868	-0.259268	0.305554
O35	O	1.180201	0.074066	0.638887
O36	O	1.513535	0.407399	0.972220
O37	O	0.957206	-0.340860	0.491392
O38	O	1.290540	-0.007527	0.824726
O39	O	1.623873	0.325806	1.158059
O40	O	0.843134	-0.345701	0.385639
O41	O	1.176467	-0.012368	0.718972
O42	O	1.509800	0.320965	1.052306
O43	O	1.047372	-0.250759	0.491435
O44	O	1.380705	0.082575	0.824768
O45	O	1.714039	0.415908	1.158101
O46	O	1.038700	-0.451255	0.320149
O47	O	1.372034	-0.117922	0.653482
O48	O	1.705367	0.215411	0.986815
O49	O	0.952273	-0.454929	0.393943
O50	O	1.285606	-0.121596	0.727276
O51	O	1.618940	0.211738	1.060609
C52	C	0.819470	-0.303569	0.344661
C53	C	1.152803	0.029764	0.677994
C54	C	1.486137	0.363097	1.011328
C55	C	0.741260	-0.306908	0.341811
C56	C	1.074593	0.026425	0.675144
C57	C	1.407927	0.359759	1.008478
C58	C	0.298821	-0.328045	0.323780
C59	C	0.632155	0.005288	0.657113
C60	C	0.965488	0.338621	0.990447
C61	C	0.372308	-0.324904	0.326453
C62	C	0.705642	0.008429	0.659786
C63	C	1.038975	0.341762	0.993120
C64	C	0.410997	-0.278409	0.366300
C65	C	0.744330	0.054924	0.699634
C66	C	1.077664	0.388258	1.032967
C67	C	0.376195	-0.235047	0.403472
C68	C	0.709528	0.098287	0.736805
C69	C	1.042862	0.431620	1.070139
C70	C	0.302710	-0.238185	0.400795
C71	C	0.636043	0.095149	0.734128
C72	C	0.969376	0.428482	1.067462
C73	C	0.632973	-0.266684	0.376306
C74	C	0.966306	0.066650	0.709639
C75	C	1.299639	0.399983	1.042973
C76	C	0.706463	-0.263551	0.378981
C77	C	1.039796	0.069783	0.712315
C78	C	1.373130	0.403116	1.045648
C79	C	0.702571	-0.353408	0.301961
C80	C	1.035905	-0.020074	0.635294
C81	C	1.369238	0.313259	0.968628
C82	C	0.629084	-0.356544	0.299291
C83	C	0.962418	-0.023211	0.632624
C84	C	1.295751	0.310122	0.965957
C85	C	0.594289	-0.313180	0.336460
C86	C	0.927623	0.020154	0.669793
C87	C	1.260956	0.353487	1.003127
C88	C	0.486112	-0.275199	0.369035
C89	C	0.819446	0.058134	0.702368
C90	C	1.152779	0.391468	1.035702
C91	C	0.519175	-0.316387	0.333722
C92	C	0.852509	0.016947	0.667055
C93	C	1.185842	0.350280	1.000388
C94	C	0.994402	-0.478623	0.357983
C95	C	1.327735	-0.145289	0.691316
C96	C	1.661069	0.188044	1.024650
C97	C	0.991094	-0.556831	0.360840
C98	C	1.324427	-0.223497	0.694173
C99	C	1.657760	0.109836	1.027507
C100	C	1.034572	-0.591635	0.323796
C101	C	1.367906	-0.258302	0.657129
C102	C	1.701239	0.075031	0.990463
C103	C	1.031465	-0.665120	0.326487
C104	C	1.364798	-0.331786	0.659820
C105	C	1.698132	0.001547	0.993153
C106	C	0.984875	-0.703798	0.366218
C107	C	1.318208	-0.370465	0.699552
C108	C	1.651542	-0.037132	1.032885
C109	C	0.941394	-0.668988	0.403266
C110	C	1.274728	-0.335655	0.736600
C111	C	1.608061	-0.002322	1.069933
C112	C	0.944506	-0.595505	0.400579
C113	C	1.277839	-0.262172	0.733912
C114	C	1.611172	0.071161	1.067245
C115	C	0.973231	-0.925767	0.376257
C116	C	1.306564	-0.592434	0.709591
C117	C	1.639898	-0.259100	1.042924
C118	C	0.970121	-0.999256	0.378941
C119	C	1.303455	-0.665922	0.712274
C120	C	1.636788	-0.332589	1.045608
C121	C	1.060193	-0.995382	0.302162
C122	C	1.393527	-0.662048	0.635495
C123	C	1.726860	-0.328715	0.968829
C124	C	1.063298	-0.921897	0.299475
C125	C	1.396631	-0.588564	0.632808
C126	C	1.729964	-0.255231	0.966141
C127	C	1.019820	-0.887094	0.336525
C128	C	1.353153	-0.553760	0.669859
C129	C	1.686486	-0.220427	1.003192
C130	C	0.981696	-0.778911	0.368968
C131	C	1.315029	-0.445578	0.702302
C132	C	1.648363	-0.112245	1.035635
C133	C	1.023003	-0.811982	0.333778
C134	C	1.356336	-0.478649	0.667112
C135	C	1.689669	-0.145315	1.000445
C136	C	1.185815	-0.288010	0.358085
C137	C	1.519149	0.045324	0.691418
C138	C	1.852482	0.378657	1.024751
C139	C	1.264025	-0.284688	0.360950
C140	C	1.597358	0.048646	0.694284
C141	C	1.930691	0.381979	1.027617
C142	C	1.002290	-0.295810	0.514783
C143	C	1.335623	0.037523	0.848116
C144	C	1.668956	0.370856	1.181450
C145	C	1.002292	-0.295813	0.584425
C146	C	1.335625	0.037520	0.917758
C147	C	1.668958	0.370854	1.251091
C148	C	1.010219	-0.112271	0.344725
C149	C	1.343553	0.221062	0.678058
C150	C	1.676886	0.554396	1.011391
C151	C	1.013600	-0.034060	0.341897
C152	C	1.346934	0.299273	0.675231
C153	C	1.680267	0.632606	1.008564
C154	C	1.045344	-0.338892	1.089496
C155	C	1.378677	-0.005558	1.422830
C156	C	1.712010	0.327775	1.756163
C157	C	1.045342	-0.338897	1.024061
C158	C	1.378675	-0.005563	1.357395
C159	C	1.712009	0.327770	1.690728
C160	C	1.002290	-0.295808	0.988063
C161	C	1.335623	0.037525	1.321396
C162	C	1.668956	0.370859	1.654729
C163	C	0.959223	-0.252725	1.017505
C164	C	1.292556	0.080609	1.350838
C165	C	1.625889	0.413942	1.684171
C166	C	0.959220	-0.252726	1.082939
C167	C	1.292554	0.080607	1.416272
C168	C	1.625887	0.413941	1.749605
C169	C	0.999478	-0.232646	0.881899
C170	C	1.332811	0.100687	1.215232
C171	C	1.666144	0.434020	1.548565
C172	C	0.999485	-0.232644	0.816466
C173	C	1.332818	0.100690	1.149799
C174	C	1.666152	0.434023	1.483133
C175	C	1.002293	-0.295805	0.786242
C176	C	1.335626	0.037529	1.119575
C177	C	1.668959	0.370862	1.452909
C178	C	1.005108	-0.358970	0.821459
C179	C	1.338441	-0.025636	1.154792
C180	C	1.671775	0.307697	1.488126
C181	C	1.005106	-0.358971	0.886893
C182	C	1.338439	-0.025638	1.220227
C183	C	1.671772	0.307696	1.553560
C184	C	1.002287	-0.295802	0.917110
C185	C	1.335621	0.037531	1.250443
C186	C	1.668954	0.370864	1.583777
C187	C	1.045352	-0.338894	0.685855
C188	C	1.378685	-0.005561	1.019189
C189	C	1.712018	0.327772	1.352522
C190	C	1.045345	-0.338901	0.620419
C191	C	1.378678	-0.005568	0.953752
C192	C	1.712012	0.327766	1.287085
C193	C	0.959230	-0.252723	0.613863
C194	C	1.292563	0.080611	0.947196
C195	C	1.625896	0.413944	1.280530
C196	C	0.959232	-0.252723	0.679299
C197	C	1.292566	0.080611	1.012632
C198	C	1.625899	0.413944	1.345965
C199	C	1.002297	-0.295807	0.715291
C200	C	1.335631	0.037526	1.048624
C201	C	1.668964	0.370859	1.381957
C202	C	1.002279	-0.295814	1.188572
C203	C	1.335612	0.037519	1.521905
C204	C	1.668945	0.370853	1.855239
C205	C	1.002285	-0.295811	1.118931
C206	C	1.335619	0.037523	1.452264
C207	C	1.668952	0.370856	1.785598
H208	H	0.604651	-0.231376	0.406575
H209	H	0.937985	0.101957	0.739908
H210	H	1.271318	0.435290	1.073242
C211	C	0.418750	-0.183904	0.447304
C212	C	0.752084	0.149429	0.780637
C213	C	1.085417	0.482763	1.113970
H214	H	0.467499	-0.188249	0.443580
H215	H	0.800833	0.145084	0.776913
H216	H	1.134166	0.478417	1.110247
H217	H	0.408740	-0.137123	0.436055
H218	H	0.742074	0.196210	0.769388
H219	H	1.075407	0.529543	1.102722
H220	H	0.406271	-0.194799	0.489325
H221	H	0.739604	0.138534	0.822659
H222	H	1.072938	0.471868	1.155992
C223	C	0.911861	-0.205342	0.711681
C224	C	1.245194	0.127991	1.045015
C225	C	1.578528	0.461324	1.378348
H226	H	0.918017	-0.211522	0.755807
H227	H	1.251351	0.121811	1.089140
H228	H	1.584684	0.455145	1.422473
H229	H	0.924187	-0.157622	0.699631
H230	H	1.257520	0.175711	1.032965
H231	H	1.590853	0.509044	1.366298
H232	H	0.864141	-0.217668	0.699590
H233	H	1.197474	0.115665	1.032923
H234	H	1.530807	0.448999	1.366257
H235	H	0.517621	-0.237344	0.401480
H236	H	0.850954	0.095989	0.734813
H237	H	1.184287	0.429323	1.068147
C238	C	0.925395	-0.887493	0.417000
C239	C	1.258728	-0.554159	0.750333
C240	C	1.592062	-0.220826	1.083666
H241	H	0.897196	-0.921055	0.441039
H242	H	1.230529	-0.587722	0.774372
H243	H	1.563862	-0.254388	1.107705
H244	H	0.953493	-0.857646	0.444258
H245	H	1.286826	-0.524312	0.777592
H246	H	1.620159	-0.190979	1.110925
H247	H	0.895969	-0.860171	0.390831
H248	H	1.229302	-0.526837	0.724165
H249	H	1.562636	-0.193504	1.057498
H250	H	1.080408	-0.373977	1.118798
H251	H	1.413742	-0.040643	1.452131
H252	H	1.747075	0.292690	1.785464
C253	C	1.085823	-0.549095	0.280092
C254	C	1.419156	-0.215762	0.613425
C255	C	1.752490	0.117572	0.946758
H256	H	1.111277	-0.580351	0.258420
H257	H	1.444610	-0.247017	0.591754
H258	H	1.777943	0.086316	0.925087
H259	H	1.060146	-0.521606	0.250739
H260	H	1.393480	-0.188273	0.584072
H261	H	1.726813	0.145060	0.917406
H262	H	1.117678	-0.519092	0.304159
H263	H	1.451011	-0.185758	0.637493
H264	H	1.784345	0.147575	0.970826
C265	C	0.264433	-0.190496	0.441687
C266	C	0.597766	0.142837	0.775020
C267	C	0.931100	0.476171	1.108353
H268	H	0.297998	-0.162361	0.465807
H269	H	0.631331	0.170973	0.799140
H270	H	0.964664	0.504306	1.132473
H271	H	0.237078	-0.161017	0.415610
H272	H	0.570412	0.172316	0.748944
H273	H	0.903745	0.505649	1.082277
H274	H	0.234616	-0.218693	0.468881
H275	H	0.567950	0.114640	0.802214
H276	H	0.901283	0.447974	1.135547
H277	H	0.903463	-0.700486	0.435620
H278	H	1.236796	-0.367153	0.768953
H279	H	1.570129	-0.033820	1.102286
H280	H	1.066870	-0.693454	0.296321
H281	H	1.400203	-0.360121	0.629655
H282	H	1.733536	-0.026788	0.962988
C283	C	1.074250	-0.769441	0.290075
C284	C	1.407583	-0.436108	0.623408
C285	C	1.740916	-0.102775	0.956742
H286	H	1.099704	-0.800691	0.268397
H287	H	1.433037	-0.467358	0.601731
H288	H	1.766370	-0.134025	0.935064
H289	H	1.048567	-0.741952	0.260728
H290	H	1.381900	-0.408619	0.594061
H291	H	1.715233	-0.075285	0.927395
H292	H	1.106105	-0.739438	0.314143
H293	H	1.439438	-0.406105	0.647476
H294	H	1.772772	-0.072771	0.980809
H295	H	0.909102	-0.567168	0.430744
H296	H	1.242435	-0.233835	0.764078
H297	H	1.575768	0.099499	1.097411
H298	H	0.487672	-0.354241	0.301276
H299	H	0.821005	-0.020908	0.634610
H300	H	1.154339	0.312426	0.967943
C301	C	1.092710	-0.386283	0.991673
C302	C	1.426043	-0.052949	1.325006
C303	C	1.759376	0.280384	1.658339
H304	H	1.086539	-0.380113	0.947548
H305	H	1.419873	-0.046780	1.280881
H306	H	1.753206	0.286554	1.614214
H307	H	1.140430	-0.373972	1.003758
H308	H	1.473763	-0.040638	1.337091
H309	H	1.807097	0.292695	1.670425
H310	H	1.080370	-0.434003	1.003726
H311	H	1.413704	-0.100670	1.337059
H312	H	1.747037	0.232663	1.670392
C313	C	1.114551	-0.879356	0.255774
C314	C	1.447885	-0.546022	0.589107
C315	C	1.781218	-0.212689	0.922441
H316	H	1.140006	-0.910609	0.234101
H317	H	1.473339	-0.577276	0.567434
H318	H	1.806673	-0.243942	0.900768
H319	H	1.088873	-0.851867	0.226423
H320	H	1.422207	-0.518533	0.559756
H321	H	1.755540	-0.185200	0.893089
H322	H	1.146405	-0.849352	0.279843
H323	H	1.479739	-0.516019	0.613176
H324	H	1.813072	-0.182686	0.946509
C325	C	0.410582	-0.372598	0.285565
C326	C	0.743915	-0.039264	0.618899
C327	C	1.077249	0.294069	0.952232
H328	H	0.377015	-0.400743	0.261456
H329	H	0.710349	-0.067410	0.594790
H330	H	1.043682	0.265923	0.928123
H331	H	0.440398	-0.344408	0.258371
H332	H	0.773731	-0.011074	0.591705
H333	H	1.107065	0.322259	0.925038
H334	H	0.437937	-0.402078	0.311647
H335	H	0.771270	-0.068744	0.644980
H336	H	1.104603	0.264589	0.978313
H337	H	1.007396	-0.410402	0.915565
H338	H	1.340729	-0.077069	1.248898
H339	H	1.674063	0.256265	1.582231
H340	H	1.095592	-1.023727	0.271999
H341	H	1.428925	-0.690393	0.605332
H342	H	1.762258	-0.357060	0.938665
C343	C	1.008192	-0.428451	0.788222
C344	C	1.341526	-0.095118	1.121555
C345	C	1.674859	0.238216	1.454888
H346	H	1.007781	-0.419408	0.744208
H347	H	1.341115	-0.086074	1.077541
H348	H	1.674448	0.247259	1.410875
H349	H	1.050056	-0.449132	0.801328
H350	H	1.383389	-0.115799	1.134661
H351	H	1.716722	0.217534	1.467995
H352	H	0.968631	-0.459674	0.798616
H353	H	1.301965	-0.126340	1.131949
H354	H	1.635298	0.206993	1.465282
C355	C	1.092718	-0.386287	0.725449
C356	C	1.426051	-0.052953	1.058782
C357	C	1.759384	0.280380	1.392116
H358	H	1.118356	-0.411952	0.698545
H359	H	1.451689	-0.078619	1.031878
H360	H	1.785023	0.254715	1.365211
H361	H	1.124538	-0.358063	0.751123
H362	H	1.457871	-0.024730	1.084456
H363	H	1.791205	0.308603	1.417789
H364	H	1.064476	-0.418093	0.751099
H365	H	1.397809	-0.084759	1.084433
H366	H	1.731143	0.248574	1.417766
H367	H	0.597589	-0.394405	0.266842
H368	H	0.930922	-0.061072	0.600176
H369	H	1.264256	0.272262	0.933509
H370	H	0.932191	-1.030745	0.411307
H371	H	1.265524	-0.697412	0.744640
H372	H	1.598857	-0.364079	1.077973
H373	H	0.943761	-0.810412	0.401317
H374	H	1.277094	-0.477078	0.734650
H375	H	1.610428	-0.143745	1.067983
H376	H	0.924157	-0.217643	1.106903
H377	H	1.257490	0.115690	1.440237
H378	H	1.590823	0.449024	1.773570
C379	C	1.092713	-0.386291	0.588041
C380	C	1.426047	-0.052957	0.921374
C381	C	1.759380	0.280376	1.254707
H382	H	1.118364	-0.411943	0.618850
H383	H	1.451697	-0.078610	0.952184
H384	H	1.785030	0.254723	1.285517
H385	H	1.064478	-0.418097	0.562637
H386	H	1.397812	-0.084764	0.895970
H387	H	1.731145	0.248569	1.229304
H388	H	1.124534	-0.358062	0.562666
H389	H	1.457867	-0.024728	0.895999
H390	H	1.791200	0.308605	1.229333
H391	H	0.924174	-0.217641	0.584554
H392	H	1.257507	0.115693	0.917887
H393	H	1.590841	0.449026	1.251220
H394	H	0.924168	-0.217643	0.988190
H395	H	1.257502	0.115691	1.321524
H396	H	1.590835	0.449024	1.654857
C397	C	0.740848	-0.401098	0.261073
C398	C	1.074181	-0.067765	0.594406
C399	C	1.407514	0.265569	0.927740
H400	H	0.790154	-0.392568	0.268368
H401	H	1.123487	-0.059234	0.601702
H402	H	1.456821	0.274099	0.935035
H403	H	0.726774	-0.448907	0.271443
H404	H	1.060107	-0.115573	0.604776
H405	H	1.393440	0.217760	0.938109
H406	H	0.729237	-0.391229	0.218174
H407	H	1.062570	-0.057896	0.551508
H408	H	1.395903	0.275438	0.884841
C409	C	0.996393	-0.163166	0.777733
C410	C	1.329726	0.170167	1.111067
C411	C	1.663059	0.503501	1.444400
H412	H	0.994708	-0.125551	0.805103
H413	H	1.328041	0.207782	1.138437
H414	H	1.661375	0.541115	1.471770
H415	H	1.036987	-0.155263	0.753465
H416	H	1.370320	0.178070	1.086798
H417	H	1.703654	0.511404	1.420132
H418	H	0.955563	-0.165817	0.750743
H419	H	1.288897	0.167517	1.084076
H420	H	1.622230	0.500850	1.417410
C421	C	0.256267	-0.379191	0.279951
C422	C	0.589600	-0.045858	0.613284
C423	C	0.922934	0.287475	0.946617
H424	H	0.207517	-0.374857	0.283683
H425	H	0.540851	-0.041524	0.617016
H426	H	0.874184	0.291810	0.950350
H427	H	0.268743	-0.368304	0.237931
H428	H	0.602077	-0.034971	0.571264
H429	H	0.935410	0.298363	0.904597
H430	H	0.266281	-0.425973	0.291207
H431	H	0.599614	-0.092640	0.624540
H432	H	0.932948	0.240694	0.957873
C433	C	0.996392	-0.163164	0.915139
C434	C	1.329725	0.170169	1.248472
C435	C	1.663059	0.503502	1.581806
H436	H	0.994727	-0.125546	0.884796
H437	H	1.328060	0.207787	1.218129
H438	H	1.661394	0.541121	1.551462
H439	H	0.955566	-0.165809	0.939203
H440	H	1.288900	0.167525	1.272537
H441	H	1.622233	0.500858	1.605870
H442	H	1.036991	-0.155269	0.941919
H443	H	1.370324	0.178064	1.275252
H444	H	1.703657	0.511398	1.608586
H445	H	0.737962	-0.225684	0.411428
H446	H	1.071295	0.107650	0.744762
H447	H	1.404628	0.440983	1.078095
