data_functionalizedCrystal
_audit_creation_method	'MofGen! by Chris Wilmer'
_symmetry_space_group_name_H-M	'P1'
_symmetry_Int_Tables_number	1
_symmetry_cell_setting	triclinic
loop_
_symmetry_equiv_pos_as_xyz
  x,y,z
_cell_length_a	16.109302
_cell_length_b	12.503572
_cell_length_c	16.109301
_cell_angle_alpha	93.520842
_cell_angle_beta	96.538369
_cell_angle_gamma	93.519214
loop_
_atom_site_label
_atom_site_type_symbol
_atom_site_fract_x
_atom_site_fract_y
_atom_site_fract_z
O1	O	1.107930	0.089372	-0.102056
O2	O	0.865868	0.089364	-0.115355
O3	O	0.993548	0.089358	0.012325
O4	O	0.980250	0.089379	-0.229736
O5	O	0.983946	-0.089284	0.002706
O6	O	0.856265	-0.089277	-0.124973
O7	O	1.098328	-0.089269	-0.111674
Cu8	Cu	0.976420	-0.105585	-0.119202
Cu9	Cu	0.987776	0.105680	-0.107828
O10	O	0.970647	-0.089262	-0.239354
C11	C	0.830092	0.000042	-0.119626
C12	C	0.737796	0.000039	-0.118010
C13	C	0.520221	-0.097328	-0.119518
C14	C	0.433502	-0.097325	-0.117991
C15	C	0.443981	0.097440	-0.107509
C16	C	0.530700	0.097435	-0.109030
C17	C	0.568817	0.000048	-0.115039
C18	C	0.395378	0.000056	-0.111991
C19	C	0.301353	0.000061	-0.110335
C20	C	0.662849	0.000043	-0.116693
N21	N	0.968439	-0.254176	-0.127202
C22	C	0.956698	-0.473291	-0.138977
C23	C	1.007501	-0.526621	-0.088049
C24	C	1.000968	-0.648544	-0.094601
C25	C	0.963230	-0.351357	-0.132426
C26	C	1.134104	0.000055	-0.107404
C27	C	1.226400	0.000066	-0.109019
C28	C	0.988208	0.000036	0.038490
C29	C	0.986593	0.000035	0.130786
N30	N	0.995763	0.254272	-0.099821
C31	C	0.975987	0.000061	-0.265520
C32	C	0.977603	0.000070	-0.357815
C33	C	1.058601	0.000054	0.353059
C34	C	1.057078	0.000063	0.439780
C35	C	0.905589	0.000054	0.419905
C36	C	0.907114	0.000053	0.333187
C37	C	0.983622	0.000047	0.299766
C38	C	0.980574	0.000057	0.473205
C39	C	0.978921	0.000067	0.567232
C40	C	0.985275	0.000040	0.205733
H41	H	0.551254	-0.176627	-0.124410
C42	C	1.139557	0.000065	0.498402
C43	C	1.154355	-0.092694	0.555766
C44	C	1.236839	-0.092691	0.614388
C45	C	1.304524	0.000071	0.615645
C46	C	1.289727	0.092837	0.558278
C47	C	1.207244	0.092834	0.499656
H48	H	1.104249	-0.161368	0.554838
H49	H	1.247791	-0.161362	0.656855
H50	H	1.365583	0.000074	0.659040
H51	H	1.339834	0.161511	0.559206
H52	H	1.196291	0.161505	0.457189
H53	H	0.908302	-0.519196	-0.187496
H54	H	0.846053	0.000050	0.289793
H55	H	0.393938	-0.176618	-0.121638
C56	C	0.584163	0.204557	-0.104100
C57	C	0.679551	0.204549	-0.105767
C58	C	0.733015	0.311665	-0.100833
C59	C	0.691090	0.418787	-0.094232
C60	C	0.595697	0.418799	-0.092565
C61	C	0.542233	0.311683	-0.097499
H62	H	0.710591	0.125247	-0.110654
H63	H	0.803631	0.311656	-0.102067
H64	H	0.730667	0.498080	-0.090579
H65	H	0.564657	0.498101	-0.087678
H66	H	0.471617	0.311692	-0.096265
H67	H	0.412935	0.176729	-0.102617
C68	C	1.072893	-0.464606	-0.022504
C69	C	1.079380	-0.340920	-0.015919
C70	C	1.144772	-0.278899	0.049620
C71	C	1.203676	-0.340565	0.108574
C72	C	1.197191	-0.464258	0.101990
C73	C	1.131799	-0.526279	0.036452
H74	H	1.035774	-0.295265	-0.059561
H75	H	1.149572	-0.187333	0.054493
H76	H	1.252083	-0.294653	0.157090
H77	H	1.240797	-0.509913	0.145633
H78	H	1.126999	-0.617845	0.031578
C79	C	1.142759	0.000061	0.316296
C80	C	1.169621	0.092825	0.264399
C81	C	1.253782	0.092835	0.227639
C82	C	1.311080	0.000081	0.242777
C83	C	1.284220	-0.092690	0.294676
C84	C	1.200059	-0.092700	0.331436
H85	H	1.127205	0.161493	0.253191
H86	H	1.273666	0.161511	0.189220
H87	H	1.373381	0.000089	0.215565
H88	H	1.326636	-0.161358	0.305884
H89	H	1.180175	-0.161376	0.369855
C90	C	0.821432	0.000057	0.456671
C91	C	0.819750	0.000059	0.552057
C92	C	0.735592	0.000063	0.588820
C93	C	0.653116	0.000065	0.530197
C94	C	0.654795	0.000064	0.434805
C95	C	0.738953	0.000060	0.398041
H96	H	0.880807	0.000057	0.595459
H97	H	0.734349	0.000064	0.659436
H98	H	0.590817	0.000068	0.557411
H99	H	0.593738	0.000066	0.391403
H100	H	0.740196	0.000058	0.327425
