data_functionalizedCrystal
_audit_creation_method	'MofGen! by Chris Wilmer'
_symmetry_space_group_name_H-M	'P1'
_symmetry_Int_Tables_number	1
_symmetry_cell_setting	triclinic
loop_
_symmetry_equiv_pos_as_xyz
  x,y,z
_cell_length_a	18.050589
_cell_length_b	12.759401
_cell_length_c	12.759393
_cell_angle_alpha	90.020938
_cell_angle_beta	89.970454
_cell_angle_gamma	89.970254
loop_
_atom_site_label
_atom_site_type_symbol
_atom_site_fract_x
_atom_site_fract_y
_atom_site_fract_z
Zn1	Zn	-0.295593	-1.606168	-0.594027
Zn2	Zn	0.204407	-1.106168	-0.094027
Zn3	Zn	-0.419801	-1.606017	-0.418350
Zn4	Zn	0.080199	-1.106017	0.081650
Zn5	Zn	-0.295633	-1.430466	-0.418362
Zn6	Zn	0.204367	-0.930466	0.081638
Zn7	Zn	-0.419749	-1.430417	-0.593987
Zn8	Zn	0.080251	-0.930417	-0.093987
O9	O	-0.357694	-1.518267	-0.506182
O10	O	0.142306	-1.018267	-0.006182
O11	O	-0.312075	-1.753169	-0.570735
O12	O	0.187925	-1.253169	-0.070735
O13	O	-0.403368	-1.582688	-0.271331
O14	O	0.096632	-1.082688	0.228669
O15	O	-0.191703	-1.453857	-0.441686
O16	O	0.308297	-0.953857	0.058314
O17	O	-0.403330	-1.753058	-0.441666
O18	O	0.096670	-1.253058	0.058334
O19	O	-0.191674	-1.582944	-0.570746
O20	O	0.308326	-1.082944	-0.070746
O21	O	-0.312142	-1.453711	-0.271339
O22	O	0.187858	-0.953711	0.228661
O23	O	-0.312092	-1.283439	-0.441648
O24	O	0.187908	-0.783439	0.058352
O25	O	-0.403241	-1.453773	-0.741014
O26	O	0.096759	-0.953773	-0.241014
O27	O	-0.403280	-1.283402	-0.570679
O28	O	0.096720	-0.783402	-0.070679
O29	O	-0.312025	-1.582896	-0.741043
O30	O	0.187975	-1.082896	-0.241043
O31	O	-0.523719	-1.582640	-0.441627
O32	O	-0.023719	-1.082640	0.058373
O33	O	-0.523681	-1.453627	-0.570667
O34	O	-0.023681	-0.953627	-0.070667
C35	C	-0.357685	-1.245300	-0.506161
C36	C	0.142315	-0.745300	-0.006161
C37	C	-0.357699	-1.128523	-0.506177
C38	C	0.142301	-0.628523	-0.006177
C39	C	-0.550646	-1.518140	-0.506164
C40	C	-0.050646	-1.018140	-0.006164
C41	C	-0.633192	-1.518182	-0.506192
C42	C	-0.133192	-1.018182	-0.006192
C43	C	-0.357623	-1.518346	-0.780215
C44	C	0.142377	-1.018346	-0.280215
C45	C	-0.357592	-1.518379	-0.896992
C46	C	0.142408	-1.018379	-0.396992
C47	C	-0.832649	-1.448094	-0.576339
C48	C	-0.332649	-0.948094	-0.076339
C49	C	-0.882097	-1.422478	-0.480470
C50	C	-0.382097	-0.922478	0.019530
C51	C	-0.784322	-1.518285	-0.506206
C52	C	-0.284322	-1.018285	-0.006206
C53	C	-0.881956	-1.543953	-0.602085
C54	C	-0.381956	-1.043953	-0.102085
C55	C	-0.930307	-1.518383	-0.506227
C56	C	-0.430307	-1.018383	-0.006227
C57	C	-0.832683	-1.492619	-0.410286
C58	C	-0.332683	-0.992619	0.089714
C59	C	-0.832538	-1.614139	-0.531966
C60	C	-0.332538	-1.114139	-0.031966
C61	C	-0.881964	-1.588559	-0.436031
C62	C	-0.381964	-1.088559	0.063969
C63	C	-0.700224	-1.518226	-0.506194
C64	C	-0.200224	-1.018226	-0.006194
C65	C	-1.014404	-1.518442	-0.506228
C66	C	-0.514404	-1.018442	-0.006228
C67	C	-0.163989	-1.518423	-0.506222
C68	C	0.336011	-1.018423	-0.006222
C69	C	-0.081443	-1.518489	-0.506239
C70	C	0.418557	-1.018489	-0.006239
C71	C	-0.357704	-1.792300	-0.506203
C72	C	0.142296	-1.292300	-0.006203
C73	C	-0.357708	-1.909077	-0.506212
C74	C	0.142292	-1.409077	-0.006212
C75	C	-0.405253	-1.073670	-0.573257
C76	C	0.094747	-0.573670	-0.073257
C77	C	-0.405256	-0.963946	-0.573278
C78	C	0.094744	-0.463946	-0.073278
C79	C	-0.310149	-0.963938	-0.439129
C80	C	0.189851	-0.463938	0.060871
C81	C	-0.310143	-1.073660	-0.439114
C82	C	0.189857	-0.573660	0.060886
C83	C	-0.310088	-1.585619	-0.951871
C84	C	0.189912	-1.085619	-0.451871
C85	C	-0.310056	-1.585637	-1.061595
C86	C	0.189944	-1.085637	-0.561595
C87	C	-0.405039	-1.451172	-1.061552
C88	C	0.094961	-0.951172	-0.561552
C89	C	-0.405067	-1.451150	-0.951829
C90	C	0.094933	-0.951150	-0.451829
C91	C	-0.357712	-1.518249	-0.233214
C92	C	0.142288	-1.018249	0.266786
C93	C	-0.357533	-1.518419	-0.116438
C94	C	0.142467	-1.018419	0.383562
H95	H	-0.903882	-1.341464	-0.458702
H96	H	-0.403882	-0.841464	0.041298
H97	H	-0.810755	-1.695134	-0.553780
H98	H	-0.310755	-1.195134	-0.053780
N99	N	-0.453583	-1.382446	-0.895766
N100	N	0.046417	-0.882446	-0.395766
N101	N	-0.448644	-1.285507	-0.908006
N102	N	0.051356	-0.785507	-0.408006
H103	H	-0.482904	-1.236982	-0.868411
H104	H	0.017096	-0.736982	-0.368411
N105	N	-0.453518	-1.382494	-1.117580
N106	N	0.046482	-0.882494	-0.617580
N107	N	-0.427358	-1.315587	-1.178799
N108	N	0.072642	-0.815587	-0.678799
H109	H	-0.461595	-1.267081	-1.218372
H110	H	0.038405	-0.767081	-0.718372
H111	H	-0.443978	-0.919289	-0.627904
H112	H	0.056022	-0.419289	-0.127904
H113	H	-0.271430	-1.640358	-0.907225
H114	H	0.228570	-1.140358	-0.407225
H115	H	-0.810995	-1.388648	-0.635565
H116	H	-0.310995	-0.888648	-0.135565
H117	H	-0.271432	-0.919255	-0.384527
H118	H	0.228568	-0.419255	0.115473
H119	H	-0.903481	-1.647959	-0.376662
H120	H	-0.403481	-1.147959	0.123338
H121	H	-0.271372	-1.640388	-1.106272
H122	H	0.228628	-1.140388	-0.606272
H123	H	-0.811128	-1.470854	-0.329188
H124	H	-0.311128	-0.970854	0.170812
H125	H	-0.903600	-1.565624	-0.683161
H126	H	-0.403600	-1.065624	-0.183161
H127	H	-0.271414	-1.118323	-0.384489
H128	H	0.228586	-0.618323	0.115511
H129	H	-0.443974	-1.118336	-0.627867
H130	H	0.056026	-0.618336	-0.127867
