data_functionalizedCrystal
_audit_creation_method	'MofGen! by Chris Wilmer'
_symmetry_space_group_name_H-M	'P1'
_symmetry_Int_Tables_number	1
_symmetry_cell_setting	triclinic
loop_
_symmetry_equiv_pos_as_xyz
  x,y,z
_cell_length_a	19.288864
_cell_length_b	15.944551
_cell_length_c	18.366186
_cell_angle_alpha	89.992809
_cell_angle_beta	89.977106
_cell_angle_gamma	83.317492
loop_
_atom_site_label
_atom_site_type_symbol
_atom_site_fract_x
_atom_site_fract_y
_atom_site_fract_z
O1	O	0.921629	0.104784	-0.060785
O2	O	0.719405	0.118919	-0.060735
O3	O	0.826039	-0.010445	-0.060755
O4	O	0.814995	0.234147	-0.060765
O5	O	0.826021	-0.010451	0.060345
O6	O	0.719387	0.118912	0.060364
O7	O	0.921611	0.104777	0.060315
Zn8	Zn	0.820496	0.111844	0.079567
Zn9	Zn	0.820520	0.111852	-0.079987
O10	O	0.814977	0.234141	0.060334
C11	C	0.693519	0.118461	-0.000179
C12	C	0.616411	0.117095	-0.000160
C13	C	0.571915	0.193000	-0.000175
C14	C	0.499465	0.191717	-0.000183
C15	C	0.471514	0.114526	-0.000191
C16	C	0.516020	0.038611	-0.000172
C17	C	0.588469	0.039896	-0.000156
C18	C	0.363098	0.053847	-0.042639
C19	C	0.290650	0.052565	-0.042659
C20	C	0.248058	0.110560	-0.000234
C21	C	0.277920	0.169850	0.042200
C22	C	0.350369	0.171135	0.042216
C23	C	0.392956	0.113124	-0.000207
C24	C	0.125002	0.185079	-0.000257
C25	C	0.052550	0.183793	-0.000260
C26	C	0.069107	0.030684	-0.000257
C27	C	0.141557	0.031972	-0.000246
C28	C	0.169500	0.109172	-0.000249
C29	C	0.825572	-0.041740	-0.000205
C30	C	0.824197	-0.134981	-0.000204
C31	C	0.754815	-0.349571	-0.000197
C32	C	0.787025	-0.410715	0.059504
C33	C	0.821710	-0.305697	-0.000209
C34	C	0.787058	-0.410692	-0.059890
C35	C	0.819303	-0.470601	-0.000217
C36	C	0.853939	-0.365614	0.059542
C37	C	0.853963	-0.365585	-0.059906
C38	C	0.886222	-0.426712	-0.000190
C39	C	0.823095	-0.210700	-0.000204
C40	C	0.817924	-0.565597	-0.000217
C41	C	0.947497	0.105235	-0.000243
C42	C	1.024605	0.106600	-0.000267
C43	C	0.815444	0.265436	-0.000217
C44	C	0.816819	0.358677	-0.000223
N45	N	0.820485	0.111838	0.188458
N46	N	0.820537	0.111852	-0.188878
C47	C	0.867718	0.054583	0.226549
C48	C	0.867722	0.054580	0.302777
C49	C	0.820500	0.111844	0.340910
C50	C	0.773258	0.169103	0.302810
C51	C	0.773251	0.169100	0.226583
C52	C	0.811404	0.188378	0.461669
C53	C	0.811416	0.188383	0.537894
C54	C	0.820520	0.111855	0.576018
C55	C	0.829626	0.035320	0.537908
C56	C	0.829618	0.035316	0.461681
C57	C	0.820503	0.111854	0.423565
C58	C	0.867760	0.054592	0.696765
C59	C	0.867760	0.054587	0.772994
C60	C	0.773299	0.169118	0.773025
C61	C	0.773296	0.169115	0.696797
C62	C	0.820531	0.111853	0.658671
H63	H	0.374680	0.219409	0.076770
H64	H	0.594661	0.255862	-0.000179
H65	H	0.734787	0.215724	0.195568
H66	H	0.803978	0.250700	0.430635
C67	C	0.891676	-0.338712	-0.127161
C68	C	0.893016	-0.251115	-0.125890
C69	C	0.927753	-0.226328	-0.187835
H70	H	0.867900	-0.353879	-0.169593
H71	H	0.938117	-0.366142	-0.127603
H72	H	0.846584	-0.223694	-0.125455
H73	H	0.916797	-0.235926	-0.083472
H74	H	0.974194	-0.253758	-0.188277
H75	H	0.903973	-0.241500	-0.230262
H76	H	0.928673	-0.166893	-0.186977
H77	H	0.906177	0.007955	0.195510
H78	H	0.266342	0.004290	-0.077214
H79	H	0.758763	-0.430658	-0.110366
H80	H	0.397772	0.006619	-0.077190
C81	C	0.485772	-0.045259	-0.000297
C82	C	0.508441	-0.091137	-0.062584
C83	C	0.480600	-0.168409	-0.062715
H84	H	0.436253	-0.035273	-0.000348
H85	H	0.501040	-0.076550	0.041916
H86	H	0.493169	-0.059852	-0.104785
H87	H	0.557956	-0.101145	-0.062546
H88	H	0.495868	-0.199700	-0.020503
H89	H	0.431082	-0.158415	-0.062764
H90	H	0.495982	-0.199550	-0.104973
C91	C	0.680793	-0.304827	-0.000257
C92	C	0.670384	-0.254858	-0.062873
C93	C	0.602203	-0.213638	-0.062955
H94	H	0.673856	-0.270053	0.041714
H95	H	0.648537	-0.345542	0.000178
H96	H	0.702630	-0.214148	-0.063301
H97	H	0.677306	-0.289612	-0.104854
H98	H	0.569947	-0.254353	-0.062521
H99	H	0.595272	-0.178869	-0.020981
H100	H	0.595130	-0.179736	-0.105442
H101	H	0.734808	0.215728	0.333861
H102	H	0.804006	0.250702	0.568917
H103	H	0.016321	0.245606	-0.000268
C104	C	0.749161	-0.437325	0.126760
C105	C	0.680395	-0.397909	0.126495
C106	C	0.645487	-0.422406	0.188431
H107	H	0.772385	-0.421139	0.169207
H108	H	0.748892	-0.496871	0.126498
H109	H	0.680667	-0.338377	0.126764
H110	H	0.657151	-0.414089	0.084062
H111	H	0.645219	-0.481952	0.188169
H112	H	0.668718	-0.406220	0.230873
H113	H	0.598825	-0.395673	0.188256
H114	H	0.882201	-0.345735	0.110070
H115	H	0.906186	0.007955	0.333797
C116	C	0.636818	-0.042493	0.000002
C117	C	0.678851	-0.046242	0.062320
C118	C	0.723394	-0.122131	0.062494
H119	H	0.665511	-0.045251	-0.042174
H120	H	0.609823	-0.088676	0.000038
H121	H	0.705844	-0.000071	0.062278
H122	H	0.650177	-0.043498	0.104507
H123	H	0.696399	-0.168314	0.062529
H124	H	0.752082	-0.124882	0.020314
H125	H	0.751914	-0.124688	0.104779
C126	C	0.960336	-0.471176	-0.000017
C127	C	0.995018	-0.448327	0.062602
C128	C	1.063288	-0.489281	0.062795
H129	H	0.984366	-0.455074	-0.041987
H130	H	0.959088	-0.530565	-0.000379
H131	H	0.996269	-0.388951	0.062957
H132	H	0.971009	-0.464430	0.104581
H133	H	1.062041	-0.548670	0.062432
H134	H	1.087312	-0.473176	0.020822
H135	H	1.086827	-0.473789	0.105284
H136	H	0.837031	-0.027002	0.430655
H137	H	0.837039	-0.026997	0.568947
H138	H	0.463229	0.253530	-0.000193
C139	C	0.919065	-0.007677	0.655497
C140	C	0.960416	-0.057841	0.705176
C141	C	1.007678	-0.115220	0.667189
H142	H	0.948043	0.022350	0.625740
H143	H	0.894095	-0.042612	0.625793
H144	H	0.985385	-0.022911	0.734867
H145	H	0.931457	-0.087887	0.734934
H146	H	0.982708	-0.150155	0.637486
H147	H	1.036651	-0.085186	0.637434
H148	H	1.035736	-0.149269	0.700890
C149	C	0.918934	-0.007676	0.814391
C150	C	0.881945	-0.059004	0.858162
C151	C	0.929064	-0.116378	0.896300
H152	H	0.947864	0.022355	0.844169
H153	H	0.947052	-0.041824	0.780786
H154	H	0.853839	-0.024860	0.891763
H155	H	0.853018	-0.089054	0.828402
H156	H	0.957182	-0.150526	0.862695
H157	H	0.957991	-0.086340	0.926074
H158	H	0.903974	-0.151216	0.925998
H159	H	0.734848	0.215741	0.804072
C160	C	0.721989	0.231381	0.655567
C161	C	0.680645	0.281546	0.705274
C162	C	0.633375	0.338922	0.667320
H163	H	0.693007	0.201351	0.625847
H164	H	0.746954	0.266315	0.625829
H165	H	0.655681	0.246616	0.735000
H166	H	0.709607	0.311594	0.734995
H167	H	0.658341	0.373857	0.637582
H168	H	0.604399	0.308886	0.637602
H169	H	0.605323	0.372971	0.701041
H170	H	0.243242	0.217075	0.076747
H171	H	0.046351	-0.032167	-0.000308
C172	C	0.155211	0.268977	-0.000215
C173	C	0.100731	0.335180	-0.000203
C174	C	0.128531	0.412478	-0.000154
H175	H	0.183140	0.272785	-0.042429
H176	H	0.183088	0.272702	0.042037
H177	H	0.072866	0.331457	-0.042450
H178	H	0.072798	0.331400	0.042009
H179	H	0.156408	0.416203	0.042097
H180	H	0.156460	0.416278	-0.042369
H181	H	0.091571	0.457406	-0.000139
C182	C	0.189757	-0.050531	-0.000276
C183	C	0.149775	-0.118409	-0.000303
C184	C	0.194153	-0.194428	-0.000338
H185	H	0.218356	-0.053335	0.041948
H186	H	0.218377	-0.053255	-0.042517
H187	H	0.121168	-0.115687	0.041934
H188	H	0.121178	-0.115633	-0.042524
H189	H	0.222773	-0.197151	-0.042579
H190	H	0.222750	-0.197223	0.041887
H191	H	0.167032	-0.240492	-0.000363
