data_functionalizedCrystal
_audit_creation_method	'MofGen! by Chris Wilmer'
_symmetry_space_group_name_H-M	'P1'
_symmetry_Int_Tables_number	1
_symmetry_cell_setting	triclinic
loop_
_symmetry_equiv_pos_as_xyz
  x,y,z
_cell_length_a	19.288864
_cell_length_b	10.654550
_cell_length_c	17.766277
_cell_angle_alpha	89.994852
_cell_angle_beta	89.976791
_cell_angle_gamma	83.810575
loop_
_atom_site_label
_atom_site_type_symbol
_atom_site_fract_x
_atom_site_fract_y
_atom_site_fract_z
O1	O	0.922379	0.156657	-0.062834
O2	O	0.720257	0.177789	-0.062782
O3	O	0.825965	-0.015616	-0.062807
O4	O	0.816670	0.350062	-0.062810
O5	O	0.825946	-0.015625	0.062382
O6	O	0.720238	0.177780	0.062406
O7	O	0.922360	0.156647	0.062355
Cu8	Cu	0.821297	0.167212	0.073811
Cu9	Cu	0.821319	0.167224	-0.074239
O10	O	0.816652	0.350052	0.062379
C11	C	0.694366	0.177105	-0.000181
C12	C	0.617249	0.175063	-0.000162
C13	C	0.573296	0.288545	-0.000175
C14	C	0.500836	0.286627	-0.000183
C15	C	0.472333	0.171222	-0.000193
C16	C	0.516296	0.057725	-0.000176
C17	C	0.588754	0.059646	-0.000160
C18	C	0.363484	0.080503	-0.044077
C19	C	0.291027	0.078587	-0.044098
C20	C	0.248849	0.165292	-0.000239
C21	C	0.279135	0.253934	0.043630
C22	C	0.351593	0.255855	0.043646
C23	C	0.393766	0.169126	-0.000210
C24	C	0.126326	0.276702	-0.000260
C25	C	0.053865	0.274779	-0.000263
C26	C	0.069327	0.045875	-0.000264
C27	C	0.141786	0.047800	-0.000253
C28	C	0.170281	0.163217	-0.000254
C29	C	0.825273	-0.062404	-0.000213
C30	C	0.823231	-0.201803	-0.000215
C31	C	0.885471	-0.282621	-0.000229
C32	C	0.883548	-0.413601	-0.000234
C33	C	0.757141	-0.382932	-0.000208
C34	C	0.759065	-0.251955	-0.000208
C35	C	0.949637	-0.232470	-0.000235
C36	C	1.011882	-0.313290	-0.000248
C37	C	1.009959	-0.444269	-0.000253
C38	C	0.945792	-0.494429	-0.000245
C39	C	0.948250	0.157332	-0.000248
C40	C	1.025367	0.159373	-0.000273
C41	C	0.817344	0.396840	-0.000216
C42	C	0.819385	0.536240	-0.000219
N43	N	0.821287	0.167203	0.177941
N44	N	0.821335	0.167223	-0.178369
C45	C	0.868110	0.081606	0.217318
C46	C	0.868114	0.081600	0.296119
C47	C	0.821301	0.167213	0.335542
C48	C	0.774469	0.252818	0.296156
C49	C	0.774462	0.252813	0.217356
C50	C	0.812752	0.281634	0.460380
C51	C	0.812764	0.281641	0.539179
C52	C	0.821320	0.167229	0.578588
C53	C	0.829879	0.052804	0.539189
C54	C	0.829871	0.052799	0.460389
C55	C	0.821304	0.167228	0.420988
C56	C	0.868150	0.081617	0.703410
C57	C	0.868149	0.081610	0.782214
C58	C	0.774508	0.252839	0.782249
C59	C	0.774506	0.252835	0.703447
C60	C	0.821330	0.167226	0.664033
H61	H	0.596492	0.382526	-0.000177
C62	C	0.722957	0.346983	0.174037
C63	C	0.671481	0.441195	0.217392
C64	C	0.619978	0.535368	0.174071
C65	C	0.619950	0.535328	0.087394
C66	C	0.671428	0.441112	0.044033
C67	C	0.722931	0.346939	0.087355
H68	H	0.671500	0.441227	0.281560
H69	H	0.581870	0.605112	0.206170
H70	H	0.581824	0.605040	0.055325
H71	H	0.671409	0.441080	-0.020135
H72	H	0.761039	0.277195	0.055256
H73	H	0.944232	-0.601083	-0.000257
H74	H	1.060642	-0.510069	-0.000271
H75	H	0.836845	-0.040361	0.571274
H76	H	0.266373	0.006415	-0.079822
H77	H	0.376250	0.328027	0.079369
H78	H	0.951210	-0.125822	-0.000229
H79	H	0.465043	0.379040	-0.000191
C80	C	0.409876	-0.014881	-0.092325
C81	C	0.376566	-0.112369	-0.140586
C82	C	0.422957	-0.207751	-0.188830
C83	C	0.502659	-0.205645	-0.188813
C84	C	0.535973	-0.108153	-0.140550
C85	C	0.489582	-0.012771	-0.092306
H86	H	0.317562	-0.113931	-0.140600
H87	H	0.398295	-0.279921	-0.224558
H88	H	0.537000	-0.276253	-0.224526
H89	H	0.594977	-0.106591	-0.140536
H90	H	0.514244	0.059399	-0.056579
C91	C	0.919626	-0.012558	0.339444
C92	C	0.971150	-0.106684	0.296087
C93	C	1.022664	-0.200840	0.339408
C94	C	1.022654	-0.200870	0.426085
C95	C	0.971128	-0.106740	0.469447
C96	C	0.919614	-0.012584	0.426126
H97	H	0.971159	-0.106665	0.231919
H98	H	1.060806	-0.270520	0.307309
H99	H	1.060787	-0.270569	0.458154
H100	H	0.971119	-0.106759	0.533615
H101	H	0.881472	0.057096	0.458225
C102	C	0.484946	-0.069223	-0.000190
C103	C	0.405246	-0.071342	-0.000213
C104	C	0.373897	-0.198295	-0.000223
C105	C	0.422249	-0.323129	-0.000209
C106	C	0.501955	-0.321014	-0.000186
C107	C	0.533303	-0.194061	-0.000177
H108	H	0.369448	0.021072	-0.000223
H109	H	0.314894	-0.199860	-0.000240
H110	H	0.399043	-0.417107	-0.000217
H111	H	0.537752	-0.413428	-0.000177
H112	H	0.592307	-0.192497	-0.000160
H113	H	0.018079	0.367194	-0.000269
H114	H	1.064124	-0.272440	-0.000274
H115	H	0.704899	-0.423784	-0.000200
C116	C	0.723006	0.347007	0.660127
C117	C	0.671530	0.441219	0.703482
C118	C	0.620026	0.535392	0.660161
C119	C	0.619998	0.535352	0.573484
C120	C	0.671476	0.441136	0.530123
C121	C	0.722980	0.346963	0.573444
H122	H	0.671549	0.441252	0.767650
H123	H	0.581919	0.605136	0.692260
H124	H	0.581872	0.605064	0.541415
H125	H	0.671457	0.441104	0.465955
H126	H	0.761087	0.277219	0.541346
H127	H	0.624542	-0.032767	-0.000150
H128	H	0.708384	-0.186150	-0.000196
C129	C	0.232749	0.349320	0.091879
C130	C	0.153048	0.347209	0.091871
C131	C	0.106659	0.442595	0.140114
C132	C	0.139971	0.540092	0.188367
C133	C	0.219676	0.542208	0.188377
C134	C	0.266066	0.446821	0.140133
H135	H	0.128385	0.275032	0.056150
H136	H	0.047656	0.441028	0.140107
H137	H	0.105631	0.610703	0.224079
H138	H	0.244340	0.614384	0.224098
H139	H	0.325069	0.448388	0.140141
C140	C	0.190138	-0.077034	-0.000249
C141	C	0.242041	-0.107201	0.064769
C142	C	0.290393	-0.232042	0.064777
C143	C	0.286843	-0.326718	-0.000233
C144	C	0.234938	-0.296554	-0.065256
C145	C	0.186586	-0.171712	-0.065264
H146	H	0.244671	-0.037114	0.112898
H147	H	0.328816	-0.254371	0.112912
H148	H	0.322636	-0.419133	-0.000228
H149	H	0.232308	-0.366640	-0.113385
H150	H	0.148163	-0.149383	-0.113399
C151	C	0.839271	-0.073058	0.417049
C152	C	0.848679	-0.198917	0.460386
C153	C	0.858073	-0.324776	0.417045
C154	C	0.858060	-0.324776	0.330368
C155	C	0.848652	-0.198912	0.287026
C156	C	0.839258	-0.073053	0.330366
H157	H	0.848689	-0.198921	0.524554
H158	H	0.865038	-0.417948	0.449130
H159	H	0.865014	-0.417944	0.298285
H160	H	0.848642	-0.198908	0.222858
H161	H	0.832293	0.020119	0.298282
H162	H	0.046120	-0.048091	-0.000320
H163	H	0.906235	0.011895	0.185229
C164	C	0.919649	-0.012562	0.660050
C165	C	0.917796	-0.155560	0.670895
C166	C	0.969296	-0.249740	0.627538
C167	C	1.022647	-0.200922	0.573336
C168	C	1.024502	-0.057917	0.562489
C169	C	0.973003	0.036264	0.605846
H170	H	0.878301	-0.191705	0.711020
H171	H	0.967922	-0.355603	0.635568
H172	H	1.060770	-0.270640	0.541241
H173	H	1.063998	-0.021772	0.522364
H174	H	0.974376	0.142126	0.597816
H175	H	0.906276	0.011899	0.814274
C176	C	0.803349	0.407502	0.582515
C177	C	0.793922	0.533353	0.539171
C178	C	0.784505	0.659218	0.582504
C179	C	0.784516	0.659231	0.669181
C180	C	0.793944	0.533375	0.712530
C181	C	0.803360	0.407510	0.669197
H182	H	0.793913	0.533348	0.475003
H183	H	0.777527	0.752385	0.550414
H184	H	0.777546	0.752403	0.701259
H185	H	0.793952	0.533380	0.776698
H186	H	0.810339	0.314344	0.701287
H187	H	0.149528	0.370681	-0.000250
H188	H	0.736390	0.322542	0.814346
H189	H	0.805772	0.374809	0.428300
H190	H	0.736353	0.322524	0.328258
