data_functionalizedCrystal
_audit_creation_method	'MofGen! by Chris Wilmer'
_symmetry_space_group_name_H-M	'P1'
_symmetry_Int_Tables_number	1
_symmetry_cell_setting	triclinic
loop_
_symmetry_equiv_pos_as_xyz
  x,y,z
_cell_length_a	17.699083
_cell_length_b	10.723024
_cell_length_c	16.176319
_cell_angle_alpha	89.994397
_cell_angle_beta	89.998611
_cell_angle_gamma	83.875442
loop_
_atom_site_label
_atom_site_type_symbol
_atom_site_fract_x
_atom_site_fract_y
_atom_site_fract_z
O1	O	1.005074	0.157797	-0.068628
O2	O	1.505074	0.657797	0.431372
O3	O	0.784825	0.178327	-0.068655
O4	O	1.284825	0.678327	0.431345
O5	O	0.900030	-0.013601	-0.068638
O6	O	1.400030	0.486399	0.431362
O7	O	0.889869	0.349725	-0.068646
O8	O	1.389869	0.849725	0.431354
O9	O	0.900014	-0.013613	0.068855
O10	O	1.400014	0.486387	0.568855
O11	O	0.784809	0.178315	0.068838
O12	O	1.284809	0.678315	0.568838
O13	O	1.005058	0.157785	0.068865
O14	O	1.505058	0.657785	0.568865
Cu15	Cu	0.894932	0.168049	0.081406
Cu16	Cu	1.394932	0.668049	0.581406
Cu17	Cu	0.894951	0.168063	-0.081196
Cu18	Cu	1.394951	0.668063	0.418804
O19	O	0.889853	0.349713	0.068848
O20	O	1.389853	0.849713	0.568848
C21	C	0.756616	0.177585	0.000088
C22	C	1.256616	0.677585	0.500088
C23	C	0.672584	0.175378	0.000078
C24	C	1.172584	0.675378	0.500078
C25	C	0.899283	-0.060094	0.000107
C26	C	1.399283	0.439906	0.500107
C27	C	0.897070	-0.198610	0.000104
C28	C	1.397070	0.301390	0.500104
C29	C	0.624673	0.288036	0.000076
C30	C	1.124673	0.788036	0.500076
C31	C	0.545717	0.285955	0.000086
C32	C	1.045717	0.785955	0.500086
C33	C	0.514672	0.171215	0.000093
C34	C	1.014672	0.671215	0.500093
C35	C	0.562589	0.058549	0.000098
C36	C	1.062589	0.558549	0.500098
C37	C	0.641544	0.060631	0.000093
C38	C	1.141544	0.560631	0.500093
C39	C	0.244173	0.050148	0.000118
C40	C	0.744173	0.550148	0.500118
C41	C	0.165212	0.048075	0.000121
C42	C	0.665212	0.548075	0.500121
C43	C	0.148346	0.275473	0.000112
C44	C	0.648346	0.775473	0.500112
C45	C	0.227301	0.277555	0.000107
C46	C	0.727301	0.777555	0.500107
C47	C	0.275210	0.164889	0.000116
C48	C	0.775210	0.664889	0.500116
C49	C	0.360824	0.167147	0.000106
C50	C	0.860824	0.667147	0.500106
C51	C	0.429060	0.168956	0.000097
C52	C	0.929060	0.668956	0.500097
C53	C	0.961533	-0.274698	0.000111
C54	C	1.461533	0.225302	0.500111
C55	C	0.959248	-0.417863	0.000108
C56	C	1.459248	0.082137	0.500108
C57	C	1.033268	0.158527	0.000120
C58	C	1.533268	0.658527	0.500120
C59	C	1.117300	0.160734	0.000125
C60	C	1.617300	0.660734	0.500125
C61	C	0.890601	0.396206	0.000100
C62	C	1.390601	0.896206	0.500100
C63	C	0.892813	0.534723	0.000098
C64	C	1.392813	1.034723	0.500098
N65	N	0.894924	0.168038	0.195771
N66	N	1.394924	0.668038	0.695771
N67	N	0.894965	0.168064	-0.195561
N68	N	1.394965	0.668064	0.304439
C69	C	0.945953	0.083087	0.239042
C70	C	1.445953	0.583087	0.739042
C71	C	0.945957	0.083085	0.325590
C72	C	1.445957	0.583085	0.825590
C73	C	0.894935	0.168042	0.368863
C74	C	1.394935	0.668042	0.868863
C75	C	0.843901	0.252997	0.325586
C76	C	1.343901	0.752997	0.825586
C77	C	0.843894	0.252992	0.239040
C78	C	1.343894	0.752992	0.739040
C79	C	0.843927	0.253021	0.674614
C80	C	1.343927	0.753021	1.174614
C81	C	0.843940	0.253022	0.761165
C82	C	1.343940	0.753022	1.261165
C83	C	0.945989	0.083115	0.761163
C84	C	1.445989	0.583115	1.261163
C85	C	0.945983	0.083109	0.674618
C86	C	1.445983	0.583109	1.174618
C87	C	0.894946	0.168059	0.631348
C88	C	1.394946	0.668059	1.131348
C89	C	0.894942	0.168058	0.537503
C90	C	1.394942	0.668058	1.037503
C91	C	0.894943	0.168050	0.462706
C92	C	1.394943	0.668050	0.962706
H93	H	0.649943	0.381471	0.000069
H94	H	1.149943	0.881471	0.500069
C95	C	0.787804	0.346478	0.808765
C96	C	1.287804	0.846478	1.308765
N97	N	0.745525	0.416864	0.844617
N98	N	1.245525	0.916864	1.344617
H99	H	1.018413	-0.233851	0.000123
H100	H	1.518413	0.266149	0.500123
H101	H	0.802373	0.322192	0.639390
H102	H	1.302373	0.822192	1.139390
C103	C	0.296863	-0.073788	0.000123
C104	C	0.796863	0.426212	0.500123
N105	N	0.336553	-0.167143	0.000125
N106	N	0.836553	0.332857	0.500125
C107	C	0.820224	-0.253786	0.000096
C108	C	1.320224	0.246214	0.500096
N109	N	0.762342	-0.295342	0.000092
N110	N	1.262342	0.204658	0.500092
H111	H	0.837625	-0.399906	0.000098
H112	H	1.337625	0.100094	0.500098
H113	H	1.014433	-0.483241	0.000117
H114	H	1.514433	0.016759	0.500117
H115	H	0.987507	0.013911	0.360821
H116	H	1.487507	0.513911	0.860821
H117	H	0.802355	0.322167	0.360824
H118	H	1.302355	0.822167	0.860824
H119	H	0.802341	0.322166	0.203809
H120	H	1.302341	0.822166	0.703809
C121	C	1.002081	-0.010375	0.191449
C122	C	1.502081	0.489625	0.691449
N123	N	1.044356	-0.080777	0.155605
N124	N	1.544356	0.419223	0.655605
C125	C	0.131065	-0.078154	0.000138
C126	C	0.631065	0.421846	0.500138
N127	N	0.105346	-0.173225	0.000153
N128	N	0.605346	0.326775	0.500153
C129	C	1.002108	-0.010353	0.627022
C130	C	1.502108	0.489647	1.127022
N131	N	1.044381	-0.080755	0.591173
N132	N	1.544381	0.419245	1.091173
H133	H	0.506711	0.377693	0.000084
H134	H	1.006711	0.877693	0.500084
C135	C	1.002124	-0.010344	0.808768
C136	C	1.502124	0.489656	1.308768
N137	N	1.044404	-0.080735	0.844623
N138	N	1.544404	0.419265	1.344623
H139	H	0.109328	0.367210	0.000109
H140	H	0.609328	0.867210	0.500109
C141	C	0.528437	-0.067667	0.000107
C142	C	1.028437	0.432333	0.500107
N143	N	0.502715	-0.162735	0.000110
N144	N	1.002715	0.337265	0.500110
C145	C	0.261445	0.403777	0.000105
C146	C	0.761445	0.903777	0.500105
N147	N	0.287161	0.498851	0.000108
N148	N	0.787161	0.998851	0.500108
H149	H	0.680552	-0.031107	0.000094
H150	H	1.180552	0.468893	0.500094
