data_functionalizedCrystal
_audit_creation_method	'MofGen! by Chris Wilmer'
_symmetry_space_group_name_H-M	'P1'
_symmetry_Int_Tables_number	1
_symmetry_cell_setting	triclinic
loop_
_symmetry_equiv_pos_as_xyz
  x,y,z
_cell_length_a	27.732048
_cell_length_b	14.853567
_cell_length_c	13.330367
_cell_angle_alpha	89.996055
_cell_angle_beta	90.000003
_cell_angle_gamma	96.861207
loop_
_atom_site_label
_atom_site_type_symbol
_atom_site_fract_x
_atom_site_fract_y
_atom_site_fract_z
O1	O	0.063100	-1.195343	0.083366
O2	O	0.070617	-0.932761	0.083384
O3	O	-0.003500	-1.072207	0.083355
O4	O	0.137217	-1.055897	0.083395
O5	O	-0.003488	-1.072186	-0.083492
O6	O	0.070629	-0.932740	-0.083463
O7	O	0.063112	-1.195322	-0.083481
Cu8	Cu	0.066872	-1.064029	-0.098707
Cu9	Cu	0.066857	-1.064054	0.098609
O10	O	0.137229	-1.055875	-0.083453
C11	C	-0.021503	-1.071854	-0.000071
C12	C	-0.075162	-1.070823	-0.000079
C13	C	0.070283	-0.899167	-0.000037
C14	C	0.069262	-0.799100	-0.000031
C15	C	0.063446	-1.228915	-0.000058
C16	C	0.064467	-1.328982	-0.000057
C17	C	-0.413622	-1.146736	-0.000033
C18	C	-0.615300	-1.142911	-0.000019
O19	O	-0.646231	-1.212328	0.000020
N20	N	-0.634810	-1.060225	-0.000014
C21	C	-0.603898	-0.978490	-0.000006
O22	O	-0.625120	-0.908073	0.000009
C23	C	-0.402221	-0.982316	-0.000013
C24	C	-0.382714	-1.065007	-0.000028
C25	C	-0.394114	-1.229421	-0.000047
C26	C	-0.343698	-1.230376	-0.000056
C27	C	-0.312790	-1.148647	-0.000051
C28	C	-0.332298	-1.065963	-0.000037
C29	C	-0.371310	-0.900582	0.000002
C30	C	-0.320888	-0.901546	0.000003
C31	C	-0.301381	-0.984237	-0.000012
C32	C	-0.250973	-0.985189	-0.000041
N33	N	-0.231462	-1.067875	-0.000046
C34	C	-0.262371	-1.149604	-0.000051
C35	C	-0.709781	-0.976487	-0.000004
C36	C	-0.760200	-0.975530	-0.000004
C37	C	-0.771599	-1.139952	-0.000015
C38	C	-0.721179	-1.140908	-0.000022
C39	C	-0.690271	-1.059173	-0.000009
C40	C	-0.156492	-1.151604	-0.000071
C41	C	-0.106071	-1.152552	-0.000084
C42	C	-0.094677	-0.988131	-0.000068
C43	C	-0.145094	-0.987183	-0.000060
C44	C	-0.176001	-1.068926	-0.000058
O45	O	-0.220013	-0.915809	-0.000069
O46	O	-0.241139	-1.220011	-0.000044
C47	C	-0.464039	-1.145781	-0.000024
C48	C	-0.483547	-1.063097	-0.000010
C49	C	-0.452638	-0.981367	-0.000005
C50	C	-0.533966	-1.062140	-0.000010
C51	C	-0.564874	-1.143869	-0.000015
C52	C	-0.545364	-1.226555	-0.000020
C53	C	-0.494947	-1.227510	-0.000029
C54	C	-0.472149	-0.898682	-0.000000
C55	C	-0.522566	-0.897733	0.000008
C56	C	-0.553474	-0.979462	0.000003
C57	C	0.155232	-1.056228	-0.000024
C58	C	0.208891	-1.057259	-0.000009
N59	N	0.066881	-1.064017	-0.237488
C60	C	0.020920	-0.387353	-0.000067
C61	C	0.108973	-0.364639	-0.000041
C62	C	0.109933	-0.458657	-0.000038
C63	C	0.066385	-0.517028	-0.000047
C64	C	0.021878	-0.481380	-0.000061
C65	C	0.154439	-0.494313	-0.000015
C66	C	0.155401	-0.588336	-0.000010
C67	C	0.111853	-0.646708	-0.000027
C68	C	0.067344	-0.611055	-0.000041
C69	C	0.023796	-0.669425	-0.000051
C70	C	-0.020713	-0.633774	-0.000072
C71	C	-0.021670	-0.539752	-0.000077
C72	C	0.112809	-0.740730	-0.000021
C73	C	0.024755	-0.763452	-0.000044
C74	C	0.096219	-1.118332	-0.710096
C75	C	0.037477	-1.009804	-0.710094
C76	C	0.037484	-1.009790	-0.605076
C77	C	0.066859	-1.064050	-0.552563
C78	C	0.096226	-1.118322	-0.605068
C79	C	0.008114	-0.955526	-0.552563
C80	C	0.008120	-0.955511	-0.447538
C81	C	0.037498	-1.009766	-0.395023
C82	C	0.066866	-1.064040	-0.447535
C83	C	0.096241	-1.118300	-0.395021
C84	C	0.125613	-1.172569	-0.447531
C85	C	0.125604	-1.172577	-0.552553
C86	C	0.037506	-1.009758	-0.290001
C87	C	0.096248	-1.118290	-0.289993
N88	N	0.066844	-1.064072	0.237391
H89	H	-0.090191	-1.219892	-0.000099
H90	H	0.189893	-0.446781	0.000003
Br91	Br	0.136121	-1.191923	-0.218733
H92	H	-0.015796	-0.911321	-0.404794
Br93	Br	0.168070	-0.285423	-0.000010
Br94	Br	-0.039483	-0.338973	-0.000105
H95	H	-0.069502	-0.921590	-0.000067
H96	H	-0.327820	-1.297712	-0.000064
H97	H	-0.057907	-0.510716	-0.000118
H98	H	0.149527	-1.216751	-0.404761
Br99	Br	-0.468481	-1.339740	-0.000043
Br100	Br	-0.031749	-0.881893	-0.623834
Br101	Br	-0.430209	-0.787752	0.000012
Br102	Br	0.215804	-0.636712	0.000019
Br103	Br	-0.587321	-1.337471	-0.000035
H104	H	0.013591	-0.965575	-0.247253
Br105	Br	-0.198430	-1.262543	-0.000067
H106	H	-0.419276	-1.295978	-0.000047
H107	H	-0.010707	-0.810972	-0.000056
H108	H	-0.056169	-0.681311	-0.000073
Br109	Br	0.136083	-1.191971	-0.781354
Br110	Br	-0.694710	-1.253135	-0.000045
H111	H	-0.796773	-1.206499	-0.000020
Br112	Br	-0.549033	-0.785498	0.000020
Br113	Br	0.173209	-0.789112	0.000019
Br114	Br	-0.002389	-0.936173	-0.781362
Br115	Br	-0.786668	-0.863302	-0.000008
Br116	Br	-0.667841	-0.865550	0.000016
H117	H	-0.387184	-0.833246	0.000020
Br118	Br	0.165463	-1.246219	-0.623821
H119	H	-0.160977	-0.919849	-0.000076
Br120	Br	-0.278944	-0.790613	0.000025
