data_functionalizedCrystal
_audit_creation_method	'MofGen! by Chris Wilmer'
_symmetry_space_group_name_H-M	'P1'
_symmetry_Int_Tables_number	1
_symmetry_cell_setting	triclinic
loop_
_symmetry_equiv_pos_as_xyz
  x,y,z
_cell_length_a	12.645331
_cell_length_b	14.908520
_cell_length_c	14.908308
_cell_angle_alpha	83.639235
_cell_angle_beta	86.715213
_cell_angle_gamma	93.319567
loop_
_atom_site_label
_atom_site_type_symbol
_atom_site_fract_x
_atom_site_fract_y
_atom_site_fract_z
Zn1	Zn	1.558108	-0.389885	0.532418
Zn2	Zn	2.058108	0.110115	1.032418
Zn3	Zn	1.557988	-0.532530	0.389788
Zn4	Zn	2.057988	-0.032530	0.889788
Zn5	Zn	1.391688	-0.381186	0.381092
Zn6	Zn	1.891688	0.118814	0.881092
Zn7	Zn	1.369939	-0.541202	0.541115
Zn8	Zn	1.869939	-0.041202	1.041115
O9	O	1.469431	-0.461201	0.461103
O10	O	1.969431	0.038799	0.961103
O11	O	1.706438	-0.408818	0.513498
O12	O	2.206438	0.091182	1.013498
O13	O	1.544979	-0.505184	0.261973
O14	O	2.044979	-0.005184	0.761973
O15	O	1.422916	-0.255675	0.393886
O16	O	1.922916	0.244325	0.893886
O17	O	1.706350	-0.513619	0.408708
O18	O	2.206350	-0.013619	0.908708
O19	O	1.545184	-0.262066	0.505065
O20	O	2.045184	0.237934	1.005065
O21	O	1.422799	-0.393993	0.255584
O22	O	1.922799	0.106007	0.755584
O23	O	1.240456	-0.402401	0.402320
O24	O	1.740456	0.097599	0.902320
O25	O	1.385848	-0.528399	0.666623
O26	O	1.885848	-0.028399	1.166623
O27	O	1.224477	-0.519964	0.519888
O28	O	1.724477	-0.019964	1.019888
O29	O	1.524095	-0.417227	0.660233
O30	O	2.024095	0.082773	1.160233
O31	O	1.523890	-0.660345	0.417142
O32	O	2.023890	-0.160345	0.917142
O33	O	1.385732	-0.666716	0.528321
O34	O	1.885732	-0.166716	1.028321
C35	C	1.452465	-0.696374	0.474639
C36	C	1.952465	-0.196374	0.974639
C37	C	1.445302	-0.796985	0.480459
C38	C	1.945302	-0.296985	0.980459
C39	C	1.194002	-0.461180	0.461105
C40	C	1.694002	0.038820	0.961105
C41	C	1.076170	-0.461195	0.461128
C42	C	1.576170	0.038805	0.961128
C43	C	1.575839	-0.979352	0.375719
C44	C	2.075839	-0.479352	0.875719
C45	C	1.569113	-1.073884	0.381185
C46	C	2.069113	-0.573884	0.881185
C47	C	1.425129	-1.080582	0.496861
C48	C	1.925129	-0.580582	0.996861
C49	C	1.431855	-0.986050	0.491395
C50	C	1.931855	-0.486050	0.991395
C51	C	1.507212	-0.935438	0.430821
C52	C	2.007212	-0.435438	0.930821
C53	C	1.513933	-0.840904	0.425351
C54	C	2.013933	-0.340904	0.925351
C55	C	1.369954	-0.847605	0.541031
C56	C	1.869954	-0.347605	1.041031
C57	C	1.363228	-0.942137	0.546497
C58	C	1.863228	-0.442137	1.046497
C59	C	0.898587	-0.535516	0.534748
C60	C	1.398587	-0.035516	1.034748
C61	C	1.021143	-0.535306	0.535026
C62	C	1.521143	-0.035306	1.035026
C63	C	1.036666	-0.367362	0.481696
C64	C	1.536666	0.132638	0.981696
C65	C	0.914002	-0.367819	0.482211
C66	C	1.414002	0.132181	0.982211
C67	C	0.914065	-0.479926	0.366675
C68	C	1.414065	0.020074	0.866675
C69	C	1.036484	-0.482041	0.367312
C70	C	1.536484	0.017959	0.867312
C71	C	1.745934	-0.461222	0.461103
C72	C	2.245934	0.038778	0.961103
C73	C	1.863764	-0.461231	0.461103
C74	C	2.363764	0.038769	0.961103
C75	C	1.452559	-0.474751	0.697188
C76	C	1.952559	0.025249	1.197188
C77	C	1.445370	-0.480525	0.797794
C78	C	1.945370	0.019475	1.297794
C79	C	1.486490	-0.225110	0.447535
C80	C	1.986490	0.274890	0.947535
C81	C	1.493759	-0.124502	0.441753
C82	C	1.993759	0.375498	0.941753
C83	C	1.486302	-0.447638	0.225933
C84	C	1.986302	0.052362	0.725933
C85	C	1.493715	-0.441609	0.125314
C86	C	1.993715	0.058391	0.625314
C87	C	1.575815	-0.375590	0.980189
C88	C	2.075815	0.124410	1.480189
C89	C	1.569063	-0.381013	1.074716
C90	C	2.069063	0.118987	1.574716
C91	C	1.425111	-0.496786	1.081378
C92	C	1.925111	0.003214	1.581378
C93	C	1.431862	-0.491364	0.986850
C94	C	1.931862	0.008636	1.486850
C95	C	1.507218	-0.430765	0.936259
C96	C	2.007218	0.069235	1.436259
C97	C	1.513974	-0.425348	0.841730
C98	C	2.013974	0.074652	1.341730
C99	C	1.370017	-0.541116	0.848393
C100	C	1.870017	-0.041116	1.348393
C101	C	1.363265	-0.546538	0.942920
C102	C	1.863265	-0.046538	1.442920
H103	H	1.575289	-0.799696	0.376026
H104	H	2.075289	-0.299696	0.876026
H105	H	1.637178	-0.326253	0.938996
H106	H	2.137178	0.173747	1.438996
Cl107	Cl	1.078734	-0.341232	0.586818
Cl108	Cl	1.578734	0.158768	1.086818
H109	H	1.314070	-0.811840	0.585897
H110	H	1.814070	-0.311840	1.085897
Cl111	Cl	1.670556	-0.915721	0.299558
Cl112	Cl	2.170556	-0.415721	0.799558
Cl113	Cl	1.655302	-0.311646	1.129939
Cl114	Cl	2.155302	0.188354	1.629939
H115	H	0.865162	-0.605515	0.522682
H116	H	1.365162	-0.105515	1.022682
H117	H	1.624998	-1.109634	0.336317
H118	H	2.124998	-0.609634	0.836317
H119	H	0.891690	-0.310796	0.430720
H120	H	1.391690	0.189204	0.930720
Cl121	Cl	1.093054	-0.279952	0.401100
Cl122	Cl	1.593054	0.220048	0.901100
Cl123	Cl	1.268502	-1.005772	0.622646
Cl124	Cl	1.768502	-0.505772	1.122646
Cl125	Cl	1.330416	-1.144225	0.573017
Cl126	Cl	1.830416	-0.644225	1.073017
Cl127	Cl	1.075767	-0.588609	0.343210
Cl128	Cl	1.575767	-0.088609	0.843210
Cl129	Cl	1.061546	-0.643013	0.516137
Cl130	Cl	1.561546	-0.143013	1.016137
H131	H	0.879937	-0.546893	0.346925
H132	H	1.379937	-0.046893	0.846925
Cl133	Cl	1.283786	-0.610492	0.793162
Cl134	Cl	1.783786	-0.110492	1.293162
H135	H	1.363760	-0.546122	1.122585
H136	H	1.863760	-0.046122	1.622585
H137	H	0.863863	-0.523765	0.604425
H138	H	1.363863	-0.023765	1.104425
Cl139	Cl	1.095065	-0.403881	0.278732
Cl140	Cl	1.595065	0.096119	0.778732
Cl141	Cl	1.060369	-0.516878	0.643220
Cl142	Cl	1.560369	-0.016878	1.143220
Cl143	Cl	0.880687	-0.396286	0.282060
Cl144	Cl	1.380687	0.103714	0.782060
Cl145	Cl	0.864391	-0.342342	0.588537
Cl146	Cl	1.364391	0.157658	1.088537
Cl147	Cl	1.268537	-0.622714	1.006529
Cl148	Cl	1.768537	-0.122714	1.506529
Cl149	Cl	1.608708	-0.349170	0.778131
Cl150	Cl	2.108708	0.150830	1.278131
