data_functionalizedCrystal
_audit_creation_method	'MofGen! by Chris Wilmer'
_symmetry_space_group_name_H-M	'P1'
_symmetry_Int_Tables_number	1
_symmetry_cell_setting	triclinic
loop_
_symmetry_equiv_pos_as_xyz
  x,y,z
_cell_length_a	27.731994
_cell_length_b	27.732048
_cell_length_c	16.176319
_cell_angle_alpha	89.988239
_cell_angle_beta	89.998662
_cell_angle_gamma	82.631595
loop_
_atom_site_label
_atom_site_type_symbol
_atom_site_fract_x
_atom_site_fract_y
_atom_site_fract_z
O1	O	0.640946	0.057393	-0.068637
O2	O	0.500149	0.066166	-0.068666
O3	O	0.574920	-0.008618	-0.068635
O4	O	0.566175	0.132177	-0.068668
O5	O	0.574910	-0.008622	0.068858
O6	O	0.500139	0.066162	0.068827
O7	O	0.640936	0.057389	0.068856
Cu8	Cu	0.570537	0.061775	0.081396
Cu9	Cu	0.570549	0.061780	-0.081206
O10	O	0.566165	0.132173	0.068825
C11	C	0.482137	0.065984	0.000077
C12	C	0.428480	0.065442	0.000067
C13	C	0.095756	0.062023	0.075047
C14	C	-0.105902	0.059962	0.075057
O15	O	-0.131979	0.059672	0.138797
N16	N	-0.131111	0.059708	0.000109
C17	C	-0.105902	0.059967	-0.074846
O18	O	-0.131971	0.059699	-0.138593
C19	C	0.095755	0.062025	-0.074855
C20	C	0.120961	0.062283	0.000097
C21	C	0.120962	0.062281	0.149993
C22	C	0.171373	0.062799	0.149990
C23	C	0.196579	0.063059	0.075040
C24	C	0.171372	0.062801	0.000094
C25	C	0.120964	0.062280	-0.149809
C26	C	0.171381	0.062794	-0.149805
C27	C	0.196587	0.063052	-0.074852
C28	C	0.246989	0.063580	-0.074858
N29	N	0.272198	0.063833	0.000089
C30	C	0.246993	0.063573	0.075038
C31	C	-0.211776	0.058887	-0.074836
C32	C	-0.262190	0.058374	-0.074834
C33	C	-0.262186	0.058368	0.075069
C34	C	-0.211771	0.058885	0.075066
C35	C	-0.186566	0.059141	0.000112
C36	C	0.352860	0.064661	0.075026
C37	C	0.403275	0.065181	0.075016
C38	C	0.403267	0.065185	-0.074886
C39	C	0.352856	0.064667	-0.074877
C40	C	0.327654	0.064404	0.000086
O41	O	0.273098	0.063864	-0.138565
O42	O	0.273072	0.063830	0.138776
C43	C	0.045345	0.061505	0.075050
C44	C	0.020139	0.061247	0.000104
C45	C	0.045344	0.061508	-0.074846
C46	C	-0.030275	0.060734	0.000106
C47	C	-0.055480	0.060474	0.075055
C48	C	-0.030271	0.060727	0.150003
C49	C	0.020140	0.061245	0.150000
C50	C	0.020135	0.061254	-0.149793
C51	C	-0.030277	0.060737	-0.149784
C52	C	-0.055482	0.060476	-0.074834
C53	C	0.574732	-0.026627	0.000114
C54	C	0.574179	-0.080282	0.000120
C55	C	0.614884	-0.419105	0.000086
C56	C	0.612833	-0.620764	0.000074
O57	O	0.650055	-0.652027	0.000046
N58	N	0.568496	-0.639879	0.000066
C59	C	0.524670	-0.608576	0.000055
O60	O	0.486912	-0.629462	0.000039
C61	C	0.526721	-0.406918	0.000061
C62	C	0.571061	-0.387805	0.000078
C63	C	0.659220	-0.399992	0.000102
C64	C	0.659732	-0.349580	0.000109
C65	C	0.615908	-0.318281	0.000101
C66	C	0.571573	-0.337394	0.000085
C67	C	0.482895	-0.375615	0.000045
C68	C	0.483412	-0.325198	0.000044
C69	C	0.527751	-0.306086	0.000061
C70	C	0.528262	-0.255683	0.000085
N71	N	0.572598	-0.236567	0.000093
C72	C	0.616421	-0.267867	0.000101
C73	C	0.523596	-0.714450	0.000054
C74	C	0.523083	-0.764864	0.000054
C75	C	0.611246	-0.777049	0.000071
C76	C	0.611759	-0.726633	0.000077
C77	C	0.567932	-0.695335	0.000062
C78	C	0.617494	-0.161998	0.000118
C79	C	0.618002	-0.111581	0.000129
C80	C	0.529839	-0.099401	0.000107
C81	C	0.529331	-0.149813	0.000100
C82	C	0.573162	-0.181111	0.000103
O83	O	0.491060	-0.224391	0.000104
O84	O	0.654174	-0.246971	0.000099
C85	C	0.614372	-0.469517	0.000079
C86	C	0.570036	-0.488629	0.000063
C87	C	0.526213	-0.457330	0.000055
C88	C	0.569523	-0.539043	0.000063
C89	C	0.613346	-0.570343	0.000071
C90	C	0.657683	-0.551228	0.000079
C91	C	0.658195	-0.500816	0.000087
C92	C	0.481876	-0.476445	0.000046
C93	C	0.481367	-0.526857	0.000040
C94	C	0.525191	-0.558157	0.000048
C95	C	0.658949	0.057571	0.000111
C96	C	0.712605	0.058113	0.000116
C97	C	0.566353	0.150182	0.000074
C98	C	0.566906	0.203837	0.000062
N99	N	0.570532	0.061771	0.195761
N100	N	0.570557	0.061781	-0.195571
C101	C	0.603650	0.028670	0.239039
C102	C	0.603653	0.028669	0.325586
C103	C	0.570538	0.061772	0.368853
C104	C	0.537416	0.094875	0.325569
C105	C	0.537412	0.094873	0.239024
C106	C	0.537433	0.094884	0.674598
C107	C	0.537441	0.094884	0.761149
C108	C	0.603674	0.028680	0.761160
C109	C	0.603669	0.028678	0.674614
C110	C	0.570546	0.061779	0.631338
C111	C	0.570543	0.061778	0.537493
C112	C	0.570543	0.061775	0.462696
H113	H	0.423798	0.065399	-0.135908
H114	H	0.654110	-0.096023	0.000144
H115	H	0.510473	0.121842	0.796376
H116	H	0.191892	0.063007	0.211024
C117	C	0.659452	-0.811487	0.000074
N118	N	0.695759	-0.837428	0.000068
H119	H	0.510452	0.121826	0.360803
H120	H	0.494160	-0.073908	0.000103
H121	H	0.510443	0.121826	0.203788
C122	C	0.640106	-0.007736	0.808771
N123	N	0.667547	-0.035163	0.844631
H124	H	-0.050802	0.060518	0.211029
C125	C	0.093244	0.062002	0.232451
N126	N	0.072369	0.061797	0.294564
C127	C	-0.289920	0.058077	0.157514
N128	N	-0.310812	0.057855	0.219608
C129	C	-0.057997	0.060450	-0.232243
N130	N	-0.078874	0.060229	-0.294350
H131	H	0.332331	0.064465	-0.135909
H132	H	0.653186	-0.187475	0.000117
C133	C	0.501058	0.131358	0.627005
N134	N	0.473681	0.158854	0.591155
C135	C	0.047854	0.061539	-0.232248
N136	N	0.068729	0.061755	-0.294359
C137	C	0.199103	0.063077	-0.232263
N138	N	0.219982	0.063292	-0.294371
C139	C	0.640074	-0.007756	0.373188
N140	N	0.667504	-0.035198	0.409041
H141	H	-0.191252	0.059096	0.136099
H142	H	0.695837	-0.334024	0.000120
H143	H	0.423795	0.065393	0.136054
H144	H	-0.282710	0.058171	-0.135868
C145	C	0.325144	0.064376	0.157489
N146	N	0.304268	0.064166	0.219600
H147	H	-0.191259	0.059096	-0.135876
C148	C	0.707433	-0.434414	0.000120
N149	N	0.743751	-0.460338	0.000142
H150	H	0.647863	-0.711076	0.000090
C151	C	0.705889	-0.585666	0.000087
N152	N	0.742195	-0.611608	0.000088
C153	C	0.474306	-0.785881	0.000046
N154	N	0.437566	-0.801709	0.000034
H155	H	0.100450	0.062069	-0.210844
H156	H	0.445258	-0.542413	0.000034
C157	C	0.434117	-0.396627	0.000021
N158	N	0.397375	-0.412451	-0.000000
C159	C	0.475380	-0.680027	0.000038
N160	N	0.439063	-0.654101	0.000028
C161	C	0.435198	-0.290772	0.000030
N162	N	0.398883	-0.264843	0.000023
C163	C	0.480556	-0.170837	0.000087
N164	N	0.443817	-0.186669	0.000069
C165	C	0.640079	-0.007747	0.191452
N166	N	0.667517	-0.035179	0.155613
C167	C	0.640096	-0.007739	0.627025
N168	N	0.667532	-0.035171	0.591181
H169	H	0.694301	-0.485260	0.000100
H170	H	0.446189	-0.450966	0.000038
H171	H	0.040658	0.061455	0.211034
