data_functionalizedCrystal
_audit_creation_method	'MofGen! by Chris Wilmer'
_symmetry_space_group_name_H-M	'P1'
_symmetry_Int_Tables_number	1
_symmetry_cell_setting	triclinic
loop_
_symmetry_equiv_pos_as_xyz
  x,y,z
_cell_length_a	12.827893
_cell_length_b	12.645330
_cell_length_c	12.827885
_cell_angle_alpha	89.968887
_cell_angle_beta	89.980728
_cell_angle_gamma	90.012807
loop_
_atom_site_label
_atom_site_type_symbol
_atom_site_fract_x
_atom_site_fract_y
_atom_site_fract_z
Zn1	Zn	1.597690	-0.421983	-0.590839
Zn2	Zn	1.597592	-0.599284	-0.416095
Zn3	Zn	1.422931	-0.422036	-0.416113
Zn4	Zn	1.422925	-0.599206	-0.590795
O5	O	1.510284	-0.510627	-0.503461
O6	O	1.743913	-0.445514	-0.567670
O7	O	1.574385	-0.575826	-0.269861
O8	O	1.446157	-0.273681	-0.439316
O9	O	1.743841	-0.575776	-0.439286
O10	O	1.574551	-0.273643	-0.567687
O11	O	1.446062	-0.445603	-0.269874
O12	O	1.276694	-0.445527	-0.439274
O13	O	1.446146	-0.575642	-0.737037
O14	O	1.276689	-0.575693	-0.567612
O15	O	1.574545	-0.445438	-0.737069
O16	O	1.574379	-0.747621	-0.439244
O17	O	1.446051	-0.747563	-0.567595
C18	C	1.238774	-0.510608	-0.503441
C19	C	1.122621	-0.510625	-0.503457
C20	C	1.070872	-0.446281	-0.567084
C21	C	0.950821	-0.446298	-0.567102
C22	C	1.510232	-0.786057	-0.503436
C23	C	1.510305	-0.903887	-0.503460
C24	C	1.590906	-1.071443	-0.422551
C25	C	1.591169	-0.948883	-0.422749
C26	C	1.540172	-0.948261	-0.613614
C27	C	1.540811	-1.070859	-0.613184
C28	C	1.399806	-1.071217	-0.475302
C29	C	1.400335	-0.948613	-0.472832
C30	C	1.782854	-0.510648	-0.503481
C31	C	1.899007	-0.510656	-0.503490
C32	C	1.510355	-0.510525	-0.776031
C33	C	1.510386	-0.510482	-0.892184
C34	C	1.510365	-0.234122	-0.503508
C35	C	1.510400	-0.116292	-0.503529
C36	C	1.573929	-0.446040	-0.943985
C37	C	1.573961	-0.445994	-1.064035
C38	C	1.510274	-0.510652	-0.231951
C39	C	1.510446	-0.510397	-0.115798
H40	H	0.943504	-0.565752	-0.449019
C41	C	1.436961	-0.584951	-1.055638
H42	H	1.397126	-0.625360	-1.103688
H43	H	1.391464	-0.544389	-1.013053
H44	H	1.476971	-0.631122	-1.013066
H45	H	1.078049	-0.565721	-0.448995
C46	C	1.650018	-1.109381	-0.645470
H47	H	1.693576	-1.050104	-0.658719
H48	H	1.644714	-1.151173	-0.706752
H49	H	1.679148	-1.150615	-0.590838
H50	H	1.456002	-0.565612	-0.936712
H51	H	1.572454	-1.101002	-0.340634
H52	H	1.115444	-0.391179	-0.621540
C53	C	1.565939	-0.908353	-0.312410
H54	H	1.555440	-0.966817	-0.267059
H55	H	1.504480	-0.866517	-0.314535
H56	H	1.622354	-0.866738	-0.287552
H57	H	1.628302	-0.390900	-0.899456
C58	C	1.700974	-1.112938	-0.447491
H59	H	1.698078	-1.157473	-0.507042
H60	H	1.726683	-1.151977	-0.389675
H61	H	1.746062	-1.054955	-0.461167
H62	H	1.673082	-0.919473	-0.441418
H63	H	0.906318	-0.391214	-0.621579
C64	C	1.647460	-0.371459	-1.124202
H65	H	1.687309	-0.331066	-1.076153
H66	H	1.607475	-0.325290	-1.166789
H67	H	1.692958	-0.412047	-1.166773
C68	C	1.314924	-0.907263	-0.546665
H69	H	1.249375	-0.935538	-0.526329
H70	H	1.330223	-0.928471	-0.616030
H71	H	1.312473	-0.832263	-0.543175
H72	H	1.484742	-1.100522	-0.675598
H73	H	1.483320	-0.919111	-0.675565
H74	H	1.620097	-0.917471	-0.637922
H75	H	1.377816	-0.919622	-0.391768
C76	C	1.363117	-1.113102	-0.368678
H77	H	1.414913	-1.158475	-0.340376
H78	H	1.299934	-1.151329	-0.377158
H79	H	1.351898	-1.055335	-0.322709
H80	H	1.339822	-1.100220	-0.534282
