data_functionalizedCrystal
_audit_creation_method	'MofGen! by Chris Wilmer'
_symmetry_space_group_name_H-M	'P1'
_symmetry_Int_Tables_number	1
_symmetry_cell_setting	triclinic
loop_
_symmetry_equiv_pos_as_xyz
  x,y,z
_cell_length_a	10.654550
_cell_length_b	9.065215
_cell_length_c	9.130313
_cell_angle_alpha	89.996437
_cell_angle_beta	89.999724
_cell_angle_gamma	84.749814
loop_
_atom_site_label
_atom_site_type_symbol
_atom_site_fract_x
_atom_site_fract_y
_atom_site_fract_z
O1	O	1.668658	0.207235	-0.121687
O2	O	2.168658	0.707235	0.378313
O3	O	1.303258	0.226979	-0.121713
O4	O	1.803258	0.726979	0.378287
O5	O	1.493513	0.002423	-0.121693
O6	O	1.993513	0.502423	0.378307
O7	O	1.478404	0.431791	-0.121707
O8	O	1.978404	0.931791	0.378293
O9	O	1.493500	0.002417	0.121906
O10	O	1.993500	0.502417	0.621906
O11	O	1.303245	0.226972	0.121886
O12	O	1.803245	0.726972	0.621886
O13	O	1.668645	0.207229	0.121912
O14	O	2.168645	0.707229	0.621912
Cu15	Cu	1.485944	0.217100	0.144141
Cu16	Cu	1.985944	0.717100	0.644141
Cu17	Cu	1.485959	0.217108	-0.143942
Cu18	Cu	1.985959	0.717108	0.356058
O19	O	1.478390	0.431784	0.121892
O20	O	1.978390	0.931784	0.621892
C21	C	1.256448	0.225526	0.000083
C22	C	1.756448	0.725526	0.500083
C23	C	1.116987	0.221189	0.000073
C24	C	1.616987	0.721189	0.500073
C25	C	1.492055	-0.052559	0.000105
C26	C	1.992055	0.447441	0.500105
C27	C	1.487716	-0.216378	0.000100
C28	C	1.987716	0.283622	0.500100
C29	C	1.038024	0.353404	0.000073
C30	C	1.538024	0.853404	0.500073
C31	C	0.906987	0.349320	0.000098
C32	C	1.406987	0.849320	0.500098
C33	C	0.933889	0.080794	0.000118
C34	C	1.433889	0.580794	0.500118
C35	C	1.064924	0.084879	0.000103
C36	C	1.564924	0.584879	0.500103
C37	C	1.715455	0.208682	0.000113
C38	C	2.215455	0.708682	0.500113
C39	C	1.854916	0.213019	0.000113
C40	C	2.354916	0.713019	0.500113
C41	C	1.479848	0.486767	0.000091
C42	C	1.979848	0.986767	0.500091
C43	C	1.484187	0.650586	0.000086
C44	C	1.984187	1.150586	0.500086
N45	N	1.485942	0.217094	0.346764
N46	N	1.985942	0.717094	0.846764
N47	N	1.485971	0.217102	-0.346565
N48	N	1.985971	0.717102	0.153435
C49	C	1.570216	0.117702	0.423425
C50	C	2.070216	0.617702	0.923425
C51	C	1.570228	0.117703	0.576762
C52	C	2.070228	0.617703	1.076762
C53	C	1.401688	0.316498	0.576763
C54	C	1.901688	0.816498	1.076763
C55	C	1.401671	0.316490	0.423429
C56	C	1.901671	0.816490	0.923429
H57	H	1.080410	0.464395	0.000059
H58	H	1.580410	0.964395	0.500059
H59	H	1.638833	0.036766	0.361007
H60	H	2.138833	0.536766	0.861007
Br61	Br	1.684598	-0.017197	0.680799
Br62	Br	2.184598	0.482803	1.180799
H63	H	1.333078	0.397427	0.639200
H64	H	1.833078	0.897427	1.139200
Br65	Br	1.287282	0.451375	0.319377
Br66	Br	1.787282	0.951375	0.819377
H67	H	0.891483	-0.030185	0.000151
H68	H	1.391483	0.469815	0.500151
Br69	Br	0.799826	0.528763	0.000106
Br70	Br	1.299826	1.028763	0.500106
H71	H	1.129219	-0.022793	0.000107
H72	H	1.629219	0.477207	0.500107
