data_functionalizedCrystal
_audit_creation_method	'MofGen! by Chris Wilmer'
_symmetry_space_group_name_H-M	'P1'
_symmetry_Int_Tables_number	1
_symmetry_cell_setting	triclinic
loop_
_symmetry_equiv_pos_as_xyz
  x,y,z
_cell_length_a	12.759401
_cell_length_b	15.297327
_cell_length_c	12.759393
_cell_angle_alpha	99.641342
_cell_angle_beta	89.982549
_cell_angle_gamma	99.705457
loop_
_atom_site_label
_atom_site_type_symbol
_atom_site_fract_x
_atom_site_fract_y
_atom_site_fract_z
Zn1	Zn	1.533781	-0.359126	-0.666303
Zn2	Zn	1.503234	-0.510013	-0.521009
Zn3	Zn	1.358078	-0.359171	-0.490651
Zn4	Zn	1.327641	-0.509940	-0.696635
O5	O	1.430683	-0.434563	-0.593650
O6	O	1.676748	-0.379153	-0.647040
O7	O	1.483932	-0.490053	-0.369970
O8	O	1.406907	-0.232921	-0.488553
O9	O	1.654305	-0.490010	-0.540293
O10	O	1.535996	-0.232888	-0.617604
O11	O	1.377286	-0.379230	-0.347667
O12	O	1.207021	-0.379159	-0.517965
O13	O	1.355033	-0.489885	-0.839623
O14	O	1.184660	-0.489929	-0.669300
O15	O	1.506483	-0.379083	-0.817338
O16	O	1.454419	-0.636248	-0.569705
O17	O	1.325412	-0.636195	-0.698737
C18	C	1.157720	-0.434542	-0.593631
C19	C	1.040941	-0.434554	-0.593652
C20	C	0.997736	-0.376940	-0.649361
C21	C	0.888009	-0.376958	-0.649371
C22	C	0.864699	-0.492210	-0.537961
C23	C	0.974426	-0.492188	-0.537946
C24	C	1.064252	-0.319307	-0.705068
C25	C	1.021048	-0.261689	-0.760782
C26	C	0.911320	-0.261706	-0.760793
C27	C	0.844797	-0.319341	-0.705088
C28	C	1.383327	-0.668955	-0.640829
C29	C	1.363163	-0.769229	-0.661048
C30	C	1.575227	-1.051871	-0.449502
C31	C	1.594171	-0.957659	-0.430500
C32	C	1.536421	-0.910547	-0.488136
C33	C	1.459723	-0.957656	-0.564776
C34	C	1.440772	-1.051878	-0.583774
C35	C	1.401965	-0.910554	-0.622407
C36	C	1.325268	-0.957663	-0.699047
C37	C	1.306320	-1.051876	-0.718042
C38	C	1.364070	-1.098988	-0.660407
C39	C	1.420917	-0.816332	-0.603409
C40	C	1.286462	-0.816339	-0.737681
C41	C	1.267518	-0.910551	-0.756683
C42	C	1.704712	-0.434585	-0.593669
C43	C	1.821487	-0.434594	-0.593678
C44	C	1.430770	-0.434471	-0.867665
C45	C	1.430807	-0.434432	-0.984433
C46	C	1.478254	-0.199255	-0.546309
C47	C	1.498526	-0.098981	-0.526135
C48	C	1.375307	-0.376715	-1.027686
C49	C	1.375345	-0.376688	-1.137405
C50	C	1.486390	-0.492097	-1.160609
C51	C	1.486346	-0.492128	-1.050893
C52	C	1.319769	-0.319019	-0.961226
C53	C	1.264265	-0.261298	-1.004478
C54	C	1.264303	-0.261271	-1.114197
C55	C	1.319843	-0.318966	-1.180664
C56	C	1.430671	-0.434589	-0.320688
C57	C	1.430888	-0.434374	-0.203868
H58	H	1.075219	-0.214759	-0.806128
Br59	Br	1.561762	-0.570391	-1.250813
H60	H	1.219101	-0.214277	-1.149410
H61	H	1.219040	-0.214330	-0.950355
H62	H	1.551849	-0.833835	-0.472659
Br63	Br	0.852689	-0.183503	-0.836391
Br64	Br	1.337892	-1.226852	-0.685721
H65	H	1.531555	-0.539113	-1.015674
Br66	Br	0.774419	-0.570425	-0.462369
Br67	Br	0.695882	-0.319352	-0.705087
Br68	Br	1.319885	-0.318933	-1.329570
Br69	Br	1.525002	-0.752409	-0.499399
H70	H	1.009603	-0.539102	-0.492582
H71	H	1.622233	-1.090238	-0.402577
Br72	Br	1.213167	-0.319286	-0.705066
Br73	Br	1.698265	-0.893730	-0.326502
Br74	Br	1.163433	-0.974496	-0.860693
Br75	Br	1.202223	-1.115809	-0.822047
Br76	Br	1.208071	-0.752409	-0.815895
Br77	Br	1.319724	-0.319046	-0.812321
