data_functionalizedCrystal
_audit_creation_method	'MofGen! by Chris Wilmer'
_symmetry_space_group_name_H-M	'P1'
_symmetry_Int_Tables_number	1
_symmetry_cell_setting	triclinic
loop_
_symmetry_equiv_pos_as_xyz
  x,y,z
_cell_length_a	14.519709
_cell_length_b	17.666332
_cell_length_c	14.519731
_cell_angle_alpha	90.007449
_cell_angle_beta	83.684499
_cell_angle_gamma	90.003734
loop_
_atom_site_label
_atom_site_type_symbol
_atom_site_fract_x
_atom_site_fract_y
_atom_site_fract_z
O1	O	1.223883	0.062851	0.120892
O2	O	1.473883	0.312851	0.370892
O3	O	1.723883	0.562851	0.620892
O4	O	1.973883	0.812851	0.870892
O5	O	0.955407	0.062875	0.135128
O6	O	1.205407	0.312875	0.385128
O7	O	1.455407	0.562875	0.635128
O8	O	1.705407	0.812875	0.885128
O9	O	1.096753	0.062856	-0.006227
O10	O	1.346753	0.312856	0.243773
O11	O	1.596753	0.562856	0.493773
O12	O	1.846753	0.812856	0.743773
O13	O	1.082537	0.062871	0.262247
O14	O	1.332537	0.312871	0.512247
O15	O	1.582537	0.562871	0.762247
O16	O	1.832537	0.812871	1.012247
O17	O	1.096728	-0.063041	-0.006235
O18	O	1.346728	0.186959	0.243765
O19	O	1.596728	0.436959	0.493765
O20	O	1.846728	0.686959	0.743765
O21	O	0.955382	-0.063022	0.135120
O22	O	1.205382	0.186978	0.385120
O23	O	1.455382	0.436978	0.635120
O24	O	1.705382	0.686978	0.885120
O25	O	1.223858	-0.063045	0.120884
O26	O	1.473858	0.186955	0.370884
O27	O	1.723858	0.436955	0.620884
O28	O	1.973858	0.686955	0.870884
Cu29	Cu	1.089618	-0.074529	0.128002
Cu30	Cu	1.339618	0.175471	0.378002
Cu31	Cu	1.589618	0.425471	0.628002
Cu32	Cu	1.839618	0.675471	0.878002
Cu33	Cu	1.089647	0.074359	0.128010
Cu34	Cu	1.339647	0.324359	0.378010
Cu35	Cu	1.589647	0.574359	0.628010
Cu36	Cu	1.839647	0.824359	0.878010
O37	O	1.082512	-0.063026	0.262239
O38	O	1.332512	0.186974	0.512239
O39	O	1.582512	0.436974	0.762239
O40	O	1.832512	0.686974	1.012239
C41	C	0.921035	-0.000071	0.134461
C42	C	1.171035	0.249929	0.384461
C43	C	1.421035	0.499929	0.634461
C44	C	1.671035	0.749929	0.884461
C45	C	0.818654	-0.000062	0.132473
C46	C	1.068654	0.249938	0.382473
C47	C	1.318654	0.499938	0.632473
C48	C	1.568654	0.749938	0.882473
N49	N	1.089604	-0.179248	0.127995
N50	N	1.339604	0.070752	0.377995
N51	N	1.589604	0.320752	0.627995
N52	N	1.839604	0.570752	0.877995
C53	C	0.443757	-0.000097	0.125153
C54	C	0.693757	0.249903	0.375153
C55	C	0.943757	0.499903	0.625153
C56	C	1.193757	0.749903	0.875153
C57	C	0.548065	-0.000087	0.127186
C58	C	0.798065	0.249913	0.377186
C59	C	1.048065	0.499913	0.627186
C60	C	1.298065	0.749913	0.877186
C61	C	0.631202	-0.000079	0.128813
C62	C	0.881202	0.249921	0.378813
C63	C	1.131202	0.499921	0.628813
C64	C	1.381202	0.749921	0.878813
C65	C	0.735517	-0.000070	0.130846
C66	C	0.985517	0.249930	0.380846
C67	C	1.235517	0.499930	0.630846
C68	C	1.485517	0.749930	0.880846
C69	C	1.152212	-0.218867	0.065433
C70	C	1.402212	0.031133	0.315433
C71	C	1.652212	0.281133	0.565433
C72	C	1.902212	0.531133	0.815433
C73	C	1.152218	-0.298114	0.065429
C74	C	1.402218	-0.048114	0.315429
C75	C	1.652218	0.201886	0.565429
C76	C	1.902218	0.451886	0.815429
C77	C	1.089624	-0.337741	0.128002
C78	C	1.339624	-0.087741	0.378002
C79	C	1.589624	0.162259	0.628002
C80	C	1.839624	0.412259	0.878002
C81	C	1.027003	-0.298113	0.190568
C82	C	1.277003	-0.048113	0.440568
C83	C	1.527003	0.201887	0.690568
C84	C	1.777003	0.451887	0.940568
C85	C	1.026994	-0.218867	0.190564
C86	C	1.276994	0.031133	0.440564
C87	C	1.526994	0.281133	0.690564
C88	C	1.776994	0.531133	0.940564
N89	N	1.078025	-0.462154	0.209585
N90	N	1.328025	-0.212154	0.459585
N91	N	1.578025	0.037846	0.709585
N92	N	1.828025	0.287846	0.959585
N93	N	1.078040	-0.537434	0.209585
N94	N	1.328040	-0.287434	0.459585
N95	N	1.578040	-0.037434	0.709585
N96	N	1.828040	0.212566	0.959585
C97	C	1.089648	-0.576505	0.128015
C98	C	1.339648	-0.326505	0.378015
C99	C	1.589648	-0.076505	0.628015
C100	C	1.839648	0.173495	0.878015
N101	N	1.101259	-0.537450	0.046441
N102	N	1.351259	-0.287450	0.296441
N103	N	1.601259	-0.037450	0.546441
N104	N	1.851259	0.212550	0.796441
N105	N	1.101249	-0.462163	0.046442
N106	N	1.351249	-0.212163	0.296442
N107	N	1.601249	0.037837	0.546442
N108	N	1.851249	0.287837	0.796442
C109	C	1.089627	-0.423670	0.128012
C110	C	1.339627	-0.173670	0.378012
C111	C	1.589627	0.076330	0.628012
C112	C	1.839627	0.326330	0.878012
C113	C	1.152266	-0.702052	0.065443
C114	C	1.402266	-0.452052	0.315443
C115	C	1.652266	-0.202052	0.565443
C116	C	1.902266	0.047948	0.815443
C117	C	1.152264	-0.781301	0.065438
C118	C	1.402264	-0.531301	0.315438
C119	C	1.652264	-0.281301	0.565438
C120	C	1.902264	-0.031301	0.815438
C121	C	1.027055	-0.781298	0.190585
C122	C	1.277055	-0.531298	0.440585
C123	C	1.527055	-0.281298	0.690585
C124	C	1.777055	-0.031298	0.940585
C125	C	1.027051	-0.702051	0.190582
C126	C	1.277051	-0.452051	0.440582
C127	C	1.527051	-0.202051	0.690582
C128	C	1.777051	0.047949	0.940582
C129	C	1.089662	-0.662432	0.128013
C130	C	1.339662	-0.412432	0.378013
C131	C	1.589662	-0.162432	0.628013
C132	C	1.839662	0.087568	0.878013
C133	C	1.258230	-0.000098	0.121551
C134	C	1.508230	0.249902	0.371551
C135	C	1.758230	0.499902	0.621551
C136	C	2.008230	0.749902	0.871551
C137	C	1.360612	-0.000102	0.123539
C138	C	1.610612	0.249898	0.373539
C139	C	1.860612	0.499898	0.623539
C140	C	2.110612	0.749898	0.873539
C141	C	1.096075	-0.000093	-0.040591
C142	C	1.346075	0.249907	0.209409
C143	C	1.596075	0.499907	0.459409
C144	C	1.846075	0.749907	0.709409
C145	C	1.094079	-0.000093	-0.142971
C146	C	1.344079	0.249907	0.107029
C147	C	1.594079	0.499907	0.357029
C148	C	1.844079	0.749907	0.607029
N149	N	1.089669	0.179078	0.128010
N150	N	1.339669	0.429078	0.378010
N151	N	1.589669	0.679078	0.628010
N152	N	1.839669	0.929078	0.878010
C153	C	1.092457	-0.000091	-0.226115
C154	C	1.342457	0.249909	0.023885
C155	C	1.592457	0.499909	0.273885
C156	C	1.842457	0.749909	0.523885
C157	C	1.090430	-0.000085	-0.330424
C158	C	1.340430	0.249915	-0.080424
C159	C	1.590430	0.499915	0.169576
C160	C	1.840430	0.749915	0.419576
C161	C	1.088822	-0.000080	-0.413563
C162	C	1.338822	0.249920	-0.163563
C163	C	1.588822	0.499920	0.086437
C164	C	1.838822	0.749920	0.336437
C165	C	1.086795	-0.000076	-0.517878
C166	C	1.336795	0.249924	-0.267878
C167	C	1.586795	0.499924	-0.017878
C168	C	1.836795	0.749924	0.232122
C169	C	1.083191	-0.000076	0.296603
C170	C	1.333191	0.249924	0.546603
C171	C	1.583191	0.499924	0.796603
C172	C	1.833191	0.749924	1.046603
C173	C	1.085187	-0.000071	0.398983
C174	C	1.335187	0.249929	0.648983
C175	C	1.585187	0.499929	0.898983
C176	C	1.835187	0.749929	1.148983
H177	H	1.203191	-0.186612	0.014483
H178	H	1.453191	0.063388	0.264483
H179	H	1.703191	0.313388	0.514483
H180	H	1.953191	0.563388	0.764483
H181	H	1.203245	-0.813559	0.014488
H182	H	1.453245	-0.563559	0.264488
H183	H	1.703245	-0.313559	0.514488
H184	H	1.953245	-0.063559	0.764488
H185	H	0.976009	-0.186609	0.241510
H186	H	1.226009	0.063391	0.491510
H187	H	1.476009	0.313391	0.741510
H188	H	1.726009	0.563391	0.991510
Cl189	Cl	0.948345	-0.652240	0.269240
Cl190	Cl	1.198345	-0.402240	0.519240
Cl191	Cl	1.448345	-0.152240	0.769240
Cl192	Cl	1.698345	0.097760	1.019240
Cl193	Cl	1.230970	-0.652245	-0.013220
Cl194	Cl	1.480970	-0.402245	0.236780
Cl195	Cl	1.730970	-0.152245	0.486780
Cl196	Cl	1.980970	0.097755	0.736780
H197	H	0.976086	-0.813561	0.241529
H198	H	1.226086	-0.563561	0.491529
H199	H	1.476086	-0.313561	0.741529
H200	H	1.726086	-0.063561	0.991529
H201	H	0.976037	-0.330380	0.241514
H202	H	1.226037	-0.080380	0.491514
H203	H	1.476037	0.169620	0.741514
H204	H	1.726037	0.419620	0.991514
Cl205	Cl	1.230933	-0.347928	-0.013226
Cl206	Cl	1.480933	-0.097928	0.236774
Cl207	Cl	1.730933	0.152072	0.486774
Cl208	Cl	1.980933	0.402072	0.736774
