data_functionalizedCrystal
_audit_creation_method	'MofGen! by Chris Wilmer'
_symmetry_space_group_name_H-M	'P1'
_symmetry_Int_Tables_number	1
_symmetry_cell_setting	triclinic
loop_
_symmetry_equiv_pos_as_xyz
  x,y,z
_cell_length_a	19.188930
_cell_length_b	19.188940
_cell_length_c	17.666332
_cell_angle_alpha	90.008948
_cell_angle_beta	89.994760
_cell_angle_gamma	96.853253
loop_
_atom_site_label
_atom_site_type_symbol
_atom_site_fract_x
_atom_site_fract_y
_atom_site_fract_z
O1	O	0.926134	-0.087173	-0.063192
O2	O	0.722823	-0.098907	-0.063141
O3	O	0.830342	0.008615	-0.063162
O4	O	0.818615	-0.194695	-0.063171
O5	O	0.830361	0.008630	0.062735
O6	O	0.722842	-0.098893	0.062756
O7	O	0.926152	-0.087158	0.062704
Cu8	Cu	0.824499	-0.093024	0.074226
Cu9	Cu	0.824477	-0.093041	-0.074662
O10	O	0.818633	-0.194681	0.062726
C11	C	0.696821	-0.098520	-0.000186
C12	C	0.619317	-0.097379	-0.000166
N13	N	0.824462	-0.093048	-0.179381
C14	C	0.829970	0.034633	-0.000214
C15	C	0.828827	0.112138	-0.000214
C16	C	0.574395	-0.160470	-0.000180
C17	C	0.501571	-0.159398	-0.000188
C18	C	0.473672	-0.095232	-0.000197
C19	C	0.518604	-0.032133	-0.000179
C20	C	0.591426	-0.033207	-0.000163
N21	N	0.365684	-0.046190	-0.043074
N22	N	0.296505	-0.045175	-0.043091
C23	C	0.254264	-0.091994	-0.000244
N24	N	0.283812	-0.139878	0.042611
N25	N	0.352997	-0.140895	0.042625
C26	C	0.394710	-0.094061	-0.000214
C27	C	0.130377	-0.153927	-0.000266
C28	C	0.057552	-0.152853	-0.000270
C29	C	0.074587	-0.025586	-0.000267
C30	C	0.147410	-0.026662	-0.000256
C31	C	0.175301	-0.090835	-0.000259
C32	C	0.952154	-0.087546	-0.000252
C33	C	1.029659	-0.088686	-0.000277
C34	C	0.819005	-0.220699	-0.000224
C35	C	0.820148	-0.298203	-0.000229
C36	C	0.820703	0.665405	0.068397
C37	C	0.821769	0.592580	0.068401
C38	C	0.822296	0.556153	-0.000225
C39	C	0.821738	0.592554	-0.068860
C40	C	0.820664	0.665376	-0.068862
N41	N	0.863704	0.447123	-0.051315
N42	N	0.864726	0.377945	-0.051308
C43	C	0.825529	0.336744	-0.000223
N44	N	0.785282	0.367334	0.050867
N45	N	0.784263	0.436519	0.050862
C46	C	0.823460	0.477189	-0.000231
C47	C	0.827239	0.221386	0.068411
C48	C	0.828302	0.148560	0.068412
C49	C	0.828277	0.148536	-0.068850
C50	C	0.827208	0.221360	-0.068849
C51	C	0.826692	0.257781	-0.000216
C52	C	0.866592	-0.135371	-0.219009
C53	C	0.866596	-0.135372	-0.298256
C54	C	0.824479	-0.093036	-0.337873
C55	C	0.782340	-0.050710	-0.298237
C56	C	0.782332	-0.050716	-0.218991
N57	N	0.822923	-0.031849	-0.462282
N58	N	0.822935	-0.031845	-0.537563
C59	C	0.824501	-0.093017	-0.576637
N60	N	0.826068	-0.154194	-0.537588
N61	N	0.826060	-0.154197	-0.462300
C62	C	0.824483	-0.093026	-0.423803
C63	C	0.866638	-0.135345	-0.702194
C64	C	0.866638	-0.135347	-0.781443
C65	C	0.782386	-0.050679	-0.781422
C66	C	0.782382	-0.050683	-0.702175
C67	C	0.824512	-0.093015	-0.662565
N68	N	0.824519	-0.093012	0.178945
H69	H	0.597098	-0.212724	-0.000184
C70	C	0.822318	0.552487	-0.144349
C71	C	0.823504	0.472386	-0.144351
C72	C	0.824080	0.432320	-0.219843
C73	C	0.823470	0.472355	-0.295334
C74	C	0.822285	0.552461	-0.295335
C75	C	0.821708	0.592527	-0.219843
H76	H	0.823955	0.442746	-0.088465
H77	H	0.824958	0.373021	-0.219842
H78	H	0.823897	0.442696	-0.351218
H79	H	0.821834	0.582101	-0.351220
H80	H	0.820831	0.651826	-0.219844
H81	H	0.748047	-0.016241	-0.330498
H82	H	0.828751	0.118930	0.124298
C83	C	0.912981	-0.181910	-0.825037
C84	C	0.959319	-0.228471	-0.781464
C85	C	1.005662	-0.275034	-0.825058
C86	C	1.005668	-0.275037	-0.912226
C87	C	0.959328	-0.228474	-0.955804
C88	C	0.912985	-0.181910	-0.912209
H89	H	0.959317	-0.228470	-0.716933
H90	H	1.039966	-0.309503	-0.792798
H91	H	1.039974	-0.309506	-0.944497
H92	H	0.959331	-0.228475	-1.020335
H93	H	0.878681	-0.147442	-0.944469
H94	H	0.495884	0.020111	-0.000196
H95	H	0.900940	-0.169818	-0.669942
H96	H	0.464989	-0.210776	-0.000198
C97	C	0.828853	0.108473	-0.144339
C98	C	0.768078	0.110363	-0.200937
C99	C	0.768649	0.070295	-0.276428
C100	C	0.829995	0.028337	-0.295323
C101	C	0.890774	0.026446	-0.238724
C102	C	0.890203	0.066514	-0.163232
H103	H	0.722662	0.141424	-0.186951
H104	H	0.723656	0.071696	-0.318326
H105	H	0.830418	-0.001323	-0.351206
H106	H	0.936190	-0.004615	-0.252710
H107	H	0.935196	0.065113	-0.121335
H108	H	0.628002	0.018171	-0.000151
H109	H	0.748079	-0.016216	-0.669910
H110	H	0.900896	-0.169843	-0.186764
C111	C	0.912948	-0.181924	-0.341859
C112	C	0.959290	-0.228485	-0.298291
C113	C	1.005644	-0.275034	-0.341890
C114	C	1.005656	-0.275023	-0.429058
C115	C	0.959312	-0.228461	-0.472631
C116	C	0.912958	-0.181911	-0.429031
H117	H	0.959283	-0.228495	-0.233760
H118	H	1.039951	-0.309503	-0.309635
H119	H	1.039970	-0.309482	-0.461333
H120	H	0.959320	-0.228451	-0.537162
H121	H	0.878652	-0.147443	-0.461287
C122	C	0.161063	-0.224513	-0.000258
C123	C	0.111646	-0.293915	-0.000261
C124	C	0.142329	-0.364502	-0.000252
C125	C	0.222430	-0.365686	-0.000241
C126	C	0.271853	-0.296281	-0.000238
C127	C	0.241169	-0.225695	-0.000247
H128	H	0.052346	-0.293041	-0.000269
H129	H	0.105743	-0.415879	-0.000254
H130	H	0.245144	-0.417938	-0.000235
H131	H	0.331153	-0.297156	-0.000230
H132	H	0.277755	-0.174317	-0.000245
C133	C	0.826609	0.261396	-0.144341
C134	C	0.887362	0.259483	-0.200973
C135	C	0.886761	0.299518	-0.276469
C136	C	0.825406	0.341465	-0.295333
C137	C	0.764648	0.343380	-0.238699
C138	C	0.765249	0.303345	-0.163203
H139	H	0.932785	0.228430	-0.187010
H140	H	0.931739	0.298100	-0.318393
H141	H	0.824962	0.371101	-0.351220
H142	H	0.719226	0.374433	-0.252662
H143	H	0.720272	0.304762	-0.121279
C144	C	0.043909	0.044999	-0.000275
C145	C	-0.003827	0.063246	0.065090
C146	C	-0.034507	0.133834	0.065086
C147	C	-0.017451	0.186175	-0.000284
C148	C	0.030287	0.167929	-0.065655
C149	C	0.060968	0.097341	-0.065650
H150	H	-0.016455	0.024499	0.113485
H151	H	-0.069847	0.147341	0.113478
H152	H	-0.040163	0.238429	-0.000288
H153	H	0.042915	0.206676	-0.114050
H154	H	0.096307	0.083835	-0.114042
C155	C	0.196829	0.042739	-0.000253
C156	C	0.166147	0.113322	-0.000264
C157	C	0.215566	0.182728	-0.000258
C158	C	0.295668	0.181550	-0.000242
C159	C	0.326355	0.110964	-0.000231
C160	C	0.276935	0.041559	-0.000236
H161	H	0.106847	0.114197	-0.000276
H162	H	0.192849	0.234980	-0.000267
H163	H	0.332251	0.232928	-0.000238
H164	H	0.385655	0.110090	-0.000219
H165	H	0.299652	-0.010693	-0.000228
C166	C	0.820151	0.705457	0.143898
C167	C	0.759712	0.687342	0.200555
C168	C	0.759169	0.727392	0.276060
C169	C	0.819065	0.785557	0.294909
C170	C	0.879508	0.803675	0.238250
C171	C	0.880051	0.763625	0.162745
H172	H	0.715369	0.644283	0.186604
H173	H	0.714425	0.713980	0.318003
H174	H	0.818663	0.815204	0.350802
H175	H	0.923851	0.846734	0.252201
H176	H	0.924795	0.777037	0.120803
C177	C	0.735990	-0.004153	-0.175396
C178	C	0.689657	0.042414	-0.218966
C179	C	0.643316	0.088979	-0.175370
C180	C	0.643308	0.088976	-0.088202
C181	C	0.689643	0.042407	-0.044626
C182	C	0.735984	-0.004158	-0.088223
H183	H	0.689661	0.042418	-0.283497
H184	H	0.609016	0.123453	-0.207628
H185	H	0.609004	0.123446	-0.055929
H186	H	0.689639	0.042403	0.019905
H187	H	0.770284	-0.038631	-0.055965
C188	C	0.822380	0.552537	0.143893
C189	C	0.821810	0.592598	0.219384
C190	C	0.822421	0.552558	0.294876
C191	C	0.823601	0.472456	0.294876
C192	C	0.824171	0.432390	0.219382
C193	C	0.823561	0.472431	0.143890
H194	H	0.820937	0.651898	0.219387
H195	H	0.821999	0.582217	0.350762
H196	H	0.824053	0.442815	0.350760
H197	H	0.825045	0.373090	0.219379
H198	H	0.823983	0.442771	0.088004
C199	C	0.736054	-0.004109	-0.824990
C200	C	0.769909	0.052802	-0.879455
C201	C	0.723573	0.099372	-0.923026
C202	C	0.643381	0.089030	-0.912131
C203	C	0.609521	0.032117	-0.857663
C204	C	0.655858	-0.014453	-0.814092
H205	H	0.829276	0.060460	-0.887523
H206	H	0.748638	0.141503	-0.963347
H207	H	0.609080	0.123504	-0.944385
H208	H	0.550155	0.024459	-0.849596
H209	H	0.630793	-0.056584	-0.773771
C210	C	0.820061	0.705412	-0.144355
C211	C	0.879937	0.763582	-0.163247
C212	C	0.879336	0.803620	-0.238741
C213	C	0.818860	0.785488	-0.295343
C214	C	0.758980	0.727316	-0.276452
C215	C	0.759580	0.687278	-0.200958
H216	H	0.924709	0.777006	-0.121345
H217	H	0.923664	0.846683	-0.252725
H218	H	0.818416	0.815127	-0.351228
H219	H	0.714208	0.713892	-0.318354
H220	H	0.715253	0.644215	-0.186974
H221	H	0.020977	-0.204231	-0.000277
H222	H	0.826814	0.251041	0.124296
