data_functionalizedCrystal
_audit_creation_method	'MofGen! by Chris Wilmer'
_symmetry_space_group_name_H-M	'P1'
_symmetry_Int_Tables_number	1
_symmetry_cell_setting	triclinic
loop_
_symmetry_equiv_pos_as_xyz
  x,y,z
_cell_length_a	9.065215
_cell_length_b	19.188925
_cell_length_c	17.666332
_cell_angle_alpha	90.010202
_cell_angle_beta	90.004180
_cell_angle_gamma	84.078623
loop_
_atom_site_label
_atom_site_type_symbol
_atom_site_fract_x
_atom_site_fract_y
_atom_site_fract_z
O1	O	0.184138	0.927582	0.062963
O2	O	0.684138	1.427582	0.562963
O3	O	0.208940	0.724462	0.062961
O4	O	0.708940	1.224462	0.562961
O5	O	-0.018250	0.830222	0.062959
O6	O	0.481750	1.330222	0.562959
O7	O	0.411327	0.821823	0.062965
O8	O	0.911327	1.321823	0.562965
O9	O	-0.018256	0.830203	-0.062938
O10	O	0.481744	1.330203	0.437062
O11	O	0.208933	0.724444	-0.062936
O12	O	0.708933	1.224444	0.437064
O13	O	0.184131	0.927563	-0.062934
O14	O	0.684131	1.427563	0.437066
Cu15	Cu	0.196532	0.826001	-0.074430
Cu16	Cu	0.696532	1.326001	0.425570
Cu17	Cu	0.196539	0.826024	0.074457
Cu18	Cu	0.696539	1.326024	0.574457
O19	O	0.411321	0.821804	-0.062932
O20	O	0.911321	1.321804	0.437068
C21	C	0.208135	0.698436	0.000012
C22	C	0.708135	1.198436	0.500012
C23	C	0.205728	0.620912	0.000011
C24	C	0.705728	1.120912	0.500011
C25	C	0.322917	0.060052	0.000015
C26	C	0.822917	0.560052	0.500015
C27	C	0.325192	0.132893	0.000019
C28	C	0.825192	0.632893	0.500019
C29	C	0.191885	0.176792	0.000016
C30	C	0.691885	0.676792	0.500016
C31	C	0.056293	0.147845	0.000028
C32	C	0.556293	0.647845	0.500028
C33	C	0.054022	0.075006	0.000031
C34	C	0.554022	0.575006	0.500031
N35	N	0.095373	0.296714	-0.042842
N36	N	0.595373	0.796714	0.457158
N37	N	0.097539	0.365908	-0.042847
N38	N	0.597539	0.865908	0.457153
C39	C	0.198718	0.396254	0.000007
C40	C	0.698718	0.896254	0.500007
N41	N	0.297671	0.354792	0.042856
N42	N	0.797671	0.854792	0.542856
N43	N	0.295509	0.285591	0.042858
N44	N	0.795509	0.785591	0.542858
C45	C	0.194332	0.255775	0.000012
C46	C	0.694332	0.755775	0.500012
C47	C	0.336767	0.504175	0.000005
C48	C	0.836767	1.004175	0.500005
C49	C	0.339036	0.577018	0.000013
C50	C	0.839036	1.077018	0.500013
C51	C	0.070133	0.591969	0.000014
C52	C	0.570133	1.091969	0.500014
C53	C	0.067868	0.519128	0.000013
C54	C	0.567868	1.019128	0.500013
C55	C	0.201190	0.475235	0.000005
C56	C	0.701190	0.975235	0.500005
C57	C	-0.073212	0.829405	0.000011
C58	C	0.426788	1.329405	0.500011
C59	C	-0.236971	0.826993	0.000014
C60	C	0.263029	1.326993	0.500014
C61	C	0.466283	0.822620	0.000018
C62	C	0.966283	1.322620	0.500018
C63	C	0.630042	0.825032	0.000020
C64	C	1.130042	1.325032	0.500020
C65	C	0.184936	0.953590	0.000017
C66	C	0.684936	1.453590	0.500017
C67	C	0.187343	1.031113	0.000023
C68	C	0.687343	1.531113	0.500023
N69	N	0.196525	0.825991	-0.179150
N70	N	0.696525	1.325991	0.320850
C71	C	0.285784	0.868893	-0.218751
C72	C	0.785784	1.368893	0.281249
C73	C	0.285780	0.868904	-0.297999
C74	C	0.785780	1.368904	0.202001
C75	C	0.196534	0.826000	-0.337642
C76	C	0.696534	1.326000	0.162358
C77	C	0.107257	0.783095	-0.298031
C78	C	0.607257	1.283095	0.201969
C79	C	0.107253	0.783091	-0.218785
C80	C	0.607253	1.283091	0.281215
N81	N	0.192902	0.764823	-0.462082
N82	N	0.692902	1.264823	0.037918
N83	N	0.192914	0.764830	-0.537362
N84	N	0.692914	1.264830	-0.037362
C85	C	0.196539	0.826013	-0.576406
C86	C	0.696539	1.326013	-0.076406
N87	N	0.200179	0.887190	-0.537325
N88	N	0.700179	1.387190	-0.037325
N89	N	0.200175	0.887183	-0.462037
N90	N	0.700175	1.387183	0.037963
C91	C	0.196528	0.826001	-0.423571
C92	C	0.696528	1.326001	0.076429
C93	C	0.285798	0.868931	-0.701937
C94	C	0.785798	1.368931	-0.201937
C95	C	0.285783	0.868943	-0.781186
C96	C	0.785783	1.368943	-0.281186
C97	C	0.107269	0.783128	-0.781216
C98	C	0.607269	1.283128	-0.281216
C99	C	0.107275	0.783122	-0.701968
C100	C	0.607275	1.283122	-0.201968
C101	C	0.196547	0.826022	-0.662333
C102	C	0.696547	1.326022	-0.162333
N103	N	0.196534	0.826040	0.179177
N104	N	0.696534	1.326040	0.679177
H105	H	0.435596	0.156460	0.000006
H106	H	0.935596	0.656460	0.500006
H107	H	0.445326	0.468436	-0.000001
H108	H	0.945326	0.968436	0.499999
H109	H	0.034597	0.748184	-0.669725
H110	H	0.534597	1.248184	-0.169725
H111	H	0.449441	0.600578	0.000013
H112	H	0.949441	1.100578	0.500013
H113	H	0.358487	0.903863	-0.669664
H114	H	0.858487	1.403863	-0.169664
H115	H	0.034591	0.748163	-0.330313
H116	H	0.534591	1.248163	0.169687
H117	H	-0.042531	0.495566	0.000015
H118	H	0.457469	0.995566	0.500015
H119	H	0.034566	0.748153	-0.186541
H120	H	0.534566	1.248153	0.313459
H121	H	0.034601	0.748196	-0.813493
H122	H	0.534601	1.248196	-0.313493
H123	H	0.358469	0.903840	-0.330248
H124	H	0.858469	1.403840	0.169752
H125	H	0.358463	0.903884	-0.813428
H126	H	0.858463	1.403884	-0.313428
H127	H	0.358471	0.903828	-0.186485
H128	H	0.858471	1.403828	0.313515
H129	H	0.431479	0.024318	0.000012
H130	H	0.931479	0.524318	0.500012
H131	H	-0.038408	0.627712	0.000018
H132	H	0.461592	1.127712	0.500018
H133	H	-0.052247	0.183593	0.000027
H134	H	0.447753	0.683593	0.500027
H135	H	-0.056382	0.051445	0.000038
H136	H	0.443618	0.551445	0.500038
