data_functionalizedCrystal
_audit_creation_method	'MofGen! by Chris Wilmer'
_symmetry_space_group_name_H-M	'P1'
_symmetry_Int_Tables_number	1
_symmetry_cell_setting	triclinic
loop_
_symmetry_equiv_pos_as_xyz
  x,y,z
_cell_length_a	21.395362
_cell_length_b	12.759394
_cell_length_c	21.395356
_cell_angle_alpha	89.976253
_cell_angle_beta	89.957023
_cell_angle_gamma	90.030716
loop_
_atom_site_label
_atom_site_type_symbol
_atom_site_fract_x
_atom_site_fract_y
_atom_site_fract_z
Zn1	Zn	0.957923	-0.417848	-0.354603
Zn2	Zn	0.957856	-0.593540	-0.249833
Zn3	Zn	0.853139	-0.417925	-0.249804
Zn4	Zn	0.853136	-0.593534	-0.354537
O5	O	0.905513	-0.505712	-0.302194
O6	O	1.045592	-0.441124	-0.340744
O7	O	0.943939	-0.570280	-0.162151
O8	O	0.867068	-0.270893	-0.263721
O9	O	1.045543	-0.570205	-0.263770
O10	O	0.944052	-0.270837	-0.340717
O11	O	0.867004	-0.441256	-0.162130
O12	O	0.765461	-0.441249	-0.263658
O13	O	0.867062	-0.570194	-0.442224
O14	O	0.765458	-0.570269	-0.340605
O15	O	0.944049	-0.441118	-0.442272
O16	O	0.943935	-0.740561	-0.263706
O17	O	0.866998	-0.740556	-0.340632
C18	C	0.742726	-0.505767	-0.302121
C19	C	0.673084	-0.505816	-0.302105
C20	C	0.640386	-0.573086	-0.342112
C21	C	0.574951	-0.573060	-0.342139
C22	C	0.542216	-0.505776	-0.302150
C23	C	0.574922	-0.438493	-0.262141
C24	C	0.640356	-0.438514	-0.262118
C25	C	0.438491	-0.497327	-0.245744
C26	C	0.373058	-0.497314	-0.245766
C27	C	0.340395	-0.505707	-0.302219
C28	C	0.373174	-0.514135	-0.358653
C29	C	0.438608	-0.514155	-0.358631
C30	C	0.471264	-0.505746	-0.302170
C31	C	0.236745	-0.572952	-0.342259
C32	C	0.171308	-0.572919	-0.342288
C33	C	0.171281	-0.438358	-0.262284
C34	C	0.236716	-0.438386	-0.262260
C35	C	0.269444	-0.505689	-0.302247
C36	C	0.905476	-0.778679	-0.302179
C37	C	0.905517	-0.895456	-0.302193
C38	C	0.985692	-0.895408	-0.222150
C39	C	1.025796	-0.950244	-0.182136
C40	C	1.025833	-1.059966	-0.182153
C41	C	0.985763	-1.114853	-0.222190
C42	C	0.945659	-1.060017	-0.262204
C43	C	0.945625	-0.950293	-0.262182
C44	C	0.865488	-1.060065	-0.342250
C45	C	0.865447	-0.950343	-0.342230
C46	C	0.825418	-1.114953	-0.382286
C47	C	0.785310	-1.060116	-0.422298
C48	C	0.785274	-0.950388	-0.422279
C49	C	0.825343	-0.895507	-0.382244
C50	C	1.068937	-0.505657	-0.302267
C51	C	1.138578	-0.505633	-0.302299
C52	C	0.905563	-0.505647	-0.465618
C53	C	0.905584	-0.505619	-0.535259
C54	C	0.905568	-0.231678	-0.302223
C55	C	0.905592	-0.114902	-0.302235
C56	C	0.865534	-0.438428	-0.567951
C57	C	0.865532	-0.438409	-0.633387
C58	C	0.905591	-0.505569	-0.666127
C59	C	0.945643	-0.572772	-0.633427
C60	C	0.945639	-0.572797	-0.567993
C61	C	0.962044	-0.513803	-0.769833
C62	C	0.962048	-0.513770	-0.835266
C63	C	0.905601	-0.505498	-0.867948
C64	C	0.849147	-0.497236	-0.835189
C65	C	0.849144	-0.497261	-0.769755
C66	C	0.905599	-0.505550	-0.737080
C67	C	0.865546	-0.438283	-0.971593
C68	C	0.865543	-0.438271	-1.037030
C69	C	0.945659	-0.572629	-1.037069
C70	C	0.945656	-0.572646	-0.971633
C71	C	0.905601	-0.505468	-0.938899
C72	C	0.905500	-0.505701	-0.139407
C73	C	0.905601	-0.505433	-0.069766
H74	H	0.548265	-0.383708	-0.229582
H75	H	0.346375	-0.490458	-0.199814
H76	H	0.752619	-0.905745	-0.454866
O77	O	0.822353	-0.365911	-0.668663
H78	H	0.790461	-0.412910	-0.698454
H79	H	0.465079	-0.490488	-0.199770
O80	O	1.022937	-0.522675	-0.870593
H81	H	1.013458	-0.521252	-0.921583
H82	H	0.144687	-0.627696	-0.374870
H83	H	1.008014	-0.520530	-0.743229
O84	O	0.988846	-0.645253	-0.532725
H85	H	1.016707	-0.691946	-0.566482
O86	O	0.675630	-0.365976	-0.218955
H87	H	0.641877	-0.319190	-0.191147
H88	H	0.978258	-0.627455	-0.660088
O89	O	0.271993	-0.365842	-0.219106
H90	H	0.301752	-0.412813	-0.187178
H91	H	0.825314	-0.806166	-0.382221
O92	O	0.825455	-1.233295	-0.382310
H93	H	0.778209	-1.262319	-0.369604
H94	H	0.985801	-1.204194	-0.222206
H95	H	0.752691	-1.104814	-0.454896
O96	O	0.337949	-0.523170	-0.419546
H97	H	0.350580	-0.456435	-0.450368
O98	O	0.822338	-0.365968	-0.532644
H99	H	0.794488	-0.319243	-0.566375
H100	H	0.263394	-0.627749	-0.374822
O101	O	0.788261	-0.488343	-0.734419
H102	H	0.749007	-0.482585	-0.768133
H103	H	0.803182	-0.490493	-0.861797
H104	H	0.667030	-0.627888	-0.374673
H105	H	0.548323	-0.627838	-0.374720
H106	H	0.985658	-0.806066	-0.222124
O107	O	0.135985	-0.365793	-0.219144
H108	H	0.084990	-0.377085	-0.225876
H109	H	0.465294	-0.521015	-0.404581
O110	O	0.988854	-0.645083	-1.072376
H111	H	1.016699	-0.691818	-1.038646
H112	H	0.832925	-0.383559	-1.063647
O113	O	0.988859	-0.645112	-0.936371
H114	H	0.982124	-0.633853	-0.885370
O115	O	0.822340	-0.365842	-0.936279
H116	H	0.794482	-0.319127	-0.970009
H117	H	1.058492	-1.104613	-0.149573
H118	H	1.058422	-0.905545	-0.149540
