data_functionalizedCrystal
_audit_creation_method	'MofGen! by Chris Wilmer'
_symmetry_space_group_name_H-M	'P1'
_symmetry_Int_Tables_number	1
_symmetry_cell_setting	triclinic
loop_
_symmetry_equiv_pos_as_xyz
  x,y,z
_cell_length_a	19.077236
_cell_length_b	16.959454
_cell_length_c	19.076919
_cell_angle_alpha	87.724511
_cell_angle_beta	90.112677
_cell_angle_gamma	92.313014
loop_
_atom_site_label
_atom_site_type_symbol
_atom_site_fract_x
_atom_site_fract_y
_atom_site_fract_z
Zn1	Zn	1.058310	-0.286928	0.440559
Zn2	Zn	1.558310	0.213072	0.940559
Zn3	Zn	1.062959	-0.413600	0.323060
Zn4	Zn	1.562959	0.086400	0.823060
Zn5	Zn	0.945526	-0.286514	0.318339
Zn6	Zn	1.445526	0.213486	0.818339
Zn7	Zn	0.940779	-0.424146	0.435799
Zn8	Zn	1.440779	0.075854	0.935799
O9	O	1.001893	-0.352797	0.379439
O10	O	1.501893	0.147203	0.879439
O11	O	1.157260	-0.299492	0.428941
O12	O	1.657260	0.200508	0.928941
O13	O	1.051313	-0.392155	0.224103
O14	O	1.551313	0.107845	0.724103
O15	O	0.960528	-0.175957	0.334568
O16	O	1.460528	0.324043	0.834568
O17	O	1.160675	-0.392557	0.342615
O18	O	1.660675	0.107443	0.842615
O19	O	1.043390	-0.176261	0.424363
O20	O	1.543390	0.323739	0.924363
O21	O	0.965036	-0.298785	0.220634
O22	O	1.465036	0.201215	0.720634
O23	O	0.846563	-0.309011	0.329953
O24	O	1.346563	0.190989	0.829953
O25	O	0.952437	-0.410530	0.534762
O26	O	1.452437	0.089470	1.034762
O27	O	0.843075	-0.410128	0.416250
O28	O	1.343075	0.089872	0.916250
O29	O	1.038787	-0.309717	0.538259
O30	O	1.538787	0.190283	1.038259
O31	O	1.046710	-0.525611	0.337999
O32	O	1.546710	-0.025611	0.837999
O33	O	0.956945	-0.533359	0.420828
O34	O	1.456945	-0.033359	0.920828
C35	C	0.819322	-0.360669	0.372073
C36	C	1.319322	0.139331	0.872073
C37	C	0.741216	-0.364057	0.368938
C38	C	1.241216	0.135943	0.868938
C39	C	0.702742	-0.317278	0.412479
C40	C	1.202742	0.182722	0.912479
C41	C	0.629354	-0.320457	0.409528
C42	C	1.129354	0.179543	0.909528
C43	C	0.594441	-0.370420	0.363038
C44	C	1.094441	0.129580	0.863038
C45	C	0.632921	-0.417201	0.319492
C46	C	1.132921	0.082799	0.819492
C47	C	0.706308	-0.414017	0.322441
C48	C	1.206308	0.085983	0.822441
C49	C	0.375149	-0.385124	0.349389
C50	C	0.875149	0.114876	0.849389
C51	C	0.301757	-0.388306	0.346446
C52	C	0.801757	0.111694	0.846446
C53	C	0.298195	-0.291561	0.436481
C54	C	0.798195	0.208439	0.936481
C55	C	0.371583	-0.288385	0.439428
C56	C	0.871583	0.211615	0.939428
C57	C	0.410056	-0.335163	0.395880
C58	C	0.910056	0.164837	0.895880
N59	N	0.519427	-0.373672	0.360021
N60	N	1.019427	0.126328	0.860021
N61	N	0.485070	-0.331906	0.398893
N62	N	0.985070	0.168094	0.898893
C63	C	1.001835	-0.558165	0.379425
C64	C	1.501835	-0.058165	0.879425
C65	C	1.001873	-0.646021	0.379445
C66	C	1.501873	-0.146021	0.879445
C67	C	0.955218	-1.021556	0.422566
C68	C	1.455218	-0.521556	0.922566
C69	C	1.048761	-1.013429	0.336392
C70	C	1.548761	-0.513429	0.836392
C71	C	1.048737	-0.930884	0.336385
C72	C	1.548737	-0.430884	0.836385
C73	C	1.001952	-0.893671	0.379468
C74	C	1.501952	-0.393671	0.879468
C75	C	0.955191	-0.939004	0.422558
C76	C	1.455191	-0.439004	0.922558
C77	C	1.095492	-0.885546	0.293290
C78	C	1.595492	-0.385546	0.793290
C79	C	1.095470	-0.802995	0.293280
C80	C	1.595470	-0.302995	0.793280
C81	C	1.048687	-0.765781	0.336367
C82	C	1.548687	-0.265781	0.836367
C83	C	1.001925	-0.811119	0.379460
C84	C	1.501925	-0.311119	0.879460
C85	C	0.955139	-0.773906	0.422543
C86	C	1.455139	-0.273906	0.922543
C87	C	0.908380	-0.819242	0.465641
C88	C	1.408380	-0.319242	0.965641
C89	C	0.908408	-0.901790	0.465646
C90	C	1.408408	-0.401790	0.965646
C91	C	1.048659	-0.683234	0.336362
C92	C	1.548659	-0.183234	0.836362
C93	C	0.955112	-0.691353	0.422536
C94	C	1.455112	-0.191353	0.922536
C95	C	1.185177	-0.344894	0.386835
C96	C	1.685177	0.155106	0.886835
C97	C	1.263282	-0.341527	0.389987
C98	C	1.763282	0.158473	0.889987
C99	C	0.994564	-0.361346	0.562719
C100	C	1.494564	0.138654	1.062719
C101	C	0.991441	-0.364989	0.640822
C102	C	1.491441	0.135011	1.140822
C103	C	1.001970	-0.146627	0.379470
C104	C	1.501970	0.353373	0.879470
C105	C	1.002003	-0.058769	0.379483
C106	C	1.502003	0.441231	0.879483
C107	C	1.009234	-0.344222	0.196874
C108	C	1.509234	0.155778	0.696874
C109	C	1.012494	-0.340351	0.118777
C110	C	1.512494	0.159649	0.618777
C111	C	1.034929	-0.314215	0.679337
C112	C	1.534929	0.185785	1.179337
C113	C	1.031986	-0.317636	0.752723
C114	C	1.531986	0.182364	1.252723
C115	C	0.985558	-0.371834	0.787592
C116	C	1.485558	0.128166	1.287592
C117	C	0.942065	-0.422611	0.749072
C118	C	1.442065	0.077389	1.249072
C119	C	0.945005	-0.419186	0.675688
C120	C	1.445005	0.080814	1.175688
C121	C	0.971941	-0.387702	1.006873
C122	C	1.471941	0.112298	1.506873
C123	C	0.969005	-0.391125	1.080262
C124	C	1.469005	0.108875	1.580262
C125	C	1.058926	-0.286148	1.083908
C126	C	1.558926	0.213852	1.583908
C127	C	1.061865	-0.282732	1.010522
C128	C	1.561865	0.217268	1.510522
C129	C	1.018369	-0.333505	0.972008
C130	C	1.518369	0.166495	1.472008
N131	N	0.982550	-0.375334	0.862604
N132	N	1.482550	0.124666	1.362604
N133	N	1.021374	-0.330001	0.896997
N134	N	1.521374	0.169999	1.396997
H135	H	0.406465	-0.423215	0.313930
H136	H	0.906465	0.076785	0.813930
H137	H	0.931196	-0.435262	1.108651
H138	H	1.431196	0.064738	1.608651
O139	O	0.904785	-1.070445	0.469050
O140	O	1.404785	-0.570445	0.969050
H141	H	0.850125	-1.056460	0.454728
H142	H	1.350125	-0.556460	0.954728
H143	H	0.909585	-0.460524	0.644329
H144	H	1.409585	0.039476	1.144329
H145	H	0.870339	-0.938710	0.500732
H146	H	1.370339	-0.438710	1.000732
O147	O	0.740398	-0.263384	0.462618
O148	O	1.240398	0.236616	0.962618
H149	H	0.701312	-0.231383	0.492392
H150	H	1.201312	0.268617	0.992392
O151	O	1.111945	-0.224274	0.972919
O152	O	1.611945	0.275726	1.472919
H153	H	1.081854	-0.183855	0.938214
H154	H	1.581854	0.316145	1.438214
O155	O	0.857911	-0.779104	0.512101
O156	O	1.357911	-0.279104	1.012101
H157	H	0.867710	-0.796973	0.567748
H158	H	1.367710	-0.296973	1.067748
O159	O	1.145958	-0.925665	0.246820
O160	O	1.645958	-0.425665	0.746820
H161	H	1.200605	-0.907936	0.261141
H162	H	1.700605	-0.407936	0.761141
O163	O	0.587854	-0.270002	0.456489
O164	O	1.087854	0.229998	0.956489
H165	H	0.624460	-0.234732	0.489317
H166	H	1.124460	0.265268	0.989317
H167	H	1.133544	-0.766087	0.258189
H168	H	1.633544	-0.266087	0.758189
O169	O	0.925033	-0.442448	0.965320
O170	O	1.425033	0.057552	1.465320
H171	H	0.890642	-0.407027	0.930459
H172	H	1.390642	0.092973	1.430459
O173	O	0.747808	-0.464468	0.275474
O174	O	1.247808	0.035532	0.775474
H175	H	0.779995	-0.504748	0.308202
H176	H	1.279995	-0.004748	0.808202
O177	O	1.099240	-1.053560	0.289945
O178	O	1.599240	-0.553560	0.789945
H179	H	1.091412	-1.118577	0.297199
H180	H	1.591412	-0.618577	0.797199
O181	O	0.891982	-0.481066	0.786676
O182	O	1.391982	0.018934	1.286676
H183	H	0.897247	-0.474922	0.844176
H184	H	1.397247	0.025078	1.344176
O185	O	1.105832	-0.231387	1.125451
O186	O	1.605832	0.268613	1.625451
H187	H	1.138613	-0.193128	1.088875
H188	H	1.638613	0.306872	1.588875
H189	H	0.917016	-0.661060	0.457622
H190	H	1.417016	-0.161060	0.957622
H191	H	1.086726	-0.646325	0.301269
H192	H	1.586726	-0.146325	0.801269
O193	O	1.085012	-0.255762	0.641731
O194	O	1.585012	0.244238	1.141731
H195	H	1.054919	-0.215346	0.607025
H196	H	1.554919	0.284654	1.107025
H197	H	0.266862	-0.253476	0.471935
H198	H	0.766862	0.246524	0.971935
O199	O	0.409232	-0.234482	0.489563
O200	O	0.909232	0.265518	0.989563
H201	H	0.392945	-0.251308	0.544127
H202	H	0.892945	0.248692	1.044127
O203	O	0.264096	-0.442191	0.296297
O204	O	0.764096	0.057809	0.796297
H205	H	0.303178	-0.474178	0.266504
H206	H	0.803178	0.025822	0.766504
H207	H	0.604489	-0.457877	0.281636
H208	H	1.104489	0.042123	0.781636
O209	O	1.078895	-0.262878	0.794267
O210	O	1.578895	0.237122	1.294267
H211	H	1.111680	-0.224623	0.757691
H212	H	1.611680	0.275377	1.257691
