data_functionalizedCrystal
_audit_creation_method	'MofGen! by Chris Wilmer'
_symmetry_space_group_name_H-M	'P1'
_symmetry_Int_Tables_number	1
_symmetry_cell_setting	triclinic
loop_
_symmetry_equiv_pos_as_xyz
  x,y,z
_cell_length_a	19.077236
_cell_length_b	21.295417
_cell_length_c	19.076919
_cell_angle_alpha	92.267699
_cell_angle_beta	89.887323
_cell_angle_gamma	92.322335
loop_
_atom_site_label
_atom_site_type_symbol
_atom_site_fract_x
_atom_site_fract_y
_atom_site_fract_z
Zn1	Zn	1.058269	-0.228507	-0.440524
Zn2	Zn	1.062899	-0.329387	-0.323010
Zn3	Zn	0.945484	-0.228177	-0.318305
Zn4	Zn	0.940717	-0.337786	-0.435748
O5	O	1.001842	-0.280964	-0.379397
O6	O	1.157217	-0.238513	-0.428904
O7	O	1.051256	-0.312309	-0.224055
O8	O	0.960503	-0.140130	-0.334547
O9	O	1.160619	-0.312629	-0.342567
O10	O	1.043365	-0.140373	-0.424342
O11	O	0.964992	-0.237950	-0.220598
O12	O	0.846518	-0.246093	-0.329915
O13	O	0.952378	-0.326942	-0.534712
O14	O	0.843015	-0.326622	-0.416200
O15	O	1.038742	-0.246656	-0.538221
O16	O	1.046634	-0.418592	-0.337935
O17	O	0.956867	-0.424762	-0.420763
C18	C	0.819270	-0.287234	-0.372029
C19	C	0.741164	-0.289932	-0.368894
C20	C	0.702696	-0.252677	-0.412441
C21	C	0.629308	-0.255209	-0.409489
C22	C	0.594388	-0.294999	-0.362993
C23	C	0.632861	-0.332255	-0.319442
C24	C	0.706248	-0.329719	-0.322390
C25	C	0.375093	-0.306709	-0.349343
C26	C	0.301700	-0.309243	-0.346399
C27	C	0.298153	-0.232196	-0.436445
C28	C	0.371541	-0.229667	-0.439393
C29	C	0.410008	-0.266921	-0.395839
N30	N	0.519373	-0.297589	-0.359976
N31	N	0.485022	-0.264327	-0.398853
C32	C	1.001754	-0.444518	-0.379358
C33	C	1.001780	-0.514485	-0.379367
C34	C	1.044899	-0.547423	-0.426154
C35	C	1.044923	-0.613165	-0.426172
C36	C	1.001836	-0.645967	-0.379391
C37	C	0.958708	-0.613021	-0.332601
C38	C	0.958680	-0.547280	-0.332589
N39	N	0.999002	-0.747112	-0.317682
N40	N	0.999033	-0.809563	-0.317696
C41	C	1.001917	-0.844040	-0.379426
N42	N	1.004782	-0.813706	-0.441144
N43	N	1.004755	-0.751249	-0.441130
C44	C	1.001861	-0.717251	-0.379400
C45	C	1.045064	-0.948263	-0.426237
C46	C	1.045083	-1.014006	-0.426256
C47	C	0.958872	-1.013861	-0.332679
C48	C	0.958849	-0.948118	-0.332666
C49	C	1.001949	-0.915323	-0.379444
C50	C	1.185128	-0.274671	-0.386793
C51	C	1.263233	-0.271989	-0.389946
C52	C	0.994512	-0.287773	-0.562676
C53	C	0.991388	-0.290674	-0.640778
C54	C	1.001949	-0.116772	-0.379452
C55	C	1.001995	-0.046803	-0.379476
C56	C	1.034884	-0.250238	-0.679299
C57	C	1.031940	-0.252962	-0.752684
C58	C	0.985504	-0.296126	-0.787547
C59	C	0.942004	-0.336563	-0.749021
C60	C	0.944944	-0.333836	-0.675637
C61	C	0.971884	-0.308762	-1.006826
C62	C	0.968949	-0.311488	-1.080215
C63	C	1.058885	-0.227886	-1.083873
C64	C	1.061824	-0.225165	-1.010488
C65	C	1.018321	-0.265600	-0.971968
N66	N	0.982496	-0.298912	-0.862559
N67	N	1.021327	-0.262810	-0.896957
C68	C	1.009184	-0.274136	-0.196833
C69	C	1.012444	-0.271052	-0.118736
H70	H	0.273271	-0.341648	-0.308536
C71	C	0.911465	-1.049939	-0.281228
N72	N	0.875753	-1.077116	-0.242478
C73	C	1.112900	-0.177676	-0.972144
N74	N	1.151371	-0.141905	-0.943263
H75	H	0.597990	-0.224874	-0.444951
C76	C	1.092465	-0.912187	-0.477703
N77	N	1.128165	-0.885016	-0.516469
C78	C	0.924027	-0.353241	-0.964463
N79	N	0.887978	-0.386743	-0.932553
H80	H	0.923624	-0.639732	-0.294513
H81	H	1.067361	-0.220036	-0.784045
C82	C	0.594446	-0.376023	-0.268295
N83	N	0.565513	-0.408992	-0.229771
C84	C	0.255834	-0.191209	-0.484340
N85	N	0.223960	-0.160331	-0.520411
H86	H	0.737567	-0.360055	-0.286929
H87	H	0.931133	-0.346639	-1.108598
C88	C	1.106726	-0.183403	-1.126251
N89	N	1.142758	-0.149893	-1.158169
C90	C	0.890916	-0.384038	-0.787373
N91	N	0.852436	-0.419796	-0.816259
H92	H	0.909518	-0.366757	-0.644274
H93	H	1.079992	-0.520723	-0.464245
C94	C	0.417397	-0.347692	-0.301434
N95	N	0.449262	-0.378564	-0.265348
C96	C	0.911409	-0.911886	-0.281199
N97	N	0.875671	-0.884596	-0.242437
C98	C	0.741101	-0.208904	-0.463590
N99	N	0.770026	-0.175931	-0.502114
H100	H	1.080196	-1.040823	-0.464359
H101	H	0.399968	-0.197268	-0.477258
H102	H	1.080030	-0.639989	-0.464280
C103	C	0.911240	-0.511048	-0.281119
N104	N	0.875508	-0.483757	-0.242352
H105	H	1.072699	-0.215092	-0.650919
