data_functionalizedCrystal
_audit_creation_method	'MofGen! by Chris Wilmer'
_symmetry_space_group_name_H-M	'P1'
_symmetry_Int_Tables_number	1
_symmetry_cell_setting	triclinic
loop_
_symmetry_equiv_pos_as_xyz
  x,y,z
_cell_length_a	29.839134
_cell_length_b	29.839133
_cell_length_c	12.759393
_cell_angle_alpha	90.027594
_cell_angle_beta	90.031415
_cell_angle_gamma	90.024465
loop_
_atom_site_label
_atom_site_type_symbol
_atom_site_fract_x
_atom_site_fract_y
_atom_site_fract_z
Zn1	Zn	0.686798	-0.178888	0.594372
Zn2	Zn	1.186798	0.321112	1.094372
Zn3	Zn	0.686734	-0.254027	0.418705
Zn4	Zn	1.186734	0.245973	0.918705
Zn5	Zn	0.611669	-0.178905	0.418672
Zn6	Zn	1.111669	0.321095	0.918672
Zn7	Zn	0.611644	-0.253985	0.594306
Zn8	Zn	1.111644	0.246015	1.094306
O9	O	0.649211	-0.216451	0.506514
O10	O	1.149211	0.283549	1.006514
O11	O	0.749657	-0.188866	0.571111
O12	O	1.249657	0.311134	1.071111
O13	O	0.676759	-0.244086	0.271679
O14	O	1.176759	0.255914	0.771679
O15	O	0.621672	-0.116036	0.441993
O16	O	1.121672	0.383964	0.941993
O17	O	0.749609	-0.244070	0.442048
O18	O	1.249609	0.255930	0.942048
O19	O	0.676870	-0.116023	0.571079
O20	O	1.176870	0.383977	1.071079
O21	O	0.621609	-0.188894	0.271655
O22	O	1.121609	0.311106	0.771655
O23	O	0.548798	-0.188854	0.441929
O24	O	1.048798	0.311146	0.941929
O25	O	0.621631	-0.243999	0.741336
O26	O	1.121631	0.256001	1.241336
O27	O	0.548781	-0.244015	0.570967
O28	O	1.048781	0.255985	1.070967
O29	O	0.676846	-0.188826	0.741385
O30	O	1.176846	0.311174	1.241385
O31	O	0.676736	-0.316888	0.441985
O32	O	1.176736	0.183112	0.941985
O33	O	0.621568	-0.316858	0.570999
O34	O	1.121568	0.183142	1.070999
C35	C	0.532489	-0.216432	0.506438
C36	C	1.032489	0.283568	1.006438
C37	C	0.482554	-0.216435	0.506431
C38	C	0.982554	0.283565	1.006431
C39	C	0.172911	-0.245216	0.573622
C40	C	0.672911	0.254784	1.073622
C41	C	-0.014762	-0.245229	0.573668
C42	C	0.485238	0.254771	1.073668
O43	O	-0.039027	-0.269679	0.630752
O44	O	0.460973	0.230321	1.130752
N45	N	-0.038231	-0.216468	0.506593
N46	N	0.461769	0.283532	1.006593
C47	C	-0.014778	-0.187699	0.439506
C48	C	0.485222	0.312301	0.939506
O49	O	-0.039046	-0.163233	0.382463
O50	O	0.460954	0.336767	0.882463
C51	C	0.172894	-0.187685	0.439466
C52	C	0.672894	0.312315	0.939466
C53	C	0.196360	-0.216451	0.506538
C54	C	0.696360	0.283549	1.006538
C55	C	0.196377	-0.273980	0.640689
C56	C	0.696377	0.226020	1.140689
C57	C	0.243293	-0.273978	0.640673
C58	C	0.743293	0.226022	1.140673
C59	C	0.266742	-0.245213	0.573589
C60	C	0.766742	0.254787	1.073589
C61	C	0.243276	-0.216449	0.506521
C62	C	0.743276	0.283551	1.006521
C63	C	0.196345	-0.158914	0.372385
C64	C	0.696345	0.341086	0.872385
C65	C	0.243266	-0.158913	0.372382
C66	C	0.743266	0.341087	0.872382
C67	C	0.266733	-0.187679	0.439455
C68	C	0.766733	0.312321	0.939455
C69	C	0.313640	-0.187682	0.439421
C70	C	0.813640	0.312318	0.939421
N71	N	0.337109	-0.216443	0.506496
N72	N	0.837109	0.283557	1.006496
C73	C	0.313660	-0.245209	0.573580
C74	C	0.813660	0.254791	1.073580
C75	C	-0.113309	-0.187710	0.439531
C76	C	0.386691	0.312290	0.939531
C77	C	-0.160227	-0.187714	0.439539
C78	C	0.339773	0.312286	0.939539
C79	C	-0.160207	-0.245243	0.573703
C80	C	0.339793	0.254757	1.073703
C81	C	-0.113288	-0.245241	0.573688
C82	C	0.386712	0.254759	1.073688
C83	C	-0.089840	-0.216471	0.506606
C84	C	0.410160	0.283529	1.006606
C85	C	0.412186	-0.245203	0.573540
C86	C	0.912186	0.254797	1.073540
C87	C	0.459105	-0.245200	0.573515
C88	C	0.959105	0.254800	1.073515
C89	C	0.459082	-0.187670	0.439355
C90	C	0.959082	0.312330	0.939355
C91	C	0.412166	-0.187674	0.439376
C92	C	0.912166	0.312326	0.939376
C93	C	0.388719	-0.216442	0.506477
C94	C	0.888719	0.283558	1.006477
O95	O	0.337934	-0.163242	0.382376
O96	O	0.837934	0.336758	0.882376
O97	O	0.337936	-0.269664	0.630631
O98	O	0.837936	0.230336	1.130631
C99	C	0.125996	-0.245218	0.573638
C100	C	0.625996	0.254782	1.073638
C101	C	0.102529	-0.216454	0.506570
C102	C	0.602529	0.283546	1.006570
C103	C	0.125978	-0.187689	0.439487
C104	C	0.625978	0.312311	0.939487
C105	C	0.055611	-0.216459	0.506579
C106	C	0.555611	0.283541	1.006579
C107	C	0.032162	-0.245224	0.573663
C108	C	0.532162	0.254776	1.073663
C109	C	0.055631	-0.273985	0.640738
C110	C	0.555631	0.226015	1.140738
C111	C	0.102547	-0.273983	0.640722
C112	C	0.602547	0.226017	1.140722
C113	C	0.102510	-0.158928	0.372411
C114	C	0.602510	0.341072	0.872411
C115	C	0.055594	-0.158933	0.372432
C116	C	0.555594	0.341067	0.872432
C117	C	0.032145	-0.187698	0.439516
C118	C	0.532145	0.312302	0.939516
C119	C	0.649154	-0.333174	0.506511
C120	C	1.149154	0.166826	1.006511
C121	C	0.649171	-0.383108	0.506545
C122	C	1.149171	0.116892	1.006545
C123	C	0.677969	-0.739654	0.573806
C124	C	1.177969	-0.239654	1.073806
C125	C	0.677927	-0.551981	0.573805
C126	C	1.177927	-0.051981	1.073805
O127	O	0.702354	-0.527681	0.630977
O128	O	1.202354	-0.027681	1.130977
N129	N	0.649206	-0.528553	0.506542
N130	N	1.149206	-0.028553	1.006542
C131	C	0.620497	-0.552047	0.439270
C132	C	1.120497	-0.052047	0.939270
O133	O	0.596071	-0.527814	0.382052
O134	O	1.096071	-0.027814	0.882052
C135	C	0.620542	-0.739719	0.439267
C136	C	1.120542	-0.239719	0.939267
C137	C	0.649261	-0.763144	0.506542
C138	C	1.149261	-0.263144	1.006542
C139	C	0.706686	-0.763079	0.641074
C140	C	1.206686	-0.263079	1.141074
C141	C	0.706694	-0.809995	0.641078
C142	C	1.206694	-0.309995	1.141078
C143	C	0.677986	-0.833485	0.573814
C144	C	1.177986	-0.333485	1.073814
C145	C	0.649270	-0.810060	0.506545
C146	C	1.149270	-0.310060	1.006545
C147	C	0.591835	-0.763212	0.371991
C148	C	1.091835	-0.263212	0.871991
C149	C	0.591850	-0.810133	0.371994
C150	C	1.091850	-0.310133	0.871994
C151	C	0.620569	-0.833558	0.439268
C152	C	1.120569	-0.333558	0.939268
C153	C	0.620570	-0.880465	0.439284
C154	C	1.120570	-0.380465	0.939284
N155	N	0.649290	-0.903893	0.506547
N156	N	1.149290	-0.403893	1.006547
C157	C	0.677998	-0.880403	0.573812
C158	C	1.177998	-0.380403	1.073812
C159	C	0.620475	-0.453516	0.439278
C160	C	1.120475	0.046484	0.939278
C161	C	0.620463	-0.406598	0.439280
C162	C	1.120463	0.093402	0.939280
C163	C	0.677893	-0.406536	0.573814
C164	C	1.177893	0.093464	1.073814
C165	C	0.677902	-0.453455	0.573816
C166	C	1.177902	0.046545	1.073816
C167	C	0.649195	-0.476944	0.506541
C168	C	1.149195	0.023056	1.006541
C169	C	0.678014	-0.978929	0.573815
C170	C	1.178014	-0.478929	1.073815
C171	C	0.678019	-1.025848	0.573816
C172	C	1.178019	-0.525848	1.073816
C173	C	0.620590	-1.025907	0.439279
C174	C	1.120590	-0.525907	0.939279
C175	C	0.620584	-0.978991	0.439281
C176	C	1.120584	-0.478991	0.939281
C177	C	0.649299	-0.955503	0.506553
C178	C	1.149299	-0.455503	1.006553
O179	O	0.596159	-0.904794	0.382134
O180	O	1.096159	-0.404794	0.882134
O181	O	0.702428	-0.904644	0.631005
O182	O	1.202428	-0.404644	1.131005
C183	C	0.677960	-0.692739	0.573803
C184	C	1.177960	-0.192739	1.073803
C185	C	0.649244	-0.669313	0.506534
C186	C	1.149244	-0.169313	1.006534
C187	C	0.620536	-0.692804	0.439270
C188	C	1.120536	-0.192804	0.939270
C189	C	0.649232	-0.622396	0.506536
C190	C	1.149232	-0.122396	1.006536
C191	C	0.677940	-0.598905	0.573801
C192	C	1.177940	-0.098905	1.073801
C193	C	0.706660	-0.622333	0.641063
C194	C	1.206660	-0.122333	1.141063
C195	C	0.706669	-0.669248	0.641067
C196	C	1.206669	-0.169248	1.141067
C197	C	0.591815	-0.669376	0.372007
C198	C	1.091815	-0.169376	0.872007
C199	C	0.591809	-0.622460	0.372010
C200	C	1.091809	-0.122460	0.872010
C201	C	0.620517	-0.598970	0.439274
C202	C	1.120517	-0.098970	0.939274
C203	C	0.766390	-0.216471	0.506591
C204	C	1.266390	0.283529	1.006591
C205	C	0.816324	-0.216479	0.506623
C206	C	1.316324	0.283521	1.006623
C207	C	0.649243	-0.216406	0.780547
C208	C	1.149243	0.283594	1.280547
C209	C	0.649256	-0.216387	0.897324
C210	C	1.149256	0.283613	1.397324
C211	C	0.649281	-0.099273	0.506540
C212	C	1.149281	0.400727	1.006540
C213	C	0.649310	-0.049339	0.506551
C214	C	1.149310	0.450661	1.006551
C215	C	0.649206	-0.216464	0.233547
C216	C	1.149206	0.283536	0.733547
C217	C	0.649279	-0.216357	0.116770
C218	C	1.149279	0.283643	0.616770
C219	C	0.678011	-0.187655	0.952213
C220	C	1.178011	0.312345	1.452213
C221	C	0.678021	-0.187639	1.061937
C222	C	1.178021	0.312361	1.561937
C223	C	0.620522	-0.245090	1.061874
C224	C	1.120522	0.254910	1.561874
C225	C	0.620509	-0.245103	0.952152
C226	C	1.120509	0.254897	1.452152
C227	C	0.706758	-0.158939	0.897386
C228	C	1.206758	0.341061	1.397386
C229	C	0.735515	-0.130205	0.952275
C230	C	1.235515	0.369795	1.452275
C231	C	0.735526	-0.130189	1.061999
C232	C	1.235526	0.369811	1.561999
C233	C	0.706779	-0.158906	1.116834
C234	C	1.206779	0.341094	1.616834
H235	H	0.177290	-0.297404	0.695323
H236	H	0.677290	0.202596	1.195323
H237	H	-0.094222	-0.164281	0.384899
H238	H	0.405778	0.335719	0.884899
H239	H	-0.179329	-0.164294	0.384912
H240	H	0.320671	0.335706	0.884912
H241	H	0.758938	-0.106789	1.106686
H242	H	1.258938	0.393211	1.606686
H243	H	0.730054	-0.688317	0.695850
H244	H	1.230054	-0.188317	1.195850
H245	H	0.706785	-0.158885	1.206179
H246	H	1.206785	0.341115	1.706179
H247	H	0.262395	-0.297402	0.695292
H248	H	0.762395	0.202598	1.195292
H249	H	0.730034	-0.603200	0.695837
H250	H	1.230034	-0.103200	1.195837
H251	H	0.568419	-0.603391	0.317229
H252	H	1.068419	-0.103391	0.817229
H253	H	0.597117	-0.268470	1.106529
H254	H	1.097117	0.231530	1.606529
H255	H	0.568438	-0.688497	0.317229
H256	H	1.068438	-0.188497	0.817229
H257	H	0.706753	-0.158950	0.808043
H258	H	1.206753	0.341050	1.308043
H259	H	0.478209	-0.268627	0.628134
H260	H	0.978209	0.231373	1.128134
H261	H	0.393101	-0.268628	0.628182
H262	H	0.893101	0.231372	1.128182
H263	H	0.036492	-0.135508	0.317805
H264	H	0.536492	0.364492	0.817805
H265	H	0.758917	-0.106822	0.907621
H266	H	1.258917	0.393178	1.407621
H267	H	0.597088	-0.268492	0.907460
H268	H	1.097088	0.231508	1.407460
H269	H	-0.094185	-0.268664	0.628306
H270	H	0.405815	0.231336	1.128306
H271	H	0.568450	-0.744145	0.317209
H272	H	1.068450	-0.244145	0.817209
H273	H	-0.179307	-0.268665	0.628326
H274	H	0.320693	0.231335	1.128326
H275	H	0.568473	-0.829255	0.317208
H276	H	1.068473	-0.329255	0.817208
H277	H	0.597194	-0.959918	0.384511
H278	H	1.097194	-0.459918	0.884511
H279	H	0.177247	-0.135491	0.317765
H280	H	0.677247	0.364509	0.817765
H281	H	0.393059	-0.164251	0.384759
H282	H	0.893059	0.335749	0.884759
H283	H	0.701286	-0.472524	0.628602
H284	H	1.201286	0.027476	1.128602
H285	H	0.121597	-0.135503	0.317782
H286	H	0.621597	0.364497	0.817782
H287	H	0.478182	-0.164251	0.384734
H288	H	0.978182	0.335749	0.884734
H289	H	0.262355	-0.135481	0.317761
H290	H	0.762355	0.364519	0.817761
H291	H	0.730066	-0.743958	0.695849
H292	H	1.230066	-0.243958	1.195849
H293	H	0.036531	-0.297408	0.695357
H294	H	0.536531	0.202592	1.195357
H295	H	0.121649	-0.297408	0.695339
H296	H	0.621649	0.202592	1.195339
H297	H	0.701397	-0.959810	0.628592
H298	H	1.201397	-0.459810	1.128592
H299	H	0.730084	-0.829063	0.695852
H300	H	1.230084	-0.329063	1.195852
H301	H	0.701404	-1.044919	0.628605
H302	H	1.201404	-0.544919	1.128605
H303	H	0.701268	-0.387402	0.628585
H304	H	1.201268	0.112598	1.128585
H305	H	0.597096	-0.472637	0.384492
H306	H	1.097096	0.027363	0.884492
H307	H	0.597072	-0.387529	0.384511
H308	H	1.097072	0.112471	0.884511
H309	H	0.597216	-1.045041	0.384516
H310	H	1.097216	-0.545041	0.884516
