data_functionalizedCrystal
_audit_creation_method	'MofGen! by Chris Wilmer'
_symmetry_space_group_name_H-M	'P1'
_symmetry_Int_Tables_number	1
_symmetry_cell_setting	triclinic
loop_
_symmetry_equiv_pos_as_xyz
  x,y,z
_cell_length_a	16.625548
_cell_length_b	14.908520
_cell_length_c	14.908308
_cell_angle_alpha	96.360765
_cell_angle_beta	86.722035
_cell_angle_gamma	86.678216
loop_
_atom_site_label
_atom_site_type_symbol
_atom_site_fract_x
_atom_site_fract_y
_atom_site_fract_z
Zn1	Zn	1.185085	0.389851	0.532572
Zn2	Zn	1.184994	0.532497	0.389942
Zn3	Zn	1.058507	0.381156	0.381229
Zn4	Zn	1.041965	0.541172	0.541251
O5	O	1.117638	0.461169	0.461249
O6	O	1.297904	0.408782	0.513666
O7	O	1.175099	0.505151	0.262126
O8	O	1.082259	0.255645	0.394027
O9	O	1.297837	0.513582	0.408877
O10	O	1.175255	0.262033	0.505217
O11	O	1.082170	0.393962	0.255724
O12	O	0.943482	0.402375	0.402442
O13	O	1.054066	0.528369	0.666760
O14	O	0.931328	0.519938	0.520009
O15	O	1.159215	0.417194	0.660384
O16	O	1.159059	0.660312	0.417292
O17	O	1.053977	0.666686	0.528458
C18	C	0.908149	0.461155	0.461222
C19	C	0.818526	0.461172	0.461234
C20	C	1.104734	0.696343	0.474782
C21	C	1.099286	0.796953	0.480602
C22	C	1.104806	0.474719	0.697332
C23	C	1.099337	0.480494	0.797936
C24	C	0.490348	0.461180	0.461273
C25	C	0.581658	0.461175	0.461259
C26	C	0.654434	0.461176	0.461253
C27	C	0.745750	0.461170	0.461240
C28	C	1.327944	0.461184	0.461275
C29	C	1.417565	0.461191	0.461287
C30	C	1.130613	0.225078	0.447682
C31	C	1.136142	0.124470	0.441901
C32	C	1.198572	0.979318	0.375875
C33	C	1.193455	1.073850	0.381340
C34	C	1.083942	1.080552	0.497002
C35	C	1.089058	0.986019	0.491537
C36	C	1.146374	0.935406	0.430970
C37	C	1.151486	0.840872	0.425501
C38	C	1.041977	0.847575	0.541167
C39	C	1.036861	0.942107	0.546632
C40	C	1.130470	0.447606	0.226080
C41	C	1.136108	0.441577	0.125461
C42	C	1.198553	0.375556	0.980344
C43	C	1.193418	0.380979	1.074871
C44	C	1.083928	0.496755	1.081518
C45	C	1.089064	0.491333	0.986991
C46	C	1.146379	0.430732	0.936408
C47	C	1.151517	0.425315	0.841879
C48	C	1.042025	0.541087	0.848528
C49	C	1.036889	0.546509	0.943055
H50	H	1.245235	0.938107	0.326553
O51	O	0.991409	0.594818	0.805899
C52	C	0.945341	0.747126	0.785879
C53	C	1.002716	0.686383	0.834199
H54	H	0.954450	0.821169	0.808756
H55	H	0.958850	0.732926	0.709622
H56	H	0.880199	0.732244	0.803534
H57	H	1.067878	0.701231	0.816617
H58	H	0.989137	0.700595	0.910445
H59	H	1.198187	0.375973	0.800695
O60	O	0.981290	0.991380	0.605511
C61	C	0.957930	1.105051	0.733904
C62	C	1.020950	1.049327	0.667272
H63	H	0.989971	1.151901	0.783866
H64	H	0.915675	1.147043	0.694914
H65	H	0.921484	1.057406	0.772299
H66	H	1.057452	1.096906	0.628859
H67	H	1.063149	1.007324	0.706313
O68	O	0.991155	0.804952	0.594594
C69	C	0.853140	0.778710	0.636740
C70	C	0.910606	0.827018	0.576174
H71	H	0.788004	0.796548	0.621882
H72	H	0.866570	0.702440	0.622423
H73	H	0.862310	0.801429	0.710808
H74	H	0.901469	0.804373	0.502086
H75	H	0.897162	0.903280	0.590568
O76	O	1.244196	1.116361	0.327725
C77	C	1.353391	1.099736	0.212467
C78	C	1.295961	1.051477	0.273119
H79	H	1.395269	1.047300	0.168316
H80	H	1.316630	1.141300	0.167597
H81	H	1.390829	1.146351	0.256640
H82	H	1.258511	1.004818	0.229016
H83	H	1.332769	1.009970	0.317995
H84	H	1.235902	0.336046	1.110640
H85	H	1.037265	0.546093	1.122720
H86	H	1.198153	0.799662	0.376182
O87	O	1.254251	0.316620	0.931337
C88	C	1.362348	0.202406	0.934719
C89	C	1.299295	0.269097	0.990326
H90	H	1.398795	0.163980	0.982388
H91	H	1.330377	0.152476	0.887760
H92	H	1.404593	0.241443	0.892833
H93	H	1.257033	0.230136	1.032265
H94	H	1.331319	0.319027	1.037228
O95	O	0.981287	0.605352	0.992334
C96	C	0.924816	0.664975	1.140900
C97	C	0.987835	0.598309	1.085207
H98	H	0.930077	0.659291	1.215998
H99	H	0.935976	0.736920	1.126584
H100	H	0.861694	0.648023	1.121339
H101	H	1.050982	0.615178	1.104736
H102	H	0.976604	0.526384	1.099529
H103	H	1.037283	1.121778	0.546318
