data_functionalizedCrystal
_audit_creation_method	'MofGen! by Chris Wilmer'
_symmetry_space_group_name_H-M	'P1'
_symmetry_Int_Tables_number	1
_symmetry_cell_setting	triclinic
loop_
_symmetry_equiv_pos_as_xyz
  x,y,z
_cell_length_a	10.723024
_cell_length_b	14.519709
_cell_length_c	9.198806
_cell_angle_alpha	89.995869
_cell_angle_beta	89.996352
_cell_angle_gamma	84.074007
loop_
_atom_site_label
_atom_site_type_symbol
_atom_site_fract_x
_atom_site_fract_y
_atom_site_fract_z
O1	O	1.655978	0.129347	-0.120886
O2	O	2.155978	0.629347	0.379114
O3	O	1.292710	0.141728	-0.120892
O4	O	1.792710	0.641728	0.379108
O5	O	1.483976	0.001349	-0.120876
O6	O	1.983976	0.501349	0.379124
O7	O	1.464713	0.269727	-0.120902
O8	O	1.964713	0.769727	0.379098
O9	O	1.483960	0.001348	0.120909
O10	O	1.983960	0.501348	0.620909
O11	O	1.292695	0.141728	0.120893
O12	O	1.792695	0.641728	0.620893
O13	O	1.655963	0.129347	0.120899
O14	O	2.155963	0.629347	0.620899
Cu15	Cu	1.474328	0.135538	0.142973
Cu16	Cu	1.974328	0.635538	0.642973
Cu17	Cu	1.474345	0.135538	-0.142966
Cu18	Cu	1.974345	0.635538	0.357034
O19	O	1.464697	0.269727	0.120883
O20	O	1.964697	0.769727	0.620883
C21	C	1.246211	0.140827	0.000000
C22	C	1.746211	0.640827	0.500000
C23	C	1.107682	0.138132	-0.000001
C24	C	1.607682	0.638132	0.499999
C25	C	1.031965	0.216681	-0.000010
C26	C	1.531965	0.716681	0.499990
C27	C	0.888788	0.213896	-0.000012
C28	C	1.388788	0.713896	0.499988
C29	C	1.483070	-0.033016	0.000017
C30	C	1.983070	0.466984	0.500017
C31	C	1.480380	-0.135411	0.000018
C32	C	1.980380	0.364589	0.500018
C33	C	1.470476	-0.510357	-0.000020
C34	C	1.970476	-0.010357	0.499980
C35	C	1.473227	-0.406035	-0.000009
C36	C	1.973227	0.093965	0.499991
C37	C	1.475428	-0.322887	0.000000
C38	C	1.975428	0.177113	0.500000
C39	C	1.478179	-0.218559	0.000008
C40	C	1.978179	0.281441	0.500008
C41	C	1.702462	0.130248	0.000003
C42	C	2.202462	0.630248	0.500003
C43	C	1.840991	0.132944	-0.000005
C44	C	2.340991	0.632944	0.499995
C45	C	1.465603	0.304091	-0.000013
C46	C	1.965603	0.804091	0.499987
C47	C	1.468293	0.406486	-0.000024
C48	C	1.968293	0.906486	0.499976
N49	N	1.474324	0.135537	0.344087
N50	N	1.974324	0.635537	0.844087
N51	N	1.474359	0.135532	-0.344080
N52	N	1.974359	0.635532	0.155920
C53	C	1.554633	0.076335	0.416290
C54	C	2.054633	0.576335	0.916290
C55	C	1.554653	0.076332	0.583703
C56	C	2.054653	0.576332	1.083703
H57	H	0.906045	0.065696	-0.000006
H58	H	1.406045	0.565696	0.499994
C59	C	0.800910	0.304744	-0.000028
C60	C	1.300910	0.804744	0.499972
H61	H	0.849471	0.355893	-0.000044
H62	H	1.349471	0.855893	0.499956
H63	H	0.749515	0.307200	0.084282
H64	H	1.249515	0.807200	0.584282
H65	H	0.749538	0.307194	-0.084360
H66	H	1.249538	0.807194	0.415640
C67	C	1.087569	0.310319	-0.000023
C68	C	1.587569	0.810319	0.499977
H69	H	1.021498	0.359239	-0.000020
H70	H	1.521498	0.859239	0.499980
H71	H	1.137756	0.314745	-0.084337
H72	H	1.637756	0.814745	0.415663
H73	H	1.137740	0.314747	0.084305
H74	H	1.637740	0.814747	0.584305
H75	H	1.623414	0.025651	0.645795
H76	H	2.123414	0.525651	1.145795
H77	H	1.066508	0.068822	-0.000032
H78	H	1.566508	0.568822	0.499968
C79	C	1.381468	0.204011	0.572065
C80	C	1.881468	0.704011	1.072065
H81	H	1.331102	0.241156	0.639091
H82	H	1.831102	0.741156	1.139091
H83	H	1.329356	0.170569	0.512697
H84	H	1.829356	0.670569	1.012697
H85	H	1.426649	0.242570	0.512680
H86	H	1.926649	0.742570	1.012680
C87	C	1.647499	0.007864	0.332381
C88	C	2.147499	0.507864	0.832381
H89	H	1.635308	0.016852	0.230868
H90	H	2.135308	0.516852	0.730868
H91	H	1.633603	-0.053747	0.357264
H92	H	2.133603	0.446253	0.857264
H93	H	1.730889	0.018258	0.357230
H94	H	2.230889	0.518258	0.857230
H95	H	1.405578	0.186216	0.406209
H96	H	1.905578	0.686216	0.906209
