data_functionalizedCrystal
_audit_creation_method	'MofGen! by Chris Wilmer'
_symmetry_space_group_name_H-M	'P1'
_symmetry_Int_Tables_number	1
_symmetry_cell_setting	triclinic
loop_
_symmetry_equiv_pos_as_xyz
  x,y,z
_cell_length_a	13.635800
_cell_length_b	9.109307
_cell_length_c	20.659430
_cell_angle_alpha	88.291019
_cell_angle_beta	121.791169
_cell_angle_gamma	68.235001
loop_
_atom_site_label
_atom_site_type_symbol
_atom_site_fract_x
_atom_site_fract_y
_atom_site_fract_z
V1	V	2.164836	-0.227000	0.252394
O2	O	2.119703	0.009317	0.232418
O3	O	2.174188	-0.448572	0.265258
O4	O	2.190892	-0.224207	0.355815
O5	O	2.102884	-0.216602	0.141235
V6	V	2.395790	-0.198651	0.237326
O7	O	2.319172	-0.289185	0.285446
O8	O	2.466554	-0.136466	0.204273
O9	O	2.274835	0.022921	0.224461
O10	O	2.499622	-0.434968	0.257301
O11	O	2.516441	-0.209049	0.348484
O12	O	2.258132	-0.201445	0.133905
V13	V	2.664836	-0.227000	0.252394
O14	O	2.619703	0.009317	0.232418
O15	O	2.674188	-0.448572	0.265258
O16	O	2.690892	-0.224207	0.355815
O17	O	2.602884	-0.216602	0.141235
V18	V	2.895790	-0.198651	0.237326
O19	O	2.819172	-0.289185	0.285446
O20	O	2.966554	-0.136466	0.204273
O21	O	2.774835	0.022921	0.224461
O22	O	2.999622	-0.434968	0.257301
O23	O	3.016441	-0.209049	0.348484
O24	O	2.758132	-0.201445	0.133905
C25	C	2.103225	-0.502565	0.265041
C26	C	2.151850	-0.683708	0.276249
C27	C	2.124530	-0.216362	0.380554
C28	C	2.186697	-0.215544	0.465197
C29	C	2.177470	0.076905	0.224677
C30	C	2.118466	0.258046	0.213474
C31	C	2.156163	-0.209294	0.109162
C32	C	2.083614	-0.210104	0.024517
C33	C	2.603225	-0.502565	0.265041
C34	C	2.651850	-0.683708	0.276249
C35	C	2.264495	-0.364455	0.525605
C36	C	2.322911	-0.363684	0.605136
C37	C	2.303520	-0.214000	0.624257
C38	C	2.225718	-0.065078	0.563841
C39	C	2.167311	-0.065851	0.484313
C40	C	2.461267	-0.061955	0.884572
C41	C	2.519679	-0.061193	0.964108
C42	C	2.616867	-0.359788	1.005395
C43	C	2.558460	-0.360561	0.925867
C44	C	2.480669	-0.211641	0.865459
C45	C	2.417330	-0.212479	0.779223
C46	C	2.366850	-0.213159	0.710491
C47	C	2.659648	-0.209295	1.109162
C48	C	2.597486	-0.210106	1.024518
C49	C	2.624530	-0.216362	0.380554
C50	C	2.686697	-0.215544	0.465197
C51	C	2.677470	0.076905	0.224677
C52	C	2.618466	0.258046	0.213474
C53	C	1.966392	-0.218629	-0.010827
C54	C	1.898203	-0.219371	-0.090362
C55	C	1.947243	-0.211598	-0.134549
C56	C	2.064474	-0.203067	-0.099199
C57	C	2.132656	-0.202314	-0.019668
C58	C	2.768907	-0.777108	0.285863
C59	C	2.814619	-0.947315	0.296406
C60	C	2.743268	-1.024118	0.297328
C61	C	2.626203	-0.930706	0.287715
C62	C	2.580497	-0.760504	0.277178
C63	C	2.810120	-0.223310	0.509363
C64	C	2.868540	-0.222520	0.588891
C65	C	2.803539	-0.213976	0.624254
C66	C	2.680103	-0.206205	0.580082
C67	C	2.621681	-0.206983	0.500553
C68	C	2.673904	0.351445	0.203862
C69	C	2.618466	0.521652	0.193323
C70	C	2.507595	0.598454	0.192402
C71	C	2.452152	0.505043	0.202014
C72	C	2.507585	0.334842	0.212547
H73	H	2.052699	-0.653238	0.151140
Cl74	Cl	2.280034	-0.191622	0.024759
Cl75	Cl	2.253412	-0.820683	0.372497
H76	H	2.574251	-0.482449	0.910304
Cl77	Cl	2.688188	0.639047	0.181244
Cl78	Cl	2.069526	0.121357	0.408370
Cl79	Cl	2.598410	-0.195489	0.624554
Cl80	Cl	2.312767	0.601622	0.200851
H81	H	2.680219	-0.481047	1.054590
Cl82	Cl	2.466522	-0.197243	0.445043
H83	H	2.104387	-0.196735	-0.135189
H84	H	2.386261	-0.484942	0.654319
H85	H	2.485176	-0.684468	0.269346
Cl86	Cl	2.961783	-1.064711	0.308485
H87	H	2.969050	-0.228855	0.624847
Cl88	Cl	2.877005	-0.213008	0.724237
H89	H	1.891719	-0.212233	-0.199305
Cl90	Cl	2.536515	-1.027282	0.288871
Cl91	Cl	1.750838	-0.230110	-0.134782
Cl92	Cl	2.891863	-0.234048	0.464923
Cl93	Cl	2.813285	0.254931	0.205015
Cl94	Cl	2.437876	0.217445	0.224634
H95	H	2.280285	-0.486345	0.510045
Cl96	Cl	2.495298	0.126996	0.988142
H97	H	1.926441	-0.224958	0.025140
H98	H	2.397932	0.059305	0.835396
H99	H	2.209940	0.056797	0.579416
H100	H	2.827018	-0.714597	0.285110
H101	H	2.780500	-1.162710	0.305908
H102	H	2.462470	0.737045	0.183825
