data_functionalizedCrystal
_audit_creation_method	'MofGen! by Chris Wilmer'
_symmetry_space_group_name_H-M	'P1'
_symmetry_Int_Tables_number	1
_symmetry_cell_setting	triclinic
loop_
_symmetry_equiv_pos_as_xyz
  x,y,z
_cell_length_a	16.974885
_cell_length_b	12.837942
_cell_length_c	15.455313
_cell_angle_alpha	92.949088
_cell_angle_beta	90.969048
_cell_angle_gamma	89.099236
loop_
_atom_site_label
_atom_site_type_symbol
_atom_site_fract_x
_atom_site_fract_y
_atom_site_fract_z
O1	O	1.058993	0.132204	0.002139
O2	O	0.830750	0.148031	-0.013870
O3	O	0.939810	-0.010800	-0.006215
O4	O	0.949933	0.291035	-0.005516
O5	O	0.933571	-0.001755	0.137609
O6	O	0.824511	0.157076	0.129954
O7	O	1.052753	0.141249	0.145963
Cu8	Cu	0.938062	0.149988	0.151091
Cu9	Cu	0.945441	0.139292	-0.018998
O10	O	0.943693	0.300080	0.138308
C11	C	0.798214	0.151785	0.055979
C12	C	0.710560	0.149482	0.049831
C13	C	0.933271	-0.044908	0.065456
C14	C	0.923073	-0.160015	0.064740
C15	C	0.217531	0.135949	0.006750
C16	C	0.299891	0.138114	0.012538
C17	C	0.337661	0.144135	0.093832
C18	C	0.293068	0.147981	0.169342
C19	C	0.210710	0.145808	0.163553
C20	C	0.583609	0.151155	0.119552
C21	C	0.665973	0.153330	0.125335
C22	C	0.672790	0.143462	-0.031469
C23	C	0.590430	0.141296	-0.037251
C24	C	0.545844	0.145136	0.038259
N25	N	0.421846	0.146352	0.099750
N26	N	0.461661	0.142912	0.032340
C27	C	1.045675	-0.400614	0.073321
C28	C	1.036097	-0.508768	0.072648
C29	C	0.894339	-0.484480	0.062714
C30	C	0.903917	-0.376326	0.063387
C31	C	0.979588	-0.334397	0.068692
C32	C	0.989165	-0.226240	0.069371
C33	C	0.847408	-0.201955	0.059432
C34	C	0.837830	-0.310109	0.058758
C35	C	1.085290	0.137495	0.076112
C36	C	1.172944	0.139798	0.082254
C37	C	0.950233	0.334188	0.066634
C38	C	0.960431	0.449295	0.067345
N39	N	0.932878	0.157512	0.270722
N40	N	0.950631	0.131760	-0.138629
C41	C	0.979230	0.090059	0.319370
C42	C	0.975318	0.095758	0.409903
C43	C	0.925057	0.168915	0.451788
C44	C	0.878700	0.236370	0.403133
C45	C	0.882608	0.230666	0.312601
C46	C	0.908182	0.193511	0.722185
C47	C	0.904279	0.199212	0.812723
C48	C	1.000897	0.058598	0.819487
C49	C	1.004805	0.052904	0.728953
C50	C	0.958444	0.120356	0.680307
N51	N	0.921058	0.174744	0.544327
N52	N	0.962439	0.114521	0.587768
H53	H	0.336191	0.134974	-0.048946
H54	H	1.045731	-0.006666	0.694853
O55	O	1.107379	-0.580183	0.077650
H56	H	1.108954	-0.633719	0.018960
O57	O	0.706717	0.159809	0.213020
H58	H	0.661878	0.162101	0.264555
O59	O	0.720876	0.139312	-0.112910
H60	H	0.708419	0.065926	-0.151487
O61	O	0.162465	0.150354	0.244886
H62	H	0.126356	0.079142	0.246256
O63	O	0.858190	0.266273	0.669726
H64	H	0.818377	0.219893	0.625584
O65	O	1.127285	-0.355377	0.079041
H66	H	1.171632	-0.419594	0.082143
O67	O	0.535523	0.155314	0.200991
H68	H	0.575626	0.159880	0.258489
O69	O	0.812727	-0.529711	0.056998
H70	H	0.817173	-0.616041	0.057314
O71	O	1.070777	-0.181009	0.075082
H72	H	1.115122	-0.245229	0.078175
H73	H	0.776221	-0.344264	0.054436
H74	H	0.323827	0.152876	0.235533
O75	O	0.776120	-0.130538	0.054435
H76	H	0.795490	-0.048286	0.055790
O77	O	1.033438	0.011150	0.274195
H78	H	1.065005	-0.034803	0.323236
O79	O	1.050891	-0.014160	0.871952
H80	H	1.039727	0.002088	0.941941
O81	O	1.025327	0.023026	0.462378
H82	H	1.060946	-0.028787	0.418044
O83	O	0.549715	0.134782	-0.124944
H84	H	0.510635	0.204159	-0.131483
O85	O	0.850056	0.278108	0.857903
H86	H	0.818467	0.324044	0.808867
O87	O	0.824491	0.315283	0.448302
H88	H	0.829566	0.307928	0.519429
O89	O	0.832616	0.303408	0.260117
H90	H	0.847975	0.385374	0.278593
O91	O	0.176794	0.129434	-0.080931
H92	H	0.221639	0.127104	-0.132461
