data_functionalizedCrystal
_audit_creation_method	'MofGen! by Chris Wilmer'
_symmetry_space_group_name_H-M	'P1'
_symmetry_Int_Tables_number	1
_symmetry_cell_setting	triclinic
loop_
_symmetry_equiv_pos_as_xyz
  x,y,z
_cell_length_a	16.625548
_cell_length_b	11.169416
_cell_length_c	11.169409
_cell_angle_alpha	90.030874
_cell_angle_beta	89.976847
_cell_angle_gamma	89.988592
loop_
_atom_site_label
_atom_site_type_symbol
_atom_site_fract_x
_atom_site_fract_y
_atom_site_fract_z
Zn1	Zn	1.232769	0.477676	-0.678662
Zn2	Zn	1.566102	0.811009	-0.345328
Zn3	Zn	1.899436	1.144342	-0.011995
Zn4	Zn	1.232695	0.678416	-0.477984
Zn5	Zn	1.566028	1.011750	-0.144650
Zn6	Zn	1.899361	1.345083	0.188683
Zn7	Zn	1.097925	0.477750	-0.477984
Zn8	Zn	1.431258	0.811083	-0.144651
Zn9	Zn	1.764591	1.144416	0.188682
Zn10	Zn	1.097930	0.678319	-0.678617
Zn11	Zn	1.431263	1.011653	-0.345283
Zn12	Zn	1.764596	1.344986	-0.011950
O13	O	1.165330	0.578040	-0.578312
O14	O	1.498663	0.911373	-0.244978
O15	O	1.831996	1.244707	0.088355
O16	O	1.345592	0.504314	-0.652060
O17	O	1.678925	0.837647	-0.318726
O18	O	2.012258	1.170981	0.014607
O19	O	1.214784	0.651869	-0.310034
O20	O	1.548117	0.985202	0.023300
O21	O	1.881451	1.318536	0.356633
O22	O	1.115841	0.309790	-0.504624
O23	O	1.449174	0.643123	-0.171290
O24	O	1.782508	0.976457	0.162043
O25	O	1.345537	0.651797	-0.504622
O26	O	1.678870	0.985131	-0.171289
O27	O	2.012204	1.318464	0.162044
O28	O	1.214911	0.309736	-0.652060
O29	O	1.548244	0.643069	-0.318727
O30	O	1.881577	0.976402	0.014606
O31	O	1.115769	0.504440	-0.310034
O32	O	1.449102	0.837773	0.023299
O33	O	1.782436	1.171107	0.356632
O34	O	0.985093	0.504346	-0.504580
O35	O	1.318426	0.837679	-0.171247
O36	O	1.651760	1.171012	0.162087
O37	O	1.115850	0.651632	-0.846573
O38	O	1.449183	0.984965	-0.513239
O39	O	1.782516	1.318299	-0.179906
O40	O	0.985097	0.651703	-0.651984
O41	O	1.318430	0.985037	-0.318651
O42	O	1.651763	1.318370	0.014683
O43	O	1.214915	0.504220	-0.846605
O44	O	1.548249	0.837553	-0.513272
O45	O	1.881582	1.170887	-0.179939
O46	O	1.214789	0.846353	-0.504579
O47	O	1.548122	1.179686	-0.171246
O48	O	1.881455	1.513020	0.162088
O49	O	1.115778	0.846282	-0.651983
O50	O	1.449111	1.179615	-0.318650
O51	O	1.782444	1.512948	0.014683
C52	C	1.165298	0.889865	-0.578302
C53	C	1.498631	1.223198	-0.244969
C54	C	1.831964	1.556532	0.088364
C55	C	1.165358	1.023265	-0.578339
C56	C	1.498691	1.356598	-0.245005
C57	C	1.832024	1.689931	0.088328
C58	C	0.955839	0.578023	-0.578278
C59	C	1.289172	0.911356	-0.244945
C60	C	1.622505	1.244690	0.088389
C61	C	0.866218	0.578045	-0.578292
C62	C	1.199551	0.911378	-0.244959
C63	C	1.532884	1.244711	0.088375
C64	C	1.165391	0.577907	-0.891354
C65	C	1.498725	0.911240	-0.558021
C66	C	1.832058	1.244574	-0.224687
C67	C	1.165418	0.577850	-1.024754
C68	C	1.498751	0.911183	-0.691421
C69	C	1.832084	1.244517	-0.358088
C70	C	0.538042	0.578052	-0.578343
C71	C	0.871375	0.911386	-0.245010
C72	C	1.204709	1.244719	0.088323
C73	C	0.629350	0.578047	-0.578325
C74	C	0.962684	0.911380	-0.244992
C75	C	1.296017	1.244714	0.088341
C76	C	0.702127	0.578049	-0.578317
C77	C	1.035460	0.911382	-0.244983
C78	C	1.368794	1.244716	0.088350
C79	C	0.793441	0.578042	-0.578301
C80	C	1.126774	0.911376	-0.244967
C81	C	1.460108	1.244709	0.088366
C82	C	1.375638	0.578058	-0.578346
C83	C	1.708972	0.911392	-0.245013
C84	C	2.042305	1.244725	0.088321
C85	C	1.465260	0.578066	-0.578361
C86	C	1.798593	0.911399	-0.245027
C87	C	2.131926	1.244733	0.088306
C88	C	1.165384	0.264998	-0.578347
C89	C	1.498717	0.598331	-0.245014
C90	C	1.832050	0.931664	0.088320
C91	C	1.165407	0.131598	-0.578362
C92	C	1.498740	0.464931	-0.245029
C93	C	1.832073	0.798264	0.088305
C94	C	1.165314	0.578086	-0.266487
C95	C	1.498648	0.911420	0.066847
C96	C	1.831981	1.244753	0.400180
C97	C	1.165444	0.577805	-0.133087
C98	C	1.498777	0.911138	0.200246
C99	C	1.832111	1.244472	0.533579
