data_functionalizedCrystal
_audit_creation_method	'MofGen! by Chris Wilmer'
_symmetry_space_group_name_H-M	'P1'
_symmetry_Int_Tables_number	1
_symmetry_cell_setting	triclinic
loop_
_symmetry_equiv_pos_as_xyz
  x,y,z
_cell_length_a	9.065218
_cell_length_b	16.776229
_cell_length_c	9.065215
_cell_angle_alpha	89.994350
_cell_angle_beta	85.015325
_cell_angle_gamma	89.990718
loop_
_atom_site_label
_atom_site_type_symbol
_atom_site_fract_x
_atom_site_fract_y
_atom_site_fract_z
O1	O	-1.960404	0.066327	-0.216362
O2	O	-1.460404	0.566327	0.283638
O3	O	-1.531119	0.066320	-0.234108
O4	O	-1.031119	0.566320	0.265892
O5	O	-1.754637	0.066320	-0.010592
O6	O	-1.254637	0.566320	0.489408
O7	O	-1.736887	0.066327	-0.439878
O8	O	-1.236887	0.566327	0.060122
O9	O	-1.754607	-0.066256	-0.010578
O10	O	-1.254607	0.433744	0.489422
O11	O	-1.531089	-0.066257	-0.234094
O12	O	-1.031089	0.433743	0.265906
O13	O	-1.960374	-0.066249	-0.216347
O14	O	-1.460374	0.433751	0.283653
Zn15	Zn	-1.745727	-0.087302	-0.225218
Zn16	Zn	-1.245727	0.412698	0.274782
Zn17	Zn	-1.745767	0.087373	-0.225237
Zn18	Zn	-1.245767	0.587373	0.274763
O19	O	-1.736856	-0.066250	-0.439863
O20	O	-1.236856	0.433750	0.060137
C21	C	-1.476118	0.000031	-0.232395
C22	C	-0.976118	0.500031	0.267605
C23	C	-1.312275	0.000028	-0.227296
C24	C	-0.812275	0.500028	0.272704
N25	N	-1.745710	-0.206514	-0.225205
N26	N	-1.245710	0.293486	0.274795
C27	C	-1.844715	-0.248230	-0.126273
C28	C	-1.344715	0.251770	0.373727
C29	C	-1.844724	-0.331683	-0.126272
C30	C	-1.344724	0.168317	0.373728
C31	C	-1.745733	-0.373416	-0.225211
C32	C	-1.245733	0.126584	0.274789
C33	C	-1.646717	-0.331694	-0.324147
C34	C	-1.146717	0.168306	0.175853
C35	C	-1.646703	-0.248243	-0.324139
C36	C	-1.146703	0.251757	0.175861
C37	C	-1.646771	-0.668241	-0.324176
C38	C	-1.146771	-0.168241	0.175824
C39	C	-1.646796	-0.751697	-0.324179
C40	C	-1.146796	-0.251697	0.175821
C41	C	-1.844791	-0.751681	-0.126309
C42	C	-1.344791	-0.251681	0.373691
C43	C	-1.844777	-0.668230	-0.126302
C44	C	-1.344777	-0.168230	0.373698
C45	C	-1.745757	-0.626514	-0.225232
C46	C	-1.245757	-0.126514	0.274768
C47	C	-1.745748	-0.536026	-0.225230
C48	C	-1.245748	-0.036026	0.274770
C49	C	-1.745748	-0.463903	-0.225221
C50	C	-1.245748	0.036097	0.274779
C51	C	-1.015376	0.000037	-0.218060
C52	C	-0.515376	0.500037	0.281940
C53	C	-1.179219	0.000030	-0.223159
C54	C	-0.679219	0.500030	0.276841
C55	C	-1.752917	0.000033	0.044402
C56	C	-1.252917	0.500033	0.544402
C57	C	-1.747819	0.000035	0.208245
C58	C	-1.247819	0.500035	0.708245
N59	N	-1.745795	0.206584	-0.225239
N60	N	-1.245795	0.706584	0.274761
C61	C	-1.738576	0.000039	-0.494857
C62	C	-1.238576	0.500039	0.005143
C63	C	-1.743674	0.000042	-0.658700
C64	C	-1.243674	0.500042	-0.158700
H65	H	-1.925331	-0.214256	-0.045713
H66	H	-1.425331	0.285744	0.454287
H67	H	-1.566110	-0.365678	-0.404699
H68	H	-1.066110	0.134322	0.095301
H69	H	-1.566180	-0.785676	-0.404749
H70	H	-1.066180	-0.285676	0.095251
H71	H	-1.925340	-0.365648	-0.045714
H72	H	-1.425340	0.134352	0.454286
H73	H	-1.566148	-0.634283	-0.404731
H74	H	-1.066148	-0.134283	0.095269
H75	H	-1.566082	-0.214278	-0.404697
H76	H	-1.066082	0.285722	0.095303
H77	H	-1.925415	-0.785654	-0.045750
H78	H	-1.425415	-0.285654	0.454250
H79	H	-1.925389	-0.634253	-0.045742
H80	H	-1.425389	-0.134253	0.454258
