data_functionalizedCrystal
_audit_creation_method	'MofGen! by Chris Wilmer'
_symmetry_space_group_name_H-M	'P1'
_symmetry_Int_Tables_number	1
_symmetry_cell_setting	triclinic
loop_
_symmetry_equiv_pos_as_xyz
  x,y,z
_cell_length_a	27.732048
_cell_length_b	15.944551
_cell_length_c	15.021413
_cell_angle_alpha	90.009504
_cell_angle_beta	89.999540
_cell_angle_gamma	83.070697
loop_
_atom_site_label
_atom_site_type_symbol
_atom_site_fract_x
_atom_site_fract_y
_atom_site_fract_z
O1	O	-0.641360	-0.099949	-0.073919
O2	O	-0.308027	0.233384	0.259414
O3	O	0.025307	0.566718	0.592747
O4	O	-0.500632	-0.115146	-0.073947
O5	O	-0.167299	0.218188	0.259387
O6	O	0.166034	0.551521	0.592720
O7	O	-0.574839	0.014778	-0.073924
O8	O	-0.241506	0.348111	0.259409
O9	O	0.091827	0.681444	0.592742
O10	O	-0.567153	-0.229873	-0.073942
O11	O	-0.233820	0.103461	0.259392
O12	O	0.099513	0.436794	0.592725
O13	O	-0.574833	0.014791	0.074140
O14	O	-0.241499	0.348124	0.407473
O15	O	0.091834	0.681457	0.740807
O16	O	-0.500626	-0.115133	0.074118
O17	O	-0.167293	0.218201	0.407451
O18	O	0.166041	0.551534	0.740784
O19	O	-0.641354	-0.099936	0.074145
O20	O	-0.308020	0.233397	0.407478
O21	O	0.025313	0.566731	0.740811
Zn22	Zn	-0.570989	-0.107532	0.097640
Zn23	Zn	-0.237655	0.225801	0.430973
Zn24	Zn	0.095678	0.559134	0.764306
Zn25	Zn	-0.570997	-0.107550	-0.097441
Zn26	Zn	-0.237664	0.225784	0.235892
Zn27	Zn	0.095669	0.559117	0.569225
O28	O	-0.567147	-0.229859	0.074122
O29	O	-0.233813	0.103474	0.407456
O30	O	0.099520	0.436807	0.740789
C31	C	-0.574517	0.046074	0.000108
C32	C	-0.241183	0.379407	0.333441
C33	C	0.092150	0.712741	0.666775
C34	C	-0.573560	0.139308	0.000108
C35	C	-0.240227	0.472641	0.333442
C36	C	0.093106	0.805974	0.666775
C37	C	-0.482621	-0.114820	0.000082
C38	C	-0.149287	0.218513	0.333415
C39	C	0.184046	0.551846	0.666749
C40	C	-0.428962	-0.113860	0.000072
C41	C	-0.095628	0.219474	0.333405
C42	C	0.237705	0.552807	0.666739
C43	C	-0.659365	-0.100262	0.000114
C44	C	-0.326032	0.233072	0.333447
C45	C	0.007302	0.566405	0.666781
C46	C	-0.713024	-0.101222	0.000118
C47	C	-0.379691	0.232111	0.333452
C48	C	-0.046357	0.565445	0.666785
C49	C	-0.090453	-0.184589	0.000106
C50	C	0.242880	0.148745	0.333439
C51	C	0.576214	0.482078	0.666772
C52	C	0.111222	-0.181025	0.000114
C53	C	0.444555	0.152309	0.333447
C54	C	0.777889	0.485642	0.666780
O55	O	0.142198	-0.245701	0.000148
O56	O	0.475531	0.087632	0.333481
O57	O	0.808864	0.420965	0.666814
N58	N	0.130679	-0.103986	0.000118
N59	N	0.464013	0.229348	0.333451
N60	N	0.797346	0.562681	0.666784
C61	C	0.099715	-0.027832	0.000125
C62	C	0.433048	0.305501	0.333459
C63	C	0.766381	0.638835	0.666792
O64	O	0.120892	0.037776	0.000138
O65	O	0.454225	0.371110	0.333471
O66	O	0.787558	0.704443	0.666805
C67	C	-0.101960	-0.031397	0.000124
C68	C	0.231374	0.301937	0.333457
C69	C	0.564707	0.635270	0.666790
C70	C	-0.121414	-0.108441	0.000111
C71	C	0.211919	0.224892	0.333444
C72	C	0.545253	0.558226	0.666777
C73	C	-0.109908	-0.261627	0.000094
C74	C	0.223425	0.071707	0.333427
C75	C	0.556759	0.405040	0.666760
C76	C	-0.160324	-0.262517	0.000087
C77	C	0.173010	0.070817	0.333420
C78	C	0.506343	0.404150	0.666753
C79	C	-0.191285	-0.186369	0.000092
C80	C	0.142049	0.146964	0.333425
C81	C	0.475382	0.480298	0.666758
C82	C	-0.171830	-0.109331	0.000104
C83	C	0.161504	0.224002	0.333437
C84	C	0.494837	0.557336	0.666770
C85	C	-0.132923	0.044756	0.000138
C86	C	0.200410	0.378089	0.333471
C87	C	0.533743	0.711423	0.666804
C88	C	-0.183345	0.043858	0.000139
C89	C	0.149989	0.377191	0.333473
C90	C	0.483322	0.710525	0.666806
C91	C	-0.202799	-0.033186	0.000126
C92	C	0.130534	0.300147	0.333460
C93	C	0.463868	0.633480	0.666793
C94	C	-0.253206	-0.034073	0.000102
C95	C	0.080127	0.299260	0.333435
C96	C	0.413460	0.632593	0.666768
N97	N	-0.272664	-0.111113	0.000098
N98	N	0.060670	0.222221	0.333431
N99	N	0.394003	0.555554	0.666765
C100	C	-0.241703	-0.187260	0.000093
C101	C	0.091630	0.146073	0.333426
C102	C	0.424964	0.479406	0.666760
C103	C	0.205597	-0.025966	0.000125
C104	C	0.538930	0.307368	0.333458
C105	C	0.872263	0.640701	0.666791
C106	C	0.256015	-0.025074	0.000123
C107	C	0.589348	0.308259	0.333457
C108	C	0.922682	0.641592	0.666790
C109	C	0.267519	-0.178268	0.000113
C110	C	0.600852	0.155066	0.333447
C111	C	0.934186	0.488399	0.666780
C112	C	0.217100	-0.179158	0.000108
C113	C	0.550433	0.154175	0.333442
C114	C	0.883766	0.487509	0.666775
C115	C	0.186139	-0.103005	0.000121
C116	C	0.519473	0.230328	0.333454
C117	C	0.852806	0.563662	0.666787
C118	C	-0.347580	-0.189124	0.000078
C119	C	-0.014247	0.144209	0.333411
C120	C	0.319087	0.477543	0.666744
C121	C	-0.398001	-0.190007	0.000067
C122	C	-0.064668	0.143326	0.333400
C123	C	0.268666	0.476659	0.666734
C124	C	-0.409500	-0.036815	0.000082
C125	C	-0.076167	0.296519	0.333415
C126	C	0.257166	0.629852	0.666748
C127	C	-0.359084	-0.035931	0.000088
C128	C	-0.025751	0.297403	0.333421
C129	C	0.307583	0.630736	0.666754
C130	C	-0.328125	-0.112092	0.000089
C131	C	0.005209	0.221241	0.333422
C132	C	0.338542	0.554574	0.666755
O133	O	-0.284210	0.030569	0.000078
O134	O	0.049123	0.363902	0.333411
O135	O	0.382456	0.697235	0.666745
O136	O	-0.262890	-0.252859	0.000100
O137	O	0.070444	0.080474	0.333433
O138	O	0.403777	0.413807	0.666767
C139	C	-0.040037	-0.183699	0.000112
C140	C	0.293296	0.149635	0.333446
C141	C	0.626629	0.482968	0.666779
C142	C	-0.020582	-0.106661	0.000124
C143	C	0.312751	0.226673	0.333458
C144	C	0.646084	0.560006	0.666791
C145	C	-0.051543	-0.030513	0.000129
C146	C	0.281790	0.302821	0.333463
C147	C	0.615123	0.636154	0.666796
C148	C	0.029836	-0.105769	0.000123
C149	C	0.363169	0.227564	0.333457
C150	C	0.696503	0.560897	0.666790
C151	C	0.060797	-0.181917	0.000118
C152	C	0.394130	0.151416	0.333452
C153	C	0.727464	0.484750	0.666785
C154	C	0.041339	-0.258956	0.000114
C155	C	0.374673	0.074377	0.333448
C156	C	0.708006	0.407711	0.666781
C157	C	-0.009076	-0.259846	0.000107
C158	C	0.324257	0.073487	0.333441
C159	C	0.657590	0.406820	0.666774
C160	C	-0.032086	0.046526	0.000133
C161	C	0.301248	0.379860	0.333467
C162	C	0.634581	0.713193	0.666800
C163	C	0.018331	0.047410	0.000139
C164	C	0.351664	0.380744	0.333473
C165	C	0.684997	0.714077	0.666806
C166	C	0.049291	-0.028737	0.000134
C167	C	0.382625	0.304596	0.333468
C168	C	0.715958	0.637929	0.666801
C169	C	-0.567469	-0.261156	0.000088
C170	C	-0.234136	0.072178	0.333422
C171	C	0.099198	0.405511	0.666755
C172	C	-0.568426	-0.354389	0.000082
C173	C	-0.235092	-0.021056	0.333415
C174	C	0.098241	0.312277	0.666749
N175	N	-0.570986	-0.107520	0.230777
N176	N	-0.237653	0.225813	0.564111
N177	N	0.095680	0.559147	0.897444
C178	C	-0.525277	0.353533	0.000087
C179	C	-0.191944	0.686866	0.333420
C180	C	0.141390	1.020199	0.666753
C181	C	-0.547695	0.414850	0.073096
C182	C	-0.214362	0.748183	0.406429
C183	C	0.118972	1.081516	0.739762
C184	C	-0.571830	0.310011	0.000101
C185	C	-0.238496	0.643344	0.333434
C186	C	0.094837	0.976677	0.666768
C187	C	-0.547712	0.414820	-0.072884
C188	C	-0.214379	0.748154	0.260449
C189	C	0.118954	1.081487	0.593783
C190	C	-0.570155	0.474902	0.000090
C191	C	-0.236821	0.808235	0.333424
C192	C	0.096512	1.141568	0.666757
C193	C	-0.594260	0.370100	0.073170
C194	C	-0.260927	0.703433	0.406504
C195	C	0.072406	1.036766	0.739837
C196	C	-0.594271	0.370064	-0.072875
C197	C	-0.260938	0.703397	0.260458
C198	C	0.072395	1.036731	0.593792
C199	C	-0.616723	0.431364	0.000152
C200	C	-0.283390	0.764697	0.333485
C201	C	0.049944	1.098030	0.666818
C202	C	-0.572793	0.215021	0.000108
C203	C	-0.239460	0.548354	0.333441
C204	C	0.093873	0.881688	0.666775
C205	C	-0.569195	0.569890	0.000090
C206	C	-0.235861	0.903223	0.333423
C207	C	0.097472	1.236557	0.666756
N208	N	-0.571003	-0.107555	-0.230579
N209	N	-0.237670	0.225778	0.102754
N210	N	0.095663	0.559111	0.436088
C211	C	-0.605043	-0.046973	0.529779
C212	C	-0.271709	0.286360	0.863112
C213	C	0.061624	0.619694	1.196445
C214	C	-0.614818	-0.122516	0.470409
C215	C	-0.281485	0.210818	0.803742
C216	C	0.051849	0.544151	1.137075
C217	C	-0.570998	-0.107545	0.587814
C218	C	-0.237664	0.225788	0.921147
C219	C	0.095669	0.559122	1.254481
C220	C	-0.561240	-0.031992	0.470442
C221	C	-0.227906	0.301341	0.803776
C222	C	0.105427	0.634675	1.137109
C223	C	-0.570993	-0.107528	0.412390
C224	C	-0.237660	0.225805	0.745723
C225	C	0.095673	0.559138	1.079057
C226	C	-0.580795	-0.183125	0.529751
C227	C	-0.247462	0.150208	0.863084
C228	C	0.085872	0.483541	1.196417
C229	C	-0.527197	-0.092552	0.529789
C230	C	-0.193864	0.240781	0.863123
C231	C	0.139469	0.574114	1.196456
C232	C	-0.536954	-0.168150	0.470446
C233	C	-0.203621	0.165183	0.803780
C234	C	0.129712	0.498517	1.137113
C235	C	-0.571002	-0.107553	0.688871
C236	C	-0.237668	0.225780	1.022205
C237	C	0.095665	0.559113	1.355538
C238	C	-0.570989	-0.107529	0.311335
C239	C	-0.237656	0.225804	0.644668
C240	C	0.095677	0.559138	0.978002
H241	H	-0.413838	-0.252749	0.000056
H242	H	-0.080504	0.080585	0.333389
H243	H	0.252829	0.413918	0.666723
H244	H	-0.613947	0.350185	-0.134594
H245	H	-0.280614	0.683519	0.198739
H246	H	0.052720	1.016852	0.532073
H247	H	-0.552988	0.031895	0.444389
H248	H	-0.219654	0.365229	0.777722
H249	H	0.113679	0.698562	1.111056
H250	H	0.180392	0.036051	0.000135
H251	H	0.513726	0.369384	0.333468
H252	H	0.847059	0.702718	0.666801
H253	H	-0.528002	0.434706	0.134811
H254	H	-0.194669	0.768039	0.468145
H255	H	0.138664	1.101373	0.801478
H256	H	-0.176158	-0.325254	0.000076
H257	H	0.157175	0.008079	0.333409
H258	H	0.490508	0.341413	0.666742
F259	F	-0.521969	0.440737	-0.153555
F260	F	-0.188636	0.774070	0.179778
F261	F	0.144698	1.107403	0.513112
F262	F	-0.619973	0.344318	0.153935
F263	F	-0.286640	0.677651	0.487268
F264	F	0.046694	1.010985	0.820602
H265	H	-0.490170	-0.079848	0.555892
H266	H	-0.156837	0.253485	0.889225
H267	H	0.176497	0.586819	1.222558
F268	F	-0.065031	0.127578	0.000140
F269	F	0.268303	0.460911	0.333474
F270	F	0.601636	0.794245	0.666807
H271	H	-0.633854	0.004187	0.555829
H272	H	-0.300521	0.337521	0.889162
H273	H	0.032812	0.670854	1.222496
F274	F	-0.667273	0.475368	0.000213
F275	F	-0.333940	0.808701	0.333546
F276	F	-0.000607	1.142034	0.666879
F277	F	-0.663228	-0.139080	0.436297
F278	F	-0.329895	0.194254	0.769630
F279	F	0.003439	0.527587	1.102963
H280	H	-0.589087	-0.247028	0.555694
H281	H	-0.255753	0.086306	0.889027
H282	H	0.077580	0.419639	1.222360
H283	H	-0.434718	0.025183	0.000082
H284	H	-0.101384	0.358516	0.333416
H285	H	0.231949	0.691849	0.666749
F286	F	-0.474771	0.309338	0.000168
F287	F	-0.141437	0.642671	0.333501
F288	F	0.191896	0.976004	0.666834
H289	H	-0.508161	-0.219422	0.444559
H290	H	-0.174827	0.113911	0.777892
H291	H	0.158506	0.447245	1.111226
H292	H	-0.322378	-0.251142	0.000081
H293	H	0.010955	0.082191	0.333415
H294	H	0.344288	0.415525	0.666748
H295	H	-0.024911	-0.322584	0.000098
H296	H	0.308422	0.010750	0.333431
H297	H	0.641756	0.344083	0.666765
F298	F	-0.076964	-0.342681	0.000088
F299	F	0.256370	-0.009348	0.333422
F300	F	0.589703	0.323986	0.666755
F301	F	0.196400	-0.261158	0.000096
F302	F	0.529733	0.072175	0.333430
F303	F	0.863066	0.405509	0.666763
H304	H	0.292736	-0.240270	0.000110
H305	H	0.626069	0.093063	0.333443
H306	H	0.959403	0.426397	0.666776
H307	H	-0.117093	0.107494	0.000149
H308	H	0.216240	0.440827	0.333482
H309	H	0.549574	0.774160	0.666816
F310	F	0.276714	0.056926	0.000117
F311	F	0.610047	0.390260	0.333451
F312	F	0.943381	0.723593	0.666784
H313	H	-0.208551	0.105873	0.000150
H314	H	0.124783	0.439206	0.333484
H315	H	0.458116	0.772539	0.666817
F316	F	-0.338379	0.046068	0.000102
F317	F	-0.005045	0.379401	0.333435
F318	F	0.328288	0.712734	0.666768
H319	H	0.034165	0.110154	0.000143
H320	H	0.367498	0.443487	0.333476
H321	H	0.700832	0.776820	0.666809
F322	F	0.074299	-0.339998	0.000104
F323	F	0.407632	-0.006665	0.333438
F324	F	0.740966	0.326668	0.666771
