data_functionalizedCrystal
_audit_creation_method	'MofGen! by Chris Wilmer'
_symmetry_space_group_name_H-M	'P1'
_symmetry_Int_Tables_number	1
_symmetry_cell_setting	triclinic
loop_
_symmetry_equiv_pos_as_xyz
  x,y,z
_cell_length_a	13.033286
_cell_length_b	18.101395
_cell_length_c	13.033109
_cell_angle_alpha	97.152016
_cell_angle_beta	90.884484
_cell_angle_gamma	82.862374
loop_
_atom_site_label
_atom_site_type_symbol
_atom_site_fract_x
_atom_site_fract_y
_atom_site_fract_z
Zn1	Zn	1.645772	-0.477106	-0.381359
Zn2	Zn	2.145772	0.022894	0.118641
Zn3	Zn	1.623788	-0.583508	-0.209405
Zn4	Zn	2.123788	-0.083508	0.290595
Zn5	Zn	1.451985	-0.446208	-0.231298
Zn6	Zn	1.951985	0.053792	0.268702
Zn7	Zn	1.473740	-0.587408	-0.403195
Zn8	Zn	1.973740	-0.087408	0.096805
O9	O	1.548821	-0.523558	-0.306314
O10	O	2.048821	-0.023558	0.193686
O11	O	1.786751	-0.502519	-0.340248
O12	O	2.286751	-0.002519	0.159752
O13	O	1.582693	-0.550732	-0.068406
O14	O	2.082693	-0.050732	0.431594
O15	O	1.477787	-0.346685	-0.251228
O16	O	1.977787	0.153315	0.248772
O17	O	1.770600	-0.580692	-0.213914
O18	O	2.270600	-0.080692	0.286086
O19	O	1.620161	-0.369385	-0.361477
O20	O	2.120161	0.130615	0.138523
O21	O	1.456470	-0.449858	-0.084491
O22	O	1.956470	0.050142	0.415509
O23	O	1.310975	-0.453640	-0.272401
O24	O	1.810975	0.046360	0.227599
O25	O	1.514865	-0.587339	-0.544202
O26	O	2.014865	-0.087339	-0.044202
O27	O	1.326958	-0.557379	-0.398693
O28	O	1.826958	-0.057379	0.101307
O29	O	1.641256	-0.506301	-0.528159
O30	O	2.141256	-0.006301	-0.028159
O31	O	1.603788	-0.687647	-0.235088
O32	O	2.103788	-0.187647	0.264912
O33	O	1.493548	-0.690513	-0.377464
O34	O	1.993548	-0.190513	0.122536
C35	C	1.281656	-0.502580	-0.340293
C36	C	1.781656	-0.002580	0.159707
C37	C	1.167365	-0.493626	-0.354853
C38	C	1.667365	0.006374	0.145147
C39	C	1.108407	-0.528233	-0.298741
C40	C	1.608407	-0.028233	0.201259
C41	C	0.990280	-0.518980	-0.313788
C42	C	1.490280	-0.018980	0.186212
C43	C	1.548674	-0.715953	-0.306289
C44	C	2.048674	-0.215953	0.193711
C45	C	1.548710	-0.798271	-0.306300
C46	C	2.048710	-0.298271	0.193700
C47	C	1.548833	-0.948993	-0.306326
C48	C	2.048833	-0.448993	0.193674
C49	C	1.479424	-0.982171	-0.395850
C50	C	1.979424	-0.482171	0.104150
C51	C	1.479767	-1.067846	-0.396147
C52	C	1.979767	-0.567846	0.103853
C53	C	1.548952	-1.097388	-0.306352
C54	C	2.048952	-0.597388	0.193648
C55	C	1.661061	-1.077666	-0.321708
C56	C	2.161061	-0.577666	0.178292
C57	C	1.660605	-0.992036	-0.322328
C58	C	2.160605	-0.492036	0.177672
C59	C	1.507080	-0.967413	-0.201132
C60	C	2.007080	-0.467413	0.298868
C61	C	1.504832	-1.052944	-0.202031
C62	C	2.004832	-0.552944	0.297969
C63	C	1.549026	-1.181255	-0.306364
C64	C	2.049026	-0.681255	0.193636
C65	C	1.548766	-0.865126	-0.306316
C66	C	2.048766	-0.365126	0.193684
C67	C	1.817029	-0.544617	-0.272204
C68	C	2.317029	-0.044617	0.227796
C69	C	1.931324	-0.553592	-0.257668
C70	C	2.431324	-0.053592	0.242332
C71	C	1.582939	-0.550702	-0.574536
C72	C	2.082939	-0.050702	-0.074536
C73	C	1.597478	-0.562269	-0.688836
C74	C	2.097478	-0.062269	-0.188836
C75	C	1.549000	-0.330416	-0.306359
C76	C	2.049000	0.169584	0.193641
C77	C	1.549076	-0.248110	-0.306378
C78	C	2.049076	0.251890	0.193622
C79	C	1.541508	-0.517515	-0.747753
C80	C	2.041508	-0.017515	-0.247753
C81	C	1.556533	-0.529470	-0.865888
C82	C	2.056533	-0.029470	-0.365888
C83	C	1.514895	-0.496470	-0.039128
C84	C	2.014895	0.003530	0.460872
C85	C	1.500555	-0.484710	0.075196
C86	C	2.000555	0.015290	0.575196
H87	H	0.968295	-0.590080	-0.198491
H88	H	1.468295	-0.090080	0.301509
H89	H	1.130389	-0.457150	-0.414037
H90	H	1.630389	0.042850	0.085963
H91	H	1.482461	-0.470353	-0.710736
H92	H	1.982461	0.029647	-0.210736
H93	H	1.397077	-1.080782	-0.388154
H94	H	1.897077	-0.580782	0.111846
N95	N	1.426491	-0.425535	-0.878366
N96	N	1.926491	0.074465	-0.378366
N97	N	1.455143	-0.375167	-0.813812
N98	N	1.955143	0.124833	-0.313812
H99	H	1.402837	-0.333375	-0.781014
H100	H	1.902837	0.166625	-0.281014
N101	N	1.154763	-0.574005	-0.224496
N102	N	1.654763	-0.074005	0.275504
N103	N	1.143651	-0.642090	-0.232655
N104	N	1.643651	-0.142090	0.267345
H105	H	1.176385	-0.674418	-0.180217
H106	H	1.676385	-0.174418	0.319783
N107	N	1.703830	-1.116858	-0.416500
N108	N	2.203830	-0.616858	0.083500
N109	N	1.793081	-1.108621	-0.442947
N110	N	2.293081	-0.608621	0.057053
H111	H	1.823283	-1.136298	-0.509897
H112	H	2.323283	-0.636298	-0.009897
H113	H	1.422259	-1.064847	-0.190194
H114	H	1.922259	-0.564847	0.309806
H115	H	1.396473	-0.953496	-0.388099
H116	H	1.896473	-0.453496	0.111901
N117	N	0.943909	-0.473228	-0.388053
N118	N	1.443909	0.026772	0.111947
N119	N	0.892283	-0.501327	-0.461098
N120	N	1.392283	-0.001327	0.038902
H121	H	0.859530	-0.469017	-0.513549
H122	H	1.359530	0.030983	-0.013549
N123	N	1.515877	-1.105584	-0.494274
N124	N	2.015877	-0.605584	0.005726
N125	N	1.458990	-1.145036	-0.549348
N126	N	1.958990	-0.645036	-0.049348
H127	H	1.484499	-1.171691	-0.618652
H128	H	1.984499	-0.671691	-0.118652
H129	H	1.507893	-0.970159	-0.473644
H130	H	2.007893	-0.470159	0.026356
N131	N	1.702944	-0.979352	-0.418269
N132	N	2.202944	-0.479352	0.081731
N133	N	1.732621	-1.033680	-0.484305
N134	N	2.232621	-0.533680	0.015695
H135	H	1.762523	-1.024726	-0.552067
H136	H	2.262523	-0.524726	-0.052067
N137	N	1.630626	-0.588630	-0.912312
N138	N	2.130626	-0.088630	-0.412312
N139	N	1.724011	-0.589964	-0.888334
N140	N	2.224011	-0.089964	-0.388334
H141	H	1.776341	-0.631744	-0.921123
H142	H	2.276341	-0.131744	-0.421123
N143	N	1.671536	-0.621440	-0.735281
N144	N	2.171536	-0.121440	-0.235281
N145	N	1.683634	-0.631070	-0.831181
N146	N	2.183634	-0.131070	-0.331181
H147	H	1.735938	-0.672862	-0.863983
H148	H	2.235938	-0.172862	-0.363983
N149	N	1.728642	-0.964998	-0.243125
N150	N	2.228642	-0.464998	0.256875
N151	N	1.776316	-1.009375	-0.187573
N152	N	2.276316	-0.509375	0.312427
H153	H	1.824370	-0.990283	-0.131639
H154	H	2.324370	-0.490283	0.368361
H155	H	1.550599	-1.072224	-0.132899
H156	H	2.050599	-0.572224	0.367101
H157	H	1.714822	-1.097093	-0.257913
H158	H	2.214822	-0.597093	0.242087
N159	N	1.405326	-0.929364	-0.180184
N160	N	1.905326	-0.429364	0.319816
N161	N	1.362340	-0.888204	-0.242540
N162	N	1.862340	-0.388204	0.257460
H163	H	1.290475	-0.861329	-0.227755
H164	H	1.790475	-0.361329	0.272245
H165	H	1.557458	-0.945665	-0.134603
H166	H	2.057458	-0.445665	0.365397
