data_functionalizedCrystal
_audit_creation_method	'MofGen! by Chris Wilmer'
_symmetry_space_group_name_H-M	'P1'
_symmetry_Int_Tables_number	1
_symmetry_cell_setting	triclinic
loop_
_symmetry_equiv_pos_as_xyz
  x,y,z
_cell_length_a	17.699083
_cell_length_b	10.489741
_cell_length_c	16.176319
_cell_angle_alpha	89.993511
_cell_angle_beta	89.998611
_cell_angle_gamma	83.911094
loop_
_atom_site_label
_atom_site_type_symbol
_atom_site_fract_x
_atom_site_fract_y
_atom_site_fract_z
O1	O	1.005134	0.161296	-0.068630
O2	O	0.784893	0.182281	-0.068657
O3	O	0.900025	-0.013903	-0.068638
O4	O	0.890002	0.357479	-0.068649
O5	O	0.900009	-0.013915	0.068855
O6	O	0.784877	0.182268	0.068836
O7	O	1.005118	0.161283	0.068863
Cu8	Cu	0.894996	0.171775	0.081404
Cu9	Cu	0.895015	0.171789	-0.081198
O10	O	0.889986	0.357467	0.068844
C11	C	0.756683	0.181523	0.000086
C12	C	0.672650	0.179267	0.000076
C13	C	0.624782	0.294422	0.000073
C14	C	0.545825	0.292295	0.000083
C15	C	0.514737	0.175011	0.000091
C16	C	0.562611	0.059847	0.000097
C17	C	0.641567	0.061975	0.000092
C18	C	0.244192	0.051260	0.000118
C19	C	0.165230	0.049140	0.000120
C20	C	0.148450	0.281580	0.000109
C21	C	0.227406	0.283709	0.000104
C22	C	0.275273	0.168545	0.000114
C23	C	0.360887	0.170853	0.000104
C24	C	0.429124	0.172702	0.000096
C25	C	0.899260	-0.061427	0.000108
C26	C	0.896995	-0.203014	0.000106
C27	C	0.823740	-0.269793	0.000091
C28	C	0.858337	-0.362565	0.067887
C29	C	0.858370	-0.362527	-0.067671
C30	C	0.931622	-0.293921	0.067958
C31	C	0.931645	-0.293874	-0.067661
C32	C	0.966296	-0.386619	0.000151
C33	C	1.033328	0.162042	0.000118
C34	C	1.117361	0.164297	0.000123
C35	C	0.890751	0.404991	0.000096
C36	C	0.893016	0.546578	0.000093
N37	N	0.894988	0.171764	0.195769
N38	N	0.895029	0.171790	-0.195563
C39	C	0.945984	0.084929	0.239042
C40	C	0.945988	0.084928	0.325589
C41	C	0.894999	0.171768	0.368862
C42	C	0.843997	0.258607	0.325583
C43	C	0.843990	0.258601	0.239037
C44	C	0.844023	0.258631	0.674611
C45	C	0.844036	0.258632	0.761163
C46	C	0.946021	0.084957	0.761162
C47	C	0.946014	0.084951	0.674617
C48	C	0.895010	0.171785	0.631346
C49	C	0.895006	0.171784	0.537502
C50	C	0.895006	0.171776	0.462704
H51	H	0.109467	0.375352	0.000105
N52	N	0.819481	-0.400687	-0.139565
N53	N	0.761207	-0.457385	-0.132040
H54	H	0.733736	-0.484334	-0.182812
H55	H	0.283156	-0.042514	0.000127
N56	N	0.748180	-0.206113	0.000169
N57	N	0.703962	-0.223982	0.058284
H58	H	0.650599	-0.179008	0.058343
N59	N	0.998113	-0.003745	0.630429
N60	N	1.043646	-0.081267	0.669076
H61	H	1.080444	-0.143911	0.637870
N62	N	0.998024	-0.003835	0.194829
N63	N	0.996294	-0.121714	0.204512
H64	H	1.033030	-0.184425	0.173279
N65	N	0.970501	-0.255652	-0.139563
N66	N	0.945548	-0.277245	-0.209906
H67	H	0.972986	-0.250250	-0.260694
N68	N	0.791918	0.347329	0.630431
N69	N	0.746397	0.424855	0.669081
H70	H	0.709594	0.487503	0.637876
N71	N	0.998104	-0.003759	0.805376
N72	N	0.973665	-0.082884	0.853676
H73	H	1.010448	-0.145538	0.884900
N74	N	0.998082	-0.003786	0.369777
N75	N	1.043606	-0.081311	0.331132
H76	H	1.080399	-0.143972	0.362339
N77	N	0.791933	0.347334	0.805354
N78	N	0.721971	0.345716	0.795700
H79	H	0.685174	0.408358	0.826909
H80	H	0.802477	0.329310	0.360821
H81	H	0.802463	0.329309	0.203806
H82	H	0.506854	0.386067	0.000080
N83	N	0.656522	0.414239	0.000057
N84	N	0.613770	0.517047	0.000056
H85	H	0.636183	0.601672	0.000047
H86	H	0.252713	0.379213	0.000094
H87	H	0.139922	-0.046372	0.000128
H88	H	0.827334	-0.393005	0.125195
H89	H	0.537293	-0.035648	0.000115
N90	N	0.970457	-0.256003	0.139953
N91	N	0.996408	-0.338454	0.191224
H92	H	1.023832	-0.311673	0.242072
N93	N	0.690477	-0.055640	0.000102
N94	N	0.736408	-0.080380	0.058060
H95	H	0.770953	-0.163448	0.058071
N96	N	1.041923	-0.450015	0.000211
N97	N	1.086022	-0.432374	0.058475
H98	H	1.139434	-0.477148	0.058521
