data_functionalizedCrystal
_audit_creation_method	'MofGen! by Chris Wilmer'
_symmetry_space_group_name_H-M	'P1'
_symmetry_Int_Tables_number	1
_symmetry_cell_setting	triclinic
loop_
_symmetry_equiv_pos_as_xyz
  x,y,z
_cell_length_a	19.188930
_cell_length_b	14.519709
_cell_length_c	12.996460
_cell_angle_alpha	89.998766
_cell_angle_beta	89.979925
_cell_angle_gamma	83.412462
loop_
_atom_site_label
_atom_site_type_symbol
_atom_site_fract_x
_atom_site_fract_y
_atom_site_fract_z
O1	O	-0.926557	-0.115129	0.085900
O2	O	-0.723301	-0.130628	0.085830
O3	O	-0.830318	0.011393	0.085857
O4	O	-0.819540	-0.257151	0.085872
O5	O	-0.830304	0.011385	-0.085276
O6	O	-0.723287	-0.130637	-0.085304
O7	O	-0.926543	-0.115137	-0.085234
Cu8	Cu	-0.824914	-0.122888	-0.100895
Cu9	Cu	-0.824930	-0.122878	0.101491
O10	O	-0.819526	-0.257159	-0.085262
C11	C	-0.697281	-0.130130	0.000254
C12	C	-0.619771	-0.128624	0.000227
C13	C	-0.829809	0.045746	0.000290
C14	C	-0.828304	0.148118	0.000289
C15	C	-0.952563	-0.115635	0.000344
C16	C	-1.030073	-0.117142	0.000378
C17	C	-0.575144	-0.211957	0.000247
C18	C	-0.502315	-0.210542	0.000259
C19	C	-0.474117	-0.125788	0.000270
C20	C	-0.518754	-0.042443	0.000243
C21	C	-0.591581	-0.043861	0.000222
N22	N	-0.365911	-0.061001	0.058552
N23	N	-0.296727	-0.059660	0.058575
C24	C	-0.254693	-0.121511	0.000332
N25	N	-0.284454	-0.184768	-0.057920
N26	N	-0.353644	-0.186112	-0.057938
C27	C	-0.395149	-0.124241	0.000292
C28	C	-0.131096	-0.203315	0.000364
C29	C	-0.058266	-0.201896	0.000369
C30	C	-0.074706	-0.033796	0.000364
C31	C	-0.147535	-0.035217	0.000348
C32	C	-0.175725	-0.119979	0.000353
C33	C	-0.820035	-0.291511	0.000308
C34	C	-0.821541	-0.393883	0.000316
N35	N	-0.824908	-0.122894	-0.243242
C36	C	-0.822762	0.522979	0.000314
C37	C	-0.824301	0.418681	0.000307
C38	C	-0.825533	0.335552	0.000300
C39	C	-0.827072	0.231247	0.000295
C40	C	-0.824911	-0.122896	-0.336348
C41	C	-0.824917	-0.122890	-0.453153
C42	C	-0.824926	-0.122880	-0.546251
C43	C	-0.824933	-0.122875	-0.663064
N44	N	-0.824942	-0.122864	0.243838
H45	H	-0.598091	-0.280977	0.000253
H46	H	-0.183871	0.032642	0.000337
H47	H	-0.021931	-0.269760	0.000380
F48	F	-0.161101	-0.293526	0.000361
F49	F	-0.044701	0.056407	0.000366
H50	H	-0.465973	-0.278404	0.000273
H51	H	-0.627917	0.024001	0.000205
F52	F	-0.488742	0.047758	0.000250
