data_functionalizedCrystal
_audit_creation_method	'MofGen! by Chris Wilmer'
_symmetry_space_group_name_H-M	'P1'
_symmetry_Int_Tables_number	1
_symmetry_cell_setting	triclinic
loop_
_symmetry_equiv_pos_as_xyz
  x,y,z
_cell_length_a	16.109302
_cell_length_b	12.811415
_cell_length_c	14.586319
_cell_angle_alpha	95.434651
_cell_angle_beta	90.005448
_cell_angle_gamma	83.753707
loop_
_atom_site_label
_atom_site_type_symbol
_atom_site_fract_x
_atom_site_fract_y
_atom_site_fract_z
O1	O	1.103626	0.134916	0.087497
O2	O	0.861626	0.151705	0.088885
O3	O	0.988714	-0.009484	0.075484
O4	O	0.976538	0.296105	0.100898
O5	O	0.988705	-0.009487	-0.076997
O6	O	0.861617	0.151702	-0.063596
O7	O	1.103617	0.134913	-0.064984
Cu8	Cu	0.982617	0.143308	-0.078213
Cu9	Cu	0.982627	0.143310	0.102114
O10	O	0.976529	0.296102	-0.051583
C11	C	0.830644	0.151023	0.012587
C12	C	0.738342	0.148984	0.012415
C13	C	0.988027	-0.048589	-0.004007
C14	C	0.985984	-0.165107	-0.013692
C15	C	0.525978	0.144267	-0.071086
C16	C	0.439251	0.142340	-0.071243
C17	C	0.439271	0.142348	0.095001
C18	C	0.525998	0.144268	0.095156
C19	C	0.569349	0.145233	0.012111
C20	C	0.395895	0.141385	0.011798
C21	C	0.301862	0.139296	0.011629
C22	C	0.663388	0.147321	0.012280
C23	C	0.982139	-0.384041	0.134363
C24	C	0.980219	-0.493520	0.125268
C25	C	0.980218	-0.493543	-0.040977
C26	C	0.982138	-0.384065	-0.031881
C27	C	0.983100	-0.329318	0.055791
C28	C	0.985026	-0.219838	0.064886
C29	C	0.985019	-0.219863	-0.101358
C30	C	0.983099	-0.329341	-0.110453
C31	C	1.134599	0.135595	0.011316
C32	C	1.226902	0.137634	0.011494
C33	C	0.977216	0.335208	0.027910
C34	C	0.979260	0.451725	0.037601
N35	N	0.982615	0.143305	-0.205045
C36	C	1.038909	0.071954	-0.445983
C37	C	1.038911	0.071952	-0.541965
C38	C	0.926335	0.214659	-0.530109
C39	C	0.926330	0.214655	-0.434130
C40	C	0.982621	0.143305	-0.392069
C41	C	0.982629	0.143305	-0.584030
C42	C	0.982631	0.143303	-0.688097
C43	C	0.982618	0.143305	-0.287996
N44	N	0.982635	0.143305	0.228945
H45	H	0.561272	0.145053	-0.138707
C46	C	1.099864	-0.005618	-0.400232
C47	C	1.055322	-0.069864	-0.350496
C48	C	1.111435	-0.141353	-0.308345
H49	H	1.133388	-0.048212	-0.446014
H50	H	1.134612	0.032068	-0.359578
H51	H	1.020588	-0.107547	-0.391147
H52	H	1.021800	-0.027299	-0.304700
H53	H	1.146184	-0.103667	-0.267691
H54	H	1.144957	-0.183939	-0.354133
H55	H	1.081222	-0.184946	-0.274587
C56	C	0.865265	0.292295	-0.575643
C57	C	0.879084	0.395441	-0.543690
C58	C	0.822834	0.466990	-0.585602
H59	H	0.873268	0.282231	-0.640529
H60	H	0.809724	0.280936	-0.560847
H61	H	0.934612	0.406796	-0.558492
H62	H	0.871075	0.405539	-0.478810
H63	H	0.767293	0.455630	-0.570806
H64	H	0.830841	0.456916	-0.650486
H65	H	0.832197	0.536982	-0.563921
C66	C	1.100119	-0.005559	-0.600338
C67	C	1.149425	-0.068025	-0.542954
C68	C	1.205828	-0.139434	-0.596694
H69	H	1.070163	-0.049366	-0.641432
H70	H	1.134903	0.032185	-0.634615
H71	H	1.114645	-0.105767	-0.508693
H72	H	1.179400	-0.024248	-0.501861
H73	H	1.240612	-0.101689	-0.630970
H74	H	1.175864	-0.183233	-0.637785
H75	H	1.239294	-0.181819	-0.557766
C76	C	0.865349	0.292182	-0.375467
C77	C	0.909855	0.356427	-0.314993
C78	C	0.853709	0.427842	-0.260931
H79	H	0.831806	0.334784	-0.414148
H80	H	0.830621	0.254439	-0.341119
H81	H	0.944568	0.394168	-0.349338
H82	H	0.943394	0.313856	-0.276292
H83	H	0.818981	0.390099	-0.226584
H84	H	0.820170	0.470436	-0.299620
H85	H	0.883898	0.471435	-0.219888
C86	C	0.392288	0.141484	0.185242
C87	C	0.404368	0.232190	0.242934
C88	C	0.361110	0.231429	0.326078
H89	H	0.334407	0.140261	0.173368
H90	H	0.412646	0.080663	0.214393
H91	H	0.384007	0.292994	0.213789
H92	H	0.462240	0.233431	0.254834
H93	H	0.381467	0.170609	0.355228
H94	H	0.303231	0.230204	0.314194
H95	H	0.369306	0.292967	0.365235
H96	H	0.403943	0.141554	-0.138990
H97	H	0.985804	-0.175296	-0.165337
C98	C	0.573181	0.145485	0.185437
C99	C	0.613947	0.236819	0.197871
C100	C	0.657430	0.237966	0.281015
H101	H	0.535032	0.144699	0.234955
H102	H	0.613187	0.085095	0.183875
H103	H	0.573945	0.297194	0.199440
H104	H	0.652109	0.237625	0.148373
H105	H	0.697436	0.177576	0.279453
H106	H	0.619276	0.237177	0.330527
H107	H	0.685101	0.299930	0.289458
H108	H	0.985811	-0.175265	0.136274
H109	H	0.982929	-0.339467	0.205750
C110	C	0.979211	-0.552751	0.210687
C111	C	0.980478	-0.481371	0.289408
C112	C	0.979554	-0.535897	0.368116
H113	H	0.930047	-0.587439	0.211378
H114	H	1.026903	-0.603464	0.209993
H115	H	0.932791	-0.430678	0.290102
H116	H	1.029639	-0.446681	0.288748
H117	H	1.027246	-0.586610	0.367422
H118	H	0.930389	-0.570582	0.368797
H119	H	0.980421	-0.487476	0.421537
H120	H	0.979428	-0.538136	-0.112356
H121	H	0.982313	-0.373931	-0.181834
