data_functionalizedCrystal
_audit_creation_method	'MofGen! by Chris Wilmer'
_symmetry_space_group_name_H-M	'P1'
_symmetry_Int_Tables_number	1
_symmetry_cell_setting	triclinic
loop_
_symmetry_equiv_pos_as_xyz
  x,y,z
_cell_length_a	10.489741
_cell_length_b	8.559649
_cell_length_c	7.681481
_cell_angle_alpha	85.069100
_cell_angle_beta	95.784933
_cell_angle_gamma	77.158919
loop_
_atom_site_label
_atom_site_type_symbol
_atom_site_fract_x
_atom_site_fract_y
_atom_site_fract_z
O1	O	1.656827	0.240139	-0.146313
O2	O	1.283403	0.261279	-0.146340
O3	O	1.503014	0.018485	-0.146322
O4	O	1.437216	0.482933	-0.146331
O5	O	1.530052	-0.011467	0.146538
O6	O	1.310441	0.231327	0.146520
O7	O	1.683864	0.210187	0.146547
Zn8	Zn	1.501445	0.216001	0.193031
Zn9	Zn	1.465823	0.255465	-0.192824
O10	O	1.464253	0.452981	0.146529
C11	C	1.521519	-0.055963	0.000105
C12	C	1.536361	-0.233171	0.000096
C13	C	1.249558	0.244707	0.000087
C14	C	1.108431	0.239932	0.000076
C15	C	1.056559	0.085448	0.000096
C16	C	0.943417	0.173191	-0.144297
C17	C	0.970104	0.143698	0.144440
C18	C	0.997137	0.327750	-0.144436
C19	C	1.023847	0.298222	0.144431
C20	C	0.910718	0.386081	0.000003
C21	C	1.717709	0.226760	0.000116
C22	C	1.858836	0.231536	0.000115
C23	C	1.445748	0.527429	0.000098
C24	C	1.430906	0.704639	0.000095
N25	N	1.525766	0.189068	0.456367
N26	N	1.441513	0.282385	-0.456161
H27	H	1.329266	-0.213034	0.000094
H28	H	1.638009	-0.315510	0.000117
C29	C	1.141695	-0.086112	-0.000089
C30	C	1.117170	-0.185068	-0.153060
C31	C	1.202307	-0.356621	-0.153254
C32	C	1.311968	-0.429219	-0.000477
C33	C	1.336498	-0.330262	0.152506
C34	C	1.251362	-0.158709	0.152700
H35	H	1.035988	-0.131327	-0.266166
H36	H	1.184148	-0.429875	-0.266503
H37	H	1.374992	-0.556213	-0.000620
H38	H	1.417681	-0.384003	0.265612
H39	H	1.269521	-0.085455	0.265949
H40	H	0.908016	0.120312	-0.266371
C41	C	1.014240	0.432851	-0.309553
C42	C	1.151835	0.456732	-0.340128
C43	C	1.168943	0.561821	-0.505247
C44	C	1.048456	0.643029	-0.639793
C45	C	0.910851	0.619151	-0.609223
C46	C	0.893743	0.514062	-0.444103
H47	H	1.241036	0.396615	-0.240526
H48	H	1.270808	0.579497	-0.527877
H49	H	1.061120	0.720822	-0.762024
H50	H	0.821650	0.679268	-0.708825
H51	H	0.791878	0.496386	-0.421473
C52	C	0.952780	0.038506	0.309362
C53	C	1.073316	-0.044084	0.443224
C54	C	1.055998	-0.149287	0.608136
C55	C	0.918145	-0.171900	0.639186
C56	C	0.797600	-0.089307	0.505320
C57	C	0.814918	0.015896	0.340408
H58	H	1.175371	-0.027347	0.420243
H59	H	1.145234	-0.210427	0.707232
H60	H	0.905325	-0.249777	0.761264
H61	H	0.695544	-0.106044	0.528301
H62	H	0.725682	0.077036	0.241312
H63	H	0.847901	0.513217	-0.000078
H64	H	1.059287	0.351047	0.266510
H65	H	1.355509	0.377634	0.468636
H66	H	1.611784	0.093824	0.531580
