data_functionalizedCrystal
_audit_creation_method	'MofGen! by Chris Wilmer'
_symmetry_space_group_name_H-M	'P1'
_symmetry_Int_Tables_number	1
_symmetry_cell_setting	triclinic
loop_
_symmetry_equiv_pos_as_xyz
  x,y,z
_cell_length_a	18.050589
_cell_length_b	18.050590
_cell_length_c	12.759387
_cell_angle_alpha	89.995630
_cell_angle_beta	90.029987
_cell_angle_gamma	89.984959
loop_
_atom_site_label
_atom_site_type_symbol
_atom_site_fract_x
_atom_site_fract_y
_atom_site_fract_z
Zn1	Zn	-0.295882	-1.135351	0.593558
Zn2	Zn	-0.420090	-1.135244	0.417881
Zn3	Zn	-0.295890	-1.011153	0.417945
Zn4	Zn	-0.420006	-1.011118	0.593570
O5	O	-0.357967	-1.073217	0.505739
O6	O	-0.312390	-1.239261	0.570223
O7	O	-0.403654	-1.118753	0.270869
O8	O	-0.191964	-1.027687	0.441262
O9	O	-0.403646	-1.239183	0.441154
O10	O	-0.191958	-1.118935	0.570285
O11	O	-0.312405	-1.027584	0.270915
O12	O	-0.312323	-0.907224	0.441273
O13	O	-0.403501	-1.027628	0.740590
O14	O	-0.403510	-0.907198	0.570304
O15	O	-0.312308	-1.118901	0.740581
O16	O	-0.524004	-1.118720	0.441165
O17	O	-0.523942	-1.027525	0.570243
C18	C	-0.357908	-0.880264	0.505797
C19	C	-0.357901	-0.797719	0.505848
C20	C	-0.407623	-0.598276	0.575862
C21	C	-0.339902	-0.548885	0.601712
C22	C	-0.357936	-0.646588	0.505807
C23	C	-0.425690	-0.548897	0.479966
C24	C	-0.357977	-0.500603	0.505770
C25	C	-0.290180	-0.598285	0.531707
C26	C	-0.376014	-0.598301	0.409916
C27	C	-0.308246	-0.548933	0.435730
C28	C	-0.357914	-0.730687	0.505831
C29	C	-0.357991	-0.416507	0.505745
C30	C	-0.550919	-1.073127	0.505721
C31	C	-0.633465	-1.073156	0.505749
C32	C	-0.832909	-1.023613	0.575917
C33	C	-0.882352	-1.005506	0.480055
C34	C	-0.784595	-1.073229	0.505763
C35	C	-0.882233	-1.091373	0.601635
C36	C	-0.930580	-1.073299	0.505784
C37	C	-0.832952	-1.055087	0.409850
C38	C	-0.832828	-1.140985	0.531495
C39	C	-0.882250	-1.122904	0.435567
C40	C	-0.700497	-1.073188	0.505751
C41	C	-1.014677	-1.073340	0.505784
C42	C	-0.164261	-1.073327	0.505779
C43	C	-0.081716	-1.073374	0.505796
C44	C	-0.357894	-1.073273	0.779772
C45	C	-0.357863	-1.073297	0.896549
C46	C	-0.358016	-0.266922	0.505698
C47	C	-0.358011	-0.349468	0.505726
C48	C	-0.357986	-1.073203	0.232771
C49	C	-0.357808	-1.073323	0.115995
C50	C	-0.262910	-1.168346	0.896560
C51	C	-0.215422	-1.215881	0.951426
C52	C	-0.215395	-1.215899	1.061148
C53	C	-0.262859	-1.168375	1.116006
C54	C	-0.310347	-1.120840	1.061139
C55	C	-0.310370	-1.120829	0.951415
C56	C	-0.405296	-1.025788	1.061129
C57	C	-0.405328	-1.025773	0.951407
C58	C	-0.452760	-0.978265	1.115986
C59	C	-0.500253	-0.930732	1.061120
C60	C	-0.500278	-0.930717	0.951392
C61	C	-0.452815	-0.978238	0.896541
H62	H	-0.391311	-0.620024	0.328863
H63	H	-0.903881	-1.106692	0.682705
H64	H	-0.266197	-0.527404	0.376471
Br65	Br	-0.521161	-0.512735	0.443563
Br66	Br	-0.262956	-1.168338	0.747651
H67	H	-0.811394	-1.039702	0.328758
Br68	Br	-0.918132	-1.192891	0.336593
Br69	Br	-0.150987	-1.280353	0.876973
H70	H	-0.452835	-0.978233	0.807199
Br71	Br	-0.477542	-0.634389	0.674700
Br72	Br	-0.564655	-0.866237	1.135574
Br73	Br	-0.796797	-0.953582	0.674663
Br74	Br	-0.564724	-0.866195	0.876940
Br75	Br	-0.452723	-0.978287	1.264896
H76	H	-0.904123	-0.948240	0.458310
Br77	Br	-0.194677	-0.634286	0.568262
Br78	Br	-0.314435	-0.512707	0.736843
H79	H	-0.176721	-1.254601	1.105820
H80	H	-0.811060	-1.198239	0.553285
H81	H	-0.262827	-1.168388	1.205347
