data_functionalizedCrystal
_audit_creation_method	'MofGen! by Chris Wilmer'
_symmetry_space_group_name_H-M	'P1'
_symmetry_Int_Tables_number	1
_symmetry_cell_setting	triclinic
loop_
_symmetry_equiv_pos_as_xyz
  x,y,z
_cell_length_a	18.050591
_cell_length_b	18.050589
_cell_length_c	18.050582
_cell_angle_alpha	89.981795
_cell_angle_beta	90.020922
_cell_angle_gamma	89.975773
loop_
_atom_site_label
_atom_site_type_symbol
_atom_site_fract_x
_atom_site_fract_y
_atom_site_fract_z
Zn1	Zn	1.135293	0.295786	0.420054
Zn2	Zn	1.135203	0.419969	0.295873
Zn3	Zn	1.011112	0.295789	0.295865
Zn4	Zn	1.011060	0.419930	0.420009
O5	O	1.073167	0.357868	0.357950
O6	O	1.239205	0.312274	0.403603
O7	O	1.118727	0.403514	0.191948
O8	O	1.027644	0.191864	0.312354
O9	O	1.239140	0.403511	0.312369
O10	O	1.118879	0.191862	0.403595
O11	O	1.027557	0.312279	0.191942
O12	O	0.907180	0.312241	0.312311
O13	O	1.027555	0.403444	0.523940
O14	O	0.907142	0.403447	0.403519
O15	O	1.118828	0.312236	0.523973
O16	O	1.118676	0.523888	0.312325
O17	O	1.027468	0.523860	0.403527
C18	C	0.880215	0.357841	0.357909
C19	C	0.797669	0.357847	0.357909
C20	C	1.073077	0.550820	0.357938
C21	C	1.073107	0.633366	0.357958
C22	C	0.598217	0.308191	0.308425
C23	C	0.548798	0.375927	0.290154
C24	C	0.646539	0.357869	0.357943
C25	C	0.548877	0.290157	0.376212
C26	C	0.500553	0.357885	0.357974
C27	C	0.598206	0.425641	0.339637
C28	C	0.598289	0.339825	0.425726
C29	C	0.548892	0.407607	0.407481
C30	C	0.730637	0.357859	0.357923
C31	C	0.416457	0.357903	0.357994
C32	C	1.073196	0.357835	0.551656
C33	C	1.073208	0.357821	0.634202
C34	C	1.266872	0.357897	0.357992
C35	C	1.349418	0.357909	0.358010
C36	C	1.073277	0.164163	0.357979
C37	C	1.073324	0.081617	0.357991
C38	C	1.023557	0.832828	0.407536
C39	C	1.005459	0.882261	0.339767
C40	C	1.073180	0.784497	0.357967
C41	C	1.091314	0.882146	0.425744
C42	C	1.073249	0.930482	0.357983
C43	C	1.055046	0.832842	0.290162
C44	C	1.140933	0.832722	0.376186
C45	C	1.122861	0.882133	0.308370
C46	C	1.073138	0.700398	0.357959
C47	C	1.073291	1.014578	0.357983
C48	C	1.073181	0.357848	0.164998
C49	C	1.073312	0.357652	0.082453
C50	C	1.023612	0.407353	0.833635
C51	C	1.091367	0.425511	0.883034
C52	C	1.073245	0.357765	0.785332
C53	C	1.005527	0.339586	0.883014
C54	C	1.073274	0.357711	0.931317
C55	C	1.141036	0.375958	0.833645
C56	C	1.055150	0.290002	0.833620
C57	C	1.122952	0.308134	0.882998
C58	C	1.073227	0.357797	0.701234
C59	C	1.073300	0.357679	1.015414
H60	H	0.619875	0.266226	0.266503
H61	H	1.198333	0.391377	0.812050
C62	C	0.928099	0.911660	0.318952
H63	H	0.892873	0.894783	0.354213
H64	H	0.914899	0.894054	0.271151
H65	H	0.928798	0.964284	0.318670
C66	C	0.519425	0.396560	0.212738
H67	H	0.536308	0.361211	0.177599
H68	H	0.537040	0.444327	0.199429
H69	H	0.466800	0.396856	0.213423
C70	C	0.627350	0.503029	0.318687
H71	H	0.679980	0.502544	0.318778
H72	H	0.610067	0.538349	0.353652
H73	H	0.609994	0.515929	0.270693
C74	C	0.519809	0.464431	0.464066
H75	H	0.536790	0.512493	0.450978
H76	H	0.537503	0.452018	0.512061
H77	H	0.467182	0.463847	0.464055
C78	C	0.519605	0.212794	0.397078
H79	H	0.490670	0.216217	0.440899
H80	H	0.560186	0.180302	0.405351
H81	H	0.489886	0.194139	0.357853
C82	C	1.112030	0.911366	0.503171
H83	H	1.155874	0.940275	0.499862
H84	H	1.120215	0.870755	0.535645
H85	H	1.072784	0.941095	0.521771
C86	C	1.218287	0.803330	0.397012
H87	H	1.231079	0.820188	0.445199
H88	H	1.253666	0.820963	0.362287
H89	H	1.217835	0.750705	0.396413
C90	C	0.627686	0.319164	0.503121
H91	H	0.610828	0.271006	0.516018
H92	H	0.610064	0.353966	0.538434
H93	H	0.680310	0.319753	0.502651
H94	H	0.981678	0.449342	0.811961
C95	C	0.966788	0.803573	0.464081
H96	H	0.918695	0.820538	0.451018
H97	H	0.979173	0.821179	0.512101
H98	H	0.967464	0.750948	0.463996
C99	C	1.179732	0.251456	0.912102
H100	H	1.227803	0.264472	0.895106
H101	H	1.167278	0.203484	0.894434
H102	H	1.179153	0.251460	0.964729
H103	H	1.106690	0.482794	0.904739
C104	C	1.034266	0.803713	0.212719
H105	H	1.034341	0.751083	0.213193
H106	H	1.069316	0.820987	0.177484
H107	H	0.986306	0.821088	0.199711
C108	C	1.179588	0.911203	0.251689
H109	H	1.166609	0.894231	0.203592
H110	H	1.227549	0.893492	0.264214
H111	H	1.179590	0.963830	0.252284
H112	H	1.039807	0.232736	0.811899
H113	H	0.948246	0.324232	0.904701
