data_functionalizedCrystal
_audit_creation_method	'MofGen! by Chris Wilmer'
_symmetry_space_group_name_H-M	'P1'
_symmetry_Int_Tables_number	1
_symmetry_cell_setting	triclinic
loop_
_symmetry_equiv_pos_as_xyz
  x,y,z
_cell_length_a	12.594517
_cell_length_b	12.594516
_cell_length_c	12.594509
_cell_angle_alpha	89.973801
_cell_angle_beta	89.978673
_cell_angle_gamma	90.015853
loop_
_atom_site_label
_atom_site_type_symbol
_atom_site_fract_x
_atom_site_fract_y
_atom_site_fract_z
Zn1	Zn	1.627267	-0.423716	-0.601875
Zn2	Zn	1.627158	-0.601726	-0.423903
Zn3	Zn	1.449271	-0.423761	-0.423904
Zn4	Zn	1.449253	-0.601652	-0.601833
O5	O	1.538237	-0.512714	-0.512879
O6	O	1.776198	-0.447341	-0.578284
O7	O	1.603522	-0.578169	-0.274957
O8	O	1.472936	-0.274809	-0.447530
O9	O	1.776118	-0.578124	-0.447528
O10	O	1.603709	-0.274776	-0.578285
O11	O	1.472830	-0.447419	-0.274958
O12	O	1.300323	-0.447347	-0.447489
O13	O	1.472905	-0.577998	-0.750784
O14	O	1.300310	-0.578042	-0.578213
O15	O	1.603691	-0.447269	-0.750815
O16	O	1.603505	-0.750662	-0.447488
O17	O	1.472799	-0.750608	-0.578212
C18	C	1.261696	-0.512692	-0.512847
C19	C	1.143391	-0.512709	-0.512859
C20	C	1.074114	-0.441526	-0.441894
C21	C	1.003303	-0.538615	-0.415718
C22	C	1.003403	-0.415668	-0.539054
C23	C	1.074138	-0.609849	-0.486632
C24	C	1.074244	-0.486836	-0.610013
C25	C	1.003465	-0.583991	-0.583874
C26	C	1.538167	-0.789255	-0.512868
C27	C	1.538235	-0.907560	-0.512899
C28	C	1.467137	-0.976822	-0.583950
C29	C	1.441204	-1.047688	-0.486827
C30	C	1.564265	-1.047494	-0.610039
C31	C	1.512250	-0.976867	-0.415725
C32	C	1.635357	-0.976667	-0.539002
C33	C	1.609460	-1.047500	-0.441812
C34	C	1.815858	-0.512736	-0.512911
C35	C	1.934163	-0.512745	-0.512924
C36	C	1.538308	-0.512620	-0.790500
C37	C	1.538339	-0.512581	-0.908805
C38	C	1.538336	-0.235093	-0.512912
C39	C	1.538378	-0.116787	-0.512927
C40	C	1.467227	-0.583644	-0.978042
C41	C	1.564347	-0.609650	-1.048833
C42	C	1.441294	-0.486510	-1.048813
C43	C	1.635510	-0.538638	-0.978038
C44	C	1.512391	-0.415453	-0.978012
C45	C	1.609579	-0.441422	-1.048772
C46	C	1.538227	-0.512730	-0.236338
C47	C	1.538403	-0.512470	-0.118033
H48	H	0.972639	-0.644273	-0.643914
H49	H	1.105429	-0.464899	-0.692122
O50	O	0.966460	-0.317667	-0.565337
C51	C	1.002434	-0.242865	-0.490255
H52	H	1.076931	-0.274339	-0.449635
H53	H	1.021545	-0.164887	-0.532108
H54	H	0.937916	-0.228881	-0.428309
O55	O	1.343305	-1.085036	-0.460639
C56	C	1.303869	-1.148145	-0.544237
H57	H	1.372965	-1.179087	-0.593847
H58	H	1.257558	-1.218027	-0.510032
H59	H	1.249196	-1.098355	-0.596431
O60	O	1.590422	-0.707572	-1.086082
C61	C	1.506797	-0.746959	-1.149198
H62	H	1.457292	-0.677833	-1.180225
H63	H	1.540969	-0.793304	-1.219023
H64	H	1.454509	-0.801589	-1.099386
H65	H	1.490382	-0.333385	-0.946881
O66	O	1.590656	-1.084454	-0.707997
C67	C	1.692263	-1.046693	-0.736065
H68	H	1.738399	-1.025729	-0.661090
H69	H	1.736707	-1.110854	-0.781875
H70	H	1.683847	-0.972965	-0.787928
H71	H	1.359198	-0.464506	-1.079902
H72	H	1.717406	-0.945451	-0.561104
O73	O	0.966167	-0.564894	-0.317758
C74	C	1.003666	-0.666542	-0.289588
H75	H	1.078811	-0.685017	-0.336553
H76	H	1.022201	-0.668413	-0.201016
H77	H	0.940309	-0.728392	-0.308414
H78	H	1.669647	-1.078338	-0.381669
O79	O	1.485759	-0.939968	-0.317772
C80	C	1.393007	-0.877745	-0.325166
H81	H	1.346727	-0.901277	-0.399285
H82	H	1.341596	-0.891389	-0.251899
H83	H	1.415695	-0.790257	-0.330290
O84	O	1.395659	-0.655587	-0.941033
C85	C	1.423440	-0.757824	-0.977145
H86	H	1.511733	-0.759830	-0.997004
H87	H	1.405643	-0.818578	-0.912411
H88	H	1.375410	-0.777738	-1.051218
O89	O	1.395142	-0.939839	-0.655408
C90	C	1.292928	-0.976055	-0.627510
H91	H	1.290983	-0.995964	-0.539224
H92	H	1.232154	-0.911364	-0.645198
H93	H	1.272994	-1.050119	-0.675548
H94	H	1.717631	-0.560736	-0.947080
H95	H	1.105135	-0.381389	-0.381807
O96	O	1.681515	-0.369661	-1.085414
C97	C	1.732278	-0.320184	-0.998801
H98	H	1.726652	-0.373675	-0.925973
H99	H	1.819327	-0.305781	-1.019059
H100	H	1.691905	-0.241088	-0.981334
O101	O	1.111219	-0.707726	-0.460087
C102	C	1.223161	-0.706520	-0.460357
H103	H	1.252464	-0.621683	-0.448649
H104	H	1.254022	-0.758681	-0.393121
H105	H	1.253517	-0.738221	-0.539517
