data_functionalizedCrystal
_audit_creation_method	'MofGen! by Chris Wilmer'
_symmetry_space_group_name_H-M	'P1'
_symmetry_Int_Tables_number	1
_symmetry_cell_setting	triclinic
loop_
_symmetry_equiv_pos_as_xyz
  x,y,z
_cell_length_a	17.038272
_cell_length_b	15.538191
_cell_length_c	14.185328
_cell_angle_alpha	71.747469
_cell_angle_beta	103.850378
_cell_angle_gamma	110.808175
loop_
_atom_site_label
_atom_site_type_symbol
_atom_site_fract_x
_atom_site_fract_y
_atom_site_fract_z
O1	O	-0.238108	-1.249896	0.083430
O2	O	-0.149838	-0.982712	0.083431
O3	O	-0.307339	-1.114714	0.083423
O4	O	-0.080607	-1.117894	0.083438
O5	O	-0.327699	-1.074941	-0.083422
O6	O	-0.170198	-0.942938	-0.083414
O7	O	-0.258468	-1.210123	-0.083415
Cu8	Cu	-0.216192	-1.072899	-0.098649
Cu9	Cu	-0.192114	-1.119936	0.098665
O10	O	-0.100967	-1.078121	-0.083406
C11	C	-0.150783	-0.928470	0.000008
C12	C	-0.123274	-0.826100	0.000009
C13	C	-0.345828	-1.091939	0.000000
C14	C	-0.430177	-1.083321	0.000001
N15	N	-0.233130	-1.039823	-0.237428
C16	C	-0.502729	-1.162444	-0.000001
C17	C	-0.581980	-1.154344	0.000009
C18	C	-0.588680	-1.067117	0.000012
C19	C	-0.516120	-0.987988	0.000017
C20	C	-0.436869	-0.996092	0.000014
C21	C	-0.826317	-1.038491	0.000026
C22	C	-0.905576	-1.030393	0.000026
C23	C	-0.971431	-1.196749	0.000020
C24	C	-0.892177	-1.204843	0.000011
C25	C	-0.819624	-1.125716	0.000021
C26	C	-0.669687	-1.058834	0.000019
C27	C	-0.738617	-1.134002	0.000021
C28	C	-0.062478	-1.100896	0.000018
C29	C	0.021872	-1.109516	0.000024
C30	C	-0.257523	-1.264366	0.000010
C31	C	-0.285031	-1.366736	0.000016
C32	C	-0.396569	-0.516407	0.000005
C33	C	-0.370701	-0.420215	0.000008
C34	C	-0.225197	-0.409435	0.000017
C35	C	-0.251054	-0.505627	0.000010
C36	C	-0.336741	-0.559106	0.000005
C37	C	-0.191225	-0.548326	0.000010
C38	C	-0.217080	-0.644511	0.000008
C39	C	-0.302763	-0.697997	0.000006
C40	C	-0.362595	-0.655291	0.000003
C41	C	-0.105538	-0.494847	0.000022
C42	C	-0.045709	-0.537546	0.000022
C43	C	-0.071565	-0.633731	0.000013
C44	C	-0.157247	-0.687217	0.000011
C45	C	-0.011732	-0.676437	0.000016
C46	C	-0.037587	-0.772621	0.000014
C47	C	-0.183102	-0.783402	0.000009
C48	C	-0.125377	-1.250124	-0.605024
C49	C	-0.138225	-1.225090	-0.710052
C50	C	-0.199305	-1.105950	-0.710044
C51	C	-0.186458	-1.130971	-0.605013
C52	C	-0.149495	-1.203060	-0.552512
C53	C	-0.210575	-1.083907	-0.552501
C54	C	-0.197733	-1.108930	-0.447480
C55	C	-0.160774	-1.181017	-0.394972
C56	C	-0.136653	-1.228083	-0.447491
C57	C	-0.247544	-1.011824	-0.605005
C58	C	-0.271661	-0.964759	-0.552493
C59	C	-0.258814	-0.989777	-0.447470
C60	C	-0.221855	-1.061864	-0.394961
C61	C	-0.282935	-0.942712	-0.394951
C62	C	-0.270093	-0.967735	-0.289930
C63	C	-0.209013	-1.086887	-0.289940
N64	N	-0.175184	-1.153019	0.237444
H65	H	-0.497284	-1.233472	-0.000010
H66	H	-0.377795	-0.931661	0.000016
C67	C	-0.312315	-0.885459	-0.610257
N68	N	-0.342932	-0.825726	-0.653763
C69	C	-0.746517	-0.951448	0.000042
N70	N	-0.686407	-0.885884	0.000057
H71	H	-1.030511	-1.261170	0.000014
C72	C	-0.731245	-1.229947	0.000012
N73	N	-0.725686	-1.302212	-0.000001
H74	H	-0.155430	-0.365881	0.000026
H75	H	-0.095267	-1.308816	-0.562274
H76	H	-0.313039	-0.884023	-0.437713
C77	C	-0.456857	-0.714123	-0.000008
N78	N	-0.527851	-0.758435	-0.000012
C79	C	-0.490831	-0.575239	-0.000005
N80	N	-0.561825	-0.619551	-0.000010
C81	C	-0.111701	-1.276879	-0.767812
N82	N	-0.091729	-1.315891	-0.811316
H83	H	0.024058	-0.493991	0.000030
H84	H	-0.178903	-1.145579	-0.247190
C85	C	-0.146646	-1.208542	-0.279444
N86	N	-0.136004	-1.229272	-0.192429
C87	C	-0.296621	-0.915959	-0.232163
N88	N	-0.316604	-0.876961	-0.188653
H89	H	-0.106543	-1.286774	-0.404741
C90	C	-0.261671	-0.984301	-0.720532
N91	N	-0.272310	-0.963571	-0.807547
H92	H	-0.252878	-0.826946	-0.000002
C93	C	-0.884816	-1.300799	0.000006
N94	N	-0.879274	-1.373073	-0.000002
H95	H	-0.641052	-1.218774	0.000006
H96	H	-0.911025	-0.959355	0.000012
C97	C	0.082522	-0.617598	0.000026
N98	N	0.153515	-0.573281	0.000033
H99	H	-0.229404	-1.047258	-0.752805
C100	C	-0.436524	-0.373251	0.000008
N101	N	-0.486101	-0.337878	0.000010
C102	C	0.028228	-0.819592	0.000011
N103	N	0.077801	-0.854971	0.000012
H104	H	-0.084490	-0.416528	0.000027
H105	H	-0.675151	-0.987813	0.000020
H106	H	-0.521579	-0.916968	0.000026
H107	H	-0.323811	-0.776320	0.000017
