data_functionalizedCrystal
_audit_creation_method	'MofGen! by Chris Wilmer'
_symmetry_space_group_name_H-M	'P1'
_symmetry_Int_Tables_number	1
_symmetry_cell_setting	triclinic
loop_
_symmetry_equiv_pos_as_xyz
  x,y,z
_cell_length_a	27.732048
_cell_length_b	27.732048
_cell_length_c	13.596369
_cell_angle_alpha	89.989067
_cell_angle_beta	90.000164
_cell_angle_gamma	82.642655
loop_
_atom_site_label
_atom_site_type_symbol
_atom_site_fract_x
_atom_site_fract_y
_atom_site_fract_z
O1	O	0.640928	0.057518	-0.081675
O2	O	0.500134	0.066263	-0.081706
O3	O	0.574904	-0.008506	-0.081671
O4	O	0.566158	0.132287	-0.081710
O5	O	0.574896	-0.008510	0.081912
O6	O	0.500127	0.066259	0.081877
O7	O	0.640920	0.057514	0.081908
Zn8	Zn	0.570522	0.061886	0.107864
Zn9	Zn	0.570532	0.061891	-0.107663
O10	O	0.566151	0.132283	0.081872
C11	C	0.482124	0.066078	0.000081
C12	C	0.428469	0.065525	0.000070
C13	C	0.574716	-0.026515	0.000123
C14	C	0.574164	-0.080170	0.000131
C15	C	0.089654	0.106229	0.000101
C16	C	-0.112006	0.104178	0.000111
O17	O	-0.143262	0.141398	0.000143
N18	N	-0.131130	0.059843	0.000121
C19	C	-0.099835	0.016017	0.000136
O20	O	-0.120728	-0.021740	0.000156
C21	C	0.101824	0.018068	0.000134
C22	C	0.120944	0.062407	0.000113
C23	C	0.108775	0.150563	0.000082
C24	C	0.159187	0.151075	0.000074
C25	C	0.190477	0.107253	0.000086
C26	C	0.171356	0.062919	0.000106
C27	C	0.133117	-0.025757	0.000156
C28	C	0.183535	-0.025240	0.000158
C29	C	0.202655	0.019098	0.000137
C30	C	0.253059	0.019609	0.000110
N31	N	0.272183	0.063944	0.000099
C32	C	0.240892	0.107766	0.000087
C33	C	-0.205709	0.014943	0.000136
C34	C	-0.256124	0.014430	0.000134
C35	C	-0.268291	0.102591	0.000111
C36	C	-0.217876	0.103104	0.000105
C37	C	-0.186585	0.059278	0.000125
C38	C	0.346761	0.108839	0.000070
C39	C	0.397178	0.109347	0.000058
C40	C	0.409341	0.021186	0.000087
C41	C	0.358929	0.020678	0.000094
C42	C	0.327639	0.064508	0.000089
O43	O	0.284343	-0.017592	0.000089
O44	O	0.261794	0.145518	0.000090
C45	C	0.039242	0.105716	0.000109
C46	C	0.020120	0.061382	0.000129
C47	C	0.051411	0.017560	0.000141
C48	C	-0.030294	0.060869	0.000128
C49	C	-0.061585	0.104691	0.000116
C50	C	-0.042461	0.149026	0.000105
C51	C	0.007951	0.149539	0.000097
C52	C	0.032287	-0.026775	0.000151
C53	C	-0.018125	-0.027284	0.000158
C54	C	-0.049416	0.016538	0.000146
C55	C	0.614867	-0.418985	0.000090
C56	C	0.612816	-0.620645	0.000075
O57	O	0.650037	-0.651900	0.000041
N58	N	0.568481	-0.639768	0.000067
C59	C	0.524656	-0.608474	0.000055
O60	O	0.486899	-0.629367	0.000037
C61	C	0.526707	-0.406815	0.000062
C62	C	0.571045	-0.387694	0.000081
C63	C	0.659202	-0.399864	0.000107
C64	C	0.659714	-0.349452	0.000116
C65	C	0.615892	-0.318161	0.000107
C66	C	0.571557	-0.337282	0.000090
C67	C	0.482882	-0.375521	0.000043
C68	C	0.483399	-0.325104	0.000042
C69	C	0.527737	-0.305983	0.000061
C70	C	0.528247	-0.255580	0.000090
N71	N	0.572583	-0.236456	0.000099
C72	C	0.616405	-0.267747	0.000107
C73	C	0.523582	-0.714348	0.000053
C74	C	0.523069	-0.764762	0.000053
C75	C	0.611230	-0.776930	0.000072
C76	C	0.611742	-0.726514	0.000079
C77	C	0.567917	-0.695224	0.000062
C78	C	0.617477	-0.161878	0.000127
C79	C	0.617986	-0.111461	0.000140
C80	C	0.529825	-0.099298	0.000116
C81	C	0.529316	-0.149710	0.000108
C82	C	0.573147	-0.180999	0.000110
O83	O	0.491047	-0.224296	0.000113
O84	O	0.654156	-0.246844	0.000104
C85	C	0.614355	-0.469397	0.000081
C86	C	0.570021	-0.488518	0.000063
C87	C	0.526198	-0.457228	0.000054
C88	C	0.569508	-0.538933	0.000063
C89	C	0.613330	-0.570223	0.000072
C90	C	0.657665	-0.551100	0.000081
C91	C	0.658177	-0.500688	0.000090
C92	C	0.481863	-0.476351	0.000045
C93	C	0.481355	-0.526764	0.000037
C94	C	0.525177	-0.558054	0.000046
C95	C	0.658931	0.057699	0.000118
C96	C	0.712586	0.058252	0.000123
C97	C	0.566338	0.150292	0.000076
C98	C	0.566891	0.203947	0.000062
N99	N	0.570519	0.061882	0.254956
N100	N	0.570539	0.061891	-0.254755
C101	C	0.570531	0.061892	0.656247
C102	C	0.570527	0.061891	0.544596
C103	C	0.570526	0.061887	0.455605
C104	C	0.570520	0.061886	0.343947
H105	H	0.321291	0.144530	0.000069
O106	O	0.701290	-0.482198	0.000057
C107	C	0.739853	-0.520634	0.000088
H108	H	0.726560	-0.554781	-0.030886
H109	H	0.770835	-0.510325	-0.047398
H110	H	0.753349	-0.527877	0.078569
H111	H	-0.202311	0.139207	0.000094
H112	H	0.174750	0.187180	0.000057
O113	O	0.415670	0.152462	0.000085
C114	C	0.377238	0.191029	0.000055
H115	H	0.343087	0.177738	0.031033
H116	H	0.387548	0.222006	0.047537
H117	H	0.370001	0.204530	-0.078427
H118	H	0.446177	-0.450879	0.000036
H119	H	0.117558	-0.061861	0.000173
H120	H	0.434827	-0.014492	0.000093
O121	O	0.078452	0.193180	0.000023
C122	C	0.106150	0.232414	0.000033
H123	H	0.143871	0.219848	-0.030926
H124	H	0.087336	0.263097	-0.047477
H125	H	0.109641	0.246023	0.078506
O126	O	0.661070	-0.092911	-0.000020
C127	C	0.687768	-0.108933	-0.084726
H128	H	0.661837	-0.119222	-0.143948
H129	H	0.708103	-0.078537	-0.113155
H130	H	0.714953	-0.141995	-0.065571
O131	O	0.026441	0.192652	0.000127
C132	C	-0.011996	0.231215	0.000094
H133	H	-0.046146	0.217919	0.031068
H134	H	-0.001691	0.262193	0.047578
H135	H	-0.019232	0.244715	-0.078388
H136	H	-0.293777	0.138273	0.000101
H137	H	0.487892	-0.688875	0.000039
H138	H	0.447710	-0.299629	0.000027
H139	H	0.486964	-0.780325	0.000055
O140	O	-0.274614	-0.028683	0.000186
C141	C	-0.236179	-0.067248	0.000174
H142	H	-0.202028	-0.053956	0.031139
H143	H	-0.246486	-0.098227	0.047677
H144	H	-0.228946	-0.080745	-0.078301
O145	O	0.213861	-0.067857	0.000128
C146	C	0.186168	-0.107096	0.000171
H147	H	0.148446	-0.094536	-0.030797
H148	H	0.204986	-0.137778	-0.047315
H149	H	0.182680	-0.120705	0.078655
H150	H	0.343360	-0.015426	0.000096
O151	O	0.653831	-0.807281	-0.000057
C152	C	0.680766	-0.798665	-0.084792
H153	H	0.668608	-0.760326	-0.113032
H154	H	0.721109	-0.802515	-0.065741
H155	H	0.674360	-0.826187	-0.144119
O156	O	0.486205	-0.168206	0.000050
C157	C	0.447637	-0.129775	0.000072
H158	H	0.460929	-0.095616	-0.030876
H159	H	0.416663	-0.140076	-0.047439
H160	H	0.434131	-0.122557	0.078548
O161	O	-0.072911	0.191564	-0.000037
C162	C	-0.102431	0.193910	-0.084767
H163	H	-0.104695	0.155562	-0.113004
H164	H	-0.140460	0.212199	-0.065711
H165	H	-0.086011	0.215867	-0.144099
O166	O	-0.036754	-0.070327	0.000305
C167	C	-0.065536	-0.073268	0.085047
H168	H	-0.078374	-0.035074	0.113277
H169	H	-0.098411	-0.092289	0.066010
H170	H	-0.043098	-0.094820	0.144377
H171	H	0.057760	-0.062462	0.000163
H172	H	-0.180236	-0.020747	0.000152
O173	O	0.700222	-0.581520	-0.000088
C174	C	0.702554	-0.611042	-0.084801
H175	H	0.677697	-0.592385	-0.144016
H176	H	0.741534	-0.616999	-0.113236
H177	H	0.690316	-0.647616	-0.065655
O178	O	0.660022	-0.192316	0.000265
C179	C	0.662367	-0.221843	0.084996
H180	H	0.624018	-0.224123	0.113226
H181	H	0.680671	-0.259865	0.065945
H182	H	0.684309	-0.205418	0.144331
H183	H	0.695819	-0.333889	0.000128
O184	O	0.701819	-0.430187	0.000163
C185	C	0.741053	-0.402488	0.000152
H186	H	0.728485	-0.364771	0.031113
H187	H	0.771733	-0.421307	0.047660
H188	H	0.754667	-0.398990	-0.078321
O189	O	0.439769	-0.394007	-0.000024
C190	C	0.401207	-0.355569	-0.000013
H191	H	0.414506	-0.321416	-0.030971
H192	H	0.370232	-0.365867	-0.047523
H193	H	0.387701	-0.348343	0.078460
H194	H	0.647846	-0.710950	0.000093
O195	O	0.487302	-0.068828	0.000062
C196	C	0.497268	-0.020233	0.000093
H197	H	0.535224	-0.018580	-0.030859
H198	H	0.469319	0.002821	-0.047411
H199	H	0.495318	-0.005645	0.078572
H200	H	0.445246	-0.542327	0.000030
