data_functionalizedCrystal
_audit_creation_method	'MofGen! by Chris Wilmer'
_symmetry_space_group_name_H-M	'P1'
_symmetry_Int_Tables_number	1
_symmetry_cell_setting	triclinic
loop_
_symmetry_equiv_pos_as_xyz
  x,y,z
_cell_length_a	12.827893
_cell_length_b	13.897447
_cell_length_c	12.827885
_cell_angle_alpha	90.031004
_cell_angle_beta	90.019272
_cell_angle_gamma	90.019501
loop_
_atom_site_label
_atom_site_type_symbol
_atom_site_fract_x
_atom_site_fract_y
_atom_site_fract_z
Zn1	Zn	1.597640	-0.383969	0.590840
Zn2	Zn	1.930973	-0.050636	0.924173
Zn3	Zn	2.264306	0.282698	1.257506
Zn4	Zn	1.597521	-0.545295	0.416096
Zn5	Zn	1.930854	-0.211962	0.749430
Zn6	Zn	2.264188	0.121371	1.082763
Zn7	Zn	1.422881	-0.384016	0.416113
Zn8	Zn	1.756214	-0.050683	0.749447
Zn9	Zn	2.089548	0.282651	1.082780
Zn10	Zn	1.422854	-0.545224	0.590796
Zn11	Zn	1.756187	-0.211890	0.924130
Zn12	Zn	2.089520	0.121443	1.257463
O13	O	1.510224	-0.464626	0.503462
O14	O	1.843557	-0.131293	0.836795
O15	O	2.176890	0.202041	1.170128
O16	O	1.743860	-0.405380	0.567671
O17	O	2.077193	-0.072046	0.901004
O18	O	2.410527	0.261287	1.234337
O19	O	1.574316	-0.523951	0.269863
O20	O	1.907650	-0.190618	0.603196
O21	O	2.240983	0.142716	0.936529
O22	O	1.446124	-0.249028	0.439317
O23	O	1.779457	0.084305	0.772650
O24	O	2.112791	0.417639	1.105983
O25	O	1.743773	-0.523905	0.439288
O26	O	2.077106	-0.190572	0.772621
O27	O	2.410439	0.142761	1.105954
O28	O	1.574518	-0.248994	0.567687
O29	O	1.907852	0.084340	0.901021
O30	O	2.241185	0.417673	1.234354
O31	O	1.446009	-0.405460	0.269875
O32	O	1.779342	-0.072126	0.603208
O33	O	2.112676	0.261207	0.936542
O34	O	1.276641	-0.405390	0.439274
O35	O	1.609975	-0.072057	0.772608
O36	O	1.943308	0.261277	1.105941
O37	O	1.446077	-0.523783	0.737038
O38	O	1.779411	-0.190450	1.070372
O39	O	2.112744	0.142884	1.403705
O40	O	1.276621	-0.523829	0.567613
O41	O	1.609955	-0.190495	0.900947
O42	O	1.943288	0.142838	1.234280
O43	O	1.574492	-0.405310	0.737070
O44	O	1.907825	-0.071977	1.070404
O45	O	2.241159	0.261357	1.403737
O46	O	1.574290	-0.680267	0.439245
O47	O	1.907623	-0.346934	0.772579
O48	O	2.240957	-0.013601	1.105912
O49	O	1.445963	-0.680215	0.567597
O50	O	1.779296	-0.346881	0.900930
O51	O	2.112629	-0.013548	1.234263
C52	C	1.238714	-0.464607	0.503442
C53	C	1.572047	-0.131274	0.836775
C54	C	1.905381	0.202059	1.170108
C55	C	1.122561	-0.464623	0.503458
C56	C	1.455894	-0.131289	0.836791
C57	C	1.789227	0.202044	1.170125
C58	C	1.070794	-0.523321	0.566866
C59	C	1.404127	-0.189988	0.900199
C60	C	1.737460	0.143345	1.233533
C61	C	0.950743	-0.523338	0.566884
C62	C	1.284077	-0.190005	0.900218
C63	C	1.617410	0.143328	1.233551
C64	C	1.510139	-0.715240	0.503437
C65	C	1.843472	-0.381907	0.836771
C66	C	2.176805	-0.048574	1.170104
C67	C	1.510198	-0.822454	0.503462
C68	C	1.843531	-0.489121	0.836795
C69	C	2.176865	-0.155788	1.170129
C70	C	1.510249	-0.909524	0.503486
C71	C	1.843582	-0.576191	0.836819
C72	C	2.176915	-0.242857	1.170152
C73	C	1.510322	-1.018756	0.503513
C74	C	1.843655	-0.685423	0.836846
C75	C	2.176989	-0.352090	1.170179
C76	C	1.782794	-0.464645	0.503482
C77	C	2.116127	-0.131312	0.836815
C78	C	2.449461	0.202021	1.170149
C79	C	1.898947	-0.464654	0.503491
C80	C	2.232280	-0.131320	0.836824
C81	C	2.565614	0.202013	1.170158
C82	C	1.510295	-0.464533	0.776032
C83	C	1.843628	-0.131200	1.109365
C84	C	2.176962	0.202133	1.442698
C85	C	1.510325	-0.464494	0.892185
C86	C	1.843659	-0.131161	1.225518
C87	C	2.176992	0.202173	1.558852
C88	C	1.510338	-0.213033	0.503509
C89	C	1.843671	0.120300	0.836842
C90	C	2.177004	0.453634	1.170175
C91	C	1.510386	-0.105819	0.503529
C92	C	1.843719	0.227514	0.836862
C93	C	2.177053	0.560848	1.170195
C94	C	1.510213	-0.464649	0.231952
C95	C	1.843546	-0.131315	0.565285
C96	C	2.176880	0.202018	0.898618
C97	C	1.510385	-0.464416	0.115799
C98	C	1.843719	-0.131083	0.449132
C99	C	2.177052	0.202250	0.782466
C100	C	1.573876	-0.405858	0.943986
C101	C	1.907209	-0.072525	1.277319
C102	C	2.240542	0.260809	1.610652
C103	C	1.573908	-0.405816	1.064036
C104	C	1.907242	-0.072483	1.397369
C105	C	2.240575	0.260851	1.730703
H106	H	1.078004	-0.414377	0.449190
H107	H	1.411337	-0.081044	0.782523
H108	H	1.744670	0.252289	1.115856
H109	H	1.455978	-0.514623	1.071259
H110	H	1.789312	-0.181289	1.404592
H111	H	2.122645	0.152044	1.737925
Cl112	Cl	1.657818	-0.328373	0.875246
Cl113	Cl	1.991152	0.004961	1.208579
Cl114	Cl	2.324485	0.338294	1.541913
Cl115	Cl	0.882016	-0.600937	0.650697
Cl116	Cl	1.215350	-0.267603	0.984030
Cl117	Cl	1.548683	0.065730	1.317363
H118	H	1.455935	-0.514656	0.936713
H119	H	1.789268	-0.181323	1.270047
H120	H	2.122602	0.152010	1.603380
Cl121	Cl	1.657920	-0.328312	1.132807
Cl122	Cl	1.991254	0.005022	1.466141
Cl123	Cl	2.324587	0.338355	1.799474
H124	H	1.115351	-0.573559	0.621142
H125	H	1.448684	-0.240226	0.954476
H126	H	1.782017	0.093107	1.287809
Cl127	Cl	0.967667	-0.387063	0.419664
Cl128	Cl	1.301001	-0.053730	0.752997
Cl129	Cl	1.634334	0.279603	1.086331
