data_functionalizedCrystal
_audit_creation_method	'MofGen! by Chris Wilmer'
_symmetry_space_group_name_H-M	'P1'
_symmetry_Int_Tables_number	1
_symmetry_cell_setting	triclinic
loop_
_symmetry_equiv_pos_as_xyz
  x,y,z
_cell_length_a	19.077236
_cell_length_b	17.639999
_cell_length_c	19.076919
_cell_angle_alpha	98.510009
_cell_angle_beta	89.887323
_cell_angle_gamma	99.390170
loop_
_atom_site_label
_atom_site_type_symbol
_atom_site_fract_x
_atom_site_fract_y
_atom_site_fract_z
Zn1	Zn	1.111104	0.282338	-0.391901
Zn2	Zn	1.139059	0.406983	-0.252921
Zn3	Zn	0.998243	0.281930	-0.269752
Zn4	Zn	1.018820	0.417360	-0.363872
O5	O	1.066807	0.347153	-0.319611
O6	O	1.212366	0.294700	-0.378152
O7	O	1.123468	0.385882	-0.157600
O8	O	0.992904	0.173142	-0.304729
O9	O	1.232904	0.386277	-0.276044
O10	O	1.075822	0.173441	-0.394472
O11	O	1.020011	0.294005	-0.169966
O12	O	0.903419	0.304067	-0.277550
O13	O	1.027973	0.403962	-0.465143
O14	O	0.918537	0.403567	-0.346699
O15	O	1.095774	0.304762	-0.485736
O16	O	1.143420	0.517202	-0.248865
O17	O	1.055081	0.524826	-0.330380
C18	C	0.885684	0.354899	-0.310910
C19	C	0.808202	0.358233	-0.307200
C20	C	0.761120	0.312202	-0.358675
C21	C	0.688317	0.315330	-0.355184
C22	C	0.662597	0.364494	-0.300221
C23	C	0.709684	0.410526	-0.248742
C24	C	0.782485	0.407393	-0.252231
C25	C	0.446010	0.378963	-0.284079
C26	C	0.373203	0.382094	-0.280596
C27	C	0.351841	0.286896	-0.387037
C28	C	0.424645	0.283771	-0.390523
C29	C	0.471725	0.329801	-0.339042
N30	N	0.588181	0.367694	-0.296653
N31	N	0.546139	0.326596	-0.342608
C32	C	1.104535	0.549236	-0.284770
C33	C	1.120739	0.635686	-0.269891
C34	C	0.943880	0.939989	-0.432891
C35	C	0.959108	1.021221	-0.418888
C36	C	1.051148	1.013219	-0.334099
C37	C	1.035930	0.931985	-0.348097
C38	C	0.982295	0.895376	-0.397493
C39	C	1.074346	0.887372	-0.312700
C40	C	1.059126	0.806145	-0.326695
C41	C	1.005492	0.769530	-0.376087
C42	C	0.967076	0.814149	-0.411488
C43	C	1.127977	0.923982	-0.263301
C44	C	1.166393	0.879369	-0.227904
C45	C	1.151177	0.798140	-0.241902
C46	C	1.097543	0.761526	-0.291294
C47	C	1.189593	0.753521	-0.206501
C48	C	1.174374	0.672294	-0.220496
C49	C	1.082324	0.680299	-0.305289
C50	C	1.248637	0.339377	-0.328347
C51	C	1.326122	0.336063	-0.332070
C52	C	1.061051	0.355565	-0.501441
C53	C	1.058598	0.359150	-0.578927
C54	C	1.028927	1.144282	-0.354601
C55	C	1.012730	1.057832	-0.369500
C56	C	1.092744	0.309188	-0.626052
C57	C	1.090430	0.312554	-0.698857
C58	C	1.053974	0.365886	-0.724536
C59	C	1.019824	0.415850	-0.677405
C60	C	1.022134	0.412479	-0.604601
C61	C	1.043276	0.381499	-0.941125
C62	C	1.040971	0.384867	-1.013935
C63	C	1.111576	0.281570	-1.035382
C64	C	1.113887	0.278208	-0.962576
C65	C	1.079733	0.328169	-0.915452
N66	N	1.051610	0.369329	-0.798954
N67	N	1.082093	0.324722	-0.841035
C68	C	1.072570	0.338715	-0.138500
C69	C	1.075117	0.334906	-0.061060
H70	H	0.820819	0.444876	-0.210315
F71	F	0.886800	0.901023	-0.485470
H72	H	1.094816	1.043037	-0.293879
H73	H	1.139381	0.240894	-1.073758
F74	F	0.452012	0.231449	-0.449025
F75	F	0.496105	0.427938	-0.229278
H76	H	0.923405	0.784341	-0.451717
F77	F	0.918210	1.068699	-0.456560
F78	F	1.223474	0.918339	-0.175335
H79	H	0.688737	0.450552	-0.203988
H80	H	1.140369	0.990122	-0.251910
F81	F	0.985788	0.465654	-0.554447
H82	H	1.122433	0.265762	-0.605150
F83	F	1.215255	0.624811	-0.182816
H84	H	1.118237	0.271872	-0.737224
H85	H	0.649985	0.277848	-0.397101
H86	H	0.313501	0.249421	-0.428950
F87	F	0.345836	0.434438	-0.222105
F88	F	1.246670	0.792493	-0.153928
H89	H	1.038653	0.650491	-0.345517
F90	F	0.989416	0.683080	-0.391114
H91	H	1.011282	0.428298	-1.034838
F92	F	0.981021	0.472607	-0.704736
H93	H	1.143575	0.234782	-0.941674
H94	H	1.015478	0.422192	-0.902764
F95	F	0.788486	0.259879	-0.417176
