data_functionalizedCrystal
_audit_creation_method	'MofGen! by Chris Wilmer'
_symmetry_space_group_name_H-M	'P1'
_symmetry_Int_Tables_number	1
_symmetry_cell_setting	triclinic
loop_
_symmetry_equiv_pos_as_xyz
  x,y,z
_cell_length_a	14.044220
_cell_length_b	14.044220
_cell_length_c	13.596369
_cell_angle_alpha	89.993157
_cell_angle_beta	89.999747
_cell_angle_gamma	93.188878
loop_
_atom_site_label
_atom_site_type_symbol
_atom_site_fract_x
_atom_site_fract_y
_atom_site_fract_z
O1	O	1.277169	0.230169	-0.081691
O2	O	1.527169	0.480169	0.168309
O3	O	1.777169	0.730169	0.418309
O4	O	2.027169	0.980169	0.668309
O5	O	1.000498	0.221864	-0.081715
O6	O	1.250498	0.471864	0.168285
O7	O	1.500498	0.721864	0.418285
O8	O	1.750498	0.971864	0.668285
O9	O	1.134680	0.087681	-0.081694
O10	O	1.384680	0.337681	0.168306
O11	O	1.634680	0.587681	0.418306
O12	O	1.884680	0.837681	0.668306
O13	O	1.142986	0.364352	-0.081712
O14	O	1.392986	0.614352	0.168288
O15	O	1.642986	0.864352	0.418288
O16	O	1.892986	1.114352	0.668288
O17	O	1.134665	0.087672	0.081889
O18	O	1.384665	0.337672	0.331889
O19	O	1.634665	0.587672	0.581889
O20	O	1.884665	0.837672	0.831889
O21	O	1.000482	0.221855	0.081867
O22	O	1.250482	0.471855	0.331867
O23	O	1.500482	0.721855	0.581867
O24	O	1.750482	0.971855	0.831867
O25	O	1.277154	0.230160	0.081892
O26	O	1.527154	0.480160	0.331892
O27	O	1.777154	0.730160	0.581892
O28	O	2.027154	0.980160	0.831892
Zn29	Zn	1.138816	0.226006	0.107852
Zn30	Zn	1.388816	0.476006	0.357852
Zn31	Zn	1.638816	0.726006	0.607852
Zn32	Zn	1.888816	0.976006	0.857852
Zn33	Zn	1.138836	0.226018	-0.107675
Zn34	Zn	1.388836	0.476018	0.142325
Zn35	Zn	1.638836	0.726018	0.392325
Zn36	Zn	1.888836	0.976018	0.642325
O37	O	1.142971	0.364343	0.081870
O38	O	1.392971	0.614343	0.331870
O39	O	1.642971	0.864343	0.581870
O40	O	1.892971	1.114343	0.831870
C41	C	0.964868	0.218223	0.000073
C42	C	1.214868	0.468223	0.250073
C43	C	1.464868	0.718223	0.500073
C44	C	1.714868	0.968223	0.750073
C45	C	0.858725	0.207379	0.000064
C46	C	1.108725	0.457379	0.250064
C47	C	1.358725	0.707379	0.500064
C48	C	1.608725	0.957379	0.750064
C49	C	0.664388	0.187553	0.000085
C50	C	0.914388	0.437553	0.250085
C51	C	1.164388	0.687553	0.500085
C52	C	1.414388	0.937553	0.750085
C53	C	0.613258	0.264467	0.000084
C54	C	0.863258	0.514467	0.250084
C55	C	1.113258	0.764467	0.500084
C56	C	1.363258	1.014467	0.750084
C57	C	0.505122	0.253435	0.000095
C58	C	0.755122	0.503435	0.250095
C59	C	1.005122	0.753435	0.500095
C60	C	1.255122	1.003435	0.750095
C61	C	0.772534	0.198583	0.000073
C62	C	1.022534	0.448583	0.250073
C63	C	1.272534	0.698583	0.500073
C64	C	1.522534	0.948583	0.750073
C65	C	1.131037	0.052054	0.000098
C66	C	1.381037	0.302054	0.250098
C67	C	1.631037	0.552054	0.500098
C68	C	1.881037	0.802054	0.750098
C69	C	1.120193	-0.054088	0.000098
C70	C	1.370193	0.195912	0.250098
C71	C	1.620193	0.445912	0.500098
C72	C	1.870193	0.695912	0.750098
C73	C	1.100366	-0.248426	0.000082
C74	C	1.350366	0.001574	0.250082
C75	C	1.600366	0.251574	0.500082
C76	C	1.850366	0.501574	0.750082
C77	C	1.177281	-0.299556	0.000086
C78	C	1.427281	-0.049556	0.250086
C79	C	1.677281	0.200444	0.500086
C80	C	1.927281	0.450444	0.750086
C81	C	1.166249	-0.407692	0.000077
C82	C	1.416249	-0.157692	0.250077
C83	C	1.666249	0.092308	0.500077
C84	C	1.916249	0.342308	0.750077
C85	C	1.111397	-0.140280	0.000091
C86	C	1.361397	0.109720	0.250091
C87	C	1.611397	0.359720	0.500091
C88	C	1.861397	0.609720	0.750091
C89	C	1.312783	0.233800	0.000102
C90	C	1.562783	0.483800	0.250102
C91	C	1.812783	0.733800	0.500102
C92	C	2.062783	0.983800	0.750102
C93	C	1.418926	0.244645	0.000104
C94	C	1.668926	0.494645	0.250104
C95	C	1.918926	0.744645	0.500104
C96	C	2.168926	0.994645	0.750104
C97	C	1.146614	0.399969	0.000077
C98	C	1.396614	0.649969	0.250077
C99	C	1.646614	0.899969	0.500077
C100	C	1.896614	1.149969	0.750077
C101	C	1.157459	0.506112	0.000070
C102	C	1.407459	0.756112	0.250070
C103	C	1.657459	1.006112	0.500070
C104	C	1.907459	1.256112	0.750070
N105	N	1.138809	0.225998	0.254944
N106	N	1.388809	0.475998	0.504944
N107	N	1.638809	0.725998	0.754944
N108	N	1.888809	0.975998	1.004944
N109	N	1.138849	0.226019	-0.254767
N110	N	1.388849	0.476019	-0.004767
N111	N	1.638849	0.726019	0.245233
N112	N	1.888849	0.976019	0.495233
C113	C	1.138835	0.226019	0.656235
C114	C	1.388835	0.476019	0.906235
C115	C	1.638835	0.726019	1.156235
C116	C	1.888835	0.976019	1.406235
C117	C	1.138825	0.226016	0.544584
C118	C	1.388825	0.476016	0.794584
C119	C	1.638825	0.726016	1.044584
C120	C	1.888825	0.976016	1.294584
C121	C	1.138822	0.226009	0.455593
C122	C	1.388822	0.476009	0.705593
C123	C	1.638822	0.726009	0.955593
C124	C	1.888822	0.976009	1.205593
C125	C	1.138811	0.226005	0.343935
C126	C	1.388811	0.476005	0.593935
C127	C	1.638811	0.726005	0.843935
C128	C	1.888811	0.976005	1.093935
H129	H	0.650697	0.338600	0.000074
H130	H	0.900697	0.588600	0.250074
H131	H	1.150697	0.838600	0.500074
H132	H	1.400697	1.088600	0.750074
H133	H	0.626951	0.113425	0.000095
H134	H	0.876951	0.363425	0.250095
H135	H	1.126951	0.613425	0.500095
H136	H	1.376951	0.863425	0.750095
H137	H	1.251414	-0.262117	0.000027
H138	H	1.501414	-0.012117	0.250027
H139	H	1.751414	0.237883	0.500027
H140	H	2.001414	0.487883	0.750027
H141	H	1.026239	-0.285863	0.000073
H142	H	1.276239	-0.035863	0.250073
H143	H	1.526239	0.214137	0.500073
H144	H	1.776239	0.464137	0.750073
