data_functionalizedCrystal
_audit_creation_method	'MofGen! by Chris Wilmer'
_symmetry_space_group_name_H-M	'P1'
_symmetry_Int_Tables_number	1
_symmetry_cell_setting	triclinic
loop_
_symmetry_equiv_pos_as_xyz
  x,y,z
_cell_length_a	16.959455
_cell_length_b	19.121063
_cell_length_c	16.959447
_cell_angle_alpha	87.593376
_cell_angle_beta	90.014322
_cell_angle_gamma	92.465894
loop_
_atom_site_label
_atom_site_type_symbol
_atom_site_fract_x
_atom_site_fract_y
_atom_site_fract_z
Zn1	Zn	1.194915	-0.279656	0.460312
Zn2	Zn	1.189180	-0.397117	0.333763
Zn3	Zn	1.062742	-0.279678	0.328150
Zn4	Zn	1.057053	-0.397064	0.465899
O5	O	1.125973	-0.338379	0.397031
O6	O	1.304764	-0.295250	0.443535
O7	O	1.172389	-0.381570	0.222409
O8	O	1.085056	-0.181391	0.340995
O9	O	1.300551	-0.381548	0.350560
O10	O	1.182163	-0.181375	0.438093
O11	O	1.079495	-0.295288	0.218285
O12	O	0.951377	-0.295237	0.346412
O13	O	1.075360	-0.381459	0.575767
O14	O	0.947198	-0.381480	0.447615
O15	O	1.176646	-0.295199	0.571662
O16	O	1.166873	-0.495394	0.355978
O17	O	1.069800	-0.495356	0.453058
C18	C	0.920608	-0.338356	0.397012
C19	C	0.832751	-0.338363	0.397023
C20	C	0.463428	-0.293435	0.344438
C21	C	0.459118	-0.383380	0.449672
C22	C	0.541664	-0.383370	0.449666
C23	C	0.585096	-0.338393	0.397045
C24	C	0.545982	-0.293425	0.344430
C25	C	0.580784	-0.428342	0.502276
C26	C	0.663336	-0.428334	0.502272
C27	C	0.706770	-0.383353	0.449654
C28	C	0.667650	-0.338383	0.397037
C29	C	0.711082	-0.293405	0.344416
C30	C	0.671965	-0.248431	0.291802
C31	C	0.589416	-0.248444	0.291812
C32	C	0.789319	-0.383340	0.449644
C33	C	0.793636	-0.293395	0.344407
C34	C	1.117118	-0.520859	0.405750
C35	C	1.113402	-0.598924	0.409507
C36	C	1.162236	-0.635597	0.360769
C37	C	1.158746	-0.708948	0.364307
C38	C	1.106417	-0.745625	0.416579
C39	C	1.057581	-0.708948	0.465322
C40	C	1.061076	-0.635598	0.461787
C41	C	1.093339	-0.967094	0.429780
C42	C	1.089847	-1.040449	0.433309
C43	C	1.191013	-1.040443	0.332295
C44	C	1.194500	-0.967092	0.328762
C45	C	1.145667	-0.930421	0.377508
C46	C	1.102847	-0.820602	0.420195
C47	C	1.149242	-0.855446	0.373896
C48	C	1.332140	-0.338403	0.397051
C49	C	1.419996	-0.338413	0.397059
C50	C	1.126008	-0.338321	0.603196
C51	C	1.126024	-0.338296	0.691052
C52	C	1.134884	-0.155186	0.388295
C53	C	1.138681	-0.077121	0.384572
C54	C	1.125985	-0.338386	0.191665
C55	C	1.126133	-0.338213	0.103800
C56	C	1.073386	-0.383133	1.064664
C57	C	1.178857	-0.293311	1.060384
C58	C	1.178835	-0.293326	0.977839
C59	C	1.126089	-0.338246	0.938703
C60	C	1.073365	-0.383151	0.982111
C61	C	1.231564	-0.248426	0.934425
C62	C	1.231545	-0.248440	0.851875
C63	C	1.178794	-0.293357	0.812736
C64	C	1.126067	-0.338263	0.856150
C65	C	1.073321	-0.383183	0.817013
C66	C	1.020590	-0.428087	0.860425
C67	C	1.020614	-0.428068	0.942973
C68	C	1.178770	-0.293376	0.730189
C69	C	1.073299	-0.383201	0.734460
H70	H	0.431575	-0.256817	0.301603
H71	H	0.695178	-0.464954	0.545114
H72	H	0.821164	-0.419959	0.492479
H73	H	0.423750	-0.420003	0.492509
H74	H	1.060239	-0.850473	0.462753
H75	H	1.030340	-0.419775	0.702601
H76	H	1.221804	-0.256743	1.092255
H77	H	1.021311	-0.605740	0.501476
O78	O	0.538478	-0.471965	0.553358
C79	C	0.409389	-0.511867	0.599973
C80	C	0.457210	-0.462415	0.542091
H81	H	0.343674	-0.504174	0.590873
H82	H	0.426175	-0.499605	0.663163
H83	H	0.422920	-0.568476	0.588697
H84	H	0.443703	-0.405790	0.553295
H85	H	0.440416	-0.474738	0.478921
O86	O	1.022057	-0.426677	1.106789
C87	C	0.885951	-0.460779	1.133623
C88	C	0.943993	-0.411411	1.085879
H89	H	0.822825	-0.448463	1.116722
H90	H	0.894952	-0.453049	1.199355
H91	H	0.897116	-0.517412	1.120098
H92	H	0.932865	-0.354758	1.099337
H93	H	0.934979	-0.419200	1.020160
O94	O	1.282681	-0.204713	0.809746
C95	C	1.326872	-0.085245	0.778869
C96	C	1.268906	-0.134692	0.826607
H97	H	1.315766	-0.028624	0.792496
H98	H	1.317802	-0.092900	0.713131
H99	H	1.390006	-0.097616	0.795678
H100	H	1.205749	-0.122352	0.809865
H101	H	1.278045	-0.127027	0.892333
H102	H	0.977686	-0.464628	0.978326
H103	H	0.977647	-0.464664	0.828549
O104	O	1.282729	-0.204823	0.972564
C105	C	1.329544	-0.165032	1.097845
C106	C	1.271540	-0.214435	1.054748
H107	H	1.320529	-0.172797	1.164298
H108	H	1.318426	-0.108382	1.078981
H109	H	1.392664	-0.177378	1.082155
H110	H	1.208398	-0.202152	1.070416
H111	H	1.282726	-0.271071	1.073615
H112	H	1.204845	-0.605739	0.318201
H113	H	1.198512	-0.738803	0.324619
H114	H	1.221705	-0.256818	0.694846
O115	O	1.199959	-0.819790	0.323034
C116	C	1.214589	-0.736998	0.212377
C117	C	1.157067	-0.777356	0.269917
H118	H	1.179935	-0.702669	0.169428
H119	H	1.248882	-0.775772	0.178083
H120	H	1.257549	-0.702636	0.247065
H121	H	1.114060	-0.811719	0.235290
H122	H	1.122831	-0.738544	0.304212
H123	H	0.828993	-0.256764	0.301561
H124	H	0.707338	-0.211814	0.248954
H125	H	0.557559	-0.211829	0.248975
O126	O	1.245409	-0.931575	0.277972
C127	C	1.345361	-0.939313	0.178131
C128	C	1.287756	-0.979624	0.235628
H129	H	1.379603	-0.978143	0.143868
H130	H	1.388356	-0.904942	0.212770
H131	H	1.310724	-0.905003	0.135147
H132	H	1.322327	-1.013972	0.278624
H133	H	1.244762	-1.013950	0.200938
H134	H	1.230772	-1.070309	0.292611
H135	H	1.047244	-1.070309	0.475889
H136	H	1.053576	-0.937242	0.469470
O137	O	1.006769	-0.744683	0.516030
C138	C	0.956577	-0.857681	0.566273
C139	C	1.014149	-0.817302	0.508799
H140	H	0.962537	-0.916401	0.560458
H141	H	0.893516	-0.843362	0.551643
H142	H	0.971099	-0.843167	0.629314
H143	H	0.999699	-0.831795	0.445738
H144	H	1.077194	-0.831624	0.523496
