data_functionalizedCrystal
_audit_creation_method	'MofGen! by Chris Wilmer'
_symmetry_space_group_name_H-M	'P1'
_symmetry_Int_Tables_number	1
_symmetry_cell_setting	triclinic
loop_
_symmetry_equiv_pos_as_xyz
  x,y,z
_cell_length_a	13.185407
_cell_length_b	14.519731
_cell_length_c	12.376457
_cell_angle_alpha	101.297478
_cell_angle_beta	82.592400
_cell_angle_gamma	67.831168
loop_
_atom_site_label
_atom_site_type_symbol
_atom_site_fract_x
_atom_site_fract_y
_atom_site_fract_z
O1	O	1.467336	-0.262976	-0.093963
O2	O	1.150031	-0.169547	-0.093976
O3	O	1.317082	-0.352593	-0.093959
O4	O	1.300285	-0.079931	-0.093980
O5	O	1.275334	-0.306884	0.094049
O6	O	1.108284	-0.123838	0.094032
O7	O	1.425588	-0.217267	0.094044
Zn8	Zn	1.260307	-0.163295	0.123889
Zn9	Zn	1.315312	-0.223519	-0.123820
O10	O	1.258537	-0.034221	0.094028
C11	C	1.088549	-0.137221	0.000027
C12	C	0.967547	-0.109010	0.000023
C13	C	1.295421	-0.363901	0.000045
C14	C	1.293062	-0.465693	0.000046
C15	C	0.677737	-0.378255	0.000048
C16	C	0.791423	-0.404762	0.000060
C17	C	0.835460	-0.330827	0.000050
C18	C	0.765799	-0.230379	0.000030
C19	C	0.652100	-0.203866	0.000027
C20	C	0.809823	-0.156438	0.000029
C21	C	0.740162	-0.055990	0.000009
C22	C	0.626474	-0.029483	0.000006
C23	C	0.582437	-0.103419	0.000015
C24	C	0.923522	-0.182950	0.000032
C25	C	0.897885	-0.008562	0.000011
C26	C	0.784199	0.017946	-0.000001
C27	C	1.291145	-0.548359	0.000043
C28	C	1.288752	-0.652072	0.000034
C29	C	1.286853	-0.734738	0.000027
C30	C	1.284459	-0.838458	0.000021
C31	C	1.487071	-0.249594	0.000039
C32	C	1.608075	-0.277807	0.000036
C33	C	1.280199	-0.022914	0.000021
C34	C	1.282560	0.078876	0.000013
N35	N	1.222776	-0.122196	0.292943
N36	N	1.352852	-0.264628	-0.292874
C37	C	1.439974	-0.360050	0.647950
C38	C	1.466236	-0.388814	0.529613
C39	C	1.405373	-0.322162	0.470440
C40	C	1.318244	-0.226741	0.529615
C41	C	1.291985	-0.197971	0.647964
C42	C	1.257384	-0.160083	0.470454
C43	C	1.170255	-0.064662	0.529629
C44	C	1.144000	-0.035897	0.647967
C45	C	1.204863	-0.102549	0.707140
C46	C	1.283643	-0.188853	0.352105
C47	C	1.135654	-0.026774	0.352119
C48	C	1.109392	0.001990	0.470456
H49	H	0.928029	-0.352415	0.000059
O50	O	0.991184	-0.280458	0.000242
C51	C	1.112845	-0.387918	0.097617
C52	C	1.036228	-0.277432	0.097536
H53	H	1.149304	-0.385507	0.176258
H54	H	1.061878	-0.436236	0.097694
H55	H	1.184141	-0.423806	0.018900
H56	H	0.964920	-0.241453	0.176240
H57	H	1.087273	-0.229188	0.097401
H58	H	1.426759	-0.345586	0.374084
O59	O	0.940549	0.063322	-0.000155
C60	C	0.975108	0.180531	-0.097613
C61	C	0.926720	0.099163	-0.097555
H62	H	0.963965	0.209516	-0.176364
H63	H	0.928944	0.247931	-0.018991
H64	H	1.068320	0.144324	-0.097558
H65	H	0.833515	0.135275	-0.097649
H66	H	0.972968	0.031773	-0.176170
H67	H	0.569756	0.052311	0.000001
H68	H	1.537176	-0.466503	0.481436
H69	H	1.038450	0.079684	0.518652
O70	O	0.859234	-0.502273	0.000118
C71	C	1.045760	-0.620419	0.000054
C72	C	0.969081	-0.509937	0.000020
H73	H	1.134593	-0.626657	-0.000050
H74	H	1.012337	-0.639106	0.078755
H75	H	1.047127	-0.677311	-0.078608
H76	H	0.967681	-0.452973	0.078628
H77	H	1.002532	-0.491337	-0.078733
H78	H	0.641863	-0.438435	0.000088
H79	H	0.489867	-0.081843	0.000001
O80	O	1.499061	-0.424930	0.705311
C81	C	1.554495	-0.592190	0.741609
C82	C	1.487554	-0.518820	0.676554
H83	H	1.545196	-0.668108	0.718401
H84	H	1.647012	-0.607555	0.718315
H85	H	1.520769	-0.555186	0.836348
H86	H	1.521184	-0.555761	0.581801
H87	H	1.395047	-0.503457	0.699942
O88	O	1.076443	0.038120	0.294827
C89	C	0.926847	0.201889	0.307319
C90	C	0.993820	0.128512	0.372352
H91	H	0.860016	0.274978	0.369971
H92	H	0.986227	0.222895	0.251931
H93	H	0.884669	0.162072	0.251898
H94	H	1.036005	0.168264	0.427835
H95	H	0.934389	0.107506	0.427669
O96	O	0.716357	0.115485	0.000037
C97	C	0.529858	0.233583	-0.000049
C98	C	0.606557	0.123092	-0.000065
H99	H	0.441075	0.239764	-0.000155
H100	H	0.528328	0.290540	0.078646
H101	H	0.563422	0.252228	-0.078716
H102	H	0.573050	0.104349	0.078549
H103	H	0.608083	0.066197	-0.078812
H104	H	1.354584	-0.266545	0.303935
H105	H	1.183478	-0.079132	0.803500
O106	O	1.059306	0.056816	0.705276
C107	C	0.915343	0.214569	0.692798
C108	C	1.011211	0.109592	0.627757
H109	H	0.876446	0.257278	0.630152
H110	H	0.848453	0.201790	0.748188
H111	H	0.950217	0.262387	0.748218
H112	H	0.976440	0.061720	0.572275
H113	H	1.078084	0.122447	0.572439
