data_functionalizedCrystal
_audit_creation_method	'MofGen! by Chris Wilmer'
_symmetry_space_group_name_H-M	'P1'
_symmetry_Int_Tables_number	1
_symmetry_cell_setting	triclinic
loop_
_symmetry_equiv_pos_as_xyz
  x,y,z
_cell_length_a	12.594517
_cell_length_b	25.639239
_cell_length_c	12.594509
_cell_angle_alpha	90.034682
_cell_angle_beta	90.011478
_cell_angle_gamma	90.035172
loop_
_atom_site_label
_atom_site_type_symbol
_atom_site_fract_x
_atom_site_fract_y
_atom_site_fract_z
Zn1	Zn	1.627095	-0.208192	0.601533
Zn2	Zn	1.626914	-0.295635	0.423534
Zn3	Zn	1.449099	-0.208209	0.423592
Zn4	Zn	1.449009	-0.295592	0.601495
O5	O	1.538029	-0.251907	0.512538
O6	O	1.776017	-0.219803	0.577912
O7	O	1.603288	-0.284062	0.274596
O8	O	1.472824	-0.135041	0.447236
O9	O	1.775883	-0.284046	0.447137
O10	O	1.603597	-0.135029	0.577969
O11	O	1.472648	-0.219831	0.274638
O12	O	1.300141	-0.219790	0.447200
O13	O	1.472671	-0.283974	0.750445
O14	O	1.300075	-0.283990	0.577904
O15	O	1.603510	-0.219762	0.750473
O16	O	1.603201	-0.368794	0.447101
O17	O	1.472495	-0.368763	0.577848
C18	C	1.261488	-0.251887	0.512554
C19	C	1.143183	-0.251892	0.512587
C20	C	1.073924	-0.286878	0.583539
C21	C	1.003155	-0.239208	0.609728
C22	C	1.003153	-0.299602	0.486374
C23	C	1.073972	-0.204195	0.538827
C24	C	1.073976	-0.264622	0.415427
C25	C	1.003238	-0.216918	0.441579
C26	C	1.537847	-0.387750	0.512487
C27	C	1.537867	-0.445864	0.512500
C28	C	1.469958	-0.697053	0.580597
C29	C	1.469918	-0.642449	0.580584
O30	O	1.412005	-0.614209	0.638446
N31	N	1.538001	-0.615138	0.512556
C32	C	1.606135	-0.642433	0.444544
O33	O	1.664041	-0.614189	0.386680
C34	C	1.606179	-0.697037	0.444562
C35	C	1.538084	-0.724345	0.512587
C36	C	1.401870	-0.724362	0.648617
C37	C	1.401908	-0.778963	0.648627
C38	C	1.470034	-0.806255	0.580618
C39	C	1.538122	-0.778946	0.512598
C40	C	1.674317	-0.724331	0.376556
C41	C	1.674356	-0.778938	0.376581
C42	C	1.606261	-0.806247	0.444606
C43	C	1.606287	-0.860838	0.444599
N44	N	1.538205	-0.888150	0.512627
C45	C	1.470078	-0.860858	0.580636
C46	C	1.606038	-0.527763	0.444511
C47	C	1.605990	-0.473160	0.444486
C48	C	1.469775	-0.473180	0.580529
C49	C	1.469819	-0.527783	0.580547
C50	C	1.537956	-0.555074	0.512539
C51	C	1.470163	-0.975523	0.580653
C52	C	1.470204	-1.030128	0.580655
C53	C	1.606423	-1.030104	0.444617
C54	C	1.606378	-0.975503	0.444611
C55	C	1.538245	-0.948214	0.512638
O56	O	1.664174	-0.889113	0.386769
O57	O	1.412191	-0.889109	0.638500
C58	C	1.815650	-0.251927	0.512523
C59	C	1.933955	-0.251936	0.512516
C60	C	1.538100	-0.251861	0.790159
C61	C	1.538131	-0.251842	0.908465
C62	C	1.538241	-0.115534	0.512613
C63	C	1.538331	-0.057420	0.512645
C64	C	1.538019	-0.251915	0.235997
C65	C	1.538195	-0.251787	0.117692
C66	C	1.466990	-0.286747	0.977703
C67	C	1.564100	-0.299525	1.048474
C68	C	1.441097	-0.239032	1.048493
C69	C	1.635292	-0.264645	0.977677
C70	C	1.512223	-0.204130	0.977691
C71	C	1.609400	-0.216890	1.048430
H72	H	1.105107	-0.275388	0.333315
O73	O	1.335631	-0.697798	0.714536
C74	C	1.191802	-0.636254	0.728726
C75	C	1.266780	-0.666291	0.653955
H76	H	1.136102	-0.610781	0.679775
H77	H	1.240544	-0.610609	0.784403
H78	H	1.143203	-0.665171	0.777361
H79	H	1.315395	-0.637412	0.605251
H80	H	1.217977	-0.691944	0.598348
O81	O	1.672076	-0.446694	0.378250
C82	C	1.723789	-0.430012	0.197227
C83	C	1.648889	-0.460024	0.272116
H84	H	1.705055	-0.440770	0.111400
H85	H	1.809627	-0.440714	0.215898
H86	H	1.712086	-0.386299	0.208946
H87	H	1.660497	-0.503744	0.260439
H88	H	1.563079	-0.449279	0.253426
H89	H	1.729846	-0.801156	0.321202
H90	H	0.972397	-0.187315	0.381547
H91	H	1.729766	-0.702104	0.321165
O92	O	1.733258	-0.277676	0.940862
C93	C	1.871592	-0.342515	0.935895
C94	C	1.760653	-0.327817	0.977682
H95	H	1.893766	-0.383060	0.965629
H96	H	1.932369	-0.312956	0.965663
H97	H	1.870740	-0.342422	0.845382
H98	H	1.761401	-0.327916	1.068192
H99	H	1.699924	-0.357380	0.947833
O100	O	1.672540	-1.056701	0.378632
C101	C	1.732862	-1.140819	0.318284
C102	C	1.657958	-1.110761	0.393093
H103	H	1.721083	-1.184532	0.329934
H104	H	1.818705	-1.130086	0.337011
H105	H	1.714199	-1.130086	0.232462
H106	H	1.676526	-1.121478	0.478940
H107	H	1.572138	-1.121497	0.374275
H108	H	1.661816	-0.953268	0.389208
O109	O	1.395393	-0.322085	0.940696
C110	C	1.341852	-0.412286	0.934835
C111	C	1.423017	-0.372323	0.976795
H112	H	1.364144	-0.452911	0.964022
H113	H	1.341954	-0.411762	0.844323
H114	H	1.259315	-0.401760	0.965157
H115	H	1.505594	-0.382821	0.946552
H116	H	1.422822	-0.372854	1.067306
H117	H	1.669659	-0.187348	1.079288
H118	H	1.586048	-0.339851	1.079566
H119	H	1.490246	-0.163816	0.946575
O120	O	0.965854	-0.226364	0.707633
C121	C	0.811817	-0.211600	0.817027
C122	C	0.853913	-0.226135	0.706093
H123	H	0.721309	-0.211421	0.815824
H124	H	0.842083	-0.171219	0.839954
H125	H	0.840907	-0.241437	0.877455
H126	H	0.824841	-0.196332	0.645590
H127	H	0.823656	-0.266529	0.683255
O128	O	1.343089	-0.226191	1.085479
C129	C	1.157323	-0.248540	1.091538
C130	C	1.268252	-0.263128	1.049565
H131	H	1.096790	-0.278401	1.062538
H132	H	1.134537	-0.208188	1.061180
H133	H	1.158537	-0.248246	1.182046
H134	H	1.267123	-0.263452	0.959061
H135	H	1.290994	-0.303470	1.080005
H136	H	1.104965	-0.316409	0.643619
O137	O	1.403827	-0.554366	0.646685
C138	C	1.389479	-0.615935	0.790457
C139	C	1.464333	-0.585875	0.715600
H140	H	1.438369	-0.641408	0.846209
H141	H	1.333885	-0.641582	0.741622
H142	H	1.340758	-0.587034	0.839007
H143	H	1.513123	-0.614739	0.667034
H144	H	1.519857	-0.560220	0.764496
O145	O	1.110968	-0.156101	0.565538
C146	C	1.215184	-0.105287	0.688331
C147	C	1.173335	-0.159778	0.658212
H148	H	1.265634	-0.108243	0.763248
H149	H	1.145362	-0.077993	0.703395
H150	H	1.265600	-0.089289	0.620590
H151	H	1.122936	-0.175824	0.725914
H152	H	1.243205	-0.187037	0.643110
O153	O	0.966159	-0.347752	0.460081
C154	C	0.960060	-0.439015	0.505278
C155	C	1.002047	-0.384517	0.535146
H156	H	0.989040	-0.468752	0.565964
H157	H	0.990428	-0.450182	0.423089
H158	H	0.869553	-0.438447	0.504704
H159	H	1.092552	-0.385043	0.535781
H160	H	0.971598	-0.373371	0.617316
H161	H	1.414752	-1.052361	0.636051
H162	H	1.414684	-0.953310	0.636048
H163	H	1.414304	-0.450949	0.635907
O164	O	1.335734	-0.805406	0.714815
C165	C	1.200586	-0.799642	0.849709
C166	C	1.275492	-0.769635	0.774815
H167	H	1.151845	-0.770735	0.898222
H168	H	1.249389	-0.825146	0.905483
H169	H	1.145015	-0.825266	0.800801
H170	H	1.331078	-0.743983	0.823637
H171	H	1.226623	-0.744165	0.719038
O172	O	1.672389	-0.554201	0.378485
C173	C	1.853509	-0.570812	0.327015
C174	C	1.778473	-0.540841	0.401835
H175	H	1.939294	-0.560030	0.345881
H176	H	1.834945	-0.560097	0.241160
H177	H	1.841832	-0.614532	0.338662
H178	H	1.790108	-0.497115	0.390282
H179	H	1.797055	-0.551599	0.487663
