data_functionalizedCrystal
_audit_creation_method	'MofGen! by Chris Wilmer'
_symmetry_space_group_name_H-M	'P1'
_symmetry_Int_Tables_number	1
_symmetry_cell_setting	triclinic
loop_
_symmetry_equiv_pos_as_xyz
  x,y,z
_cell_length_a	18.760490
_cell_length_b	12.970454
_cell_length_c	12.970454
_cell_angle_alpha	60.000396
_cell_angle_beta	90.018247
_cell_angle_gamma	60.024409
loop_
_atom_site_label
_atom_site_type_symbol
_atom_site_fract_x
_atom_site_fract_y
_atom_site_fract_z
Zr1	Zr	0.686544	1.128922	-0.135175
O2	O	0.572752	1.343942	-0.299816
O3	O	0.721426	0.913854	-0.084705
O4	O	0.721428	1.128942	-0.299793
O5	O	0.572750	1.128855	0.084939
O6	O	0.838707	1.129012	-0.299773
O7	O	0.572751	1.128854	-0.084728
O8	O	0.838704	0.744259	0.084980
O9	O	0.572753	1.513608	-0.299814
O10	O	0.823828	1.002385	-0.063164
O11	O	0.736303	1.002333	0.063442
O12	O	0.736305	1.255571	-0.189796
O13	O	0.648781	1.255519	-0.063191
Zr14	Zr	0.873588	1.129035	0.135455
Zr15	Zr	0.873589	1.129034	-0.135143
Zr16	Zr	0.686542	1.128923	0.135424
Zr17	Zr	0.686544	1.399519	-0.135172
Zr18	Zr	0.873587	0.858438	0.135453
O19	O	0.838705	1.344103	0.084985
O20	O	0.838707	1.344101	-0.299771
O21	O	0.572750	1.343944	0.084941
O22	O	0.987380	0.914015	0.300096
O23	O	0.987381	0.914013	-0.084660
O24	O	0.721425	0.913856	0.300052
O25	O	0.987382	1.129102	-0.084658
O26	O	0.838704	1.129015	0.300073
O27	O	0.721425	1.128945	0.300053
O28	O	0.987381	1.129103	0.085008
O29	O	0.721429	1.513697	-0.299789
O30	O	0.838703	0.744260	0.300070
O31	O	0.987379	0.744349	0.300095
O32	O	0.987380	0.744348	0.085005
O33	O	0.572752	1.513609	-0.084724
O34	O	0.721428	1.513698	-0.084700
O35	O	0.823826	1.002386	0.190077
O36	O	0.911351	1.002438	0.063471
O37	O	0.823828	1.255624	-0.063161
O38	O	0.736304	1.255572	0.063444
C39	C	0.780065	0.790502	0.000137
C40	C	0.780065	0.675626	0.000136
C41	C	0.546100	1.128838	0.000101
C42	C	0.466694	1.128791	0.000088
C43	C	0.130707	1.129127	-0.093293
C44	C	0.130822	1.129128	0.093657
C45	C	0.205469	1.129056	0.093637
C46	C	0.242738	1.129017	0.000151
C47	C	0.205362	1.129050	-0.093314
C48	C	0.242856	1.129007	0.187108
C49	C	0.317507	1.128933	0.187092
C50	C	0.354775	1.128905	0.093599
C51	C	0.317393	1.128940	0.000130
C52	C	0.354663	1.128901	-0.093356
C53	C	0.317279	1.128947	-0.186832
C54	C	0.242630	1.129022	-0.186807
C55	C	0.429425	1.128830	0.093574
C56	C	0.429318	1.128824	-0.093377
C57	C	1.014032	1.129119	0.000179
C58	C	1.093437	1.129166	0.000193
C59	C	0.780068	1.128977	-0.338337
C60	C	0.780068	1.128976	-0.453213
C61	C	0.780067	1.467455	0.000143
C62	C	0.780067	1.582331	0.000144
C63	C	0.780064	1.128980	0.338618
C64	C	0.780064	1.128981	0.453494
C65	C	1.014031	0.790642	0.000177
C66	C	1.093436	0.675814	0.000189
C67	C	0.780063	0.790504	0.338615
C68	C	0.780063	0.675629	0.453490
C69	C	1.014029	0.790644	0.338654
C70	C	1.093434	0.675816	0.453543
C71	C	0.546103	1.467313	-0.338374
C72	C	0.466698	1.582141	-0.453262
C73	C	0.546101	1.467315	0.000104
C74	C	0.466696	1.582143	0.000092
C75	C	0.780068	1.467453	-0.338334
C76	C	0.780069	1.582328	-0.453210
C77	C	1.085040	0.621862	-0.065919
C78	C	1.159643	0.513983	-0.065932
C79	C	1.242641	0.460052	0.000170
C80	C	1.251036	0.514015	0.066279
C81	C	1.176434	0.621899	0.066285
C82	C	1.176418	0.621919	0.441409
C83	C	1.251035	0.514041	0.549348
C84	C	1.242665	0.460056	0.669421
C85	C	1.159672	0.513963	0.681552
C86	C	1.085058	0.621847	0.573614
C87	C	0.383714	1.636051	-0.441128
C88	C	0.309097	1.743962	-0.549068
C89	C	0.317466	1.797954	-0.669140
C90	C	0.400459	1.744039	-0.681271
C91	C	0.475074	1.636137	-0.573333
C92	C	0.475092	1.636106	0.066188
C93	C	0.400489	1.744015	0.066172
C94	C	0.317491	1.797950	0.000066
C95	C	0.309096	1.743982	-0.066039
C96	C	0.383698	1.636083	-0.066029
H97	H	0.347636	1.128906	-0.262945
H98	H	1.152790	0.470060	-0.119767
O99	O	1.184752	0.674084	0.130629
C100	C	1.283295	0.662740	0.261722
C101	C	1.273991	0.603496	0.188925
H102	H	1.355440	0.605718	0.308851
H103	H	1.250714	0.641428	0.336862
H104	H	1.250608	0.785029	0.193260
H105	H	1.306683	0.481201	0.257289
H106	H	1.306548	0.624921	0.113768
H107	H	1.183249	0.665859	0.343649
O108	O	1.331712	0.461586	0.537772
C109	C	1.487154	0.295410	0.645439
C110	C	1.395844	0.354693	0.658733
H111	H	1.539030	0.208955	0.743220
H112	H	1.495048	0.388369	0.591672
H113	H	1.494978	0.244947	0.591564
H114	H	1.387958	0.405139	0.712634
H115	H	1.387992	0.261682	0.712450
O116	O	0.408737	1.796220	-0.797819
C117	C	0.507210	1.784497	-0.917588
C118	C	0.497963	1.725404	-0.785521
H119	H	0.579344	1.727246	-0.907690
H120	H	0.474629	1.906776	-0.971632
H121	H	0.474489	1.763147	-0.971221
H122	H	0.530688	1.746650	-0.731783
H123	H	0.530519	1.603143	-0.731573
O124	O	1.151394	0.461722	0.798100
C125	C	1.052922	0.472935	0.917869
C126	C	1.062169	0.532256	0.785802
H127	H	0.980788	0.529914	0.907972
H128	H	1.085518	0.494236	0.971721
H129	H	1.085627	0.350645	0.971695
H130	H	1.029459	0.654553	0.731872
H131	H	1.029597	0.510842	0.732046
H132	H	1.303428	0.372210	0.757301
H133	H	0.407341	1.787937	0.120007
O134	O	0.228449	1.796239	-0.130040
C135	C	0.091165	1.829279	-0.117900
C136	C	0.182481	1.770008	-0.045272
H137	H	0.053967	1.808120	-0.049401
H138	H	0.097913	1.772163	-0.165108
H139	H	0.053991	1.951539	-0.192989
H140	H	0.219705	1.647758	0.029876
H141	H	0.175671	1.827233	0.001848
O142	O	1.004430	0.674413	0.585347
C143	C	0.867136	0.884997	0.540169
C144	C	0.958425	0.825661	0.526804
H145	H	0.829908	1.007293	0.492824
H146	H	0.873930	0.827981	0.644515
H147	H	0.829965	0.863649	0.492986
H148	H	0.995647	0.846995	0.573917
H149	H	0.951569	0.882679	0.422437
O150	O	0.375379	1.583770	-0.130246
C151	C	0.276837	1.595197	-0.261421
C152	C	0.286141	1.654537	-0.188720
H153	H	0.204692	1.652408	-0.308739
H154	H	0.309417	1.472937	-0.192989
H155	H	0.309525	1.616384	-0.336435
H156	H	0.253448	1.633454	-0.113707
H157	H	0.253584	1.776779	-0.257231
O158	O	0.228532	1.796335	-0.537106
C159	C	0.127611	1.918144	-0.457159
C160	C	0.218879	1.858872	-0.470593
H161	H	0.119770	1.968747	-0.403408
H162	H	0.119739	1.825171	-0.403281
H163	H	0.075727	2.004490	-0.554935
H164	H	0.270818	1.772549	-0.372870
H165	H	0.226677	1.951925	-0.524534
O166	O	0.094488	1.129228	-0.184212
C167	C	0.102298	1.129120	-0.369596
C168	C	0.143391	1.129043	-0.266724
H169	H	0.141829	1.128939	-0.436318
H170	H	0.032322	1.230648	-0.425098
H171	H	0.102351	1.027715	-0.323467
H172	H	0.143400	1.230379	-0.312750
H173	H	0.213345	1.027449	-0.211231
H174	H	1.318623	0.470088	0.120097
O175	O	0.555698	1.583927	-0.585079
C176	C	0.692973	1.550962	-0.539925
C177	C	0.601691	1.610157	-0.526537
H178	H	0.730191	1.572120	-0.492581
H179	H	0.686168	1.608131	-0.644275
H180	H	0.730161	1.428706	-0.492754
H181	H	0.564453	1.732402	-0.573638
H182	H	0.608559	1.552879	-0.422166
H183	H	0.542667	1.592201	0.120028
O184	O	0.465576	1.128527	-0.184090
C185	C	0.531636	1.002942	-0.281114
C186	C	0.490612	1.003081	-0.178312
H187	H	0.551872	0.901545	-0.276495
H188	H	0.591456	1.002780	-0.265090
H189	H	0.481889	1.104473	-0.377934
H190	H	0.540294	0.901568	-0.081450
H191	H	0.430776	1.003319	-0.194447
O192	O	0.206465	1.128855	-0.277560
C193	C	0.226885	1.003203	-0.374446
C194	C	0.267956	1.003237	-0.271642
H195	H	0.276575	0.901636	-0.369678
H196	H	0.206530	1.104582	-0.471338
H197	H	0.167112	1.003325	-0.358371
H198	H	0.327755	1.003064	-0.287598
H199	H	0.288248	0.901867	-0.174785
O200	O	0.094491	1.129224	0.184343
C201	C	-0.020428	1.129237	0.267279
C202	C	0.020620	1.129162	0.164483
H203	H	-0.080149	1.129156	0.251274
H204	H	-0.040825	1.230714	0.262624
H205	H	0.029350	1.027781	0.364106
H206	H	-0.029112	1.230549	0.067607
H207	H	0.041036	1.027618	0.169249
H208	H	0.212512	1.129028	0.263227
H209	H	1.303380	0.372205	0.000156
H210	H	0.347940	1.128898	0.263203
H211	H	0.376882	1.592097	-0.343369
H212	H	0.459862	1.128783	0.169685
H213	H	1.017465	0.665772	-0.119762
H214	H	0.256703	1.885814	-0.757020
H215	H	0.256752	1.885808	0.000069
