data_functionalizedCrystal
_audit_creation_method	'MofGen! by Chris Wilmer'
_symmetry_space_group_name_H-M	'P1'
_symmetry_Int_Tables_number	1
_symmetry_cell_setting	triclinic
loop_
_symmetry_equiv_pos_as_xyz
  x,y,z
_cell_length_a	14.908571
_cell_length_b	14.908308
_cell_length_c	14.908520
_cell_angle_alpha	83.639235
_cell_angle_beta	89.794039
_cell_angle_gamma	90.175053
loop_
_atom_site_label
_atom_site_type_symbol
_atom_site_fract_x
_atom_site_fract_y
_atom_site_fract_z
Zn1	Zn	1.316651	-0.613065	0.470613
Zn2	Zn	1.816651	-0.113065	0.970613
Zn3	Zn	1.316549	-0.470429	0.613252
Zn4	Zn	1.816549	0.029571	1.113252
Zn5	Zn	1.176020	-0.453125	0.453291
Zn6	Zn	1.676020	0.046875	0.953291
Zn7	Zn	1.157642	-0.612023	0.612180
Zn8	Zn	1.657642	-0.112023	1.112180
O9	O	1.241715	-0.537161	0.537334
O10	O	1.741715	-0.037161	1.037334
O11	O	1.441995	-0.601822	0.497231
O12	O	1.941995	-0.101822	0.997231
O13	O	1.305556	-0.341941	0.585232
O14	O	1.805556	0.158059	1.085232
O15	O	1.202409	-0.467536	0.329399
O16	O	1.702409	0.032464	0.829399
O17	O	1.441920	-0.497029	0.602028
O18	O	1.941920	0.002971	1.102028
O19	O	1.305730	-0.585043	0.342124
O20	O	1.805730	-0.085043	0.842124
O21	O	1.202310	-0.329228	0.467710
O22	O	1.702310	0.170772	0.967710
O23	O	1.048225	-0.466525	0.466671
O24	O	1.548225	0.033475	0.966671
O25	O	1.171086	-0.738354	0.600202
O26	O	1.671086	-0.238354	1.100202
O27	O	1.034722	-0.583267	0.583406
O28	O	1.534722	-0.083267	1.083406
O29	O	1.287909	-0.739120	0.496192
O30	O	1.787909	-0.239120	0.996192
O31	O	1.287736	-0.496018	0.739300
O32	O	1.787736	0.003982	1.239300
O33	O	1.170987	-0.600046	0.738513
O34	O	1.670987	-0.100046	1.238513
C35	C	1.008970	-0.522906	0.523043
C36	C	1.508970	-0.022906	1.023043
C37	C	0.909397	-0.516830	0.516953
C38	C	1.409397	-0.016830	1.016953
C39	C	1.227459	-0.772372	0.550010
C40	C	1.727459	-0.272372	1.050010
C41	C	1.221383	-0.872606	0.555411
C42	C	1.721383	-0.372606	1.055411
C43	C	0.708277	-0.626831	0.627234
C44	C	1.208277	-0.126831	1.127234
C45	C	0.614720	-0.621125	0.621514
C46	C	1.114720	-0.121125	1.121514
C47	C	0.628723	-0.499719	0.499789
C48	C	1.128723	0.000281	0.999789
C49	C	0.722281	-0.505424	0.505509
C50	C	1.222281	-0.005424	1.005509
C51	C	0.762054	-0.568981	0.569235
C52	C	1.262054	-0.068981	1.069235
C53	C	0.855613	-0.574682	0.574958
C54	C	1.355613	-0.074682	1.074958
C55	C	0.869615	-0.453280	0.453230
C56	C	1.369615	0.046720	0.953230
C57	C	0.776058	-0.447575	0.447510
C58	C	1.276058	0.052425	0.947510
C59	C	1.331614	-1.061752	0.457236
C60	C	1.831614	-0.561752	0.957236
C61	C	1.325908	-1.155930	0.462308
C62	C	1.825908	-0.655930	0.962308
C63	C	1.204264	-1.155141	0.570623
C64	C	1.704264	-0.655141	1.070623
C65	C	1.209969	-1.060963	0.565551
C66	C	1.709969	-0.560963	1.065551
C67	C	1.273647	-1.014272	0.508856
C68	C	1.773647	-0.514272	1.008856
C69	C	1.279356	-0.920093	0.503789
C70	C	1.779356	-0.420093	1.003789
C71	C	1.157708	-0.919305	0.612099
C72	C	1.657708	-0.419305	1.112099
C73	C	1.152002	-1.013483	0.617171
C74	C	1.652002	-0.513483	1.117171
C75	C	1.475370	-0.551472	0.551681
C76	C	1.975370	-0.051472	1.051681
C77	C	1.574939	-0.557571	0.557795
C78	C	2.074939	-0.057571	1.057795
C79	C	1.227379	-0.549818	0.771629
C80	C	1.727379	-0.049818	1.271629
C81	C	1.221326	-0.555268	0.871868
C82	C	1.721326	-0.055268	1.371868
C83	C	1.255972	-0.302864	0.524646
C84	C	1.755972	0.197136	1.024646
C85	C	1.262236	-0.202628	0.519001
C86	C	1.762236	0.297372	1.019001
C87	C	1.256131	-0.524476	0.302127
C88	C	1.756131	-0.024476	0.802127
C89	C	1.262274	-0.519070	0.201896
C90	C	1.762274	-0.019070	0.701896
C91	C	1.331634	-0.457284	1.060998
C92	C	1.831634	0.042716	1.560998
C93	C	1.325950	-0.462402	1.155181
C94	C	1.825950	0.037598	1.655181
C95	C	1.204279	-0.570626	1.154420
C96	C	1.704279	-0.070626	1.654420
C97	C	1.209963	-0.565508	1.060237
C98	C	1.709963	-0.065508	1.560237
C99	C	1.273642	-0.508834	1.013529
C100	C	1.773642	-0.008834	1.513529
C101	C	1.279321	-0.503712	0.919343
C102	C	1.779321	-0.003712	1.419343
C103	C	1.157655	-0.611940	0.918584
C104	C	1.657655	-0.111940	1.418584
C105	C	1.151970	-0.617058	1.012768
C106	C	1.651970	-0.117058	1.512768
H107	H	0.887995	-0.626432	0.626848
H108	H	1.387995	-0.126432	1.126848
H109	H	1.383467	-1.023736	0.411077
H110	H	1.883467	-0.523736	0.911077
O111	O	1.382266	-0.412446	1.201439
O112	O	1.882266	0.087554	1.701439
C113	C	1.363597	-0.429112	1.294584
C114	C	1.863597	0.070888	1.794584
H115	H	1.329166	-0.497560	1.309383
H116	H	1.829166	0.002440	1.809383
H117	H	1.428924	-0.429158	1.334098
H118	H	1.928924	0.070842	1.834098
H119	H	1.317607	-0.374098	1.315591
H120	H	1.817607	0.125902	1.815591
H121	H	1.373109	-1.194585	0.420271
H122	H	1.873109	-0.694585	0.920271
H123	H	1.100156	-1.051511	0.663328
H124	H	1.600156	-0.551511	1.163328
H125	H	1.152440	-0.616773	1.192467
H126	H	1.652440	-0.116773	1.692467
O127	O	1.090231	-0.672163	1.058253
O128	O	1.590231	-0.172163	1.558253
C129	C	1.134364	-0.736546	1.118915
C130	C	1.634364	-0.236546	1.618915
H131	H	1.203357	-0.709730	1.135428
H132	H	1.703357	-0.209730	1.635428
H133	H	1.093136	-0.749962	1.183586
H134	H	1.593136	-0.249962	1.683586
H135	H	1.142284	-0.802009	1.086786
H136	H	1.642284	-0.302009	1.586786
H137	H	0.570938	-0.668234	0.668742
H138	H	1.070938	-0.168234	1.168742
H139	H	1.110431	-0.653913	0.879924
H140	H	1.610431	-0.153913	1.379924
H141	H	0.740661	-0.678577	0.679126
H142	H	1.240661	-0.178577	1.179126
H143	H	1.110509	-0.880636	0.654134
H144	H	1.610509	-0.380636	1.154134
H145	H	0.743661	-0.395831	0.395624
H146	H	1.243661	0.104169	0.895624
H147	H	1.152420	-1.193173	0.616780
H148	H	1.652420	-0.693173	1.116780
H149	H	1.331207	-0.882079	0.457627
H150	H	1.831207	-0.382079	0.957627
O151	O	1.341133	-0.448540	0.874058
O152	O	1.841133	0.051460	1.374058
C153	C	1.325680	-0.358701	0.891065
C154	C	1.825680	0.141299	1.391065
H155	H	1.287231	-0.358411	0.957266
H156	H	1.787231	0.141589	1.457266
H157	H	1.392623	-0.322459	0.896036
H158	H	1.892623	0.177541	1.396036
H159	H	1.284690	-0.322588	0.833648
H160	H	1.784690	0.177412	1.333648
O161	O	0.589933	-0.438039	0.437940
O162	O	1.089933	0.061961	0.937940
C163	C	0.495826	-0.445447	0.445299
C164	C	0.995826	0.054553	0.945299
H165	H	0.477016	-0.477817	0.515754
H166	H	0.977016	0.022183	1.015754
H167	H	0.464705	-0.375417	0.433216
H168	H	0.964705	0.124583	0.933216
H169	H	0.469660	-0.489096	0.392879
H170	H	0.969660	0.010904	0.892879
O171	O	0.921947	-0.397048	0.397012
O172	O	1.421947	0.102952	0.897012
C173	C	0.976435	-0.344773	0.448433
C174	C	1.476435	0.155227	0.948433
H175	H	0.984364	-0.381022	0.519385
H176	H	1.484364	0.118978	1.019385
H177	H	1.045194	-0.334766	0.415058
H178	H	1.545194	0.165234	0.915058
H179	H	0.943809	-0.276263	0.452435
H180	H	1.443809	0.223737	0.952435
O181	O	1.393559	-0.402212	1.015763
O182	O	1.893559	0.097788	1.515763
C183	C	1.443506	-0.357784	1.077855
C184	C	1.943506	0.142216	1.577855
H185	H	1.440295	-0.398559	1.147156
H186	H	1.940295	0.101441	1.647156
H187	H	1.516318	-0.351056	1.054393
H188	H	2.016318	0.148944	1.554393
H189	H	1.414295	-0.287813	1.082227
H190	H	1.914295	0.212187	1.582227
