data_functionalizedCrystal
_audit_creation_method	'MofGen! by Chris Wilmer'
_symmetry_space_group_name_H-M	'P1'
_symmetry_Int_Tables_number	1
_symmetry_cell_setting	triclinic
loop_
_symmetry_equiv_pos_as_xyz
  x,y,z
_cell_length_a	19.188933
_cell_length_b	19.188930
_cell_length_c	12.503572
_cell_angle_alpha	93.506241
_cell_angle_beta	86.495071
_cell_angle_gamma	83.145175
loop_
_atom_site_label
_atom_site_type_symbol
_atom_site_fract_x
_atom_site_fract_y
_atom_site_fract_z
O1	O	0.930181	0.083124	-0.089296
O2	O	1.263515	0.416457	0.244037
O3	O	1.596848	0.749790	0.577371
O4	O	0.726871	0.094856	-0.089308
O5	O	1.060204	0.428189	0.244026
O6	O	1.393537	0.761523	0.577359
O7	O	0.834392	-0.012665	-0.089281
O8	O	1.167726	0.320669	0.244053
O9	O	1.501059	0.654002	0.577386
O10	O	0.822660	0.190644	-0.089323
O11	O	1.155993	0.523978	0.244010
O12	O	1.489327	0.857311	0.577343
O13	O	0.826306	-0.004565	0.089359
O14	O	1.159639	0.328768	0.422693
O15	O	1.492973	0.662101	0.756026
O16	O	0.718784	0.102956	0.089332
O17	O	1.052118	0.436289	0.422666
O18	O	1.385451	0.769622	0.755999
O19	O	0.922095	0.091223	0.089344
O20	O	1.255428	0.424557	0.422677
O21	O	1.588762	0.757890	0.756010
Cu22	Cu	0.819701	0.097829	0.105649
Cu23	Cu	1.153035	0.431162	0.438983
Cu24	Cu	1.486368	0.764496	0.772316
Cu25	Cu	0.829264	0.088250	-0.105613
Cu26	Cu	1.162598	0.421584	0.227720
Cu27	Cu	1.495931	0.754917	0.561054
O28	O	0.814574	0.198744	0.089317
O29	O	1.147907	0.532077	0.422650
O30	O	1.481240	0.865411	0.755983
C31	C	0.696817	0.098526	0.000011
C32	C	1.030150	0.431859	0.333344
C33	C	1.363483	0.765192	0.666678
C34	C	0.619312	0.097384	0.000008
C35	C	0.952646	0.430717	0.333341
C36	C	1.285979	0.764051	0.666674
C37	C	0.070464	0.084824	-0.097356
C38	C	0.403798	0.418158	0.235978
C39	C	0.737131	0.751491	0.569311
C40	C	0.143289	0.085892	-0.097360
C41	C	0.476622	0.419226	0.235973
C42	C	0.809955	0.752559	0.569306
C43	C	0.175298	0.090845	0.000016
C44	C	0.508631	0.424178	0.333349
C45	C	0.841965	0.757511	0.666683
C46	C	0.134479	0.094711	0.097404
C47	C	0.467812	0.428045	0.430737
C48	C	0.801145	0.761378	0.764070
C49	C	0.061657	0.093636	0.097405
C50	C	0.394990	0.426970	0.430739
C51	C	0.728323	0.760303	0.764072
N52	N	0.281037	0.135549	0.072489
N53	N	0.614371	0.468883	0.405822
N54	N	0.947704	0.802216	0.739156
N55	N	0.350215	0.136572	0.072481
N56	N	0.683549	0.469905	0.405814
N57	N	1.016882	0.803238	0.739147
C58	C	0.394706	0.094083	0.000017
C59	C	0.728040	0.427416	0.333350
C60	C	1.061373	0.760749	0.666684
N61	N	0.367406	0.050541	-0.072455
N62	N	0.700739	0.383874	0.260879
N63	N	1.034073	0.717207	0.594212
N64	N	0.298221	0.049521	-0.072449
N65	N	0.631555	0.382854	0.260884
N66	N	0.964888	0.716188	0.594217
C67	C	0.254261	0.092011	0.000025
C68	C	0.587594	0.425344	0.333358
C69	C	0.920927	0.758677	0.666692
C70	C	0.514482	0.091369	-0.097369
C71	C	0.847815	0.424702	0.235964
C72	C	1.181149	0.758036	0.569297
C73	C	0.587308	0.092433	-0.097370
C74	C	0.920642	0.425766	0.235964
C75	C	1.253975	0.759100	0.569297
C76	C	0.578496	0.101259	0.097397
C77	C	0.911829	0.434593	0.430730
C78	C	1.245162	0.767926	0.764064
C79	C	0.505672	0.100188	0.097395
C80	C	0.839005	0.433522	0.430728
C81	C	1.172339	0.766855	0.764061
C82	C	0.473669	0.095247	0.000008
C83	C	0.807002	0.428580	0.333342
C84	C	1.140336	0.761913	0.666675
C85	C	0.829969	-0.034626	0.000042
C86	C	1.163302	0.298707	0.333376
C87	C	1.496636	0.632041	0.666709
C88	C	0.828828	-0.112130	0.000052
C89	C	1.162161	0.221203	0.333385
C90	C	1.495494	0.554537	0.666718
C91	C	0.891918	-0.157053	0.000060
C92	C	1.225252	0.176280	0.333394
C93	C	1.558585	0.509614	0.666727
C94	C	0.890847	-0.229878	0.000043
C95	C	1.224181	0.103456	0.333376
C96	C	1.557514	0.436789	0.666710
C97	C	0.826681	-0.257775	0.000039
C98	C	1.160015	0.075558	0.333372
C99	C	1.493348	0.408892	0.666705
C100	C	0.763583	-0.212842	0.000024
C101	C	1.096916	0.120491	0.333357
C102	C	1.430250	0.453824	0.666690
C103	C	0.764656	-0.140020	0.000030
C104	C	1.097990	0.193314	0.333364
C105	C	1.431323	0.526647	0.666697
N106	N	0.774882	-0.363024	0.060830
N107	N	1.108216	-0.029691	0.394164
N108	N	1.441549	0.303643	0.727497
N109	N	0.773867	-0.432203	0.060826
N110	N	1.107201	-0.098869	0.394160
N111	N	1.440534	0.234464	0.727493
C112	C	0.823444	-0.477185	0.000017
C113	C	1.156778	-0.143851	0.333350
C114	C	1.490111	0.189482	0.666683
N115	N	0.874085	-0.450375	-0.060776
N116	N	1.207419	-0.117042	0.272558
N117	N	1.540752	0.216292	0.605891
N118	N	0.875102	-0.381190	-0.060767
N119	N	1.208436	-0.047857	0.272566
N120	N	1.541769	0.285477	0.605900
C121	C	0.825511	-0.336738	0.000031
C122	C	1.158844	-0.003404	0.333364
C123	C	1.492177	0.329929	0.666698
C124	C	0.885378	-0.601073	0.000005
C125	C	1.218711	-0.267740	0.333339
C126	C	1.552045	0.065594	0.666672
C127	C	0.884305	-0.673899	-0.000019
C128	C	1.217638	-0.340566	0.333315
C129	C	1.550971	-0.007232	0.666648
C130	C	0.757038	-0.656861	-0.000027
C131	C	1.090372	-0.323528	0.333306
C132	C	1.423705	0.009805	0.666640
C133	C	0.758114	-0.584038	-0.000014
C134	C	1.091447	-0.250704	0.333319
C135	C	1.424780	0.082629	0.666653
C136	C	0.822285	-0.556148	0.000007
C137	C	1.155619	-0.222815	0.333341
C138	C	1.488952	0.110519	0.666674
C139	C	0.952149	0.087554	0.000023
C140	C	1.285483	0.420887	0.333356
C141	C	1.618816	0.754220	0.666689
C142	C	1.029654	0.088695	0.000019
C143	C	1.362987	0.422028	0.333352
C144	C	1.696321	0.755361	0.666686
C145	C	0.818997	0.220705	-0.000009
C146	C	1.152330	0.554038	0.333325
C147	C	1.485664	0.887372	0.666658
C148	C	0.820138	0.298209	-0.000025
C149	C	1.153472	0.631542	0.333308
C150	C	1.486805	0.964875	0.666642
N151	N	0.812980	0.104566	0.254240
N152	N	1.146314	0.437899	0.587573
N153	N	1.479647	0.771232	0.920906
N154	N	0.835991	0.081508	-0.254204
N155	N	1.169324	0.414841	0.079130
N156	N	1.502658	0.748175	0.412463
C157	C	0.803094	0.114481	0.473353
C158	C	1.136427	0.447815	0.806686
C159	C	1.469760	0.781148	1.140019
C160	C	0.845876	0.071595	0.526690
C161	C	1.179209	0.404928	0.860024
C162	C	1.512542	0.738261	1.193357
C163	C	0.840374	0.077112	0.648612
C164	C	1.173708	0.410445	0.981946
C165	C	1.507041	0.743779	1.315279
C166	C	0.808594	0.108965	0.351420
C167	C	1.141927	0.442298	0.684753
C168	C	1.475261	0.775632	1.018086
H169	H	0.472443	0.103342	0.176688
H170	H	0.805776	0.436676	0.510021
H171	H	1.139110	0.770009	0.843355
H172	H	0.886634	0.030735	0.480788
H173	H	1.219968	0.364068	0.814121
H174	H	1.553301	0.697402	1.147455
F175	F	0.749823	0.167887	0.533345
F176	F	1.083157	0.501220	0.866678
F177	F	1.416490	0.834554	1.200011
H178	H	0.944172	-0.134351	0.000074
H179	H	1.277505	0.198983	0.333407
H180	H	1.610839	0.532316	0.666741
F181	F	0.951458	-0.721711	-0.000016
F182	F	1.284792	-0.388377	0.333317
F183	F	1.618125	-0.055044	0.666650
H184	H	0.942225	-0.266461	0.000046
H185	H	1.275558	0.066872	0.333379
H186	H	1.608892	0.400205	0.666713
F187	F	0.480420	0.086106	-0.201015
F188	F	0.813754	0.419439	0.132319
F189	F	1.147087	0.752772	0.465652
H190	H	0.711339	-0.235561	0.000018
H191	H	1.044672	0.097772	0.333351
H192	H	1.378006	0.431106	0.666685
H193	H	0.176522	0.082745	-0.176657
H194	H	0.509856	0.416078	0.156676
H195	H	0.843189	0.749411	0.490010
F196	F	0.688748	-0.686547	-0.000037
F197	F	1.022081	-0.353214	0.333296
F198	F	1.355414	-0.019880	0.666629
H199	H	0.937631	-0.578364	0.000018
H200	H	1.270964	-0.245031	0.333351
H201	H	1.604297	0.088302	0.666684
F202	F	0.690963	-0.536225	-0.000019
F203	F	1.024296	-0.202891	0.333314
F204	F	1.357630	0.130442	0.666648
F205	F	0.036409	0.079561	-0.201003
F206	F	0.369743	0.412894	0.132330
F207	F	0.703076	0.746228	0.465663
H208	H	0.160545	0.098742	0.176688
H209	H	0.493879	0.432076	0.510021
H210	H	0.827212	0.765409	0.843355
F211	F	0.612558	0.106521	0.201033
F212	F	0.945892	0.439854	0.534367
F213	F	1.279225	0.773187	0.867700
F214	F	0.630743	0.088307	-0.201015
F215	F	0.964076	0.421640	0.132318
F216	F	1.297410	0.754973	0.465651
F217	F	0.697504	-0.092207	0.000021
F218	F	1.030837	0.241126	0.333354
F219	F	1.364170	0.574459	0.666687
F220	F	0.018221	0.097758	0.201050
F221	F	0.351555	0.431091	0.534383
F222	F	0.684888	0.764424	0.867716
