data_functionalizedCrystal
_audit_creation_method	'MofGen! by Chris Wilmer'
_symmetry_space_group_name_H-M	'P1'
_symmetry_Int_Tables_number	1
_symmetry_cell_setting	triclinic
loop_
_symmetry_equiv_pos_as_xyz
  x,y,z
_cell_length_a	12.827892
_cell_length_b	21.395364
_cell_length_c	21.395355
_cell_angle_alpha	89.975273
_cell_angle_beta	89.986862
_cell_angle_gamma	90.013725
loop_
_atom_site_label
_atom_site_type_symbol
_atom_site_fract_x
_atom_site_fract_y
_atom_site_fract_z
Zn1	Zn	-0.416201	0.957926	-0.354288
Zn2	Zn	0.083799	1.457926	0.145712
Zn3	Zn	-0.590927	0.957856	-0.249520
Zn4	Zn	-0.090927	1.457856	0.250480
Zn5	Zn	-0.416196	0.853141	-0.249524
Zn6	Zn	0.083804	1.353141	0.250476
Zn7	Zn	-0.590895	0.853138	-0.354260
Zn8	Zn	-0.090895	1.353138	0.145740
O9	O	-0.503555	0.905515	-0.301898
O10	O	-0.003555	1.405515	0.198102
O11	O	-0.439394	1.045594	-0.340400
O12	O	0.060606	1.545594	0.159600
O13	O	-0.567760	0.943938	-0.161843
O14	O	-0.067760	1.443938	0.338157
O15	O	-0.269960	0.867071	-0.263435
O16	O	0.230040	1.367071	0.236565
O17	O	-0.567765	1.045543	-0.263428
O18	O	-0.067765	1.545543	0.236572
O19	O	-0.269964	0.944056	-0.340404
O20	O	0.230036	1.444056	0.159596
O21	O	-0.439386	0.867004	-0.161846
O22	O	0.060614	1.367004	0.338154
O23	O	-0.439355	0.765462	-0.263408
O24	O	0.060645	1.265462	0.236592
O25	O	-0.567710	0.867066	-0.441942
O26	O	-0.067710	1.367066	0.058058
O27	O	-0.567705	0.765460	-0.340357
O28	O	-0.067705	1.265460	0.159643
O29	O	-0.439363	0.944053	-0.441962
O30	O	0.060637	1.444053	0.058038
O31	O	-0.737159	0.943935	-0.263401
O32	O	-0.237159	1.443935	0.236599
O33	O	-0.737135	0.866999	-0.340353
O34	O	-0.237135	1.366999	0.159647
C35	C	-0.503527	0.742728	-0.301880
C36	C	-0.003527	1.242728	0.198120
C37	C	-0.503540	0.673086	-0.301887
C38	C	-0.003540	1.173086	0.198113
C39	C	-0.775065	0.905476	-0.301887
C40	C	-0.275065	1.405476	0.198113
C41	C	-0.891218	0.905517	-0.301903
C42	C	-0.391218	1.405517	0.198097
C43	C	-0.570509	0.171305	-0.341927
C44	C	-0.070509	0.671305	0.158073
C45	C	-0.570510	0.236741	-0.341920
C46	C	-0.070510	0.736741	0.158080
C47	C	-0.503577	0.269448	-0.301918
C48	C	-0.003577	0.769448	0.198082
C49	C	-0.436659	0.236714	-0.261908
C50	C	0.063341	0.736714	0.238092
C51	C	-0.436668	0.171280	-0.261911
C52	C	0.063332	0.671280	0.238089
C53	C	-0.409400	0.373122	-0.297061
C54	C	0.090600	0.873122	0.202939
C55	C	-0.409390	0.438555	-0.297062
C56	C	0.090610	0.938555	0.202938
C57	C	-0.503550	0.471269	-0.301904
C58	C	-0.003550	0.971269	0.198096
C59	C	-0.597724	0.438542	-0.306758
C60	C	-0.097724	0.938542	0.193242
C61	C	-0.597733	0.373108	-0.306761
C62	C	-0.097733	0.873108	0.193239
C63	C	-0.503561	0.340400	-0.301910
C64	C	-0.003561	0.840400	0.198090
C65	C	-0.570470	0.574947	-0.341901
C66	C	-0.070470	1.074947	0.158099
C67	C	-0.570472	0.640384	-0.341890
C68	C	-0.070472	1.140384	0.158110
C69	C	-0.436612	0.640356	-0.261882
C70	C	0.063388	1.140356	0.238118
C71	C	-0.436619	0.574920	-0.261889
C72	C	0.063381	1.074920	0.238111
C73	C	-0.503547	0.542220	-0.301902
C74	C	-0.003547	1.042220	0.198098
C75	C	-0.942979	0.943632	-0.263867
C76	C	-0.442979	1.443632	0.236133
C77	C	-1.063030	0.943675	-0.263883
C78	C	-0.563030	1.443675	0.236117
C79	C	-0.230985	0.905572	-0.301923
C80	C	0.269015	1.405572	0.198077
C81	C	-0.114831	0.905596	-0.301933
C82	C	0.385169	1.405596	0.198067
C83	C	-0.503533	0.905567	-0.465321
C84	C	-0.003533	1.405567	0.034679
C85	C	-0.503524	0.905589	-0.534963
C86	C	-0.003524	1.405589	-0.034963
C87	C	-0.503583	1.068938	-0.301917
C88	C	-0.003583	1.568938	0.198083
C89	C	-0.503596	1.138580	-0.301924
C90	C	-0.003596	1.638580	0.198076
C91	C	-0.436691	0.945675	-0.567687
C92	C	0.063309	1.445675	-0.067687
C93	C	-0.436646	0.945674	-0.633123
C94	C	0.063354	1.445674	-0.133123
C95	C	-0.503453	0.905594	-0.665831
C96	C	-0.003453	1.405594	-0.165831
C97	C	-0.570291	0.865501	-0.633098
C98	C	-0.070291	1.365501	-0.133098
C99	C	-0.570327	0.865498	-0.567664
C100	C	-0.070327	1.365498	-0.067664
C101	C	-0.597547	0.900633	-0.769502
C102	C	-0.097547	1.400633	-0.269502
C103	C	-0.597513	0.900640	-0.834935
C104	C	-0.097513	1.400640	-0.334935
C105	C	-0.503343	0.905598	-0.867652
C106	C	-0.003343	1.405598	-0.367652
C107	C	-0.409204	0.910562	-0.834928
C108	C	0.090796	1.410562	-0.334928
C109	C	-0.409239	0.910560	-0.769494
C110	C	0.090761	1.410560	-0.269494
C111	C	-0.503422	0.905592	-0.736783
C112	C	-0.003422	1.405592	-0.236783
C113	C	-0.436455	0.945685	-0.971329
C114	C	0.063545	1.445685	-0.471329
C115	C	-0.436408	0.945680	-1.036766
C116	C	0.063592	1.445680	-0.536766
C117	C	-0.570063	0.865510	-1.036740
C118	C	-0.070063	1.365510	-0.536740
C119	C	-0.570100	0.865512	-0.971305
C120	C	-0.070100	1.365512	-0.471305
C121	C	-0.503298	0.905603	-0.938603
C122	C	-0.003298	1.405603	-0.438603
C123	C	-0.503500	0.905499	-0.139110
C124	C	-0.003500	1.405499	0.360890
C125	C	-0.503215	0.905599	-0.069470
C126	C	-0.003215	1.405599	0.430530
H127	H	-0.625011	0.144685	-0.374506
H128	H	-0.125011	0.644685	0.125494
H129	H	-0.624999	0.263391	-0.374497
H130	H	-0.124999	0.763391	0.125503
O131	O	-0.364474	0.271985	-0.218756
O132	O	0.135526	0.771985	0.281244
H133	H	-0.282484	0.259434	-0.229575
H134	H	0.217516	0.759434	0.270425
H135	H	-1.070325	0.872959	-0.334497
H136	H	-0.570325	1.372959	0.165503
H137	H	-0.332720	0.346491	-0.293108
H138	H	0.167280	0.846491	0.206892
O139	O	-0.307710	0.915913	-0.734200
O140	O	0.192290	1.415913	-0.234200
H141	H	-0.297059	0.873944	-0.704366
H142	H	0.202941	1.373944	-0.204366
O143	O	-0.642400	0.822246	-0.532371
O144	O	-0.142400	1.322246	-0.032371
H145	H	-0.724418	0.832964	-0.544933
H146	H	-0.224418	1.332964	-0.044933
H147	H	-0.935779	0.872919	-0.334481
H148	H	-0.435779	1.372919	0.165519
H149	H	-0.674413	0.346464	-0.310712
H150	H	-0.174413	0.846464	0.189288
O151	O	-0.364640	0.988911	-0.532415
O152	O	0.135360	1.488911	-0.032415
H153	H	-0.318154	1.016783	-0.566168
H154	H	0.181846	1.516783	-0.066168
O155	O	-0.699127	0.895279	-0.734221
O156	O	-0.199127	1.395279	-0.234221
H157	H	-0.709818	0.937244	-0.704422
H158	H	-0.209818	1.437244	-0.204422
H159	H	-0.674398	0.465176	-0.310705
H160	H	-0.174398	0.965176	0.189295
H161	H	-0.624529	0.832873	-0.944660
H162	H	-0.124529	1.332873	-0.444660
O163	O	-0.364323	0.988918	-1.072067
O164	O	0.135677	1.488918	-0.572067
H165	H	-0.317888	1.016797	-1.038332
H166	H	0.182112	1.516797	-0.538332
H167	H	-0.332521	0.914600	-0.861565
H168	H	0.167479	1.414600	-0.361565
O169	O	-0.364569	0.988916	-0.668431
O170	O	0.135431	1.488916	-0.168431
H171	H	-0.318130	1.016796	-0.634699
H172	H	0.181870	1.516796	-0.134699
O173	O	-0.364397	0.988915	-0.936051
O174	O	0.135603	1.488915	-0.436051
H175	H	-0.317901	1.016782	-0.969803
H176	H	0.182099	1.516782	-0.469803
H177	H	-0.624448	0.832870	-1.063370
H178	H	-0.124448	1.332870	-0.563370
O179	O	-0.642691	0.539670	-0.385031
O180	O	-0.142691	1.039670	0.114969
H181	H	-0.689246	0.573422	-0.412833
H182	H	-0.189246	1.073422	0.087167
H183	H	-0.898420	0.976236	-0.231293
H184	H	-0.398420	1.476236	0.268707
O185	O	-1.121997	0.986903	-0.220752
O186	O	-0.621997	1.486903	0.279248
H187	H	-1.101175	0.976186	-0.171551
H188	H	-0.601175	1.476186	0.328449
O189	O	-0.364486	0.135976	-0.218770
O190	O	0.135514	0.635976	0.281230
H191	H	-0.317938	0.169710	-0.190953
H192	H	0.182062	0.669710	0.309047
H193	H	-0.674167	0.896602	-0.861574
H194	H	-0.174167	1.396602	-0.361574
O195	O	-0.364436	0.539624	-0.218745
O196	O	0.135564	1.039624	0.281255
H197	H	-0.411138	0.509799	-0.186818
H198	H	0.088862	1.009799	0.313182
O199	O	-0.642344	0.822267	-0.668372
O200	O	-0.142344	1.322267	-0.168372
H201	H	-0.695510	0.850297	-0.698194
H202	H	-0.195510	1.350297	-0.198194
O203	O	-0.642641	0.675684	-0.385042
O204	O	-0.142641	1.175684	0.114958
H205	H	-0.724636	0.663108	-0.374227
H206	H	-0.224636	1.163108	0.125773
O207	O	-0.364420	0.675617	-0.218728
O208	O	0.135580	1.175617	0.281272
H209	H	-0.311303	0.705445	-0.246816
H210	H	0.188697	1.205445	0.253184
O211	O	-0.307825	0.473852	-0.291816
O212	O	0.192175	0.973852	0.208184
H213	H	-0.242353	0.440113	-0.288433
H214	H	0.257647	0.940113	0.211567
