data_functionalizedCrystal
_audit_creation_method	'MofGen! by Chris Wilmer'
_symmetry_space_group_name_H-M	'P1'
_symmetry_Int_Tables_number	1
_symmetry_cell_setting	triclinic
loop_
_symmetry_equiv_pos_as_xyz
  x,y,z
_cell_length_a	14.044202
_cell_length_b	17.666332
_cell_length_c	14.044220
_cell_angle_alpha	90.006987
_cell_angle_beta	86.809211
_cell_angle_gamma	89.993331
loop_
_atom_site_label
_atom_site_type_symbol
_atom_site_fract_x
_atom_site_fract_y
_atom_site_fract_z
O1	O	-1.277179	0.062914	0.230212
O2	O	-1.000506	0.062923	0.221897
O3	O	-1.134690	0.062911	0.087719
O4	O	-1.142995	0.062926	0.364391
O5	O	-1.134663	-0.062986	0.087709
O6	O	-1.000480	-0.062973	0.221887
O7	O	-1.277152	-0.062983	0.230202
Cu8	Cu	-1.138814	-0.074474	0.226044
Cu9	Cu	-1.138845	0.074414	0.226056
O10	O	-1.142969	-0.062971	0.364381
C11	C	-0.964871	-0.000024	0.218256
C12	C	-0.858728	-0.000020	0.207407
N13	N	-1.138799	-0.179193	0.226036
C14	C	-0.613270	-0.000025	0.264506
C15	C	-0.664395	-0.000027	0.187590
C16	C	-0.772532	-0.000024	0.198619
C17	C	-0.505123	-0.000029	0.253478
C18	C	-1.198239	-0.218808	0.166655
C19	C	-1.198244	-0.298056	0.166651
C20	C	-1.138820	-0.337685	0.226045
C21	C	-1.079368	-0.298061	0.285429
C22	C	-1.079357	-0.218815	0.285425
N23	N	-1.133810	-0.462099	0.309494
N24	N	-1.133825	-0.537380	0.309495
C25	C	-1.138846	-0.576449	0.226060
N26	N	-1.143869	-0.537395	0.142622
N27	N	-1.143859	-0.462107	0.142622
C28	C	-1.138824	-0.423614	0.226056
C29	C	-1.198295	-0.701994	0.166670
C30	C	-1.198293	-0.781243	0.166664
C31	C	-1.079422	-0.781246	0.285451
C32	C	-1.079418	-0.701998	0.285448
C33	C	-1.138860	-0.662377	0.226059
C34	C	-0.312788	-0.000034	0.233842
C35	C	-0.418931	-0.000032	0.244684
C36	C	-1.131041	-0.000037	0.052092
C37	C	-1.120196	-0.000038	-0.054051
N38	N	-1.138867	0.179133	0.226057
C39	C	-1.100370	-0.000026	-0.248389
C40	C	-1.177284	-0.000027	-0.299517
C41	C	-1.166253	-0.000020	-0.407653
C42	C	-1.111400	-0.000033	-0.140243
C43	C	-1.146618	-0.000021	0.400008
C44	C	-1.157462	-0.000015	0.506151
H45	H	-0.626952	0.000022	0.113457
Cl46	Cl	-0.985920	-0.000019	-0.306193
Cl47	Cl	-0.671077	-0.000009	0.378955
Cl48	Cl	-1.272976	-0.347866	0.091995
Cl49	Cl	-1.272958	-0.168999	0.091991
H50	H	-1.030982	-0.330331	0.333787
H51	H	-1.246693	-0.669733	0.118309
Cl52	Cl	-1.004628	-0.169009	0.360082
H53	H	-1.031033	-0.813512	0.333807
Cl54	Cl	-1.273018	-0.831048	0.092002
Cl55	Cl	-1.004695	-0.652192	0.360107
H56	H	-1.251418	0.000021	-0.262075
