data_functionalizedCrystal
_audit_creation_method	'MofGen! by Chris Wilmer'
_symmetry_space_group_name_H-M	'P1'
_symmetry_Int_Tables_number	1
_symmetry_cell_setting	triclinic
loop_
_symmetry_equiv_pos_as_xyz
  x,y,z
_cell_length_a	15.538191
_cell_length_b	18.366186
_cell_length_c	19.288865
_cell_angle_alpha	90.011479
_cell_angle_beta	114.795829
_cell_angle_gamma	89.989344
loop_
_atom_site_label
_atom_site_type_symbol
_atom_site_fract_x
_atom_site_fract_y
_atom_site_fract_z
O1	O	1.250876	-0.060536	0.225834
O2	O	0.976277	-0.060543	0.145548
O3	O	1.121511	-0.060525	0.288804
O4	O	1.105642	-0.060554	0.082579
O5	O	1.121487	0.060574	0.288803
O6	O	0.976252	0.060556	0.145547
O7	O	1.250852	0.060564	0.225834
Zn8	Zn	1.113548	0.079787	0.185690
Zn9	Zn	1.113580	-0.079767	0.185691
O10	O	1.105617	0.060545	0.082578
C11	C	0.941133	0.000006	0.137147
C12	C	0.836453	0.000003	0.112126
N13	N	1.113533	0.188678	0.185691
N14	N	1.113603	-0.188658	0.185697
C15	C	0.549718	0.000027	0.360705
C16	C	0.451352	0.000024	0.337176
C17	C	0.428348	0.000005	0.204832
C18	C	0.526713	0.000012	0.228350
C19	C	0.587391	0.000023	0.306287
C20	C	0.564386	0.000008	0.173932
C21	C	0.662744	0.000011	0.197448
C22	C	0.723427	0.000020	0.275382
C23	C	0.685748	0.000026	0.329803
C24	C	0.503707	-0.000008	0.095996
C25	C	0.541380	-0.000012	0.041578
C26	C	0.639739	-0.000004	0.065094
C27	C	0.700423	0.000005	0.143027
C28	C	0.677418	-0.000011	0.010673
C29	C	0.775776	-0.000007	0.034189
C30	C	0.798780	0.000008	0.166543
C31	C	1.285995	0.000013	0.234234
C32	C	1.390675	0.000010	0.259255
C33	C	1.120988	0.000027	0.314552
C34	C	1.119455	0.000033	0.391273
C35	C	1.177864	0.226787	0.249107
C36	C	1.177870	0.303014	0.249112
C37	C	1.113554	0.341131	0.185691
C38	C	1.049211	0.303013	0.122268
C39	C	1.049200	0.226787	0.122269
C40	C	1.100930	0.461882	0.119249
C41	C	1.100947	0.538107	0.119250
C42	C	1.113580	0.576238	0.185689
C43	C	1.126217	0.538136	0.252135
C44	C	1.126207	0.461909	0.252135
C45	C	1.113557	0.423786	0.185684
C46	C	1.177921	0.697002	0.249114
C47	C	1.177921	0.773231	0.249118
C48	C	1.049267	0.773228	0.122270
C49	C	1.049263	0.697000	0.122271
C50	C	1.113595	0.658892	0.185694
C51	C	1.106140	-0.000008	0.056829
C52	C	1.107673	-0.000019	-0.019891
C53	C	1.204672	0.000039	0.457257
C54	C	1.203232	0.000028	0.529344
C55	C	1.116570	0.000025	0.535443
C56	C	1.031342	0.000015	0.469446
C57	C	1.032785	0.000019	0.397361
C58	C	1.048436	0.042441	0.626711
C59	C	1.046997	0.042442	0.698796
C60	C	1.112118	0.000008	0.757776
C61	C	1.178694	-0.042416	0.744668
C62	C	1.180137	-0.042412	0.672583
C63	C	1.114997	0.000020	0.613604
C64	C	1.195779	0.000001	0.901928
C65	C	1.194336	-0.000015	0.974015
C66	C	1.022443	-0.000021	0.914114
C67	C	1.023889	-0.000012	0.842029
C68	C	1.110560	0.000002	0.835941
H69	H	0.803516	0.000013	0.294527
C70	C	1.087054	0.580013	0.046165
H71	H	1.079513	0.546388	0.006593
H72	H	1.140923	0.609735	0.055865
H73	H	1.032141	0.609761	0.030940
H74	H	1.230257	0.334048	0.300754
C75	C	0.610671	-0.000032	-0.075053
H76	H	0.647196	-0.000040	-0.104095
H77	H	0.571805	0.042191	-0.086984
H78	H	0.571844	-0.042274	-0.086969
H79	H	0.599126	0.000040	0.424169
H80	H	0.420684	0.000026	0.381495
H81	H	0.951881	-0.000027	0.919078
C82	C	0.978517	0.655076	0.052506
H83	H	0.987720	0.604220	0.061590
H84	H	0.988567	0.667558	0.008681
H85	H	0.915611	0.667577	0.044215
H86	H	0.491964	-0.000024	-0.021879
H87	H	0.963389	0.000015	0.343632
H88	H	0.954496	-0.000013	0.788301
C89	C	0.817220	-0.000012	-0.025668
H90	H	0.766996	-0.000012	-0.075452
H91	H	0.855121	-0.042241	-0.019244
H92	H	0.855102	0.042224	-0.019243
H93	H	1.090626	0.430841	0.065139
H94	H	0.995404	0.077000	0.578692
C95	C	1.291108	0.000007	0.895222
H96	H	1.279763	0.000019	0.842840
H97	H	1.326193	-0.042223	0.919331
H98	H	1.326175	0.042242	0.919350
H99	H	1.136493	0.430889	0.306237
H100	H	0.996842	0.334051	0.070631
C101	C	0.978440	0.184866	0.052505
H102	H	0.940138	0.218481	0.014731
H103	H	0.939294	0.155139	0.067638
H104	H	1.012242	0.155121	0.032096
C105	C	0.361598	-0.000002	0.119107
H106	H	0.297624	0.000002	0.112894
H107	H	0.373000	-0.042231	0.095765
H108	H	0.372983	0.042234	0.095777
C109	C	1.140121	0.580066	0.325225
H110	H	1.147653	0.546457	0.364797
H111	H	1.086264	0.609814	0.315529
H112	H	1.195045	0.609791	0.340449
C113	C	1.248616	0.184871	0.318874
H114	H	1.286924	0.218489	0.356646
H115	H	1.287757	0.155118	0.303743
H116	H	1.214808	0.155153	0.339284
C117	C	0.973768	0.089106	0.713211
H118	H	0.935180	0.114368	0.667758
H119	H	1.005795	0.123224	0.752695
H120	H	0.935137	0.058509	0.728058
H121	H	1.272628	0.000029	0.583079
H122	H	1.230302	0.665973	0.300758
H123	H	1.263733	-0.000015	1.027743
C124	C	0.936015	0.000009	0.476148
H125	H	0.885467	-0.000000	0.426522
H126	H	0.931865	0.042236	0.503029
H127	H	0.931894	-0.042229	0.503016
C128	C	0.865536	0.000027	0.252273
H129	H	0.929508	0.000034	0.258480
H130	H	0.854157	-0.042197	0.275617
H131	H	0.854134	0.042269	0.275604
H132	H	1.231722	-0.076969	0.792690
H133	H	1.234343	-0.076956	0.661913
C134	C	0.752500	0.000034	0.415533
H135	H	0.715978	0.000033	0.444578
H136	H	0.791343	0.042263	0.427460
H137	H	0.791349	-0.042203	0.427451
C138	C	1.248690	0.815151	0.318878
H139	H	1.287006	0.781534	0.356644
H140	H	1.214905	0.844900	0.339293
H141	H	1.287836	0.844872	0.303734
H142	H	1.275246	0.000048	0.452307
C143	C	0.978520	0.815147	0.052508
H144	H	0.987742	0.866003	0.061588
H145	H	0.915618	0.802667	0.044219
H146	H	0.988566	0.802641	0.008677
H147	H	0.423619	-0.000013	0.076851
