data_functionalizedCrystal
_audit_creation_method	'MofGen! by Chris Wilmer'
_symmetry_space_group_name_H-M	'P1'
_symmetry_Int_Tables_number	1
_symmetry_cell_setting	triclinic
loop_
_symmetry_equiv_pos_as_xyz
  x,y,z
_cell_length_a	18.101398
_cell_length_b	12.645330
_cell_length_c	12.645324
_cell_angle_alpha	90.031766
_cell_angle_beta	89.971903
_cell_angle_gamma	89.987041
loop_
_atom_site_label
_atom_site_type_symbol
_atom_site_fract_x
_atom_site_fract_y
_atom_site_fract_z
Zn1	Zn	1.132218	0.422093	-0.599591
Zn2	Zn	1.632218	0.922093	-0.099591
Zn3	Zn	1.132134	0.599402	-0.422332
Zn4	Zn	1.632134	1.099402	0.077668
Zn5	Zn	1.008368	0.422138	-0.422320
Zn6	Zn	1.508368	0.922138	0.077680
Zn7	Zn	1.008356	0.599300	-0.599531
Zn8	Zn	1.508356	1.099300	-0.099531
O9	O	1.070269	0.510733	-0.510943
O10	O	1.570269	1.010733	-0.010943
O11	O	1.235839	0.445637	-0.576108
O12	O	1.735839	0.945637	-0.076108
O13	O	1.115687	0.575949	-0.273983
O14	O	1.615687	1.075949	0.226017
O15	O	1.024837	0.273785	-0.445856
O16	O	1.524837	0.773785	0.054144
O17	O	1.235778	0.575905	-0.445876
O18	O	1.735778	1.075905	0.054124
O19	O	1.115829	0.273751	-0.576096
O20	O	1.615829	0.773751	-0.076096
O21	O	1.024756	0.445715	-0.273974
O22	O	1.524756	0.945715	0.226026
O23	O	0.904734	0.445616	-0.445797
O24	O	1.404734	0.945616	0.054203
O25	O	1.024817	0.575731	-0.747886
O26	O	1.524817	1.075731	-0.247886
O27	O	0.904725	0.575775	-0.575993
O28	O	1.404725	1.075775	-0.075993
O29	O	1.115817	0.445538	-0.747931
O30	O	1.615817	0.945538	-0.247931
O31	O	1.115675	0.747736	-0.445817
O32	O	1.615675	1.247736	0.054183
O33	O	1.024736	0.747661	-0.576005
O34	O	1.524736	1.247661	-0.076005
C35	C	0.877859	0.510690	-0.510888
C36	C	1.377859	1.010690	-0.010888
C37	C	0.795545	0.510697	-0.510890
C38	C	1.295545	1.010697	-0.010890
C39	C	1.070215	0.786163	-0.510929
C40	C	1.570215	1.286163	-0.010929
C41	C	1.070260	0.903993	-0.510958
C42	C	1.570260	1.403993	-0.010958
C43	C	1.070325	0.510618	-0.787449
C44	C	1.570325	1.010618	-0.287449
C45	C	1.070348	0.510569	-0.905279
C46	C	1.570348	1.010569	-0.405279
C47	C	0.496454	0.510763	-0.510979
C48	C	0.996454	1.010763	-0.010979
C49	C	0.527760	0.428461	-0.429462
C50	C	1.027760	0.928461	0.070538
C51	C	0.613378	0.428682	-0.429115
C52	C	1.113378	0.928682	0.070885
C53	C	0.644836	0.510730	-0.510934
C54	C	1.144836	1.010730	-0.010934
C55	C	0.613735	0.622405	-0.480419
C56	C	1.113735	1.122405	0.019581
C57	C	0.528090	0.621948	-0.479852
C58	C	1.028090	1.121948	0.020148
C59	C	0.528069	0.482361	-0.623203
C60	C	1.028069	0.982361	-0.123203
C61	C	0.613719	0.479874	-0.622590
C62	C	1.113719	0.979874	-0.122590
C63	C	0.728696	0.510717	-0.510911
C64	C	1.228696	1.010717	-0.010911
C65	C	0.412594	0.510783	-0.510999
C66	C	0.912594	1.010783	-0.010999
C67	C	1.263431	0.510777	-0.511000
C68	C	1.763431	1.010777	-0.011000
C69	C	1.345745	0.510796	-0.511024
C70	C	1.845745	1.010796	-0.011024
C71	C	1.070344	0.234228	-0.510982
C72	C	1.570344	0.734228	-0.010982
C73	C	1.070375	0.116398	-0.510998
C74	C	1.570375	0.616398	-0.010998
C75	C	1.013286	1.071554	-0.593111
C76	C	1.513286	1.571554	-0.093111
C77	C	1.012994	0.948994	-0.592847
C78	C	1.512994	1.448994	-0.092847
C79	C	1.049131	0.948598	-0.399233
C80	C	1.549131	1.448598	0.100767
C81	C	1.048783	1.071196	-0.399732
C82	C	1.548783	1.571196	0.100268
C83	C	1.148711	1.071088	-0.539623
C84	C	1.648711	1.571088	-0.039623
C85	C	1.148231	0.948481	-0.542066
C86	C	1.648231	1.448481	-0.042066
C87	C	1.127820	0.428901	-1.072871
C88	C	1.627820	0.928901	-0.572871
C89	C	1.127635	0.428607	-0.950311
C90	C	1.627635	0.928607	-0.450311
C91	C	0.992329	0.480202	-0.949747
C92	C	1.492329	0.980202	-0.449747
C93	C	0.992678	0.479582	-1.072346
C94	C	1.492678	0.979582	-0.572346
C95	C	1.090263	0.622723	-1.072480
C96	C	1.590263	1.122723	-0.572480
C97	C	1.091970	0.622159	-0.949874
C98	C	1.591970	1.122159	-0.449874
C99	C	1.070256	0.510771	-0.235514
C100	C	1.570256	1.010771	0.264486
C101	C	1.070376	0.510522	-0.117684
C102	C	1.570376	1.010522	0.382316
H103	H	0.634406	0.345870	-0.448241
H104	H	1.134406	0.845870	0.051759
F105	F	0.970617	0.372391	-1.109741
F106	F	1.470617	0.872391	-0.609741
H107	H	1.146161	0.650367	-1.103472
H108	H	1.646161	1.150367	-0.603472
F109	F	1.110424	0.319968	-0.911990
F110	F	1.610424	0.819968	-0.411990
H111	H	0.948421	0.536443	-1.101987
H112	H	1.448421	1.036443	-0.601987
F113	F	0.934863	0.555521	-0.911628
F114	F	1.434863	1.055521	-0.411628
F115	F	0.937854	1.111956	-0.568658
F116	F	1.437854	1.611956	-0.068658
H117	H	0.975163	0.399099	-0.919050
H118	H	1.475163	0.899099	-0.419050
F119	F	0.500857	0.319886	-0.454184
F120	F	1.000857	0.819886	0.045816
H121	H	1.089393	0.919452	-0.336380
H122	H	1.589393	1.419452	0.163620
H123	H	0.506210	0.447026	-0.346789
H124	H	1.006210	0.947026	0.153211
F125	F	0.640361	0.704707	-0.555600
F126	F	1.140361	1.204707	-0.055600
H127	H	1.149386	0.645057	-0.920811
H128	H	1.649386	1.145057	-0.420811
H129	H	1.053172	0.686245	-0.919217
H130	H	1.553172	1.186245	-0.419217
H131	H	1.048428	0.683539	-1.101467
H132	H	1.548428	1.183539	-0.601467
F133	F	0.937086	0.910772	-0.568063
F134	F	1.437086	1.410772	-0.068063
F135	F	0.501019	0.704818	-0.554067
F136	F	1.001019	1.204818	-0.054067
F137	F	0.640115	0.453221	-0.320421
F138	F	1.140115	0.953221	0.179579
F139	F	0.973935	1.108696	-0.368038
F140	F	1.473935	1.608696	0.131962
F141	F	0.501609	0.560713	-0.702591
F142	F	1.001609	1.060713	-0.202591
H143	H	1.193005	0.917842	-0.486614
H144	H	1.693005	1.417842	0.013386
F145	F	0.501931	0.653426	-0.372619
F146	F	1.001931	1.153426	0.127381
F147	F	1.030272	0.909567	-0.701129
F148	F	1.530272	1.409567	-0.201129
F149	F	0.975061	0.908588	-0.366966
F150	F	1.475061	1.408588	0.133034
H151	H	0.635150	0.646908	-0.399264
H152	H	1.135150	1.146908	0.100736
H153	H	0.506485	0.402344	-0.650949
H154	H	1.006485	0.902344	-0.150949
H155	H	0.634051	0.397693	-0.645600
H156	H	1.134051	0.897693	-0.145600
H157	H	1.026384	1.100957	-0.676226
H158	H	1.526384	1.600957	-0.176226
H159	H	1.088560	1.100866	-0.336464
H160	H	1.588560	1.600866	0.163536
H161	H	0.635136	0.535449	-0.686580
H162	H	1.135136	1.035449	-0.186580
F163	F	1.173905	1.111392	-0.644300
F164	F	1.673905	1.611392	-0.144300
H165	H	1.164165	0.919322	-0.624289
H166	H	1.664165	1.419322	-0.124289
F167	F	1.203255	0.453452	-0.911013
F168	F	1.703255	0.953452	-0.411013
F169	F	1.204308	1.109010	-0.461465
F170	F	1.704308	1.609010	0.038535
F171	F	1.110833	0.320862	-1.113156
F172	F	1.610833	0.820862	-0.613156
H173	H	1.185864	0.447681	-1.102372
H174	H	1.685864	0.947681	-0.602372
