data_functionalizedCrystal
_audit_creation_method	'MofGen! by Chris Wilmer'
_symmetry_space_group_name_H-M	'P1'
_symmetry_Int_Tables_number	1
_symmetry_cell_setting	triclinic
loop_
_symmetry_equiv_pos_as_xyz
  x,y,z
_cell_length_a	18.050590
_cell_length_b	18.050590
_cell_length_c	13.897441
_cell_angle_alpha	90.033006
_cell_angle_beta	90.006213
_cell_angle_gamma	90.007719
loop_
_atom_site_label
_atom_site_type_symbol
_atom_site_fract_x
_atom_site_fract_y
_atom_site_fract_z
Zn1	Zn	1.135393	-0.295851	0.544991
Zn2	Zn	1.468727	0.037483	0.878324
Zn3	Zn	1.802060	0.370816	1.211658
Zn4	Zn	1.135310	-0.420055	0.383686
Zn5	Zn	1.468643	-0.086721	0.717019
Zn6	Zn	1.801977	0.246612	1.050352
Zn7	Zn	1.011198	-0.295860	0.383750
Zn8	Zn	1.344531	0.037474	0.717084
Zn9	Zn	1.677864	0.370807	1.050417
Zn10	Zn	1.011182	-0.419980	0.544979
Zn11	Zn	1.344515	-0.086646	0.878313
Zn12	Zn	1.677848	0.246687	1.211646
O13	O	1.073271	-0.357936	0.464352
O14	O	1.406604	-0.024603	0.797685
O15	O	1.739937	0.308730	1.131018
O16	O	1.239307	-0.312354	0.523572
O17	O	1.572640	0.020979	0.856905
O18	O	1.905974	0.354312	1.190238
O19	O	1.118818	-0.403615	0.248713
O20	O	1.452151	-0.070282	0.582046
O21	O	1.785485	0.263051	0.915379
O22	O	1.027714	-0.191934	0.405171
O23	O	1.361047	0.141399	0.738505
O24	O	1.694381	0.474733	1.071838
O25	O	1.239246	-0.403606	0.405061
O26	O	1.572579	-0.070273	0.738395
O27	O	1.905912	0.263060	1.071728
O28	O	1.118960	-0.191927	0.523634
O29	O	1.452294	0.141406	0.856968
O30	O	1.785627	0.474739	1.190301
O31	O	1.027633	-0.312370	0.248760
O32	O	1.360966	0.020964	0.582093
O33	O	1.694300	0.354297	0.915427
O34	O	0.907271	-0.312297	0.405160
O35	O	1.240604	0.021036	0.738493
O36	O	1.573938	0.354370	1.071827
O37	O	1.027687	-0.403479	0.679963
O38	O	1.361020	-0.070145	1.013296
O39	O	1.694354	0.263188	1.346629
O40	O	0.907259	-0.403487	0.523614
O41	O	1.240593	-0.070154	0.856947
O42	O	1.573926	0.263179	1.190281
O43	O	1.118945	-0.312281	0.679971
O44	O	1.452278	0.021052	1.013305
O45	O	1.785611	0.354385	1.346638
O46	O	1.118802	-0.523969	0.405050
O47	O	1.452136	-0.190636	0.738383
O48	O	1.785469	0.142697	1.071716
O49	O	1.027606	-0.523914	0.523551
O50	O	1.360939	-0.190581	0.856885
O51	O	1.694273	0.142752	1.190218
C52	C	0.880319	-0.357885	0.464393
C53	C	1.213652	-0.024552	0.797727
C54	C	1.546985	0.308781	1.131060
C55	C	0.797773	-0.357882	0.464434
C56	C	1.131106	-0.024548	0.797767
C57	C	1.464439	0.308785	1.131101
C58	C	0.598337	-0.407613	0.528696
C59	C	0.931671	-0.074280	0.862030
C60	C	1.265004	0.259054	1.195363
C61	C	0.548935	-0.339895	0.552434
C62	C	0.882268	-0.006562	0.885767
C63	C	1.215602	0.326772	1.219101
C64	C	0.646642	-0.357923	0.464387
C65	C	0.979976	-0.024590	0.797720
C66	C	1.313309	0.308743	1.131053
C67	C	0.548963	-0.425680	0.440648
C68	C	0.882296	-0.092347	0.773981
C69	C	1.215630	0.240987	1.107315
C70	C	0.500657	-0.357969	0.464343
C71	C	0.833991	-0.024636	0.797676
C72	C	1.167324	0.308697	1.131010
C73	C	0.598327	-0.290169	0.488170
C74	C	0.931661	0.043164	0.821504
C75	C	1.264994	0.376498	1.154837
C76	C	0.598360	-0.376000	0.376344
C77	C	0.931693	-0.042666	0.709677
C78	C	1.265026	0.290667	1.043010
C79	C	0.548980	-0.308235	0.400048
C80	C	0.882313	0.025098	0.733381
C81	C	1.215646	0.358432	1.066715
C82	C	0.730741	-0.357898	0.464414
C83	C	1.064074	-0.024564	0.797748
C84	C	1.397407	0.308769	1.131081
C85	C	0.416561	-0.357987	0.464315
C86	C	0.749894	-0.024654	0.797649
C87	C	1.083227	0.308680	1.130982
C88	C	1.073214	-0.550888	0.464313
C89	C	1.406547	-0.217555	0.797647
C90	C	1.739880	0.115778	1.130980
C91	C	1.073257	-0.633434	0.464329
C92	C	1.406590	-0.300101	0.797662
C93	C	1.739924	0.033233	1.130996
C94	C	1.122953	-0.832888	0.399978
C95	C	1.456286	-0.499554	0.733311
C96	C	1.789620	-0.166221	1.066644
C97	C	1.141097	-0.882218	0.488007
C98	C	1.474430	-0.548885	0.821340
C99	C	1.807763	-0.215552	1.154674
C100	C	1.073299	-0.784564	0.464367
C101	C	1.406633	-0.451231	0.797701
C102	C	1.739966	-0.117898	1.131034
C103	C	1.055231	-0.882316	0.376378
C104	C	1.388564	-0.548982	0.709711
C105	C	1.721898	-0.215649	1.043044
C106	C	1.073341	-0.930550	0.464397
C107	C	1.406675	-0.597216	0.797730
C108	C	1.740008	-0.263883	1.131064
C109	C	1.091478	-0.832808	0.552443
C110	C	1.424811	-0.499474	0.885776
C111	C	1.758144	-0.166141	1.219110
C112	C	1.005581	-0.832901	0.440754
C113	C	1.338914	-0.499567	0.774088
C114	C	1.672247	-0.166234	1.107421
C115	C	1.023699	-0.882209	0.528844
C116	C	1.357032	-0.548876	0.862178
C117	C	1.690365	-0.215542	1.195511
C118	C	1.073277	-0.700466	0.464349
C119	C	1.406610	-0.367133	0.797683
C120	C	1.739944	-0.033800	1.131016
C121	C	1.073364	-1.014646	0.464425
C122	C	1.406697	-0.681313	0.797758
C123	C	1.740030	-0.347979	1.131092
C124	C	1.266976	-0.357988	0.464310
C125	C	1.600310	-0.024654	0.797644
C126	C	1.933643	0.308679	1.130977
C127	C	1.349522	-0.358010	0.464293
C128	C	1.682855	-0.024676	0.797626
C129	C	2.016189	0.308657	1.130960
C130	C	1.073323	-0.357871	0.715945
C131	C	1.406657	-0.024537	1.049278
C132	C	1.739990	0.308796	1.382611
C133	C	1.073346	-0.357843	0.823159
C134	C	1.406679	-0.024509	1.156492
C135	C	1.740012	0.308824	1.489825
C136	C	1.073348	-0.164231	0.464411
C137	C	1.406682	0.169103	0.797745
C138	C	1.740015	0.502436	1.131078
C139	C	1.073381	-0.081685	0.464437
C140	C	1.406715	0.251649	0.797770
C141	C	1.740048	0.584982	1.131103
C142	C	1.073261	-0.357948	0.213737
C143	C	1.406594	-0.024615	0.547071
C144	C	1.739928	0.308719	0.880404
C145	C	1.073382	-0.357767	0.106524
C146	C	1.406716	-0.024433	0.439857
C147	C	1.740049	0.308900	0.773191
C148	C	1.073366	-0.357792	1.019454
C149	C	1.406699	-0.024459	1.352787
C150	C	1.740033	0.308874	1.686121
C151	C	1.073352	-0.357822	0.910221
C152	C	1.406686	-0.024489	1.243555
C153	C	1.740019	0.308844	1.576888
H154	H	0.527225	-0.324621	0.626872
H155	H	0.860559	0.008713	0.960205
H156	H	1.193892	0.342046	1.293538
F157	F	0.930722	-0.804565	0.414594
F158	F	1.264055	-0.471232	0.747927
F159	F	1.597389	-0.137899	1.081261
F160	F	1.177854	-0.804579	0.328877
F161	F	1.511187	-0.471245	0.662210
F162	F	1.844520	-0.137912	0.995543
F163	F	0.520619	-0.500551	0.414427
F164	F	0.853952	-0.167217	0.747760
F165	F	1.187286	0.166116	1.081093
H166	H	0.527444	-0.266185	0.345645
H167	H	0.860778	0.067148	0.678978
H168	H	1.194111	0.400482	1.012312
F169	F	1.035233	-0.910740	0.279102
F170	F	1.368566	-0.577407	0.612435
F171	F	1.701900	-0.244073	0.945768
H172	H	1.198383	-0.903883	0.507998
H173	H	1.531716	-0.570550	0.841331
H174	H	1.865050	-0.237216	1.174665
F175	F	1.111571	-0.804508	0.649747
F176	F	1.444904	-0.471174	0.983080
F177	F	1.778237	-0.137841	1.316413
F178	F	0.626666	-0.462444	0.599856
F179	F	0.959999	-0.129111	0.933190
F180	F	1.293333	0.204223	1.266523
F181	F	0.626548	-0.215275	0.514501
F182	F	0.959881	0.118058	0.847835
F183	F	1.293215	0.451392	1.181168
H184	H	0.981726	-0.903729	0.583372
H185	H	1.315060	-0.570395	0.916706
H186	H	1.648393	-0.237062	1.250039
H187	H	0.620086	-0.391294	0.301927
H188	H	0.953419	-0.057961	0.635261
H189	H	1.286753	0.275372	0.968594
