data_functionalizedCrystal
_audit_creation_method	'MofGen! by Chris Wilmer'
_symmetry_space_group_name_H-M	'P1'
_symmetry_Int_Tables_number	1
_symmetry_cell_setting	triclinic
loop_
_symmetry_equiv_pos_as_xyz
  x,y,z
_cell_length_a	17.640112
_cell_length_b	13.897448
_cell_length_c	17.639306
_cell_angle_alpha	101.185321
_cell_angle_beta	87.804122
_cell_angle_gamma	101.242525
loop_
_atom_site_label
_atom_site_type_symbol
_atom_site_fract_x
_atom_site_fract_y
_atom_site_fract_z
Zn1	Zn	1.247749	-0.123982	-0.195067
Zn2	Zn	1.747749	0.376018	0.304933
Zn3	Zn	1.222014	-0.260324	-0.068092
Zn4	Zn	1.722014	0.239676	0.431908
Zn5	Zn	1.095102	-0.136711	-0.093720
Zn6	Zn	1.595102	0.363289	0.406280
Zn7	Zn	1.120730	-0.322923	-0.220664
Zn8	Zn	1.620730	0.177077	0.279336
O9	O	1.171399	-0.210985	-0.144386
O10	O	1.671399	0.289015	0.355614
O11	O	1.350607	-0.110543	-0.156786
O12	O	1.850607	0.389457	0.343214
O13	O	1.183683	-0.223055	0.034774
O14	O	1.683683	0.276945	0.534774
O15	O	1.115396	-0.000032	-0.107176
O16	O	1.615396	0.499968	0.392824
O17	O	1.331699	-0.210713	-0.063498
O18	O	1.831699	0.289287	0.436502
O19	O	1.227545	0.009319	-0.181636
O20	O	1.727545	0.509319	0.318364
O21	O	1.090441	-0.132237	0.015946
O22	O	1.590441	0.367763	0.515946
O23	O	0.992230	-0.192937	-0.131997
O24	O	1.492230	0.307063	0.368003
O25	O	1.159075	-0.317404	-0.323535
O26	O	1.659075	0.182596	0.176465
O27	O	1.011059	-0.329746	-0.225262
O28	O	1.511059	0.170254	0.274738
O29	O	1.252396	-0.171243	-0.304729
O30	O	1.752396	0.328757	0.195271
O31	O	1.208533	-0.403617	-0.088319
O32	O	1.708533	0.096383	0.411681
O33	O	1.134120	-0.449608	-0.200413
O34	O	1.634120	0.050392	0.299587
C35	C	0.974090	-0.269516	-0.184189
C36	C	1.474090	0.230484	0.315811
C37	C	0.889684	-0.294583	-0.201234
C38	C	1.389684	0.205417	0.298766
C39	C	1.171339	-0.461611	-0.144375
C40	C	1.671339	0.038389	0.355625
C41	C	1.171388	-0.568815	-0.144382
C42	C	1.671388	-0.068815	0.355618
C43	C	0.563038	-0.020539	-0.014897
C44	C	1.063038	0.479461	0.485103
C45	C	0.483727	-0.044115	-0.030924
C46	C	0.983727	0.455885	0.469076
C47	C	0.503354	-0.186711	-0.127875
C48	C	1.003354	0.313289	0.372125
C49	C	0.582668	-0.163145	-0.111858
C50	C	1.082668	0.336855	0.388142
C51	C	0.612503	-0.080058	-0.055368
C52	C	1.112503	0.419942	0.444632
C53	C	0.632134	-0.222663	-0.152329
C54	C	1.132134	0.277337	0.347671
C55	C	0.711440	-0.199102	-0.136310
C56	C	1.211440	0.300898	0.363690
C57	C	0.741281	-0.116021	-0.079821
C58	C	1.241281	0.383979	0.420179
C59	C	0.691810	-0.056496	-0.039349
C60	C	1.191810	0.443504	0.460651
C61	C	0.602296	-0.305754	-0.208815
C62	C	1.102296	0.194246	0.291185
C63	C	0.651762	-0.365272	-0.249286
C64	C	1.151762	0.134728	0.250714
C65	C	0.731071	-0.341707	-0.233271
C66	C	1.231071	0.158293	0.266729
C67	C	0.760912	-0.258626	-0.176782
C68	C	1.260912	0.241374	0.323218
C69	C	0.780542	-0.401231	-0.273743
C70	C	1.280542	0.098769	0.226257
C71	C	0.859849	-0.377669	-0.257725
C72	C	1.359849	0.122331	0.242275
C73	C	0.840218	-0.235064	-0.160764
C74	C	1.340218	0.264936	0.339236
C75	C	1.171477	-0.765095	-0.144413
C76	C	1.671477	-0.265095	0.355587
C77	C	1.171426	-0.655872	-0.144399
C78	C	1.671426	-0.155872	0.355601
C79	C	1.369478	-0.152225	-0.104428
C80	C	1.869478	0.347775	0.395572
C81	C	1.453888	-0.127186	-0.087401
C82	C	1.953888	0.372814	0.412599
C83	C	1.211465	-0.249886	-0.342456
C84	C	1.711465	0.250114	0.157544
C85	C	1.228538	-0.266464	-0.426861
C86	C	1.728538	0.233536	0.073139
C87	C	1.171483	0.040623	-0.144409
C88	C	1.671483	0.540623	0.355591
C89	C	1.171519	0.147844	-0.144419
C90	C	1.671519	0.647844	0.355581
C91	C	1.041986	-0.084600	-0.753494
C92	C	1.541986	0.415400	-0.253494
C93	C	1.058047	-0.100192	-0.832802
C94	C	1.558047	0.399808	-0.332802
C95	C	1.155129	-0.194751	-0.813179
C96	C	1.655129	0.305249	-0.313179
C97	C	1.139080	-0.179163	-0.733866
C98	C	1.639080	0.320837	-0.233866
C99	C	1.082507	-0.124087	-0.704031
C100	C	1.582507	0.375913	-0.204031
C101	C	1.179600	-0.218650	-0.684403
C102	C	1.679600	0.281350	-0.184403
C103	C	1.163548	-0.203067	-0.605099
C104	C	1.663548	0.296933	-0.105099
C105	C	1.106977	-0.147997	-0.575257
C106	C	1.606977	0.352003	-0.075257
C107	C	1.066455	-0.108504	-0.624726
C108	C	1.566455	0.391496	-0.124726
C109	C	1.236169	-0.273731	-0.714241
C110	C	1.736169	0.226269	-0.214241
C111	C	1.276689	-0.313218	-0.664778
C112	C	1.776689	0.186782	-0.164778
C113	C	1.260641	-0.297630	-0.585471
C114	C	1.760641	0.202370	-0.085471
C115	C	1.204070	-0.242559	-0.555629
C116	C	1.704070	0.257441	-0.055629
C117	C	1.301163	-0.337122	-0.536002
C118	C	1.801163	0.162878	-0.036002
C119	C	1.285111	-0.321539	-0.456697
C120	C	1.785111	0.178461	0.043303
C121	C	1.188018	-0.226976	-0.476325
C122	C	1.688018	0.273024	0.023675
C123	C	1.131532	-0.172152	0.052922
C124	C	1.631532	0.327848	0.552922
C125	C	1.114606	-0.155259	0.137357
C126	C	1.614606	0.344741	0.637357
H127	H	0.864513	-0.167395	-0.114775
H128	H	1.364513	0.332605	0.385225
F129	F	0.471591	-0.275143	-0.187986
F130	F	0.971591	0.224857	0.312014
F131	F	1.215333	-0.253369	-0.844941
F132	F	1.715333	0.246631	-0.344941
H133	H	0.627459	-0.432924	-0.295278
H134	H	1.127459	0.067076	0.204722
F135	F	1.014933	-0.058131	-0.885440
F136	F	1.514933	0.441869	-0.385440
F137	F	1.361361	-0.395747	-0.567767
F138	F	1.861361	0.104253	-0.067767
H139	H	1.249238	-0.286414	-0.778817
H140	H	1.749238	0.213586	-0.278817
F141	F	1.336893	-0.371836	-0.696541
F142	F	1.836893	0.128164	-0.196541
H143	H	0.537719	-0.324935	-0.221855
H144	H	1.037719	0.175065	0.278145
H145	H	1.141959	-0.182116	-0.452030
H146	H	1.641959	0.317884	0.047970
H147	H	1.093903	-0.135318	-0.510683
H148	H	1.593903	0.364682	-0.010683
H149	H	0.587333	0.047130	0.031092
H150	H	1.087333	0.547130	0.531092
F151	F	0.825686	-0.090948	-0.062769
F152	F	1.325686	0.409052	0.437231
F153	F	0.723567	0.031939	0.020769
F154	F	1.223567	0.531939	0.520769
F155	F	0.431083	0.019235	0.012159
F156	F	0.931083	0.519235	0.512159
F157	F	0.748777	-0.489667	-0.333849
F158	F	1.248777	0.010333	0.166151
H159	H	0.995927	-0.039740	-0.729199
H160	H	1.495927	0.460260	-0.229199
H161	H	0.900125	-0.426135	-0.290681
H162	H	1.400125	0.073865	0.209319
F163	F	1.006251	-0.049875	-0.592967
F164	F	1.506251	0.450125	-0.092967
F165	F	1.328234	-0.363570	-0.404053
F166	F	1.828234	0.136430	0.095947
