data_functionalizedCrystal
_audit_creation_method	'MofGen! by Chris Wilmer'
_symmetry_space_group_name_H-M	'P1'
_symmetry_Int_Tables_number	1
_symmetry_cell_setting	triclinic
loop_
_symmetry_equiv_pos_as_xyz
  x,y,z
_cell_length_a	27.731994
_cell_length_b	27.731996
_cell_length_c	15.500227
_cell_angle_alpha	92.797931
_cell_angle_beta	87.185826
_cell_angle_gamma	82.620961
loop_
_atom_site_label
_atom_site_type_symbol
_atom_site_fract_x
_atom_site_fract_y
_atom_site_fract_z
O1	O	0.643196	0.055136	-0.071831
O2	O	0.502398	0.063908	-0.071861
O3	O	0.577182	-0.010877	-0.071826
O4	O	0.568411	0.129921	-0.071866
O5	O	0.572644	-0.006356	0.072060
O6	O	0.497860	0.068429	0.072025
O7	O	0.638658	0.059656	0.072056
Cu8	Cu	0.567845	0.064455	0.085178
Cu9	Cu	0.573211	0.059109	-0.084984
O10	O	0.563874	0.134441	0.072021
C11	C	0.482122	0.065988	0.000078
C12	C	0.428466	0.065445	0.000068
C13	C	0.093273	0.064495	0.078535
C14	C	-0.108385	0.062433	0.078545
O15	O	-0.136561	0.064242	0.145249
N16	N	-0.131126	0.059713	0.000113
C17	C	-0.103449	0.057505	-0.078328
O18	O	-0.127418	0.055139	-0.145039
C19	C	0.098209	0.059563	-0.078338
C20	C	0.120946	0.062288	0.000100
C21	C	0.116011	0.067219	0.156966
C22	C	0.166422	0.067737	0.156962
C23	C	0.194096	0.065531	0.078528
C24	C	0.171358	0.062806	0.000097
C25	C	0.125885	0.057351	-0.156777
C26	C	0.176303	0.057865	-0.156773
C27	C	0.199041	0.060590	-0.078335
C28	C	0.249442	0.061118	-0.078341
N29	N	0.272183	0.063838	0.000091
C30	C	0.244510	0.066044	0.078526
C31	C	-0.209322	0.056426	-0.078318
C32	C	-0.259737	0.055912	-0.078315
C33	C	-0.264669	0.060840	0.078558
C34	C	-0.214254	0.061357	0.078555
C35	C	-0.186581	0.059146	0.000115
C36	C	0.350377	0.067132	0.078513
C37	C	0.400793	0.067652	0.078502
C38	C	0.405721	0.062722	-0.078371
C39	C	0.355309	0.062205	-0.078361
C40	C	0.327639	0.064408	0.000088
O41	O	0.277649	0.059305	-0.145010
O42	O	0.268490	0.068399	0.145227
C43	C	0.042862	0.063977	0.078538
C44	C	0.020124	0.061252	0.000107
C45	C	0.047797	0.059046	-0.078328
C46	C	-0.030290	0.060739	0.000109
C47	C	-0.057963	0.062945	0.078543
C48	C	-0.035222	0.065665	0.156976
C49	C	0.015189	0.066183	0.156973
C50	C	0.025056	0.056326	-0.156760
C51	C	-0.025355	0.055809	-0.156750
C52	C	-0.053028	0.058015	-0.078316
C53	C	0.574733	-0.026624	0.000120
C54	C	0.574190	-0.080280	0.000128
C55	C	0.573250	-0.415461	-0.078347
C56	C	0.571190	-0.617119	-0.078363
O57	O	0.573006	-0.645285	-0.145067
N58	N	0.568460	-0.639872	0.000069
C59	C	0.566242	-0.612207	0.078510
O60	O	0.563868	-0.636186	0.145221
C61	C	0.568299	-0.410549	0.078525
C62	C	0.571034	-0.387799	0.000088
C63	C	0.575984	-0.392711	-0.156778
C64	C	0.576502	-0.342300	-0.156773
C65	C	0.574286	-0.314638	-0.078338
C66	C	0.571552	-0.337388	0.000093
C67	C	0.566078	-0.382884	0.156965
C68	C	0.566591	-0.332467	0.156962
C69	C	0.569326	-0.309717	0.078525
C70	C	0.569853	-0.259316	0.078533
N71	N	0.572583	-0.236563	0.000101
C72	C	0.574799	-0.264224	-0.078334
C73	C	0.565163	-0.718080	0.078497
C74	C	0.564650	-0.768495	0.078494
C75	C	0.569596	-0.773403	-0.078380
C76	C	0.570113	-0.722989	-0.078375
C77	C	0.567893	-0.695327	0.000065
C78	C	0.575887	-0.158357	-0.078318
C79	C	0.576406	-0.107941	-0.078307
C80	C	0.571457	-0.103036	0.078566
C81	C	0.570940	-0.153448	0.078555
C82	C	0.573153	-0.181107	0.000106
O83	O	0.568033	-0.231119	0.145202
O84	O	0.577162	-0.240234	-0.145035
C85	C	0.572732	-0.465872	-0.078352
C86	C	0.569999	-0.488622	0.000079
C87	C	0.567782	-0.460961	0.078514
C88	C	0.569485	-0.539036	0.000075
C89	C	0.571701	-0.566698	-0.078360
C90	C	0.574431	-0.543945	-0.156792
C91	C	0.574949	-0.493533	-0.156787
C92	C	0.565053	-0.483714	0.156946
C93	C	0.564536	-0.534125	0.156935
C94	C	0.566752	-0.561786	0.078499
C95	C	0.658934	0.057576	0.000114
C96	C	0.712590	0.058119	0.000119
C97	C	0.566323	0.150188	0.000073
C98	C	0.566866	0.203844	0.000058
N99	N	0.564073	0.068215	0.204862
N100	N	0.576986	0.055346	-0.204667
C101	C	0.595773	0.036537	0.250153
C102	C	0.592925	0.039385	0.340725
C103	C	0.558380	0.073913	0.386003
C104	C	0.526677	0.105592	0.340705
C105	C	0.529523	0.102742	0.250135
C106	C	0.548129	0.084174	0.659465
C107	C	0.545287	0.087023	0.750041
C108	C	0.611535	0.020815	0.750054
C109	C	0.614379	0.017970	0.659483
C110	C	0.582674	0.049647	0.614193
C111	C	0.555470	0.076826	0.478582
C112	C	0.585583	0.046731	0.521616
H113	H	-0.195745	0.063576	0.142426
H114	H	0.613708	0.018617	0.484748
O115	O	0.571683	-0.800218	-0.154628
C116	C	0.531422	-0.783604	-0.202335
H117	H	0.517133	-0.744367	-0.180039
H118	H	0.543115	-0.785436	-0.274090
H119	H	0.501462	-0.807575	-0.191453
H120	H	0.562430	-0.787014	0.142365
H121	H	0.572339	-0.704469	-0.142246
O122	O	0.432576	0.060665	-0.154579
C123	C	0.415956	0.100912	-0.202326
H124	H	0.396595	0.131486	-0.156448
H125	H	0.448287	0.114191	-0.237900
H126	H	0.389549	0.089606	-0.251237
H127	H	0.563249	-0.461197	0.220819
O128	O	0.188570	0.070311	0.233104
C129	C	0.223371	0.028867	0.237819
H130	H	0.235006	0.012847	0.169723
H131	H	0.256470	0.039687	0.271028
H132	H	0.206778	0.000556	0.276521
O133	O	0.564501	-0.305557	0.233110
C134	C	0.606538	-0.282058	0.237841
H135	H	0.622729	-0.278565	0.169749
H136	H	0.596432	-0.244265	0.271047
H137	H	0.634443	-0.304340	0.276552
H138	H	-0.057763	0.067465	0.220840
H139	H	0.576238	-0.566476	-0.220657
H140	H	0.578727	-0.323781	-0.220644
H141	H	0.033697	0.068402	0.220845
H142	H	0.642509	-0.010146	0.622619
H143	H	0.522315	0.109968	0.622597
H144	H	0.198832	0.056065	-0.220650
O145	O	0.568203	-0.175520	0.154765
C146	C	0.524951	-0.155897	0.202487
H147	H	0.497268	-0.139417	0.156593
H148	H	0.509430	-0.185991	0.238055
H149	H	0.533181	-0.126418	0.251402
O150	O	0.569215	-0.076124	0.154728
C151	C	0.527489	-0.041011	0.159376
H152	H	0.499471	-0.053554	0.114856
H153	H	0.511242	-0.036309	0.228739
H154	H	0.538014	-0.004777	0.138292
O155	O	0.577582	-0.471512	-0.233059
C156	C	0.579439	-0.506747	-0.302279
H157	H	0.563037	-0.539841	-0.279279
H158	H	0.557839	-0.490653	-0.357144
H159	H	0.618940	-0.518237	-0.326387
O160	O	-0.291562	0.062891	0.154730
C161	C	-0.315079	0.020862	0.159406
H162	H	-0.294429	-0.009647	0.114895
H163	H	-0.315889	0.008969	0.228776
H164	H	-0.353934	0.029279	0.138329
O165	O	0.511680	0.120575	0.793892
C166	C	0.484312	0.147929	0.734498
H167	H	0.485950	0.126084	0.669944
H168	H	0.444830	0.156391	0.760675
H169	H	0.500025	0.183430	0.724849
H170	H	0.498547	0.133704	0.377576
O171	O	0.089203	0.069389	0.233241
C172	C	0.120095	0.071891	0.302454
H173	H	0.154635	0.086840	0.279437
H174	H	0.100560	0.096947	0.357307
H175	H	0.130069	0.033909	0.326587
H176	H	0.623905	0.008423	0.213293
H177	H	-0.278246	0.053701	-0.142187
H178	H	-0.186795	0.054625	-0.142197
O179	O	0.333175	0.059499	-0.154500
C180	C	0.309976	0.017162	-0.159195
H181	H	0.302213	0.005260	-0.091092
H182	H	0.274267	0.025171	-0.192399
H183	H	0.334690	-0.013179	-0.197891
O184	O	0.578099	-0.185276	-0.154472
C185	C	0.619836	-0.220378	-0.159184
H186	H	0.631573	-0.227745	-0.091086
H187	H	0.611101	-0.255558	-0.192407
H188	H	0.650583	-0.206215	-0.197871
H189	H	0.563357	-0.695563	0.142376
H190	H	0.562312	-0.552644	0.220812
O191	O	0.623708	0.008548	0.384620
C192	C	0.616914	-0.039948	0.362527
H193	H	0.600343	-0.041827	0.296775
H194	H	0.653533	-0.064102	0.359424
H195	H	0.591373	-0.053129	0.413517
O196	O	-0.047360	0.053139	-0.233028
C197	C	-0.012119	0.051314	-0.302251
H198	H	0.025213	0.037100	-0.279243
H199	H	-0.021702	0.025959	-0.357099
H200	H	-0.011373	0.089405	-0.326386
O201	O	0.579041	-0.085917	-0.154582
C202	C	0.580897	-0.121147	-0.223808
H203	H	0.564493	-0.154243	-0.200816
H204	H	0.559299	-0.105049	-0.278671
H205	H	0.620398	-0.132639	-0.247917
H206	H	0.637346	-0.004975	0.786938
H207	H	0.577787	-0.415228	-0.220653
O208	O	0.498709	0.133565	0.206271
C209	C	0.467600	0.164645	0.265653
H210	H	0.485385	0.167084	0.330210
H211	H	0.460749	0.202478	0.239466
H212	H	0.431510	0.149505	0.275302
H213	H	0.563852	-0.401398	0.220837
H214	H	0.527343	0.104940	0.515455
O215	O	0.422806	0.070278	0.154778
C216	C	0.387564	0.072124	0.224004
H217	H	0.354473	0.055724	0.201011
H218	H	0.403655	0.050519	0.278868
H219	H	0.376070	0.111622	0.248110
O220	O	0.323442	0.069337	0.154661
C221	C	0.288341	0.111074	0.159358
H222	H	0.280991	0.122818	0.091255
H223	H	0.253152	0.102336	0.192571
H224	H	0.302495	0.141817	0.198046
O225	O	0.103854	0.054763	-0.233029
C226	C	0.111869	0.095272	-0.280759
H227	H	0.145832	0.110316	-0.258450
H228	H	0.117168	0.083608	-0.352506
H229	H	0.079089	0.124648	-0.269917
O230	O	0.051967	0.054100	-0.232933
C231	C	0.087087	0.012379	-0.237622
H232	H	0.074555	-0.015655	-0.193105
H233	H	0.091784	-0.003848	-0.306993
H234	H	0.123321	0.022903	-0.216562
