data_functionalizedCrystal
_audit_creation_method	'MofGen! by Chris Wilmer'
_symmetry_space_group_name_H-M	'P1'
_symmetry_Int_Tables_number	1
_symmetry_cell_setting	triclinic
loop_
_symmetry_equiv_pos_as_xyz
  x,y,z
_cell_length_a	10.723024
_cell_length_b	16.109296
_cell_length_c	14.586319
_cell_angle_alpha	90.004442
_cell_angle_beta	89.996795
_cell_angle_gamma	96.036421
loop_
_atom_site_label
_atom_site_type_symbol
_atom_site_fract_x
_atom_site_fract_y
_atom_site_fract_z
O1	O	1.655638	-0.116608	-0.076236
O2	O	1.292337	-0.127770	-0.076239
O3	O	1.483971	-0.001217	-0.076230
O4	O	1.464004	-0.243162	-0.076245
O5	O	1.483958	-0.001215	0.076251
O6	O	1.292324	-0.127768	0.076242
O7	O	1.655625	-0.116606	0.076245
Cu8	Cu	1.473973	-0.122187	0.090166
Cu9	Cu	1.473989	-0.122189	-0.090160
O10	O	1.463990	-0.243160	0.076236
C11	C	1.245842	-0.126957	0.000001
C12	C	1.107320	-0.124527	-0.000000
N13	N	1.473971	-0.122185	0.216998
C14	C	1.483157	0.029764	0.000010
C15	C	1.480735	0.122074	0.000010
C16	C	1.031396	-0.195339	-0.000005
C17	C	0.888226	-0.192829	-0.000006
C18	C	1.702120	-0.117420	0.000003
C19	C	1.840642	-0.119850	-0.000002
C20	C	1.586530	0.430450	-0.000001
C21	C	1.588817	0.343716	0.000003
C22	C	1.361453	0.325181	0.000014
C23	C	1.359168	0.411913	0.000016
C24	C	1.471710	0.464546	0.000004
C25	C	1.476282	0.291080	0.000006
C26	C	1.478761	0.197039	0.000011
C27	C	1.469232	0.558593	0.000001
C28	C	1.464812	0.725860	-0.000004
C29	C	1.467256	0.633552	-0.000000
N30	N	1.474001	-0.122185	-0.216992
C31	C	1.558855	-0.066166	0.452008
C32	C	1.558858	-0.066164	0.547990
C33	C	1.389108	-0.178206	0.547991
C34	C	1.389099	-0.178204	0.452011
C35	C	1.473980	-0.122185	0.404022
C36	C	1.473992	-0.122185	0.595983
C37	C	1.473995	-0.122184	0.700050
C38	C	1.473975	-0.122185	0.299949
H39	H	1.072389	-0.257823	-0.000004
O40	O	0.918402	-0.047499	-0.000160
C41	C	0.895741	-0.000882	-0.079117
H42	H	0.851165	-0.044490	-0.134316
H43	H	0.829588	0.047680	-0.061259
C44	C	1.075313	0.096909	-0.047128
C45	C	1.020574	0.043347	-0.114927
H46	H	1.152314	0.124195	-0.069215
H47	H	1.090578	0.065504	0.006069
H48	H	1.020173	0.137370	-0.032252
H49	H	1.075706	0.002882	-0.129793
H50	H	1.005320	0.074747	-0.168127
O51	O	0.810586	-0.265232	-0.000053
C52	C	0.882638	-0.333575	-0.000031
H53	H	0.979816	-0.313103	-0.028896
H54	H	0.891841	-0.357090	0.073120
C55	C	0.698284	-0.429261	-0.024383
C56	C	0.817637	-0.404119	-0.059842
H57	H	0.658187	-0.472778	-0.061273
H58	H	0.649740	-0.383218	-0.024394
H59	H	0.705970	-0.448851	0.036576
H60	H	0.809948	-0.384520	-0.120795
H61	H	0.866178	-0.450160	-0.059843
O62	O	1.695964	0.481459	0.000035
C63	C	1.797796	0.432762	0.000010
H64	H	1.766095	0.368221	0.028878
H65	H	1.832994	0.426382	-0.073144
C66	C	1.943241	0.554639	0.024349
C67	C	1.904309	0.475371	0.059813
H68	H	2.008947	0.580924	0.061234
H69	H	1.874636	0.587449	0.024363
H70	H	1.972565	0.549312	-0.036612
H71	H	1.874972	0.480700	0.120768
H72	H	1.972912	0.442564	0.059811
O73	O	1.700276	0.310499	-0.000128
C74	C	1.708411	0.260894	-0.079110
H75	H	1.610051	0.239850	-0.105431
H76	H	1.763623	0.298890	-0.134414
C77	C	1.896388	0.209657	-0.022798
C78	C	1.775581	0.183804	-0.055121
H79	H	1.937827	0.162106	-0.008003
H80	H	1.890911	0.243079	0.030412
H81	H	1.942383	0.241321	-0.068890
H82	H	1.729584	0.152150	-0.009026
H83	H	1.781052	0.150375	-0.108324
O84	O	1.641343	-0.011667	0.405533
C85	C	1.716275	0.037763	0.468474
H86	H	1.665122	0.039009	0.536895
H87	H	1.808956	0.010206	0.478670
C88	C	1.804854	0.125771	0.346989
C89	C	1.742022	0.127306	0.431024
H90	H	1.820742	0.181004	0.323887
H91	H	1.754375	0.092467	0.304584
H92	H	1.882081	0.102803	0.355498
H93	H	1.664790	0.150264	0.422512
H94	H	1.792489	0.160615	0.473427
H95	H	1.269826	0.282317	0.000021
O96	O	1.641137	-0.011666	0.594643
C97	C	1.574346	0.040021	0.650188
H98	H	1.475943	0.042025	0.621272
H99	H	1.567799	0.014042	0.722928
C100	C	1.764020	0.126410	0.687178
C101	C	1.643162	0.128876	0.651659
H102	H	1.806470	0.181219	0.688090
H103	H	1.809020	0.091585	0.649760
H104	H	1.758547	0.104756	0.747792
H105	H	1.648637	0.150519	0.591043
H106	H	1.598165	0.163706	0.689067
H107	H	1.320002	-0.223817	0.587073
O108	O	1.306699	-0.232547	0.405250
C109	C	1.324916	-0.220544	0.310246
H110	H	1.371576	-0.154724	0.297145
H111	H	1.387479	-0.267979	0.282999
C112	C	1.139960	-0.313108	0.277064
C113	C	1.197260	-0.232264	0.260973
H114	H	1.061217	-0.320341	0.246669
H115	H	1.127689	-0.321198	0.341070
H116	H	1.192109	-0.352628	0.254358
H117	H	1.145118	-0.192746	0.283690
H118	H	1.209519	-0.224168	0.196970
H119	H	1.066328	-0.062043	-0.000020
H120	H	1.265662	0.439674	0.000024
