data_functionalizedCrystal
_audit_creation_method	'MofGen! by Chris Wilmer'
_symmetry_space_group_name_H-M	'P1'
_symmetry_Int_Tables_number	1
_symmetry_cell_setting	triclinic
loop_
_symmetry_equiv_pos_as_xyz
  x,y,z
_cell_length_a	16.959455
_cell_length_b	19.120786
_cell_length_c	16.959447
_cell_angle_alpha	87.528017
_cell_angle_beta	89.981652
_cell_angle_gamma	92.464580
loop_
_atom_site_label
_atom_site_type_symbol
_atom_site_fract_x
_atom_site_fract_y
_atom_site_fract_z
Zn1	Zn	1.194958	-0.279636	-0.433474
Zn2	Zn	1.694958	0.220364	0.066526
Zn3	Zn	1.189220	-0.397102	-0.295648
Zn4	Zn	1.689220	0.102898	0.204352
Zn5	Zn	1.062777	-0.279661	-0.301309
Zn6	Zn	1.562777	0.220339	0.198691
Zn7	Zn	1.057101	-0.397057	-0.427788
Zn8	Zn	1.557101	0.102943	0.072212
O9	O	1.126014	-0.338364	-0.364555
O10	O	1.626014	0.161636	0.135445
O11	O	1.304807	-0.295227	-0.415201
O12	O	1.804807	0.204773	0.084799
O13	O	1.172421	-0.381552	-0.185787
O14	O	1.672421	0.118448	0.314213
O15	O	1.085087	-0.181367	-0.323590
O16	O	1.585087	0.318633	0.176410
O17	O	1.300592	-0.381528	-0.313942
O18	O	1.800592	0.118472	0.186058
O19	O	1.182200	-0.181349	-0.420691
O20	O	1.682200	0.318651	0.079309
O21	O	1.079523	-0.295269	-0.189946
O22	O	1.579523	0.204731	0.310054
O23	O	0.951413	-0.295225	-0.318077
O24	O	1.451413	0.204775	0.181923
O25	O	1.075414	-0.381452	-0.539155
O26	O	1.575414	0.118548	-0.039155
O27	O	0.947244	-0.381476	-0.411000
O28	O	1.447244	0.118524	0.089000
O29	O	1.176697	-0.295183	-0.543332
O30	O	1.676697	0.204817	-0.043332
O31	O	1.166918	-0.495386	-0.308429
O32	O	1.666918	0.004614	0.191571
O33	O	1.069851	-0.495353	-0.405511
O34	O	1.569851	0.004647	0.094489
C35	C	0.920648	-0.338349	-0.364536
C36	C	1.420648	0.161651	0.135464
C37	C	0.832791	-0.338359	-0.364546
C38	C	1.332791	0.161641	0.135454
C39	C	0.789324	-0.383228	-0.311756
C40	C	1.289324	0.116772	0.188244
C41	C	0.793705	-0.293495	-0.417342
C42	C	1.293705	0.206505	0.082658
C43	C	0.711159	-0.293501	-0.417351
C44	C	1.211159	0.206499	0.082649
C45	C	0.667691	-0.338370	-0.364561
C46	C	1.167691	0.161630	0.135439
C47	C	0.706770	-0.383234	-0.311762
C48	C	1.206770	0.116766	0.188238
C49	C	0.672074	-0.248633	-0.470144
C50	C	1.172074	0.251367	0.029856
C51	C	0.589523	-0.248636	-0.470155
C52	C	1.089523	0.251364	0.029845
C53	C	0.546054	-0.293509	-0.417368
C54	C	1.046054	0.206491	0.082632
C55	C	0.585138	-0.338375	-0.364567
C56	C	1.085138	0.161625	0.135433
C57	C	0.541670	-0.383245	-0.311777
C58	C	1.041670	0.116755	0.188223
C59	C	0.580752	-0.428115	-0.258980
C60	C	1.080752	0.071885	0.241020
C61	C	0.663301	-0.428107	-0.258975
C62	C	1.163301	0.071893	0.241025
C63	C	0.463505	-0.293517	-0.417373
C64	C	0.963505	0.206483	0.082627
C65	C	0.459116	-0.383250	-0.311783
C66	C	0.959116	0.116750	0.188217
C67	C	1.117167	-0.520855	-0.355756
C68	C	1.617167	-0.020855	0.144244
C69	C	1.113455	-0.598926	-0.352018
C70	C	1.613455	-0.098926	0.147982
C71	C	1.162235	-0.635534	-0.400858
C72	C	1.662235	-0.135534	0.099142
C73	C	1.158743	-0.708889	-0.397347
C74	C	1.658743	-0.208889	0.102653
C75	C	1.106476	-0.745636	-0.344992
C76	C	1.606476	-0.245636	0.155008
C77	C	1.057691	-0.709023	-0.296150
C78	C	1.557691	-0.209023	0.203850
C79	C	1.061178	-0.635668	-0.299665
C80	C	1.561178	-0.135668	0.200335
C81	C	1.093413	-0.967122	-0.331851
C82	C	1.593413	-0.467122	0.168149
C83	C	1.089931	-1.040481	-0.328337
C84	C	1.589931	-0.540481	0.171663
C85	C	1.190983	-1.040343	-0.429536
C86	C	1.690983	-0.540343	0.070464
C87	C	1.194469	-0.966987	-0.433044
C88	C	1.694469	-0.466987	0.066956
C89	C	1.145681	-0.930381	-0.384204
C90	C	1.645681	-0.430381	0.115796
C91	C	1.102907	-0.820617	-0.341401
C92	C	1.602907	-0.320617	0.158599
C93	C	1.149246	-0.855401	-0.387801
C94	C	1.649246	-0.355401	0.112199
C95	C	1.332181	-0.338380	-0.364574
C96	C	1.832181	0.161620	0.135426
C97	C	1.420038	-0.338386	-0.364583
C98	C	1.920038	0.161614	0.135417
C99	C	1.126063	-0.338310	-0.570726
C100	C	1.626063	0.161690	-0.070726
C101	C	1.126083	-0.338287	-0.658584
C102	C	1.626083	0.161713	-0.158584
C103	C	1.134917	-0.155160	-0.373406
C104	C	1.634917	0.344840	0.126594
C105	C	1.138710	-0.077089	-0.377177
C106	C	1.638710	0.422911	0.122823
C107	C	1.174461	-0.383199	-0.697694
C108	C	1.674461	0.116801	-0.197694
C109	C	1.077720	-0.293357	-0.702027
C110	C	1.577720	0.206643	-0.202027
C111	C	1.077734	-0.293336	-0.784574
C112	C	1.577734	0.206664	-0.284574
C113	C	1.126112	-0.338248	-0.823685
C114	C	1.626112	0.161752	-0.323685
C115	C	1.174476	-0.383181	-0.780249
C116	C	1.674476	0.116819	-0.280249
C117	C	1.029366	-0.248410	-0.828016
C118	C	1.529366	0.251590	-0.328016
C119	C	1.029378	-0.248388	-0.910568
C120	C	1.529378	0.251612	-0.410568
C121	C	1.077760	-0.293297	-0.949681
C122	C	1.577760	0.206703	-0.449681
C123	C	1.126126	-0.338231	-0.906240
C124	C	1.626126	0.161769	-0.406240
C125	C	1.174504	-0.383143	-0.945350
C126	C	1.674504	0.116857	-0.445350
C127	C	1.222875	-0.428074	-0.901911
C128	C	1.722875	0.071926	-0.401911
C129	C	1.222858	-0.428090	-0.819361
C130	C	1.722858	0.071910	-0.319361
C131	C	1.077777	-0.293280	-1.032230
C132	C	1.577777	0.206720	-0.532230
C133	C	1.174519	-0.383125	-1.027905
C134	C	1.674519	0.116875	-0.527905
C135	C	1.126013	-0.338367	-0.159189
C136	C	1.626013	0.161633	0.340811
C137	C	1.126155	-0.338192	-0.071341
C138	C	1.626155	0.161808	0.428659
H139	H	0.431689	-0.256980	-0.460354
H140	H	0.931689	0.243020	0.039646
N141	N	0.977185	-0.199976	-0.785835
N142	N	1.477185	0.300024	-0.285835
H143	H	0.984520	-0.206803	-0.726949
H144	H	1.484520	0.293197	-0.226949
H145	H	0.991921	-0.149808	-0.802694
H146	H	1.491921	0.350192	-0.302694
H147	H	1.038393	-0.256699	-1.067595
H148	H	1.538393	0.243301	-0.567595
H149	H	1.204800	-0.605620	-0.443488
H150	H	1.704800	-0.105620	0.056512
H151	H	1.198471	-0.738692	-0.437112
H152	H	1.698471	-0.238692	0.062888
H153	H	0.423730	-0.419791	-0.268798
H154	H	0.923730	0.080209	0.231202
H155	H	1.047364	-1.070398	-0.285703
H156	H	1.547364	-0.570398	0.214297
H157	H	1.060353	-0.850544	-0.298770
H158	H	1.560353	-0.350544	0.201230
H159	H	0.989992	-0.211802	-0.945930
H160	H	1.489992	0.288198	-0.445930
H161	H	1.053690	-0.937322	-0.292082
H162	H	1.553690	-0.437322	0.207918
H163	H	1.213918	-0.419695	-1.059743
H164	H	1.713918	0.080305	-0.559743
H165	H	0.545350	-0.464644	-0.215995
H166	H	1.045350	0.035356	0.284005
H167	H	0.821148	-0.419762	-0.268772
H168	H	1.321148	0.080238	0.231228
N169	N	0.705452	-0.476494	-0.202028
N170	N	1.205452	0.023506	0.297972
H171	H	0.764342	-0.469677	-0.210032
H172	H	1.264342	0.030323	0.289968
H173	H	0.691529	-0.465499	-0.146129
H174	H	1.191529	0.034501	0.353871
N175	N	0.840582	-0.245118	-0.474294
N176	N	1.340582	0.254882	0.025706
H177	H	0.898807	-0.251928	-0.466284
H178	H	1.398807	0.248072	0.033716
H179	H	0.825633	-0.256133	-0.530189
H180	H	1.325633	0.243867	-0.030189
N181	N	0.547384	-0.200237	-0.527098
N182	N	1.047384	0.299763	-0.027098
H183	H	0.561245	-0.211201	-0.583025
H184	H	1.061245	0.288799	-0.083025
H185	H	0.488506	-0.207064	-0.519030
H186	H	0.988506	0.292936	-0.019030
N187	N	1.001317	-0.748652	-0.239678
N188	N	1.501317	-0.248652	0.260322
H189	H	1.006512	-0.800677	-0.244857
H190	H	1.506512	-0.300677	0.255143
H191	H	1.014267	-0.735848	-0.183853
H192	H	1.514267	-0.235848	0.316147
N193	N	0.718966	-0.200266	-0.527095
N194	N	1.218966	0.299734	-0.027095
H195	H	0.754799	-0.167683	-0.496615
H196	H	1.254799	0.332317	0.003385
H197	H	0.751781	-0.228928	-0.562264
H198	H	1.251781	0.271072	-0.062264
H199	H	1.191800	-0.825480	-0.430431
H200	H	1.691800	-0.325480	0.069569
H201	H	1.237030	-0.937070	-0.475676
H202	H	1.737030	-0.437070	0.024324
N203	N	1.243600	-1.079825	-0.482211
N204	N	1.743600	-0.579825	0.017789
H205	H	1.233462	-1.131870	-0.472043
H206	H	1.733462	-0.631870	0.027957
H207	H	1.231874	-1.066979	-0.539267
H208	H	1.731874	-0.566979	-0.039267
H209	H	1.021456	-0.605863	-0.259895
H210	H	1.521456	-0.105863	0.240105
H211	H	1.262262	-0.464643	-0.933765
H212	H	1.762262	0.035357	-0.433765
N213	N	1.275025	-0.476548	-0.772511
N214	N	1.775025	0.023452	-0.272511
H215	H	1.267586	-0.469819	-0.714279
H216	H	1.767586	0.030181	-0.214279
H217	H	1.260368	-0.526703	-0.784601
H218	H	1.760368	-0.026703	-0.284601
H219	H	1.213846	-0.419778	-0.662322
H220	H	1.713846	0.080222	-0.162322
N221	N	1.025538	-0.244923	-0.659848
N222	N	1.525538	0.255077	-0.159848
H223	H	1.032866	-0.251754	-0.600962
H224	H	1.532866	0.248246	-0.100962
H225	H	1.040278	-0.194756	-0.676702
H226	H	1.540278	0.305244	-0.176702
