data_functionalizedCrystal
_audit_creation_method	'MofGen! by Chris Wilmer'
_symmetry_space_group_name_H-M	'P1'
_symmetry_Int_Tables_number	1
_symmetry_cell_setting	triclinic
loop_
_symmetry_equiv_pos_as_xyz
  x,y,z
_cell_length_a	31.640172
_cell_length_b	21.606444
_cell_length_c	21.606444
_cell_angle_alpha	59.997726
_cell_angle_beta	90.002990
_cell_angle_gamma	60.000110
loop_
_atom_site_label
_atom_site_type_symbol
_atom_site_fract_x
_atom_site_fract_y
_atom_site_fract_z
Zr1	Zr	0.407200	0.677371	-0.081146
O2	O	0.339714	0.806503	-0.179986
O3	O	0.427885	0.548249	-0.050846
O4	O	0.427889	0.677369	-0.179968
O5	O	0.339709	0.677380	0.050989
O6	O	0.497446	0.677357	-0.179954
O7	O	0.339710	0.677383	-0.050864
O8	O	0.497439	0.446383	0.051021
O9	O	0.339716	0.908354	-0.179986
O10	O	0.488620	0.601345	-0.037914
O11	O	0.436710	0.601353	0.038088
O12	O	0.436715	0.753376	-0.113937
O13	O	0.384805	0.753384	-0.037935
Zr14	Zr	0.518134	0.677346	0.081319
Zr15	Zr	0.518135	0.677350	-0.081125
Zr16	Zr	0.407199	0.677367	0.081298
Zr17	Zr	0.407204	0.839810	-0.081147
Zr18	Zr	0.518130	0.514907	0.081320
O19	O	0.497449	0.806469	0.051019
O20	O	0.497450	0.806474	-0.179955
O21	O	0.339713	0.806498	0.050989
O22	O	0.585620	0.548214	0.180159
O23	O	0.585621	0.548219	-0.050815
O24	O	0.427885	0.548243	0.180128
O25	O	0.585625	0.677337	-0.050816
O26	O	0.497445	0.677348	0.180141
O27	O	0.427888	0.677361	0.180128
O28	O	0.585624	0.677335	0.051037
O29	O	0.427895	0.908337	-0.179969
O30	O	0.497439	0.446380	0.180143
O31	O	0.585618	0.446364	0.180160
O32	O	0.585618	0.446367	0.051038
O33	O	0.339716	0.908350	-0.050865
O34	O	0.427895	0.908334	-0.050848
O35	O	0.488619	0.601341	0.114110
O36	O	0.540529	0.601334	0.038108
O37	O	0.488624	0.753364	-0.037915
O38	O	0.436714	0.753372	0.038087
C39	C	0.462662	0.474172	0.000088
C40	C	0.462660	0.405212	0.000088
C41	C	0.489771	-0.018101	-0.039585
C42	C	0.489767	0.046700	-0.039588
C43	C	0.462669	0.079101	0.000084
C44	C	0.435569	0.046704	0.039756
C45	C	0.435570	-0.018091	0.039754
C46	C	0.435563	0.308015	0.039763
C47	C	0.435566	0.372813	0.039764
C48	C	0.489761	0.372805	-0.039579
C49	C	0.489762	0.308010	-0.039581
C50	C	0.462660	0.275623	0.000087
C51	C	0.462663	0.205360	0.000089
C52	C	0.462668	0.149358	0.000087
C53	C	0.323904	0.677384	0.000060
C54	C	0.276809	0.677393	0.000050
C55	C	0.011897	0.597992	0.039785
C56	C	-0.165088	0.597977	0.039800
O57	O	-0.164932	0.530485	0.073577
N58	N	-0.214312	0.677335	0.000116
C59	C	-0.219289	0.756702	-0.039571
O60	O	-0.265218	0.824200	-0.073318
C61	C	-0.042304	0.756716	-0.039581
C62	C	0.006919	0.677353	0.000100
C63	C	0.061118	0.518635	0.079463
C64	C	0.105361	0.518640	0.079455
C65	C	0.100384	0.598001	0.039770
C66	C	0.051162	0.677358	0.000092
C67	C	-0.047281	0.836083	-0.079262
C68	C	-0.003030	0.836079	-0.079260
C69	C	0.046193	0.756716	-0.039579
C70	C	0.090428	0.756724	-0.039601
N71	N	0.139652	0.677366	0.000083
C72	C	0.144630	0.598004	0.039769
C73	C	-0.312206	0.756689	-0.039564
C74	C	-0.356452	0.756686	-0.039562
C75	C	-0.302249	0.597960	0.039810
C76	C	-0.258002	0.597964	0.039803
C77	C	-0.262983	0.677331	0.000120
C78	C	0.237542	0.598020	0.039749
C79	C	0.281787	0.598032	0.039736
C80	C	0.227579	0.756757	-0.039633
C81	C	0.183338	0.756746	-0.039623
C82	C	0.188323	0.677370	0.000074
O83	O	0.090311	0.824180	-0.073353
O84	O	0.190563	0.530516	0.073525
C85	C	-0.032347	0.597987	0.039793
C86	C	-0.081568	0.677344	0.000115
C87	C	-0.086545	0.756705	-0.039571
C88	C	-0.125814	0.677341	0.000116
C89	C	-0.120836	0.597979	0.039801
C90	C	-0.071612	0.518621	0.079486
C91	C	-0.027369	0.518626	0.079478
C92	C	-0.135769	0.836063	-0.079255
C93	C	-0.180010	0.836052	-0.079245
C94	C	-0.175033	0.756691	-0.039559
C95	C	0.601430	0.677333	0.000114
C96	C	0.648525	0.677324	0.000123
C97	C	0.462668	0.677363	-0.203106
C98	C	0.462668	0.677365	-0.272068
C99	C	0.462672	0.880546	0.000086
C100	C	0.462674	0.949505	0.000085
C101	C	0.500988	0.677360	-0.304459
C102	C	0.500989	0.677354	-0.369252
C103	C	0.462669	0.677359	-0.401656
C104	C	0.424347	0.677362	-0.369259
C105	C	0.424348	0.677362	-0.304464
C106	C	0.424343	0.677361	-0.630569
C107	C	0.424344	0.677364	-0.695370
C108	C	0.500984	0.677353	-0.695357
C109	C	0.500985	0.677353	-0.630562
C110	C	0.462665	0.677351	-0.598168
C111	C	0.462664	0.677356	-0.527912
C112	C	0.462667	0.677360	-0.471914
C113	C	0.462666	0.677354	0.203279
C114	C	0.462666	0.677352	0.272241
C115	C	0.601425	0.474146	0.000115
C116	C	0.648518	0.405178	0.000124
C117	C	0.462661	0.474167	0.203280
C118	C	0.462659	0.405205	0.272243
C119	C	0.601424	0.474141	0.203307
C120	C	0.648517	0.405171	0.272279
C121	C	0.323910	0.880576	-0.203134
C122	C	0.276817	0.949546	-0.272105
C123	C	0.323909	0.880571	0.000059
C124	C	0.276816	0.949540	0.000049
C125	C	0.462673	0.880550	-0.203107
C126	C	0.462675	0.949512	-0.272069
C127	C	0.643538	0.372795	-0.039561
C128	C	0.687783	0.308001	-0.039567
C129	C	0.737008	0.275586	0.000117
C130	C	0.741987	0.307975	0.039803
C131	C	0.697743	0.372772	0.039804
C132	C	0.489754	0.372814	0.344317
C133	C	0.489750	0.308027	0.409121
C134	C	0.462654	0.275627	0.401848
C135	C	0.435555	0.308024	0.329765
C136	C	0.435557	0.372815	0.264964
C137	C	0.697734	0.372778	0.264996
C138	C	0.741987	0.307982	0.329796
C139	C	0.737022	0.275576	0.401877
C140	C	0.687801	0.307976	0.409158
C141	C	0.643549	0.372775	0.344359
C142	C	0.227600	0.981947	-0.264823
C143	C	0.183347	1.046763	-0.329623
C144	C	0.188312	1.079172	-0.401704
C145	C	0.237534	1.046769	-0.408985
C146	C	0.281785	0.981958	-0.344186
C147	C	0.281796	0.981929	0.039727
C148	C	0.237552	1.046741	0.039715
C149	C	0.188327	1.079158	0.000030
C150	C	0.183347	1.046767	-0.039654
C151	C	0.227591	0.981960	-0.039646
C152	C	0.489777	0.981891	-0.264772
C153	C	0.489789	1.046679	-0.329563
C154	C	0.462696	1.079091	-0.401650
C155	C	0.435594	1.046705	-0.408946
C156	C	0.435585	0.981914	-0.344156
H157	H	0.511830	0.281628	-0.071883
H158	H	0.532191	0.677361	-0.278082
C159	C	0.382197	0.677371	-0.268833
H160	H	0.387689	0.677361	-0.225598
H161	H	0.349117	0.728141	-0.304839
H162	H	0.383789	0.626597	-0.254063
H163	H	0.511819	0.281657	0.467807
H164	H	-0.067566	0.454003	0.111794
C165	C	0.243036	1.082363	0.083367
H166	H	0.209638	1.125612	0.077674
H167	H	0.261419	1.035842	0.135572
H168	H	0.261428	1.107629	0.063771
H169	H	0.701786	0.399153	0.206310
H170	H	0.462657	0.222870	0.454620
C171	C	0.519575	0.082329	-0.083225
H172	H	0.535719	0.053744	-0.106844
H173	H	0.496189	0.143506	-0.120778
H174	H	0.545217	0.071700	-0.048966
C175	C	0.519597	1.082301	-0.321528
H176	H	0.515730	1.125524	-0.370435
H177	H	0.506211	1.107581	-0.294611
H178	H	0.555246	1.035769	-0.294589
C179	C	0.543128	0.677370	-0.594929
H180	H	0.537635	0.677386	-0.551708
H181	H	0.576212	0.626606	-0.580156
H182	H	0.541527	0.728151	-0.630946
C183	C	0.335922	0.946290	-0.352202
H184	H	0.361570	0.903045	-0.303291
H185	H	0.339779	0.921026	-0.379130
H186	H	0.339817	0.992794	-0.379126
H187	H	0.321874	0.955540	0.072049
C188	C	0.222112	0.844047	-0.083322
H189	H	0.255514	0.832676	-0.077645
H190	H	0.203725	0.876627	-0.135520
H191	H	0.203729	0.876685	-0.063750
C192	C	0.139633	1.150458	-0.472978
H193	H	0.149635	1.165127	-0.516954
H194	H	0.119615	1.129221	-0.472978
H195	H	0.119621	1.201014	-0.472977
H196	H	-0.139830	0.900690	-0.111573
C197	C	0.382195	0.677370	-0.404903
H198	H	0.387679	0.677379	-0.448137
H199	H	0.383781	0.626605	-0.368901
H200	H	0.349116	0.728149	-0.419675
C201	C	0.589396	0.408445	-0.083221
H202	H	0.592774	0.379879	-0.106861
H203	H	0.571004	0.397827	-0.048982
H204	H	0.571012	0.469626	-0.120773
C205	C	0.335932	0.510731	0.083387
H206	H	0.361573	0.522095	0.077697
H207	H	0.339818	0.478122	0.135591
H208	H	0.339811	0.478126	0.063791
H209	H	0.413513	0.955558	-0.350108
H210	H	0.511819	0.399187	0.350254
C211	C	0.543140	0.677342	-0.730984
H212	H	0.537657	0.677332	-0.774210
H213	H	0.541552	0.728108	-0.745752
H214	H	0.576220	0.626564	-0.694969
H215	H	0.782061	0.281609	0.323854
C216	C	0.405752	0.408460	0.083398
H217	H	0.389606	0.379898	0.107017
H218	H	0.429137	0.397836	0.120953
H219	H	0.380112	0.469642	0.049135
H220	H	0.152304	1.131928	0.000029
C221	C	0.242988	1.082418	-0.488276
H222	H	0.209582	1.125648	-0.525819
H223	H	0.261374	1.107694	-0.493971
H224	H	0.261365	1.035897	-0.493961
H225	H	0.773059	0.222813	0.454635
C226	C	0.703228	0.408376	0.083471
H227	H	0.738882	0.379779	0.107109
H228	H	0.687097	0.469553	0.049234
H229	H	0.687098	0.397741	0.121025
H230	H	0.683718	0.281638	-0.071884
C231	C	-0.008509	0.923383	-0.122874
H232	H	0.024890	0.912025	-0.117181
H233	H	-0.026903	0.956030	-0.175081
H234	H	-0.026889	0.955947	-0.103241
C235	C	0.405759	0.272369	0.321775
H236	H	0.409648	0.229136	0.370695
H237	H	0.370109	0.318877	0.294846
H238	H	0.419149	0.247075	0.294865
C239	C	0.129198	1.082425	-0.083298
H240	H	0.103565	1.125652	-0.077607
H241	H	0.125307	1.107709	-0.135503
H242	H	0.125312	1.035909	-0.063694
H243	H	0.223529	0.955591	-0.071955
H244	H	0.511827	0.399185	-0.071882
H245	H	0.683766	0.281582	0.467856
C246	C	0.785672	0.204303	0.000117
H247	H	0.775651	0.189657	-0.029197
H248	H	0.805696	0.225526	-0.021122
H249	H	0.805686	0.153735	0.050676
C250	C	0.796136	0.272305	0.083458
H251	H	0.821769	0.229069	0.077777
H252	H	0.800030	0.318807	0.063877
H253	H	0.800019	0.247011	0.135666
H254	H	0.603476	0.399141	0.350300
H255	H	0.413535	1.073105	-0.467649
H256	H	0.413494	0.399179	0.206279
H257	H	0.413497	0.281651	0.072066
C258	C	0.222129	0.946318	-0.185542
H259	H	0.186477	0.974914	-0.190496
H260	H	0.238258	0.885143	-0.158605
H261	H	0.238268	0.956941	-0.158619
C262	C	0.519583	0.946247	-0.185484
H263	H	0.535728	0.974810	-0.190428
H264	H	0.496198	0.956871	-0.158559
H265	H	0.545224	0.885064	-0.158555
H266	H	0.462707	1.131849	-0.454401
C267	C	0.129211	1.082388	-0.321600
H268	H	0.132596	1.053789	-0.269389
H269	H	0.110820	1.143562	-0.345218
H270	H	0.110821	1.071771	-0.345233
H271	H	0.413504	-0.044463	0.072056
C272	C	0.405764	0.082339	0.083399
H273	H	0.409649	0.125561	0.077726
H274	H	0.370116	0.107623	0.063801
H275	H	0.419150	0.035811	0.135605
C276	C	0.243030	0.510709	0.083410
H277	H	0.278684	0.463454	0.107030
H278	H	0.226903	0.507396	0.120964
H279	H	0.226896	0.507409	0.049159
C280	C	0.519581	-0.053743	-0.083221
H281	H	0.515706	-0.096978	-0.077536
H282	H	0.506203	-0.007225	-0.135425
H283	H	0.555231	-0.079029	-0.063612
H284	H	0.393141	0.677362	-0.604201
H285	H	0.065180	0.454006	0.111784
C286	C	0.159502	0.431340	0.123113
H287	H	0.156122	0.384081	0.146752
H288	H	0.177892	0.428031	0.088872
H289	H	0.177889	0.428040	0.160665
H290	H	-0.217925	0.533340	0.072122
H291	H	-0.298202	0.533341	0.072118
H292	H	-0.396529	0.821311	-0.071884
H293	H	-0.087354	0.900709	-0.111574
C294	C	-0.317692	0.843998	-0.083226
H295	H	-0.353346	0.891253	-0.106863
H296	H	-0.301560	0.847311	-0.048987
H297	H	-0.301562	0.847300	-0.120780
H298	H	0.143257	0.821370	-0.071944
H299	H	0.012708	0.454000	0.111792
H300	H	0.532192	0.677348	-0.395623
C301	C	-0.234153	0.923358	-0.122894
H302	H	-0.230776	0.970618	-0.146522
H303	H	-0.252550	0.926669	-0.160442
H304	H	-0.252532	0.926650	-0.088635
H305	H	0.393138	0.677367	-0.721752
