data_functionalizedCrystal
_audit_creation_method	'MofGen! by Chris Wilmer'
_symmetry_space_group_name_H-M	'P1'
_symmetry_Int_Tables_number	1
_symmetry_cell_setting	triclinic
loop_
_symmetry_equiv_pos_as_xyz
  x,y,z
_cell_length_a	13.032831
_cell_length_b	12.759394
_cell_length_c	13.032268
_cell_angle_alpha	97.149444
_cell_angle_beta	90.886977
_cell_angle_gamma	82.819699
loop_
_atom_site_label
_atom_site_type_symbol
_atom_site_fract_x
_atom_site_fract_y
_atom_site_fract_z
Zn1	Zn	1.498516	-0.709531	-0.780836
Zn2	Zn	1.520266	-0.866066	-0.608856
Zn3	Zn	1.348372	-0.665642	-0.587076
Zn4	Zn	1.326514	-0.860386	-0.758981
O5	O	1.423417	-0.775406	-0.683937
O6	O	1.645323	-0.751041	-0.776283
O7	O	1.515714	-0.823489	-0.462050
O8	O	1.368334	-0.524452	-0.612811
O9	O	1.661303	-0.866047	-0.649930
O10	O	1.478644	-0.556698	-0.755165
O11	O	1.389424	-0.676238	-0.446049
O12	O	1.201551	-0.670730	-0.591619
O13	O	1.331080	-0.856365	-0.905797
O14	O	1.185492	-0.813807	-0.717916
O15	O	1.457449	-0.745533	-0.921853
O16	O	1.494519	-1.012324	-0.628738
O17	O	1.352170	-1.008150	-0.739035
C18	C	1.156204	-0.736890	-0.650033
C19	C	1.041886	-0.720441	-0.635554
C20	C	1.423358	-1.048362	-0.683904
C21	C	1.423423	-1.165151	-0.683937
C22	C	0.983013	-0.783991	-0.691494
C23	C	0.864859	-0.766992	-0.676530
C24	C	1.571737	-1.169469	-0.569196
C25	C	1.645919	-1.226494	-0.511841
C26	C	1.645976	-1.336227	-0.511877
C27	C	1.571844	-1.388938	-0.569276
C28	C	1.497662	-1.331913	-0.626631
C29	C	1.497612	-1.222177	-0.626586
C30	C	1.349354	-1.327597	-0.741376
C31	C	1.349291	-1.217862	-0.741336
C32	C	1.275223	-1.380309	-0.798775
C33	C	1.201034	-1.323282	-0.856125
C34	C	1.200980	-1.213542	-0.856086
C35	C	1.275109	-1.160838	-0.798690
C36	C	1.691673	-0.814073	-0.717974
C37	C	1.805988	-0.830551	-0.732478
C38	C	1.389400	-0.805211	-0.952184
C39	C	1.374904	-0.817912	-1.066495
C40	C	1.423501	-0.501391	-0.683996
C41	C	1.423537	-0.384622	-0.684021
C42	C	1.430966	-0.768737	-1.125403
C43	C	1.415986	-0.781863	-1.243550
C44	C	1.457360	-0.745650	-0.416741
C45	C	1.472056	-0.732682	-0.302456
H46	H	1.020082	-0.850981	-0.750469
O47	O	0.820677	-0.686935	-0.606286
C48	C	0.793940	-0.497915	-0.552460
C49	C	0.844016	-0.588468	-0.632095
H50	H	0.812810	-0.418285	-0.573286
H51	H	0.706515	-0.498360	-0.552934
H52	H	0.825486	-0.510079	-0.472152
H53	H	0.812553	-0.576366	-0.712442
H54	H	0.931438	-0.587997	-0.631530
O55	O	0.850366	-0.910456	-0.802764
C56	C	1.008581	-1.000181	-0.881842
C57	C	0.958461	-0.909669	-0.802191
H58	H	1.095982	-0.999561	-0.881421
H59	H	0.989894	-1.079872	-0.861000
H60	H	0.976954	-0.988072	-0.962133
H61	H	0.990060	-0.921677	-0.721872
H62	H	0.977143	-0.830011	-0.823122
H63	H	1.531142	-0.680853	-1.265427
O64	O	1.129077	-1.374641	-0.911785
C65	C	1.063485	-1.541799	-0.962755
C66	C	1.145022	-1.483760	-0.899657
H67	H	1.076362	-1.630035	-0.952989
H68	H	0.982831	-1.506426	-0.934101
H69	H	1.070944	-1.531907	-1.047959
H70	H	1.137659	-1.493630	-0.814441
H71	H	1.225644	-1.519144	-0.928397
H72	H	1.315810	-0.869722	-1.103529
H73	H	1.004816	-0.653444	-0.576587
H74	H	1.140575	-1.167119	-0.902796
H75	H	1.571687	-1.080115	-0.569147
O76	O	1.717826	-1.175116	-0.456106
C77	C	1.783512	-1.007990	-0.405237
C78	C	1.702004	-1.066031	-0.468380
H79	H	1.770762	-0.919788	-0.415156
H80	H	1.776039	-1.017731	-0.319998
H81	H	1.864133	-1.043508	-0.433871
H82	H	1.621347	-1.030552	-0.439836
H83	H	1.709568	-1.056295	-0.553609
H84	H	1.490050	-0.716915	-1.088369
O85	O	1.345568	-0.843690	-1.287888
C86	C	1.266367	-0.913059	-1.446063
C87	C	1.346162	-0.843029	-1.395986
H88	H	1.266804	-0.912530	-1.533465
H89	H	1.287051	-0.998081	-1.427352
H90	H	1.186110	-0.880346	-1.414424
H91	H	1.426446	-0.875647	-1.427595
H92	H	1.325389	-0.758017	-1.414690
H93	H	1.706386	-1.382658	-0.465180
H94	H	1.275278	-1.469661	-0.798805
H95	H	1.571905	-1.478291	-0.569310
H96	H	1.275066	-1.071485	-0.798646
