data_functionalizedCrystal
_audit_creation_method	'MofGen! by Chris Wilmer'
_symmetry_space_group_name_H-M	'P1'
_symmetry_Int_Tables_number	1
_symmetry_cell_setting	triclinic
loop_
_symmetry_equiv_pos_as_xyz
  x,y,z
_cell_length_a	10.489716
_cell_length_b	10.540539
_cell_length_c	9.016244
_cell_angle_alpha	90.000067
_cell_angle_beta	89.993013
_cell_angle_gamma	95.472686
loop_
_atom_site_label
_atom_site_type_symbol
_atom_site_fract_x
_atom_site_fract_y
_atom_site_fract_z
O1	O	1.694056	-0.178949	-0.123321
O2	O	1.322854	-0.195793	-0.123326
O3	O	1.516924	-0.002665	-0.123321
O4	O	1.499986	-0.372077	-0.123325
O5	O	1.516895	-0.002669	0.123360
O6	O	1.322826	-0.195797	0.123355
O7	O	1.694028	-0.178953	0.123360
Cu8	Cu	1.508424	-0.187376	0.145881
Cu9	Cu	1.508458	-0.187371	-0.145847
O10	O	1.499958	-0.372082	0.123356
C11	C	1.275308	-0.194530	0.000014
C12	C	1.133678	-0.190743	0.000012
C13	C	1.035989	-0.309176	0.000007
C14	C	0.958637	-0.246596	0.121641
C15	C	0.958672	-0.246563	-0.121567
C16	C	1.058191	-0.128213	0.121746
C17	C	1.058231	-0.128198	-0.121571
C18	C	0.980927	-0.065531	0.000093
C19	C	1.515639	0.044636	0.000016
C20	C	1.511839	0.185584	0.000008
C21	C	1.741574	-0.180217	0.000017
C22	C	1.883204	-0.184003	0.000009
C23	C	1.501242	-0.419383	0.000015
C24	C	1.505043	-0.560331	0.000013
N25	N	1.508410	-0.187379	0.351068
C26	C	1.366221	0.369016	-0.000547
C27	C	1.370073	0.222397	0.000008
C28	C	1.580047	0.247237	0.140876
C29	C	1.575209	0.393782	0.140995
C30	C	1.578125	0.394305	-0.139527
C31	C	1.579431	0.247323	-0.141390
N32	N	1.508482	-0.187358	-0.351033
C33	C	1.404277	-0.290343	0.586098
C34	C	1.404507	-0.290729	0.414207
C35	C	1.641775	-0.217516	0.413407
C36	C	1.641207	-0.218246	0.585352
C37	C	1.480501	-0.053939	0.585612
C38	C	1.477441	-0.054804	0.413658
H39	H	0.915194	-0.296581	-0.224384
H40	H	1.682790	0.223098	-0.149895
Br41	Br	1.280619	0.151387	-0.168299
H42	H	1.101501	-0.078248	0.224680
Br43	Br	1.434425	-0.455727	0.345611
Br44	Br	1.272892	0.416682	-0.168923
Br45	Br	1.501660	0.446881	-0.317485
Br46	Br	1.496960	0.178404	-0.315111
H47	H	1.684156	0.224880	0.146115
H48	H	0.956509	0.037562	0.000164
H49	H	1.305413	-0.272594	0.372062
H50	H	1.101744	-0.078239	-0.224406
H51	H	1.666794	-0.313755	0.370329
Br52	Br	1.321808	-0.006157	0.657972
Br53	Br	1.272967	0.419970	0.166366
Br54	Br	1.745135	0.473734	0.151667
Br55	Br	1.077101	-0.480873	0.000191
Br56	Br	1.279943	0.152788	0.168587
Br57	Br	1.774184	-0.095909	0.345249
H58	H	1.524776	0.421981	0.246295
Br59	Br	1.501042	0.176241	0.315603
H60	H	1.680522	0.441528	-0.140473
H61	H	1.304872	-0.272487	0.627490
H62	H	1.548310	0.025515	0.370684
H63	H	1.556479	0.022713	0.626266
H64	H	1.422029	-0.388767	0.629290
Br65	Br	1.681996	-0.380481	0.652178
H66	H	1.721235	-0.146259	0.626937
H67	H	0.915136	-0.296593	0.224470
Br68	Br	1.313914	-0.016724	0.345757
