data_functionalizedCrystal
_audit_creation_method	'MofGen! by Chris Wilmer'
_symmetry_space_group_name_H-M	'P1'
_symmetry_Int_Tables_number	1
_symmetry_cell_setting	triclinic
loop_
_symmetry_equiv_pos_as_xyz
  x,y,z
_cell_length_a	19.805407
_cell_length_b	16.120444
_cell_length_c	19.805399
_cell_angle_alpha	87.128215
_cell_angle_beta	90.017803
_cell_angle_gamma	92.923874
loop_
_atom_site_label
_atom_site_type_symbol
_atom_site_fract_x
_atom_site_fract_y
_atom_site_fract_z
Zn1	Zn	1.021068	-0.331988	0.396351
Zn2	Zn	1.271068	-0.081988	0.646351
Zn3	Zn	1.521068	0.168012	0.896351
Zn4	Zn	1.771068	0.418012	1.146351
Zn5	Zn	1.015243	-0.471406	0.288901
Zn6	Zn	1.265243	-0.221406	0.538901
Zn7	Zn	1.515243	0.028594	0.788901
Zn8	Zn	1.765243	0.278594	1.038901
Zn9	Zn	0.907882	-0.332004	0.283180
Zn10	Zn	1.157882	-0.082004	0.533180
Zn11	Zn	1.407882	0.167996	0.783180
Zn12	Zn	1.657882	0.417996	1.033180
Zn13	Zn	0.902108	-0.471356	0.402049
Zn14	Zn	1.152108	-0.221356	0.652049
Zn15	Zn	1.402108	0.028644	0.902049
Zn16	Zn	1.652108	0.278644	1.152049
O17	O	0.961575	-0.401688	0.342621
O18	O	1.211575	-0.151688	0.592621
O19	O	1.461575	0.098312	0.842621
O20	O	1.711575	0.348312	1.092621
O21	O	1.115011	-0.350496	0.382108
O22	O	1.365011	-0.100496	0.632108
O23	O	1.615011	0.149504	0.882108
O24	O	1.865011	0.399504	1.132108
O25	O	1.000980	-0.452943	0.193427
O26	O	1.250980	-0.202943	0.443427
O27	O	1.500980	0.047057	0.693427
O28	O	1.750980	0.297057	0.943427
O29	O	0.927750	-0.215336	0.293414
O30	O	1.177750	0.034664	0.543414
O31	O	1.427750	0.284664	0.793414
O32	O	1.677750	0.534664	1.043414
O33	O	1.110732	-0.452927	0.303164
O34	O	1.360732	-0.202927	0.553164
O35	O	1.610732	0.047073	0.803164
O36	O	1.860732	0.297073	1.053164
O37	O	1.010908	-0.215324	0.376560
O38	O	1.260908	0.034676	0.626560
O39	O	1.510908	0.284676	0.876560
O40	O	1.760908	0.534676	1.126560
O41	O	0.922102	-0.350524	0.189224
O42	O	1.172102	-0.100524	0.439224
O43	O	1.422102	0.149476	0.689224
O44	O	1.672102	0.399476	0.939224
O45	O	0.812400	-0.350475	0.298939
O46	O	1.062400	-0.100475	0.548939
O47	O	1.312400	0.149525	0.798939
O48	O	1.562400	0.399525	1.048939
O49	O	0.917910	-0.452840	0.496009
O50	O	1.167910	-0.202840	0.746009
O51	O	1.417910	0.047160	0.996009
O52	O	1.667910	0.297160	1.246009
O53	O	0.808158	-0.452856	0.386272
O54	O	1.058158	-0.202856	0.636272
O55	O	1.308158	0.047144	0.886272
O56	O	1.558158	0.297144	1.136272
O57	O	1.005309	-0.350447	0.491823
O58	O	1.255309	-0.100447	0.741823
O59	O	1.505309	0.149553	0.991823
O60	O	1.755309	0.399553	1.241823
O61	O	0.995381	-0.588066	0.308690
O62	O	1.245381	-0.338066	0.558690
O63	O	1.495381	-0.088066	0.808690
O64	O	1.745381	0.161934	1.058690
O65	O	0.912262	-0.588029	0.391819
O66	O	1.162262	-0.338029	0.641819
O67	O	1.412262	-0.088029	0.891819
O68	O	1.662262	0.161971	1.141819
C69	C	0.785720	-0.401662	0.342603
C70	C	1.035720	-0.151662	0.592603
C71	C	1.285720	0.098338	0.842603
C72	C	1.535720	0.348338	1.092603
C73	C	0.710488	-0.401671	0.342612
C74	C	0.960488	-0.151671	0.592612
C75	C	1.210488	0.098329	0.842612
C76	C	1.460488	0.348329	1.092612
C77	C	0.677369	-0.348430	0.383788
C78	C	0.927369	-0.098430	0.633788
C79	C	1.177369	0.151570	0.883788
C80	C	1.427369	0.401570	1.133788
C81	C	0.606680	-0.348435	0.383791
C82	C	0.856680	-0.098435	0.633791
C83	C	1.106680	0.151565	0.883791
C84	C	1.356680	0.401565	1.133791
C85	C	0.569112	-0.401685	0.342621
C86	C	0.819112	-0.151685	0.592621
C87	C	1.069112	0.098315	0.842621
C88	C	1.319112	0.348315	1.092621
C89	C	0.602236	-0.454928	0.301441
C90	C	0.852236	-0.204928	0.551441
C91	C	1.102236	0.045072	0.801441
C92	C	1.352236	0.295072	1.051441
C93	C	0.672923	-0.454919	0.301435
C94	C	0.922923	-0.204919	0.551435
C95	C	1.172923	0.045081	0.801435
C96	C	1.422923	0.295081	1.051435
C97	C	0.317161	-0.454966	0.301463
C98	C	0.567161	-0.204966	0.551463
C99	C	0.817161	0.045034	0.801463
C100	C	1.067161	0.295034	1.051463
C101	C	0.246468	-0.454973	0.301474
C102	C	0.496468	-0.204973	0.551474
C103	C	0.746468	0.045027	0.801474
C104	C	0.996468	0.295027	1.051474
C105	C	0.250918	-0.348481	0.383819
C106	C	0.500918	-0.098481	0.633819
C107	C	0.750918	0.151519	0.883819
C108	C	1.000918	0.401519	1.133819
C109	C	0.321605	-0.348472	0.383813
C110	C	0.571605	-0.098472	0.633813
C111	C	0.821605	0.151528	0.883813
C112	C	1.071605	0.401528	1.133813
C113	C	0.354723	-0.401712	0.342631
C114	C	0.604723	-0.151712	0.592631
C115	C	0.854723	0.098288	0.842631
C116	C	1.104723	0.348288	1.092631
C117	C	0.431372	-0.401706	0.342627
C118	C	0.681372	-0.151706	0.592627
C119	C	0.931372	0.098294	0.842627
C120	C	1.181372	0.348294	1.092627
C121	C	0.492464	-0.401696	0.342628
C122	C	0.742464	-0.151696	0.592628
C123	C	0.992464	0.098304	0.842628
C124	C	1.242464	0.348304	1.092628
C125	C	0.952581	-0.618298	0.351508
C126	C	1.202581	-0.368298	0.601508
C127	C	1.452581	-0.118298	0.851508
C128	C	1.702581	0.131702	1.101508
C129	C	0.948796	-0.710964	0.355333
C130	C	1.198796	-0.460964	0.605333
C131	C	1.448796	-0.210964	0.855333
C132	C	1.698796	0.039036	1.105333
C133	C	0.981379	-0.921905	0.322925
C134	C	1.231379	-0.671905	0.572925
C135	C	1.481379	-0.421905	0.822925
C136	C	1.731379	-0.171905	1.072925
C137	C	0.941897	-0.880621	0.362323
C138	C	1.191897	-0.630621	0.612323
C139	C	1.441897	-0.380621	0.862323
C140	C	1.691897	-0.130621	1.112323
C141	C	0.945736	-0.786215	0.358433
C142	C	1.195736	-0.536215	0.608433
C143	C	1.445736	-0.286215	0.858433
C144	C	1.695736	-0.036215	1.108433
C145	C	0.977540	-1.016319	0.326815
C146	C	1.227540	-0.766319	0.576815
C147	C	1.477540	-0.516319	0.826815
C148	C	1.727540	-0.266319	1.076815
C149	C	1.138117	-0.401715	0.342639
C150	C	1.388117	-0.151715	0.592639
C151	C	1.638117	0.098285	0.842639
C152	C	1.888117	0.348285	1.092639
C153	C	1.213348	-0.401727	0.342646
C154	C	1.463348	-0.151727	0.592646
C155	C	1.713348	0.098273	0.842646
C156	C	1.963348	0.348273	1.092646
C157	C	0.961615	-0.401636	0.519161
C158	C	1.211615	-0.151636	0.769161
C159	C	1.461615	0.098364	1.019161
C160	C	1.711615	0.348364	1.269161
C161	C	0.961632	-0.401614	0.594392
C162	C	1.211632	-0.151614	0.844392
C163	C	1.461632	0.098386	1.094392
C164	C	1.711632	0.348386	1.344392
C165	C	0.970623	-0.184234	0.333713
C166	C	1.220623	0.065766	0.583713
C167	C	1.470623	0.315766	0.833713
C168	C	1.720623	0.565766	1.083713
C169	C	0.974478	-0.091567	0.329917
C170	C	1.224478	0.158433	0.579917
C171	C	1.474478	0.408433	0.829917
C172	C	1.724478	0.658433	1.079917
C173	C	0.961577	-0.401681	0.166764
C174	C	1.211577	-0.151681	0.416764
C175	C	1.461577	0.098319	0.666764
C176	C	1.711577	0.348319	0.916764
C177	C	0.961700	-0.401468	0.091524
C178	C	1.211700	-0.151468	0.341524
C179	C	1.461700	0.098532	0.591524
C180	C	1.711700	0.348532	0.841524
C181	C	1.007142	-0.348295	0.627558
C182	C	1.257142	-0.098295	0.877558
C183	C	1.507142	0.151705	1.127558
C184	C	1.757142	0.401705	1.377558
C185	C	1.007150	-0.348271	0.698245
C186	C	1.257150	-0.098271	0.948245
C187	C	1.507150	0.151729	1.198245
C188	C	1.757150	0.401729	1.448245
C189	C	0.961651	-0.401570	0.735766
C190	C	1.211651	-0.151570	0.985766
C191	C	1.461651	0.098430	1.235766
C192	C	1.711651	0.348430	1.485766
C193	C	0.916136	-0.454891	0.702596
C194	C	1.166136	-0.204891	0.952596
C195	C	1.416136	0.045109	1.202596
C196	C	1.666136	0.295109	1.452596
C197	C	0.916126	-0.454910	0.631910
C198	C	1.166126	-0.204910	0.881910
C199	C	1.416126	0.045090	1.131910
C200	C	1.666126	0.295090	1.381910
C201	C	0.916178	-0.454813	0.987666
C202	C	1.166178	-0.204813	1.237666
C203	C	1.416178	0.045187	1.487666
C204	C	1.666178	0.295187	1.737666
C205	C	0.916193	-0.454792	1.058357
C206	C	1.166193	-0.204792	1.308357
C207	C	1.416193	0.045208	1.558357
C208	C	1.666193	0.295208	1.808357
C209	C	1.007202	-0.348174	1.054002
C210	C	1.257202	-0.098174	1.304002
C211	C	1.507202	0.151826	1.554002
C212	C	1.757202	0.401826	1.804002
C213	C	1.007192	-0.348193	0.983315
C214	C	1.257192	-0.098193	1.233315
C215	C	1.507192	0.151807	1.483315
C216	C	1.757192	0.401807	1.733315
C217	C	0.961675	-0.401511	0.950151
C218	C	1.211675	-0.151511	1.200151
C219	C	1.461675	0.098489	1.450151
C220	C	1.711675	0.348489	1.700151
C221	C	0.961666	-0.401535	0.873504
C222	C	1.211666	-0.151535	1.123504
C223	C	1.461666	0.098465	1.373504
C224	C	1.711666	0.348465	1.623504
C225	C	0.961663	-0.401550	0.812413
C226	C	1.211663	-0.151550	1.062413
C227	C	1.461663	0.098450	1.312413
C228	C	1.711663	0.348450	1.562413
H229	H	0.707952	-0.305070	0.417315
H230	H	0.957952	-0.055070	0.667315
H231	H	1.207952	0.194930	0.917315
H232	H	1.457952	0.444930	1.167315
F233	F	0.571436	-0.291770	0.427617
F234	F	0.821436	-0.041770	0.677617
F235	F	1.071436	0.208230	0.927617
F236	F	1.321436	0.458230	1.177617
H237	H	1.018062	-0.886352	0.286275
H238	H	1.268062	-0.636352	0.536275
H239	H	1.518062	-0.386352	0.786275
H240	H	1.768062	-0.136352	1.036275
H241	H	1.044244	-0.304794	0.952769
H242	H	1.294244	-0.054794	1.202769
H243	H	1.544244	0.195206	1.452769
H244	H	1.794244	0.445206	1.702769
F245	F	0.867686	-0.511657	0.596613
F246	F	1.117686	-0.261657	0.846613
F247	F	1.367686	-0.011657	1.096613
F248	F	1.617686	0.238343	1.346613
F249	F	0.893943	-0.927093	0.410229
F250	F	1.143943	-0.677093	0.660229
F251	F	1.393943	-0.427093	0.910229
F252	F	1.643943	-0.177093	1.160229
H253	H	1.044262	-0.304757	1.081012
H254	H	1.294262	-0.054757	1.331012
H255	H	1.544262	0.195243	1.581012
H256	H	1.794262	0.445243	1.831012
H257	H	0.352190	-0.305113	0.417340
H258	H	0.602190	-0.055113	0.667340
H259	H	0.852190	0.194887	0.917340
H260	H	1.102190	0.444887	1.167340
F261	F	0.215666	-0.291816	0.427648
F262	F	0.465666	-0.041816	0.677648
F263	F	0.715666	0.208184	0.927648
F264	F	0.965666	0.458184	1.177648
H265	H	0.571642	-0.498282	0.267917
H266	H	0.821642	-0.248282	0.517917
H267	H	1.071642	0.001718	0.767917
H268	H	1.321642	0.251718	1.017917
H269	H	1.044195	-0.304895	0.597013
H270	H	1.294195	-0.054895	0.847013
H271	H	1.544195	0.195105	1.097013
H272	H	1.794195	0.445105	1.347013
H273	H	0.215882	-0.498338	0.267946
H274	H	0.465882	-0.248338	0.517946
H275	H	0.715882	0.001662	0.767946
H276	H	0.965882	0.251662	1.017946
H277	H	1.044210	-0.304855	0.725245
H278	H	1.294210	-0.054855	0.975245
H279	H	1.544210	0.195145	1.225245
H280	H	1.794210	0.445145	1.475245
F281	F	0.708170	-0.511586	0.257611
F282	F	0.958170	-0.261586	0.507611
F283	F	1.208170	-0.011586	0.757611
F284	F	1.458170	0.238414	1.007611
F285	F	0.867764	-0.511522	1.098289
F286	F	1.117764	-0.261522	1.348289
F287	F	1.367764	-0.011522	1.598289
F288	F	1.617764	0.238478	1.848289
F289	F	0.352399	-0.511614	0.257621
F290	F	0.602399	-0.261614	0.507621
F291	F	0.852399	-0.011614	0.757621
F292	F	1.102399	0.238386	1.007621
H293	H	0.879125	-0.498240	0.960673
H294	H	1.129125	-0.248240	1.210673
H295	H	1.379125	0.001760	1.460673
H296	H	1.629125	0.251760	1.710673
H297	H	0.879088	-0.498285	0.733151
H298	H	1.129088	-0.248285	0.983151
H299	H	1.379088	0.001715	1.233151
H300	H	1.629088	0.251715	1.483151
