data_functionalizedCrystal
_audit_creation_method	'MofGen! by Chris Wilmer'
_symmetry_space_group_name_H-M	'P1'
_symmetry_Int_Tables_number	1
_symmetry_cell_setting	triclinic
loop_
_symmetry_equiv_pos_as_xyz
  x,y,z
_cell_length_a	31.640172
_cell_length_b	14.560438
_cell_length_c	31.640172
_cell_angle_alpha	60.000394
_cell_angle_beta	89.999972
_cell_angle_gamma	59.993358
loop_
_atom_site_label
_atom_site_type_symbol
_atom_site_fract_x
_atom_site_fract_y
_atom_site_fract_z
Zr1	Zr	0.407170	1.005197	-0.055475
Zr2	Zr	0.907170	1.505197	0.444525
O3	O	0.339672	1.196828	-0.122959
O4	O	0.839672	1.696828	0.377041
O5	O	0.427862	0.813587	-0.034788
O6	O	0.927862	1.313587	0.465212
O7	O	0.427849	1.005208	-0.122965
O8	O	0.927849	1.505208	0.377035
O9	O	0.339694	1.005191	0.034773
O10	O	0.839694	1.505191	0.534773
O11	O	0.497406	1.005192	-0.122967
O12	O	0.997406	1.505192	0.377033
O13	O	0.339684	1.005207	-0.034783
O14	O	0.839684	1.505207	0.465217
O15	O	0.497428	0.662417	0.034764
O16	O	0.997428	1.162417	0.534764
O17	O	0.339672	1.347966	-0.122958
O18	O	0.839672	1.847966	0.377042
O19	O	0.488596	0.892379	-0.025966
O20	O	0.988596	1.392379	0.474034
O21	O	0.436694	0.892379	0.025945
O22	O	0.936694	1.392379	0.525945
O23	O	0.436680	1.117988	-0.077872
O24	O	0.936680	1.617988	0.422128
O25	O	0.384778	1.117987	-0.025960
O26	O	0.884778	1.617987	0.474040
Zr27	Zr	0.518120	1.005146	0.055455
Zr28	Zr	1.018120	1.505146	0.555455
Zr29	Zr	0.518104	1.005172	-0.055479
Zr30	Zr	1.018104	1.505172	0.444521
Zr31	Zr	0.407186	1.005171	0.055459
Zr32	Zr	0.907186	1.505171	0.555459
Zr33	Zr	0.407170	1.246244	-0.055473
Zr34	Zr	0.907170	1.746244	0.444527
Zr35	Zr	0.518120	0.764099	0.055453
Zr36	Zr	1.018120	1.264099	0.555453
O37	O	0.497429	1.196756	0.034769
O38	O	0.997429	1.696756	0.534769
O39	O	0.497406	1.196793	-0.122966
O40	O	0.997406	1.696793	0.377034
O41	O	0.339694	1.196792	0.034775
O42	O	0.839694	1.696792	0.534775
O43	O	0.585619	0.813515	0.122940
O44	O	1.085619	1.313515	0.622940
O45	O	0.585596	0.813551	-0.034795
O46	O	1.085596	1.313551	0.465205
O47	O	0.427885	0.813550	0.122946
O48	O	0.927885	1.313550	0.622946
O49	O	0.585596	1.005152	-0.034793
O50	O	1.085596	1.505152	0.465207
O51	O	0.497441	1.005135	0.122945
O52	O	0.997441	1.505135	0.622945
O53	O	0.427885	1.005151	0.122948
O54	O	0.927885	1.505151	0.622948
O55	O	0.585606	1.005136	0.034763
O56	O	1.085606	1.505136	0.534763
O57	O	0.427850	1.347946	-0.122962
O58	O	0.927850	1.847946	0.377038
O59	O	0.497441	0.662397	0.122942
O60	O	0.997441	1.162397	0.622942
O61	O	0.585619	0.662377	0.122938
O62	O	1.085619	1.162377	0.622938
O63	O	0.585606	0.662397	0.034760
O64	O	1.085606	1.162397	0.534760
O65	O	0.339685	1.347946	-0.034780
O66	O	0.839685	1.847946	0.465220
O67	O	0.427862	1.347926	-0.034784
O68	O	0.927862	1.847926	0.465216
O69	O	0.488611	0.892355	0.077852
O70	O	0.988611	1.392355	0.577852
O71	O	0.540512	0.892356	0.025941
O72	O	1.040512	1.392356	0.525941
O73	O	0.488596	1.117964	-0.025965
O74	O	0.988596	1.617964	0.474035
O75	O	0.436695	1.117964	0.025947
O76	O	0.936695	1.617964	0.525947
C77	C	0.462645	0.703658	-0.000013
C78	C	0.962645	1.203658	0.499987
C79	C	0.462645	0.601327	-0.000013
C80	C	0.962645	1.101327	0.499987
C81	C	0.323883	1.005202	-0.000004
C82	C	0.823883	1.505202	0.499996
C83	C	0.276789	1.005213	-0.000002
C84	C	0.776789	1.505213	0.499998
C85	C	0.489736	0.553251	-0.027111
C86	C	0.989736	1.053251	0.472889
C87	C	0.489738	0.457091	-0.027106
C88	C	0.989738	0.957091	0.472894
C89	C	0.435554	0.457096	0.027094
C90	C	0.935554	0.957096	0.527094
C91	C	0.435555	0.553247	0.027092
C92	C	0.935555	1.053247	0.527092
C93	C	0.546917	0.272157	-0.035032
C94	C	1.046917	0.772157	0.464968
C95	C	0.574003	0.224094	-0.062138
C96	C	1.074003	0.724094	0.437862
C97	C	0.573285	0.308833	-0.110696
C98	C	1.073285	0.808833	0.389304
C99	C	0.545473	0.441657	-0.132160
C100	C	1.045473	0.941657	0.367840
C101	C	0.518384	0.489724	-0.105057
C102	C	1.018384	0.989724	0.394943
C103	C	0.519112	0.404964	-0.056490
C104	C	1.019112	0.904964	0.443510
C105	C	0.378374	0.738191	0.035013
C106	C	0.878374	1.238191	0.535013
C107	C	0.351281	0.786266	0.062112
C108	C	0.851281	1.286266	0.562112
C109	C	0.351993	0.701534	0.110671
C110	C	0.851993	1.201534	0.610671
C111	C	0.379796	0.568721	0.132131
C112	C	0.879796	1.068721	0.632131
C113	C	0.406889	0.520646	0.105031
C114	C	0.906889	1.020646	0.605031
C115	C	0.406177	0.605383	0.056474
C116	C	0.906177	1.105383	0.556474
C117	C	-0.015222	1.005157	-0.038328
C118	C	0.484778	1.505157	0.461672
C119	C	-0.192208	1.005141	-0.038332
C120	C	0.307792	1.505141	0.461668
O121	O	-0.215086	1.005091	-0.070908
O122	O	0.284914	1.505091	0.429092
N123	N	-0.214334	1.005134	-0.000013
N124	N	0.285666	1.505134	0.499987
C125	C	-0.192207	1.005124	0.038311
C126	C	0.307793	1.505124	0.538311
O127	O	-0.215084	1.005105	0.070906
O128	O	0.284916	1.505105	0.570906
C129	C	-0.015220	1.005131	0.038317
C130	C	0.484780	1.505131	0.538317
C131	C	0.006900	1.005150	-0.000008
C132	C	0.506900	1.505150	0.499992
C133	C	0.006898	1.005175	-0.076649
C134	C	0.506898	1.505175	0.423351
C135	C	0.051141	1.005186	-0.076649
C136	C	0.551141	1.505186	0.423351
C137	C	0.073263	1.005179	-0.038329
C138	C	0.573263	1.505179	0.461671
C139	C	0.051143	1.005161	-0.000008
C140	C	0.551143	1.505161	0.499992
C141	C	0.006908	1.005111	0.076643
C142	C	0.506908	1.505111	0.576643
C143	C	0.051158	1.005109	0.076641
C144	C	0.551158	1.505109	0.576641
C145	C	0.073278	1.005129	0.038317
C146	C	0.573278	1.505129	0.538317
C147	C	0.117507	1.005166	0.038312
C148	C	0.617507	1.505166	0.538312
N149	N	0.139632	1.005172	-0.000006
N150	N	0.639632	1.505172	0.499994
C151	C	0.117510	1.005179	-0.038327
C152	C	0.617510	1.505179	0.461673
C153	C	-0.285129	1.005123	0.038305
C154	C	0.214871	1.505123	0.538305
C155	C	-0.329376	1.005123	0.038303
C156	C	0.170624	1.505123	0.538303
C157	C	-0.329374	1.005138	-0.038339
C158	C	0.170626	1.505138	0.461661
C159	C	-0.285128	1.005146	-0.038339
C160	C	0.214872	1.505146	0.461661
C161	C	-0.263004	1.005129	-0.000014
C162	C	0.236996	1.505129	0.499986
C163	C	0.210422	1.005203	-0.038325
C164	C	0.710422	1.505203	0.461675
C165	C	0.254667	1.005220	-0.038323
C166	C	0.754667	1.505220	0.461677
C167	C	0.254662	1.005198	0.038321
C168	C	0.754662	1.505198	0.538321
C169	C	0.210419	1.005189	0.038318
C170	C	0.710419	1.505189	0.538318
C171	C	0.188301	1.005187	-0.000008
C172	C	0.688301	1.505187	0.499992
O173	O	0.140415	1.005201	0.070875
O174	O	0.640415	1.505201	0.570875
O175	O	0.140401	1.005169	-0.070911
O176	O	0.640401	1.505169	0.429089
C177	C	-0.059464	1.005146	-0.038328
C178	C	0.440536	1.505146	0.461672
C179	C	-0.081584	1.005128	-0.000007
C180	C	0.418416	1.505128	0.499993
C181	C	-0.059462	1.005121	0.038313
C182	C	0.440538	1.505121	0.538313
C183	C	-0.125832	1.005128	-0.000009
C184	C	0.374168	1.505128	0.499991
C185	C	-0.147954	1.005135	-0.038329
C186	C	0.352046	1.505135	0.461671
C187	C	-0.125829	1.005141	-0.076648
C188	C	0.374171	1.505141	0.423352
C189	C	-0.081586	1.005153	-0.076648
C190	C	0.418414	1.505153	0.423352
C191	C	-0.081587	1.005115	0.076632
C192	C	0.418413	1.505115	0.576632
C193	C	-0.125830	1.005105	0.076629
C194	C	0.374170	1.505105	0.576629
C195	C	-0.147952	1.005112	0.038308
C196	C	0.352048	1.505112	0.538308
C197	C	0.601407	1.005140	-0.000015
C198	C	1.101407	1.505140	0.499985
C199	C	0.648501	1.005130	-0.000017
C200	C	1.148501	1.505130	0.499983
C201	C	0.462625	1.005204	-0.138772
C202	C	0.962625	1.505204	0.361228
C203	C	0.462618	1.005214	-0.185866
C204	C	0.962618	1.505214	0.314134
C205	C	0.462645	1.306685	-0.000007
C206	C	0.962645	1.806685	0.499993
C207	C	0.462646	1.409016	-0.000006
C208	C	0.962646	1.909016	0.499994
C209	C	0.500974	1.005140	-0.477873
C210	C	1.000974	1.505140	0.022127
C211	C	0.500985	1.005122	-0.654859
C212	C	1.000985	1.505122	-0.154859
O213	O	0.533588	1.005057	-0.677733
O214	O	1.033588	1.505057	-0.177733
N215	N	0.462666	1.005134	-0.676989
N216	N	0.962666	1.505134	-0.176989
C217	C	0.424342	1.005140	-0.654866
C218	C	0.924342	1.505140	-0.154866
O219	O	0.391752	1.005136	-0.677746
O220	O	0.891752	1.505136	-0.177746
C221	C	0.424333	1.005148	-0.477879
C222	C	0.924333	1.505148	0.022121
C223	C	0.462653	1.005150	-0.455755
C224	C	0.962653	1.505150	0.044245
C225	C	0.539290	1.005140	-0.455749
C226	C	1.039290	1.505140	0.044251
C227	C	0.539286	1.005152	-0.411507
C228	C	1.039286	1.505152	0.088493
C229	C	0.500964	1.005162	-0.389389
C230	C	1.000964	1.505162	0.110611
C231	C	0.462648	1.005162	-0.411513
C232	C	0.962648	1.505162	0.088487
C233	C	0.386013	1.005146	-0.455755
C234	C	0.886013	1.505146	0.044245
C235	C	0.386015	1.005144	-0.411505
C236	C	0.886015	1.505144	0.088495
C237	C	0.424334	1.005147	-0.389381
C238	C	0.924334	1.505147	0.110619
C239	C	0.424322	1.005184	-0.345152
C240	C	0.924322	1.505184	0.154848
N241	N	0.462641	1.005173	-0.323023
N242	N	0.962641	1.505173	0.176977
C243	C	0.500963	1.005162	-0.345141
C244	C	1.000963	1.505162	0.154859
C245	C	0.424349	1.005139	-0.747788
C246	C	0.924349	1.505139	-0.247788
C247	C	0.424351	1.005139	-0.792035
C248	C	0.924351	1.505139	-0.292035
C249	C	0.500995	1.005119	-0.792025
C250	C	1.000995	1.505119	-0.292025
C251	C	0.500990	1.005128	-0.747779
C252	C	1.000990	1.505128	-0.247779
C253	C	0.462669	1.005128	-0.725659
C254	C	0.962669	1.505128	-0.225659
C255	C	0.500949	1.005187	-0.252230
C256	C	1.000949	1.505187	0.247770
C257	C	0.500940	1.005204	-0.207985
C258	C	1.000940	1.505204	0.292015
C259	C	0.424298	1.005217	-0.207997
C260	C	0.924298	1.505217	0.292003
C261	C	0.424305	1.005207	-0.252240
C262	C	0.924305	1.505207	0.247760
C263	C	0.462636	1.005188	-0.274354
C264	C	0.962636	1.505188	0.225646
O265	O	0.391739	1.005234	-0.322248
O266	O	0.891739	1.505234	0.177752
O267	O	0.533554	1.005137	-0.322247
O268	O	1.033554	1.505137	0.177753
C269	C	0.500979	1.005128	-0.522115
C270	C	1.000979	1.505128	-0.022115
C271	C	0.462662	1.005128	-0.544240
C272	C	0.962662	1.505128	-0.044240
C273	C	0.424341	1.005138	-0.522121
C274	C	0.924341	1.505138	-0.022121
C275	C	0.462664	1.005128	-0.588487
C276	C	0.962664	1.505128	-0.088487
C277	C	0.500985	1.005117	-0.610605
C278	C	1.000985	1.505117	-0.110605
C279	C	0.539305	1.005106	-0.588476
C280	C	1.039305	1.505106	-0.088476
C281	C	0.539300	1.005118	-0.544234
C282	C	1.039300	1.505118	-0.044234
C283	C	0.386021	1.005149	-0.544250
C284	C	0.886021	1.505149	-0.044250
C285	C	0.386029	1.005140	-0.588493
C286	C	0.886029	1.505140	-0.088493
C287	C	0.424350	1.005129	-0.610611
C288	C	0.924350	1.505129	-0.110611
C289	C	0.462665	1.005139	0.138752
C290	C	0.962665	1.505139	0.638752
C291	C	0.462672	1.005129	0.185847
C292	C	0.962672	1.505129	0.685847
C293	C	0.601407	0.703627	-0.000018
C294	C	1.101407	1.203627	0.499982
C295	C	0.648501	0.601285	-0.000021
C296	C	1.148501	1.101285	0.499979
C297	C	0.462665	0.703626	0.138749
C298	C	0.962665	1.203626	0.638749
C299	C	0.462672	0.601284	0.185843
C300	C	0.962672	1.101284	0.685843
C301	C	0.601427	0.703595	0.138744
C302	C	1.101427	1.203595	0.638744
C303	C	0.648528	0.601242	0.185836
C304	C	1.148528	1.101242	0.685836
C305	C	0.323864	1.306748	-0.138764
C306	C	0.823864	1.806748	0.361236
C307	C	0.276763	1.409101	-0.185855
C308	C	0.776763	1.909101	0.314145
C309	C	0.323884	1.306716	-0.000002
C310	C	0.823884	1.806716	0.499998
C311	C	0.276789	1.409058	0.000001
C312	C	0.776789	1.909058	0.500001
C313	C	0.462625	1.306717	-0.138769
C314	C	0.962625	1.806717	0.361231
C315	C	0.462619	1.409059	-0.185863
C316	C	0.962619	1.909059	0.314137
C317	C	0.643517	0.553237	-0.027122
C318	C	1.143517	1.053237	0.472878
C319	C	0.687763	0.457089	-0.027135
C320	C	1.187763	0.957089	0.472865
C321	C	0.736992	0.408985	-0.000043
C322	C	1.236992	0.908985	0.499957
C323	C	0.741975	0.457043	0.027058
C324	C	1.241975	0.957043	0.527058
C325	C	0.697730	0.553196	0.027068
C326	C	1.197730	1.053196	0.527068
C327	C	0.489775	0.553211	0.235058
C328	C	0.989775	1.053211	0.735058
C329	C	0.489779	0.457063	0.279312
C330	C	0.989779	0.957063	0.779312
C331	C	0.462683	0.408984	0.274349
C332	C	0.962683	0.908984	0.774349
C333	C	0.435577	0.457066	0.225129
C334	C	0.935577	0.957066	0.725129
C335	C	0.435570	0.553219	0.180876
C336	C	0.935570	1.053219	0.680876
C337	C	0.697744	0.553177	0.180853
C338	C	1.197744	1.053177	0.680853
C339	C	0.742005	0.457019	0.225097
C340	C	1.242005	0.957019	0.725097
C341	C	0.737048	0.408922	0.274322
C342	C	1.237048	0.908922	0.774322
C343	C	0.687827	0.456997	0.279303
C344	C	1.187827	0.956997	0.779303
C345	C	0.643567	0.553160	0.235060
C346	C	1.143567	1.053160	0.735060
C347	C	0.227547	1.457178	-0.180873
C348	C	0.727547	1.957178	0.319127
C349	C	0.183286	1.553365	-0.225117
C350	C	0.683286	2.053365	0.274883
C351	C	0.188242	1.601467	-0.274342
C352	C	0.688242	2.101467	0.225658
C353	C	0.237463	1.553386	-0.279323
C354	C	0.737463	2.053386	0.220677
C355	C	0.281723	1.457207	-0.235080
C356	C	0.781723	1.957207	0.264920
C357	C	0.281773	1.457116	0.027097
C358	C	0.781773	1.957116	0.527097
C359	C	0.237527	1.553290	0.027098
C360	C	0.737527	2.053290	0.527098
C361	C	0.188298	1.601397	0.000005
C362	C	0.688298	2.101397	0.500005
C363	C	0.183315	1.553335	-0.027094
C364	C	0.683315	2.053335	0.472906
C365	C	0.227561	1.457169	-0.027098
C366	C	0.727561	1.957169	0.472902
C367	C	0.489720	1.457108	-0.180884
C368	C	0.989720	1.957108	0.319116
C369	C	0.489724	1.553256	-0.225129
C370	C	0.989724	2.053256	0.274871
C371	C	0.462623	1.601361	-0.274353
C372	C	0.962623	2.101361	0.225647
C373	C	0.435521	1.553302	-0.279331
C374	C	0.935521	2.053302	0.220669
C375	C	0.435520	1.457149	-0.235086
C376	C	0.935520	1.957149	0.264914
H377	H	0.511795	0.592393	-0.049181
H378	H	1.011795	1.092393	0.450819
H379	H	0.701789	0.592323	0.140776
H380	H	1.201789	1.092323	0.640776
Br381	Br	0.526505	1.618463	-0.218360
Br382	Br	1.026505	2.118463	0.281640
Br383	Br	0.180395	1.005188	0.090325
Br384	Br	0.680395	1.505188	0.590325
H385	H	0.462627	1.679655	-0.310376
H386	H	0.962627	2.179655	0.189624
H387	H	-0.011109	1.005176	-0.107854
H388	H	0.488891	1.505176	0.392146
Br389	Br	0.526555	0.618433	0.241808
Br390	Br	1.026555	1.118433	0.741808
H391	H	0.511789	1.417956	-0.140807
H392	H	1.011789	1.917956	0.359193
H393	H	0.603436	0.592402	-0.049189
H394	H	1.103436	1.092402	0.450811
Br395	Br	0.462698	0.278490	0.334413
Br396	Br	0.962698	0.778490	0.834413
H397	H	0.413456	1.592484	-0.319415
H398	H	0.913456	2.092484	0.180585
Br399	Br	0.808798	0.391792	0.218324
Br400	Br	1.308798	0.891792	0.718324
H401	H	0.328638	0.894416	0.044633
H402	H	0.828638	1.394416	0.544633
H403	H	0.223501	1.418019	-0.140795
H404	H	0.723501	1.918019	0.359205
H405	H	0.683799	0.417823	0.319389
H406	H	1.183799	0.917823	0.819389
H407	H	0.570499	1.005127	-0.473753
H408	H	1.070499	1.505127	0.026247
H409	H	0.596648	0.115942	-0.044657
H410	H	1.096648	0.615942	0.455343
H411	H	0.603495	0.592282	0.239124
H412	H	1.103495	1.092282	0.739124
Br413	Br	0.398732	1.391962	-0.241853
Br414	Br	0.898732	1.891962	0.258147
H415	H	0.683696	0.417972	-0.049204
H416	H	1.183696	0.917972	0.450796
Br417	Br	0.444621	0.340397	0.134156
Br418	Br	0.944621	0.840397	0.634156
H419	H	0.595338	0.269692	-0.132766
H420	H	1.095338	0.769692	0.367234
Br421	Br	0.704503	0.618386	0.063855
Br422	Br	1.204503	1.118386	0.563855
Br423	Br	0.377412	0.853193	-0.030888
Br424	Br	0.877412	1.353193	0.469112
H425	H	0.547511	0.203143	0.004512
H426	H	1.047511	0.703143	0.504512
H427	H	0.413498	0.417939	0.049162
H428	H	0.913498	0.917939	0.549162
Br429	Br	0.372293	1.005230	-0.282270
Br430	Br	0.872293	1.505230	0.217730
Br431	Br	0.797035	0.278491	-0.000062
Br432	Br	1.297035	0.778491	0.499938
H433	H	0.380373	0.499727	0.171670
H434	H	0.880373	0.999727	0.671670
Br435	Br	0.480647	0.669967	-0.134178
Br436	Br	0.980647	1.169967	0.365822
H437	H	0.511854	0.417925	0.319385
H438	H	1.011854	0.917925	0.819385
H439	H	0.570490	1.005148	-0.393495
H440	H	1.070490	1.505148	0.106505
H441	H	0.143212	1.592497	-0.221051
H442	H	0.643212	2.092497	0.278949
H443	H	0.782064	0.417863	0.049115
H444	H	1.282064	0.917863	0.549115
H445	H	0.413516	0.417906	0.221096
H446	H	0.913516	0.917906	0.721096
Br447	Br	0.398785	0.618444	0.114086
Br448	Br	0.898785	1.118444	0.614086
H449	H	0.152199	1.679782	-0.310363
H450	H	0.652199	2.179782	0.189637
Br451	Br	0.315215	0.766785	0.147444
Br452	Br	0.815215	1.266785	0.647444
Br453	Br	0.797121	0.278414	0.334362
Br454	Br	1.297121	0.778414	0.834362
H455	H	0.393096	1.005232	-0.189983
H456	H	0.893096	1.505232	0.310017
H457	H	0.393143	1.005158	-0.810050
H458	H	0.893143	1.505158	-0.310050
Br459	Br	0.244181	1.618679	-0.346133
Br460	Br	0.744181	2.118679	0.153867
H461	H	0.321796	1.418063	-0.239143
H462	H	0.821796	1.918063	0.260857
H463	H	0.321854	1.417955	0.049163
H464	H	0.821854	1.917955	0.549163
Br465	Br	0.284683	1.005254	-0.090339
Br466	Br	0.784683	1.505254	0.409661
Br467	Br	0.244302	1.618494	0.063880
Br468	Br	0.744302	2.118494	0.563880
H469	H	0.152275	1.679702	0.000012
H470	H	0.652275	2.179702	0.500012
H471	H	0.143227	1.592519	-0.049153
H472	H	0.643227	2.092519	0.450847
Br473	Br	0.220787	1.391953	-0.063872
Br474	Br	0.720787	1.891953	0.436128
H475	H	0.192419	1.005199	-0.069532
H476	H	0.692419	1.505199	0.430468
Br477	Br	0.081158	1.005203	-0.128660
Br478	Br	0.581158	1.505203	0.371340
H479	H	0.544886	0.510651	-0.171704
H480	H	1.044886	1.010651	0.328296
H481	H	-0.267120	1.005161	-0.069546
H482	H	0.232880	1.505161	0.430454
H483	H	-0.347394	1.005146	-0.069542
H484	H	0.152606	1.505146	0.430458
H485	H	-0.267119	1.005109	0.069515
H486	H	0.232881	1.505109	0.569515
Br487	Br	-0.359399	1.005129	0.090309
Br488	Br	0.140601	1.505129	0.590309
H489	H	0.069170	1.005091	0.107852
H490	H	0.569170	1.505091	0.607852
Br491	Br	-0.023103	1.005084	0.128656
Br492	Br	0.476897	1.505084	0.628656
H493	H	0.272679	1.005198	0.069520
H494	H	0.772679	1.505198	0.569520
H495	H	-0.063579	1.005107	0.107838
H496	H	0.436421	1.505107	0.607838
H497	H	-0.063580	1.005168	-0.107855
H498	H	0.436420	1.505168	0.392145
Br499	Br	-0.155862	1.005160	-0.128656
Br500	Br	0.344138	1.505160	0.371344
H501	H	-0.143840	1.005100	0.107837
H502	H	0.356160	1.505100	0.607837
Br503	Br	0.552946	1.005214	-0.177963
Br504	Br	1.052946	1.505214	0.322037
H505	H	0.532162	1.005169	-0.270229
H506	H	1.032162	1.505169	0.229771
H507	H	0.532193	1.005128	-0.729768
H508	H	1.032193	1.505128	-0.229768
Br509	Br	0.372336	1.005142	-0.717774
Br510	Br	0.872336	1.505142	-0.217774
H511	H	0.354810	1.005143	-0.473762
H512	H	0.854810	1.505143	0.026238
Br513	Br	0.553001	1.005105	-0.822051
Br514	Br	1.053001	1.505105	-0.322051
Br515	Br	0.591307	1.005122	-0.514215
Br516	Br	1.091307	1.505122	-0.014215
Br517	Br	0.334005	1.005137	-0.381486
Br518	Br	0.834005	1.505137	0.118514
Br519	Br	0.334017	1.005148	-0.618516
Br520	Br	0.834017	1.505148	-0.118516
Br521	Br	0.591310	1.005101	-0.618504
Br522	Br	1.091310	1.505101	-0.118504
H523	H	0.354816	1.005156	-0.526245
H524	H	0.854816	1.505156	-0.026245
