data_functionalizedCrystal
_audit_creation_method	'MofGen! by Chris Wilmer'
_symmetry_space_group_name_H-M	'P1'
_symmetry_Int_Tables_number	1
_symmetry_cell_setting	triclinic
loop_
_symmetry_equiv_pos_as_xyz
  x,y,z
_cell_length_a	10.540539
_cell_length_b	14.519709
_cell_length_c	13.596369
_cell_angle_alpha	90.006934
_cell_angle_beta	89.996748
_cell_angle_gamma	95.897182
loop_
_atom_site_label
_atom_site_type_symbol
_atom_site_fract_x
_atom_site_fract_y
_atom_site_fract_z
O1	O	1.684562	-0.129969	-0.081747
O2	O	2.184562	0.370031	0.418253
O3	O	1.315024	-0.142215	-0.081760
O4	O	1.815024	0.357785	0.418240
O5	O	1.509591	-0.001906	-0.081744
O6	O	2.009591	0.498094	0.418256
O7	O	1.489995	-0.270278	-0.081763
O8	O	1.989995	0.229722	0.418237
O9	O	1.509571	-0.001899	0.081838
O10	O	2.009571	0.498101	0.581838
O11	O	1.315004	-0.142207	0.081823
O12	O	1.815004	0.357793	0.581823
O13	O	1.684542	-0.129962	0.081835
O14	O	2.184542	0.370038	0.581835
Zn15	Zn	1.499770	-0.136083	0.107802
Zn16	Zn	1.999770	0.363917	0.607802
Zn17	Zn	1.499796	-0.136093	-0.107726
Zn18	Zn	1.999796	0.363907	0.392274
O19	O	1.489976	-0.270270	0.081820
O20	O	1.989976	0.229730	0.581820
C21	C	1.267720	-0.141293	0.000030
C22	C	1.767720	0.358707	0.500030
C23	C	1.126800	-0.138545	0.000026
C24	C	1.626800	0.361455	0.500026
N25	N	1.499762	-0.136076	0.254893
N26	N	1.999762	0.363924	0.754893
C27	C	1.508668	0.032462	0.000047
C28	C	2.008668	0.532462	0.500047
C29	C	1.505931	0.134858	0.000048
C30	C	2.005931	0.634858	0.500048
C31	C	0.944448	-0.033266	0.000415
C32	C	1.444448	0.466734	0.500415
C33	C	1.091038	-0.036051	0.000036
C34	C	1.591038	0.463949	0.500036
C35	C	1.064635	-0.187874	-0.093388
C36	C	1.564635	0.312126	0.406612
C37	C	0.918127	-0.184376	-0.093456
C38	C	1.418127	0.315624	0.406544
C39	C	0.917595	-0.186453	0.092569
C40	C	1.417595	0.313547	0.592569
C41	C	1.064567	-0.187396	0.093793
C42	C	1.564567	0.312604	0.593793
C43	C	1.731846	-0.130884	0.000043
C44	C	2.231846	0.369116	0.500043
C45	C	1.872766	-0.133631	0.000041
C46	C	2.372766	0.366369	0.500041
C47	C	1.490899	-0.304639	0.000026
C48	C	1.990899	0.195361	0.500026
C49	C	1.493635	-0.407035	0.000019
C50	C	1.993635	0.092965	0.500019
C51	C	1.495856	0.509808	0.000022
C52	C	1.995856	1.009808	0.500022
C53	C	1.498654	0.405485	0.000029
C54	C	1.998654	0.905485	0.500029
C55	C	1.500893	0.322337	0.000036
C56	C	2.000893	0.822337	0.500036
C57	C	1.503692	0.218007	0.000041
C58	C	2.003692	0.718007	0.500041
N59	N	1.499814	-0.136093	-0.254818
N60	N	1.999814	0.363907	0.245182
C61	C	1.499794	-0.136094	0.656184
C62	C	1.999794	0.363906	1.156184
C63	C	1.499781	-0.136092	0.544533
C64	C	1.999781	0.363908	1.044533
C65	C	1.499779	-0.136086	0.455542
C66	C	1.999779	0.363914	0.955542
C67	C	1.499765	-0.136082	0.343884
C68	C	1.999765	0.363918	0.843884
H69	H	1.134040	0.002763	0.066999
H70	H	1.634040	0.502763	0.566999
H71	H	0.916268	0.007229	0.067407
H72	H	1.416268	0.507229	0.567407
Cl73	Cl	1.100779	-0.302771	0.102492
Cl74	Cl	1.600779	0.197229	0.602492
Cl75	Cl	1.156080	0.024023	-0.103697
Cl76	Cl	1.656080	0.524023	0.396303
Cl77	Cl	0.898454	0.028988	-0.102425
Cl78	Cl	1.398454	0.528988	0.397575
Cl79	Cl	0.875154	-0.128095	-0.201255
Cl80	Cl	1.375154	0.371905	0.298745
Cl81	Cl	1.128207	-0.131665	0.200489
Cl82	Cl	1.628207	0.368335	0.700489
Cl83	Cl	0.842899	-0.298179	-0.100012
Cl84	Cl	1.342899	0.201821	0.399988
H85	H	1.086220	-0.263143	-0.096869
H86	H	1.586220	0.236857	0.403131
H87	H	0.869612	-0.260483	0.093195
H88	H	1.369612	0.239517	0.593195
H89	H	1.107582	-0.153613	-0.162904
H90	H	1.607582	0.346387	0.337096
Cl91	Cl	0.869410	-0.135232	0.201890
Cl92	Cl	1.369410	0.364768	0.701890
