data_functionalizedCrystal
_audit_creation_method	'MofGen! by Chris Wilmer'
_symmetry_space_group_name_H-M	'P1'
_symmetry_Int_Tables_number	1
_symmetry_cell_setting	triclinic
loop_
_symmetry_equiv_pos_as_xyz
  x,y,z
_cell_length_a	16.625547
_cell_length_b	12.594516
_cell_length_c	16.625539
_cell_angle_alpha	89.974997
_cell_angle_beta	89.975178
_cell_angle_gamma	90.011753
loop_
_atom_site_label
_atom_site_type_symbol
_atom_site_fract_x
_atom_site_fract_y
_atom_site_fract_z
Zn1	Zn	1.232740	-0.423742	-0.456019
Zn2	Zn	1.732740	0.076258	0.043981
Zn3	Zn	1.232668	-0.601743	-0.321194
Zn4	Zn	1.732668	-0.101743	0.178806
Zn5	Zn	1.097902	-0.423779	-0.321190
Zn6	Zn	1.597902	0.076221	0.178810
Zn7	Zn	1.097897	-0.601679	-0.455974
Zn8	Zn	1.597897	-0.101679	0.044026
O9	O	1.165302	-0.512736	-0.388594
O10	O	1.665302	-0.012736	0.111406
O11	O	1.345563	-0.447366	-0.438155
O12	O	1.845563	0.052634	0.061845
O13	O	1.214763	-0.578178	-0.208361
O14	O	1.714763	-0.078178	0.291639
O15	O	1.115820	-0.274828	-0.339092
O16	O	1.615820	0.225172	0.160908
O17	O	1.345510	-0.578142	-0.339100
O18	O	1.845510	-0.078142	0.160900
O19	O	1.214886	-0.274801	-0.438151
O20	O	1.714886	0.225199	0.061849
O21	O	1.115751	-0.447429	-0.208358
O22	O	1.615751	0.052571	0.291642
O23	O	0.985069	-0.447366	-0.339049
O24	O	1.485069	0.052634	0.160951
O25	O	1.115813	-0.578032	-0.568813
O26	O	1.615813	-0.078032	-0.068813
O27	O	0.985066	-0.578068	-0.438074
O28	O	1.485066	-0.078068	0.061926
O29	O	1.214881	-0.447303	-0.568846
O30	O	1.714881	0.052697	-0.068846
O31	O	1.214759	-0.750680	-0.339056
O32	O	1.714759	-0.250680	0.160944
O33	O	1.115743	-0.750633	-0.438078
O34	O	1.615743	-0.250633	0.061922
C35	C	0.955811	-0.512715	-0.388556
C36	C	1.455811	-0.012715	0.111444
C37	C	0.866190	-0.512732	-0.388559
C38	C	1.366190	-0.012732	0.111441
C39	C	0.793408	-0.512734	-0.388569
C40	C	1.293408	-0.012734	0.111431
C41	C	0.702099	-0.512739	-0.388589
C42	C	1.202099	-0.012739	0.111411
C43	C	0.629323	-0.512749	-0.388610
C44	C	1.129323	-0.012749	0.111390
C45	C	0.538008	-0.512757	-0.388629
C46	C	1.038008	-0.012757	0.111371
C47	C	1.165265	-0.789277	-0.388580
C48	C	1.665265	-0.289277	0.111420
C49	C	1.165322	-0.907582	-0.388601
C50	C	1.665322	-0.407582	0.111399
C51	C	1.219240	-0.976822	-0.334801
C52	C	1.719240	-0.476822	0.165199
C53	C	1.238943	-1.047524	-0.408397
C54	C	1.738943	-0.547524	0.091603
C55	C	1.145720	-1.047680	-0.315052
C56	C	1.645720	-0.547680	0.184948
C57	C	1.185064	-0.976725	-0.462236
C58	C	1.685064	-0.476725	0.037764
C59	C	1.091806	-0.976875	-0.368842
C60	C	1.591806	-0.476875	0.131158
C61	C	1.111482	-1.047544	-0.442489
C62	C	1.611482	-0.547544	0.057511
C63	C	1.375611	-0.512757	-0.388633
C64	C	1.875611	-0.012757	0.111367
C65	C	1.465232	-0.512766	-0.388650
C66	C	1.965232	-0.012766	0.111350
C67	C	1.165354	-0.512656	-0.598903
C68	C	1.665354	-0.012656	-0.098903
C69	C	1.165377	-0.512623	-0.688525
C70	C	1.665377	-0.012623	-0.188525
C71	C	1.165362	-0.235115	-0.388626
C72	C	1.665362	0.264885	0.111374
C73	C	1.165387	-0.116809	-0.388640
C74	C	1.665387	0.383191	0.111360
C75	C	1.165414	-0.512503	-1.016700
C76	C	1.665414	-0.012503	-0.516700
C77	C	1.165401	-0.512540	-0.925392
C78	C	1.665401	-0.012540	-0.425392
C79	C	1.165396	-0.512564	-0.852615
C80	C	1.665396	-0.012564	-0.352615
C81	C	1.165382	-0.512599	-0.761301
C82	C	1.665382	-0.012599	-0.261301
C83	C	1.165296	-0.512738	-0.179104
C84	C	1.665296	-0.012738	0.320896
C85	C	1.165430	-0.512472	-0.089483
C86	C	1.665430	-0.012472	0.410517
H87	H	1.264843	-0.945768	-0.289344
H88	H	1.764843	-0.445768	0.210656
H89	H	1.301142	-1.078560	-0.425131
H90	H	1.801142	-0.578560	0.074869
F91	F	1.010528	-0.936283	-0.346944
F92	F	1.510528	-0.436283	0.153056
F93	F	1.051920	-1.087881	-0.502045
F94	F	1.551920	-0.587881	-0.002045
F95	F	1.206873	-0.936165	-0.543578
F96	F	1.706873	-0.436165	-0.043578
F97	F	1.124013	-1.088417	-0.233734
F98	F	1.624013	-0.588417	0.266266
