data_functionalizedCrystal
_audit_creation_method	'MofGen! by Chris Wilmer'
_symmetry_space_group_name_H-M	'P1'
_symmetry_Int_Tables_number	1
_symmetry_cell_setting	triclinic
loop_
_symmetry_equiv_pos_as_xyz
  x,y,z
_cell_length_a	27.440280
_cell_length_b	14.395555
_cell_length_c	27.440280
_cell_angle_alpha	60.006694
_cell_angle_beta	89.999308
_cell_angle_gamma	59.991377
loop_
_atom_site_label
_atom_site_type_symbol
_atom_site_fract_x
_atom_site_fract_y
_atom_site_fract_z
Zr1	Zr	0.469466	1.016732	-0.063972
O2	O	0.391641	1.210532	-0.141780
O3	O	0.493328	0.822929	-0.040119
O4	O	0.493321	1.016710	-0.141783
O5	O	0.391649	1.016769	0.040077
O6	O	0.573523	1.016695	-0.141786
O7	O	0.391648	1.016751	-0.040116
O8	O	0.573535	0.670056	0.040072
O9	O	0.391637	1.363408	-0.141781
O10	O	0.563353	0.902632	-0.029949
O11	O	0.503500	0.902657	0.029900
O12	O	0.503492	1.130809	-0.089796
O13	O	0.443639	1.130833	-0.029946
Zr14	Zr	0.597381	1.016736	0.063922
Zr15	Zr	0.597379	1.016708	-0.063977
Zr16	Zr	0.469468	1.016760	0.063927
Zr17	Zr	0.469459	1.260551	-0.063974
Zr18	Zr	0.597388	0.772917	0.063924
O19	O	0.573520	1.210539	0.040069
O20	O	0.573517	1.210499	-0.141787
O21	O	0.391644	1.210573	0.040076
O22	O	0.675206	0.822936	0.141730
O23	O	0.675203	0.822895	-0.040126
O24	O	0.493330	0.822969	0.141737
O25	O	0.675198	1.016699	-0.040127
O26	O	0.573527	1.016758	0.141733
O27	O	0.493325	1.016773	0.141736
O28	O	0.675199	1.016717	0.040067
O29	O	0.493310	1.363389	-0.141785
O30	O	0.573537	0.670079	0.141735
O31	O	0.675210	0.670060	0.141731
O32	O	0.675209	0.670037	0.040068
O33	O	0.391638	1.363431	-0.040118
O34	O	0.493312	1.363412	-0.040122
O35	O	0.563355	0.902659	0.089746
O36	O	0.623208	0.902635	0.029896
O37	O	0.563347	1.130811	-0.029950
O38	O	0.503494	1.130836	0.029899
C39	C	0.533433	0.711753	-0.000023
C40	C	0.533436	0.608246	-0.000023
C41	C	0.566064	0.547654	-0.032661
C42	C	0.589717	0.409553	0.023610
C43	C	0.509787	0.561912	-0.056288
C44	C	0.557120	0.471445	0.056282
C45	C	0.477160	0.623878	-0.023657
C46	C	0.500798	0.485786	0.032648
C47	C	0.373424	1.016764	-0.000019
C48	C	0.319122	1.016774	-0.000017
C49	C	-0.017577	1.016695	-0.044205
C50	C	-0.068595	1.016686	-0.044205
O51	O	-0.094970	1.016628	-0.081766
N52	N	-0.094112	1.016698	-0.000027
C53	C	-0.068605	1.016706	0.044158
O54	O	-0.094994	1.016714	0.081736
C55	C	-0.017585	1.016706	0.044161
C56	C	0.007926	1.016707	-0.000024
C57	C	0.007935	1.016694	-0.088386
C58	C	0.058949	1.016706	-0.088386
C59	C	0.084451	1.016718	-0.044205
C60	C	0.058939	1.016719	-0.000024
C61	C	0.007923	1.016705	0.088348
C62	C	0.058946	1.016704	0.088347
C63	C	0.084457	1.016705	0.044162
C64	C	0.135455	1.016743	0.044156
N65	N	0.160973	1.016731	-0.000022
C66	C	0.135470	1.016718	-0.044203
C67	C	-0.175749	1.016704	0.044151
C68	C	-0.226770	1.016713	0.044147
C69	C	-0.226755	1.016690	-0.044217
C70	C	-0.175736	1.016690	-0.044214
C71	C	-0.150231	1.016692	-0.000028
C72	C	0.242603	1.016744	-0.044200
C73	C	0.293619	1.016762	-0.044198
C74	C	0.293602	1.016778	0.044167
C75	C	0.242588	1.016767	0.044163
C76	C	0.217091	1.016746	-0.000023
O77	O	0.161865	1.016795	0.081699
O78	O	0.161870	1.016693	-0.081770
C79	C	0.693423	1.016704	-0.000031
C80	C	0.747726	1.016694	-0.000033
C81	C	0.533421	1.016698	-0.160007
C82	C	0.533421	1.016686	-0.214304
C83	C	0.533415	1.321714	-0.000027
C84	C	0.533412	1.425222	-0.000027
C85	C	0.502182	1.135861	-0.582277
C86	C	0.502184	1.135869	-0.633300
O87	O	0.475628	1.237164	-0.686255
N88	N	0.533429	1.016764	-0.627578
C89	C	0.564681	0.897645	-0.570829
O90	O	0.591258	0.796338	-0.570647
C91	C	0.564682	0.897639	-0.519808
C92	C	0.533429	1.016751	-0.525534
C93	C	0.470932	1.254964	-0.588001
C94	C	0.470930	1.254956	-0.536982
C95	C	0.502177	1.135846	-0.480240
C96	C	0.533427	1.016743	-0.474516
C97	C	0.595936	0.778521	-0.463060
C98	C	0.595935	0.778525	-0.412039
C99	C	0.564683	0.897637	-0.417765
C100	C	0.564671	0.897625	-0.366754
N101	N	0.533426	1.016730	-0.372476
C102	C	0.502178	1.135840	-0.429219
C103	C	0.564676	0.897666	-0.677979
C104	C	0.564672	0.897671	-0.728998
C105	C	0.502175	1.135895	-0.791466
C106	C	0.502177	1.135889	-0.740445
C107	C	0.533430	1.016771	-0.683701
C108	C	0.502175	1.135815	-0.322073
C109	C	0.502173	1.135796	-0.271047
C110	C	0.564672	0.897573	-0.208584
C111	C	0.564671	0.897590	-0.259606
C112	C	0.533422	1.016722	-0.316352
O113	O	0.591216	0.796382	-0.313779
O114	O	0.475612	1.237130	-0.429390
C115	C	0.533426	1.016770	0.159957
C116	C	0.533427	1.016782	0.214254
C117	C	0.693432	0.711724	-0.000029
C118	C	0.747737	0.608206	-0.000031
C119	C	0.533435	0.711789	0.159959
C120	C	0.533439	0.608294	0.214256
C121	C	0.693434	0.711759	0.159953
C122	C	0.747741	0.608254	0.214248
C123	C	0.373413	1.321708	-0.160003
C124	C	0.319107	1.425214	-0.214298
C125	C	0.373415	1.321744	-0.000021
C126	C	0.319110	1.425262	-0.000019
C127	C	0.533412	1.321679	-0.160009
C128	C	0.533409	1.425174	-0.214306
C129	C	0.741996	0.559592	-0.031275
C130	C	0.793017	0.462339	-0.031288
C131	C	0.849778	0.413696	-0.000053
C132	C	0.855518	0.462320	0.031192
C133	C	0.804498	0.559577	0.031202
C134	C	0.564684	0.559692	0.270999
C135	C	0.564685	0.462461	0.322022
C136	C	0.533444	0.413826	0.316301
C137	C	0.502195	0.462437	0.259552
C138	C	0.502191	0.559673	0.208531
C139	C	0.804491	0.559634	0.208505
C140	C	0.855523	0.462393	0.259516
C141	C	0.849802	0.413767	0.316270
C142	C	0.793045	0.462397	0.322012
C143	C	0.742015	0.559643	0.271002
C144	C	0.262356	1.473846	-0.208555
C145	C	0.211325	1.571117	-0.259566
C146	C	0.217045	1.619748	-0.316320
C147	C	0.273802	1.571112	-0.322062
C148	C	0.324832	1.473849	-0.271052
C149	C	0.324851	1.473886	0.031220
C150	C	0.273830	1.571165	0.031219
C151	C	0.217069	1.619812	-0.000018
C152	C	0.211329	1.571184	-0.031261
C153	C	0.262349	1.473913	-0.031263
C154	C	0.564656	1.473778	-0.208566
C155	C	0.564664	1.571010	-0.259579
C156	C	0.533421	1.619643	-0.316332
C157	C	0.502173	1.571030	-0.322071
C158	C	0.502169	1.473793	-0.271058
H159	H	0.429587	0.715535	-0.043661
H160	H	0.489797	0.599104	-0.103868
H161	H	0.590124	0.800659	-0.631775
N162	N	0.901880	0.314323	-0.000064
N163	N	0.938622	0.335942	-0.020285
H164	H	0.975411	0.265747	-0.020294
N165	N	0.153345	1.620853	-0.063149
N166	N	0.138122	1.544870	-0.049888
H167	H	0.097169	1.579943	-0.072404
H168	H	0.809161	0.599211	0.162298
H169	H	0.590097	1.434196	-0.162360
N170	N	0.279653	1.620777	-0.380032
N171	N	0.306268	1.675038	-0.395264
H172	H	0.310401	1.710109	-0.436206
H173	H	0.371040	1.434254	-0.275735
H174	H	0.891359	0.334583	0.357801
N175	N	0.787218	0.412700	0.379991
N176	N	0.832789	0.325865	0.425527
H177	H	0.828676	0.290755	0.466476
H178	H	0.445487	1.351963	-0.634201
H179	H	-0.012841	1.016703	0.124327
N180	N	0.470291	0.412748	0.253703
N181	N	0.442397	0.456135	0.203039
H182	H	0.419867	0.421035	0.198908
N183	N	0.600726	0.581621	-0.067234
N184	N	0.625803	0.525138	-0.091547
H185	H	0.650284	0.549124	-0.115963
N186	N	0.596604	0.609339	0.276862
N187	N	0.624495	0.565921	0.327535
H188	H	0.647039	0.600981	0.331681
H189	H	0.590134	0.422893	0.368223
N190	N	0.164956	1.719186	-0.000020
N191	N	0.156138	1.827711	-0.020235
H192	H	0.119334	1.897894	-0.020234
H193	H	0.165116	1.610700	-0.254879
H194	H	0.695783	0.599196	-0.056718
H195	H	0.175489	1.698945	-0.357851
N196	N	0.382831	1.424209	0.063119
N197	N	0.428387	1.337367	0.063115
H198	H	0.469335	1.302292	0.085642
N199	N	0.684042	0.609275	0.276863
N200	N	0.638479	0.696080	0.231319
H201	H	0.597535	0.731124	0.235461
H202	H	0.257666	1.434326	-0.056700
H203	H	0.278515	1.610742	0.056663
H204	H	0.590108	1.610581	-0.254895
H205	H	0.533429	1.698820	-0.357864
N206	N	0.470245	1.424167	-0.276937
N207	N	0.442353	1.467611	-0.327615
H208	H	0.419805	1.432567	-0.331772
N209	N	0.649403	0.294579	0.048702
N210	N	0.680071	0.236464	0.100989
H211	H	0.722225	0.155266	0.118708
H212	H	0.788332	0.422762	-0.056732
H213	H	0.901740	0.422701	0.056623
N214	N	0.470266	1.620725	-0.380048
N215	N	0.470277	1.707548	-0.425585
H216	H	0.447740	1.742654	-0.466534
N217	N	0.810378	0.609214	0.063123
N218	N	0.861064	0.565760	0.091009
H219	H	0.865222	0.600812	0.113555
H220	H	0.577165	0.434063	0.103885
H221	H	0.533453	0.334650	0.357850
N222	N	0.256493	1.424193	-0.150591
N223	N	0.205813	1.467647	-0.145482
H224	H	0.201666	1.432590	-0.104547
N225	N	0.470280	0.609276	0.150575
N226	N	0.483538	0.533245	0.135375
H227	H	0.460999	0.568270	0.094444
N228	N	0.466181	0.451890	0.067323
N229	N	0.480720	0.406467	0.121475
H230	H	0.456276	0.382521	0.145967
N231	N	0.319669	1.016768	-0.089340
N232	N	0.296890	1.016753	-0.128781
H233	H	0.315286	1.016755	-0.160662
H234	H	0.079718	1.016702	-0.124364
N235	N	0.216572	1.016716	-0.089337
N236	N	0.239365	1.016714	-0.128778
H237	H	0.220980	1.016700	-0.160658
H238	H	0.901732	0.422808	0.254830
N239	N	-0.018100	1.016673	-0.133522
N240	N	0.004695	1.016668	-0.172960
H241	H	-0.013690	1.016661	-0.204843
H242	H	-0.247528	1.016678	-0.080190
N243	N	-0.149675	1.016654	-0.089341
N244	N	-0.131208	0.924534	-0.094759
H245	H	-0.112803	0.924500	-0.126630
N246	N	-0.252841	1.016741	0.089268
N247	N	-0.305478	1.108843	0.074970
H248	H	-0.323889	1.108857	0.106840
N249	N	-0.149708	1.016712	0.089292
N250	N	-0.172501	1.016722	0.128731
H251	H	-0.154112	1.016724	0.160614
H252	H	0.221812	1.016785	0.080137
N253	N	0.084992	1.016695	0.133491
N254	N	0.062205	1.016690	0.172935
H255	H	0.080599	1.016685	0.204818
H256	H	0.314373	1.016793	0.080137
H257	H	0.476721	1.232796	-0.275716
H258	H	0.445483	1.351950	-0.541653
N259	N	0.470243	1.257515	-0.380027
N260	N	0.415153	1.337261	-0.395234
H261	H	0.392597	1.423213	-0.436164
N262	N	0.627863	0.656836	-0.457191
N263	N	0.655761	0.550508	-0.406517
H264	H	0.678313	0.464560	-0.402369
N265	N	0.470256	1.257550	-0.746289
N266	N	0.429115	1.284144	-0.724792
H267	H	0.406571	1.370072	-0.728922
N268	N	0.627875	0.656850	-0.354073
N269	N	0.682967	0.577116	-0.338862
H270	H	0.705527	0.491186	-0.297924
N271	N	0.596586	0.775912	-0.253749
N272	N	0.624478	0.669573	-0.203080
H273	H	0.647021	0.583633	-0.198939
H274	H	0.590113	0.800677	-0.724328
N275	N	0.596610	0.775920	-0.150615
N276	N	0.651704	0.696201	-0.135403
H277	H	0.674269	0.610286	-0.094459
H278	H	0.476731	1.232881	-0.837677
