data_functionalizedCrystal
_audit_creation_method	'MofGen! by Chris Wilmer'
_symmetry_space_group_name_H-M	'P1'
_symmetry_Int_Tables_number	1
_symmetry_cell_setting	triclinic
loop_
_symmetry_equiv_pos_as_xyz
  x,y,z
_cell_length_a	16.992694
_cell_length_b	13.101018
_cell_length_c	16.992695
_cell_angle_alpha	93.587846
_cell_angle_beta	89.331777
_cell_angle_gamma	93.586237
loop_
_atom_site_label
_atom_site_type_symbol
_atom_site_fract_x
_atom_site_fract_y
_atom_site_fract_z
O1	O	1.054908	0.085087	-0.162853
O2	O	1.554908	0.585087	0.337147
O3	O	0.826509	0.085117	-0.161020
O4	O	1.326509	0.585117	0.338980
O5	O	0.939793	0.085094	-0.047737
O6	O	1.439793	0.585094	0.452263
O7	O	0.941625	0.085110	-0.276136
O8	O	1.441625	0.585110	0.223864
O9	O	0.931655	-0.085335	-0.055872
O10	O	1.431655	0.414665	0.444128
O11	O	0.818372	-0.085312	-0.169155
O12	O	1.318372	0.414688	0.330845
O13	O	1.046770	-0.085342	-0.170988
O14	O	1.546770	0.414658	0.329012
Zn15	Zn	0.931279	-0.112386	-0.171363
Zn16	Zn	1.431279	0.387614	0.328637
Zn17	Zn	0.942001	0.112161	-0.160645
Zn18	Zn	1.442001	0.612161	0.339355
O19	O	0.933487	-0.085319	-0.284271
O20	O	1.433487	0.414681	0.215729
C21	C	0.793081	-0.000094	-0.162732
C22	C	1.293081	0.499906	0.337268
C23	C	0.705597	-0.000082	-0.155703
C24	C	1.205597	0.499918	0.344297
N25	N	0.923968	-0.265634	-0.178678
N26	N	1.423968	0.234366	0.321322
C27	C	0.659606	-0.000078	-0.223520
C28	C	1.159606	0.499922	0.276480
C29	C	0.577404	-0.000093	-0.216912
C30	C	1.077404	0.499907	0.283088
C31	C	0.541196	-0.000104	-0.142485
C32	C	1.041196	0.499896	0.357515
C33	C	0.587192	-0.000111	-0.074662
C34	C	1.087192	0.499889	0.425338
C35	C	0.669392	-0.000104	-0.081272
C36	C	1.169392	0.499896	0.418728
C37	C	0.295880	-0.000133	-0.115092
C38	C	0.795880	0.499867	0.384908
C39	C	0.213674	-0.000138	-0.108487
C40	C	0.713674	0.499862	0.391513
C41	C	0.203892	-0.000121	-0.250738
C42	C	0.703892	0.499879	0.249262
C43	C	0.286094	-0.000108	-0.257341
C44	C	0.786094	0.499892	0.242659
C45	C	0.332083	-0.000120	-0.189518
C46	C	0.832083	0.499880	0.310482
N47	N	0.457173	-0.000116	-0.135728
N48	N	0.957173	0.499884	0.364272
N49	N	0.416104	-0.000116	-0.196276
N50	N	0.916104	0.499884	0.303724
C51	C	0.959261	-0.525550	-0.143369
C52	C	1.459261	-0.025550	0.356631
C53	C	0.914027	-0.474668	-0.188631
C54	C	1.414027	0.025332	0.311369
C55	C	0.919560	-0.358350	-0.183092
C56	C	1.419560	0.141650	0.316908
C57	C	0.953729	-0.641878	-0.148908
C58	C	1.453729	-0.141878	0.351092
C59	C	1.080199	-0.000129	-0.169276
C60	C	1.580199	0.499871	0.330724
C61	C	1.167684	-0.000134	-0.176305
C62	C	1.667684	0.499866	0.323695
C63	C	0.933368	-0.000120	-0.022444
C64	C	1.433368	0.499880	0.477556
C65	C	0.926339	-0.000119	0.065040
C66	C	1.426339	0.499881	0.565040
N67	N	0.949318	0.265409	-0.153325
N68	N	1.449318	0.765409	0.346675
C69	C	0.939912	-0.000103	-0.309564
C70	C	1.439912	0.499897	0.190436
C71	C	0.946941	-0.000097	-0.397048
C72	C	1.446941	0.499903	0.102952
C73	C	0.994157	-0.000129	0.111031
C74	C	1.494157	0.499871	0.611031
C75	C	0.987549	-0.000118	0.193232
C76	C	1.487549	0.499882	0.693232
C77	C	0.913122	-0.000105	0.229441
C78	C	1.413122	0.499895	0.729441
C79	C	0.845299	-0.000092	0.183445
C80	C	1.345299	0.499908	0.683445
C81	C	0.851909	-0.000095	0.101245
C82	C	1.351909	0.499905	0.601245
C83	C	0.885728	-0.000087	0.474756
C84	C	1.385728	0.499913	0.974756
C85	C	0.879123	-0.000087	0.556961
C86	C	1.379123	0.499913	1.056961
C87	C	1.021373	-0.000112	0.566743
C88	C	1.521373	0.499888	1.066743
C89	C	1.027976	-0.000121	0.484542
C90	C	1.527976	0.499879	0.984542
C91	C	0.960154	-0.000102	0.438553
C92	C	1.460154	0.499898	0.938553
N93	N	0.906365	-0.000097	0.313464
N94	N	1.406365	0.499903	0.813464
N95	N	0.966912	-0.000103	0.354532
N96	N	1.466912	0.499897	0.854532
H97	H	0.539962	-0.000088	-0.272137
H98	H	1.039962	0.499912	0.227863
H99	H	0.871147	-0.518464	-0.231541
H100	H	1.371147	-0.018464	0.268459
N101	N	0.323066	-0.000083	-0.333372
N102	N	0.823066	0.499917	0.166628
N103	N	0.281993	-0.000074	-0.393919
N104	N	0.781993	0.499926	0.106081
H105	H	0.308104	-0.000049	-0.447618
H106	H	0.808104	0.499951	0.052382
H107	H	1.002140	-0.481759	-0.100463
H108	H	1.502140	0.018241	0.399537
H109	H	0.333315	-0.000144	-0.059866
H110	H	0.833315	0.499856	0.440134
N111	N	1.070189	-0.000156	0.074060
N112	N	1.570189	0.499844	0.574060
N113	N	1.130733	-0.000166	0.115136
N114	N	1.630733	0.499834	0.615136
H115	H	1.184434	-0.000185	0.089029
H116	H	1.684434	0.499815	0.589029
N117	N	1.056831	-0.000118	0.240198
N118	N	1.556831	0.499882	0.740198
N119	N	1.123279	-0.000132	0.207860
N120	N	1.623279	0.499868	0.707860
H121	H	1.172214	-0.000128	0.241029
H122	H	1.672214	0.499872	0.741029
N123	N	1.104008	-0.000136	0.447570
N124	N	1.604008	0.499864	0.947570
N125	N	1.164555	-0.000143	0.488643
N126	N	1.664555	0.499857	0.988643
H127	H	1.218255	-0.000155	0.462533
H128	H	1.718255	0.499845	0.962533
N129	N	0.550195	-0.000133	0.001357
N130	N	1.050195	0.499867	0.501357
N131	N	0.476803	-0.000139	0.007250
N132	N	0.976803	0.499861	0.507250
H133	H	0.450674	-0.000152	0.060941
H134	H	0.950674	0.499848	0.560941
N135	N	0.716361	-0.000119	-0.011990
N136	N	1.216361	0.499881	0.488010
N137	N	0.684024	-0.000134	0.054459
N138	N	1.184024	0.499866	0.554459
H139	H	0.717194	-0.000151	0.103392
H140	H	1.217194	0.499849	0.603392
H141	H	0.166439	-0.000113	-0.305955
H142	H	0.666439	0.499887	0.194045
N143	N	0.696602	-0.000058	-0.299541
N144	N	1.196602	0.499942	0.200459
N145	N	0.744799	0.071787	-0.315669
N146	N	1.244799	0.571787	0.184331
H147	H	0.770927	0.071799	-0.369360
H148	H	1.270927	0.571799	0.130640
N149	N	0.769273	-0.000105	0.220430
N150	N	1.269273	0.499895	0.720430
N151	N	0.718964	-0.071946	0.204547
N152	N	1.218964	0.428054	0.704547
H153	H	0.665269	-0.071962	0.230667
H154	H	1.165269	0.428038	0.730667
H155	H	1.076590	-0.000125	0.604196
H156	H	1.576590	0.499875	1.104196
N157	N	0.803087	-0.000093	0.593936
N158	N	1.303087	0.499907	1.093936
N159	N	0.742537	-0.000088	0.552866
N160	N	1.242537	0.499912	1.052866
H161	H	0.688838	-0.000100	0.578978
H162	H	1.188838	0.499900	1.078978
N163	N	0.816443	-0.000076	0.427798
N164	N	1.316443	0.499924	0.927798
N165	N	0.749997	-0.000072	0.460140
N166	N	1.249997	0.499928	0.960140
H167	H	0.701060	-0.000067	0.426974
H168	H	1.201060	0.499933	0.926974
H169	H	0.796684	-0.000087	0.063800
H170	H	1.296684	0.499913	0.563800
N171	N	0.176696	-0.000166	-0.032453
N172	N	0.676696	0.499834	0.467547
N173	N	0.185725	-0.072016	0.010997
N174	N	0.685725	0.427984	0.510997
H175	H	0.159609	-0.072036	0.064693
H176	H	0.659609	0.427964	0.564693
