data_functionalizedCrystal
_audit_creation_method	'MofGen! by Chris Wilmer'
_symmetry_space_group_name_H-M	'P1'
_symmetry_Int_Tables_number	1
_symmetry_cell_setting	triclinic
loop_
_symmetry_equiv_pos_as_xyz
  x,y,z
_cell_length_a	11.792254
_cell_length_b	10.967926
_cell_length_c	10.065875
_cell_angle_alpha	93.120479
_cell_angle_beta	81.145539
_cell_angle_gamma	95.540404
loop_
_atom_site_label
_atom_site_type_symbol
_atom_site_fract_x
_atom_site_fract_y
_atom_site_fract_z
O1	O	-0.197975	1.614187	0.266172
O2	O	0.302025	2.114187	0.766172
O3	O	-0.201217	1.264164	0.183846
O4	O	0.298783	1.764164	0.683846
O5	O	-0.034735	1.447663	0.226999
O6	O	0.465265	1.947663	0.726999
O7	O	-0.364456	1.430689	0.223019
O8	O	0.135544	1.930689	0.723019
O9	O	-0.066614	1.412673	0.445759
O10	O	0.433386	1.912673	0.945759
O11	O	-0.233096	1.229175	0.402606
O12	O	0.266904	1.729175	0.902606
O13	O	-0.229854	1.579197	0.484932
O14	O	0.270146	2.079197	0.984932
Zn15	Zn	-0.236536	1.398631	0.478502
Zn16	Zn	0.263464	1.898631	0.978502
Zn17	Zn	-0.194534	1.444731	0.190276
Zn18	Zn	0.305466	1.944731	0.690276
O19	O	-0.396335	1.395699	0.441779
O20	O	0.103665	1.895699	0.941779
C21	C	-0.214511	1.201859	0.282686
C22	C	0.285489	1.701859	0.782686
C23	C	-0.206618	1.068337	0.251281
C24	C	0.293382	1.568337	0.751281
C25	C	-0.219612	0.990683	0.350604
C26	C	0.280388	1.490683	0.850604
C27	C	-0.211454	0.852680	0.318148
C28	C	0.288546	1.352680	0.818148
C29	C	-0.422726	1.414263	0.332652
C30	C	0.077274	1.914263	0.832652
C31	C	-0.548856	1.417462	0.333409
C32	C	-0.048856	1.917462	0.833409
C33	C	-0.651287	1.420063	0.334013
C34	C	-0.151287	1.920063	0.834013
C35	C	-0.779790	1.423317	0.334763
C36	C	-0.279790	1.923317	0.834763
C37	C	-0.008344	1.429100	0.336123
C38	C	0.491656	1.929100	0.836123
C39	C	0.117787	1.425902	0.335357
C40	C	0.617787	1.925902	0.835357
C41	C	-0.216559	1.641504	0.386089
C42	C	0.283441	2.141504	0.886089
C43	C	-0.224451	1.775027	0.417485
C44	C	0.275549	2.275027	0.917485
N45	N	-0.265201	1.367177	0.675211
N46	N	0.234799	1.867177	1.175211
N47	N	-0.165861	1.476194	-0.006431
N48	N	0.334139	1.976194	0.493569
C49	C	-0.204500	1.433780	0.758652
C50	C	0.295500	1.933780	1.258652
C51	C	-0.226571	1.409582	0.910129
C52	C	0.273429	1.909582	1.410129
H53	H	-0.241614	0.810704	0.526555
H54	H	0.258386	1.310704	1.026555
H55	H	-0.333505	1.292237	0.715914
H56	H	0.166495	1.792237	1.215914
Cl57	Cl	-0.060643	1.592157	0.930808
Cl58	Cl	0.439357	2.092157	1.430808
H59	H	-0.189449	1.032653	0.142219
H60	H	0.310551	1.532653	0.642219
Cl61	Cl	-0.184942	0.797605	0.149752
Cl62	Cl	0.315058	1.297605	0.649752
H63	H	-0.136187	1.508712	0.717950
H64	H	0.363813	2.008712	1.217950
H65	H	-0.236771	1.026368	0.459667
H66	H	0.263229	1.526368	0.959667
H67	H	-0.294879	1.334636	0.950825
H68	H	0.205121	1.834636	1.450825
