data_functionalizedCrystal
_audit_creation_method	'MofGen! by Chris Wilmer'
_symmetry_space_group_name_H-M	'P1'
_symmetry_Int_Tables_number	1
_symmetry_cell_setting	triclinic
loop_
_symmetry_equiv_pos_as_xyz
  x,y,z
_cell_length_a	10.723024
_cell_length_b	15.538191
_cell_length_c	9.198806
_cell_angle_alpha	89.999876
_cell_angle_beta	89.996352
_cell_angle_gamma	65.869982
loop_
_atom_site_label
_atom_site_type_symbol
_atom_site_fract_x
_atom_site_fract_y
_atom_site_fract_z
O1	O	1.596024	0.131734	-0.120868
O2	O	1.227017	0.144344	-0.120871
O3	O	1.483351	0.001374	-0.120876
O4	O	1.339690	0.274704	-0.120863
O5	O	1.483336	0.001373	0.120909
O6	O	1.227002	0.144343	0.120914
O7	O	1.596009	0.131734	0.120917
Cu8	Cu	1.411504	0.138038	0.142992
Cu9	Cu	1.411522	0.138039	-0.142946
O10	O	1.339675	0.274704	0.120922
C11	C	1.180936	0.143426	0.000021
C12	C	1.043656	0.140680	0.000019
C13	C	0.931530	0.220679	0.000021
C14	C	0.789643	0.217843	0.000019
C15	C	1.498374	-0.033625	0.000012
C16	C	1.543145	-0.137909	-0.000002
C17	C	1.098353	-0.428574	0.000025
C18	C	1.140454	-0.526568	0.000029
C19	C	1.377262	-0.547481	0.000030
C20	C	1.335181	-0.449487	0.000019
C21	C	1.195724	-0.390041	0.000018
C22	C	1.432552	-0.410953	0.000013
C23	C	1.390474	-0.312968	0.000010
C24	C	1.251024	-0.253516	0.000013
C25	C	1.153646	-0.292055	0.000015
C26	C	1.572008	-0.470401	0.000024
C27	C	1.669379	-0.431867	0.000018
C28	C	1.627302	-0.333880	0.000004
C29	C	1.487852	-0.274428	0.000008
C30	C	1.724680	-0.295341	0.000002
C31	C	1.682601	-0.197355	-0.000001
C32	C	1.445773	-0.176443	0.000005
C33	C	1.642090	0.132651	0.000022
C34	C	1.779369	0.135397	0.000015
C35	C	1.324652	0.309702	0.000031
C36	C	1.279880	0.413987	0.000035
N37	N	1.411501	0.138038	0.344106
N38	N	1.411538	0.138032	-0.344060
C39	C	1.519251	0.077744	0.416301
C40	C	1.519272	0.077741	0.583714
H41	H	0.940578	0.291268	0.000033
Cl42	Cl	1.661709	-0.001956	0.679562
Cl43	Cl	1.198122	-0.130332	0.000023
Cl44	Cl	1.269088	0.217730	0.440020
Cl45	Cl	0.641075	0.323585	0.000011
H46	H	1.606263	-0.550186	0.000014
H47	H	1.319287	0.189658	0.593864
H48	H	0.984794	-0.380169	0.000013
H49	H	0.875594	0.066908	0.000003
H50	H	1.040087	-0.243651	0.000004
Cl51	Cl	1.018027	-0.575006	0.000046
Cl52	Cl	1.029701	0.031691	0.000024
H53	H	1.490807	-0.595894	0.000037
Cl54	Cl	1.270454	-0.101703	-0.000012
H55	H	1.782925	-0.480281	0.000024
H56	H	1.838225	-0.343756	0.000017
Cl57	Cl	1.805012	-0.148909	0.000018
Cl58	Cl	1.661474	-0.002165	0.320389
