data_functionalizedCrystal
_audit_creation_method	'MofGen! by Chris Wilmer'
_symmetry_space_group_name_H-M	'P1'
_symmetry_Int_Tables_number	1
_symmetry_cell_setting	triclinic
loop_
_symmetry_equiv_pos_as_xyz
  x,y,z
_cell_length_a	8.559649
_cell_length_b	8.559649
_cell_length_c	7.088929
_cell_angle_alpha	84.655815
_cell_angle_beta	95.325015
_cell_angle_gamma	69.778664
loop_
_atom_site_label
_atom_site_type_symbol
_atom_site_fract_x
_atom_site_fract_y
_atom_site_fract_z
O1	O	2.108185	-0.036318	-0.158958
O2	O	1.632699	0.047464	-0.158965
O3	O	1.912333	-0.232170	-0.158959
O4	O	1.828551	0.243315	-0.158964
O5	O	1.949712	-0.269616	0.159017
O6	O	1.670079	0.010018	0.159011
O7	O	2.145564	-0.073764	0.159018
Cu8	Cu	1.911235	-0.035292	0.188048
Cu9	Cu	1.867029	0.008992	-0.187995
O10	O	1.865931	0.205870	0.159012
C11	C	1.591080	0.035090	0.000022
C12	C	1.411380	0.053990	0.000019
C13	C	1.937372	-0.311201	0.000026
C14	C	1.956269	-0.490899	0.000015
C15	C	2.187183	-0.061390	0.000027
C16	C	2.366881	-0.080288	0.000017
C17	C	1.840892	0.284902	0.000023
C18	C	1.821992	0.464601	0.000021
N19	N	1.942338	-0.066441	0.452537
N20	N	1.835940	0.040127	-0.452484
H21	H	1.311991	0.183419	0.000007
C22	C	2.131123	-0.625146	0.000029
H23	H	2.212828	-0.573134	0.000036
H24	H	2.131179	-0.679512	-0.110845
H25	H	2.157244	-0.705604	0.110939
C26	C	2.091316	-0.215637	0.562836
H27	H	2.089187	-0.213506	0.696343
H28	H	2.193649	-0.207582	0.530102
H29	H	2.082995	-0.317876	0.530130
H30	H	1.725671	0.150562	0.465867
C31	C	1.501125	-0.255128	0.000025
H32	H	1.608346	-0.245324	0.000042
H33	H	1.475903	-0.300907	-0.110857
H34	H	1.501971	-0.327014	0.110928
C35	C	1.647149	-0.401161	0.000010
H36	H	1.565444	-0.453174	0.000029
H37	H	1.621027	-0.320695	-0.110878
H38	H	1.647102	-0.346810	0.110907
