data_functionalizedCrystal
_audit_creation_method	'MofGen! by Chris Wilmer'
_symmetry_space_group_name_H-M	'P1'
_symmetry_Int_Tables_number	1
_symmetry_cell_setting	triclinic
loop_
_symmetry_equiv_pos_as_xyz
  x,y,z
_cell_length_a	14.971475
_cell_length_b	11.026607
_cell_length_c	14.048226
_cell_angle_alpha	89.998682
_cell_angle_beta	90.003971
_cell_angle_gamma	83.902152
loop_
_atom_site_label
_atom_site_type_symbol
_atom_site_fract_x
_atom_site_fract_y
_atom_site_fract_z
O1	O	-1.212285	0.158111	-0.079138
O2	O	-0.712285	0.658111	0.420862
O3	O	-0.954921	0.177067	-0.079144
O4	O	-0.454921	0.677067	0.420856
O5	O	-1.062273	-0.009093	-0.079138
O6	O	-0.562273	0.490907	0.420862
O7	O	-1.104933	0.344272	-0.079144
O8	O	-0.604933	0.844272	0.420856
O9	O	-1.062260	-0.009095	0.079183
O10	O	-0.562260	0.490905	0.579183
O11	O	-0.954908	0.177066	0.079177
O12	O	-0.454908	0.677066	0.579177
O13	O	-1.212272	0.158110	0.079183
O14	O	-0.712272	0.658110	0.579183
Zn15	Zn	-1.083588	0.167588	0.104317
Zn16	Zn	-0.583588	0.667588	0.604317
Zn17	Zn	-1.083605	0.167590	-0.104278
Zn18	Zn	-0.583605	0.667590	0.395722
O19	O	-1.104920	0.344271	0.079177
O20	O	-0.604920	0.844271	0.579177
C21	C	-0.921454	0.176221	0.000016
C22	C	-0.421454	0.676221	0.500016
C23	C	-0.821751	0.173688	0.000014
C24	C	-0.321751	0.673688	0.500014
C25	C	-0.774907	0.172494	0.086315
C26	C	-0.274907	0.672494	0.586315
C27	C	-0.681224	0.170094	0.086316
C28	C	-0.181224	0.670094	0.586316
C29	C	-0.634386	0.168897	0.000014
C30	C	-0.134386	0.668897	0.500014
C31	C	-0.681236	0.170088	-0.086295
C32	C	-0.181236	0.670088	0.413705
C33	C	-0.774917	0.172479	-0.086294
C34	C	-0.274917	0.672479	0.413706
C35	C	-0.485975	0.165107	-0.086290
C36	C	0.014025	0.665107	0.413710
C37	C	-0.392288	0.162718	-0.086290
C38	C	0.107712	0.662718	0.413710
C39	C	-0.392282	0.162723	0.086321
C40	C	0.107718	0.662723	0.586321
C41	C	-0.485963	0.165114	0.086321
C42	C	0.014037	0.665114	0.586321
C43	C	-0.532807	0.166306	0.000012
C44	C	-0.032807	0.666306	0.500012
C45	C	-1.054396	-0.054316	0.000021
C46	C	-0.554396	0.445684	0.500021
C47	C	-1.030935	-0.189063	0.000017
C48	C	-0.530935	0.310937	0.500017
C49	C	-1.095715	-0.262778	0.000018
C50	C	-0.595715	0.237222	0.500018
C51	C	-1.071468	-0.402046	0.000013
C52	C	-0.571468	0.097954	0.500013
C53	C	-0.245739	0.158965	0.000020
C54	C	0.254261	0.658965	0.500020
C55	C	-0.345445	0.161524	0.000011
C56	C	0.154555	0.661524	0.500011
C57	C	-1.112797	0.389493	0.000016
C58	C	-0.612797	0.889493	0.500016
C59	C	-1.136257	0.524240	0.000014
C60	C	-0.636257	1.024240	0.500014
N61	N	-1.083582	0.167585	0.246678
N62	N	-0.583582	0.667585	0.746678
N63	N	-1.083616	0.167582	-0.246639
N64	N	-0.583616	0.667582	0.253361
C65	C	-1.149700	0.241324	0.296492
C66	C	-0.649700	0.741324	0.796492
C67	C	-1.149710	0.241319	0.396149
C68	C	-0.649710	0.741319	0.896149
C69	C	-1.083599	0.167581	0.445991
C70	C	-0.583599	0.667581	0.945991
C71	C	-1.017478	0.093834	0.396171
C72	C	-0.517478	0.593834	0.896171
C73	C	-1.017471	0.093833	0.296515
C74	C	-0.517471	0.593833	0.796515
C75	C	-1.017494	0.093842	0.603885
C76	C	-0.517494	0.593842	1.103885
C77	C	-1.017499	0.093844	0.703548
C78	C	-0.517499	0.593844	1.203548
C79	C	-1.149733	0.241327	0.703520
C80	C	-0.649733	0.741327	1.203520
C81	C	-1.149727	0.241327	0.603864
C82	C	-0.649727	0.741327	1.103864
C83	C	-1.083604	0.167581	0.554050
C84	C	-0.583604	0.667581	1.054050
H85	H	-0.813056	0.173453	-0.156570
H86	H	-0.313056	0.673453	0.343430
H87	H	-0.354155	0.161745	-0.156565
H88	H	0.145845	0.661745	0.343435
H89	H	-0.524112	0.166079	-0.156571
H90	H	-0.024112	0.666079	0.343429
C91	C	-0.629711	0.168767	-0.181228
C92	C	-0.129711	0.668767	0.318772
N93	N	-0.590903	0.167777	-0.252734
N94	N	-0.090903	0.667777	0.247266
H95	H	-1.169125	-0.222784	0.000025
H96	H	-0.669125	0.277216	0.500025
H97	H	-0.957525	-0.229057	0.000010
H98	H	-0.457525	0.270943	0.500010
C99	C	-1.222429	0.322442	0.241675
C100	C	-0.722429	0.822442	0.741675
N101	N	-1.277214	0.383539	0.200389
N102	N	-0.777214	0.883539	0.700389
H103	H	-0.963631	0.033788	0.255958
H104	H	-0.463631	0.533788	0.755958
C105	C	-0.340752	0.161402	0.181261
C106	C	0.159248	0.661402	0.681261
N107	N	-0.301936	0.160410	0.252768
N108	N	0.198064	0.660410	0.752768
C109	C	-0.972287	-0.456064	0.000013
C110	C	-0.472287	0.043936	0.500013
N111	N	-0.897585	-0.496753	0.000015
N112	N	-0.397585	0.003247	0.500015
C113	C	-1.235440	-0.421745	0.000017
C114	C	-0.735440	0.078255	0.500017
N115	N	-1.310142	-0.381059	0.000021
N116	N	-0.810142	0.118941	0.500021
H117	H	-1.203551	0.301362	0.436704
H118	H	-0.703551	0.801362	0.936704
H119	H	-1.203557	0.301377	0.563285
H120	H	-0.703557	0.801377	1.063285
H121	H	-1.203569	0.301379	0.744083
H122	H	-0.703569	0.801379	1.244083
C123	C	-0.537483	0.166432	0.181258
C124	C	-0.037483	0.666432	0.681258
N125	N	-0.576288	0.167420	0.252766
N126	N	-0.076288	0.667420	0.752766
H127	H	-0.963664	0.033801	0.744126
H128	H	-0.463664	0.533801	1.244126
H129	H	-0.963651	0.033789	0.563329
H130	H	-0.463651	0.533789	1.063329
C131	C	-0.944752	0.012724	0.451000
C132	C	-0.444752	0.512724	0.951000
N133	N	-0.889971	-0.048365	0.492297
N134	N	-0.389971	0.451635	0.992297
H135	H	-0.813037	0.173479	0.156593
H136	H	-0.313037	0.673479	0.656593
H137	H	-0.643087	0.169102	0.156592
H138	H	-0.143087	0.669102	0.656592
