data_functionalizedCrystal
_audit_creation_method	'MofGen! by Chris Wilmer'
_symmetry_space_group_name_H-M	'P1'
_symmetry_Int_Tables_number	1
_symmetry_cell_setting	triclinic
loop_
_symmetry_equiv_pos_as_xyz
  x,y,z
_cell_length_a	12.594517
_cell_length_b	25.639239
_cell_length_c	25.639234
_cell_angle_alpha	90.021106
_cell_angle_beta	90.011310
_cell_angle_gamma	90.038486
loop_
_atom_site_label
_atom_site_type_symbol
_atom_site_fract_x
_atom_site_fract_y
_atom_site_fract_z
Zn1	Zn	1.626994	-0.208205	0.295624
Zn2	Zn	2.126994	0.291795	0.795624
Zn3	Zn	1.626846	-0.295627	0.208189
Zn4	Zn	2.126846	0.204373	0.708189
Zn5	Zn	1.449029	-0.208208	0.208201
Zn6	Zn	1.949029	0.291792	0.708201
Zn7	Zn	1.448910	-0.295611	0.295591
Zn8	Zn	1.948910	0.204389	0.795591
O9	O	1.537945	-0.251913	0.251901
O10	O	2.037945	0.248087	0.751901
O11	O	1.775920	-0.219808	0.284034
O12	O	2.275920	0.280192	0.784034
O13	O	1.603246	-0.284039	0.135025
O14	O	2.103246	0.215961	0.635025
O15	O	1.472749	-0.135042	0.219817
O16	O	1.972749	0.364958	0.719817
O17	O	1.775811	-0.284037	0.219796
O18	O	2.275811	0.215963	0.719796
O19	O	1.603499	-0.135040	0.284046
O20	O	2.103499	0.364960	0.784046
O21	O	1.472605	-0.219812	0.135034
O22	O	1.972605	0.280188	0.635034
O23	O	1.300068	-0.219796	0.219785
O24	O	1.800068	0.280204	0.719785
O25	O	1.472545	-0.284008	0.368761
O26	O	1.972545	0.215992	0.868761
O27	O	1.299980	-0.284011	0.283991
O28	O	1.799980	0.215989	0.783991
O29	O	1.603383	-0.219792	0.368785
O30	O	2.103383	0.280208	0.868785
O31	O	1.603130	-0.368790	0.219764
O32	O	2.103130	0.131210	0.719764
O33	O	1.472402	-0.368778	0.283978
O34	O	1.972402	0.131222	0.783978
C35	C	1.261404	-0.251902	0.251886
C36	C	1.761404	0.248098	0.751886
C37	C	1.143098	-0.251910	0.251892
C38	C	1.643098	0.248090	0.751892
C39	C	1.537766	-0.387755	0.251877
C40	C	2.037766	0.112245	0.751877
C41	C	1.537787	-0.445869	0.251885
C42	C	2.037787	0.054131	0.751885
C43	C	1.073862	-0.216936	0.217037
C44	C	1.573862	0.283064	0.717037
C45	C	1.003017	-0.264625	0.204172
C46	C	1.503017	0.235375	0.704172
C47	C	1.003144	-0.204245	0.264766
C48	C	1.503144	0.295755	0.764766
C49	C	1.073812	-0.299624	0.239002
C50	C	1.573812	0.200376	0.739002
C51	C	1.073945	-0.239212	0.299618
C52	C	1.573945	0.260788	0.799618
C53	C	1.003132	-0.286934	0.286771
C54	C	1.503132	0.213066	0.786771
C55	C	1.606193	-0.806226	0.218522
C56	C	2.106193	-0.306226	0.718522
C57	C	1.606234	-0.860830	0.218529
C58	C	2.106234	-0.360830	0.718529
O59	O	1.664210	-0.889062	0.190136
O60	O	2.164210	-0.389062	0.690136
N61	N	1.538132	-0.888152	0.251936
N62	N	2.038132	-0.388152	0.751936
C63	C	1.469992	-0.860866	0.285342
C64	C	1.969992	-0.360866	0.785342
O65	O	1.412070	-0.889119	0.313759
O66	O	1.912070	-0.389119	0.813759
C67	C	1.469957	-0.806263	0.285337
C68	C	1.969957	-0.306263	0.785337
C69	C	1.538056	-0.778944	0.251924
C70	C	2.038056	-0.278944	0.751924
C71	C	1.674287	-0.778908	0.185112
C72	C	2.174287	-0.278908	0.685112
C73	C	1.674244	-0.724307	0.185104
C74	C	2.174244	-0.224307	0.685104
C75	C	1.606107	-0.697025	0.218507
C76	C	2.106107	-0.197025	0.718507
C77	C	1.538013	-0.724344	0.251917
C78	C	2.038013	-0.224344	0.751917
C79	C	1.401822	-0.778978	0.318746
C80	C	1.901822	-0.278978	0.818746
C81	C	1.401794	-0.724371	0.318738
C82	C	1.901794	-0.224371	0.818738
C83	C	1.469893	-0.697052	0.285325
C84	C	1.969893	-0.197052	0.785325
C85	C	1.469832	-0.642461	0.285312
C86	C	1.969832	-0.142461	0.785312
N87	N	1.537935	-0.615140	0.251904
N88	N	2.037935	-0.115140	0.751904
C89	C	1.606072	-0.642422	0.218502
C90	C	2.106072	-0.142422	0.718502
C91	C	1.470072	-0.975537	0.285350
C92	C	1.970072	-0.475537	0.785350
C93	C	1.470101	-1.030139	0.285353
C94	C	1.970101	-0.530139	0.785353
C95	C	1.606345	-1.030100	0.218540
C96	C	2.106345	-0.530100	0.718540
C97	C	1.606310	-0.975496	0.218535
C98	C	2.106310	-0.475496	0.718535
C99	C	1.538174	-0.948215	0.251943
C100	C	2.038174	-0.448215	0.751943
C101	C	1.605976	-0.527757	0.218488
C102	C	2.105976	-0.027757	0.718488
C103	C	1.605924	-0.473151	0.218482
C104	C	2.105924	0.026849	0.718482
C105	C	1.469684	-0.473195	0.285297
C106	C	1.969684	0.026805	0.785297
C107	C	1.469732	-0.527796	0.285301
C108	C	1.969732	-0.027796	0.785301
C109	C	1.537886	-0.555075	0.251895
C110	C	2.037886	-0.055075	0.751895
O111	O	1.411889	-0.614195	0.313691
O112	O	1.911889	-0.114195	0.813691
O113	O	1.663994	-0.614162	0.190095
O114	O	2.163994	-0.114162	0.690095
C115	C	1.815566	-0.251924	0.251917
C116	C	2.315566	0.248076	0.751917
C117	C	1.933871	-0.251928	0.251924
C118	C	2.433871	0.248072	0.751924
C119	C	1.537968	-0.251898	0.388274
C120	C	2.037968	0.248102	0.888274
C121	C	1.537977	-0.251892	0.446389
C122	C	2.037977	0.248108	0.946389
C123	C	1.538154	-0.115540	0.251937
C124	C	2.038154	0.384460	0.751937
C125	C	1.538242	-0.057426	0.251952
C126	C	2.038242	0.442574	0.751952
C127	C	1.537984	-0.251890	0.116059
C128	C	2.037984	0.248110	0.616059
C129	C	1.538180	-0.251749	0.057945
C130	C	2.038180	0.248251	0.557945
C131	C	1.469921	-0.285264	0.697564
C132	C	1.969921	0.214736	1.197564
C133	C	1.469902	-0.285275	0.642959
C134	C	1.969902	0.214725	1.142959
O135	O	1.411937	-0.313702	0.614707
O136	O	1.911937	0.186298	1.114707
N137	N	1.538018	-0.251849	0.615663
N138	N	2.038018	0.248151	1.115663
C139	C	1.606149	-0.218406	0.642973
C140	C	2.106149	0.281594	1.142973
O141	O	1.664084	-0.189975	0.614741
O142	O	2.164084	0.310025	1.114741
C143	C	1.606161	-0.218392	0.697576
C144	C	2.106161	0.281608	1.197576
C145	C	1.538049	-0.251824	0.724870
C146	C	2.038049	0.248176	1.224870
C147	C	1.401814	-0.318692	0.724858
C148	C	1.901814	0.181308	1.224858
C149	C	1.401834	-0.318681	0.779459
C150	C	1.901834	0.181319	1.279459
C151	C	1.469962	-0.285241	0.806765
C152	C	1.969962	0.214759	1.306765
C153	C	1.538069	-0.251812	0.779471
C154	C	2.038069	0.248188	1.279471
C155	C	1.674286	-0.184946	0.724885
C156	C	2.174286	0.315054	1.224885
C157	C	1.674292	-0.184934	0.779492
C158	C	2.174292	0.315066	1.279492
C159	C	1.606180	-0.218366	0.806786
C160	C	2.106180	0.281634	1.306786
C161	C	1.606218	-0.218361	0.861378
C162	C	2.106218	0.281639	1.361378
N163	N	1.538102	-0.251787	0.888675
N164	N	2.038102	0.248213	1.388675
C165	C	1.469974	-0.285227	0.861368
C166	C	1.969974	0.214773	1.361368
C167	C	1.606116	-0.218437	0.528302
C168	C	2.106116	0.281563	1.028302
C169	C	1.606110	-0.218453	0.473700
C170	C	2.106110	0.281547	0.973700
C171	C	1.469862	-0.285322	0.473690
C172	C	1.969862	0.214678	0.973690
C173	C	1.469874	-0.285308	0.528294
C174	C	1.969874	0.214692	1.028294
C175	C	1.538001	-0.251863	0.555599
C176	C	2.038001	0.248137	1.055599
C177	C	1.470023	-0.285201	0.976033
C178	C	1.970023	0.214799	1.476033
C179	C	1.470052	-0.285189	1.030639
C180	C	1.970052	0.214811	1.530639
C181	C	1.606296	-0.218318	1.030644
C182	C	2.106296	0.281682	1.530644
C183	C	1.606271	-0.218332	0.976043
C184	C	2.106271	0.281668	1.476043
C185	C	1.538126	-0.251776	0.948739
C186	C	2.038126	0.248224	1.448739
O187	O	1.664151	-0.189948	0.889665
O188	O	2.164151	0.310052	1.389665
O189	O	1.412039	-0.313648	0.889607
O190	O	1.912039	0.186352	1.389607
H191	H	1.104917	-0.187389	0.187526
H192	H	1.604917	0.312611	0.687526
F193	F	0.962793	-0.325645	0.325316
F194	F	1.462793	0.174355	0.825316
H195	H	1.661830	-1.052322	0.191344
H196	H	2.161830	-0.552322	0.691344
H197	H	1.414579	-0.953327	0.312553
H198	H	1.914579	-0.453327	0.812553
H199	H	1.346311	-0.702161	0.345945
H200	H	1.846311	-0.202161	0.845945
F201	F	1.746794	-0.149332	0.808550
F202	F	2.246794	0.350668	1.308550
F203	F	1.397379	-0.320890	0.557337
F204	F	1.897379	0.179110	1.057337
H205	H	1.414586	-0.312415	1.052859
H206	H	1.914586	0.187585	1.552859
H207	H	1.414283	-0.550040	0.312510
H208	H	1.914283	-0.050040	0.812510
F209	F	1.329350	-0.808041	0.354314
F210	F	1.829350	-0.308041	0.854314
F211	F	0.962562	-0.151548	0.278980
F212	F	1.462562	0.348452	0.778980
H213	H	1.105124	-0.228445	0.339953
H214	H	1.605124	0.271555	0.839953
H215	H	1.104725	-0.339954	0.228082
H216	H	1.604725	0.160046	0.728082
F217	F	1.397496	-0.320796	0.946982
F218	F	1.897496	0.179204	1.446982
H219	H	1.414386	-0.312550	0.451447
H220	H	1.914386	0.187450	0.951447
F221	F	1.678801	-0.182732	1.059715
F222	F	2.178801	0.317268	1.559715
F223	F	1.397609	-1.059207	0.320910
F224	F	1.897609	-0.559207	0.820910
F225	F	1.678513	-0.556782	0.182934
F226	F	2.178513	-0.056782	0.682934
F227	F	1.678618	-0.182877	0.444657
F228	F	2.178618	0.317123	0.944657
H229	H	1.346367	-0.345903	0.801677
H230	H	1.846367	0.154097	1.301677
F231	F	1.678407	-0.444080	0.182918
F232	F	2.178407	0.055920	0.682918
F233	F	1.678642	-0.182843	0.557358
F234	F	2.178642	0.317157	1.057358
F235	F	1.329294	-0.354286	0.695805
F236	F	1.829294	0.145714	1.195805
F237	F	1.746738	-0.695239	0.149547
F238	F	2.246738	-0.195239	0.649547
F239	F	1.746780	-0.149362	0.695848
F240	F	2.246780	0.350638	1.195848
F241	F	1.678775	-0.182757	0.946993
F242	F	2.178775	0.317243	1.446993
H243	H	0.971864	-0.275377	0.163825
H244	H	1.471864	0.224623	0.663825
F245	F	1.678790	-0.946427	0.182973
F246	F	2.178790	-0.446427	0.682973
F247	F	1.746817	-0.807935	0.149558
F248	F	2.246817	-0.307935	0.649558
H249	H	1.414204	-0.450974	0.312491
H250	H	1.914204	0.049026	0.812491
