data_functionalizedCrystal
_audit_creation_method	'MofGen! by Chris Wilmer'
_symmetry_space_group_name_H-M	'P1'
_symmetry_Int_Tables_number	1
_symmetry_cell_setting	triclinic
loop_
_symmetry_equiv_pos_as_xyz
  x,y,z
_cell_length_a	15.995350
_cell_length_b	10.654550
_cell_length_c	9.130313
_cell_angle_alpha	89.995631
_cell_angle_beta	90.000123
_cell_angle_gamma	83.988653
loop_
_atom_site_label
_atom_site_type_symbol
_atom_site_fract_x
_atom_site_fract_y
_atom_site_fract_z
O1	O	1.111924	0.161873	-0.121675
O2	O	0.868265	0.181862	-0.121705
O3	O	0.995697	-0.010945	-0.121680
O4	O	0.984493	0.354680	-0.121700
O5	O	0.995688	-0.010951	0.121919
O6	O	0.868256	0.181856	0.121894
O7	O	1.111916	0.161867	0.121924
Cu8	Cu	0.990085	0.171861	0.144152
Cu9	Cu	0.990096	0.171868	-0.143932
O10	O	0.984484	0.354674	0.121899
C11	C	0.994870	-0.057735	0.000119
C12	C	0.992409	-0.197146	0.000116
C13	C	0.837061	0.181033	0.000091
C14	C	0.744096	0.178555	0.000079
C15	C	1.067438	-0.277612	0.000125
C16	C	1.065121	-0.408602	0.000107
C17	C	0.912737	-0.378649	0.000077
C18	C	0.915055	-0.247661	0.000085
C19	C	0.406297	0.169658	0.000110
C20	C	0.452934	0.032344	0.000661
C21	C	0.549639	0.034822	0.000102
C22	C	0.573883	0.174071	0.000096
C23	C	0.533195	0.241802	-0.139009
C24	C	0.436539	0.238353	-0.139115
C25	C	0.436206	0.241183	0.137902
C26	C	0.533152	0.241151	0.139731
C27	C	0.668595	0.176573	0.000083
C28	C	0.311585	0.167161	0.000114
C29	C	1.143119	0.162696	0.000125
C30	C	1.236084	0.165174	0.000127
C31	C	0.985311	0.401464	0.000097
C32	C	0.987772	0.540875	0.000090
N33	N	0.990084	0.171856	0.346774
N34	N	0.990103	0.171863	-0.346555
C35	C	1.046530	0.086517	0.423437
C36	C	1.046538	0.086517	0.576774
C37	C	0.933651	0.257207	0.576771
C38	C	0.933640	0.257200	0.423437
H39	H	1.126218	-0.474113	0.000111
H40	H	0.849758	-0.419794	0.000055
O41	O	0.834127	-0.160857	0.000092
H42	H	0.779949	-0.217986	0.000096
O43	O	0.568931	0.175657	0.276059
H44	H	0.600116	0.243632	0.343832
O45	O	0.586891	-0.035682	0.132193
H46	H	0.535839	-0.071868	0.197044
O47	O	0.394582	0.371880	-0.147499
H48	H	0.414262	0.417012	-0.249660
O49	O	0.394908	0.375283	0.139172
H50	H	0.353277	0.390975	0.042197
H51	H	0.561299	0.194764	-0.242529
H52	H	0.415406	0.196290	0.243340
O53	O	0.872745	0.349240	0.340746
H54	H	0.882211	0.334880	0.221244
H55	H	0.434089	-0.022546	0.100419
O56	O	0.554284	0.375659	0.150878
H57	H	0.594321	0.396899	0.056640
O58	O	1.107393	-0.005562	0.340766
H59	H	1.071779	-0.066623	0.270933
H60	H	1.092500	0.017025	0.639189
H61	H	1.130424	-0.236488	0.000147
H62	H	0.433027	-0.022288	-0.098541
O63	O	0.872783	0.349268	0.659456
H64	H	0.882280	0.334949	0.778959
O65	O	0.552684	0.377316	-0.145894
H66	H	0.621807	0.380031	-0.150785
O67	O	0.586143	-0.036156	-0.132210
H68	H	0.534713	-0.072376	-0.196054
O69	O	0.411903	0.172910	-0.276826
H70	H	0.469002	0.144016	-0.342717
