data_functionalizedCrystal
_audit_creation_method	'MofGen! by Chris Wilmer'
_symmetry_space_group_name_H-M	'P1'
_symmetry_Int_Tables_number	1
_symmetry_cell_setting	triclinic
loop_
_symmetry_equiv_pos_as_xyz
  x,y,z
_cell_length_a	18.050591
_cell_length_b	18.050589
_cell_length_c	17.077396
_cell_angle_alpha	89.975358
_cell_angle_beta	89.975554
_cell_angle_gamma	90.024669
loop_
_atom_site_label
_atom_site_type_symbol
_atom_site_fract_x
_atom_site_fract_y
_atom_site_fract_z
Zn1	Zn	1.135327	-0.295730	-0.443967
Zn2	Zn	1.635327	0.204270	0.056033
Zn3	Zn	1.135227	-0.419927	-0.312710
Zn4	Zn	1.635227	0.080073	0.187290
Zn5	Zn	1.011136	-0.295748	-0.312704
Zn6	Zn	1.511136	0.204252	0.187296
Zn7	Zn	1.011094	-0.419875	-0.443922
Zn8	Zn	1.511094	0.080125	0.056078
O9	O	1.073196	-0.357820	-0.378326
O10	O	1.573196	0.142180	0.121674
O11	O	1.239238	-0.312219	-0.426577
O12	O	1.739238	0.187781	0.073423
O13	O	1.118742	-0.403484	-0.202862
O14	O	1.618742	0.096516	0.297138
O15	O	1.027669	-0.191821	-0.330132
O16	O	1.527669	0.308179	0.169868
O17	O	1.239165	-0.403466	-0.330143
O18	O	1.739165	0.096534	0.169857
O19	O	1.118912	-0.191808	-0.426571
O20	O	1.618912	0.308192	0.073429
O21	O	1.027573	-0.312250	-0.202858
O22	O	1.527573	0.187750	0.297142
O23	O	0.907206	-0.312199	-0.330089
O24	O	1.407206	0.187801	0.169911
O25	O	1.027598	-0.403377	-0.553775
O26	O	1.527598	0.096623	-0.053775
O27	O	0.907175	-0.403395	-0.426494
O28	O	1.407175	0.096605	0.073506
O29	O	1.118871	-0.312169	-0.553808
O30	O	1.618871	0.187831	-0.053808
O31	O	1.118702	-0.523845	-0.330099
O32	O	1.618702	-0.023845	0.169901
O33	O	1.027501	-0.523806	-0.426500
O34	O	1.527501	-0.023806	0.073500
C35	C	0.880244	-0.357794	-0.378287
C36	C	1.380244	0.142206	0.121713
C37	C	0.797698	-0.357800	-0.378288
C38	C	1.297698	0.142200	0.121712
C39	C	0.548868	-0.308157	-0.325987
C40	C	1.048868	0.191843	0.174013
C41	C	0.598305	-0.290068	-0.397624
C42	C	1.098305	0.209932	0.102376
C43	C	0.500578	-0.357838	-0.378353
C44	C	1.000578	0.142162	0.121647
C45	C	0.598222	-0.375873	-0.306688
C46	C	1.098222	0.124127	0.193312
C47	C	0.646563	-0.357818	-0.378317
C48	C	1.146563	0.142182	0.121683
C49	C	0.548928	-0.339715	-0.450028
C50	C	1.048928	0.160285	0.049972
C51	C	0.548840	-0.425551	-0.359043
C52	C	1.048840	0.074449	0.140957
C53	C	0.598256	-0.407488	-0.430730
C54	C	1.098256	0.092512	0.069270
C55	C	0.416480	-0.357848	-0.378372
C56	C	0.916480	0.142152	0.121628
C57	C	0.730659	-0.357808	-0.378306
C58	C	1.230659	0.142192	0.121694
C59	C	1.073106	-0.550772	-0.378313
C60	C	1.573106	-0.050772	0.121687
C61	C	1.073136	-0.633318	-0.378333
C62	C	1.573136	-0.133318	0.121667
C63	C	1.023590	-0.832774	-0.430738
C64	C	1.523590	-0.332774	0.069262
C65	C	1.005487	-0.882215	-0.359107
C66	C	1.505487	-0.382215	0.140893
C67	C	1.073209	-0.784448	-0.378344
C68	C	1.573209	-0.284448	0.121656
C69	C	1.091349	-0.882089	-0.449983
C70	C	1.591349	-0.382089	0.050017
C71	C	1.073278	-0.930433	-0.378360
C72	C	1.573278	-0.430433	0.121640
C73	C	1.055070	-0.832801	-0.306675
C74	C	1.555070	-0.332801	0.193325
C75	C	1.140964	-0.832671	-0.397599
C76	C	1.640964	-0.332671	0.102401
C77	C	1.122886	-0.882089	-0.325919
C78	C	1.622886	-0.382089	0.174081
C79	C	1.073167	-0.700350	-0.378335
C80	C	1.573167	-0.200350	0.121665
C81	C	1.073320	-1.014530	-0.378360
C82	C	1.573320	-0.514530	0.121640
C83	C	1.266902	-0.357847	-0.378366
C84	C	1.766902	0.142153	0.121634
C85	C	1.349447	-0.357858	-0.378383
C86	C	1.849447	0.142142	0.121617
C87	C	1.073241	-0.357765	-0.583070
C88	C	1.573241	0.142235	-0.083070
C89	C	1.073260	-0.357742	-0.670320
C90	C	1.573260	0.142258	-0.170320
C91	C	1.073306	-0.164114	-0.378356
C92	C	1.573306	0.335886	0.121644
C93	C	1.073353	-0.081568	-0.378369
C94	C	1.573353	0.418432	0.121631
C95	C	1.120788	-0.310245	-0.711329
C96	C	1.620788	0.189755	-0.211329
C97	C	1.120797	-0.310221	-0.793309
C98	C	1.620797	0.189779	-0.293309
C99	C	1.073281	-0.357697	-0.834280
C100	C	1.573281	0.142303	-0.334280
C101	C	1.025748	-0.405195	-0.793265
C102	C	1.525748	0.094805	-0.293265
C103	C	1.025736	-0.405216	-0.711286
C104	C	1.525736	0.094784	-0.211286
C105	C	1.025778	-0.405150	-0.964135
C106	C	1.525778	0.094850	-0.464135
C107	C	1.025791	-0.405131	-1.046120
C108	C	1.525791	0.094869	-0.546120
C109	C	1.120839	-0.310156	-1.046158
C110	C	1.620839	0.189844	-0.546158
C111	C	1.120827	-0.310176	-0.964179
C112	C	1.620827	0.189824	-0.464179
C113	C	1.073295	-0.357676	-0.923171
C114	C	1.573295	0.142324	-0.423171
C115	C	1.073194	-0.357821	-0.174378
C116	C	1.573194	0.142179	0.325622
C117	C	1.073319	-0.357635	-0.087129
C118	C	1.573319	0.142365	0.412871
H119	H	0.619803	-0.449494	-0.475050
H120	H	1.119803	0.050506	0.024950
O121	O	1.036840	-0.807122	-0.234336
O122	O	1.536840	-0.307122	0.265664
C123	C	1.088920	-0.832851	-0.179164
C124	C	1.588920	-0.332851	0.320836
H125	H	1.142995	-0.846943	-0.210271
H126	H	1.642995	-0.346943	0.289729
H127	H	1.099507	-0.787914	-0.133633
H128	H	1.599507	-0.287914	0.366367
H129	H	1.066371	-0.884499	-0.148974
H130	H	1.566371	-0.384499	0.351026
H131	H	1.164877	-0.903606	-0.281566
H132	H	1.664877	-0.403606	0.218434
H133	H	0.527098	-0.482807	-0.342700
H134	H	1.027098	0.017193	0.157300
O135	O	0.973406	-0.807059	-0.483532
O136	O	1.473406	-0.307059	0.016468
C137	C	0.937835	-0.867387	-0.520077
C138	C	1.437835	-0.367387	-0.020077
H139	H	0.941687	-0.918272	-0.480730
H140	H	1.441687	-0.418272	0.019270
H141	H	0.877118	-0.853159	-0.530574
H142	H	1.377118	-0.353159	-0.030574
H143	H	0.965934	-0.879512	-0.578479
H144	H	1.465934	-0.379512	-0.078479
H145	H	1.106664	-0.903740	-0.510561
H146	H	1.606664	-0.403740	-0.010561
H147	H	0.987061	-0.443818	-0.930749
H148	H	1.487061	0.056182	-0.430749
O149	O	0.522901	-0.257965	-0.273340
O150	O	1.022901	0.242035	0.226660
C151	C	0.478922	-0.205026	-0.312360
C152	C	0.978922	0.294974	0.187640
H153	H	0.457278	-0.229605	-0.369421
H154	H	0.957278	0.270395	0.130579
H155	H	0.430200	-0.188828	-0.273484
H156	H	0.930200	0.311172	0.226516
H157	H	0.513725	-0.153837	-0.325728
H158	H	1.013725	0.346163	0.174272
H159	H	0.987098	-0.443789	-1.079476
H160	H	1.487098	0.056211	-0.579476
O161	O	1.209242	-0.806720	-0.417185
O162	O	1.709242	-0.306720	0.082815
C163	C	1.228126	-0.831802	-0.492778
C164	C	1.728126	-0.331802	0.007222
H165	H	1.175487	-0.845705	-0.526590
H166	H	1.675487	-0.345705	-0.026590
H167	H	1.259977	-0.786548	-0.525004
H168	H	1.759977	-0.286548	-0.025004
H169	H	1.264182	-0.883433	-0.487868
H170	H	1.764182	-0.383433	0.012132
O171	O	0.979628	-0.451416	-0.832976
O172	O	1.479628	0.048584	-0.332976
C173	C	0.995824	-0.525442	-0.812949
C174	C	1.495824	-0.025442	-0.312949
H175	H	1.024361	-0.527000	-0.753433
H176	H	1.524361	-0.027000	-0.253433
H177	H	0.942207	-0.558736	-0.810124
H178	H	1.442207	-0.058736	-0.310124
H179	H	1.034000	-0.550450	-0.859092
H180	H	1.534000	-0.050450	-0.359092
O181	O	0.623967	-0.394001	-0.234346
O182	O	1.123967	0.105999	0.265654
C183	C	0.598817	-0.341473	-0.179351
C184	C	1.098817	0.158527	0.320649
H185	H	0.546839	-0.313219	-0.202672
H186	H	1.046839	0.186781	0.297328
H187	H	0.585462	-0.370523	-0.121760
H188	H	1.085462	0.129477	0.378240
H189	H	0.643811	-0.298203	-0.169150
H190	H	1.143811	0.201797	0.330850
O191	O	0.979676	-0.451392	-0.671357
O192	O	1.479676	0.048608	-0.171357
C193	C	1.021929	-0.499384	-0.623955
C194	C	1.521929	0.000616	-0.123955
H195	H	1.078223	-0.473201	-0.611701
H196	H	1.578223	0.026799	-0.111701
H197	H	0.991669	-0.509343	-0.566293
H198	H	1.491669	-0.009343	-0.066293
H199	H	1.030060	-0.554415	-0.655538
H200	H	1.530060	-0.054415	-0.155538
O201	O	1.166970	-0.264057	-0.671655
O202	O	1.666970	0.235943	-0.171655
C203	C	1.208932	-0.222143	-0.725434
C204	C	1.708932	0.277857	-0.225434
H205	H	1.178522	-0.219554	-0.783863
H206	H	1.678522	0.280446	-0.283863
H207	H	1.216884	-0.163636	-0.701761
H208	H	1.716884	0.336364	-0.201761
H209	H	1.265321	-0.249343	-0.734165
H210	H	1.765321	0.250657	-0.234165
H211	H	1.159500	-0.271546	-0.826695
H212	H	1.659500	0.228454	-0.326695
H213	H	1.159522	-0.271521	-0.930823
H214	H	1.659522	0.228479	-0.430823
H215	H	0.527365	-0.324385	-0.510636
H216	H	1.027365	0.175615	-0.010636
O217	O	0.937175	-0.908269	-0.339787
O218	O	1.437175	-0.408269	0.160213
C219	C	0.909648	-0.952304	-0.401437
C220	C	1.409648	-0.452304	0.098563
H221	H	0.957853	-0.973898	-0.438028
H222	H	1.457853	-0.473898	0.061972
H223	H	0.877325	-1.001060	-0.376206
H224	H	1.377325	-0.501060	0.123794
H225	H	0.871507	-0.917563	-0.439928
H226	H	1.371507	-0.417563	0.060072
O227	O	0.624198	-0.221700	-0.416967
O228	O	1.124198	0.278300	0.083033
C229	C	0.599024	-0.169494	-0.361642
C230	C	1.099024	0.330506	0.138358
H231	H	0.585119	-0.198963	-0.304436
H232	H	1.085119	0.301037	0.195564
H233	H	0.644224	-0.126606	-0.350701
H234	H	1.144224	0.373394	0.149299
H235	H	0.547376	-0.140699	-0.385051
H236	H	1.047376	0.359301	0.114949
O237	O	1.166933	-0.264027	-1.086111
O238	O	1.666933	0.235973	-0.586111
C239	C	1.156764	-0.274194	-1.167253
C240	C	1.656764	0.225806	-0.667253
H241	H	1.099441	-0.298511	-1.178427
H242	H	1.599441	0.201489	-0.678427
H243	H	1.161828	-0.218555	-1.198414
H244	H	1.661828	0.281445	-0.698414
H245	H	1.200798	-0.313734	-1.190532
H246	H	1.700798	0.186266	-0.690532
