data_functionalizedCrystal
_audit_creation_method	'MofGen! by Chris Wilmer'
_symmetry_space_group_name_H-M	'P1'
_symmetry_Int_Tables_number	1
_symmetry_cell_setting	triclinic
loop_
_symmetry_equiv_pos_as_xyz
  x,y,z
_cell_length_a	19.121063
_cell_length_b	18.215407
_cell_length_c	18.215399
_cell_angle_alpha	89.988410
_cell_angle_beta	92.407307
_cell_angle_gamma	92.474914
loop_
_atom_site_label
_atom_site_type_symbol
_atom_site_fract_x
_atom_site_fract_y
_atom_site_fract_z
Zn1	Zn	-0.279490	1.112542	-0.428489
Zn2	Zn	-0.396951	1.107200	-0.310666
Zn3	Zn	-0.279530	0.989480	-0.305449
Zn4	Zn	-0.396918	0.984186	-0.433700
O5	O	-0.338222	1.048352	-0.369576
O6	O	-0.295069	1.214818	-0.412861
O7	O	-0.381405	1.091565	-0.206991
O8	O	-0.181240	1.010255	-0.317407
O9	O	-0.381366	1.210893	-0.326297
O10	O	-0.181211	1.100669	-0.407803
O11	O	-0.295136	1.005075	-0.203158
O12	O	-0.295105	0.885793	-0.322460
O13	O	-0.381311	1.001232	-0.535992
O14	O	-0.381349	0.881903	-0.416686
O15	O	-0.295037	1.095535	-0.532163
O16	O	-0.495231	1.086431	-0.331351
O17	O	-0.495207	0.996053	-0.421744
C18	C	-0.520703	1.040108	-0.377695
C19	C	-0.598770	1.036648	-0.381193
C20	C	-0.338228	0.857145	-0.369573
C21	C	-0.338248	0.775346	-0.369589
C22	C	-0.338166	1.048389	-0.561527
C23	C	-0.338142	1.048405	-0.643324
C24	C	-0.635434	1.082115	-0.335812
C25	C	-0.708786	1.078865	-0.339106
C26	C	-0.745471	1.030145	-0.387778
C27	C	-0.708801	0.984677	-0.433163
C28	C	-0.635451	0.987930	-0.429872
C29	C	-0.966942	1.017969	-0.400070
C30	C	-1.040297	1.014717	-0.403356
C31	C	-1.040277	1.108907	-0.309300
C32	C	-0.966925	1.112153	-0.306010
C33	C	-0.930262	1.066688	-0.351398
C34	C	-0.820448	1.026821	-0.391144
C35	C	-0.855286	1.070016	-0.348035
C36	C	-0.155028	1.056648	-0.361442
C37	C	-0.076962	1.060184	-0.357975
C38	C	-0.338217	1.240305	-0.369580
C39	C	-0.338214	1.322104	-0.369582
C40	C	-0.293300	1.512342	-0.414655
C41	C	-0.293306	1.589200	-0.414658
C42	C	-0.383167	1.585102	-0.324514
C43	C	-0.383164	1.508245	-0.324515
C44	C	-0.338226	1.471867	-0.369585
C45	C	-0.338236	1.625583	-0.369587
C46	C	-0.338244	1.708916	-0.369590
C47	C	-0.338219	1.388528	-0.369583
C48	C	-0.293192	1.003411	-0.829522
C49	C	-0.293178	1.003425	-0.906381
C50	C	-0.383009	1.093491	-0.910361
C51	C	-0.383026	1.093473	-0.833504
C52	C	-0.338114	1.048434	-0.793087
C53	C	-0.338082	1.048466	-0.946802
C54	C	-0.338067	1.048481	-1.030135
C55	C	-0.338129	1.048418	-0.709748
C56	C	-0.338227	1.048359	-0.178370
C57	C	-0.338053	1.048495	-0.096564
H58	H	-0.738635	1.115889	-0.302152
H59	H	-0.825415	1.109687	-0.308409
H60	H	-0.256723	1.622152	-0.451360
C61	C	-0.432068	1.624558	-0.275677
C62	C	-0.501556	1.602730	-0.294799
C63	C	-0.546622	1.639068	-0.249831
H64	H	-0.421896	1.612445	-0.225752
H65	H	-0.425682	1.676134	-0.282139
H66	H	-0.507939	1.551167	-0.288330
H67	H	-0.511750	1.614844	-0.344716
H68	H	-0.540236	1.690643	-0.256293
H69	H	-0.536444	1.626952	-0.199909
H70	H	-0.593775	1.624268	-0.262803
C71	C	-0.432032	1.464253	-0.275706
C72	C	-0.477047	1.418113	-0.319378
C73	C	-0.522080	1.377585	-0.274447
H74	H	-0.405256	1.435417	-0.242438
H75	H	-0.458834	1.496901	-0.248876
H76	H	-0.450248	1.385469	-0.346196
H77	H	-0.503839	1.446931	-0.352644
H78	H	-0.548882	1.410233	-0.247617
H79	H	-0.495298	1.348753	-0.241182
H80	H	-0.552632	1.346279	-0.304072
H81	H	-1.070136	1.145924	-0.272348
C82	C	-0.431687	1.142406	-0.793840
C83	C	-0.391928	1.191350	-0.747937
C84	C	-0.436730	1.236426	-0.711379
H85	H	-0.458446	1.169305	-0.828833
H86	H	-0.462286	1.112879	-0.765174
H87	H	-0.361342	1.220873	-0.776601
H88	H	-0.365170	1.164472	-0.712930
H89	H	-0.467329	1.206900	-0.682713
H90	H	-0.463487	1.263320	-0.746378
H91	H	-0.409760	1.269636	-0.680225
H92	H	-0.850326	0.987152	-0.430771
H93	H	-0.419574	1.130160	-0.943278
H94	H	-0.605570	1.121785	-0.296176
H95	H	-0.937057	1.151825	-0.266378
C96	C	-0.244412	0.954427	-0.785772
C97	C	-0.205084	0.914985	-0.834136
C98	C	-0.160149	0.869843	-0.793862
H99	H	-0.213750	0.983874	-0.754426
H100	H	-0.271275	0.921101	-0.756998
H101	H	-0.178222	0.948307	-0.862897
H102	H	-0.235727	0.885525	-0.865482
H103	H	-0.187012	0.836517	-0.765089
H104	H	-0.129491	0.899295	-0.762518
H105	H	-0.133464	0.843071	-0.826671
H106	H	-0.256599	0.966762	-0.936043
H107	H	-1.070165	0.975052	-0.443003
H108	H	-0.937096	0.980948	-0.437025
H109	H	-0.738677	0.945011	-0.472796
H110	H	-0.256708	1.482725	-0.451353
C111	C	-0.595768	0.938483	-0.479180
C112	C	-0.643593	0.895107	-0.522497
C113	C	-0.607063	0.849543	-0.567926
H114	H	-0.567107	0.967809	-0.510046
H115	H	-0.567214	0.907660	-0.449741
H116	H	-0.672134	0.925925	-0.551932
H117	H	-0.672255	0.865765	-0.491650
H118	H	-0.578509	0.818721	-0.538487
H119	H	-0.578403	0.878875	-0.598787
H120	H	-0.639506	0.820102	-0.597317
