data_functionalizedCrystal
_audit_creation_method	'MofGen! by Chris Wilmer'
_symmetry_space_group_name_H-M	'P1'
_symmetry_Int_Tables_number	1
_symmetry_cell_setting	triclinic
loop_
_symmetry_equiv_pos_as_xyz
  x,y,z
_cell_length_a	19.288864
_cell_length_b	15.995350
_cell_length_c	17.766277
_cell_angle_alpha	89.995869
_cell_angle_beta	89.976791
_cell_angle_gamma	83.314311
loop_
_atom_site_label
_atom_site_type_symbol
_atom_site_fract_x
_atom_site_fract_y
_atom_site_fract_z
O1	O	0.921624	0.104452	-0.062832
O2	O	1.421624	0.604452	0.437168
O3	O	0.719400	0.118542	-0.062780
O4	O	1.219400	0.618542	0.437220
O5	O	0.826040	-0.010412	-0.062807
O6	O	1.326040	0.489588	0.437193
O7	O	0.814984	0.233405	-0.062805
O8	O	1.314984	0.733405	0.437195
O9	O	0.826021	-0.010418	0.062382
O10	O	1.326021	0.489582	0.562382
O11	O	0.719381	0.118535	0.062408
O12	O	1.219381	0.618535	0.562408
O13	O	0.921605	0.104445	0.062357
O14	O	1.421605	0.604445	0.562357
Cu15	Cu	0.820492	0.111490	0.073813
Cu16	Cu	1.320492	0.611490	0.573813
Cu17	Cu	0.820514	0.111497	-0.074237
Cu18	Cu	1.320514	0.611497	0.425763
O19	O	0.814965	0.233399	0.062383
O20	O	1.314965	0.733399	0.562383
C21	C	0.693513	0.118085	-0.000179
C22	C	1.193513	0.618085	0.499821
C23	C	0.616406	0.116724	-0.000159
C24	C	1.116406	0.616724	0.499841
C25	C	0.571906	0.192388	-0.000171
C26	C	1.071906	0.692388	0.499829
C27	C	0.499456	0.191110	-0.000179
C28	C	0.999456	0.691110	0.499821
C29	C	0.471508	0.114163	-0.000191
C30	C	0.971508	0.614163	0.499809
C31	C	0.516018	0.038489	-0.000176
C32	C	1.016018	0.538489	0.499824
C33	C	0.588467	0.039769	-0.000160
C34	C	1.088467	0.539769	0.499840
C35	C	0.363096	0.053676	-0.044076
C36	C	0.863096	0.553676	0.455924
C37	C	0.290648	0.052398	-0.044097
C38	C	0.790648	0.552398	0.455903
C39	C	0.248053	0.110209	-0.000237
C40	C	0.748053	0.610209	0.499763
C41	C	0.277912	0.169312	0.043634
C42	C	0.777912	0.669312	0.543634
C43	C	0.350361	0.170593	0.043650
C44	C	0.850361	0.670593	0.543650
C45	C	0.392951	0.112765	-0.000208
C46	C	0.892951	0.612765	0.499792
C47	C	0.124993	0.184492	-0.000256
C48	C	0.624993	0.684492	0.499744
C49	C	0.052542	0.183210	-0.000260
C50	C	0.552542	0.683210	0.499740
C51	C	0.069106	0.030587	-0.000264
C52	C	0.569106	0.530587	0.499736
C53	C	0.141556	0.031871	-0.000253
C54	C	0.641556	0.531871	0.499747
C55	C	0.169495	0.108826	-0.000252
C56	C	0.669495	0.608826	0.499748
C57	C	0.825574	-0.041608	-0.000214
C58	C	1.325574	0.458392	0.499786
C59	C	0.824203	-0.134553	-0.000218
C60	C	1.324203	0.365447	0.499782
C61	C	0.819282	-0.472282	-0.000214
C62	C	1.319282	0.027718	0.499786
C63	C	0.743335	-0.424562	-0.000475
C64	C	1.243335	0.075438	0.499525
C65	C	0.744706	-0.327877	-0.000193
C66	C	1.244706	0.172123	0.499807
C67	C	0.821723	-0.304731	-0.000216
C68	C	1.321723	0.195269	0.499784
C69	C	0.859172	-0.345953	0.071262
C70	C	1.359172	0.154047	0.571262
C71	C	0.857264	-0.442582	0.071322
C72	C	1.357264	0.057418	0.571322
C73	C	0.858855	-0.442939	-0.071041
C74	C	1.358855	0.057061	0.428959
C75	C	0.858837	-0.345993	-0.071986
C76	C	1.358837	0.154007	0.428014
C77	C	0.823107	-0.210039	-0.000215
C78	C	1.323107	0.289961	0.499785
C79	C	0.817901	-0.566975	-0.000210
C80	C	1.317901	-0.066975	0.499790
C81	C	0.947492	0.104902	-0.000246
C82	C	1.447492	0.604902	0.499754
C83	C	1.024600	0.106263	-0.000271
C84	C	1.524600	0.606263	0.499729
C85	C	0.815432	0.264595	-0.000211
C86	C	1.315432	0.764595	0.499789
C87	C	0.816802	0.357540	-0.000212
C88	C	1.316802	0.857540	0.499788
N89	N	0.820481	0.111484	0.177944
N90	N	1.320481	0.611484	0.677944
N91	N	0.820530	0.111497	-0.178367
N92	N	1.320530	0.611497	0.321633
C93	C	0.867717	0.054411	0.217319
C94	C	1.367717	0.554411	0.717319
C95	C	0.867721	0.054407	0.296120
C96	C	1.367721	0.554407	0.796120
C97	C	0.820496	0.111490	0.335544
C98	C	1.320496	0.611490	0.835544
C99	C	0.773251	0.168567	0.296160
C100	C	1.273251	0.668567	0.796160
C101	C	0.773244	0.168564	0.217359
C102	C	1.273244	0.668564	0.717359
C103	C	0.811395	0.187781	0.460384
C104	C	1.311395	0.687781	0.960384
C105	C	0.811407	0.187785	0.539183
C106	C	1.311407	0.687785	1.039183
C107	C	0.820514	0.111500	0.578590
C108	C	1.320514	0.611500	1.078590
C109	C	0.829624	0.035208	0.539190
C110	C	1.329624	0.535208	1.039190
C111	C	0.829617	0.035204	0.460389
C112	C	1.329617	0.535204	0.960389
C113	C	0.820498	0.111500	0.420990
C114	C	1.320498	0.611500	0.920990
C115	C	0.867757	0.054419	0.703411
C116	C	1.367757	0.554419	1.203411
C117	C	0.867756	0.054414	0.782215
C118	C	1.367756	0.554414	1.282215
C119	C	0.773290	0.168581	0.782252
C120	C	1.273290	0.668581	1.282252
C121	C	0.773288	0.168579	0.703451
C122	C	1.273288	0.668579	1.203451
C123	C	0.820525	0.111499	0.664035
C124	C	1.320525	0.611499	1.164035
H125	H	0.177789	-0.029743	-0.000247
H126	H	0.677789	0.470257	0.499753
H127	H	0.734778	0.215040	0.185299
H128	H	1.234778	0.715040	0.685299
H129	H	0.906178	0.007931	0.185229
H130	H	1.406178	0.507931	0.685229
H131	H	0.803994	0.249907	0.571257
H132	H	1.303994	0.749907	1.071257
H133	H	0.913023	-0.475041	0.074549
H134	H	1.413023	0.024959	0.574549
H135	H	0.734836	0.215056	0.814350
H136	H	1.234836	0.715056	1.314350
H137	H	0.016310	0.244828	-0.000265
H138	H	0.516310	0.744828	0.499735
C139	C	0.934717	-0.325533	-0.077838
C140	C	1.434717	0.174467	0.422162
N141	N	0.991873	-0.310126	-0.082238
N142	N	1.491873	0.189874	0.417762
C143	C	0.704650	-0.290082	0.069167
C144	C	1.204650	0.209918	0.569167
N145	N	0.674480	-0.261616	0.121413
N146	N	1.174480	0.238384	0.621413
C147	C	0.702505	-0.450855	0.068422
C148	C	1.202505	0.049145	0.568422
N149	N	0.671757	-0.470653	0.120322
N150	N	1.171757	0.029347	0.620322
H151	H	0.803967	0.249906	0.428305
H152	H	1.303967	0.749906	0.928305
C153	C	0.839641	-0.048713	0.582532
C154	C	1.339641	0.451287	1.082532
N155	N	0.847186	-0.111920	0.615181
N156	N	1.347186	0.388080	1.115181
H157	H	0.906219	0.007934	0.814274
H158	H	1.406219	0.507934	1.314274
C159	C	0.602635	0.277041	-0.000156
C160	C	1.102635	0.777041	0.499844
N161	N	0.625780	0.340802	-0.000139
N162	N	1.125780	0.840802	0.499861
H163	H	0.914850	-0.474911	-0.071538
H164	H	1.414850	0.025089	0.428462
C165	C	0.820343	-0.467172	0.143522
C166	C	1.320343	0.032828	0.643522
N167	N	0.792531	-0.485688	0.197903
N168	N	1.292531	0.014312	0.697903
H169	H	0.906218	0.007938	0.671318
H170	H	1.406218	0.507938	1.171318
H171	H	0.734799	0.215044	0.328262
H172	H	1.234799	0.715044	0.828262
H173	H	0.734827	0.215056	0.671389
H174	H	1.234827	0.715056	1.171389
H175	H	0.463217	0.252727	-0.000186
H176	H	0.963217	0.752727	0.499814
H177	H	0.833147	-0.317477	0.124469
H178	H	1.333147	0.182523	0.624469
C179	C	0.383205	0.235596	0.091914
C180	C	0.883205	0.735596	0.591914
N181	N	0.407943	0.284555	0.128271
N182	N	0.907943	0.784555	0.628271
H183	H	0.834032	-0.463382	-0.125218
H184	H	1.334032	0.036618	0.374782
C185	C	0.155729	0.269143	-0.000247
C186	C	0.655729	0.769143	0.499753
N187	N	0.178876	0.332903	-0.000238
N188	N	0.678876	0.832903	0.499762
C189	C	0.231062	0.232907	0.091886
C190	C	0.731062	0.732907	0.591886
N191	N	0.195772	0.280805	0.128228
N192	N	0.695772	0.780805	0.628228
H193	H	0.046352	-0.032065	-0.000320
H194	H	0.546352	0.467935	0.499680
C195	C	0.821883	-0.308990	-0.143424
C196	C	1.321883	0.191010	0.356576
N197	N	0.794042	-0.281122	-0.197230
N198	N	1.294042	0.218878	0.302770
H199	H	0.397772	0.006598	-0.079796
H200	H	0.897772	0.506598	0.420204
C201	C	0.257810	-0.012620	-0.092349
C202	C	0.757810	0.487380	0.407651
N203	N	0.233079	-0.061596	-0.128692
N204	N	0.733079	0.438404	0.371308
H205	H	0.493259	-0.024162	-0.000196
H206	H	0.993259	0.475838	0.499804
C207	C	0.919692	-0.008372	0.339442
C208	C	1.419692	0.491628	0.839442
N209	N	0.958840	-0.055653	0.372069
N210	N	1.458840	0.444347	0.872069
H211	H	0.715268	-0.299341	-0.051431
H212	H	1.215268	0.200659	0.448569
C213	C	0.702331	-0.449448	-0.069716
C214	C	1.202331	0.050552	0.430284
N215	N	0.671445	-0.468200	-0.121869
N216	N	1.171445	0.031800	0.378131
C217	C	0.637419	-0.043471	-0.000152
C218	C	1.137419	0.456529	0.499848
N219	N	0.674291	-0.106169	-0.000149
N220	N	1.174291	0.393831	0.499851
C221	C	0.839628	-0.048716	0.417051
C222	C	1.339628	0.451284	0.917051
N223	N	0.847165	-0.111927	0.384409
N224	N	1.347165	0.388073	0.884409
C225	C	0.935608	-0.327143	0.074843
C226	C	1.435608	0.172857	0.574843
N227	N	0.993178	-0.312967	0.077542
N228	N	1.493178	0.187033	0.577542
