data_functionalizedCrystal
_audit_creation_method	'MofGen! by Chris Wilmer'
_symmetry_space_group_name_H-M	'P1'
_symmetry_Int_Tables_number	1
_symmetry_cell_setting	triclinic
loop_
_symmetry_equiv_pos_as_xyz
  x,y,z
_cell_length_a	16.974800
_cell_length_b	17.019294
_cell_length_c	15.455313
_cell_angle_alpha	88.788101
_cell_angle_beta	90.973911
_cell_angle_gamma	83.640951
loop_
_atom_site_label
_atom_site_type_symbol
_atom_site_fract_x
_atom_site_fract_y
_atom_site_fract_z
O1	O	1.049320	0.100201	-0.005927
O2	O	0.819917	0.112205	-0.022934
O3	O	0.940610	-0.008208	-0.005460
O4	O	0.928628	0.220613	-0.023401
O5	O	0.933708	-0.001351	0.137805
O6	O	0.813015	0.119062	0.120331
O7	O	1.042418	0.107058	0.137338
Cu8	Cu	0.927087	0.113686	0.141916
Cu9	Cu	0.935249	0.105576	-0.027512
O10	O	0.921726	0.227470	0.119864
C11	C	0.787105	0.115051	0.046680
C12	C	0.699619	0.113307	0.040666
C13	C	0.654761	0.116223	0.115936
C14	C	0.572560	0.114572	0.110289
C15	C	0.535219	0.110010	0.029370
C16	C	0.580084	0.107091	-0.045906
C17	C	0.662284	0.108736	-0.040258
C18	C	0.289781	0.104682	0.004103
C19	C	0.207575	0.103039	-0.001540
C20	C	0.200057	0.110519	0.154656
C21	C	0.282259	0.112169	0.160297
C22	C	0.327117	0.109245	0.085021
N23	N	0.451196	0.108324	0.023596
N24	N	0.411139	0.110925	0.090797
C25	C	0.936568	-0.034065	0.068317
C26	C	0.934800	-0.121328	0.074709
C27	C	0.937733	-0.166057	-0.000382
C28	C	0.936066	-0.248049	0.005626
C29	C	0.931471	-0.285311	0.086725
C30	C	0.928536	-0.240575	0.161821
C31	C	0.930197	-0.158584	0.155812
C32	C	0.926262	-0.532683	0.108774
C33	C	0.924603	-0.614680	0.114778
C34	C	0.932132	-0.622149	-0.041418
C35	C	0.933798	-0.540157	-0.047419
C36	C	0.930858	-0.495427	0.027676
C37	C	0.929770	-0.369120	0.092868
C38	C	0.932553	-0.411619	0.021532
C39	C	1.075230	0.104211	0.067722
C40	C	1.162716	0.105955	0.073730
C41	C	0.925767	0.253328	0.046084
C42	C	0.927536	0.340590	0.039687
N43	N	0.921352	0.119389	0.261082
N44	N	0.940990	0.099867	-0.146678
C45	C	0.972644	0.068253	0.313900
C46	C	0.968314	0.072573	0.404081
C47	C	0.912695	0.128035	0.441442
C48	C	0.861397	0.179173	0.388618
C49	C	0.865724	0.174849	0.298439
C50	C	0.894019	0.146681	0.710319
C51	C	0.889698	0.151003	0.800505
C52	C	0.996614	0.044402	0.815962
C53	C	1.000939	0.040085	0.725780
C54	C	0.949639	0.091221	0.672963
N55	N	0.908269	0.132454	0.533621
N56	N	0.954061	0.086798	0.580786
H57	H	0.549674	0.103370	-0.111792
O58	O	0.923460	-0.489366	0.181810
C59	C	0.919043	-0.539838	0.254675
H60	H	0.943872	-0.602579	0.238037
H61	H	0.854553	-0.539295	0.274307
C62	C	0.937300	-0.433892	0.350656
C63	C	0.967801	-0.510950	0.330224
H64	H	0.967373	-0.416071	0.397261
H65	H	0.940273	-0.399886	0.301567
H66	H	0.883559	-0.433449	0.367011
H67	H	1.021538	-0.511389	0.313859
H68	H	0.964839	-0.544955	0.379313
O69	O	1.018231	0.022872	0.455261
C70	C	1.068243	-0.027012	0.402948
H71	H	1.072283	0.002135	0.336318
H72	H	1.042990	-0.085944	0.395939
C73	C	1.146565	-0.077066	0.527113
C74	C	1.151533	-0.041265	0.445280
H75	H	1.197942	-0.085862	0.553227
H76	H	1.112870	-0.043461	0.562359
H77	H	1.125518	-0.126172	0.521261
H78	H	1.172570	0.007844	0.451134
H79	H	1.185234	-0.074862	0.410036
O80	O	0.333403	0.101713	-0.068979
C81	C	0.389952	0.034438	-0.064682
H82	H	0.369171	-0.011476	-0.018087
H83	H	0.449259	0.052065	-0.040707
C84	C	0.425204	0.055555	-0.212546
C85	C	0.399677	-0.000840	-0.155322
H86	H	0.431207	0.033795	-0.268458
H87	H	0.387109	0.100881	-0.215441
H88	H	0.474624	0.070239	-0.192557
H89	H	0.350254	-0.015516	-0.175307
H90	H	0.437765	-0.046170	-0.152433
O91	O	0.807402	0.233150	0.424805
C92	C	0.821464	0.309943	0.397865
H93	H	0.854982	0.306790	0.334517
H94	H	0.858308	0.336798	0.449540
C95	C	0.700608	0.365679	0.462010
C96	C	0.741770	0.361808	0.384201
H97	H	0.651451	0.397674	0.453585
H98	H	0.691136	0.313943	0.480163
H99	H	0.731321	0.388056	0.505065
H100	H	0.711063	0.339422	0.341151
H101	H	0.751236	0.413541	0.366040
H102	H	0.920858	-0.645015	0.180822
O103	O	1.046406	-0.005388	0.867181
C104	C	1.034445	-0.084288	0.850075
H105	H	1.007214	-0.087411	0.782470
H106	H	0.992721	-0.106268	0.899904
C107	C	1.147970	-0.132732	0.938433
C108	C	1.114531	-0.136568	0.855397
H109	H	1.197369	-0.164981	0.941720
H110	H	1.156027	-0.079575	0.949961
H111	H	1.113192	-0.151046	0.979948
H112	H	1.149304	-0.118244	0.813885
H113	H	1.106481	-0.189723	0.843862
H114	H	0.536041	0.116934	0.171584
H115	H	0.698807	0.106363	-0.101551
H116	H	0.823955	0.216489	0.255434
O117	O	0.942052	-0.129889	-0.079197
C118	C	0.875757	-0.143473	-0.130679
H119	H	0.825445	-0.157705	-0.087127
H120	H	0.892551	-0.195380	-0.174648
C121	C	0.910408	-0.051489	-0.239840
C122	C	0.848612	-0.068962	-0.186349
H123	H	0.893665	-0.005529	-0.274184
H124	H	0.955074	-0.042339	-0.205158
H125	H	0.924398	-0.094750	-0.276473
H126	H	0.834630	-0.025705	-0.149710
H127	H	0.803942	-0.078102	-0.221026
H128	H	0.937540	-0.509825	-0.113459
O129	O	0.690910	0.120621	0.194614
C130	C	0.633683	0.122858	0.259836
H131	H	0.579395	0.095729	0.234995
H132	H	0.615668	0.186834	0.277972
C133	C	0.735523	0.108851	0.370648
C134	C	0.668847	0.075523	0.340140
H135	H	0.757213	0.079655	0.420186
H136	H	0.774078	0.107346	0.326708
H137	H	0.720500	0.162163	0.385755
H138	H	0.683872	0.022216	0.325023
H139	H	0.630295	0.077018	0.384080
O140	O	0.927210	-0.115075	0.228716
C141	C	0.859769	-0.058664	0.224452
H142	H	0.813750	-0.079384	0.178141
H143	H	0.877453	0.000492	0.200141
C144	C	0.880898	-0.023517	0.372071
C145	C	0.824374	-0.048969	0.315197
H146	H	0.859066	-0.017532	0.428047
H147	H	0.926336	-0.061519	0.374944
H148	H	0.895630	0.025777	0.351802
H149	H	0.809650	-0.098266	0.335461
H150	H	0.778932	-0.010974	0.312330
H151	H	0.177174	0.099326	-0.067438
O152	O	0.835588	0.204897	0.836658
C153	C	0.791246	0.249114	0.770704
H154	H	0.793367	0.213805	0.708764
H155	H	0.817419	0.307125	0.758539
C156	C	0.701982	0.310112	0.874841
C157	C	0.704582	0.266742	0.798766
H158	H	0.648524	0.320989	0.892151
H159	H	0.731858	0.280324	0.919276
H160	H	0.723797	0.358450	0.864693
H161	H	0.682776	0.218401	0.808918
H162	H	0.674700	0.296522	0.754333
O163	O	0.156596	0.113391	0.227857
C164	C	0.207185	0.117747	0.300490
H165	H	0.263678	0.142689	0.279537
H166	H	0.222891	0.056068	0.330377
C167	C	0.095532	0.141498	0.393494
C168	C	0.164914	0.172139	0.367761
H169	H	0.069457	0.175046	0.434993
H170	H	0.061449	0.138560	0.344561
H171	H	0.108630	0.090100	0.418395
H172	H	0.151815	0.223532	0.342851
H173	H	0.198995	0.175086	0.416692
H174	H	1.046229	-0.005076	0.695363
O175	O	0.844124	0.196250	0.658980
C176	C	0.797919	0.151526	0.606549
H177	H	0.795124	0.090836	0.638260
H178	H	0.825853	0.144195	0.540234
C179	C	0.716921	0.269097	0.557072
C180	C	0.713482	0.194559	0.596024
H181	H	0.664837	0.295643	0.550576
H182	H	0.748051	0.299230	0.592393
H183	H	0.740203	0.262978	0.501814
H184	H	0.690210	0.200680	0.651285
H185	H	0.682346	0.164429	0.560711
H186	H	0.312657	0.115880	0.226190
H187	H	0.938458	-0.284465	-0.055521
H188	H	0.924790	-0.270919	0.227853
O189	O	0.934863	-0.665507	-0.114427
C190	C	0.869351	-0.639000	-0.168820
H191	H	0.846772	-0.575485	-0.152792
H192	H	0.820143	-0.678490	-0.158401
C193	C	0.922496	-0.720511	-0.283647
C194	C	0.894767	-0.642498	-0.263966
H195	H	0.938171	-0.722672	-0.342339
H196	H	0.966631	-0.738372	-0.247001
H197	H	0.881484	-0.753410	-0.274958
H198	H	0.935782	-0.609603	-0.272645
H199	H	0.850639	-0.624632	-0.300617
H200	H	0.936289	-0.381277	-0.044499
H201	H	1.017938	0.023094	0.283487
H202	H	0.926032	-0.399467	0.158900
