data_functionalizedCrystal
_audit_creation_method	'MofGen! by Chris Wilmer'
_symmetry_space_group_name_H-M	'P1'
_symmetry_Int_Tables_number	1
_symmetry_cell_setting	triclinic
loop_
_symmetry_equiv_pos_as_xyz
  x,y,z
_cell_length_a	21.395362
_cell_length_b	18.215405
_cell_length_c	21.395356
_cell_angle_alpha	89.970979
_cell_angle_beta	89.957023
_cell_angle_gamma	90.040762
loop_
_atom_site_label
_atom_site_type_symbol
_atom_site_fract_x
_atom_site_fract_y
_atom_site_fract_z
Zn1	Zn	0.957879	-0.292691	-0.354580
Zn2	Zn	1.291212	0.040642	-0.021246
Zn3	Zn	1.624546	0.373976	0.312087
Zn4	Zn	0.957794	-0.415759	-0.249800
Zn5	Zn	1.291127	-0.082426	0.083533
Zn6	Zn	1.624460	0.250908	0.416867
Zn7	Zn	0.853096	-0.292745	-0.249781
Zn8	Zn	1.186429	0.040588	0.083552
Zn9	Zn	1.519762	0.373922	0.416886
Zn10	Zn	0.853074	-0.415754	-0.354505
Zn11	Zn	1.186407	-0.082421	-0.021171
Zn12	Zn	1.519740	0.250912	0.312162
O13	O	0.905460	-0.354237	-0.302166
O14	O	1.238794	-0.020904	0.031167
O15	O	1.572127	0.312429	0.364500
O16	O	1.045546	-0.308996	-0.340720
O17	O	1.378879	0.024338	-0.007387
O18	O	1.712212	0.357671	0.325947
O19	O	0.943879	-0.399465	-0.162119
O20	O	1.277212	-0.066132	0.171214
O21	O	1.610546	0.267201	0.504547
O22	O	0.867040	-0.189753	-0.263706
O23	O	1.200373	0.143580	0.069627
O24	O	1.533707	0.476913	0.402960
O25	O	1.045483	-0.399413	-0.263739
O26	O	1.378816	-0.066080	0.069595
O27	O	1.712150	0.267254	0.402928
O28	O	0.944024	-0.189714	-0.340702
O29	O	1.277357	0.143620	-0.007368
O30	O	1.610691	0.476953	0.325965
O31	O	0.866958	-0.309087	-0.162106
O32	O	1.200291	0.024246	0.171228
O33	O	1.533624	0.357579	0.504561
O34	O	0.765415	-0.309083	-0.263634
O35	O	1.098748	0.024250	0.069700
O36	O	1.432081	0.357584	0.403033
O37	O	0.867003	-0.399405	-0.442193
O38	O	1.200336	-0.066072	-0.108859
O39	O	1.533669	0.267261	0.224474
O40	O	0.765399	-0.399458	-0.340573
O41	O	1.098732	-0.066124	-0.007240
O42	O	1.432065	0.267209	0.326093
O43	O	0.944003	-0.308991	-0.442248
O44	O	1.277336	0.024342	-0.108914
O45	O	1.610669	0.357676	0.224419
O46	O	0.943858	-0.518743	-0.263666
O47	O	1.277191	-0.185409	0.069668
O48	O	1.610524	0.147924	0.403001
O49	O	0.866920	-0.518739	-0.340592
O50	O	1.200254	-0.185406	-0.007258
O51	O	1.533587	0.147927	0.326075
C52	C	0.742673	-0.354276	-0.302094
C53	C	1.076006	-0.020943	0.031240
C54	C	1.409339	0.312390	0.364573
C55	C	0.673032	-0.354311	-0.302077
C56	C	1.006365	-0.020977	0.031256
C57	C	1.339698	0.312356	0.364589
C58	C	0.905394	-0.545444	-0.302136
C59	C	1.238728	-0.212110	0.031197
C60	C	1.572061	0.121223	0.364530
C61	C	0.905423	-0.627243	-0.302144
C62	C	1.238757	-0.293909	0.031189
C63	C	1.572090	0.039424	0.364522
C64	C	0.640326	-0.401431	-0.342080
C65	C	0.973660	-0.068098	-0.008747
C66	C	1.306993	0.265236	0.324587
C67	C	0.574891	-0.401413	-0.342108
C68	C	0.908224	-0.068080	-0.008775
C69	C	1.241558	0.265254	0.324559
C70	C	0.542163	-0.354282	-0.302122
C71	C	0.875497	-0.020949	0.031211
C72	C	1.208830	0.312384	0.364545
C73	C	0.574876	-0.307153	-0.262117
C74	C	0.908210	0.026181	0.071217
C75	C	1.241543	0.359514	0.404550
C76	C	0.640310	-0.307167	-0.262094
C77	C	0.973644	0.026166	0.071239
C78	C	1.306977	0.359500	0.404572
C79	C	0.438439	-0.348364	-0.245717
C80	C	0.771772	-0.015031	0.087616
C81	C	1.105106	0.318302	0.420950
C82	C	0.373006	-0.348355	-0.245738
C83	C	0.706339	-0.015022	0.087595
C84	C	1.039673	0.318311	0.420928
C85	C	0.340343	-0.354234	-0.302191
C86	C	0.673676	-0.020901	0.031142
C87	C	1.007009	0.312432	0.364475
C88	C	0.373120	-0.360138	-0.358625
C89	C	0.706453	-0.026804	-0.025291
C90	C	1.039787	0.306529	0.308042
C91	C	0.438554	-0.360152	-0.358602
C92	C	0.771888	-0.026819	-0.025269
C93	C	1.105221	0.306515	0.308064
C94	C	0.471211	-0.354261	-0.302142
C95	C	0.804544	-0.020928	0.031191
C96	C	1.137878	0.312405	0.364525
C97	C	0.236685	-0.401338	-0.342228
C98	C	0.570018	-0.068004	-0.008894
C99	C	0.903352	0.265329	0.324439
C100	C	0.171248	-0.401314	-0.342256
C101	C	0.504582	-0.067981	-0.008923
C102	C	0.837915	0.265352	0.324410
C103	C	0.171235	-0.307058	-0.262260
C104	C	0.504568	0.026275	0.071074
C105	C	0.837902	0.359609	0.404407
C106	C	0.236670	-0.307077	-0.262236
C107	C	0.570004	0.026256	0.071097
C108	C	0.903337	0.359589	0.404430
C109	C	0.269391	-0.354221	-0.302219
C110	C	0.602725	-0.020888	0.031114
C111	C	0.936058	0.312446	0.364447
C112	C	0.945579	-0.815414	-0.262163
C113	C	1.278912	-0.482080	0.071171
C114	C	1.612245	-0.148747	0.404504
C115	C	0.945607	-0.892272	-0.262178
C116	C	1.278940	-0.558939	0.071156
C117	C	1.612273	-0.225606	0.404489
C118	C	0.865422	-0.892309	-0.342215
C119	C	1.198756	-0.558976	-0.008882
C120	C	1.532089	-0.225642	0.324452
C121	C	0.865398	-0.815452	-0.342203
C122	C	1.198731	-0.482118	-0.008869
C123	C	1.532065	-0.148785	0.324464
C124	C	0.905475	-0.777006	-0.302173
C125	C	1.238809	-0.443673	0.031160
C126	C	1.572142	-0.110339	0.364494
C127	C	0.905528	-0.930722	-0.302201
C128	C	1.238861	-0.597389	0.031133
C129	C	1.572194	-0.264055	0.364466
C130	C	0.905558	-1.014056	-0.302217
C131	C	1.238891	-0.680722	0.031116
C132	C	1.572224	-0.347389	0.364449
C133	C	0.905446	-0.693667	-0.302157
C134	C	1.238780	-0.360334	0.031177
C135	C	1.572113	-0.027000	0.364510
C136	C	1.068884	-0.354199	-0.302240
C137	C	1.402217	-0.020865	0.031094
C138	C	1.735550	0.312468	0.364427
C139	C	1.138525	-0.354182	-0.302271
C140	C	1.471858	-0.020849	0.031062
C141	C	1.805192	0.312484	0.364396
C142	C	0.905510	-0.354192	-0.465590
C143	C	1.238843	-0.020858	-0.132256
C144	C	1.572176	0.312475	0.201077
C145	C	0.905531	-0.354172	-0.535231
C146	C	1.238864	-0.020839	-0.201898
C147	C	1.572197	0.312494	0.131436
C148	C	0.905544	-0.162284	-0.302210
C149	C	1.238877	0.171049	0.031123
C150	C	1.572211	0.504382	0.364456
C151	C	0.905580	-0.080485	-0.302229
C152	C	1.238913	0.252848	0.031104
C153	C	1.572246	0.586181	0.364438
C154	C	0.865489	-0.307107	-0.567927
C155	C	1.198822	0.026226	-0.234594
C156	C	1.532155	0.359559	0.098740
C157	C	0.865486	-0.307094	-0.633363
C158	C	1.198820	0.026240	-0.300029
C159	C	1.532153	0.359573	0.033304
C160	C	0.905538	-0.354137	-0.666099
C161	C	1.238871	-0.020804	-0.332766
C162	C	1.572204	0.312529	0.000567
C163	C	0.945583	-0.401211	-0.633395
C164	C	1.278916	-0.067878	-0.300062
C165	C	1.612249	0.265455	0.033271
C166	C	0.945579	-0.401229	-0.567961
C167	C	1.278913	-0.067896	-0.234628
C168	C	1.612246	0.265438	0.098705
C169	C	0.961990	-0.359905	-0.769805
C170	C	1.295324	-0.026571	-0.436471
C171	C	1.628657	0.306762	-0.103138
C172	C	0.961995	-0.359882	-0.835238
C173	C	1.295328	-0.026549	-0.501904
C174	C	1.628661	0.306785	-0.168571
C175	C	0.905548	-0.354088	-0.867920
C176	C	1.238881	-0.020754	-0.534587
C177	C	1.572215	0.312579	-0.201254
C178	C	0.849095	-0.348300	-0.835162
C179	C	1.182428	-0.014967	-0.501828
C180	C	1.515762	0.318366	-0.168495
C181	C	0.849092	-0.348318	-0.769728
C182	C	1.182425	-0.014984	-0.436394
C183	C	1.515758	0.318349	-0.103061
C184	C	0.905546	-0.354124	-0.737052
C185	C	1.238879	-0.020791	-0.403718
C186	C	1.572212	0.312543	-0.070385
C187	C	0.865500	-0.307005	-0.971569
C188	C	1.198833	0.026328	-0.638236
C189	C	1.532167	0.359661	-0.304902
C190	C	0.865497	-0.306997	-1.037006
C191	C	1.198830	0.026337	-0.703672
C192	C	1.532164	0.359670	-0.370339
C193	C	0.945599	-0.401111	-1.037037
C194	C	1.278932	-0.067777	-0.703704
C195	C	1.612265	0.265556	-0.370371
C196	C	0.945596	-0.401123	-0.971602
C197	C	1.278930	-0.067790	-0.638268
C198	C	1.612263	0.265544	-0.304935
C199	C	0.905548	-0.354066	-0.938872
C200	C	1.238881	-0.020733	-0.605538
C201	C	1.572215	0.312600	-0.272205
C202	C	0.905447	-0.354230	-0.139379
C203	C	1.238781	-0.020896	0.193955
C204	C	1.572114	0.312437	0.527288
C205	C	0.905548	-0.354042	-0.069738
C206	C	1.238881	-0.020708	0.263595
C207	C	1.572215	0.312625	0.596929
H208	H	0.666964	-0.439818	-0.374638
H209	H	1.000297	-0.106485	-0.041305
H210	H	1.333631	0.226849	0.292028
Br211	Br	0.126826	-0.243087	-0.207998
Br212	Br	0.460159	0.090247	0.125336
Br213	Br	0.793492	0.423580	0.458669
H214	H	0.832880	-0.268764	-0.659989
H215	H	1.166214	0.064569	-0.326656
H216	H	1.499547	0.397903	0.006678
Br217	Br	1.000039	-0.944395	-0.207879
Br218	Br	1.333372	-0.611061	0.125454
Br219	Br	1.666705	-0.277728	0.458787
H220	H	0.978213	-0.784113	-0.229569
H221	H	1.311546	-0.450780	0.103765
H222	H	1.644880	-0.117446	0.437098
H223	H	0.465239	-0.364957	-0.404553
H224	H	0.798572	-0.031623	-0.071219
H225	H	1.131906	0.301710	0.262114
H226	H	0.832792	-0.923621	-0.374805
H227	H	1.166125	-0.590287	-0.041472
H228	H	1.499459	-0.256954	0.291862
Br229	Br	0.810973	-0.763322	-0.396512
Br230	Br	1.144307	-0.429988	-0.063178
Br231	Br	1.477640	-0.096655	0.270155
Br232	Br	0.811128	-0.243142	-1.081380
Br233	Br	1.144461	0.090192	-0.748047
Br234	Br	1.477794	0.423525	-0.414714
H235	H	0.978193	-0.439515	-0.660054
H236	H	1.311526	-0.106182	-0.326721
H237	H	1.644859	0.227152	0.006613
Br238	Br	0.281096	-0.465313	-0.396491
Br239	Br	0.614429	-0.131980	-0.063158
Br240	Br	0.947763	0.201353	0.270175
Br241	Br	0.811136	-0.243247	-0.523510
Br242	Br	1.144469	0.090086	-0.190177
Br243	Br	1.477802	0.423419	0.143156
H244	H	0.803126	-0.343607	-0.743058
H245	H	1.136459	-0.010274	-0.409725
H246	H	1.469792	0.323060	-0.076392
H247	H	0.803131	-0.343577	-0.861770
H248	H	1.136464	-0.010243	-0.528437
H249	H	1.469798	0.323090	-0.195104
H250	H	0.832890	-0.268689	-0.944919
H251	H	1.166223	0.064644	-0.611585
H252	H	1.499556	0.397977	-0.278252
H253	H	1.007962	-0.364591	-0.861905
H254	H	1.341295	-0.031258	-0.528571
H255	H	1.674629	0.302076	-0.195238
H256	H	0.978211	-0.439413	-1.063691
H257	H	1.311544	-0.106080	-0.730358
H258	H	1.644877	0.227254	-0.397024
H259	H	0.978205	-0.439447	-0.944980
H260	H	1.311538	-0.106114	-0.611647
H261	H	1.644871	0.227220	-0.278314
H262	H	0.346527	-0.364924	-0.404594
H263	H	0.679860	-0.031590	-0.071261
H264	H	1.013194	0.301743	0.262072
Br265	Br	0.328529	-0.340345	-0.169151
Br266	Br	0.661862	-0.007012	0.164182
Br267	Br	0.995195	0.326322	0.497515
Br268	Br	0.126861	-0.465263	-0.396556
Br269	Br	0.460195	-0.131930	-0.063223
Br270	Br	0.793528	0.201404	0.270110
Br271	Br	1.038603	-0.367778	-0.725456
Br272	Br	1.371936	-0.034445	-0.392123
Br273	Br	1.705270	0.298889	-0.058790
H274	H	0.548257	-0.439784	-0.374685
H275	H	0.881591	-0.106450	-0.041352
H276	H	1.214924	0.226883	0.291981
Br277	Br	0.482761	-0.340386	-0.169095
Br278	Br	0.816095	-0.007052	0.164238
Br279	Br	1.149428	0.326281	0.497572
Br280	Br	0.281059	-0.243125	-0.207944
Br281	Br	0.614392	0.090209	0.125390
Br282	Br	0.947726	0.423542	0.458723
Br283	Br	0.530462	-0.243183	-0.207855
Br284	Br	0.863795	0.090150	0.125479
Br285	Br	1.197129	0.423484	0.458812
Br286	Br	0.999926	-0.465108	-0.523585
Br287	Br	1.333260	-0.131775	-0.190251
Br288	Br	1.666593	0.201558	0.143082
H289	H	0.666939	-0.268794	-0.229519
H290	H	1.000272	0.064540	0.103814
H291	H	1.333605	0.397873	0.437147
