data_functionalizedCrystal
_audit_creation_method	'MofGen! by Chris Wilmer'
_symmetry_space_group_name_H-M	'P1'
_symmetry_Int_Tables_number	1
_symmetry_cell_setting	triclinic
loop_
_symmetry_equiv_pos_as_xyz
  x,y,z
_cell_length_a	14.519731
_cell_length_b	10.654550
_cell_length_c	9.730223
_cell_angle_alpha	90.000193
_cell_angle_beta	89.999699
_cell_angle_gamma	95.913122
loop_
_atom_site_label
_atom_site_type_symbol
_atom_site_fract_x
_atom_site_fract_y
_atom_site_fract_z
O1	O	1.224704	-0.164745	-0.114289
O2	O	0.956330	-0.184104	-0.114291
O3	O	1.096688	0.008374	-0.114285
O4	O	1.084347	-0.357222	-0.114295
O5	O	1.096686	0.008369	0.114295
O6	O	0.956329	-0.184109	0.114289
O7	O	1.224703	-0.164750	0.114291
Zn8	Zn	1.090515	-0.174430	0.150582
Zn9	Zn	1.090518	-0.174424	-0.150582
O10	O	1.084345	-0.357227	0.114285
C11	C	0.921965	-0.183199	-0.000001
C12	C	0.819571	-0.180481	-0.000002
C13	C	0.736415	-0.178272	-0.000007
C14	C	0.632092	-0.175513	-0.000008
C15	C	0.548942	-0.173322	-0.000008
C16	C	0.444612	-0.170563	-0.000011
C17	C	1.095781	0.055160	0.000003
C18	C	1.093070	0.194578	-0.000001
C19	C	1.259068	-0.165655	-0.000002
C20	C	1.361462	-0.168373	-0.000010
C21	C	1.085252	-0.404014	-0.000007
C22	C	1.087963	-0.543432	-0.000011
N23	N	1.090521	-0.174434	0.356118
C24	C	1.175710	0.274850	0.000003
C25	C	1.173157	0.405846	-0.000006
C26	C	1.005317	0.376286	-0.000020
C27	C	1.007871	0.245292	-0.000020
C28	C	1.260909	0.224135	0.000022
C29	C	1.343556	0.304408	0.000028
C30	C	1.341003	0.435405	0.000018
C31	C	1.255804	0.486128	0.000002
N32	N	1.090520	-0.174410	-0.356118
C33	C	1.152687	-0.089233	0.428047
C34	C	1.152685	-0.089218	0.571930
C35	C	1.028347	-0.259614	0.571943
C36	C	1.028345	-0.259623	0.428062
C37	C	1.214863	-0.004045	0.356103
C38	C	1.277035	0.081162	0.428032
C39	C	1.277032	0.081177	0.571914
C40	C	1.214858	-0.004014	0.643869
H41	H	1.262997	0.117473	0.000034
C42	C	0.918179	0.158067	-0.000303
C43	C	0.914739	0.082025	-0.117922
C44	C	0.832123	0.001667	-0.118245
H45	H	0.915599	0.106232	0.079313
H46	H	0.867044	0.206983	-0.000378
H47	H	0.965860	0.033113	-0.117834
H48	H	0.917303	0.133826	-0.197557
H49	H	0.780988	0.050583	-0.118320
H50	H	0.829551	-0.050159	-0.038624
H51	H	0.829775	-0.049929	-0.198053
C52	C	0.960896	-0.352309	0.649882
C53	C	0.976616	-0.475768	0.614864
C54	C	0.914491	-0.561195	0.686617
H55	H	0.969735	-0.340280	0.745895
H56	H	0.899245	-0.338551	0.626273
H57	H	1.038253	-0.489522	0.638482
H58	H	0.967770	-0.487837	0.518863
H59	H	0.852840	-0.547437	0.663008
H60	H	0.923335	-0.549155	0.782626
H61	H	0.925143	-0.644971	0.662858
H62	H	1.408299	0.500760	0.000009
C63	C	0.961000	-0.352187	0.349779
C64	C	1.010611	-0.429201	0.267150
C65	C	0.948600	-0.514471	0.195001
H66	H	0.923949	-0.403051	0.413070
H67	H	0.922342	-0.306917	0.293571
H68	H	1.049253	-0.474468	0.323353
H69	H	1.047659	-0.378373	0.203834
H70	H	0.909942	-0.469201	0.138793
H71	H	0.911551	-0.565325	0.258302
H72	H	0.982251	-0.566727	0.138920
C73	C	1.214757	-0.004302	0.199888
C74	C	1.147022	-0.097174	0.152292
C75	C	1.146909	-0.097466	0.008397
H76	H	1.201599	0.075924	0.167147
H77	H	1.273789	-0.021754	0.167302
H78	H	1.088003	-0.079714	0.184864
H79	H	1.160165	-0.177414	0.184995
H80	H	1.205941	-0.114918	-0.024189
H81	H	1.133752	-0.017235	-0.024330
H82	H	1.100957	-0.160486	-0.023915
H83	H	1.327649	0.150563	0.630478
C84	C	1.435963	0.249100	0.000107
C85	C	1.420514	0.117199	0.000152
C86	C	1.505618	0.066210	0.000241
H87	H	1.470099	0.276497	-0.079581
H88	H	1.470032	0.276574	0.079851
H89	H	1.386459	0.089736	-0.079583
H90	H	1.386392	0.089767	0.079835
H91	H	1.539687	0.093685	0.079985
H92	H	1.539748	0.093616	-0.079449
H93	H	1.495148	-0.023289	0.000284
H94	H	1.253732	0.592796	-0.000020
H95	H	0.935951	0.417597	-0.000030
H96	H	1.327650	0.150528	0.369439
H97	H	1.214855	-0.003986	0.761028
