data_functionalizedCrystal
_audit_creation_method	'MofGen! by Chris Wilmer'
_symmetry_space_group_name_H-M	'P1'
_symmetry_Int_Tables_number	1
_symmetry_cell_setting	triclinic
loop_
_symmetry_equiv_pos_as_xyz
  x,y,z
_cell_length_a	21.395364
_cell_length_b	19.121063
_cell_length_c	21.395355
_cell_angle_alpha	87.579260
_cell_angle_beta	90.024552
_cell_angle_gamma	92.483930
loop_
_atom_site_label
_atom_site_type_symbol
_atom_site_fract_x
_atom_site_fract_y
_atom_site_fract_z
Zn1	Zn	0.947240	-0.279421	0.364885
Zn2	Zn	0.942679	-0.396856	0.264572
Zn3	Zn	0.842454	-0.279451	0.260123
Zn4	Zn	0.837960	-0.396868	0.369313
O5	O	0.892583	-0.338149	0.314723
O6	O	1.034313	-0.294981	0.351587
O7	O	0.929356	-0.381290	0.176304
O8	O	0.860143	-0.181161	0.270304
O9	O	1.030963	-0.381260	0.277888
O10	O	0.937129	-0.181138	0.347273
O11	O	0.855721	-0.295033	0.173035
O12	O	0.754179	-0.295045	0.274598
O13	O	0.852485	-0.381281	0.456403
O14	O	0.750878	-0.381311	0.354820
O15	O	0.932772	-0.294993	0.453150
O16	O	0.924999	-0.495144	0.282182
O17	O	0.848062	-0.495153	0.359134
C18	C	0.729794	-0.338183	0.314707
C19	C	0.660152	-0.338215	0.314715
C20	C	0.629203	-0.293363	0.353155
C21	C	0.563768	-0.293344	0.353157
C22	C	0.529284	-0.338190	0.314726
C23	C	0.560241	-0.383045	0.276278
C24	C	0.625675	-0.383058	0.276273
C25	C	0.423156	-0.401442	0.312093
C26	C	0.357724	-0.401431	0.312103
C27	C	0.327465	-0.338151	0.314738
C28	C	0.362647	-0.274881	0.317377
C29	C	0.428081	-0.274894	0.317372
C30	C	0.458332	-0.338181	0.314727
C31	C	0.225565	-0.293275	0.353182
C32	C	0.160129	-0.293255	0.353179
C33	C	0.156603	-0.382963	0.276304
C34	C	0.222038	-0.382976	0.276303
C35	C	0.256515	-0.338134	0.314746
C36	C	0.885565	-0.520633	0.321635
C37	C	0.882620	-0.598701	0.324613
C38	C	0.921324	-0.635349	0.285980
C39	C	0.918558	-0.708702	0.288784
C40	C	0.877084	-0.745405	0.330218
C41	C	0.838379	-0.708752	0.368856
C42	C	0.841148	-0.635400	0.366054
C43	C	0.866719	-0.966880	0.340683
C44	C	0.863951	-1.040237	0.343480
C45	C	0.944132	-1.040182	0.263409
C46	C	0.946895	-0.966829	0.260609
C47	C	0.908192	-0.930182	0.299248
C48	C	0.874255	-0.820383	0.333084
C49	C	0.911025	-0.855205	0.296385
C50	C	1.056008	-0.338115	0.314740
C51	C	1.125650	-0.338101	0.314747
C52	C	0.892636	-0.338135	0.478146
C53	C	0.892658	-0.338129	0.547787
C54	C	0.899646	-0.154952	0.307798
C55	C	0.902655	-0.076885	0.304847
C56	C	0.892569	-0.338113	0.151934
C57	C	0.892675	-0.337921	0.082286
C58	C	0.934462	-0.293197	0.578807
C59	C	0.934462	-0.293166	0.644241
C60	C	0.892665	-0.338081	0.678654
C61	C	0.850853	-0.383016	0.647626
C62	C	0.850850	-0.383040	0.582193
C63	C	0.885285	-0.401324	0.784724
C64	C	0.885293	-0.401301	0.850156
C65	C	0.892672	-0.338007	0.880472
C66	C	0.900056	-0.274733	0.845347
C67	C	0.900052	-0.274757	0.779914
C68	C	0.892664	-0.338060	0.749605
C69	C	0.934478	-0.293038	0.982443
C70	C	0.934474	-0.293006	1.047878
C71	C	0.850868	-0.382863	1.051262
C72	C	0.850869	-0.382888	0.985827
C73	C	0.892677	-0.337976	0.951422
H74	H	0.134932	-0.256727	0.384481
F75	F	0.819800	-1.079297	0.387576
F76	F	0.907911	-0.207366	0.877606
F77	F	0.530823	-0.245603	0.394071
H78	H	0.835204	-0.937048	0.372144
F79	F	0.330450	-0.207529	0.320182
H80	H	0.955094	-0.605470	0.252237
H81	H	0.968505	-0.256625	0.550798
H82	H	0.968515	-0.256413	1.073134
H83	H	0.456724	-0.223377	0.319519
F84	F	0.978971	-0.245237	0.945824
H85	H	0.253638	-0.256757	0.384480
F86	F	0.794242	-0.747816	0.412957
H87	H	0.816829	-0.419426	1.079279
H88	H	0.816831	-0.419481	0.960571
F89	F	0.959755	-0.747702	0.247667
F90	F	0.254977	-0.430712	0.235388
H91	H	0.816819	-0.419584	0.675648
H92	H	0.329083	-0.452949	0.309957
H93	H	0.816805	-0.419629	0.556936
H94	H	0.840485	-0.850275	0.366819
F95	F	0.877440	-0.468642	0.887532
H96	H	0.944796	-0.825319	0.262651
H97	H	0.809632	-0.605562	0.397514
H98	H	0.879110	-0.452852	0.760046
F99	F	0.991045	-0.927772	0.216515
H100	H	0.128527	-0.419477	0.245013
H101	H	0.447787	-0.452975	0.309947
H102	H	0.657270	-0.256848	0.384458
H103	H	0.532160	-0.419558	0.244987
F104	F	0.978948	-0.245330	0.677262
H105	H	0.975643	-1.070027	0.231952
H106	H	0.650873	-0.419583	0.244970
F107	F	0.907908	-0.207419	0.742535
