data_functionalizedCrystal
_audit_creation_method	'MofGen! by Chris Wilmer'
_symmetry_space_group_name_H-M	'P1'
_symmetry_Int_Tables_number	1
_symmetry_cell_setting	triclinic
loop_
_symmetry_equiv_pos_as_xyz
  x,y,z
_cell_length_a	16.120530
_cell_length_b	29.839131
_cell_length_c	16.120297
_cell_angle_alpha	92.867727
_cell_angle_beta	90.128140
_cell_angle_gamma	87.136742
loop_
_atom_site_label
_atom_site_type_symbol
_atom_site_fract_x
_atom_site_fract_y
_atom_site_fract_z
Zn1	Zn	1.247310	-0.227600	-0.534529
Zn2	Zn	1.254220	-0.299116	-0.395460
Zn3	Zn	1.115305	-0.220008	-0.388448
Zn4	Zn	1.108176	-0.298702	-0.527429
O5	O	1.181253	-0.261356	-0.461466
O6	O	1.364591	-0.240437	-0.521987
O7	O	1.241667	-0.285618	-0.278165
O8	O	1.132907	-0.158152	-0.407863
O9	O	1.369668	-0.292979	-0.419813
O10	O	1.229891	-0.163729	-0.515187
O11	O	1.139607	-0.227498	-0.273013
O12	O	0.997995	-0.227097	-0.400978
O13	O	1.120758	-0.292274	-0.644736
O14	O	0.992758	-0.284913	-0.503087
O15	O	1.222979	-0.240035	-0.649952
O16	O	1.234755	-0.361925	-0.412929
O17	O	1.127458	-0.361621	-0.509886
C18	C	0.965204	-0.255137	-0.450502
C19	C	0.872777	-0.252487	-0.445831
C20	C	0.703550	-0.247640	-0.437311
C21	C	0.659793	-0.275108	-0.485683
C22	C	0.565629	-0.272411	-0.480942
C23	C	0.797722	-0.250336	-0.442050
C24	C	1.181105	-0.378074	-0.461418
C25	C	1.181116	-0.428009	-0.461428
C26	C	1.237215	-0.737807	-0.411063
C27	C	1.237316	-0.925484	-0.411101
O28	O	1.284896	-0.949877	-0.368241
N29	N	1.181422	-0.948805	-0.461538
C30	C	1.125502	-0.925204	-0.511973
O31	O	1.077969	-0.949347	-0.554880
C32	C	1.125406	-0.737528	-0.511940
C33	C	1.181298	-0.714210	-0.461493
C34	C	1.293104	-0.714488	-0.360622
C35	C	1.293075	-0.667572	-0.360609
C36	C	1.237158	-0.643974	-0.411039
C37	C	1.181269	-0.667293	-0.461481
C38	C	1.069491	-0.713929	-0.562379
C39	C	1.069473	-0.667007	-0.562367
C40	C	1.125365	-0.643688	-0.511921
C41	C	1.125323	-0.596779	-0.511898
N42	N	1.181217	-0.573458	-0.461461
C43	C	1.237135	-0.597055	-0.411031
C44	C	1.125556	-1.023737	-0.511986
C45	C	1.125579	-1.070655	-0.511994
C46	C	1.237394	-1.070932	-0.411122
C47	C	1.237366	-1.024012	-0.411111
C48	C	1.181450	-1.000416	-0.461549
C49	C	1.237069	-0.498527	-0.411009
C50	C	1.237033	-0.451606	-0.410999
C51	C	1.125221	-0.451334	-0.511873
C52	C	1.125254	-0.498251	-0.511880
C53	C	1.181185	-0.521846	-0.461446
O54	O	1.077774	-0.572358	-0.554742
O55	O	1.284673	-0.572905	-0.368145
C56	C	1.237244	-0.784724	-0.411076
C57	C	1.181356	-0.808043	-0.461517
C58	C	1.125439	-0.784445	-0.511947
C59	C	1.181379	-0.854961	-0.461525
C60	C	1.237296	-0.878559	-0.411095
C61	C	1.293190	-0.855238	-0.360658
C62	C	1.293161	-0.808322	-0.360646
C63	C	1.069544	-0.807766	-0.562384
C64	C	1.069577	-0.854683	-0.562391
C65	C	1.125494	-0.878280	-0.511962
C66	C	1.398145	-0.267601	-0.472474
C67	C	1.490571	-0.270262	-0.477165
C68	C	1.170302	-0.266955	-0.678360
C69	C	1.165636	-0.269341	-0.770787
C70	C	1.181423	-0.144185	-0.461535
C71	C	1.181496	-0.094253	-0.461564
C72	C	1.157086	-0.273687	-0.940011
C73	C	1.205584	-0.248896	-0.983782
C74	C	1.200826	-0.251314	-1.077944
C75	C	1.161842	-0.271269	-0.845840
C76	C	1.192208	-0.255748	-0.245419
C77	C	1.197036	-0.253240	-0.153001
H78	H	1.282547	-0.432622	-0.369916
H79	H	1.080058	-1.089637	-0.553064
H80	H	1.023973	-0.732907	-0.603454
O81	O	1.103180	-0.301122	-0.979619
C82	C	0.960387	-0.319558	-0.999163
C83	C	1.021336	-0.288447	-0.954253
H84	H	0.894205	-0.309328	-0.978658
H85	H	0.966019	-0.316631	-1.069146
H86	H	0.975830	-0.355771	-0.982889
H87	H	1.005934	-0.252221	-0.970459
H88	H	1.015694	-0.291413	-0.884281
H89	H	1.338718	-0.874459	-0.319594
H90	H	1.023940	-0.647797	-0.603443
H91	H	1.250676	-0.225857	-0.950538
H92	H	0.670294	-0.222100	-0.392340
O93	O	0.699595	-0.305569	-0.539264
C94	C	0.831100	-0.336033	-0.592955
C95	C	0.786127	-0.301524	-0.532230
H96	H	0.901068	-0.332768	-0.587301
H97	H	0.814839	-0.371398	-0.577385
H98	H	0.810676	-0.329460	-0.659184
H99	H	0.806526	-0.308055	-0.465980
H100	H	0.802389	-0.266170	-0.547871
O101	O	1.291427	-0.521373	-0.361938
C102	C	1.402353	-0.516684	-0.261914
C103	C	1.340830	-0.490756	-0.317437
H104	H	1.442323	-0.491943	-0.225934
H105	H	1.366465	-0.536448	-0.216415
H106	H	1.443857	-0.540866	-0.302340
H107	H	1.299311	-0.466552	-0.277077
H108	H	1.376770	-0.471023	-0.362941
H109	H	1.079744	-0.517238	-0.552961
H110	H	1.338589	-0.648588	-0.319534
H111	H	1.079691	-0.432113	-0.552930
H112	H	1.338643	-0.733697	-0.319556
H113	H	1.282924	-1.090153	-0.370061
O114	O	1.291742	-1.001433	-0.362088
C115	C	1.402610	-1.006671	-0.261996
C116	C	1.341084	-1.032294	-0.317490
H117	H	1.442507	-1.031610	-0.225911
H118	H	1.444183	-0.986923	-0.302369
H119	H	1.366641	-0.982501	-0.216579
H120	H	1.376985	-1.056486	-0.362915
H121	H	1.299511	-1.052012	-0.277065
O122	O	1.071148	-1.000886	-0.561001
C123	C	0.960271	-1.005577	-0.661077
C124	C	1.021833	-1.031507	-0.605600
H125	H	0.920395	-1.030324	-0.697163
H126	H	0.918680	-0.981419	-0.620692
H127	H	0.996209	-0.985788	-0.706494
H128	H	0.985963	-1.051322	-0.560175
H129	H	1.063424	-1.055638	-0.646037
H130	H	1.024056	-0.873665	-0.603470
O131	O	1.347539	-0.785744	-0.311623
C132	C	1.458413	-0.790986	-0.211538
C133	C	1.396883	-0.816607	-0.267032
H134	H	1.498311	-0.815927	-0.175459
H135	H	1.499983	-0.771238	-0.251911
H136	H	1.422446	-0.766818	-0.166116
H137	H	1.432781	-0.840798	-0.312463
H138	H	1.355313	-0.836326	-0.226608
H139	H	1.024011	-0.788557	-0.603451
