data_functionalizedCrystal
_audit_creation_method	'MofGen! by Chris Wilmer'
_symmetry_space_group_name_H-M	'P1'
_symmetry_Int_Tables_number	1
_symmetry_cell_setting	triclinic
loop_
_symmetry_equiv_pos_as_xyz
  x,y,z
_cell_length_a	10.654541
_cell_length_b	14.519709
_cell_length_c	9.130307
_cell_angle_alpha	89.995756
_cell_angle_beta	89.999822
_cell_angle_gamma	84.082037
loop_
_atom_site_label
_atom_site_type_symbol
_atom_site_fract_x
_atom_site_fract_y
_atom_site_fract_z
O1	O	1.666593	0.129520	-0.121758
O2	O	1.300996	0.141863	-0.121771
O3	O	1.493488	0.001504	-0.121751
O4	O	1.474101	0.269880	-0.121778
O5	O	1.493481	0.001502	0.121848
O6	O	1.300989	0.141862	0.121828
O7	O	1.666587	0.129519	0.121841
Cu8	Cu	1.483788	0.135690	0.144077
Cu9	Cu	1.483795	0.135692	-0.144007
O10	O	1.474095	0.269879	0.121821
C11	C	1.254203	0.140957	0.000027
C12	C	1.114786	0.138247	0.000022
C13	C	1.085201	0.306085	-0.000013
C14	C	1.004912	0.388727	-0.000036
C15	C	0.873919	0.386175	-0.000038
C16	C	0.823213	0.300972	-0.000011
C17	C	0.903502	0.218330	0.000012
C18	C	1.034496	0.220891	0.000009
C19	C	0.933086	0.050493	0.000058
C20	C	1.064080	0.053043	0.000049
C21	C	0.882380	-0.034710	0.000085
C22	C	0.962669	-0.117354	0.000098
C23	C	1.093670	-0.114798	0.000097
C24	C	1.144369	-0.029599	0.000072
C25	C	1.492581	-0.032862	0.000049
C26	C	1.489874	-0.135257	0.000049
C27	C	1.479906	-0.510204	0.000011
C28	C	1.482674	-0.405882	0.000022
C29	C	1.484890	-0.322734	0.000032
C30	C	1.487658	-0.218405	0.000040
C31	C	1.713380	0.130425	0.000040
C32	C	1.852797	0.133135	0.000035
C33	C	1.475002	0.304244	0.000018
C34	C	1.477709	0.406639	0.000008
N35	N	1.483792	0.135689	0.346700
N36	N	1.483801	0.135686	-0.346630
C37	C	1.654313	0.011436	0.346708
C38	C	1.739582	-0.050687	0.423378
C39	C	1.739594	-0.050688	0.576712
C40	C	1.654326	0.011440	0.653378
C41	C	1.569057	0.073564	0.576707
C42	C	1.569056	0.073559	0.423370
C43	C	1.398532	0.197810	0.576700
C44	C	1.398524	0.197816	0.423366
C45	C	1.313264	0.259937	0.653366
C46	C	1.227999	0.322067	0.576695
C47	C	1.227991	0.322066	0.423352
C48	C	1.313255	0.259940	0.346695
H49	H	1.251028	-0.027510	0.000055
H50	H	1.046212	0.458098	-0.000054
C51	C	0.785598	0.477085	-0.000063
N52	N	0.719076	0.545558	-0.000085
C53	C	1.313252	0.259931	0.178024
N54	N	1.313250	0.259919	0.050979
H55	H	0.775717	-0.036782	0.000092
H56	H	0.716550	0.298901	0.000006
C57	C	1.833393	-0.119026	0.661051
N58	N	1.904044	-0.170498	0.724576
H59	H	0.921373	-0.186720	0.000118
C60	C	1.181979	-0.205714	0.000124
N61	N	1.248489	-0.274193	0.000142
C62	C	1.654315	0.011437	0.178037
N63	N	1.654318	0.011435	0.050991
H64	H	1.191861	0.308172	-0.000044
C65	C	1.134205	0.390392	0.661037
N66	N	1.063557	0.441856	0.724570
H67	H	1.158550	0.372650	0.360935
C68	C	1.833353	-0.119039	0.339034
N69	N	1.903973	-0.170527	0.275510
H70	H	1.654331	0.011428	0.778230
H71	H	1.313273	0.259931	0.778218
