data_functionalizedCrystal
_audit_creation_method	'MofGen! by Chris Wilmer'
_symmetry_space_group_name_H-M	'P1'
_symmetry_Int_Tables_number	1
_symmetry_cell_setting	triclinic
loop_
_symmetry_equiv_pos_as_xyz
  x,y,z
_cell_length_a	10.723022
_cell_length_b	12.376717
_cell_length_c	10.723024
_cell_angle_alpha	77.426288
_cell_angle_beta	84.467548
_cell_angle_gamma	77.441240
loop_
_atom_site_label
_atom_site_type_symbol
_atom_site_fract_x
_atom_site_fract_y
_atom_site_fract_z
O1	O	1.635670	0.093991	0.153469
O2	O	1.272517	0.093995	0.170224
O3	O	1.462471	0.093989	-0.019729
O4	O	1.445716	0.093997	0.343422
O5	O	1.505498	-0.094014	0.023367
O6	O	1.315544	-0.094008	0.213320
O7	O	1.678697	-0.094012	0.196565
Zn8	Zn	1.503952	-0.123860	0.211785
Zn9	Zn	1.447262	0.123842	0.155004
O10	O	1.488743	-0.094006	0.386518
C11	C	1.247531	-0.000006	0.190553
C12	C	1.108976	-0.000005	0.186906
N13	N	1.542651	-0.292910	0.250536
C14	C	1.060415	-0.000007	0.077366
C15	C	0.917212	-0.000006	0.073594
C16	C	1.632531	-0.352075	0.340471
C17	C	1.659649	-0.470409	0.367568
C18	C	1.596882	-0.529590	0.304739
C19	C	1.506993	-0.470424	0.214809
C20	C	1.479880	-0.352079	0.187702
C21	C	1.444231	-0.529593	0.151970
C22	C	1.354342	-0.470428	0.062040
C23	C	1.327232	-0.352094	0.034939
C24	C	1.389999	-0.292913	0.097767
C25	C	1.471344	-0.647939	0.179077
C26	C	1.318693	-0.647942	0.026308
C27	C	1.291575	-0.529608	-0.000788
C28	C	1.703683	-0.000008	0.176236
C29	C	1.842236	-0.000002	0.179881
C30	C	1.482765	-0.000012	-0.044681
C31	C	1.479117	-0.000008	-0.183236
N32	N	1.408573	0.292892	0.116243
C33	C	1.585404	-0.000007	-0.258219
C34	C	1.581636	-0.000003	-0.401423
C35	C	1.468448	-0.000003	0.411469
C36	C	1.472095	0.000000	0.550023
H37	H	1.124857	-0.000004	-0.013623
H38	H	0.875394	0.000021	-0.020199
H39	H	1.672627	-0.000008	-0.465855
H40	H	1.385329	0.000001	-0.225059
Cl41	Cl	1.730209	-0.000001	-0.193663
Cl42	Cl	0.906775	-0.000009	0.324695
H43	H	1.683634	-0.303880	0.391608
H44	H	1.044532	0.000002	0.277893
Cl45	Cl	1.584342	-0.722303	0.292129
H46	H	1.367921	-0.196556	0.075712
Cl47	Cl	1.630971	-0.678355	0.338810
Cl48	Cl	1.772644	-0.544780	0.480620
H49	H	1.381102	-0.000008	-0.385550
Cl50	Cl	1.214219	-0.277717	-0.078107
Cl51	Cl	1.178575	-0.455216	-0.113841
H52	H	1.267582	-0.696127	-0.024852
