data_functionalizedCrystal
_audit_creation_method	'MofGen! by Chris Wilmer'
_symmetry_space_group_name_H-M	'P1'
_symmetry_Int_Tables_number	1
_symmetry_cell_setting	triclinic
loop_
_symmetry_equiv_pos_as_xyz
  x,y,z
_cell_length_a	16.992694
_cell_length_b	14.472310
_cell_length_c	16.992695
_cell_angle_alpha	90.000759
_cell_angle_beta	90.668223
_cell_angle_gamma	90.007614
loop_
_atom_site_label
_atom_site_type_symbol
_atom_site_fract_x
_atom_site_fract_y
_atom_site_fract_z
O1	O	1.050861	0.076726	0.166912
O2	O	0.822461	0.076753	0.165081
O3	O	0.935745	0.076732	0.051796
O4	O	0.937576	0.076747	0.280196
O5	O	0.935714	-0.076950	0.051801
O6	O	0.822430	-0.076929	0.165086
O7	O	1.050830	-0.076956	0.166917
Cu8	Cu	0.936627	-0.090975	0.166002
Cu9	Cu	0.936663	0.090772	0.165996
O10	O	0.937546	-0.076935	0.280201
C11	C	0.793085	-0.000084	0.162727
C12	C	0.705600	-0.000074	0.155699
N13	N	0.936607	-0.218806	0.166006
C14	C	0.659610	-0.000071	0.223517
C15	C	0.577409	-0.000084	0.216908
C16	C	0.541201	-0.000094	0.142480
C17	C	0.587198	-0.000100	0.074657
C18	C	0.669397	-0.000094	0.081267
C19	C	0.295886	-0.000120	0.115086
C20	C	0.213681	-0.000124	0.108481
C21	C	0.203898	-0.000109	0.250732
C22	C	0.286099	-0.000097	0.257336
C23	C	0.332089	-0.000108	0.189512
N24	N	0.457178	-0.000104	0.135723
N25	N	0.416110	-0.000105	0.196270
C26	C	0.936662	-0.592897	0.165993
C27	C	0.875815	-0.553720	0.226378
C28	C	0.875980	-0.446632	0.226623
C29	C	0.936634	-0.407306	0.165999
C30	C	1.019894	-0.446151	0.189086
C31	C	1.019558	-0.553273	0.189521
C32	C	0.914970	-0.553429	0.082375
C33	C	0.913120	-0.446301	0.082808
C34	C	0.936624	-0.302418	0.166002
C35	C	0.936678	-0.697785	0.165992
C36	C	1.080205	-0.000116	0.169270
C37	C	1.167690	-0.000121	0.176299
C38	C	0.933374	-0.000108	0.022439
C39	C	0.926345	-0.000107	-0.065046
N40	N	0.936689	0.218603	0.165986
C41	C	0.994163	-0.000116	-0.111037
C42	C	0.987554	-0.000107	-0.193238
C43	C	0.913126	-0.000095	-0.229446
C44	C	0.845303	-0.000083	-0.183449
C45	C	0.851913	-0.000086	-0.101250
C46	C	0.885732	-0.000079	-0.474760
C47	C	0.879127	-0.000079	-0.556966
C48	C	1.021379	-0.000101	-0.566749
C49	C	1.027982	-0.000109	-0.484547
C50	C	0.960159	-0.000092	-0.438558
N51	N	0.906369	-0.000088	-0.313468
N52	N	0.966917	-0.000093	-0.354537
C53	C	0.939917	-0.000093	0.309559
C54	C	0.946945	-0.000088	0.397044
H55	H	0.689084	-0.000062	0.284124
N56	N	0.964597	-0.412743	0.023276
N57	N	0.937521	-0.366644	-0.033042
H58	H	0.973882	-0.342949	-0.075087
N59	N	0.156933	-0.000099	0.320016
N60	N	0.162844	0.064684	0.368376
H61	H	0.129675	0.064690	0.417312
N62	N	0.530442	-0.000085	0.286190
N63	N	0.562781	-0.000072	0.352639
H64	H	0.529611	-0.000074	0.401574
N65	N	0.550202	-0.000120	-0.001364
N66	N	0.476810	-0.000125	-0.007257
H67	H	0.450682	-0.000137	-0.060948
H68	H	0.315574	-0.000078	0.317942
N69	N	1.043282	-0.412511	0.264955
N70	N	1.108226	-0.435698	0.294060
H71	H	1.124740	-0.411944	0.347645
H72	H	0.890036	-0.580627	0.287968
H73	H	0.855296	-0.580491	0.061453
N74	N	0.803095	-0.000044	-0.593948
N75	N	0.783553	0.064741	-0.638723
H76	H	0.729857	0.064765	-0.664841
N77	N	0.836252	-0.414452	0.060987
N78	N	0.798881	-0.363221	0.106491
H79	H	0.744592	-0.340722	0.091083
H80	H	0.184203	-0.000131	0.047870
H81	H	1.037888	-0.578247	0.250660
N82	N	0.342845	-0.000128	0.045800
N83	N	0.310503	-0.000132	-0.020646
H84	H	0.343670	-0.000135	-0.069583
H85	H	0.784703	-0.000067	-0.212936
H86	H	0.959282	-0.578763	0.037377
N87	N	0.816447	-0.000068	-0.427802
N88	N	0.750000	-0.000065	-0.460144
H89	H	0.701063	-0.000061	-0.426977
H90	H	0.796688	-0.000078	-0.063804
H91	H	0.706842	-0.000096	0.026042
H92	H	0.814257	-0.420369	0.212109
H93	H	1.054770	-0.000132	-0.081563
H94	H	1.042779	-0.000116	-0.230680
N95	N	0.798152	-0.586065	0.208369
N96	N	0.786737	-0.638372	0.150823
H97	H	0.731885	-0.661221	0.138101
H98	H	1.088589	-0.000119	-0.455073
N99	N	0.893987	-0.414478	0.304343
N100	N	0.906479	-0.471151	0.358571
H101	H	0.919185	-0.448444	0.413468
H102	H	1.066524	-0.579187	0.147548
H103	H	1.066468	-0.420676	0.146489
H104	H	1.076596	-0.000112	-0.604202
