data_functionalizedCrystal
_audit_creation_method	'MofGen! by Chris Wilmer'
_symmetry_space_group_name_H-M	'P1'
_symmetry_Int_Tables_number	1
_symmetry_cell_setting	triclinic
loop_
_symmetry_equiv_pos_as_xyz
  x,y,z
_cell_length_a	26.210047
_cell_length_b	14.044220
_cell_length_c	14.044220
_cell_angle_alpha	93.188878
_cell_angle_beta	90.004027
_cell_angle_gamma	89.995121
loop_
_atom_site_label
_atom_site_type_symbol
_atom_site_fract_x
_atom_site_fract_y
_atom_site_fract_z
O1	O	0.042377	-1.277175	-0.230154
O2	O	0.042390	-1.000503	-0.221849
O3	O	0.042378	-1.134686	-0.087666
O4	O	0.042388	-1.142992	-0.364337
O5	O	-0.042480	-1.134660	-0.087686
O6	O	-0.042468	-1.000477	-0.221869
O7	O	-0.042481	-1.277148	-0.230175
Cu8	Cu	-0.050223	-1.138810	-0.226024
Cu9	Cu	0.050131	-1.138841	-0.226000
O10	O	-0.042470	-1.142965	-0.364358
C11	C	-0.000038	-0.964868	-0.218223
C12	C	-0.000033	-0.858725	-0.207379
N13	N	-0.120807	-1.138795	-0.226041
C14	C	-0.000051	-1.131037	-0.052054
C15	C	-0.000051	-1.120193	0.054088
C16	C	-0.473326	-1.198252	-0.166598
C17	C	-0.686985	-1.198272	-0.166586
O18	O	-0.714611	-1.248788	-0.116046
N19	N	-0.713701	-1.138845	-0.225979
C20	C	-0.686999	-1.079403	-0.285375
O21	O	-0.714626	-1.028850	-0.335885
C22	C	-0.473342	-1.079379	-0.285381
C23	C	-0.446628	-1.138818	-0.225991
C24	C	-0.446612	-1.257685	-0.107212
C25	C	-0.393201	-1.257683	-0.107219
C26	C	-0.366503	-1.198249	-0.166612
C27	C	-0.393217	-1.138816	-0.225998
C28	C	-0.446641	-1.019934	-0.344771
C29	C	-0.393223	-1.019931	-0.344765
C30	C	-0.366510	-1.079370	-0.285375
C31	C	-0.313107	-1.079380	-0.285398
N32	N	-0.286391	-1.138807	-0.226005
C33	C	-0.313089	-1.198241	-0.166612
C34	C	-0.799173	-1.079422	-0.285369
C35	C	-0.852587	-1.079429	-0.285369
C36	C	-0.852568	-1.198296	-0.166579
C37	C	-0.799153	-1.198293	-0.166584
C38	C	-0.772456	-1.138849	-0.225976
C39	C	-0.200921	-1.198234	-0.166633
C40	C	-0.147505	-1.198230	-0.166648
C41	C	-0.147528	-1.079359	-0.285434
C42	C	-0.200939	-1.079366	-0.285423
C43	C	-0.227635	-1.138807	-0.226014
O44	O	-0.285448	-1.028882	-0.335904
O45	O	-0.285453	-1.248772	-0.116094
C46	C	-0.526737	-1.198254	-0.166590
C47	C	-0.553451	-1.138821	-0.225976
C48	C	-0.526753	-1.079387	-0.285369
C49	C	-0.606865	-1.138828	-0.225976
C50	C	-0.633563	-1.198263	-0.166583
C51	C	-0.606847	-1.257690	-0.107190
C52	C	-0.553435	-1.257688	-0.107197
C53	C	-0.553469	-1.019959	-0.344762
C54	C	-0.606881	-1.019967	-0.344751
C55	C	-0.633579	-1.079401	-0.285358
N56	N	0.120715	-1.138863	-0.225976
C57	C	-0.000053	-1.312783	-0.233800
C58	C	-0.000054	-1.418926	-0.244645
C59	C	-0.000044	-0.664388	-0.187553
C60	C	-0.000043	-0.613258	-0.264467
C61	C	-0.000049	-0.505122	-0.253435
C62	C	-0.000038	-0.772534	-0.198583
C63	C	-0.000040	-1.146614	-0.399969
C64	C	-0.000036	-1.157459	-0.506112
C65	C	-0.000043	-1.100366	0.248426
C66	C	-0.000045	-1.177281	0.299556
C67	C	-0.000040	-1.166249	0.407692
C68	C	-0.000047	-1.111397	0.140280
H69	H	-0.222650	-1.246634	-0.118256
H70	H	-0.000038	-1.026239	0.285863
C71	C	-0.769771	-1.263670	-0.101249
C72	C	-0.777118	-1.252881	0.007604
C73	C	-0.747739	-1.318259	0.072945
C74	C	-0.711014	-1.394425	0.029433
C75	C	-0.703666	-1.405216	-0.079426
C76	C	-0.733044	-1.339839	-0.144766
H77	H	-0.804305	-1.196496	0.039820
H78	H	-0.753178	-1.310270	0.153530
H79	H	-0.689266	-1.442821	0.077802
H80	H	-0.676478	-1.461601	-0.111641
H81	H	-0.727605	-1.347828	-0.225351
C82	C	-0.000055	-1.277433	0.248986
C83	C	-0.000059	-1.366540	0.308119
C84	C	-0.000070	-1.466688	0.257545
C85	C	-0.000077	-1.477730	0.147838
C86	C	-0.000073	-1.388620	0.088698
C87	C	-0.000061	-1.288472	0.139273
H88	H	-0.000054	-1.358368	0.389337
H89	H	-0.000074	-1.532652	0.301324
H90	H	-0.000086	-1.551865	0.110399
H91	H	-0.000078	-1.396792	0.007481
H92	H	-0.000058	-1.222508	0.095493
H93	H	-0.125756	-1.246635	-0.118286
H94	H	-0.371454	-1.306080	-0.058856
H95	H	-0.874315	-1.246692	-0.118220
C96	C	-0.881969	-1.014054	-0.350706
C97	C	-0.852595	-0.948676	-0.416031
C98	C	-0.881975	-0.883294	-0.481366
C99	C	-0.940728	-0.883290	-0.481376
C100	C	-0.970105	-0.948670	-0.416050
C101	C	-0.940725	-1.014052	-0.350715
H102	H	-0.809099	-0.948677	-0.416025
H103	H	-0.860228	-0.834896	-0.529725
H104	H	-0.962477	-0.834891	-0.529741
H105	H	-1.013601	-0.948670	-0.416056
H106	H	-0.962472	-1.062451	-0.302356
H107	H	-0.468345	-1.306083	-0.058843
H108	H	-0.468384	-0.971533	-0.393130
C109	C	-0.230326	-1.013989	-0.350758
C110	C	-0.222980	-0.905140	-0.339899
C111	C	-0.252361	-0.839754	-0.405228
C112	C	-0.289087	-0.883217	-0.481416
C113	C	-0.296434	-0.992073	-0.492278
C114	C	-0.267053	-1.057459	-0.426949
H115	H	-0.195792	-0.872960	-0.283497
H116	H	-0.246922	-0.759171	-0.397187
H117	H	-0.310837	-0.834814	-0.529777
H118	H	-0.323623	-1.024252	-0.548680
H119	H	-0.272492	-1.138041	-0.434991
C120	C	-0.524054	-1.323066	-0.041861
C121	C	-0.531399	-1.312274	0.066992
C122	C	-0.502022	-1.377653	0.132333
C123	C	-0.465300	-1.453825	0.088821
C124	C	-0.457954	-1.464621	-0.020038
C125	C	-0.487331	-1.399241	-0.085379
H126	H	-0.558584	-1.255884	0.099207
H127	H	-0.507460	-1.369661	0.212918
H128	H	-0.443554	-1.502223	0.137191
H129	H	-0.430769	-1.521010	-0.052253
H130	H	-0.481893	-1.407233	-0.165964
C131	C	-0.118155	-1.013979	-0.350762
C132	C	-0.081438	-0.937817	-0.307228
C133	C	-0.052064	-0.872430	-0.372551
C134	C	-0.059407	-0.883204	-0.481407
C135	C	-0.096126	-0.959369	-0.524946
C136	C	-0.125500	-1.024757	-0.459624
H137	H	-0.076000	-0.929838	-0.226642
H138	H	-0.024882	-0.816047	-0.340319
H139	H	-0.037663	-0.834801	-0.529762
H140	H	-0.101564	-0.967348	-0.605533
H141	H	-0.152682	-1.081139	-0.491855
H142	H	-0.777440	-1.031014	-0.333735
H143	H	-0.628627	-0.971567	-0.393122
H144	H	-0.371489	-0.971521	-0.393128
H145	H	-0.628593	-1.306088	-0.058833
H146	H	-0.531736	-0.971559	-0.393126
H147	H	-0.000038	-0.650697	-0.338600
H148	H	-0.000049	-0.626951	-0.113425
