data_functionalizedCrystal
_audit_creation_method	'MofGen! by Chris Wilmer'
_symmetry_space_group_name_H-M	'P1'
_symmetry_Int_Tables_number	1
_symmetry_cell_setting	triclinic
loop_
_symmetry_equiv_pos_as_xyz
  x,y,z
_cell_length_a	16.994737
_cell_length_b	19.077105
_cell_length_c	19.077068
_cell_angle_alpha	90.115316
_cell_angle_beta	92.264813
_cell_angle_gamma	87.690602
loop_
_atom_site_label
_atom_site_type_symbol
_atom_site_fract_x
_atom_site_fract_y
_atom_site_fract_z
Zn1	Zn	0.508321	-1.062934	0.322958
Zn2	Zn	0.381483	-1.058135	0.440472
Zn3	Zn	0.370935	-0.945442	0.318258
Zn4	Zn	0.507847	-0.940669	0.435699
O5	O	0.442147	-1.001795	0.379347
O6	O	0.496108	-1.160629	0.342510
O7	O	0.269703	-1.043175	0.424291
O8	O	0.384944	-0.965033	0.220552
O9	O	0.402920	-1.157103	0.428848
O10	O	0.485881	-1.051354	0.224005
O11	O	0.261954	-0.960379	0.334501
O12	O	0.384485	-0.846478	0.329873
O13	O	0.618290	-0.956899	0.420713
O14	O	0.485073	-0.842971	0.416156
O15	O	0.618639	-1.046727	0.337882
O16	O	0.402461	-1.038547	0.538169
O17	O	0.495300	-0.952246	0.534662
C18	C	0.433583	-0.819228	0.371987
C19	C	0.429939	-0.741125	0.368856
C20	C	0.449992	-0.994377	0.561912
C21	C	0.453378	-0.991268	0.640017
C22	C	0.737206	-1.001840	0.379274
C23	C	0.647884	-1.001820	0.379296
C24	C	0.237208	-1.001815	0.379350
C25	C	0.147885	-1.001953	0.379178
Zn26	Zn	1.013345	-1.058410	0.440167
Zn27	Zn	1.002823	-0.945485	0.318167
Zn28	Zn	0.876013	-0.940866	0.435706
Zn29	Zn	0.876402	-1.062918	0.322733
O30	O	0.942146	-1.001920	0.379193
O31	O	1.122330	-1.043476	0.423939
O32	O	0.981435	-0.846534	0.329981
O33	O	0.898472	-0.952639	0.534635
O34	O	1.114600	-0.960511	0.334306
O35	O	0.999368	-1.038998	0.537912
O36	O	0.888269	-0.843141	0.416336
O37	O	0.765684	-0.957011	0.420764
O38	O	0.899133	-1.160658	0.342089
O39	O	0.765969	-1.046681	0.337763
O40	O	0.999745	-1.157346	0.428367
O41	O	0.981812	-0.964882	0.220435
O42	O	0.888931	-1.051159	0.223790
C43	C	0.450744	-1.185075	0.386736
C44	C	0.454407	-1.263177	0.389884
C45	C	0.480522	-0.702622	0.412375
C46	C	0.477102	-0.629236	0.409424
C47	C	0.423094	-0.594354	0.362955
C48	C	0.372509	-0.632862	0.319431
C49	C	0.375934	-0.706247	0.322379
C50	C	0.407247	-0.375071	0.349309
C51	C	0.403824	-0.301680	0.346365
C52	C	0.508419	-0.298059	0.436357
C53	C	0.511835	-0.371445	0.439304
C54	C	0.461253	-0.409947	0.395777
N55	N	0.419595	-0.519341	0.359939
N56	N	0.464757	-0.484959	0.398791
C57	C	0.434289	-1.009261	0.196070
C58	C	0.430940	-1.012443	0.117968
C59	C	0.406675	-1.034774	0.678514
C60	C	0.409864	-1.031854	0.751902
C61	C	0.459752	-0.985423	0.786791
C62	C	0.506460	-0.941915	0.748288
C63	C	0.503275	-0.944839	0.674902
C64	C	0.474462	-0.971859	1.006079
C65	C	0.477643	-0.968936	1.079470
C66	C	0.381048	-1.058877	1.083079
C67	C	0.377863	-1.061794	1.009691
C68	C	0.424574	-1.018288	0.971195
N69	N	0.463012	-0.982436	0.861805
N70	N	0.421318	-1.021280	0.896183
C71	C	0.934272	-1.009008	0.196615
C72	C	0.930923	-1.012017	0.118506
C73	C	0.950656	-1.185213	0.386235
C74	C	0.954283	-1.263322	0.389235
C75	C	0.950006	-0.994842	0.562486
C76	C	0.953240	-0.991933	0.640598
C77	C	0.933714	-0.819337	0.372228
C78	C	0.930244	-0.741222	0.369421
C79	C	0.977759	-0.968546	0.080101
C80	C	0.974628	-0.971375	0.006710
C81	C	0.924657	-1.017671	-0.028275
C82	C	0.877820	-1.061146	0.010136
C83	C	0.880955	-1.058321	0.083526
C84	C	1.008370	-1.298282	0.435570
C85	C	1.011778	-1.371672	0.438404
C86	C	0.961103	-1.410102	0.394898
C87	C	0.907010	-1.375137	0.348561
C88	C	0.903598	-1.301747	0.345731
C89	C	0.902221	-0.945605	0.675578
C90	C	0.905245	-0.942871	0.748973
C91	C	0.959291	-0.986464	0.787386
C92	C	1.010312	-1.032797	0.752401
C93	C	1.007284	-1.035534	0.679008
C94	C	0.879730	-0.702814	0.412743
C95	C	0.876470	-0.629415	0.410120
C96	C	0.923720	-0.594426	0.364170
C97	C	0.974240	-0.632839	0.320847
C98	C	0.977504	-0.706236	0.323474
H99	H	0.524499	-0.731017	0.450217
H100	H	0.328538	-0.604455	0.281592
H101	H	0.865752	-1.406438	0.313140
F102	F	0.831099	-1.104589	0.124392
H103	H	0.837134	-1.098840	-0.018358
F104	F	0.920239	-0.516309	0.361382
F105	F	0.844693	-0.899205	0.634708
F106	F	0.530940	-0.588261	0.455743
F107	F	0.569316	-0.408564	0.488764
F108	F	0.322098	-0.747225	0.276058
H109	H	0.343020	-1.094298	1.114431
H110	H	0.366047	-1.072580	0.650113
H111	H	0.512495	-0.936433	0.974741
H112	H	0.549601	-0.266703	0.471793
F113	F	0.921438	-1.020763	-0.106381
H114	H	0.547084	-0.904113	0.776700
F115	F	0.360159	-1.078162	0.792871
F116	F	0.552984	-0.898535	0.633930
F117	F	0.850941	-0.893553	0.786193
H118	H	0.841250	-0.731292	0.450161
F119	F	0.324774	-1.111220	0.972566
H120	H	0.518282	-0.931135	1.107875
F121	F	1.030945	-0.919267	0.117321
H122	H	0.835329	-0.598149	0.445399
F123	F	0.346335	-0.264558	0.296909
F124	F	1.024480	-0.925098	-0.034157
F125	F	1.062311	-1.257395	0.481879
H126	H	1.055830	-1.400130	0.476136
H127	H	0.963889	-1.469861	0.397208
F128	F	1.024525	-0.595590	0.271948
F129	F	1.067830	-1.079187	0.793294
H130	H	0.961748	-0.984228	0.847147
H131	H	0.859557	-1.273289	0.307996
F132	F	1.061593	-1.084842	0.641787
H133	H	0.366054	-0.406410	0.313871
F134	F	1.031267	-0.747105	0.277359
