data_functionalizedCrystal
_audit_creation_method	'MofGen! by Chris Wilmer'
_symmetry_space_group_name_H-M	'P1'
_symmetry_Int_Tables_number	1
_symmetry_cell_setting	triclinic
loop_
_symmetry_equiv_pos_as_xyz
  x,y,z
_cell_length_a	10.654550
_cell_length_b	14.853567
_cell_length_c	9.730223
_cell_angle_alpha	90.002458
_cell_angle_beta	89.996251
_cell_angle_gamma	84.059917
loop_
_atom_site_label
_atom_site_type_symbol
_atom_site_fract_x
_atom_site_fract_y
_atom_site_fract_z
O1	O	1.666519	0.126622	-0.114390
O2	O	1.300915	0.138686	-0.114367
O3	O	1.493482	0.001477	-0.114383
O4	O	1.473951	0.263832	-0.114374
O5	O	1.493480	0.001480	0.114197
O6	O	1.300912	0.138690	0.114213
O7	O	1.666516	0.126625	0.114190
Zn8	Zn	1.483714	0.132658	0.150493
Zn9	Zn	1.483717	0.132654	-0.150671
O10	O	1.473949	0.263835	0.114206
C11	C	1.254125	0.137802	-0.000074
C12	C	1.114709	0.135152	-0.000066
C13	C	1.034384	0.215939	-0.000083
C14	C	0.903389	0.213443	-0.000107
C15	C	0.933057	0.049367	-0.000102
C16	C	1.064050	0.051863	-0.000068
C17	C	1.085044	0.299227	-0.000080
C18	C	1.004717	0.380021	-0.000099
C19	C	0.873722	0.377525	-0.000123
C20	C	0.823054	0.294236	-0.000128
C21	C	1.492596	-0.032115	-0.000097
C22	C	1.489944	-0.132213	-0.000109
C23	C	1.364344	-0.545419	-0.000075
C24	C	1.593119	-0.565475	-0.000090
C25	C	1.595613	-0.471428	-0.000098
C26	C	1.482470	-0.414372	-0.000093
C27	C	1.366834	-0.451363	-0.000079
C28	C	1.711247	-0.434430	-0.000097
C29	C	1.713745	-0.340378	-0.000104
C30	C	1.600601	-0.283320	-0.000109
C31	C	1.484961	-0.320316	-0.000097
C32	C	1.371818	-0.263260	-0.000091
C33	C	1.256176	-0.300254	-0.000089
C34	C	1.253691	-0.394305	-0.000084
C35	C	1.603087	-0.189269	-0.000114
C36	C	1.374308	-0.169204	-0.000096
C37	C	1.713306	0.127510	-0.000106
C38	C	1.852722	0.130160	-0.000123
C39	C	1.474835	0.297427	-0.000083
C40	C	1.477487	0.397525	-0.000080
N41	N	1.483721	0.132661	0.356030
N42	N	1.483720	0.132644	-0.356207
C43	C	1.569012	0.071925	0.427949
C44	C	1.569009	0.071914	0.571832
C45	C	1.398420	0.193382	0.571864
C46	C	1.398418	0.193388	0.427984
C47	C	1.654315	0.011198	0.355994
C48	C	1.739614	-0.049542	0.427913
C49	C	1.739610	-0.049553	0.571796
C50	C	1.654309	0.011176	0.643760
H51	H	1.045981	0.447831	-0.000083
H52	H	1.129453	-0.013920	-0.000058
Cl53	Cl	1.232063	-0.097483	-0.000100
Cl54	Cl	1.748452	-0.142765	-0.000091
H55	H	1.809057	-0.098991	0.369313
H56	H	1.328972	0.242826	0.630467
Cl57	Cl	1.735347	-0.637203	-0.000073
H58	H	1.654328	0.011203	0.238838
H59	H	0.808324	0.443311	-0.000124
H60	H	0.716388	0.292210	-0.000126
H61	H	1.328965	0.242844	0.369427
Cl62	Cl	1.846830	-0.125917	0.662207
H63	H	1.654305	0.011155	0.760920
Cl64	Cl	1.108326	-0.440819	-0.000085
Cl65	Cl	0.869357	-0.055332	-0.000116
Cl66	Cl	1.249721	0.302370	-0.000058
H67	H	1.270191	-0.575545	-0.000079
Cl68	Cl	1.859120	-0.293879	-0.000130
Cl69	Cl	1.113946	-0.228516	-0.000071
H70	H	1.803361	-0.480892	-0.000089
