data_functionalizedCrystal
_audit_creation_method	'MofGen! by Chris Wilmer'
_symmetry_space_group_name_H-M	'P1'
_symmetry_Int_Tables_number	1
_symmetry_cell_setting	triclinic
loop_
_symmetry_equiv_pos_as_xyz
  x,y,z
_cell_length_a	10.654545
_cell_length_b	16.974885
_cell_length_c	9.130313
_cell_angle_alpha	93.649313
_cell_angle_beta	89.996934
_cell_angle_gamma	83.938315
loop_
_atom_site_label
_atom_site_type_symbol
_atom_site_fract_x
_atom_site_fract_y
_atom_site_fract_z
O1	O	1.666115	0.111037	-0.108629
O2	O	2.166115	0.611037	0.391371
O3	O	1.300471	0.121621	-0.107381
O4	O	1.800471	0.621621	0.392619
O5	O	1.493486	0.001283	-0.121626
O6	O	1.993486	0.501283	0.378374
O7	O	1.473099	0.231375	-0.094384
O8	O	1.973099	0.731375	0.405616
O9	O	1.493473	0.001280	0.121972
O10	O	1.993473	0.501280	0.621972
O11	O	1.300458	0.121618	0.136217
O12	O	1.800458	0.621618	0.636217
O13	O	1.666101	0.111034	0.134970
O14	O	2.166101	0.611034	0.634970
Cu15	Cu	1.483278	0.116325	0.157836
Cu16	Cu	1.983278	0.616325	0.657836
Cu17	Cu	1.483294	0.116330	-0.130247
Cu18	Cu	1.983294	0.616330	0.369753
O19	O	1.473086	0.231372	0.149215
O20	O	1.973086	0.731372	0.649215
C21	C	1.253678	0.120843	0.014326
C22	C	1.753678	0.620843	0.514326
C23	C	1.114271	0.118520	0.014048
C24	C	1.614271	0.618520	0.514048
C25	C	1.048776	0.117425	0.146705
C26	C	1.548776	0.617425	0.646705
C27	C	0.917791	0.115229	0.146445
C28	C	1.417791	0.615229	0.646445
C29	C	0.917806	0.115228	-0.119140
C30	C	1.417806	0.615228	0.380860
C31	C	1.048790	0.117418	-0.118879
C32	C	1.548790	0.617418	0.381121
C33	C	1.492704	-0.028181	-0.003318
C34	C	1.992704	0.471819	0.496682
C35	C	1.490379	-0.115969	-0.013722
C36	C	1.990379	0.384031	0.486278
C37	C	1.489276	-0.157221	0.114170
C38	C	1.989276	0.342779	0.614170
C39	C	1.487099	-0.239708	0.104382
C40	C	1.987099	0.260292	0.604382
C41	C	1.486015	-0.280941	-0.033299
C42	C	1.986015	0.219059	0.466701
C43	C	1.487122	-0.239683	-0.161200
C44	C	1.987122	0.260317	0.338800
C45	C	1.489308	-0.157198	-0.151411
C46	C	1.989308	0.342802	0.348589
C47	C	1.479486	-0.527634	-0.076815
C48	C	1.979486	-0.027634	0.423185
C49	C	1.477296	-0.610124	-0.086594
C50	C	1.977296	-0.110124	0.413406
C51	C	1.477276	-0.610143	0.178989
C52	C	1.977276	-0.110143	0.678989
C53	C	1.479454	-0.527656	0.188766
C54	C	1.979454	-0.027656	0.688766
C55	C	1.480567	-0.486406	0.060865
C56	C	1.980567	0.013594	0.560865
N57	N	1.483786	-0.365256	-0.043307
N58	N	1.983786	0.134744	0.456693
N59	N	1.482806	-0.402094	0.070874
N60	N	1.982806	0.097906	0.570874
C61	C	1.712894	0.111812	0.013260
C62	C	2.212894	0.611812	0.513260
C63	C	1.852301	0.114135	0.013528
C64	C	2.352301	0.614135	0.513528
C65	C	1.473868	0.260836	0.030904
C66	C	1.973868	0.760836	0.530904
C67	C	1.476194	0.348624	0.041297
C68	C	1.976194	0.848624	0.541297
N69	N	1.483277	0.116322	0.360458
N70	N	1.983277	0.616322	0.860458
N71	N	1.483306	0.116327	-0.332870
N72	N	1.983306	0.616327	0.167130
C73	C	1.568772	0.063059	0.430805
C74	C	2.068772	0.563059	0.930805
C75	C	1.568784	0.063059	0.584142
C76	C	2.068784	0.563059	1.084142
C77	C	1.397801	0.169592	0.596772
C78	C	1.897801	0.669592	1.096772
C79	C	1.397784	0.169588	0.443438
C80	C	1.897784	0.669588	0.943438
H81	H	0.864475	0.114331	-0.227364
H82	H	1.364475	0.614331	0.272636
F83	F	1.118499	0.118578	-0.260079
F84	F	1.618499	0.618578	0.239921
F85	F	1.485923	-0.283608	0.240503
F86	F	1.985923	0.216392	0.740503
F87	F	1.306778	0.226277	0.368563
F88	F	1.806778	0.726277	0.868563
F89	F	1.480667	-0.483743	-0.212940
F90	F	1.980667	0.016257	0.287060
F91	F	1.490422	-0.113345	0.260710
F92	F	1.990422	0.386655	0.760710
H93	H	1.476371	-0.643738	0.283118
H94	H	1.976371	-0.143738	0.783118
F95	F	1.480581	-0.483777	0.335305
F96	F	1.980581	0.016223	0.835305
F97	F	1.485984	-0.283570	-0.307731
F98	F	1.985984	0.216430	0.192269
F99	F	1.476138	-0.654005	-0.233140
F100	F	1.976138	-0.154005	0.266860
H101	H	1.490207	-0.123612	-0.255554
H102	H	1.990207	0.376388	0.244446
H103	H	1.638384	0.019686	0.363246
H104	H	2.138384	0.519686	0.863246
H105	H	1.102087	0.118323	0.254943
H106	H	1.602087	0.618323	0.754943
F107	F	1.659778	0.006368	0.659005
F108	F	2.159778	0.506368	1.159005
F109	F	1.306820	0.226281	0.685095
F110	F	1.806820	0.726281	1.185095
H111	H	0.864471	0.114338	0.254468
H112	H	1.364471	0.614338	0.754468
