data_functionalizedCrystal
_audit_creation_method	'MofGen! by Chris Wilmer'
_symmetry_space_group_name_H-M	'P1'
_symmetry_Int_Tables_number	1
_symmetry_cell_setting	triclinic
loop_
_symmetry_equiv_pos_as_xyz
  x,y,z
_cell_length_a	17.000383
_cell_length_b	17.019361
_cell_length_c	13.448316
_cell_angle_alpha	86.129502
_cell_angle_beta	89.995171
_cell_angle_gamma	100.493211
loop_
_atom_site_label
_atom_site_type_symbol
_atom_site_fract_x
_atom_site_fract_y
_atom_site_fract_z
O1	O	1.056064	-0.028440	-0.080326
O2	O	1.556064	0.471560	0.419674
O3	O	0.824299	-0.057069	-0.077863
O4	O	1.324299	0.442931	0.422137
O5	O	0.946647	0.072524	-0.088954
O6	O	1.446647	0.572524	0.411046
O7	O	0.933716	-0.158034	-0.069234
O8	O	1.433716	0.341966	0.430766
O9	O	0.946644	0.072534	0.076429
O10	O	1.446644	0.572534	0.576429
O11	O	0.824296	-0.057059	0.087520
O12	O	1.324296	0.442941	0.587520
O13	O	1.056061	-0.028430	0.085057
O14	O	1.556061	0.471570	0.585057
Cu15	Cu	0.940179	-0.042744	0.101389
Cu16	Cu	1.440179	0.457256	0.601389
Cu17	Cu	0.940182	-0.042756	-0.094195
Cu18	Cu	1.440182	0.457244	0.405805
O19	O	0.933713	-0.158024	0.096149
O20	O	1.433713	0.341976	0.596149
C21	C	0.794642	-0.058602	0.004962
C22	C	1.294642	0.441398	0.504962
C23	C	0.706279	-0.063174	0.005358
C24	C	1.206279	0.436826	0.505358
C25	C	0.206028	-0.092697	0.007847
C26	C	0.706028	0.407303	0.507847
C27	C	0.289056	-0.088395	0.007479
C28	C	0.789056	0.411605	0.507479
C29	C	0.340136	-0.013720	0.001100
C30	C	0.840136	0.486280	0.501100
C31	C	0.308184	0.056657	-0.004923
C32	C	0.808184	0.556657	0.495077
C33	C	0.225157	0.052354	-0.004563
C34	C	0.725157	0.552354	0.495437
C35	C	0.591300	0.002900	-0.000304
C36	C	1.091300	0.502900	0.499696
C37	C	0.674332	0.007198	-0.000661
C38	C	1.174332	0.507198	0.499339
C39	C	0.655198	-0.137855	0.011740
C40	C	1.155198	0.362145	0.511740
C41	C	0.572171	-0.142151	0.012105
C42	C	1.072171	0.357849	0.512105
C43	C	0.540227	-0.071774	0.006077
C44	C	1.040227	0.428226	0.506077
C45	C	0.425004	-0.009321	0.000727
C46	C	0.925004	0.490679	0.500727
C47	C	0.455360	-0.076174	0.006442
C48	C	0.955360	0.423826	0.506442
C49	C	0.946155	0.101884	-0.008776
C50	C	1.446155	0.601884	0.491224
C51	C	0.944685	0.189351	-0.016263
C52	C	1.444685	0.689351	0.483737
C53	C	1.085718	-0.026897	0.002230
C54	C	1.585718	0.473103	0.502230
C55	C	1.174081	-0.022325	0.001827
C56	C	1.674081	0.477675	0.501827
N57	N	0.940184	-0.042758	-0.231759
N58	N	1.440184	0.457242	0.268241
C59	C	0.943990	0.230455	0.070365
C60	C	1.443990	0.730455	0.570365
C61	C	0.942614	0.312641	0.063322
C62	C	1.442614	0.812641	0.563322
C63	C	0.941925	0.353719	-0.030351
C64	C	1.441925	0.853719	0.469649
C65	C	0.942622	0.312609	-0.116986
C66	C	1.442622	0.812609	0.383014
C67	C	0.944005	0.230426	-0.109942
C68	C	1.444005	0.730426	0.390058
C69	C	0.937756	0.601858	-0.056132
C70	C	1.437756	1.101858	0.443868
C71	C	0.936371	0.684046	-0.063170
C72	C	1.436371	1.184046	0.436830
C73	C	0.936364	0.684072	0.117139
C74	C	1.436364	1.184072	0.617139
C75	C	0.937742	0.601887	0.124175
C76	C	1.437742	1.101887	0.624175
C77	C	0.938443	0.560785	0.037540
C78	C	1.438443	1.060785	0.537540
C79	C	0.940515	0.437725	-0.037553
C80	C	1.440515	0.937725	0.462447
C81	C	0.939859	0.476782	0.044743
C82	C	1.439859	0.976782	0.544743
C83	C	0.934205	0.812617	0.015970
C84	C	1.434205	1.312617	0.515970
C85	C	0.935677	0.725150	0.023459
C86	C	1.435677	1.225150	0.523459
C87	C	0.994461	0.014527	-0.288703
C88	C	1.494461	0.514527	0.211297
C89	C	0.994464	0.014530	-0.392806
C90	C	1.494464	0.514530	0.107194
C91	C	0.940187	-0.042751	-0.439964
C92	C	1.440187	0.457249	0.060036
C93	C	0.885908	-0.100042	-0.383013
C94	C	1.385908	0.399958	0.116987
C95	C	0.885909	-0.100047	-0.278911
C96	C	1.385909	0.399953	0.221089
C97	C	0.885908	-0.100026	-0.599995
C98	C	1.385908	0.399974	-0.099995
C99	C	0.885906	-0.100020	-0.704104
C100	C	1.385906	0.399980	-0.204104
C101	C	0.994463	0.014551	-0.713889
C102	C	1.494463	0.514551	-0.213889
C103	C	0.994464	0.014546	-0.609787
C104	C	1.494464	0.514546	-0.109787
C105	C	0.940184	-0.042745	-0.552844
C106	C	1.440184	0.457255	-0.052844
N107	N	0.940182	-0.042734	0.238953
N108	N	1.440182	0.457266	0.738953
H109	H	0.530587	-0.202959	0.017297
H110	H	1.030587	0.297041	0.517297
H111	H	0.199148	0.109659	-0.009467
H112	H	0.699148	0.609659	0.490533
H113	H	0.315063	-0.145699	0.012372
H114	H	0.815063	0.354301	0.512372
H115	H	0.466602	0.051480	-0.004463
H116	H	0.966602	0.551480	0.495537
H117	H	0.841710	-0.146680	-0.553634
H118	H	1.341710	0.353320	-0.053634
F119	F	0.400996	-0.155646	0.013226
F120	F	0.900996	0.344354	0.513226
F121	F	0.944747	0.186681	-0.202144
F122	F	1.444747	0.686681	0.297856
F123	F	0.941873	0.356383	0.155524
F124	F	1.441873	0.856383	0.655524
F125	F	1.052232	0.075498	-0.453410
F126	F	1.552232	0.575498	0.046590
F127	F	0.938499	0.558124	-0.148337
F128	F	1.438499	1.058124	0.351663
F129	F	0.935619	0.727821	0.209335
F130	F	1.435619	1.227821	0.709335
F131	F	1.052227	0.075513	-0.559598
F132	F	1.552227	0.575513	-0.059598
F133	F	0.689203	-0.212750	0.018149
F134	F	1.189203	0.287250	0.518149
F135	F	0.728694	0.086681	-0.007452
F136	F	1.228694	0.586681	0.492548
F137	F	0.940595	0.433063	0.144434
F138	F	1.440595	0.933063	0.644434
F139	F	0.939787	0.481451	-0.137245
F140	F	1.439787	0.981451	0.362755
H141	H	0.938320	0.568450	0.200453
H142	H	1.438320	1.068450	0.700453
F143	F	1.052231	0.075524	-0.774497
F144	F	1.552231	0.575524	-0.274497
H145	H	0.565302	0.060206	-0.005210
H146	H	1.065302	0.560206	0.494790
H147	H	0.944537	0.197013	0.146644
H148	H	1.444537	0.697013	0.646644
H149	H	0.942067	0.346062	-0.193257
H150	H	1.442067	0.846062	0.306743
F151	F	0.362549	0.136132	-0.011716
F152	F	0.862549	0.636132	0.488284
H153	H	0.935803	0.717488	-0.139453
H154	H	1.435803	1.217488	0.360547
H155	H	1.038656	0.061174	-0.250314
H156	H	1.538656	0.561174	0.249686
F157	F	0.828137	-0.160987	-0.754286
F158	F	1.328137	0.339013	-0.254286
H159	H	0.841717	-0.146684	-0.421415
H160	H	1.341717	0.353316	0.078585
H161	H	0.841712	-0.146696	-0.232548
H162	H	1.341712	0.353304	0.267452
H163	H	0.164444	-0.153506	0.013049
H164	H	0.664444	0.346494	0.513049
