data_functionalizedCrystal
_audit_creation_method	'MofGen! by Chris Wilmer'
_symmetry_space_group_name_H-M	'P1'
_symmetry_Int_Tables_number	1
_symmetry_cell_setting	triclinic
loop_
_symmetry_equiv_pos_as_xyz
  x,y,z
_cell_length_a	13.032891
_cell_length_b	14.908178
_cell_length_c	13.033109
_cell_angle_alpha	94.281195
_cell_angle_beta	76.665353
_cell_angle_gamma	85.692616
loop_
_atom_site_label
_atom_site_type_symbol
_atom_site_fract_x
_atom_site_fract_y
_atom_site_fract_z
Zn1	Zn	1.652336	-0.623762	-0.758614
Zn2	Zn	1.619958	-0.750557	-0.571281
Zn3	Zn	1.455466	-0.580606	-0.561813
Zn4	Zn	1.464980	-0.750481	-0.726330
O5	O	1.548185	-0.676352	-0.654510
O6	O	1.795291	-0.658675	-0.751236
O7	O	1.580606	-0.709984	-0.422775
O8	O	1.491150	-0.462174	-0.597468
O9	O	1.771503	-0.751831	-0.613604
O10	O	1.635790	-0.493880	-0.742056
O11	O	1.459755	-0.585122	-0.415819
O12	O	1.309479	-0.585048	-0.566164
O13	O	1.507365	-0.751700	-0.877863
O14	O	1.316468	-0.709854	-0.687034
O15	O	1.645015	-0.658600	-0.901581
O16	O	1.589831	-0.874705	-0.582300
O17	O	1.475969	-0.874649	-0.696214
C18	C	1.274793	-0.642760	-0.622069
C19	C	1.157836	-0.628414	-0.608215
C20	C	0.988281	-0.669018	-0.647430
C21	C	1.109161	-0.683850	-0.661747
C22	C	1.530451	-0.906876	-0.636808
C23	C	1.522964	-1.005511	-0.629281
C24	C	1.659424	-1.223728	-0.765830
C25	C	1.652394	-1.316405	-0.758763
C26	C	1.501870	-1.283545	-0.608084
C27	C	1.508900	-1.190868	-0.615151
C28	C	1.587681	-1.160963	-0.694026
C29	C	1.594715	-1.068283	-0.701089
C30	C	1.444187	-1.035425	-0.550415
C31	C	1.437156	-1.128103	-0.543347
C32	C	1.822645	-0.710075	-0.687077
C33	C	1.939603	-0.724446	-0.700955
C34	C	1.580863	-0.709956	-0.928970
C35	C	1.594788	-0.724276	-1.045929
C36	C	1.566020	-0.444934	-0.672307
C37	C	1.573621	-0.346318	-0.679891
C38	C	1.541201	-0.668881	-1.094632
C39	C	1.555592	-0.683680	-1.215514
C40	C	1.515700	-0.642822	-0.381129
C41	C	1.501998	-0.628277	-0.264214
H42	H	1.156975	-0.742284	-0.718180
C43	C	1.351677	-1.160448	-0.457559
C44	C	1.363987	-1.127986	-0.357917
C45	C	1.285255	-1.157751	-0.278861
H46	H	1.357677	-1.224620	-0.463479
H47	H	1.283913	-1.138468	-0.465593
H48	H	1.431733	-1.149970	-0.349885
H49	H	1.357976	-1.063817	-0.351962
H50	H	1.217491	-1.135771	-0.286895
H51	H	1.291261	-1.221922	-0.284791
H52	H	1.293590	-1.135723	-0.211245
C53	C	1.744800	-1.191123	-0.851506
C54	C	1.697220	-1.138845	-0.915862
C55	C	1.775835	-1.108785	-0.994788
H56	H	1.786571	-1.241689	-0.893370
H57	H	1.788624	-1.155609	-0.819521
H58	H	1.653414	-1.174358	-0.947845
H59	H	1.655456	-1.088266	-0.874029
H60	H	1.819660	-1.073271	-0.962804
H61	H	1.817602	-1.159357	-1.036644
H62	H	1.743564	-1.073305	-1.038457
C63	C	1.426434	-0.550517	-1.200526
C64	C	1.323981	-0.560297	-1.213325
C65	C	1.254343	-0.488690	-1.154662
H66	H	1.448410	-0.494926	-1.224838
H67	H	1.426704	-0.550913	-1.127728
H68	H	1.323714	-0.559893	-1.286107
H69	H	1.301973	-0.615874	-1.189007
H70	H	1.254614	-0.489085	-1.081864
H71	H	1.276329	-0.433104	-1.178979
H72	H	1.184820	-0.495320	-1.163330
C73	C	1.094159	-0.550377	-0.533116
C74	C	1.130275	-0.468680	-0.566068
C75	C	1.071624	-0.396779	-0.496922
H76	H	1.102643	-0.556672	-0.463475
H77	H	1.021385	-0.550717	-0.533514
H78	H	1.203031	-0.468341	-0.565659
H79	H	1.121789	-0.462355	-0.635699
H80	H	0.998850	-0.397120	-0.497320
H81	H	1.080112	-0.403084	-0.427285
H82	H	1.096113	-0.341340	-0.519276
H83	H	0.940465	-0.610582	-0.591010
C84	C	1.366351	-0.967137	-0.472583
C85	C	1.389351	-0.879571	-0.495664
C86	C	1.317669	-0.816642	-0.423997
H87	H	1.372179	-0.975465	-0.402529
H88	H	1.296289	-0.975511	-0.478380
H89	H	1.459396	-0.871200	-0.489857
H90	H	1.383516	-0.871214	-0.565705
H91	H	1.247607	-0.825017	-0.429794
H92	H	1.323503	-0.824978	-0.353947
H93	H	1.333258	-0.757222	-0.439654
C94	C	1.465639	-0.591130	-1.030933
C95	C	1.363186	-0.600912	-1.043729
C96	C	1.293545	-0.529311	-0.985057
H97	H	1.487610	-0.535535	-1.055239
H98	H	1.465913	-0.591530	-0.958137
H99	H	1.362915	-0.600502	-1.116510
H100	H	1.341182	-0.656492	-1.019417
H101	H	1.293819	-0.529712	-0.912260
H102	H	1.315526	-0.473721	-1.009367
H103	H	1.224021	-0.535943	-0.993723
C104	C	1.630831	-0.761657	-1.279152
C105	C	1.597991	-0.843389	-1.243048
C106	C	1.667265	-0.915238	-1.301657
H107	H	1.700444	-0.755303	-1.270625
H108	H	1.630470	-0.761315	-1.351934
H109	H	1.598363	-0.843730	-1.170284
H110	H	1.528389	-0.849772	-1.251577
H111	H	1.666904	-0.914896	-1.374438
H112	H	1.736874	-0.908875	-1.293125
H113	H	1.644987	-0.970702	-1.277175
H114	H	1.710811	-1.367507	-0.817238
H115	H	1.658865	-1.043937	-0.765310
C116	C	1.003528	-0.802338	-0.776105
C117	C	1.110711	-0.801581	-0.775339
C118	C	1.169625	-0.873330	-0.844546
H119	H	0.995124	-0.795996	-0.845764
H120	H	0.979199	-0.857872	-0.753897
H121	H	1.135033	-0.746061	-0.797553
H122	H	1.119148	-0.807935	-0.705698
H123	H	1.145296	-0.928863	-0.822338
H124	H	1.161212	-0.866981	-0.914200
H125	H	1.242353	-0.872830	-0.844028
C126	C	1.416454	-1.316203	-0.522493
C127	C	1.425673	-1.410800	-0.531662
C128	C	1.347018	-1.440916	-0.452822
H129	H	1.348651	-1.294350	-0.530505
H130	H	1.424660	-1.294326	-0.454773
H131	H	1.417458	-1.432668	-0.599366
H132	H	1.493459	-1.432676	-0.523638
H133	H	1.355225	-1.419039	-0.385102
H134	H	1.279221	-1.419058	-0.460841
H135	H	1.353269	-1.505103	-0.459027
C136	C	1.670331	-0.802078	-1.109538
C137	C	1.772774	-0.792320	-1.096699
C138	C	1.842392	-0.863982	-1.155264
H139	H	1.670127	-0.801756	-1.182345
H140	H	1.648274	-0.857636	-1.085149
H141	H	1.794825	-0.736777	-1.121093
H142	H	1.773012	-0.792652	-1.023905
H143	H	1.820335	-0.919540	-1.130876
H144	H	1.842179	-0.863654	-1.228068
H145	H	1.911905	-0.857375	-1.146553
