data_functionalizedCrystal
_audit_creation_method	'MofGen! by Chris Wilmer'
_symmetry_space_group_name_H-M	'P1'
_symmetry_Int_Tables_number	1
_symmetry_cell_setting	triclinic
loop_
_symmetry_equiv_pos_as_xyz
  x,y,z
_cell_length_a	14.395555
_cell_length_b	14.628931
_cell_length_c	14.395555
_cell_angle_alpha	60.001899
_cell_angle_beta	90.002623
_cell_angle_gamma	59.999615
loop_
_atom_site_label
_atom_site_type_symbol
_atom_site_fract_x
_atom_site_fract_y
_atom_site_fract_z
Zr1	Zr	0.894917	1.000533	-0.121857
O2	O	0.746588	1.191239	-0.270189
O3	O	0.940387	0.809828	-0.076385
O4	O	0.940389	1.000525	-0.270178
O5	O	0.746585	1.000549	0.076472
O6	O	1.093263	1.000518	-0.270170
O7	O	0.746586	1.000542	-0.076395
O8	O	1.093260	0.659396	0.076491
O9	O	0.746588	1.341671	-0.270189
O10	O	1.073868	0.888263	-0.056986
O11	O	0.959779	0.888273	0.057091
O12	O	0.959781	1.112794	-0.171075
O13	O	0.845692	1.112804	-0.056998
Zr14	Zr	1.138731	1.000533	0.121962
Zr15	Zr	1.138733	1.000522	-0.121844
Zr16	Zr	0.894915	1.000544	0.121949
Zr17	Zr	0.894917	1.240455	-0.121857
Zr18	Zr	1.138731	0.760612	0.121962
O19	O	1.093261	1.191239	0.076490
O20	O	1.093263	1.191224	-0.270170
O21	O	0.746585	1.191254	0.076472
O22	O	1.287060	0.809828	0.270294
O23	O	1.287063	0.809812	-0.076366
O24	O	0.940385	0.809843	0.270275
O25	O	1.287063	1.000518	-0.076367
O26	O	1.093259	1.000542	0.270283
O27	O	0.940385	1.000549	0.270275
O28	O	1.287062	1.000525	0.076501
O29	O	0.940389	1.341662	-0.270178
O30	O	1.093258	0.659404	0.270284
O31	O	1.287060	0.659396	0.270294
O32	O	1.287062	0.659387	0.076501
O33	O	0.746586	1.341679	-0.076396
O34	O	0.940388	1.341671	-0.076386
O35	O	1.073867	0.888273	0.171180
O36	O	1.187956	0.888263	0.057103
O37	O	1.073869	1.112794	-0.056986
O38	O	0.959780	1.112804	0.057091
C39	C	1.016824	0.700428	0.000053
C40	C	1.016823	0.598575	0.000053
C41	C	1.073419	0.553161	-0.056537
C42	C	1.073420	0.447890	-0.056538
C43	C	0.711847	1.000547	0.000036
C44	C	0.608340	1.000551	0.000031
C45	C	0.485546	1.122976	-0.062166
C46	C	0.454711	1.061772	-0.107240
C47	C	0.454752	1.061750	0.045097
C48	C	0.578868	0.939347	-0.045106
C49	C	0.578906	0.939343	0.107291
C50	C	0.548145	0.878050	0.062243
C51	C	1.321801	1.000520	0.000069
C52	C	1.425308	1.000515	0.000074
C53	C	1.016826	1.000520	-0.304911
C54	C	1.016827	1.000515	-0.408413
C55	C	1.016824	1.300639	0.000052
C56	C	1.016825	1.402492	0.000052
C57	C	1.079038	0.878091	-0.406795
C58	C	0.971762	0.939295	-0.499822
C59	C	1.124077	0.939316	-0.499814
C60	C	0.909488	1.061719	-0.500077
C61	C	1.061880	1.061724	-0.500054
C62	C	0.954540	1.123017	-0.593099
C63	C	1.016822	1.000547	0.305016
C64	C	1.016821	1.000551	0.408518
C65	C	1.321801	0.700415	0.000069
C66	C	1.425307	0.598557	0.000075
C67	C	1.016821	0.700442	0.305017
C68	C	1.016820	0.598593	0.408519
C69	C	1.321799	0.700428	0.305033
C70	C	1.425304	0.598575	0.408540
C71	C	0.711849	1.300639	-0.304928
C72	C	0.608344	1.402492	-0.408435
C73	C	0.711847	1.300652	0.000036
C74	C	0.608341	1.402510	0.000030
C75	C	1.016827	1.300625	-0.304911
C76	C	1.016828	1.402473	-0.408413
C77	C	1.414858	0.553146	-0.056518
C78	C	1.521836	0.447871	-0.056514
C79	C	1.073415	0.553186	0.511259
C80	C	1.073415	0.447920	0.618235
C81	C	1.528046	0.553161	0.398097
C82	C	1.635026	0.447890	0.505076
H83	H	0.968363	0.441546	0.048498
Br84	Br	1.542663	0.618254	0.251196
Br85	Br	1.477673	0.467562	0.622435
H86	H	0.632227	0.887640	-0.083306
Br87	Br	0.668106	0.853180	0.258417
H88	H	1.121869	0.408870	0.706372
Br89	Br	0.908228	0.853068	-0.501380
Br90	Br	1.507210	0.382776	-0.137264
H91	H	1.633349	0.441503	0.048547
H92	H	1.121878	0.592208	-0.104980
H93	H	0.818743	1.113426	-0.499260
Br94	Br	0.590787	0.705415	0.149846
Br95	Br	1.154174	0.382813	-0.137305
H96	H	1.416543	0.559526	0.496681
Br97	Br	1.781927	0.382792	0.490458
H98	H	1.513451	0.559501	0.048526
Br99	Br	1.154165	0.618285	0.525879
Br100	Br	1.267950	0.618248	-0.137295
H101	H	0.460103	1.226497	-0.114844
Br102	Br	0.936071	0.533482	0.080819
Br103	Br	0.365512	1.148002	-0.258395
H104	H	0.401246	1.113518	0.083193
H105	H	0.901854	1.226623	-0.672730
H106	H	1.131559	0.774573	-0.327032
H107	H	0.968363	0.559542	0.399756
Br108	Br	1.275251	0.853037	-0.501321
Br109	Br	1.125446	1.147891	-0.498431
Br110	Br	0.936066	0.467579	0.460882
