data_functionalizedCrystal
_audit_creation_method	'MofGen! by Chris Wilmer'
_symmetry_space_group_name_H-M	'P1'
_symmetry_Int_Tables_number	1
_symmetry_cell_setting	triclinic
loop_
_symmetry_equiv_pos_as_xyz
  x,y,z
_cell_length_a	10.489746
_cell_length_b	9.565339
_cell_length_c	16.109301
_cell_angle_alpha	89.998809
_cell_angle_beta	95.998609
_cell_angle_gamma	90.000667
loop_
_atom_site_label
_atom_site_type_symbol
_atom_site_fract_x
_atom_site_fract_y
_atom_site_fract_z
O1	O	1.692347	0.116171	-0.117313
O2	O	2.192347	0.616171	0.382687
O3	O	1.320992	0.116195	-0.128319
O4	O	1.820992	0.616195	0.371681
O5	O	1.516871	0.116168	-0.001848
O6	O	2.016871	0.616168	0.498152
O7	O	1.496468	0.116198	-0.243784
O8	O	1.996468	0.616198	0.256216
O9	O	1.516856	-0.116352	-0.001856
O10	O	2.016856	0.383648	0.498144
O11	O	1.320977	-0.116325	-0.128327
O12	O	1.820977	0.383675	0.371673
O13	O	1.692332	-0.116349	-0.117321
O14	O	2.192332	0.383651	0.382679
Zn15	Zn	1.506652	-0.153255	-0.122825
Zn16	Zn	2.006652	0.346745	0.377175
Zn17	Zn	1.506672	0.153101	-0.122815
Zn18	Zn	2.006672	0.653101	0.377185
O19	O	1.496453	-0.116322	-0.243792
O20	O	1.996453	0.383678	0.256208
C21	C	1.273465	-0.000062	-0.127491
C22	C	1.773465	0.499938	0.372509
C23	C	1.131872	-0.000054	-0.125001
C24	C	1.631872	0.499946	0.374999
C25	C	0.980203	-0.000083	-0.043058
C26	C	1.480203	0.499917	0.456942
C27	C	1.056995	-0.114719	-0.084030
C28	C	1.556995	0.385281	0.415970
C29	C	1.056966	0.114528	-0.084041
C30	C	1.556966	0.614528	0.415959
C31	C	0.956378	-0.114819	-0.161579
C32	C	1.456378	0.385181	0.338421
C33	C	0.956344	0.114531	-0.161579
C34	C	1.456344	0.614531	0.338421
C35	C	1.033086	-0.000132	-0.202609
C36	C	1.533086	0.499868	0.297391
N37	N	1.506647	-0.362334	-0.122832
N38	N	2.006647	0.137666	0.377168
C39	C	1.416033	-0.453525	-0.181301
C40	C	1.916033	0.046475	0.318699
C41	C	1.531285	-0.546709	-0.198125
C42	C	2.031285	-0.046709	0.301875
C43	C	1.391444	-0.546705	-0.106015
C44	C	1.891444	-0.046705	0.393985
C45	C	1.621958	-0.453466	-0.139694
C46	C	2.121958	0.046534	0.360306
C47	C	1.482041	-0.453455	-0.047550
C48	C	1.982041	0.046545	0.452450
C49	C	1.597377	-0.546597	-0.064343
C50	C	2.097377	-0.046597	0.435657
C51	C	1.739859	-0.000089	-0.118149
C52	C	2.239859	0.499911	0.381851
C53	C	1.881452	-0.000088	-0.120639
C54	C	2.381452	0.499912	0.379361
C55	C	1.516037	-0.000093	0.029128
C56	C	2.016037	0.499907	0.529128
C57	C	1.513559	-0.000094	0.121438
C58	C	2.013559	0.499906	0.621438
N59	N	1.506687	0.362180	-0.122802
N60	N	2.006687	0.862180	0.377198
C61	C	1.497287	-0.000058	-0.274768
C62	C	1.997287	0.499942	0.225232
C63	C	1.499765	-0.000047	-0.367079
C64	C	1.999765	0.499953	0.132921
C65	C	1.624028	-0.000079	0.343029
C66	C	2.124028	0.499921	0.843029
C67	C	1.621690	-0.000068	0.429763
C68	C	2.121690	0.499932	0.929763
C69	C	1.389287	-0.000058	0.411324
C70	C	1.889287	0.499942	0.911324
C71	C	1.391626	-0.000060	0.324591
C72	C	1.891626	0.499940	0.824591
C73	C	1.509001	-0.000078	0.290446
C74	C	2.009001	0.499922	0.790446
C75	C	1.504323	-0.000064	0.463914
C76	C	2.004323	0.499936	0.963914
C77	C	1.501787	-0.000052	0.557956
C78	C	2.001787	0.499948	1.057956
C79	C	1.511537	-0.000088	0.196398
C80	C	2.011537	0.499912	0.696398
H81	H	1.100940	-0.211646	-0.051283
H82	H	1.600940	0.288354	0.448717
F83	F	1.315963	-0.400104	-0.245987
F84	F	1.815963	0.099896	0.254013
H85	H	1.552124	-0.587670	-0.261776
H86	H	2.052124	-0.087670	0.238224
H87	H	0.912375	0.211462	-0.194297
H88	H	1.412375	0.711462	0.305703
F89	F	1.748948	-0.000097	0.306692
F90	F	2.248948	0.499903	0.806692
H91	H	0.912618	-0.211847	-0.194311
H92	H	1.412618	0.288153	0.305689
F93	F	1.749351	-0.400165	-0.158366
F94	F	2.249351	0.099835	0.341634
F95	F	1.264375	-0.000039	0.447672
F96	F	1.764375	0.499961	0.947672
H97	H	1.715358	-0.000066	0.472573
H98	H	2.215358	0.499934	0.972573
H99	H	1.674108	-0.587206	-0.014882
H100	H	2.174108	-0.087206	0.485118
H101	H	1.056582	-0.000187	-0.270119
H102	H	1.556582	0.499813	0.229881
F103	F	1.114380	0.241206	-0.041212
F104	F	1.614380	0.741206	0.458788
F105	F	1.269191	-0.000048	0.268625
F106	F	1.769191	0.499952	0.768625
F107	F	1.454757	-0.399870	0.035620
F108	F	1.954757	0.100130	0.535620
F109	F	1.264083	-0.600241	-0.087438
F110	F	1.764083	-0.100241	0.412562
F111	F	0.949167	-0.000241	0.045116
F112	F	1.449167	0.499759	0.545116
