data_functionalizedCrystal
_audit_creation_method	'MofGen! by Chris Wilmer'
_symmetry_space_group_name_H-M	'P1'
_symmetry_Int_Tables_number	1
_symmetry_cell_setting	triclinic
loop_
_symmetry_equiv_pos_as_xyz
  x,y,z
_cell_length_a	19.121063
_cell_length_b	19.121274
_cell_length_c	19.120915
_cell_angle_alpha	94.963843
_cell_angle_beta	85.261346
_cell_angle_gamma	90.075254
loop_
_atom_site_label
_atom_site_type_symbol
_atom_site_fract_x
_atom_site_fract_y
_atom_site_fract_z
Zn1	Zn	-0.339806	-1.043481	0.367080
Zn2	Zn	-0.006473	-0.710148	0.700413
Zn3	Zn	0.326860	-0.376814	1.033747
Zn4	Zn	-0.452456	-1.043398	0.254435
Zn5	Zn	-0.119122	-0.710065	0.587768
Zn6	Zn	0.214211	-0.376731	0.921101
Zn7	Zn	-0.330220	-0.931277	0.254024
Zn8	Zn	0.003114	-0.597944	0.587357
Zn9	Zn	0.336447	-0.264610	0.920690
Zn10	Zn	-0.452410	-0.920766	0.377072
Zn11	Zn	-0.119076	-0.587433	0.710405
Zn12	Zn	0.214257	-0.254099	1.043738
O13	O	-0.393723	-0.984730	0.313152
O14	O	-0.060390	-0.651397	0.646486
O15	O	0.272944	-0.318064	0.979819
O16	O	-0.358781	-1.141750	0.348128
O17	O	-0.025447	-0.808416	0.681461
O18	O	0.307886	-0.475083	1.014795
O19	O	-0.432248	-1.032889	0.155742
O20	O	-0.098915	-0.699556	0.489075
O21	O	0.234419	-0.366222	0.822408
O22	O	-0.233210	-0.950594	0.264667
O23	O	0.100123	-0.617261	0.598001
O24	O	0.433456	-0.283928	0.931334
O25	O	-0.441544	-1.141689	0.265368
O26	O	-0.108210	-0.808355	0.598701
O27	O	0.225123	-0.475022	0.932034
O28	O	-0.240254	-1.033030	0.347729
O29	O	0.093080	-0.699697	0.681063
O30	O	0.426413	-0.366364	1.014396
O31	O	-0.342442	-0.950514	0.155440
O32	O	-0.009108	-0.617181	0.488773
O33	O	0.324225	-0.283847	0.822106
O34	O	-0.342397	-0.831603	0.274356
O35	O	-0.009064	-0.498270	0.607689
O36	O	0.324269	-0.164936	0.941022
O37	O	-0.441465	-0.932680	0.474385
O38	O	-0.108132	-0.599347	0.807718
O39	O	0.225201	-0.266014	1.141051
O40	O	-0.432170	-0.823881	0.364758
O41	O	-0.098836	-0.490547	0.698092
O42	O	0.234497	-0.157214	1.031425
O43	O	-0.358736	-1.022838	0.467044
O44	O	-0.025403	-0.689505	0.800377
O45	O	0.307930	-0.356172	1.133711
O46	O	-0.550731	-1.022697	0.275056
O47	O	-0.217397	-0.689364	0.608389
O48	O	0.115936	-0.356030	0.941723
O49	O	-0.550697	-0.932600	0.365157
O50	O	-0.217363	-0.599267	0.698490
O51	O	0.115970	-0.265933	1.031824
C52	C	-0.386239	-0.802259	0.320597
C53	C	-0.052906	-0.468925	0.653930
C54	C	0.280428	-0.135592	0.987264
C55	C	-0.383055	-0.724195	0.323799
C56	C	-0.049721	-0.390862	0.657133
C57	C	0.283612	-0.057528	0.990466
C58	C	-0.576198	-0.976517	0.321250
C59	C	-0.242865	-0.643184	0.654583
C60	C	0.090468	-0.309851	0.987917
C61	C	-0.654266	-0.973067	0.324735
C62	C	-0.320932	-0.639734	0.658068
C63	C	0.012401	-0.306400	0.991402
C64	C	-0.424573	-0.687492	0.282145
C65	C	-0.091240	-0.354159	0.615478
C66	C	0.242093	-0.020826	0.948811
C67	C	-0.421582	-0.614143	0.285163
C68	C	-0.088249	-0.280809	0.618496
C69	C	0.245085	0.052524	0.951830
C70	C	-0.377068	-0.577498	0.329833
C71	C	-0.043735	-0.244164	0.663166
C72	C	0.289599	0.089169	0.996499
C73	C	-0.335548	-0.614206	0.371492
C74	C	-0.002215	-0.280872	0.704825
C75	C	0.331119	0.052461	1.038159
C76	C	-0.338543	-0.687553	0.368477
C77	C	-0.005210	-0.354220	0.701810
C78	C	0.328123	-0.020887	1.035144
C79	C	-0.365875	-0.356036	0.341099
C80	C	-0.032542	-0.022702	0.674432
C81	C	0.300791	0.310631	1.007765
C82	C	-0.362882	-0.282683	0.344109
C83	C	-0.029548	0.050650	0.677442
C84	C	0.303785	0.383984	1.010776
C85	C	-0.448917	-0.282625	0.257781
C86	C	-0.115584	0.050708	0.591114
C87	C	0.217750	0.384042	0.924447
C88	C	-0.451905	-0.355975	0.254766
C89	C	-0.118572	-0.022641	0.588100
C90	C	0.214761	0.310692	0.921433
C91	C	-0.410388	-0.392676	0.296428
C92	C	-0.077055	-0.059342	0.629762
C93	C	0.256279	0.273991	0.963095
C94	C	-0.374008	-0.502523	0.332917
C95	C	-0.040675	-0.169190	0.666251
C96	C	0.292659	0.164144	0.999584
C97	C	-0.413452	-0.467649	0.293347
C98	C	-0.080119	-0.134316	0.626680
C99	C	0.253214	0.199018	0.960014
C100	C	-0.690939	-1.018388	0.279498
C101	C	-0.357606	-0.685055	0.612831
C102	C	-0.024272	-0.351721	0.946164
C103	C	-0.764292	-1.015147	0.282779
C104	C	-0.430959	-0.681813	0.616113
C105	C	-0.097625	-0.348480	0.949446
C106	C	-0.800970	-0.966581	0.331296
C107	C	-0.467636	-0.633247	0.664629
C108	C	-0.134303	-0.299914	0.997962
C109	C	-0.764291	-0.921258	0.376538
C110	C	-0.430958	-0.587924	0.709871
C111	C	-0.097625	-0.254591	1.043205
C112	C	-0.690940	-0.924503	0.373259
C113	C	-0.357607	-0.591169	0.706592
C114	C	-0.024273	-0.257836	1.039926
C115	C	-1.022444	-0.954438	0.343544
C116	C	-0.689110	-0.621104	0.676877
C117	C	-0.355777	-0.287771	1.010210
C118	C	-1.095800	-0.951195	0.346818
C119	C	-0.762466	-0.617861	0.680151
C120	C	-0.429133	-0.284528	1.013484
C121	C	-1.095795	-1.045085	0.253059
C122	C	-0.762462	-0.711752	0.586393
C123	C	-0.429129	-0.378418	0.919726
C124	C	-1.022442	-1.048323	0.249782
C125	C	-0.689109	-0.714989	0.583115
C126	C	-0.355776	-0.381656	0.916449
C127	C	-0.985771	-1.003002	0.295027
C128	C	-0.652437	-0.669669	0.628360
C129	C	-0.319104	-0.336336	0.961694
C130	C	-0.875948	-0.963265	0.334650
C131	C	-0.542615	-0.629932	0.667983
C132	C	-0.209281	-0.296598	1.001316
C133	C	-0.910794	-1.006322	0.291676
C134	C	-0.577461	-0.672988	0.625009
C135	C	-0.244127	-0.339655	0.958342
C136	C	-0.210536	-0.992994	0.305038
C137	C	0.122797	-0.659661	0.638371
C138	C	0.456130	-0.326327	0.971705
C139	C	-0.132473	-0.996516	0.301580
C140	C	0.200860	-0.663182	0.634913
C141	C	0.534193	-0.329849	0.968247
C142	C	-0.401165	-0.976596	0.497005
C143	C	-0.067832	-0.643263	0.830339
C144	C	0.265502	-0.309929	1.163672
C145	C	-0.404337	-0.973130	0.575353
C146	C	-0.071003	-0.639796	0.908686
C147	C	0.262330	-0.306463	1.242019
C148	C	-0.401227	-0.167915	0.305669
C149	C	-0.067894	0.165418	0.639002
C150	C	0.265440	0.498751	0.972336
C151	C	-0.404400	-0.245980	0.302454
C152	C	-0.071067	0.087353	0.635788
C153	C	0.262267	0.420687	0.969121
C154	C	-0.386261	-0.992876	0.130011
C155	C	-0.052927	-0.659543	0.463344
C156	C	0.280406	-0.326209	0.796678
C157	C	-0.382897	-0.996487	0.051650
C158	C	-0.049564	-0.663154	0.384983
C159	C	0.283770	-0.329820	0.718316
C160	C	-0.424473	-0.951175	1.018662
C161	C	-0.091140	-0.617841	1.351995
C162	C	0.242193	-0.284508	1.685328
C163	C	-0.421483	-0.954430	0.945046
C164	C	-0.088150	-0.621096	1.278379
C165	C	0.245184	-0.287763	1.611712
C166	C	-0.376919	-1.003001	0.904419
C167	C	-0.043586	-0.669667	1.237753
C168	C	0.289747	-0.336334	1.571086
C169	C	-0.335338	-1.048315	0.937413
C170	C	-0.002005	-0.714982	1.270746
C171	C	0.331328	-0.381649	1.604079
C172	C	-0.338325	-1.045056	1.011027
C173	C	-0.004992	-0.711723	1.344360
C174	C	0.328341	-0.378390	1.677694
C175	C	-0.365742	-1.015185	0.681960
C176	C	-0.032409	-0.681852	1.015293
C177	C	0.300924	-0.348519	1.348627
C178	C	-0.362760	-1.018442	0.608341
C179	C	-0.029427	-0.685109	0.941674
C180	C	0.303907	-0.351775	1.275007
C181	C	-0.448904	-0.924555	0.615979
C182	C	-0.115571	-0.591222	0.949312
C183	C	0.217762	-0.257888	1.282646
C184	C	-0.451891	-0.921304	0.689595
C185	C	-0.118557	-0.587970	1.022928
C186	C	0.214776	-0.254637	1.356261
C187	C	-0.410307	-0.966615	0.722581
C188	C	-0.076973	-0.633282	1.055915
C189	C	0.256360	-0.299949	1.389248
C190	C	-0.373863	-1.006330	0.829172
C191	C	-0.040530	-0.672997	1.162505
C192	C	0.292803	-0.339664	1.495839
C193	C	-0.413359	-0.963282	0.797827
C194	C	-0.080026	-0.629949	1.131161
C195	C	0.253307	-0.296615	1.464494
H196	H	-0.455391	-0.584263	0.251243
H197	H	-0.122057	-0.250929	0.584577
H198	H	0.211276	0.082404	0.917910
N199	N	-0.461428	-0.910902	0.841644
N200	N	-0.128095	-0.577568	1.174977
N201	N	0.205239	-0.244235	1.508310
H202	H	-0.487319	-0.882689	0.809578
H203	H	-0.153985	-0.549356	1.142912
H204	H	0.179348	-0.216023	1.476245
H205	H	-0.432745	-0.878339	0.872249
H206	H	-0.099412	-0.545005	1.205582
H207	H	0.233921	-0.211672	1.538916
N208	N	-1.135360	-0.898813	0.399153
N209	N	-0.802027	-0.565479	0.732486
N210	N	-0.468693	-0.232146	1.065819
H211	H	-1.187392	-0.903633	0.394359
H212	H	-0.854058	-0.570300	0.727692
H213	H	-0.520725	-0.236966	1.061026
H214	H	-1.120084	-0.849715	0.389618
H215	H	-0.786750	-0.516382	0.722952
H216	H	-0.453417	-0.183048	1.056285
H217	H	-0.460819	-0.717324	0.245767
H218	H	-0.127485	-0.383990	0.579100
H219	H	0.205848	-0.050657	0.912434
N220	N	-0.293769	-0.727145	0.413409
N221	N	0.039565	-0.393811	0.746742
N222	N	0.372898	-0.060478	1.080075
H223	H	-0.242607	-0.717121	0.400846
H224	H	0.090726	-0.383787	0.734180
H225	H	0.424060	-0.050454	1.067513
H226	H	-0.302485	-0.779155	0.404702
H227	H	0.030848	-0.445821	0.738035
H228	H	0.364181	-0.112488	1.071368
N229	N	-0.287535	-0.574689	0.419674
N230	N	0.045798	-0.241356	0.753008
N231	N	0.379132	0.091978	1.086341
H232	H	-0.316204	-0.541536	0.454811
H233	H	0.017129	-0.208203	0.788144
H234	H	0.350463	0.125130	1.121478
H235	H	-0.252550	-0.547023	0.390836
H236	H	0.080784	-0.213690	0.724169
H237	H	0.414117	0.119644	1.057503
N238	N	-0.314717	-1.070847	0.564510
N239	N	0.018616	-0.737514	0.897843
N240	N	0.351950	-0.404180	1.231176
H241	H	-0.279763	-1.045142	0.533674
H242	H	0.053570	-0.711809	0.867007
H243	H	0.386903	-0.378476	1.200341
H244	H	-0.343439	-1.103427	0.533962
H245	H	-0.010106	-0.770094	0.867295
H246	H	0.323227	-0.436760	1.200629
H247	H	-0.455347	-0.917538	0.918190
H248	H	-0.122014	-0.584205	1.251524
H249	H	0.211319	-0.250872	1.584857
N250	N	-0.499956	-0.868917	0.733412
N251	N	-0.166623	-0.535584	1.066745
N252	N	0.166710	-0.202250	1.400079
H253	H	-0.525842	-0.840704	0.701343
H254	H	-0.192508	-0.507371	1.034676
H255	H	0.140825	-0.174037	1.368010
H256	H	-0.471272	-0.836355	0.764017
H257	H	-0.137939	-0.503022	1.097351
H258	H	0.195395	-0.169689	1.430684
H259	H	-0.304466	-1.081952	1.037885
H260	H	0.028867	-0.748619	1.371218
H261	H	0.362200	-0.415286	1.704551
H262	H	-0.337581	-1.045879	0.796086
H263	H	-0.004248	-0.712546	1.129419
H264	H	0.329085	-0.379212	1.462753
N265	N	-0.651383	-0.875613	0.422044
N266	N	-0.318050	-0.542280	0.755378
N267	N	0.015283	-0.208946	1.088711
H268	H	-0.599351	-0.885038	0.412607
H269	H	-0.266017	-0.551705	0.745940
H270	H	0.067316	-0.218371	1.079273
H271	H	-0.666658	-0.883708	0.472523
H272	H	-0.333324	-0.550375	0.805856
H273	H	0.000009	-0.217041	1.139190
N274	N	-1.135347	-1.093961	0.204259
N275	N	-0.802014	-0.760628	0.537593
N276	N	-0.468681	-0.427294	0.870926
H277	H	-1.187380	-1.084537	0.213695
H278	H	-0.854047	-0.751204	0.547028
H279	H	-0.520714	-0.417871	0.880362
H280	H	-1.124980	-1.144194	0.212647
H281	H	-0.791647	-0.810860	0.545980
H282	H	-0.458313	-0.477527	0.879314
H283	H	-0.449699	-0.497488	0.256981
H284	H	-0.116365	-0.164155	0.590314
H285	H	0.216968	0.169178	0.923648
N286	N	-0.321074	-0.395603	0.386020
N287	N	0.012259	-0.062269	0.719354
N288	N	0.345592	0.271064	1.052687
H289	H	-0.288568	-0.428751	0.354726
H290	H	0.044765	-0.095418	0.688059
H291	H	0.378099	0.237916	1.021393
H292	H	-0.352261	-0.423278	0.418662
H293	H	-0.018927	-0.089945	0.751995
H294	H	0.314406	0.243389	1.085329
N295	N	-0.314870	-0.243156	0.392293
N296	N	0.018463	0.090178	0.725626
N297	N	0.351796	0.423511	1.058959
H298	H	-0.289025	-0.277535	0.418230
H299	H	0.044308	0.055799	0.751564
H300	H	0.377641	0.389132	1.084897
H301	H	-0.343591	-0.210003	0.427381
H302	H	-0.010258	0.123330	0.760714
H303	H	0.323075	0.456663	1.094048
N304	N	-0.493752	-0.875684	0.580401
N305	N	-0.160419	-0.542351	0.913735
N306	N	0.172914	-0.209018	1.247068
H307	H	-0.485100	-0.885116	0.527602
H308	H	-0.151766	-0.551783	0.860936
H309	H	0.181567	-0.218450	1.194269
H310	H	-0.481282	-0.825451	0.594832
H311	H	-0.147948	-0.492118	0.928165
H312	H	0.185385	-0.158784	1.261499
N313	N	-0.287283	-1.100709	0.893591
N314	N	0.046050	-0.767375	1.226924
N315	N	0.379383	-0.434042	1.560257
H316	H	-0.237170	-1.091508	0.904617
H317	H	0.096163	-0.758175	1.237951
H318	H	0.429496	-0.424841	1.571284
H319	H	-0.291769	-1.095870	0.841969
H320	H	0.041564	-0.762536	1.175302
H321	H	0.374898	-0.429203	1.508636
H322	H	-0.488152	-0.385806	0.218391
H323	H	-0.154819	-0.052473	0.551724
H324	H	0.178514	0.280861	0.885058
H325	H	-0.460765	-0.911625	1.051735
H326	H	-0.127432	-0.578292	1.385068
H327	H	0.205902	-0.244959	1.718401
N328	N	-0.915505	-0.910878	0.386973
N329	N	-0.582172	-0.577544	0.720306
N330	N	-0.248839	-0.244211	1.053640
H331	H	-0.948393	-0.936601	0.419856
H332	H	-0.615059	-0.603268	0.753189
H333	H	-0.281726	-0.269935	1.086523
H334	H	-0.943444	-0.878294	0.360932
H335	H	-0.610110	-0.544960	0.694265
H336	H	-0.276777	-0.211627	1.027598
H337	H	-0.482719	-0.252735	0.223863
H338	H	-0.149386	0.080598	0.557196
H339	H	0.183947	0.413932	0.890530
N340	N	-0.651381	-1.070768	0.227167
N341	N	-0.318048	-0.737435	0.560500
N342	N	0.015285	-0.404101	0.893833
H343	H	-0.685748	-1.098988	0.199009
H344	H	-0.352414	-0.765655	0.532342
H345	H	-0.019081	-0.432321	0.865676
H346	H	-0.623401	-1.103323	0.253199
H347	H	-0.290068	-0.769990	0.586533
H348	H	0.043266	-0.436657	0.919866
N349	N	-0.325994	-0.462993	0.381089
N350	N	0.007340	-0.129660	0.714422
N351	N	0.340673	0.203673	1.047756
H352	H	-0.275876	-0.478488	0.367470
H353	H	0.057457	-0.145155	0.700804
H354	H	0.390790	0.188179	1.034137
H355	H	-0.339595	-0.473063	0.431381
H356	H	-0.006261	-0.139730	0.764714
H357	H	0.327072	0.193604	1.098047
N358	N	-0.803848	-1.064028	0.233988
N359	N	-0.470514	-0.730695	0.567321
N360	N	-0.137181	-0.397362	0.900654
H361	H	-0.769482	-1.095283	0.202752
H362	H	-0.436148	-0.761950	0.536086
H363	H	-0.102815	-0.428617	0.869419
H364	H	-0.831830	-1.035561	0.203875
H365	H	-0.498496	-0.702227	0.537208
H366	H	-0.165163	-0.368894	0.870541
N367	N	-0.982885	-1.100714	0.197464
N368	N	-0.649551	-0.767381	0.530797
N369	N	-0.316218	-0.434048	0.864131
H370	H	-1.017249	-1.128938	0.169307
H371	H	-0.683915	-0.795605	0.502641
H372	H	-0.350582	-0.462272	0.835974
H373	H	-0.954910	-1.133265	0.223508
H374	H	-0.621577	-0.799931	0.556841
H375	H	-0.288243	-0.466598	0.890175
H376	H	-0.880929	-1.045867	0.252176
H377	H	-0.547596	-0.712534	0.585510
H378	H	-0.214262	-0.379200	0.918843
H379	H	-0.331886	-1.052085	0.708809
H380	H	0.001448	-0.718752	1.042142
H381	H	0.334781	-0.385418	1.375475
N382	N	-0.803844	-0.868873	0.428868
N383	N	-0.470511	-0.535540	0.762201
N384	N	-0.137177	-0.202207	1.095535
H385	H	-0.836733	-0.894595	0.461751
H386	H	-0.503400	-0.561262	0.795084
H387	H	-0.170066	-0.227928	1.128418
H388	H	-0.831779	-0.836282	0.402832
H389	H	-0.498446	-0.502949	0.736165
H390	H	-0.165113	-0.169616	1.069498
N391	N	-0.982894	-0.905552	0.392333
N392	N	-0.649561	-0.572218	0.725667
N393	N	-0.316228	-0.238885	1.059000
H394	H	-0.998116	-0.913622	0.442832
H395	H	-0.664783	-0.580288	0.776165
H396	H	-0.331449	-0.246955	1.109498
H397	H	-0.993223	-0.855323	0.383898
H398	H	-0.659890	-0.521990	0.717231
H399	H	-0.326557	-0.188657	1.050565
