data_functionalizedCrystal
_audit_creation_method	'MofGen! by Chris Wilmer'
_symmetry_space_group_name_H-M	'P1'
_symmetry_Int_Tables_number	1
_symmetry_cell_setting	triclinic
loop_
_symmetry_equiv_pos_as_xyz
  x,y,z
_cell_length_a	16.109301
_cell_length_b	19.188930
_cell_length_c	14.586319
_cell_angle_alpha	89.991095
_cell_angle_beta	89.999213
_cell_angle_gamma	83.303131
loop_
_atom_site_label
_atom_site_type_symbol
_atom_site_fract_x
_atom_site_fract_y
_atom_site_fract_z
O1	O	1.102833	0.089744	-0.076193
O2	O	1.602833	0.589744	0.423807
O3	O	0.860734	0.100912	-0.076209
O4	O	1.360734	0.600912	0.423791
O5	O	0.988770	-0.006311	-0.076182
O6	O	1.488770	0.493689	0.423818
O7	O	0.974797	0.196968	-0.076219
O8	O	1.474797	0.696968	0.423781
O9	O	0.988762	-0.006313	0.076298
O10	O	1.488762	0.493687	0.576298
O11	O	0.860726	0.100911	0.076272
O12	O	1.360726	0.600911	0.576272
O13	O	1.102825	0.089742	0.076288
O14	O	1.602825	0.589742	0.576288
Cu15	Cu	0.981774	0.095326	0.090203
Cu16	Cu	1.481774	0.595326	0.590203
Cu17	Cu	0.981785	0.095328	-0.090124
Cu18	Cu	1.481785	0.595328	0.409876
O19	O	0.974789	0.196966	0.076262
O20	O	1.474789	0.696966	0.576262
C21	C	0.829757	0.100459	0.000030
C22	C	1.329757	0.600459	0.500030
C23	C	0.737466	0.099103	0.000025
C24	C	1.237466	0.599103	0.500025
C25	C	0.514993	0.159573	0.000024
C26	C	1.014993	0.659573	0.500024
C27	C	0.428277	0.158294	0.000030
C28	C	0.928277	0.658294	0.500030
C29	C	0.448573	0.031076	0.000050
C30	C	0.948573	0.531076	0.500050
C31	C	0.535287	0.032357	0.000050
C32	C	1.035287	0.532357	0.500050
C33	C	0.568495	0.096608	0.000033
C34	C	1.068495	0.596608	0.500033
C35	C	0.395064	0.094047	0.000038
C36	C	0.895064	0.594047	0.500038
C37	C	0.301043	0.092659	0.000045
C38	C	0.801043	0.592659	0.500045
C39	C	0.662522	0.097996	0.000028
C40	C	1.162522	0.597996	0.500028
C41	C	0.988313	-0.032324	0.000061
C42	C	1.488313	0.467676	0.500061
C43	C	0.986955	-0.109832	0.000068
C44	C	1.486955	0.390168	0.500068
C45	C	1.062082	-0.154580	0.000078
C46	C	1.562082	0.345420	0.500078
C47	C	1.060806	-0.227407	0.000063
C48	C	1.560806	0.272593	0.500063
C49	C	0.984399	-0.255482	0.000057
C50	C	1.484399	0.244518	0.500057
C51	C	0.909261	-0.210724	0.000043
C52	C	1.409261	0.289276	0.500043
C53	C	0.910540	-0.137899	0.000048
C54	C	1.410540	0.362101	0.500048
N55	N	0.925991	-0.363624	0.051945
N56	N	1.425991	0.136376	0.551945
N57	N	0.924782	-0.432805	0.051942
N58	N	1.424782	0.067195	0.551942
C59	C	0.980543	-0.474900	0.000038
C60	C	1.480543	0.025100	0.500038
N61	N	1.037571	-0.445200	-0.051850
N62	N	1.537571	0.054800	0.448150
N63	N	1.038783	-0.376013	-0.051843
N64	N	1.538783	0.123987	0.448157
C65	C	0.983004	-0.334448	0.000051
C66	C	1.483004	0.165552	0.500051
C67	C	1.054292	-0.598616	0.000030
C68	C	1.554292	-0.098616	0.500030
C69	C	1.053012	-0.671443	0.000010
C70	C	1.553012	-0.171443	0.500010
C71	C	0.901465	-0.654759	-0.000001
C72	C	1.401465	-0.154759	0.499999
C73	C	0.902747	-0.581933	0.000010
C74	C	1.402747	-0.081933	0.500010
C75	C	0.979162	-0.553866	0.000030
C76	C	1.479162	-0.053866	0.500030
C77	C	1.133802	0.090196	0.000047
C78	C	1.633802	0.590196	0.500047
C79	C	1.226093	0.091552	0.000046
C80	C	1.726093	0.591552	0.500046
C81	C	0.975246	0.222979	0.000017
C82	C	1.475246	0.722979	0.500017
C83	C	0.976604	0.300486	0.000003
C84	C	1.476604	0.800486	0.500003
N85	N	0.981773	0.095325	0.217034
N86	N	1.481773	0.595325	0.717034
N87	N	0.981793	0.095325	-0.216955
N88	N	1.481793	0.595325	0.283045
C89	C	1.038486	0.047862	0.452052
C90	C	1.538486	0.547862	0.952052
C91	C	1.038488	0.047860	0.548034
C92	C	1.538488	0.547860	1.048034
C93	C	0.925074	0.142790	0.548020
C94	C	1.425074	0.642790	1.048020
C95	C	0.925068	0.142787	0.452040
C96	C	1.425068	0.642787	0.952040
C97	C	0.981779	0.095324	0.404059
C98	C	1.481779	0.595324	0.904059
C99	C	0.981787	0.095325	0.596020
C100	C	1.481787	0.595325	1.096020
C101	C	0.981789	0.095323	0.700087
C102	C	1.481789	0.595323	1.200087
C103	C	0.981776	0.095325	0.299985
C104	C	1.481776	0.595325	0.799985
H105	H	0.384719	0.209567	0.000025
H106	H	0.884719	0.709567	0.500025
C107	C	0.862720	0.195034	0.399245
C108	C	1.362720	0.695034	0.899245
N109	N	0.815774	0.234395	0.359479
N110	N	1.315774	0.734395	0.859479
C111	C	0.412036	-0.039595	0.000060
C112	C	0.912036	0.460405	0.500060
N113	N	0.384517	-0.092827	0.000064
N114	N	0.884517	0.407173	0.500064
C115	C	0.820099	-0.532707	0.000005
C116	C	1.320099	-0.032707	0.500005
N117	N	0.757846	-0.495630	-0.000002
N118	N	1.257846	0.004370	0.499998
H119	H	0.578851	-0.018920	0.000059
H120	H	1.078851	0.481080	0.500059
H121	H	1.084662	0.009214	0.412988
H122	H	1.584662	0.509214	0.912988
H123	H	0.878902	0.181434	0.587096
H124	H	1.378902	0.681434	1.087096
H125	H	1.121986	-0.263848	0.000067
H126	H	1.621986	0.236152	0.500067
C127	C	0.551518	0.230251	0.000017
C128	C	1.051518	0.730251	0.500017
N129	N	0.579026	0.283487	0.000016
N130	N	1.079026	0.783487	0.500016
H131	H	1.124306	-0.131733	0.000091
H132	H	1.624306	0.368267	0.500091
C133	C	0.827890	-0.088673	0.000041
C134	C	1.327890	0.411327	0.500041
N135	N	0.765637	-0.051595	0.000037
N136	N	1.265637	0.448405	0.500037
C137	C	0.817415	-0.685637	-0.000010
C138	C	1.317415	-0.185637	0.499990
N139	N	0.754107	-0.708898	-0.000020
N140	N	1.254107	-0.208898	0.499980
C141	C	1.138349	-0.567740	0.000038
C142	C	1.638349	-0.067740	0.500038
N143	N	1.201662	-0.544486	0.000042
N144	N	1.701662	-0.044486	0.500042
C145	C	1.100864	-0.004358	0.600822
C146	C	1.600864	0.495642	1.100822
N147	N	1.147845	-0.043693	0.640582
N148	N	1.647845	0.456307	1.140582
C149	C	0.825213	-0.241608	0.000043
C150	C	1.325213	0.258392	0.500043
N151	N	0.761905	-0.264869	0.000043
N152	N	1.261905	0.235131	0.500043
H153	H	1.114193	-0.707878	0.000012
H154	H	1.614193	-0.207878	0.500012
