data_functionalizedCrystal
_audit_creation_method	'MofGen! by Chris Wilmer'
_symmetry_space_group_name_H-M	'P1'
_symmetry_Int_Tables_number	1
_symmetry_cell_setting	triclinic
loop_
_symmetry_equiv_pos_as_xyz
  x,y,z
_cell_length_a	6.817900
_cell_length_b	17.982959
_cell_length_c	10.992410
_cell_angle_alpha	94.193478
_cell_angle_beta	108.764651
_cell_angle_gamma	102.451857
loop_
_atom_site_label
_atom_site_type_symbol
_atom_site_fract_x
_atom_site_fract_y
_atom_site_fract_z
V1	V	-4.082291	-0.105413	-0.401130
O2	O	-4.073912	0.005065	-0.392942
O3	O	-4.028461	-0.209015	-0.398917
O4	O	-4.060375	-0.103791	-0.575834
O5	O	-4.041777	-0.100887	-0.214800
V6	V	-4.563191	-0.092198	-0.378779
O7	O	-4.349303	-0.134400	-0.450158
O8	O	-4.746375	-0.063211	-0.329750
O9	O	-4.393814	0.011405	-0.380991
O10	O	-4.688967	-0.202676	-0.386967
O11	O	-4.721101	-0.096723	-0.565108
O12	O	-4.361900	-0.093820	-0.204074
C13	C	-3.871284	-0.234271	-0.392726
C14	C	-3.908735	-0.318968	-0.392082
C15	C	-3.911992	-0.100046	-0.618399
C16	C	-3.975320	-0.099406	-0.761224
C17	C	-4.109221	-0.362639	-0.398207
C18	C	-4.144402	-0.442221	-0.397609
C19	C	-3.979090	-0.478130	-0.390877
C20	C	-3.778590	-0.434453	-0.384754
C21	C	-3.743416	-0.354873	-0.385362
C22	C	-3.920439	-0.755389	-0.382307
C23	C	-3.955627	-0.834974	-0.381696
C24	C	-4.321425	-0.842736	-0.394555
C25	C	-4.286251	-0.763157	-0.395162
C26	C	-4.085759	-0.719488	-0.389047
C27	C	-4.047615	-0.633196	-0.389698
C28	C	-4.017227	-0.564419	-0.390216
C29	C	-3.844212	-0.093573	-0.956318
C30	C	-3.778364	-0.094555	-0.807840
C31	C	-4.150562	-0.174528	-0.838711
C32	C	-4.215077	-0.173864	-0.987274
C33	C	-4.136942	-0.028401	-0.948502
C34	C	-4.066341	-0.028045	-0.799487
C35	C	-4.214332	0.036657	-0.387179
C36	C	-4.156121	0.121353	-0.387831
C37	C	-4.173624	-0.097567	-0.161502
C38	C	-4.089534	-0.098203	-0.018676
H39	H	-4.243836	-0.333408	-0.403678
H40	H	-4.183492	-0.226716	-1.033813
C41	C	-3.895584	0.047030	-0.728385
H42	H	-3.769346	0.034943	-0.675591
H43	H	-3.863592	0.077047	-0.790400
H44	H	-3.948460	0.075409	-0.675269
C45	C	-3.596743	-0.473947	-0.377349
H46	H	-3.472307	-0.436539	-0.373799
H47	H	-3.566064	-0.497868	-0.301537
H48	H	-3.639660	-0.511790	-0.452160
H49	H	-4.208721	-0.027163	-0.766971
H50	H	-4.051322	0.028645	-0.968570
C51	C	-3.773781	-0.874473	-0.374303
H52	H	-3.649343	-0.837070	-0.370762
H53	H	-3.743096	-0.898395	-0.298492
H54	H	-3.816722	-0.912317	-0.449117
C55	C	-4.377605	-0.032082	-1.003695
H56	H	-4.448912	-0.075918	-1.069183
H57	H	-4.435564	-0.035866	-0.935851
H58	H	-4.396809	0.013261	-1.040131
H59	H	-3.804069	-0.143726	-1.004566
C60	C	-4.468098	-0.723662	-0.402573
H61	H	-4.592548	-0.761071	-0.406149
H62	H	-4.425194	-0.685817	-0.327774
H63	H	-4.498769	-0.699744	-0.478397
C64	C	-3.522876	-0.306834	-0.378612
H65	H	-3.429451	-0.339615	-0.374501
H66	H	-3.538336	-0.282587	-0.453886
H67	H	-3.464761	-0.268669	-0.303263
H68	H	-4.395098	-0.180396	-1.029939
H69	H	-3.646284	-0.040539	-0.754224
H70	H	-4.299039	-0.180791	-0.809939
H71	H	-3.705768	-0.145404	-0.783284
C72	C	-3.708141	-0.020108	-0.981392
H73	H	-3.799717	0.008399	-1.030122
H74	H	-3.617165	0.010539	-0.900700
H75	H	-3.623618	-0.033942	-1.028858
C76	C	-4.067052	-0.246105	-0.804499
H77	H	-3.925503	-0.230365	-0.743052
H78	H	-4.157403	-0.277865	-0.768361
H79	H	-4.066685	-0.274235	-0.880986
H80	H	-4.307656	-0.477775	-0.402600
H81	H	-4.484681	-0.878302	-0.399536
H82	H	-3.757187	-0.719842	-0.377320
