data_functionalizedCrystal
_audit_creation_method	'MofGen! by Chris Wilmer'
_symmetry_space_group_name_H-M	'P1'
_symmetry_Int_Tables_number	1
_symmetry_cell_setting	triclinic
loop_
_symmetry_equiv_pos_as_xyz
  x,y,z
_cell_length_a	10.654550
_cell_length_b	11.804402
_cell_length_c	10.654550
_cell_angle_alpha	101.947503
_cell_angle_beta	84.484931
_cell_angle_gamma	78.038346
loop_
_atom_site_label
_atom_site_type_symbol
_atom_site_fract_x
_atom_site_fract_y
_atom_site_fract_z
O1	O	1.692971	-0.098936	0.151284
O2	O	1.327498	-0.098958	0.168084
O3	O	1.518635	-0.098939	-0.023053
O4	O	1.501833	-0.098955	0.342421
O5	O	1.468314	0.099112	0.027217
O6	O	1.277177	0.099093	0.218354
O7	O	1.642649	0.099115	0.201553
Cu8	Cu	1.455318	0.117187	0.214544
Cu9	Cu	1.514829	-0.117031	0.155094
O10	O	1.451512	0.099096	0.392691
C11	C	1.255540	0.000065	0.191984
C12	C	1.116099	0.000057	0.188290
N13	N	1.413471	0.281924	0.256357
C14	C	1.036614	0.000055	0.300832
C15	C	0.905587	0.000076	0.297360
C16	C	0.933546	0.000095	0.068796
C17	C	1.064567	0.000082	0.072270
C18	C	1.657166	0.655897	0.012849
C19	C	1.688822	0.531238	-0.018787
C20	C	1.619987	0.468903	0.049996
C21	C	1.519490	0.531240	0.150421
C22	C	1.487838	0.655910	0.182068
C23	C	1.450658	0.468917	0.219214
C24	C	1.350162	0.531253	0.319640
C25	C	1.318514	0.655912	0.351281
C26	C	1.387349	0.718246	0.282498
C27	C	1.482311	0.344246	0.187568
C28	C	1.312983	0.344260	0.356786
C29	C	1.281326	0.468919	0.388423
C30	C	1.714608	0.000089	0.177653
C31	C	1.854051	0.000090	0.181345
C32	C	1.492241	0.000086	-0.044716
C33	C	1.488549	0.000084	-0.184160
N34	N	1.556678	0.718233	0.113279
C35	C	1.601089	0.000090	-0.263644
C36	C	1.597617	0.000075	-0.394669
C37	C	1.369053	0.000053	-0.366711
C38	C	1.372529	0.000059	-0.235691
C39	C	1.477907	0.000068	0.414354
C40	C	1.481601	0.000063	0.553795
H41	H	1.078564	0.000043	0.395305
H42	H	0.840874	0.000077	0.389004
H43	H	0.891571	0.000123	-0.025662
H44	H	1.280881	0.000050	-0.170973
H45	H	1.129287	0.000087	-0.019379
H46	H	1.361572	0.819754	0.308252
H47	H	1.564135	0.293503	0.105801
H48	H	1.695561	0.000107	-0.221693
H49	H	1.645766	0.367401	0.024232
H50	H	1.274592	0.000035	-0.408684
H51	H	1.770646	0.480489	-0.100552
H52	H	1.713209	0.706658	-0.043138
H53	H	1.236694	0.706666	0.433063
H54	H	1.256933	0.293508	0.412799
H55	H	1.199500	0.519688	0.470193
H56	H	1.689259	0.000078	-0.459381
