data_functionalizedCrystal
_audit_creation_method	'MofGen! by Chris Wilmer'
_symmetry_space_group_name_H-M	'P1'
_symmetry_Int_Tables_number	1
_symmetry_cell_setting	triclinic
loop_
_symmetry_equiv_pos_as_xyz
  x,y,z
_cell_length_a	10.723024
_cell_length_b	10.654550
_cell_length_c	9.798715
_cell_angle_alpha	89.998020
_cell_angle_beta	89.996609
_cell_angle_gamma	84.476386
loop_
_atom_site_label
_atom_site_type_symbol
_atom_site_fract_x
_atom_site_fract_y
_atom_site_fract_z
O1	O	1.657213	0.176147	-0.113478
O2	O	1.294064	0.193008	-0.113483
O3	O	1.483988	0.001837	-0.113475
O4	O	1.467289	0.367318	-0.113486
O5	O	1.483974	0.001836	0.113507
O6	O	1.294049	0.193007	0.113499
O7	O	1.657199	0.176146	0.113504
Zn8	Zn	1.475622	0.184577	0.149540
Zn9	Zn	1.475641	0.184577	-0.149519
O10	O	1.467275	0.367317	0.113496
C11	C	1.247557	0.191780	0.000008
C12	C	1.109002	0.188109	0.000006
C13	C	1.034035	0.295078	0.000002
C14	C	0.890831	0.291287	0.000001
C15	C	1.482755	-0.044961	0.000014
C16	C	1.479086	-0.184404	0.000009
C17	C	1.590911	-0.263907	0.000015
C18	C	1.587456	-0.394927	0.000005
C19	C	1.360343	-0.366929	-0.000010
C20	C	1.363799	-0.235912	-0.000010
C21	C	1.706198	-0.212399	0.000034
C22	C	1.818032	-0.291903	0.000041
C23	C	1.814578	-0.422923	0.000031
C24	C	1.699289	-0.474440	0.000015
C25	C	1.703706	0.177373	0.000010
C26	C	1.842261	0.181045	0.000003
C27	C	1.468508	0.414115	0.000004
C28	C	1.472176	0.553558	-0.000000
N29	N	1.475618	0.184575	0.353640
N30	N	1.475654	0.184569	-0.353619
C31	C	1.555362	0.103954	0.421420
C32	C	1.555382	0.103950	0.578582
H33	H	1.067166	0.093722	-0.000026
H34	H	1.905638	-0.487652	0.000023
H35	H	1.272742	-0.171178	-0.000012
O36	O	1.696090	-0.601733	-0.000185
C37	C	1.757202	-0.653169	-0.117762
H38	H	1.825503	-0.585837	-0.156947
H39	H	1.810711	-0.747707	-0.091331
H40	H	1.684811	-0.667555	-0.200082
O41	O	1.083871	0.407720	0.000242
C42	C	1.043659	0.476461	0.117776
H43	H	1.015899	0.408688	0.199943
H44	H	1.123051	0.530461	0.157236
H45	H	0.959515	0.545818	0.091193
O46	O	1.394235	0.267091	0.423054
C47	C	1.415925	0.391544	0.388261
H48	H	1.463938	0.391793	0.284471
H49	H	1.322799	0.452781	0.383534
H50	H	1.478577	0.430695	0.468640
O51	O	1.637006	0.021723	0.648046
C52	C	1.760828	0.042864	0.613176
H53	H	1.762619	0.143359	0.573808
H54	H	1.823239	0.028895	0.707193
H55	H	1.796754	-0.026565	0.530333
H56	H	1.266481	-0.408885	-0.000021
H57	H	1.623616	0.034929	0.363100
H58	H	0.906672	0.089466	-0.000002
O59	O	1.709780	-0.085156	-0.000020
C60	C	1.835510	-0.056737	0.000035
H61	H	1.897830	-0.140162	-0.042935
H62	H	1.844729	0.030070	-0.065855
H63	H	1.865638	-0.037139	0.108936
H64	H	0.826412	0.382860	-0.000008
O65	O	1.394028	0.266868	0.577013
C66	C	1.270205	0.245679	0.611825
H67	H	1.269728	0.197369	0.715607
H68	H	1.209805	0.339668	0.616579
H69	H	1.230955	0.182867	0.531443
O70	O	1.930046	-0.241924	-0.000193
C71	C	1.998304	-0.282471	-0.117733
H72	H	1.930918	-0.310293	-0.199901
H73	H	2.052086	-0.202655	-0.157187
H74	H	2.067103	-0.367251	-0.091158
