data_functionalizedCrystal
_audit_creation_method	'MofGen! by Chris Wilmer'
_symmetry_space_group_name_H-M	'P1'
_symmetry_Int_Tables_number	1
_symmetry_cell_setting	triclinic
loop_
_symmetry_equiv_pos_as_xyz
  x,y,z
_cell_length_a	16.120530
_cell_length_b	21.395343
_cell_length_c	21.395362
_cell_angle_alpha	89.884484
_cell_angle_beta	87.123863
_cell_angle_gamma	87.018714
loop_
_atom_site_label
_atom_site_type_symbol
_atom_site_fract_x
_atom_site_fract_y
_atom_site_fract_z
Zn1	Zn	1.275077	-0.402799	-0.297487
Zn2	Zn	1.775077	0.097201	0.202513
Zn3	Zn	1.274818	-0.298014	-0.402416
Zn4	Zn	1.774818	0.201986	0.097584
Zn5	Zn	1.135506	-0.292723	-0.292348
Zn6	Zn	1.635506	0.207277	0.207652
Zn7	Zn	1.135606	-0.397455	-0.396916
Zn8	Zn	1.635606	0.102545	0.103084
O9	O	1.205252	-0.347748	-0.347292
O10	O	1.705252	0.152252	0.152708
O11	O	1.391714	-0.393349	-0.315858
O12	O	1.891714	0.106651	0.184142
O13	O	1.256188	-0.209628	-0.387967
O14	O	1.756188	0.290372	0.112033
O15	O	1.154087	-0.307347	-0.205355
O16	O	1.654087	0.192653	0.294645
O17	O	1.391524	-0.316364	-0.392949
O18	O	1.891524	0.183636	0.107051
O19	O	1.256629	-0.388220	-0.209130
O20	O	1.756629	0.111780	0.290870
O21	O	1.153836	-0.205741	-0.307100
O22	O	1.653836	0.294259	0.192900
O23	O	1.018848	-0.302166	-0.301767
O24	O	1.518848	0.197834	0.198233
O25	O	1.154257	-0.485848	-0.383575
O26	O	1.654257	0.014152	0.116425
O27	O	1.018921	-0.379112	-0.378593
O28	O	1.518921	0.120888	0.121407
O29	O	1.256726	-0.489774	-0.310525
O30	O	1.756726	0.010226	0.189475
O31	O	1.256284	-0.311182	-0.489362
O32	O	1.756284	0.188818	0.010638
O33	O	1.154006	-0.384242	-0.485321
O34	O	1.654006	0.115758	0.014679
C35	C	0.988633	-0.339485	-0.339026
C36	C	1.488633	0.160515	0.160974
C37	C	0.895962	-0.335966	-0.335505
C38	C	1.395962	0.164034	0.164495
C39	C	1.205021	-0.184951	-0.347529
C40	C	1.705021	0.315049	0.152471
C41	C	1.205063	-0.115311	-0.347479
C42	C	1.705063	0.384689	0.152521
C43	C	1.205150	-0.347721	-0.510076
C44	C	1.705150	0.152279	-0.010076
C45	C	1.205183	-0.347733	-0.579718
C46	C	1.705183	0.152267	-0.079718
C47	C	0.726293	-0.329545	-0.329062
C48	C	1.226293	0.170455	0.170938
C49	C	0.685051	-0.365997	-0.365567
C50	C	1.185051	0.134003	0.134433
C51	C	0.590641	-0.362424	-0.361983
C52	C	1.090641	0.137576	0.138017
C53	C	0.820711	-0.333116	-0.332646
C54	C	1.320711	0.166884	0.167354
C55	C	1.422716	-0.356043	-0.355590
C56	C	1.922716	0.143957	0.144410
C57	C	1.515387	-0.359578	-0.359126
C58	C	2.015387	0.140422	0.140874
C59	C	1.151739	0.388480	-0.305306
C60	C	1.651739	0.888480	0.194694
C61	C	1.151689	0.323046	-0.305353
C62	C	1.651689	0.823046	0.194647
C63	C	1.205341	0.288316	-0.347200
C64	C	1.705341	0.788316	0.152800
C65	C	1.259033	0.319025	-0.389014
C66	C	1.759033	0.819025	0.110986
C67	C	1.259075	0.384457	-0.388970
C68	C	1.759075	0.884457	0.111030
C69	C	1.280432	0.181696	-0.354674
C70	C	1.780432	0.681696	0.145326
C71	C	1.280391	0.116265	-0.354714
C72	C	1.780391	0.616265	0.145286
C73	C	1.205209	0.086500	-0.347338
C74	C	1.705209	0.586500	0.152662
C75	C	1.130066	0.122175	-0.339910
C76	C	1.630066	0.622175	0.160090
C77	C	1.130109	0.187607	-0.339866
C78	C	1.630109	0.687607	0.160134
C79	C	1.205301	0.217365	-0.347252
C80	C	1.705301	0.717365	0.152748
C81	C	1.151463	-0.015151	-0.305580
C82	C	1.651463	0.484849	0.194420
C83	C	1.151411	-0.080585	-0.305631
C84	C	1.651411	0.419415	0.194369
C85	C	1.258763	-0.084606	-0.389289
C86	C	1.758763	0.415394	0.110711
C87	C	1.258807	-0.019173	-0.389241
C88	C	1.758807	0.480827	0.110759
C89	C	1.205158	0.015551	-0.347383
C90	C	1.705158	0.515551	0.152617
C91	C	1.205475	0.488820	-0.347066
C92	C	1.705475	0.988820	0.152934
C93	C	1.205427	0.419181	-0.347112
C94	C	1.705427	0.919181	0.152888
C95	C	1.258749	-0.389943	-1.083433
C96	C	1.758749	0.110057	-0.583433
C97	C	1.258725	-0.389932	-1.017997
C98	C	1.758725	0.110068	-0.517997
C99	C	1.205365	-0.347791	-0.983363
C100	C	1.705365	0.152209	-0.483363
C101	C	1.152041	-0.305648	-1.014172
C102	C	1.652041	0.194352	-0.514172
C103	C	1.152073	-0.305656	-1.079607
C104	C	1.652073	0.194344	-0.579607
C105	C	1.130195	-0.339920	-0.876891
C106	C	1.630195	0.160080	-0.376891
C107	C	1.130162	-0.339917	-0.811457
C108	C	1.630162	0.160083	-0.311457
C109	C	1.205267	-0.347764	-0.781539
C110	C	1.705267	0.152236	-0.281539
C111	C	1.280408	-0.355628	-0.817063
C112	C	1.780408	0.144372	-0.317063
C113	C	1.280440	-0.355635	-0.882498
C114	C	1.780440	0.144365	-0.382498
C115	C	1.205325	-0.347778	-0.912409
C116	C	1.705325	0.152222	-0.412409
C117	C	1.258565	-0.389890	-0.679785
C118	C	1.758565	0.110110	-0.179785
C119	C	1.258542	-0.389875	-0.614347
C120	C	1.758542	0.110125	-0.114347
C121	C	1.151852	-0.305594	-0.610523
C122	C	1.651852	0.194406	-0.110523
C123	C	1.151882	-0.305606	-0.675959
C124	C	1.651882	0.194394	-0.175959
C125	C	1.205238	-0.347757	-0.710586
C126	C	1.705238	0.152243	-0.210586
C127	C	1.205376	-0.347789	-0.183873
C128	C	1.705376	0.152211	0.316127
C129	C	1.205429	-0.347807	-0.114234
C130	C	1.705429	0.152193	0.385766
H131	H	0.720648	-0.399888	-0.399512
H132	H	1.220648	0.100112	0.100488
H133	H	0.690698	-0.295656	-0.295120
H134	H	1.190698	0.204344	0.204880
H135	H	1.108051	0.416748	-0.271224
H136	H	1.608051	0.916748	0.228776
C137	C	1.093158	-0.259237	-0.572437
C138	C	1.593158	0.240763	-0.072437
H139	H	1.061409	-0.234141	-0.600156
H140	H	1.561409	0.265859	-0.100156
H141	H	1.056833	-0.281790	-0.545497
H142	H	1.556833	0.218210	-0.045497
H143	H	1.125032	-0.233168	-0.548166
H144	H	1.625032	0.266832	-0.048166
C145	C	1.092636	0.289267	-0.259360
C146	C	1.592636	0.789267	0.240640
H147	H	1.060695	0.319319	-0.234423
H148	H	1.560695	0.819319	0.265577
H149	H	1.056503	0.265230	-0.282158
H150	H	1.556503	0.765230	0.217842
H151	H	1.124285	0.262421	-0.233115
H152	H	1.624285	0.762421	0.266885
H153	H	1.107686	-0.105581	-0.271590
H154	H	1.607686	0.394419	0.228410
H155	H	1.068925	0.216651	-0.333819
H156	H	1.568925	0.716651	0.166181
C157	C	1.093220	-0.259263	-0.709842
C158	C	1.593220	0.240737	-0.209842
H159	H	1.061431	-0.234167	-0.679845
H160	H	1.561431	0.265833	-0.179845
H161	H	1.125107	-0.233203	-0.736621
H162	H	1.625107	0.266797	-0.236621
H163	H	1.056916	-0.281832	-0.733955
H164	H	1.556916	0.218168	-0.233955
H165	H	1.068847	0.097942	-0.333900
H166	H	1.568847	0.597942	0.166100
C167	C	1.092434	0.023048	-0.259554
C168	C	1.592434	0.523048	0.240446
H169	H	1.060438	-0.004610	-0.234670
H170	H	1.560438	0.495390	0.265330
H171	H	1.124089	0.047253	-0.233268
H172	H	1.624089	0.547253	0.266732
H173	H	1.056339	0.050061	-0.282335
H174	H	1.556339	0.550061	0.217665
H175	H	1.302146	-0.424245	-0.992915
H176	H	1.802146	0.075755	-0.492915
C177	C	1.047514	-0.331272	-0.772384
C178	C	1.547514	0.168728	-0.272384
H179	H	1.058249	-0.332400	-0.729128
H180	H	1.558249	0.167600	-0.229128
H181	H	1.020839	-0.292094	-0.782186
H182	H	1.520839	0.207906	-0.282186
H183	H	1.012468	-0.364000	-0.781726
H184	H	1.512468	0.136000	-0.281726
C185	C	1.047574	-0.331293	-0.909795
C186	C	1.547574	0.168707	-0.409795
H187	H	1.002819	-0.326620	-0.879268
H188	H	1.502819	0.173380	-0.379268
H189	H	1.048641	-0.295020	-0.935440
H190	H	1.548641	0.204980	-0.435440
H191	H	1.040285	-0.366928	-0.934968
H192	H	1.540285	0.133072	-0.434968
H193	H	1.302717	0.290743	-0.423086
H194	H	1.802717	0.790743	0.076914
C195	C	1.317780	-0.122802	-0.435319
C196	C	1.817780	0.377198	0.064681
H197	H	1.310070	-0.166169	-0.429356
H198	H	1.810070	0.333831	0.070644
H199	H	1.305962	-0.111497	-0.477024
H200	H	1.805962	0.388503	0.022976
H201	H	1.373726	-0.114313	-0.427967
H202	H	1.873726	0.385687	0.072033
H203	H	1.302527	0.005824	-0.423283
H204	H	1.802527	0.505824	0.076717
C205	C	1.363088	-0.364274	-0.921573
C206	C	1.863088	0.135726	-0.421573
H207	H	1.407817	-0.368942	-0.894388
H208	H	1.907817	0.131058	-0.394388
H209	H	1.362042	-0.400553	-0.946986
H210	H	1.862042	0.099447	-0.446986
H211	H	1.370400	-0.328645	-0.947445
H212	H	1.870400	0.171355	-0.447445
C213	C	1.363031	-0.364258	-0.784166
C214	C	1.863031	0.135742	-0.284166
H215	H	1.407782	-0.368945	-0.814693
H216	H	1.907782	0.131055	-0.314693
H217	H	1.370328	-0.328629	-0.758991
H218	H	1.870328	0.171371	-0.258991
H219	H	1.361957	-0.400535	-0.758521
H220	H	1.861957	0.099465	-0.258521
C221	C	1.363043	0.077029	-0.362883
C222	C	1.863043	0.577029	0.137117
H223	H	1.407823	0.104126	-0.367280
H224	H	1.907823	0.604126	0.132720
H225	H	1.370042	0.051130	-0.327221
H226	H	1.870042	0.551130	0.172779
H227	H	1.362259	0.051632	-0.399198
H228	H	1.862259	0.551632	0.100802
H229	H	1.341659	0.205925	-0.360675
H230	H	1.841659	0.705925	0.139325
H231	H	1.302798	0.409453	-0.423013
H232	H	1.802798	0.909453	0.076987
C233	C	1.317446	-0.436301	-1.121520
C234	C	1.817446	0.063699	-0.621520
H235	H	1.349203	-0.461391	-1.093800
H236	H	1.849203	0.038609	-0.593800
H237	H	1.285583	-0.462367	-1.145797
H238	H	1.785583	0.037633	-0.645797
H239	H	1.353777	-0.413741	-1.148454
H240	H	1.853777	0.086259	-0.648454
H241	H	1.302005	-0.424216	-0.707979
H242	H	1.802005	0.075784	-0.207979
C243	C	1.093345	-0.259297	-0.976077
C244	C	1.593345	0.240703	-0.476077
H245	H	1.100955	-0.265332	-0.932694
H246	H	1.600955	0.234668	-0.432694
H247	H	1.105526	-0.217673	-0.987344
H248	H	1.605526	0.282327	-0.487344
H249	H	1.037334	-0.266300	-0.984686
H250	H	1.537334	0.233700	-0.484686
H251	H	1.301967	-0.424185	-0.589269
H252	H	1.801967	0.075815	-0.089269
H253	H	1.108652	-0.271343	-1.104684
H254	H	1.608652	0.228657	-0.604684
