data_functionalizedCrystal
_audit_creation_method	'MofGen! by Chris Wilmer'
_symmetry_space_group_name_H-M	'P1'
_symmetry_Int_Tables_number	1
_symmetry_cell_setting	triclinic
loop_
_symmetry_equiv_pos_as_xyz
  x,y,z
_cell_length_a	12.759401
_cell_length_b	19.121063
_cell_length_c	12.759393
_cell_angle_alpha	92.402665
_cell_angle_beta	89.982620
_cell_angle_gamma	92.469017
loop_
_atom_site_label
_atom_site_type_symbol
_atom_site_fract_x
_atom_site_fract_y
_atom_site_fract_z
Zn1	Zn	1.588309	-0.279567	-0.611771
Zn2	Zn	1.580672	-0.397036	-0.443566
Zn3	Zn	1.412612	-0.279604	-0.436113
Zn4	Zn	1.405068	-0.396981	-0.619204
O5	O	1.496665	-0.338297	-0.527664
O6	O	1.734317	-0.295157	-0.589467
O7	O	1.558339	-0.381497	-0.295559
O8	O	1.442273	-0.181315	-0.453184
O9	O	1.728705	-0.381461	-0.465888
O10	O	1.571357	-0.181288	-0.582240
O11	O	1.434867	-0.295220	-0.290083
O12	O	1.264591	-0.295167	-0.460392
O13	O	1.429414	-0.381368	-0.765237
O14	O	1.259048	-0.381404	-0.594908
O15	O	1.564041	-0.295104	-0.759776
O16	O	1.551023	-0.495313	-0.473095
O17	O	1.422008	-0.495273	-0.602136
C18	C	1.223699	-0.338284	-0.527649
C19	C	1.106921	-0.338295	-0.527668
C20	C	1.049196	-0.383271	-0.597604
C21	C	0.939471	-0.383280	-0.597616
C22	C	0.945207	-0.293336	-0.457747
C23	C	1.054930	-0.293324	-0.457741
C24	C	1.045883	-0.435201	-0.678354
C25	C	0.936159	-0.435210	-0.678366
C26	C	1.484897	-0.520777	-0.539254
C27	C	1.479958	-0.598842	-0.544247
C28	C	1.544862	-0.635515	-0.479464
C29	C	1.540223	-0.708866	-0.484167
C30	C	1.470675	-0.745543	-0.553647
C31	C	1.405769	-0.708865	-0.618437
C32	C	1.410414	-0.635515	-0.613740
C33	C	1.453294	-0.967011	-0.571195
C34	C	1.448652	-1.040366	-0.575886
C35	C	1.583108	-1.040362	-0.441616
C36	C	1.587742	-0.967011	-0.436920
C37	C	1.522840	-0.930340	-0.501714
C38	C	1.465930	-0.820519	-0.558453
C39	C	1.527591	-0.855365	-0.496912
C40	C	1.770698	-0.338311	-0.527680
C41	C	1.887474	-0.338316	-0.527686
C42	C	1.496738	-0.338226	-0.801693
C43	C	1.496769	-0.338195	-0.918468
C44	C	1.508508	-0.155105	-0.516052
C45	C	1.513555	-0.077039	-0.511103
C46	C	1.432506	-0.293262	-0.970484
C47	C	1.432539	-0.293242	-1.080207
C48	C	1.561107	-0.383088	-1.085887
C49	C	1.561068	-0.383112	-0.976167
C50	C	1.358282	-0.241388	-0.967205
C51	C	1.358315	-0.241367	-1.076927
C52	C	1.496656	-0.338318	-0.254698
C53	C	1.496842	-0.338150	-0.137911
H54	H	1.601490	-0.605658	-0.422881
H55	H	1.390760	-0.189727	-0.929901
C56	C	0.888014	-0.243873	-0.380825
C57	C	0.767323	-0.243881	-0.380830
C58	C	0.710133	-0.194417	-0.303905
C59	C	0.773633	-0.144945	-0.226975
C60	C	0.894330	-0.144934	-0.226968
C61	C	0.951521	-0.194398	-0.303893
H62	H	0.720311	-0.280505	-0.437780
H63	H	0.620784	-0.194425	-0.303911
H64	H	0.731297	-0.108329	-0.170031
H65	H	0.941343	-0.108310	-0.170017
H66	H	1.040869	-0.194390	-0.303887
H67	H	1.275958	-0.255954	-0.938354
C68	C	1.329264	-0.749205	-0.694869
C69	C	1.338416	-0.739050	-0.813663
C70	C	1.261906	-0.779388	-0.890094
C71	C	1.176244	-0.829880	-0.847733
C72	C	1.167089	-0.840037	-0.728934
C73	C	1.243599	-0.799700	-0.652502
H74	H	1.401831	-0.701670	-0.845026
H75	H	1.268684	-0.771868	-0.978037
H76	H	1.119607	-0.859740	-0.904312
H77	H	1.103674	-0.877417	-0.697570
H78	H	1.236821	-0.807219	-0.564559
C79	C	1.389427	-0.860869	-0.634877
C80	C	1.303782	-0.911371	-0.592509
C81	C	1.227285	-0.951724	-0.668936
C82	C	1.236432	-0.941575	-0.787731
C83	C	1.322080	-0.891071	-0.830105
C84	C	1.398578	-0.850718	-0.753678
H85	H	1.297008	-0.918886	-0.504564
H86	H	1.163882	-0.989111	-0.637567
H87	H	1.179804	-0.971447	-0.844306
H88	H	1.328855	-0.883556	-0.918050
H89	H	1.461980	-0.813331	-0.785047
H90	H	1.076621	-0.420695	-0.758838
H91	H	1.279769	-0.260838	-1.112192
H92	H	1.076585	-0.486845	-0.652356
C93	C	1.631832	-0.432493	-1.149362
C94	C	1.618080	-0.512339	-1.139327
C95	C	1.688805	-0.561745	-1.202801
C96	C	1.773283	-0.531307	-1.276309
C97	C	1.787039	-0.451457	-1.286348
C98	C	1.716314	-0.402050	-1.222874
H99	H	1.555542	-0.534875	-1.084909
H100	H	1.678622	-0.620856	-1.195369
H101	H	1.825638	-0.567881	-1.323296
H102	H	1.849578	-0.428921	-1.340766
H103	H	1.726497	-0.342940	-1.230305
H104	H	1.357564	-0.605657	-0.666494
H105	H	0.903405	-0.415794	-0.754482
H106	H	1.383622	-0.186963	-1.103263
H107	H	1.392030	-1.070226	-0.632484
H108	H	1.101927	-0.256696	-0.400799
H109	H	1.635949	-1.070228	-0.388866
C110	C	0.891183	-0.508671	-0.653398
C111	C	0.965785	-0.567882	-0.633251
C112	C	0.920810	-0.641339	-0.608281
C113	C	0.801233	-0.655584	-0.603457
C114	C	0.726624	-0.596371	-0.623605
C115	C	0.771599	-0.522915	-0.648575
H116	H	1.054310	-0.557338	-0.636821
H117	H	0.976042	-0.685172	-0.593366
H118	H	0.767940	-0.709961	-0.584973
H119	H	0.638099	-0.606915	-0.620035
H120	H	0.716367	-0.479082	-0.663490
H121	H	1.593074	-0.738722	-0.431413
H122	H	1.644373	-0.937151	-0.380343
H123	H	1.400446	-0.937159	-0.623951
H124	H	1.584221	-0.825500	-0.440345
H125	H	1.613381	-0.419710	-0.933820
