data_functionalizedCrystal
_audit_creation_method	'MofGen! by Chris Wilmer'
_symmetry_space_group_name_H-M	'P1'
_symmetry_Int_Tables_number	1
_symmetry_cell_setting	triclinic
loop_
_symmetry_equiv_pos_as_xyz
  x,y,z
_cell_length_a	16.120490
_cell_length_b	19.121111
_cell_length_c	16.120256
_cell_angle_alpha	84.816858
_cell_angle_beta	90.129807
_cell_angle_gamma	90.314717
loop_
_atom_site_label
_atom_site_type_symbol
_atom_site_fract_x
_atom_site_fract_y
_atom_site_fract_z
Zn1	Zn	1.228524	0.355819	-0.551577
Zn2	Zn	1.728524	0.855819	-0.051577
Zn3	Zn	1.229530	0.467599	-0.417872
Zn4	Zn	1.729530	0.967599	0.082128
Zn5	Zn	1.097145	0.343943	-0.404929
Zn6	Zn	1.597145	0.843943	0.095071
Zn7	Zn	1.083520	0.466949	-0.549814
Zn8	Zn	1.583520	0.966949	-0.049814
O9	O	1.159680	0.408577	-0.481048
O10	O	1.659680	0.908577	0.018952
O11	O	1.344746	0.375889	-0.539995
O12	O	1.844746	0.875889	-0.039995
O13	O	1.218092	0.446498	-0.299564
O14	O	1.718092	0.946498	0.200436
O15	O	1.119854	0.247260	-0.419703
O16	O	1.619854	0.747260	0.080297
O17	O	1.345485	0.458013	-0.441763
O18	O	1.845485	0.958013	0.058237
O19	O	1.216377	0.255985	-0.527445
O20	O	1.716377	0.755985	-0.027445
O21	O	1.120830	0.355649	-0.290055
O22	O	1.620830	0.855649	0.209945
O23	O	0.979250	0.355018	-0.417994
O24	O	1.479250	0.855018	0.082006
O25	O	1.096632	0.456905	-0.666639
O26	O	1.596632	0.956905	-0.166639
O27	O	0.969240	0.445390	-0.524440
O28	O	1.469240	0.945390	-0.024440
O29	O	1.203166	0.375258	-0.667934
O30	O	1.703166	0.875258	-0.167934
O31	O	1.204881	0.565771	-0.440053
O32	O	1.704881	1.065771	0.059947
O33	O	1.097608	0.565294	-0.536991
O34	O	1.597608	1.065294	-0.036991
C35	C	0.944144	0.398846	-0.469622
C36	C	1.444144	0.898846	0.030378
C37	C	0.851935	0.394700	-0.464754
C38	C	1.351935	0.894700	0.035246
C39	C	0.637092	0.430076	-0.506298
C40	C	1.137092	0.930076	-0.006298
C41	C	0.683113	0.387137	-0.455866
C42	C	1.183113	0.887137	0.044134
C43	C	0.777054	0.391346	-0.460813
C44	C	1.277054	0.891346	0.039187
C45	C	0.543142	0.425868	-0.501353
C46	C	1.043142	0.925868	-0.001353
C47	C	1.149897	0.591012	-0.489755
C48	C	1.649897	1.091012	0.010245
C49	C	1.145786	0.669062	-0.493511
C50	C	1.645786	1.169062	0.006489
C51	C	1.199745	0.705960	-0.444852
C52	C	1.699745	1.205960	0.055148
C53	C	1.195883	0.779297	-0.448390
C54	C	1.695883	1.279297	0.051610
C55	C	1.138058	0.815735	-0.500584
C56	C	1.638058	1.315735	-0.000584
C57	C	1.084097	0.778833	-0.549248
C58	C	1.584097	1.278833	-0.049248
C59	C	1.087963	0.705497	-0.545714
C60	C	1.587963	1.205497	-0.045714
C61	C	1.123593	1.037150	-0.513782
C62	C	1.623593	1.537150	-0.013782
C63	C	1.119729	1.110491	-0.517310
C64	C	1.619729	1.610491	-0.017310
C65	C	1.231517	1.110950	-0.416453
C66	C	1.731517	1.610950	0.083547
C67	C	1.235374	1.037612	-0.412920
C68	C	1.735374	1.537612	0.087080
C69	C	1.181416	1.000717	-0.461588
C70	C	1.681416	1.500717	0.038412
C71	C	1.134108	0.890697	-0.504200
C72	C	1.634108	1.390697	-0.004200
C73	C	1.185371	0.925756	-0.457976
C74	C	1.685371	1.425756	0.042024
C75	C	1.376057	0.418348	-0.492519
C76	C	1.876057	0.918348	0.007481
C77	C	1.468264	0.422512	-0.497408
C78	C	1.968264	0.922512	0.002592
C79	C	1.148267	0.417334	-0.698363
C80	C	1.648267	0.917334	-0.198363
C81	C	1.143403	0.421065	-0.790969
C82	C	1.643403	0.921065	-0.290969
C83	C	1.169516	1.225433	-0.472337
C84	C	1.669516	1.725433	0.027663
C85	C	1.173688	1.147388	-0.468652
C86	C	1.673688	1.647388	0.031348
C87	C	1.185042	0.389100	-1.002421
C88	C	1.685042	0.889100	-0.502421
C89	C	1.134498	0.427848	-0.960514
C90	C	1.634498	0.927848	-0.460514
C91	C	1.139454	0.424073	-0.866171
C92	C	1.639454	0.924073	-0.366171
C93	C	1.180087	0.392874	-1.096774
C94	C	1.680087	0.892874	-0.596774
C95	C	1.171099	0.399807	-0.264579
C96	C	1.671099	0.899807	0.235421
C97	C	1.176134	0.395884	-0.171972
C98	C	1.676134	0.895884	0.328028
H99	H	0.651960	0.347215	-0.408975
H100	H	1.151960	0.847215	0.091025
Br101	Br	1.263355	0.329076	-0.944127
Br102	Br	1.763355	0.829076	-0.444127
H103	H	1.246829	0.676296	-0.402347
H104	H	1.746829	1.176296	0.097653
Br105	Br	0.689013	0.496619	-0.584441
Br106	Br	1.189013	0.996619	-0.084441
Br107	Br	1.041233	1.159941	-0.588134
Br108	Br	1.541233	1.659941	-0.088134
H109	H	1.079656	1.007115	-0.553407
H110	H	1.579656	1.507115	-0.053407
H111	H	1.282460	1.007946	-0.370420
H112	H	1.782460	1.507946	0.129580
Br113	Br	1.269121	0.829370	-0.382355
Br114	Br	1.769121	1.329370	0.117645
H115	H	1.275447	1.140998	-0.376832
H116	H	1.775447	1.640998	0.123168
H117	H	1.037018	0.808507	-0.591749
H118	H	1.537018	1.308507	-0.091749
Br119	Br	1.056168	0.487864	-1.018806
Br120	Br	1.556168	0.987864	-0.518806
H121	H	1.044025	0.675456	-0.585338
H122	H	1.544025	1.175456	-0.085338
H123	H	1.232455	0.896086	-0.415483
H124	H	1.732455	1.396086	0.084517
H125	H	1.087025	0.920373	-0.546694
H126	H	1.587025	1.420373	-0.046694
