data_functionalizedCrystal
_audit_creation_method	'MofGen! by Chris Wilmer'
_symmetry_space_group_name_H-M	'P1'
_symmetry_Int_Tables_number	1
_symmetry_cell_setting	triclinic
loop_
_symmetry_equiv_pos_as_xyz
  x,y,z
_cell_length_a	15.944551
_cell_length_b	15.944551
_cell_length_c	14.421503
_cell_angle_alpha	89.990248
_cell_angle_beta	89.999260
_cell_angle_gamma	83.498738
loop_
_atom_site_label
_atom_site_type_symbol
_atom_site_fract_x
_atom_site_fract_y
_atom_site_fract_z
O1	O	1.114524	0.108337	-0.077017
O2	O	0.869975	0.121693	-0.077040
O3	O	0.998928	-0.007260	-0.077020
O4	O	0.985572	0.237290	-0.077038
O5	O	0.998916	-0.007274	0.077204
O6	O	0.869963	0.121679	0.077183
O7	O	1.114513	0.108323	0.077206
Cu8	Cu	0.992237	0.115000	0.091277
Cu9	Cu	0.992251	0.115016	-0.091110
O10	O	0.985560	0.237276	0.077186
C11	C	0.838675	0.121132	0.000069
C12	C	0.745429	0.119470	0.000060
C13	C	0.530572	0.035565	0.000084
C14	C	0.469558	0.074534	-0.075959
C15	C	0.574703	0.116462	0.000071
C16	C	0.469569	0.074540	0.076093
C17	C	0.409790	0.113551	0.000086
C18	C	0.514917	0.155454	-0.076035
C19	C	0.514934	0.155448	0.076086
C20	C	0.453937	0.194476	0.000024
C21	C	0.669705	0.118137	0.000062
C22	C	0.314789	0.111883	0.000089
C23	C	0.998367	-0.038561	0.000092
C24	C	0.996705	-0.131807	0.000093
C25	C	0.912801	-0.346663	0.000072
C26	C	0.951757	-0.407687	0.076117
C27	C	0.993698	-0.302533	0.000085
C28	C	0.951788	-0.407657	-0.075935
C29	C	0.990787	-0.467445	0.000074
C30	C	1.032677	-0.362328	0.076193
C31	C	1.032696	-0.362292	-0.075927
C32	C	1.071711	-0.423298	0.000136
C33	C	0.995372	-0.207530	0.000092
C34	C	0.989119	-0.562446	0.000073
C35	C	1.145813	0.108885	0.000096
C36	C	1.239059	0.110547	0.000098
C37	C	0.986120	0.268577	0.000072
C38	C	0.987782	0.361823	0.000066
N39	N	0.992233	0.114988	0.219558
N40	N	0.992261	0.115022	-0.219392
C41	C	1.051414	0.054886	0.530996
C42	C	1.068401	0.130556	0.469156
C43	C	0.992252	0.115012	0.591447
C44	C	0.975295	0.039332	0.469193
C45	C	0.992245	0.114996	0.408725
C46	C	1.009277	0.190721	0.530968
C47	C	0.916138	0.099447	0.531010
C48	C	0.933093	0.175172	0.469198
C49	C	0.992258	0.115020	0.696708
C50	C	0.992238	0.114997	0.303467
H51	H	0.845652	-0.313356	0.000141
H52	H	1.066859	-0.342344	0.140554
H53	H	1.138919	-0.456457	0.000186
H54	H	0.917536	-0.427801	0.140401
O55	O	1.111202	-0.005712	0.563220
C56	C	1.221252	-0.116409	0.524410
C57	C	1.153587	-0.047807	0.487790
H58	H	1.255527	-0.150474	0.463444
H59	H	1.268511	-0.085921	0.568946
H60	H	1.189765	-0.163662	0.567961
H61	H	1.185000	-0.000533	0.444200
H62	H	1.106335	-0.078354	0.443305
H63	H	1.066888	-0.342156	-0.140214
H64	H	0.851793	0.086258	0.558199
H65	H	0.917566	-0.427728	-0.140230
O66	O	1.145122	0.146287	0.436577
C67	C	1.230840	0.164552	0.302050
C68	C	1.143906	0.146760	0.338817
H69	H	1.229890	0.164922	0.223008
H70	H	1.245807	0.228588	0.328448
H71	H	1.281205	0.113252	0.327486
H72	H	1.093484	0.198006	0.313397
H73	H	1.129011	0.082698	0.312426
O74	O	0.958226	-0.036973	0.436663
C75	C	0.938265	-0.122180	0.302195
C76	C	0.957613	-0.035731	0.338905
H77	H	0.937745	-0.121198	0.223153
H78	H	0.988780	-0.173387	0.327515
H79	H	0.873879	-0.135936	0.328751
H80	H	1.021975	-0.021894	0.312364
H81	H	0.907047	0.015428	0.313593
O82	O	0.873503	0.235931	0.436911
C83	C	0.844793	0.362403	0.345431
C84	C	0.912355	0.293635	0.381917
H85	H	0.876181	0.409084	0.300978
H86	H	0.796823	0.331954	0.301864
H87	H	0.811357	0.397114	0.406506
H88	H	0.945854	0.258900	0.320899
H89	H	0.960270	0.324133	0.425513
H90	H	1.023686	0.254731	0.557990
H91	H	0.449453	0.040324	-0.140243
O92	O	0.570416	-0.044497	-0.000118
C93	C	0.666881	-0.147422	-0.079743
C94	C	0.621824	-0.056730	-0.079612
H95	H	0.708441	-0.157347	-0.144017
H96	H	0.707659	-0.157889	-0.014928
H97	H	0.617845	-0.194196	-0.080406
H98	H	0.670801	-0.009899	-0.078982
H99	H	0.581030	-0.046334	-0.144422
O100	O	0.538850	0.196326	-0.152723
C101	C	0.605893	0.313119	-0.212605
C102	C	0.578851	0.266906	-0.125680
H103	H	0.638223	0.370203	-0.190772
H104	H	0.651588	0.268429	-0.255267
H105	H	0.547824	0.334968	-0.256137
H106	H	0.636869	0.245053	-0.082077
H107	H	0.533127	0.311627	-0.083088
O108	O	0.414237	0.274596	0.000012
C109	C	0.281253	0.363011	0.000649
C110	C	0.326107	0.272236	0.000692
H111	H	0.209993	0.361133	0.001179
H112	H	0.300653	0.397771	0.064872
H113	H	0.299917	0.397335	-0.064208
H114	H	0.307467	0.237840	0.065506
H115	H	0.306706	0.237539	-0.063574
O116	O	0.539072	0.196113	0.152801
C117	C	0.623389	0.187039	0.291868
C118	C	0.596135	0.140901	0.205006
H119	H	0.669515	0.142414	0.334110
H120	H	0.655291	0.244395	0.270008
H121	H	0.565481	0.208453	0.335826
H122	H	0.653999	0.119431	0.161009
H123	H	0.564203	0.083584	0.226930
O124	O	0.445712	0.033588	0.152761
C125	C	0.457930	-0.096489	0.239352
C126	C	0.485029	-0.050198	0.152507
H127	H	0.489691	-0.164242	0.239166
H128	H	0.477514	-0.062732	0.304187
H129	H	0.386464	-0.096772	0.238964
H130	H	0.556490	-0.049901	0.152805
H131	H	0.465383	-0.083970	0.087712
