data_functionalizedCrystal
_audit_creation_method	'MofGen! by Chris Wilmer'
_symmetry_space_group_name_H-M	'P1'
_symmetry_Int_Tables_number	1
_symmetry_cell_setting	triclinic
loop_
_symmetry_equiv_pos_as_xyz
  x,y,z
_cell_length_a	16.109301
_cell_length_b	15.538191
_cell_length_c	14.586319
_cell_angle_alpha	89.999456
_cell_angle_beta	89.998857
_cell_angle_gamma	65.366839
loop_
_atom_site_label
_atom_site_type_symbol
_atom_site_fract_x
_atom_site_fract_y
_atom_site_fract_z
O1	O	1.066616	0.121095	-0.076183
O2	O	0.820010	0.136164	-0.076195
O3	O	0.991317	-0.008515	-0.076191
O4	O	0.895309	0.265774	-0.076187
O5	O	0.991309	-0.008517	0.076290
O6	O	0.820002	0.136162	0.076286
O7	O	1.066608	0.121092	0.076298
Cu8	Cu	0.943304	0.128627	0.090215
Cu9	Cu	0.943314	0.128630	-0.090111
O10	O	0.895301	0.265771	0.076294
C11	C	0.789215	0.135553	0.000044
C12	C	0.697472	0.133722	0.000039
C13	C	0.364390	0.213589	0.000056
C14	C	0.450589	0.215318	0.000051
C15	C	0.522224	0.043661	0.000036
C16	C	0.436026	0.041933	0.000035
C17	C	0.357110	0.126900	0.000050
C18	C	0.529507	0.130356	0.000046
C19	C	0.622968	0.132230	0.000040
C20	C	0.263643	0.125027	0.000054
C21	C	1.001358	-0.043614	0.000047
C22	C	1.031278	-0.148197	0.000040
C23	C	0.734025	-0.435897	0.000045
C24	C	0.762161	-0.534171	0.000048
C25	C	0.920419	-0.556663	0.000056
C26	C	0.892296	-0.458388	0.000048
C27	C	0.799098	-0.398012	0.000043
C28	C	0.957369	-0.420504	0.000046
C29	C	0.929249	-0.322238	0.000043
C30	C	0.836055	-0.261856	0.000041
C31	C	0.770977	-0.299747	0.000040
C32	C	1.050567	-0.480881	0.000057
C33	C	1.115640	-0.442997	0.000055
C34	C	1.087520	-0.344729	0.000046
C35	C	0.994326	-0.284348	0.000044
C36	C	1.152597	-0.306839	0.000047
C37	C	1.124476	-0.208573	0.000044
C38	C	0.966205	-0.186082	0.000041
C39	C	1.097403	0.121704	0.000057
C40	C	1.189146	0.123534	0.000056
C41	C	0.885260	0.300871	0.000054
C42	C	0.855339	0.405454	0.000056
N43	N	0.943303	0.128625	0.217047
N44	N	0.943323	0.128624	-0.216943
C45	C	1.019170	0.064582	0.452055
C46	C	1.019173	0.064580	0.548036
C47	C	0.867449	0.192670	0.548042
C48	C	0.867444	0.192667	0.452063
C49	C	0.943309	0.128624	0.404071
C50	C	0.943317	0.128625	0.596032
C51	C	0.943320	0.128623	0.700099
C52	C	0.943306	0.128625	0.299998
H53	H	0.813161	-0.181842	0.000044
O54	O	0.865683	-0.120951	0.000039
H55	H	0.833133	-0.134420	-0.062108
O56	O	0.458445	0.308817	0.000059
H57	H	0.496014	0.313697	0.062204
H58	H	1.080943	0.012434	0.412983
O59	O	1.253113	-0.371965	0.000067
H60	H	1.285677	-0.358506	-0.062076
O61	O	0.607339	-0.047979	0.000028
H62	H	0.607961	-0.089472	0.062170
H63	H	0.805682	0.244813	0.587126
O64	O	0.428166	-0.051571	0.000038
H65	H	0.497520	-0.110363	0.000045
H66	H	0.300138	0.282775	0.000068
O67	O	0.785621	0.261747	0.400298
H68	H	0.732874	0.306290	0.449792
H69	H	0.695086	-0.250585	0.000030
H70	H	0.658134	-0.386735	0.000035
O71	O	1.101001	-0.004481	0.599793
H72	H	1.153754	-0.049004	0.550294
O73	O	0.691971	-0.575036	0.000042
H74	H	0.622444	-0.516541	0.000031
H75	H	0.996301	-0.605833	0.000063
O76	O	1.194663	-0.167709	0.000038
H77	H	1.159449	-0.089235	0.000043
O78	O	1.080909	-0.586871	0.000063
H79	H	1.054181	-0.607935	-0.062093
O80	O	1.216158	-0.508116	0.000063
H81	H	1.224782	-0.582812	0.000062
