data_functionalizedCrystal
_audit_creation_method	'MofGen! by Chris Wilmer'
_symmetry_space_group_name_H-M	'P1'
_symmetry_Int_Tables_number	1
_symmetry_cell_setting	triclinic
loop_
_symmetry_equiv_pos_as_xyz
  x,y,z
_cell_length_a	16.109301
_cell_length_b	14.044209
_cell_length_c	14.586319
_cell_angle_alpha	89.997325
_cell_angle_beta	90.003133
_cell_angle_gamma	91.675283
loop_
_atom_site_label
_atom_site_type_symbol
_atom_site_fract_x
_atom_site_fract_y
_atom_site_fract_z
O1	O	1.112197	-0.121829	0.076188
O2	O	1.612197	0.378171	0.576188
O3	O	0.871263	-0.136991	0.076203
O4	O	1.371263	0.363009	0.576203
O5	O	0.988115	0.008573	0.076183
O6	O	1.488115	0.508573	0.576183
O7	O	0.995346	-0.267394	0.076208
O8	O	1.495346	0.232606	0.576208
O9	O	0.988100	0.008565	-0.076298
O10	O	1.488100	0.508565	0.423702
O11	O	0.871249	-0.137000	-0.076278
O12	O	1.371249	0.363000	0.423722
O13	O	1.112183	-0.121838	-0.076293
O14	O	1.612183	0.378162	0.423707
Cu15	Cu	0.991714	-0.129420	-0.090208
Cu16	Cu	1.491714	0.370580	0.409792
Cu17	Cu	0.991732	-0.129410	0.090118
Cu18	Cu	1.491732	0.370590	0.590118
O19	O	0.995331	-0.267403	-0.076272
O20	O	1.495331	0.232597	0.423728
C21	C	0.840235	-0.136382	-0.000035
C22	C	1.340235	0.363618	0.499965
C23	C	0.747803	-0.134540	-0.000030
C24	C	1.247803	0.365460	0.499970
C25	C	0.984942	0.043882	-0.000059
C26	C	1.484942	0.543882	0.499941
C27	C	0.975499	0.149105	-0.000062
C28	C	1.475499	0.649105	0.499938
C29	C	0.531638	-0.216634	-0.000033
C30	C	1.031638	0.283366	0.499967
C31	C	0.444788	-0.214896	-0.000039
C32	C	0.944788	0.285104	0.499961
C33	C	0.451814	-0.042189	-0.000051
C34	C	0.951814	0.457811	0.499949
C35	C	0.538662	-0.043927	-0.000052
C36	C	1.038662	0.456073	0.499948
C37	C	0.578572	-0.131153	-0.000038
C38	C	1.078572	0.368847	0.499962
C39	C	0.404874	-0.127677	-0.000044
C40	C	0.904874	0.372323	0.499956
C41	C	0.310708	-0.125792	-0.000050
C42	C	0.810708	0.374208	0.499950
C43	C	0.672744	-0.133038	-0.000033
C44	C	1.172744	0.366962	0.499967
C45	C	0.958235	0.341762	-0.000054
C46	C	1.458235	0.841762	0.499946
C47	C	1.025215	0.399416	-0.000057
C48	C	1.525215	0.899416	0.499943
C49	C	1.015609	0.506616	-0.000052
C50	C	1.515609	1.006616	0.499948
C51	C	0.967839	0.234551	-0.000058
C52	C	1.467839	0.734551	0.499942
C53	C	1.143211	-0.122448	-0.000052
C54	C	1.643211	0.377552	0.499948
C55	C	1.235643	-0.124289	-0.000051
C56	C	1.735643	0.375711	0.499949
N57	N	0.991708	-0.129426	-0.217040
N58	N	1.491708	0.370574	0.282960
C59	C	0.998506	0.697288	-0.000036
C60	C	1.498506	1.197288	0.499964
C61	C	1.007954	0.592066	-0.000048
C62	C	1.507954	1.092066	0.499952
C63	C	1.046408	-0.186918	-0.452044
C64	C	1.546408	0.313082	0.047956
C65	C	1.046416	-0.186912	-0.548025
C66	C	1.546416	0.313088	-0.048025
C67	C	0.937042	-0.071897	-0.548039
C68	C	1.437042	0.428103	-0.048039
C69	C	0.937038	-0.071899	-0.452060
C70	C	1.437038	0.428101	0.047940
C71	C	0.991720	-0.129415	-0.404064
C72	C	1.491720	0.370585	0.095936
C73	C	0.991732	-0.129407	-0.596025
C74	C	1.491732	0.370593	-0.096025
C75	C	0.991740	-0.129399	-0.700092
C76	C	1.491740	0.370601	-0.200092
C77	C	0.991713	-0.129422	-0.299991
C78	C	1.491713	0.370578	0.200009
N79	N	0.991744	-0.129395	0.216950
N80	N	1.491744	0.370605	0.716950
H81	H	0.564129	-0.287658	-0.000029
H82	H	1.064129	0.212342	0.499971
H83	H	0.406578	-0.284504	-0.000037
H84	H	0.906578	0.215496	0.499963
H85	H	0.892521	-0.025070	-0.587129
H86	H	1.392521	0.474930	-0.087129
H87	H	0.893683	0.372911	-0.000048
H88	H	1.393683	0.872911	0.499952
H89	H	1.090933	-0.233752	-0.412969
H90	H	1.590933	0.266248	0.087031
H91	H	0.892504	-0.025068	-0.412994
H92	H	1.392504	0.474932	0.087006
O93	O	0.408771	0.051888	-0.000059
O94	O	0.908771	0.551888	0.499941
H95	H	0.340494	0.038738	-0.000050
H96	H	0.840494	0.538738	0.499950
O97	O	0.589294	0.048274	-0.000059
O98	O	1.089294	0.548274	0.499941
H99	H	0.546954	0.109219	-0.000056
H100	H	1.046954	0.609219	0.499944
O101	O	1.105399	-0.248931	-0.599780
O102	O	1.605399	0.251069	-0.099780
H103	H	1.092919	-0.324687	-0.581369
H104	H	1.592919	0.175313	-0.081369
O105	O	1.110733	0.358165	-0.000077
O106	O	1.610733	0.858165	0.499923
H107	H	1.104958	0.279217	-0.000090
H108	H	1.604958	0.779217	0.499910
