data_functionalizedCrystal
_audit_creation_method	'MofGen! by Chris Wilmer'
_symmetry_space_group_name_H-M	'P1'
_symmetry_Int_Tables_number	1
_symmetry_cell_setting	triclinic
loop_
_symmetry_equiv_pos_as_xyz
  x,y,z
_cell_length_a	25.639239
_cell_length_b	12.759401
_cell_length_c	25.639233
_cell_angle_alpha	90.011593
_cell_angle_beta	89.981253
_cell_angle_gamma	89.959789
loop_
_atom_site_label
_atom_site_type_symbol
_atom_site_fract_x
_atom_site_fract_y
_atom_site_fract_z
Zn1	Zn	-0.208193	-1.605994	-0.295595
Zn2	Zn	-0.295612	-1.605841	-0.208159
Zn3	Zn	-0.208195	-1.430322	-0.208175
Zn4	Zn	-0.295602	-1.430211	-0.295565
O5	O	-0.251900	-1.518092	-0.251874
O6	O	-0.219793	-1.752995	-0.284002
O7	O	-0.284021	-1.582539	-0.134996
O8	O	-0.135029	-1.453736	-0.219790
O9	O	-0.284019	-1.752882	-0.219763
O10	O	-0.135028	-1.582801	-0.284017
O11	O	-0.219796	-1.453586	-0.135008
O12	O	-0.219786	-1.283286	-0.219762
O13	O	-0.284002	-1.453548	-0.368734
O14	O	-0.284003	-1.283205	-0.283967
O15	O	-0.219783	-1.582694	-0.368756
O16	O	-0.368776	-1.582432	-0.219735
O17	O	-0.368768	-1.453398	-0.283952
C18	C	-0.251894	-1.245125	-0.251863
C19	C	-0.251904	-1.128348	-0.251871
C20	C	-0.387743	-1.517915	-0.251850
C21	C	-0.445857	-1.517936	-0.251857
C22	C	-0.251891	-1.518126	-0.388247
C23	C	-0.251887	-1.518140	-0.446361
C24	C	-0.806211	-1.585455	-0.218493
C25	C	-0.860816	-1.585496	-0.218500
O26	O	-0.889045	-1.642720	-0.190106
N27	N	-0.888139	-1.518277	-0.251908
C28	C	-0.860856	-1.451020	-0.285315
O29	O	-0.889111	-1.393849	-0.313733
C30	C	-0.806253	-1.450985	-0.285311
C31	C	-0.778932	-1.518201	-0.251896
C32	C	-0.778890	-1.652667	-0.185082
C33	C	-0.724290	-1.652624	-0.185074
C34	C	-0.697010	-1.585370	-0.218478
C35	C	-0.724331	-1.518159	-0.251889
C36	C	-0.778970	-1.383734	-0.318720
C37	C	-0.724363	-1.383706	-0.318713
C38	C	-0.697042	-1.450922	-0.285299
C39	C	-0.642451	-1.450863	-0.285285
N40	N	-0.615127	-1.518082	-0.251877
C41	C	-0.642407	-1.585336	-0.218473
C42	C	-0.975527	-1.451099	-0.285324
C43	C	-1.030129	-1.451127	-0.285326
C44	C	-1.030085	-1.585605	-0.218511
C45	C	-0.975482	-1.585571	-0.218506
C46	C	-0.948203	-1.518318	-0.251915
C47	C	-0.527742	-1.585241	-0.218459
C48	C	-0.473137	-1.585190	-0.218453
C49	C	-0.473185	-1.450716	-0.285270
C50	C	-0.527786	-1.450763	-0.285274
C51	C	-0.555063	-1.518034	-0.251867
O52	O	-0.614187	-1.393671	-0.313666
O53	O	-0.614145	-1.642507	-0.190065
C54	C	-0.115527	-1.518298	-0.251909
C55	C	-0.057413	-1.518386	-0.251924
C56	C	-0.251907	-1.792125	-0.251884
C57	C	-0.251910	-1.908902	-0.251889
C58	C	-0.285393	-1.073471	-0.285250
C59	C	-0.285395	-0.963747	-0.285260
C60	C	-0.218417	-0.963786	-0.218508
C61	C	-0.218413	-1.073508	-0.218501
C62	C	-0.304174	-0.813815	-0.346898
C63	C	-0.337671	-0.758935	-0.380272
C64	C	-0.388698	-0.794487	-0.388204
C65	C	-0.406238	-0.884918	-0.362753
C66	C	-0.372744	-0.939793	-0.329375
C67	C	-0.321710	-0.904242	-0.321454
C68	C	-0.199639	-1.223442	-0.156863
C69	C	-0.166147	-1.278319	-0.123481
C70	C	-0.115119	-1.242769	-0.115545
C71	C	-0.097581	-1.152335	-0.140986
C72	C	-0.131073	-1.097458	-0.174367
C73	C	-0.182100	-1.133015	-0.182305
C74	C	-0.218349	-1.585472	-0.806741
C75	C	-0.218335	-1.585485	-0.861345
O76	O	-0.189881	-1.642649	-0.889596
N77	N	-0.251765	-1.518256	-0.888643
C78	C	-0.285208	-1.451002	-0.861334
O79	O	-0.313641	-1.393819	-0.889567
C80	C	-0.285219	-1.450985	-0.806731
C81	C	-0.251791	-1.518226	-0.779436
C82	C	-0.184923	-1.652707	-0.779445
C83	C	-0.184939	-1.652695	-0.724845
C84	C	-0.218380	-1.585449	-0.697540
C85	C	-0.251806	-1.518214	-0.724835
C86	C	-0.318659	-1.383726	-0.779423
C87	C	-0.318667	-1.383714	-0.724816
C88	C	-0.285239	-1.450955	-0.697521
C89	C	-0.285262	-1.450955	-0.642929
N90	N	-0.251833	-1.518184	-0.615631
C91	C	-0.218391	-1.585431	-0.642936
C92	C	-0.285180	-1.451043	-0.976005
C93	C	-0.285172	-1.451065	-1.030607
C94	C	-0.218298	-1.585547	-1.030614
C95	C	-0.218310	-1.585529	-0.976011
C96	C	-0.251750	-1.518272	-0.948707
C97	C	-0.218426	-1.585402	-0.528271
C98	C	-0.218446	-1.585387	-0.473666
C99	C	-0.285317	-1.450901	-0.473663
C100	C	-0.285300	-1.450920	-0.528264
C101	C	-0.251850	-1.518173	-0.555567
O102	O	-0.313700	-1.393818	-0.614643
O103	O	-0.189958	-1.642595	-0.614696
C104	C	-0.251872	-1.518119	-0.116031
C105	C	-0.251728	-1.518308	-0.057917
H106	H	-0.450894	-1.639925	-0.191241
F107	F	-0.808036	-1.312201	-0.354290
F108	F	-0.182706	-1.657116	-1.059684
F109	F	-0.695335	-1.312126	-0.354274
F110	F	-1.059200	-1.379575	-0.320884
H111	H	-0.241189	-1.252403	-0.163327
H112	H	-0.953240	-1.640304	-0.191298
H113	H	-0.345893	-1.328932	-0.702588
H114	H	-0.312398	-1.396322	-1.052827
H115	H	-0.953319	-1.396325	-0.312528
H116	H	-0.087852	-1.287455	-0.088358
F117	F	-0.043272	-1.114491	-0.132536
H118	H	-0.312546	-1.396154	-0.451422
H119	H	-0.549944	-1.640022	-0.191257
H120	H	-0.702048	-1.707361	-0.157867
F121	F	-0.556864	-1.379206	-0.320828
H122	H	-0.312525	-1.396176	-0.550489
F123	F	-0.182731	-1.657094	-0.946966
F124	F	-0.321035	-1.131832	-0.320767
F125	F	-0.807915	-1.724256	-0.149527
F126	F	-0.391409	-1.036028	-0.302289
F127	F	-1.059127	-1.657182	-0.182959
F128	F	-0.460552	-0.922740	-0.371191
F129	F	-0.149356	-1.724258	-0.695802
F130	F	-0.149332	-1.724296	-0.808497
H131	H	-0.450966	-1.395955	-0.312465
F132	F	-0.319001	-0.662697	-0.407359
H133	H	-0.180432	-1.351955	-0.102765
H134	H	-0.415972	-0.749796	-0.415379
F135	F	-0.182823	-1.656976	-0.557321
F136	F	-0.249862	-0.775981	-0.338467
F137	F	-0.320778	-1.379460	-0.946950
H138	H	-0.191151	-0.919122	-0.191339
H139	H	-0.345880	-1.328971	-0.801637
F140	F	-0.112407	-1.001204	-0.201442
F141	F	-0.182866	-1.656959	-0.444619
