data_functionalizedCrystal
_audit_creation_method	'MofGen! by Chris Wilmer'
_symmetry_space_group_name_H-M	'P1'
_symmetry_Int_Tables_number	1
_symmetry_cell_setting	triclinic
loop_
_symmetry_equiv_pos_as_xyz
  x,y,z
_cell_length_a	9.065218
_cell_length_b	10.540539
_cell_length_c	7.540329
_cell_angle_alpha	89.998539
_cell_angle_beta	89.996962
_cell_angle_gamma	84.770688
loop_
_atom_site_label
_atom_site_type_symbol
_atom_site_fract_x
_atom_site_fract_y
_atom_site_fract_z
O1	O	1.959469	0.186143	-0.147478
O2	O	1.530108	0.201412	-0.147479
O3	O	1.754584	0.009107	-0.147476
O4	O	1.734993	0.378448	-0.147481
O5	O	1.754570	0.009105	0.147489
O6	O	1.530094	0.201409	0.147486
O7	O	1.959455	0.186141	0.147487
Cu8	Cu	1.744773	0.193775	0.174419
Cu9	Cu	1.744789	0.193778	-0.174411
O10	O	1.734979	0.378445	0.147484
C11	C	1.475122	0.199943	0.000003
C12	C	1.311301	0.195556	0.000002
C13	C	1.753108	-0.038202	0.000003
C14	C	1.748712	-0.179167	-0.000007
C15	C	1.580278	-0.363216	-0.000669
C16	C	1.584734	-0.216582	-0.000005
C17	C	1.827618	-0.240534	0.168433
C18	C	1.822022	-0.387099	0.168575
C19	C	1.825372	-0.387602	-0.166855
C20	C	1.826883	-0.240615	-0.169082
C21	C	2.014441	0.187610	0.000001
C22	C	2.178262	0.191997	-0.000009
C23	C	1.736455	0.425755	0.000001
C24	C	1.740851	0.566719	-0.000001
N25	N	1.744773	0.193772	0.419768
N26	N	1.744801	0.193771	-0.419760
H27	H	1.522646	-0.174207	-0.120750
H28	H	1.943813	-0.434390	-0.167987
H29	H	1.763695	-0.415515	0.294487
O30	O	1.761850	-0.425520	-0.318998
C31	C	1.639996	-0.494044	-0.276927
H32	H	1.597839	-0.466108	-0.138636
H33	H	1.675793	-0.600544	-0.280291
C34	C	1.567261	-0.497081	-0.583087
C35	C	1.515475	-0.462761	-0.413241
H36	H	1.490452	-0.477790	-0.667175
H37	H	1.649359	-0.450919	-0.611433
H38	H	1.597091	-0.585829	-0.585865
H39	H	1.485664	-0.374012	-0.410460
H40	H	1.433368	-0.508907	-0.384897
O41	O	1.762430	-0.189849	0.318031
C42	C	1.867831	-0.130816	0.418972
H43	H	1.961416	-0.104801	0.328798
H44	H	1.914673	-0.199123	0.526445
C45	C	1.678330	-0.041153	0.616617
C46	C	1.793266	-0.009191	0.505861
H47	H	1.632336	0.033868	0.670223
H48	H	1.607319	-0.080928	0.548617
H49	H	1.717382	-0.098077	0.706163
H50	H	1.754211	0.047719	0.416306
H51	H	1.864269	0.030596	0.573850
H52	H	1.515761	-0.393663	0.119445
H53	H	1.522200	-0.175058	0.120940
H54	H	1.939952	-0.434632	0.176217
H55	H	1.769148	-0.199969	-0.293689
H56	H	1.515508	-0.392055	-0.121460
H57	H	1.946436	-0.215951	-0.179253
H58	H	1.948039	-0.217735	0.174697
