data_functionalizedCrystal
_audit_creation_method	'MofGen! by Chris Wilmer'
_symmetry_space_group_name_H-M	'P1'
_symmetry_Int_Tables_number	1
_symmetry_cell_setting	triclinic
loop_
_symmetry_equiv_pos_as_xyz
  x,y,z
_cell_length_a	19.288867
_cell_length_b	15.625429
_cell_length_c	17.766277
_cell_angle_alpha	71.916495
_cell_angle_beta	89.992126
_cell_angle_gamma	83.712539
loop_
_atom_site_label
_atom_site_type_symbol
_atom_site_fract_x
_atom_site_fract_y
_atom_site_fract_z
O1	O	0.921733	0.112472	-0.093262
O2	O	0.719524	0.127642	-0.097409
O3	O	0.826028	-0.011203	-0.059509
O4	O	0.815229	0.251317	-0.131163
O5	O	0.826010	-0.011210	0.065681
O6	O	0.719505	0.127635	0.027781
O7	O	0.921715	0.112465	0.031928
Cu8	Cu	0.820608	0.120049	0.041285
Cu9	Cu	0.820630	0.120058	-0.106767
O10	O	0.815210	0.251310	-0.005972
C11	C	0.693637	0.127150	-0.034682
C12	C	0.616528	0.125684	-0.034284
C13	C	0.060937	0.115127	-0.099635
C14	C	0.133390	0.116499	-0.100012
C15	C	0.169610	0.117186	-0.031959
C16	C	0.133375	0.116477	0.036482
C17	C	0.060925	0.115096	0.036860
C18	C	0.279116	0.172173	0.005313
C19	C	0.351564	0.173560	0.004931
C20	C	0.393070	0.121442	-0.033121
C21	C	0.362118	0.067949	-0.070806
C22	C	0.289669	0.066567	-0.070428
C23	C	0.248170	0.118683	-0.032361
C24	C	0.507858	0.123632	-0.101965
C25	C	0.580312	0.124999	-0.102338
C26	C	0.580296	0.124985	0.034156
C27	C	0.507844	0.123610	0.034529
C28	C	0.471629	0.122937	-0.033535
C29	C	0.825529	-0.044792	0.012252
C30	C	0.824061	-0.144867	0.039562
C31	C	0.819264	-0.473982	-0.211798
C32	C	0.817881	-0.568017	-0.186113
C33	C	0.817861	-0.568011	-0.049639
C34	C	0.819247	-0.473975	-0.075313
C35	C	0.819948	-0.426968	-0.156393
C36	C	0.819931	-0.426960	-0.019908
C37	C	0.821313	-0.332932	-0.045580
C38	C	0.822012	-0.285918	-0.126657
C39	C	0.821330	-0.332939	-0.182065
C40	C	0.819225	-0.473969	0.061172
C41	C	0.819909	-0.426954	0.116577
C42	C	0.821296	-0.332924	0.090906
C43	C	0.821995	-0.285910	0.009829
C44	C	0.821978	-0.285903	0.146314
C45	C	0.823360	-0.191874	0.120642
C46	C	0.823377	-0.191881	-0.015843
C47	C	0.947602	0.112957	-0.030801
C48	C	1.024710	0.114423	-0.031203
C49	C	0.815710	0.284899	-0.077734
C50	C	0.817178	0.384974	-0.105049
N51	N	0.820598	0.120043	0.145418
N52	N	0.820646	0.120057	-0.210897
C53	C	0.867773	0.058593	0.201579
C54	C	0.867777	0.058588	0.280381
C55	C	0.820612	0.120050	0.303016
C56	C	0.773428	0.181505	0.246844
C57	C	0.773421	0.181501	0.168045
C58	C	0.811592	0.202193	0.405433
C59	C	0.811604	0.202198	0.484231
C60	C	0.820631	0.120061	0.546060
C61	C	0.829660	0.037916	0.529082
C62	C	0.829653	0.037912	0.450283
C63	C	0.820615	0.120060	0.388459
C64	C	0.867813	0.058601	0.687669
C65	C	0.867812	0.058596	0.766474
C66	C	0.773467	0.181520	0.732933
C67	C	0.773464	0.181518	0.654132
C68	C	0.820641	0.120059	0.631504
H69	H	0.264471	0.023010	-0.101111
H70	H	0.031429	0.114526	0.092586
N71	N	0.722556	0.247791	0.271258
H72	H	0.749136	0.287626	0.293067
H73	H	0.692679	0.286659	0.223690
N74	N	0.918649	-0.007698	0.177175
H75	H	0.949430	0.026652	0.135094
H76	H	0.948488	-0.046611	0.224759
N77	N	0.817742	-0.575387	0.088863
H78	H	0.817398	-0.598031	0.148632
H79	H	0.774392	-0.590486	0.066154
N80	N	0.801860	0.290791	0.502541
H81	H	0.840495	0.328261	0.478585
H82	H	0.755297	0.325064	0.479462
N83	N	0.918691	-0.007684	0.663256
H84	H	0.948575	-0.046620	0.710797
H85	H	0.892062	-0.047452	0.641423
N86	N	0.172433	0.117220	0.109885
H87	H	0.208072	0.061922	0.128018
H88	H	0.196868	0.173705	0.097468
H89	H	0.817288	-0.606297	0.016377
H90	H	0.478347	0.123040	0.090252
N91	N	0.468787	0.122897	-0.175365
H92	H	0.475824	0.179011	-0.220517
H93	H	0.486990	0.067227	-0.189947
H94	H	0.823130	-0.209352	-0.147558
H95	H	0.609786	0.125541	0.089566
N96	N	0.819940	-0.423202	-0.299241
H97	H	0.863511	-0.391623	-0.310932
H98	H	0.819247	-0.467251	-0.330440
H99	H	0.395911	0.025512	-0.101794
H100	H	0.906194	0.008546	0.326116
H101	H	0.245328	0.214609	0.036309
H102	H	0.609808	0.125565	-0.158063
H103	H	0.376757	0.217139	0.035595
N104	N	0.821226	-0.336610	0.233761
H105	H	0.778441	-0.312762	0.257088
H106	H	0.820271	-0.403298	0.241548
H107	H	0.837011	-0.028968	0.579423
H108	H	0.837003	-0.028973	0.436463
N109	N	0.918708	-0.007671	0.827049
H110	H	0.948597	-0.046594	0.800751
H111	H	0.949437	0.026769	0.850324
N112	N	0.021877	0.114387	-0.173038
H113	H	0.028911	0.170502	-0.218190
H114	H	0.040090	0.058719	-0.187616
N115	N	0.824113	-0.141110	-0.103284
H116	H	0.866893	-0.164909	-0.126651
H117	H	0.780819	-0.149982	-0.130633
H118	H	0.735004	0.231543	0.122316
H119	H	0.162891	0.117077	-0.155740
H120	H	0.817318	-0.606292	-0.231237
H121	H	0.821907	-0.294664	-0.248088
N122	N	0.819162	-0.477658	0.204025
H123	H	0.818186	-0.544360	0.211883
H124	H	0.862430	-0.468701	0.231368
N125	N	0.824093	-0.141157	0.180396
H126	H	0.823441	-0.185203	0.235655
H127	H	0.867690	-0.109625	0.174758
H128	H	0.735062	0.231560	0.751362
H129	H	0.735053	0.231560	0.608401
N130	N	0.801857	0.290788	0.338749
H131	H	0.796146	0.342825	0.361459
H132	H	0.844055	0.295907	0.304648
