data_functionalizedCrystal
_audit_creation_method	'MofGen! by Chris Wilmer'
_symmetry_space_group_name_H-M	'P1'
_symmetry_Int_Tables_number	1
_symmetry_cell_setting	triclinic
loop_
_symmetry_equiv_pos_as_xyz
  x,y,z
_cell_length_a	17.077404
_cell_length_b	15.299816
_cell_length_c	17.077396
_cell_angle_alpha	99.656369
_cell_angle_beta	89.981638
_cell_angle_gamma	80.348648
loop_
_atom_site_label
_atom_site_type_symbol
_atom_site_fract_x
_atom_site_fract_y
_atom_site_fract_z
Zn1	Zn	1.254125	-0.359112	-0.497959
Zn2	Zn	1.276742	-0.509943	-0.389432
Zn3	Zn	1.122861	-0.359138	-0.366713
Zn4	Zn	1.145526	-0.509884	-0.520649
O5	O	1.199813	-0.434519	-0.443688
O6	O	1.366974	-0.379134	-0.483574
O7	O	1.256309	-0.489974	-0.276576
O8	O	1.121322	-0.232923	-0.365119
O9	O	1.383591	-0.489949	-0.403840
O10	O	1.217762	-0.232904	-0.461545
O11	O	1.143253	-0.379178	-0.259885
O12	O	1.016018	-0.379121	-0.387121
O13	O	1.159952	-0.489848	-0.627481
O14	O	1.032670	-0.489873	-0.500217
O15	O	1.239739	-0.379077	-0.610810
O16	O	1.278287	-0.636147	-0.425842
O17	O	1.181883	-0.636103	-0.522247
C18	C	0.995862	-0.434494	-0.443667
C19	C	0.908613	-0.434505	-0.443679
C20	C	0.858987	-0.376906	-0.485289
C21	C	0.777008	-0.376912	-0.485293
C22	C	0.744657	-0.434521	-0.443692
C23	C	0.794289	-0.492123	-0.402078
C24	C	0.876266	-0.492112	-0.402069
C25	C	0.623422	-0.492143	-0.402100
C26	C	0.541439	-0.492156	-0.402110
C27	C	0.524163	-0.376943	-0.485325
C28	C	0.606141	-0.376932	-0.485316
C29	C	0.655768	-0.434535	-0.443702
C30	C	1.235020	-0.668850	-0.478989
C31	C	1.250153	-0.769097	-0.494117
C32	C	1.092168	-1.052017	-0.335832
C33	C	1.077945	-0.957829	-0.321620
C34	C	1.120996	-0.910642	-0.364743
C35	C	1.178272	-0.957651	-0.422080
C36	C	1.192491	-1.051848	-0.436298
C37	C	1.221320	-0.910473	-0.465209
C38	C	1.278595	-0.957482	-0.522546
C39	C	1.292813	-1.051669	-0.536761
C40	C	1.249762	-1.098857	-0.493638
C41	C	1.207100	-0.816276	-0.450991
C42	C	1.307424	-0.816107	-0.551457
C43	C	1.321646	-0.910294	-0.565669
C44	C	1.404562	-0.434546	-0.443710
C45	C	1.491813	-0.434557	-0.443720
C46	C	1.199851	-0.434453	-0.648422
C47	C	1.199867	-0.434425	-0.735668
C48	C	1.164491	-0.199274	-0.408266
C49	C	1.149438	-0.099026	-0.393172
C50	C	1.241413	-0.376741	-0.767978
C51	C	1.241418	-0.376711	-0.849954
C52	C	1.199881	-0.434370	-0.899619
C53	C	1.158329	-0.492056	-0.867304
C54	C	1.158320	-0.492081	-0.785328
C55	C	1.158353	-0.492002	-1.038166
C56	C	1.158363	-0.491978	-1.120147
C57	C	1.241451	-0.376632	-1.102792
C58	C	1.241442	-0.376657	-1.020816
C59	C	1.199891	-0.434344	-0.988506
C60	C	1.199811	-0.434520	-0.239740
C61	C	1.199909	-0.434295	-0.152457
H62	H	0.483753	-0.330039	-0.519206
H63	H	1.124506	-0.538999	-0.907747
C64	C	0.894570	-0.313538	-0.531052
H65	H	0.950502	-0.321785	-0.525095
H66	H	0.872018	-0.252924	-0.510522
H67	H	0.883152	-0.326824	-0.585779
C68	C	0.505849	-0.555514	-0.356342
H69	H	0.449920	-0.547274	-0.362315
H70	H	0.517262	-0.542227	-0.301618
H71	H	0.528400	-0.616134	-0.376870
H72	H	0.663826	-0.539047	-0.368211
C73	C	1.355810	-1.103378	-0.599834
H74	H	1.379418	-1.061788	-0.623476
H75	H	1.331311	-1.140124	-0.639555
H76	H	1.395576	-1.140112	-0.575374
C77	C	1.354782	-0.764215	-0.598899
H78	H	1.390920	-0.805701	-0.635092
H79	H	1.383453	-0.727460	-0.563358
H80	H	1.319180	-0.727474	-0.627531
C81	C	1.105358	-0.807038	-0.349104
H82	H	1.065087	-0.785799	-0.308775
H83	H	1.088540	-0.785696	-0.396526
H84	H	1.152804	-0.785699	-0.332344
C85	C	0.758709	-0.555495	-0.356317
H86	H	0.800007	-0.589791	-0.331529
H87	H	0.732658	-0.594840	-0.392218
H88	H	0.721520	-0.520943	-0.316959
C89	C	0.930856	-0.555478	-0.356306
H90	H	0.899851	-0.589797	-0.331538
H91	H	0.957630	-0.520927	-0.316944
H92	H	0.968760	-0.594817	-0.392209
H93	H	1.160466	-0.778009	-0.404307
H94	H	1.031311	-0.919558	-0.274937
H95	H	0.736605	-0.330011	-0.519178
H96	H	1.368280	-0.948583	-0.612354
H97	H	1.261341	-1.175552	-0.505203
H98	H	1.057118	-1.090445	-0.300731
C99	C	1.287154	-0.313173	-1.138324
H100	H	1.311899	-0.278846	-1.097006
H101	H	1.251232	-0.273858	-1.164380
H102	H	1.326543	-0.347676	-1.175505
H103	H	0.632479	-0.330026	-0.519197
H104	H	1.124504	-0.538963	-1.011860
H105	H	1.275241	-0.329791	-0.727546
H106	H	1.275251	-0.329742	-0.876257
H107	H	1.124480	-0.539043	-0.759022
H108	H	1.275270	-0.329711	-0.980381
C109	C	1.112668	-0.555396	-1.174776
H110	H	1.087912	-0.589747	-1.143793
H111	H	1.148598	-0.594689	-1.212677
H112	H	1.073290	-0.520868	-1.201552
