data_functionalizedCrystal
_audit_creation_method	'MofGen! by Chris Wilmer'
_symmetry_space_group_name_H-M	'P1'
_symmetry_Int_Tables_number	1
_symmetry_cell_setting	triclinic
loop_
_symmetry_equiv_pos_as_xyz
  x,y,z
_cell_length_a	15.944499
_cell_length_b	19.188940
_cell_length_c	14.421503
_cell_angle_alpha	90.003842
_cell_angle_beta	89.989779
_cell_angle_gamma	83.313162
loop_
_atom_site_label
_atom_site_type_symbol
_atom_site_fract_x
_atom_site_fract_y
_atom_site_fract_z
O1	O	1.114224	0.089866	-0.077168
O2	O	1.447557	0.423199	0.256165
O3	O	1.780891	0.756533	0.589499
O4	O	0.869627	0.101006	-0.077158
O5	O	1.202960	0.434339	0.256175
O6	O	1.536294	0.767672	0.589509
O7	O	0.998980	-0.006202	-0.077156
O8	O	1.332313	0.327131	0.256177
O9	O	1.665646	0.660464	0.589510
O10	O	0.984871	0.197074	-0.077170
O11	O	1.318204	0.530407	0.256164
O12	O	1.651538	0.863740	0.589497
O13	O	0.998958	-0.006186	0.077067
O14	O	1.332292	0.327147	0.410401
O15	O	1.665625	0.660480	0.743734
O16	O	0.869606	0.101022	0.077066
O17	O	1.202939	0.434355	0.410399
O18	O	1.536272	0.767688	0.743732
O19	O	1.114202	0.089882	0.077055
O20	O	1.447536	0.423215	0.410389
O21	O	1.780869	0.756549	0.743722
Cu22	Cu	0.991902	0.095453	0.091142
Cu23	Cu	1.325235	0.428787	0.424476
Cu24	Cu	1.658569	0.762120	0.757809
Cu25	Cu	0.991927	0.095434	-0.091245
Cu26	Cu	1.325261	0.428768	0.242089
Cu27	Cu	1.658594	0.762101	0.575422
O28	O	0.984850	0.197090	0.077054
O29	O	1.318183	0.530423	0.410387
O30	O	1.651516	0.863756	0.743720
C31	C	0.838323	0.100558	-0.000045
C32	C	1.171657	0.433891	0.333289
C33	C	1.504990	0.767224	0.666622
C34	C	0.745080	0.099190	-0.000041
C35	C	1.078413	0.432524	0.333293
C36	C	1.411747	0.765857	0.666626
C37	C	0.453314	0.161475	-0.000059
C38	C	0.786647	0.494809	0.333275
C39	C	1.119980	0.828142	0.666608
C40	C	0.514473	0.129090	-0.076098
C41	C	0.847806	0.462423	0.257235
C42	C	1.181140	0.795757	0.590568
C43	C	0.409462	0.094223	-0.000062
C44	C	0.742795	0.427556	0.333271
C45	C	1.076129	0.760889	0.666605
C46	C	0.514438	0.129088	0.075954
C47	C	0.847771	0.462421	0.409287
C48	C	1.181105	0.795754	0.742620
C49	C	0.574362	0.096667	-0.000050
C50	C	0.907695	0.430000	0.333283
C51	C	1.241028	0.763334	0.666617
C52	C	0.469393	0.061819	-0.076164
C53	C	0.802727	0.395152	0.257169
C54	C	1.136060	0.728486	0.590502
C55	C	0.469352	0.061826	0.075956
C56	C	0.802685	0.395159	0.409290
C57	C	1.136018	0.728493	0.742623
C58	C	0.530494	0.029392	-0.000102
C59	C	0.863827	0.362725	0.333231
C60	C	1.197161	0.696058	0.666565
C61	C	0.314467	0.092817	-0.000069
C62	C	0.647800	0.426150	0.333264
C63	C	0.981134	0.759483	0.666597
C64	C	0.669355	0.098068	-0.000049
C65	C	1.002689	0.431401	0.333284
C66	C	1.336022	0.764735	0.666618
C67	C	0.998511	-0.032206	-0.000045
C68	C	1.331844	0.301127	0.333289
C69	C	1.665177	0.634460	0.666622
C70	C	0.997135	-0.109714	-0.000045
C71	C	1.330469	0.223620	0.333288
C72	C	1.663802	0.556953	0.666622
C73	C	0.987337	-0.662988	0.084001
C74	C	1.320670	-0.329655	0.417334
C75	C	1.654004	0.003678	0.750667
C76	C	0.988620	-0.590161	0.084006
C77	C	1.321954	-0.256827	0.417339
C78	C	1.655287	0.076506	0.750672
C79	C	0.989278	-0.553748	-0.000060
C80	C	1.322611	-0.220415	0.333273
C81	C	1.655944	0.112919	0.666606
C82	C	0.988630	-0.590167	-0.084138
C83	C	1.321963	-0.256834	0.249195
C84	C	1.655297	0.076500	0.582529
C85	C	0.987338	-0.662992	-0.084141
C86	C	1.320672	-0.329659	0.249193
C87	C	1.654005	0.003674	0.582526
N88	N	1.039113	-0.444610	-0.062635
N89	N	1.372446	-0.111276	0.270699
N90	N	1.705780	0.222057	0.604032
N91	N	1.040342	-0.375429	-0.062626
N92	N	1.373675	-0.042095	0.270707
N93	N	1.707009	0.291238	0.604040
C94	C	0.993168	-0.334329	-0.000057
C95	C	1.326501	-0.000996	0.333276
C96	C	1.659835	0.332337	0.666609
N97	N	0.944729	-0.365026	0.062517
N98	N	1.278063	-0.031692	0.395851
N99	N	1.611396	0.301641	0.729184
N100	N	0.943504	-0.434213	0.062512
N101	N	1.276837	-0.100880	0.395845
N102	N	1.610171	0.232454	0.729178
C103	C	0.990678	-0.474781	-0.000067
C104	C	1.324011	-0.141448	0.333267
C105	C	1.657345	0.191885	0.666600
C106	C	0.995201	-0.218951	0.084020
C107	C	1.328535	0.114383	0.417354
C108	C	1.661868	0.447716	0.750687
C109	C	0.996479	-0.146121	0.084022
C110	C	1.329813	0.187212	0.417355
C111	C	1.663146	0.520545	0.750689
C112	C	0.996497	-0.146130	-0.084124
C113	C	1.329831	0.187203	0.249209
C114	C	1.663164	0.520537	0.582543
C115	C	0.995211	-0.218957	-0.084123
C116	C	1.328544	0.114376	0.249210
C117	C	1.661877	0.447709	0.582543
C118	C	0.994567	-0.255364	-0.000048
C119	C	1.327900	0.077970	0.333285
C120	C	1.661233	0.411303	0.666618
C121	C	1.145506	0.090330	-0.000060
C122	C	1.478839	0.423663	0.333274
C123	C	1.812173	0.756997	0.666607
C124	C	1.238749	0.091697	-0.000070
C125	C	1.572083	0.425031	0.333263
C126	C	1.905416	0.758364	0.666597
C127	C	0.985319	0.223094	-0.000060
C128	C	1.318652	0.556427	0.333273
C129	C	1.651985	0.889760	0.666607
C130	C	0.986694	0.300601	-0.000066
C131	C	1.320028	0.633935	0.333268
C132	C	1.653361	0.967268	0.666601
N133	N	0.991890	0.095466	0.219423
N134	N	1.325224	0.428799	0.552757
N135	N	1.658557	0.762133	0.886090
N136	N	0.991946	0.095416	-0.219526
N137	N	1.325279	0.428749	0.113807
N138	N	1.658612	0.762083	0.447141
C139	C	0.932067	0.145017	0.469076
C140	C	1.265401	0.478350	0.802410
C141	C	1.598734	0.811683	1.135743
C142	C	1.007919	0.158560	0.530875
C143	C	1.341252	0.491893	0.864208
C144	C	1.674586	0.825227	1.197541
C145	C	0.991911	0.095449	0.408585
C146	C	1.325244	0.428783	0.741918
C147	C	1.658578	0.762116	1.075252
C148	C	0.916079	0.081922	0.530880
C149	C	1.249412	0.415256	0.864214
C150	C	1.582745	0.748589	1.197547
C151	C	0.991924	0.095435	0.591306
C152	C	1.325257	0.428768	0.924640
C153	C	1.658591	0.762102	1.257973
C154	C	1.067801	0.109024	0.469023
C155	C	1.401134	0.442357	0.802356
C156	C	1.734467	0.775691	1.135689
C157	C	0.975911	0.032359	0.469023
C158	C	1.309244	0.365692	0.802356
C159	C	1.642577	0.699026	1.135689
C160	C	1.051817	0.045876	0.530793
C161	C	1.385151	0.379209	0.864127
C162	C	1.718484	0.712542	1.197460
C163	C	0.991902	0.095460	0.303324
C164	C	1.325235	0.428793	0.636657
C165	C	1.658569	0.762126	0.969990
C166	C	0.991941	0.095424	0.696565
C167	C	1.325275	0.428757	1.029899
C168	C	1.658608	0.762091	1.363232
H169	H	0.563878	-0.026471	-0.000139
H170	H	0.897211	0.306862	0.333195
H171	H	1.230545	0.640196	0.666528
F172	F	0.409477	0.234425	-0.000157
F173	F	0.742810	0.567758	0.333176
F174	F	1.076143	0.901092	0.666509
F175	F	0.540609	0.166260	-0.160131
F176	F	0.873942	0.499593	0.173202
F177	F	1.207275	0.832926	0.506535
F178	F	0.865987	0.199848	0.433652
F179	F	1.199320	0.533181	0.766985
F180	F	1.532654	0.866514	1.100319
H181	H	0.851943	0.070488	0.558054
H182	H	1.185277	0.403821	0.891387
H183	H	1.518610	0.737155	1.224721
F184	F	1.151650	0.124051	0.433661
F185	F	1.484984	0.457385	0.766994
F186	F	1.818317	0.790718	1.100327
H187	H	1.102486	0.003949	0.557722
H188	H	1.435819	0.337283	0.891055
H189	H	1.769152	0.670616	1.224388
H190	H	0.997001	-0.116477	0.152482
H191	H	1.330334	0.216856	0.485815
H192	H	1.663667	0.550190	0.819148
F193	F	0.997170	-0.107379	-0.173594
F194	F	1.330503	0.225954	0.159739
F195	F	1.663837	0.559288	0.493072
F196	F	0.958175	-0.037348	0.433482
F197	F	1.291509	0.295985	0.766815
F198	F	1.624842	0.629318	1.100148
F199	F	0.994533	-0.257710	-0.173600
F200	F	1.327867	0.075623	0.159734
F201	F	1.661200	0.408956	0.493067
H202	H	0.449529	0.033393	-0.140522
H203	H	0.782862	0.366727	0.192811
H204	H	1.116195	0.700060	0.526145
F205	F	0.443181	0.024685	0.159990
F206	F	0.776514	0.358018	0.493323
F207	F	1.109848	0.691351	0.826656
H208	H	0.994670	-0.248594	0.152479
H209	H	1.328003	0.084740	0.485812
H210	H	1.661336	0.418073	0.819146
H211	H	0.534399	0.157551	0.140237
H212	H	0.867732	0.490884	0.473570
H213	H	1.201066	0.824217	0.806904
H214	H	0.986812	-0.692626	0.152461
H215	H	1.320145	-0.359292	0.485794
H216	H	1.653478	-0.025959	0.819128
H217	H	0.989128	-0.560508	0.152465
H218	H	1.322462	-0.227174	0.485798
H219	H	1.655795	0.106159	0.819132
H220	H	0.989162	-0.560515	-0.152585
H221	H	1.322495	-0.227182	0.180748
H222	H	1.655829	0.106152	0.514082
F223	F	0.986655	-0.701744	-0.173620
F224	F	1.319988	-0.368411	0.159714
F225	F	1.653321	-0.035078	0.493047
F226	F	1.025625	0.228288	0.566386
F227	F	1.358959	0.561621	0.899720
F228	F	1.692292	0.894955	1.233053
