data_functionalizedCrystal
_audit_creation_method	'MofGen! by Chris Wilmer'
_symmetry_space_group_name_H-M	'P1'
_symmetry_Int_Tables_number	1
_symmetry_cell_setting	triclinic
loop_
_symmetry_equiv_pos_as_xyz
  x,y,z
_cell_length_a	14.044220
_cell_length_b	23.532407
_cell_length_c	13.101039
_cell_angle_alpha	93.336507
_cell_angle_beta	86.340132
_cell_angle_gamma	88.018778
loop_
_atom_site_label
_atom_site_type_symbol
_atom_site_fract_x
_atom_site_fract_y
_atom_site_fract_z
O1	O	1.261651	0.134360	-0.085125
O2	O	0.985730	0.129407	-0.085150
O3	O	1.132009	0.049404	-0.085118
O4	O	1.115371	0.214364	-0.085157
O5	O	1.121514	0.055154	0.085309
O6	O	0.975234	0.135158	0.085277
O7	O	1.251155	0.140111	0.085302
Zn8	Zn	1.111528	0.138547	0.112349
Zn9	Zn	1.125356	0.130971	-0.112197
O10	O	1.104875	0.220114	0.085270
C11	C	0.945188	0.130115	0.000061
C12	C	0.840024	0.123648	0.000052
C13	C	0.647472	0.111828	0.000075
C14	C	0.589407	0.157687	0.000068
C15	C	0.482265	0.151110	0.000081
C16	C	0.754624	0.118404	0.000062
C17	C	1.126338	0.031040	0.000098
C18	C	1.125063	-0.032246	0.000106
C19	C	1.203641	-0.427092	0.000057
C20	C	1.202458	-0.486556	0.000049
O21	O	1.275300	-0.519354	0.000018
N22	N	1.115494	-0.513896	0.000042
C23	C	1.029708	-0.481769	0.000032
O24	O	0.955630	-0.510484	0.000024
C25	C	1.030893	-0.422306	0.000033
C26	C	1.117862	-0.394968	0.000050
C27	C	1.290603	-0.399754	0.000073
C28	C	1.291786	-0.340294	0.000083
C29	C	1.206007	-0.308170	0.000077
C30	C	1.119045	-0.335508	0.000060
C31	C	0.945109	-0.390179	0.000016
C32	C	0.946301	-0.330712	0.000015
C33	C	1.033270	-0.303375	0.000033
C34	C	1.034448	-0.243924	0.000063
N35	N	1.121412	-0.216584	0.000070
C36	C	1.207191	-0.248707	0.000077
C37	C	1.027228	-0.606646	0.000029
C38	C	1.026042	-0.666108	0.000036
C39	C	1.198792	-0.670891	0.000051
C40	C	1.199977	-0.611428	0.000052
C41	C	1.114192	-0.579306	0.000036
C42	C	1.209668	-0.123835	0.000099
C43	C	1.210843	-0.064369	0.000113
C44	C	1.038093	-0.059591	0.000092
C45	C	1.036917	-0.119052	0.000084
C46	C	1.122713	-0.151173	0.000083
O47	O	0.961644	-0.211090	0.000090
O48	O	1.281258	-0.219985	0.000071
C49	C	1.291697	0.139403	0.000089
C50	C	1.396862	0.145869	0.000091
C51	C	1.110547	0.238478	0.000052
C52	C	1.111822	0.301763	0.000037
N53	N	1.102098	0.143718	0.265595
N54	N	1.134794	0.125796	-0.265443
C55	C	1.089267	0.150758	0.474635
C56	C	1.147622	0.118757	0.525524
C57	C	1.140483	0.122674	0.641841
C58	C	1.096405	0.146842	0.358308
H59	H	0.620163	0.201887	0.000053
H60	H	1.360460	-0.425903	0.000075
H61	H	1.033950	0.181096	0.518420
C62	C	0.606290	0.052941	0.000034
C63	C	0.506669	0.058042	0.000014
C64	C	0.468689	0.003808	-0.000043
H65	H	0.623515	0.034798	0.059449
H66	H	0.630870	0.030835	-0.059423
H67	H	0.482098	0.080139	0.059464
H68	H	0.489418	0.076175	-0.059397
H69	H	0.493268	-0.018298	-0.059499
H70	H	0.485920	-0.014331	0.059373
H71	H	0.401093	0.007262	-0.000066
C72	C	1.305171	-0.034583	0.000177
C73	C	1.287855	0.024370	0.000211
C74	C	1.374723	0.051825	0.000281
H75	H	1.344195	-0.047244	-0.059237
H76	H	1.336814	-0.043281	0.059634
H77	H	1.256226	0.033064	-0.059240
H78	H	1.248846	0.037048	0.059621
H79	H	1.406366	0.043127	0.059738
H80	H	1.413740	0.039160	-0.059134
H81	H	1.362985	0.091828	0.000314
C82	C	1.386313	-0.310726	0.000040
C83	C	1.461173	-0.351596	0.000015
C84	C	1.548270	-0.324385	-0.000041
H85	H	1.386852	-0.285631	0.059456
H86	H	1.394082	-0.289645	-0.059415
H87	H	1.453406	-0.372668	0.059465
H88	H	1.460665	-0.376694	-0.059396
H89	H	1.556039	-0.303304	-0.059496
H90	H	1.548799	-0.299290	0.059376
H91	H	1.599073	-0.352111	-0.000067
H92	H	1.270794	-0.589174	0.000065
C93	C	0.934123	-0.571750	-0.000182
C94	C	0.935132	-0.540435	-0.087875
C95	C	0.849377	-0.508293	-0.088113
H96	H	0.927243	-0.546407	0.059181
H97	H	0.882143	-0.596537	-0.000241
H98	H	0.987097	-0.515651	-0.087807
H99	H	0.941997	-0.565764	-0.147252
H100	H	0.797397	-0.533079	-0.088172
H101	H	0.842505	-0.482953	-0.028746
H102	H	0.850047	-0.487045	-0.147616
H103	H	1.268639	-0.697057	0.000052
C104	C	1.302914	-0.158602	0.000156
C105	C	1.379314	-0.121923	0.000200
C106	C	1.465224	-0.153928	0.000273
H107	H	1.309849	-0.183903	-0.059261
H108	H	1.302437	-0.179887	0.059610
H109	H	1.379792	-0.100648	-0.059248
H110	H	1.372411	-0.096622	0.059613
H111	H	1.464746	-0.175213	0.059728
H112	H	1.472148	-0.179228	-0.059145
H113	H	1.517070	-0.129046	0.000313
H114	H	0.955222	-0.688360	0.000039
C115	C	1.221427	0.078251	0.467328
C116	C	1.273851	0.049488	0.537142
C117	C	1.341839	0.012167	0.483566
H118	H	1.263351	0.099258	0.425467
H119	H	1.190054	0.051429	0.425500
H120	H	1.305223	0.076305	0.578953
H121	H	1.231953	0.028469	0.579006
H122	H	1.310466	-0.014654	0.441738
H123	H	1.383756	0.033179	0.441707
H124	H	1.377411	-0.007357	0.530926
C125	C	0.850700	-0.419875	0.000195
C126	C	0.839536	-0.450914	0.087880
C127	C	0.752569	-0.478270	0.088082
H128	H	0.850214	-0.445011	-0.059174
H129	H	0.799758	-0.392236	0.000239
H130	H	0.890464	-0.478549	0.087827
H131	H	0.840004	-0.425791	0.147262
H132	H	0.701627	-0.450631	0.088125
H133	H	0.752091	-0.503403	0.028709
H134	H	0.744978	-0.499329	0.147579
C135	C	0.853097	-0.295913	-0.000159
C136	C	0.806094	-0.311896	-0.087837
C137	C	0.720228	-0.279858	-0.088023
H138	H	0.866119	-0.256572	-0.000205
H139	H	0.813701	-0.302690	0.059236
H140	H	0.845482	-0.305115	-0.147216
H141	H	0.793048	-0.351231	-0.087809
H142	H	0.680832	-0.286634	-0.028629
H143	H	0.733260	-0.240518	-0.088067
H144	H	0.688322	-0.290701	-0.147506
H145	H	0.966099	-0.141310	0.000098
C146	C	0.945008	-0.024684	-0.000131
C147	C	0.946051	0.006630	-0.087825
C148	C	0.860314	0.038789	-0.088081
H149	H	0.938132	0.000660	0.059231
H150	H	0.893015	-0.049461	-0.000198
H151	H	0.998030	0.031404	-0.087749
H152	H	0.952912	-0.018700	-0.147201
H153	H	0.808320	0.014012	-0.088149
H154	H	0.853444	0.064130	-0.028716
H155	H	0.861006	0.060036	-0.147585
