data_functionalizedCrystal
_audit_creation_method	'MofGen! by Chris Wilmer'
_symmetry_space_group_name_H-M	'P1'
_symmetry_Int_Tables_number	1
_symmetry_cell_setting	triclinic
loop_
_symmetry_equiv_pos_as_xyz
  x,y,z
_cell_length_a	11.792241
_cell_length_b	15.944551
_cell_length_c	10.868271
_cell_angle_alpha	89.993912
_cell_angle_beta	89.999893
_cell_angle_gamma	83.846077
loop_
_atom_site_label
_atom_site_type_symbol
_atom_site_fract_x
_atom_site_fract_y
_atom_site_fract_z
O1	O	1.505960	0.115128	-0.102206
O2	O	1.175521	0.126993	-0.102235
O3	O	1.349764	-0.001173	-0.102208
O4	O	1.331717	0.243295	-0.102232
O5	O	1.349750	-0.001178	0.102436
O6	O	1.175507	0.126988	0.102410
O7	O	1.505946	0.115123	0.102439
Zn8	Zn	1.340724	0.121055	0.134916
Zn9	Zn	1.340743	0.121062	-0.134712
O10	O	1.331703	0.243290	0.102413
C11	C	1.133229	0.126245	0.000084
C12	C	1.007234	0.124015	0.000073
C13	C	1.349008	-0.032473	0.000114
C14	C	1.346761	-0.125729	0.000115
C15	C	0.776555	0.119913	0.000109
C16	C	0.904922	0.122192	0.000090
C17	C	1.233389	-0.341098	0.000088
C18	C	1.286028	-0.401880	0.100995
C19	C	1.342698	-0.296474	0.000105
C20	C	1.286068	-0.401858	-0.100769
C21	C	1.338765	-0.461404	0.000090
C22	C	1.395368	-0.356028	0.101095
C23	C	1.395392	-0.356000	-0.100759
C24	C	1.448111	-0.416764	0.000172
C25	C	1.344961	-0.201461	0.000114
C26	C	1.336511	-0.556415	0.000089
C27	C	1.548237	0.115871	0.000118
C28	C	1.674233	0.118102	0.000120
C29	C	1.332459	0.274590	0.000087
C30	C	1.334705	0.367846	0.000079
N31	N	1.340719	0.121050	0.318930
N32	N	1.340756	0.121060	-0.318726
C33	C	1.340737	0.121060	0.569936
C34	C	1.340723	0.121057	0.430259
H35	H	1.142657	-0.308200	0.000181
H36	H	1.441556	-0.335831	0.186497
H37	H	1.538922	-0.449513	0.000237
C38	C	1.457800	-0.328511	-0.215995
H39	H	1.418857	-0.344027	-0.287625
H40	H	1.533651	-0.355464	-0.216714
H41	H	1.459369	-0.269071	-0.214753
C42	C	1.223605	-0.429276	-0.216011
H43	H	1.274183	-0.466721	-0.263526
H44	H	1.198280	-0.381007	-0.263839
H45	H	1.159816	-0.457031	-0.191754
C46	C	1.223568	-0.429335	0.216224
H47	H	1.147291	-0.403179	0.216097
H48	H	1.261659	-0.412882	0.287879
H49	H	1.223198	-0.488886	0.215768
