data_functionalizedCrystal
_audit_creation_method	'MofGen! by Chris Wilmer'
_symmetry_space_group_name_H-M	'P1'
_symmetry_Int_Tables_number	1
_symmetry_cell_setting	triclinic
loop_
_symmetry_equiv_pos_as_xyz
  x,y,z
_cell_length_a	16.992694
_cell_length_b	14.044220
_cell_length_c	15.455313
_cell_angle_alpha	92.908275
_cell_angle_beta	87.142206
_cell_angle_gamma	91.928550
loop_
_atom_site_label
_atom_site_type_symbol
_atom_site_fract_x
_atom_site_fract_y
_atom_site_fract_z
O1	O	1.057683	0.198159	-0.072025
O2	O	1.557683	0.698159	0.427975
O3	O	0.829244	0.195941	-0.072050
O4	O	1.329244	0.695941	0.427950
O5	O	0.940034	0.058806	-0.072029
O6	O	1.440034	0.558806	0.427971
O7	O	0.946893	0.335294	-0.072046
O8	O	1.446893	0.835294	0.427954
O9	O	0.933696	0.066614	0.072232
O10	O	1.433696	0.566614	0.572232
O11	O	0.822906	0.203749	0.072211
O12	O	1.322906	0.703749	0.572211
O13	O	1.051345	0.205967	0.072236
O14	O	1.551345	0.705967	0.572236
Cu15	Cu	0.936547	0.205571	0.085396
Cu16	Cu	1.436547	0.705571	0.585396
Cu17	Cu	0.944042	0.196337	-0.085210
Cu18	Cu	1.444042	0.696337	0.414790
O19	O	0.940555	0.343102	0.072215
O20	O	1.440555	0.843102	0.572215
C21	C	0.796663	0.196993	0.000077
C22	C	1.296663	0.696993	0.500077
C23	C	0.709024	0.188484	0.000068
C24	C	1.209024	0.688484	0.500068
C25	C	0.933863	0.027168	0.000101
C26	C	1.433863	0.527168	0.500101
C27	C	0.924909	-0.078736	0.000101
C28	C	1.424909	0.421264	0.500101
C29	C	0.664526	0.270581	0.000063
C30	C	1.164526	0.770581	0.500063
C31	C	0.582179	0.262581	0.000076
C32	C	1.082179	0.762581	0.500076
C33	C	0.544332	0.172483	0.000086
C34	C	1.044332	0.672483	0.500086
C35	C	0.588836	0.090381	0.000093
C36	C	1.088836	0.590381	0.500093
C37	C	0.671181	0.098382	0.000087
C38	C	1.171181	0.598382	0.500087
C39	C	0.298414	0.139322	0.000112
C40	C	0.798414	0.639322	0.500112
C41	C	0.216063	0.131327	0.000115
C42	C	0.716063	0.631327	0.500115
C43	C	0.209411	0.303528	0.000100
C44	C	0.709411	0.803528	0.500100
C45	C	0.291759	0.311521	0.000088
C46	C	0.791759	0.811521	0.500088
C47	C	0.336255	0.229419	0.000099
C48	C	0.836255	0.729419	0.500099
N49	N	0.460161	0.164304	0.000096
N50	N	0.960161	0.664304	0.500096
N51	N	0.420425	0.237599	0.000096
N52	N	0.920425	0.737599	0.500096
C53	C	0.908540	-0.272638	0.000087
C54	C	1.408540	0.227362	0.500087
C55	C	0.972046	-0.325460	0.000092
C56	C	1.472046	0.174540	0.500092
C57	C	0.962938	-0.433354	0.000084
C58	C	1.462938	0.066646	0.500084
C59	C	0.917647	-0.164734	0.000095
C60	C	1.417647	0.335266	0.500095
C61	C	1.083926	0.204915	0.000107
C62	C	1.583926	0.704915	0.500107
C63	C	1.171565	0.213424	0.000111
C64	C	1.671565	0.713424	0.500111
C65	C	0.946726	0.374740	0.000083
C66	C	1.446726	0.874740	0.500083
C67	C	0.955680	0.480644	0.000077
C68	C	1.455680	0.980644	0.500077
N69	N	0.931281	0.212065	0.205390
N70	N	1.431281	0.712065	0.705390
N71	N	0.949314	0.189836	-0.205204
N72	N	1.449314	0.689836	0.294796
C73	C	0.978368	0.153829	0.250793
C74	C	1.478368	0.653829	0.750793
C75	C	0.974393	0.158750	0.341600
C76	C	1.474393	0.658750	0.841600
C77	C	0.923335	0.221911	0.387003
C78	C	1.423335	0.721911	0.887003
C79	C	0.876243	0.280149	0.341594
C80	C	1.376243	0.780149	0.841594
C81	C	0.880214	0.275223	0.250788
C82	C	1.380214	0.775223	0.750788
C83	C	0.906193	0.243148	0.658581
C84	C	1.406193	0.743148	1.158581
C85	C	0.902227	0.248072	0.749393
C86	C	1.402227	0.748072	1.249393
C87	C	1.000377	0.126671	0.749394
C88	C	1.500377	0.626671	1.249394
C89	C	1.004347	0.121754	0.658586
C90	C	1.504347	0.621754	1.158586
C91	C	0.957251	0.179989	0.613185
C92	C	1.457251	0.679989	1.113185
N93	N	0.919273	0.226945	0.479822
N94	N	1.419273	0.726945	0.979822
N95	N	0.961310	0.174950	0.520367
N96	N	1.461310	0.674950	1.020367
H97	H	0.545952	0.329433	0.000072
H98	H	1.045952	0.829433	0.500072
N99	N	0.855413	0.305963	0.609611
N100	N	1.355413	0.805963	1.109611
H101	H	0.819611	0.264837	0.571948
H102	H	1.319611	0.764837	1.071948
H103	H	0.822518	0.346719	0.652203
H104	H	1.322518	0.846719	1.152203
H105	H	0.847335	-0.308444	0.000078
H106	H	1.347335	0.191556	0.500078
H107	H	0.860647	0.299509	0.786355
H108	H	1.360647	0.799509	1.286355
H109	H	0.834666	0.331573	0.378565
H110	H	1.334666	0.831573	0.878565
N111	N	0.829432	0.338037	0.201810
N112	N	1.329432	0.838037	0.701810
H113	H	0.793633	0.296906	0.164148
H114	H	1.293633	0.796906	0.664148
H115	H	0.796535	0.378790	0.244402
H116	H	1.296535	0.878790	0.744402
N117	N	1.033443	0.085711	0.201827
N118	N	1.533443	0.585711	0.701827
H119	H	1.062668	0.049565	0.244372
H120	H	1.562668	0.549565	0.744372
H121	H	1.001969	0.039231	0.164161
H122	H	1.501969	0.539231	0.664161
H123	H	0.322568	0.384887	0.000070
H124	H	0.822568	0.884887	0.500070
N125	N	1.053130	-0.278045	0.000111
N126	N	1.553130	0.221955	0.500111
H127	H	1.062090	-0.239896	-0.053361
H128	H	1.562090	0.260104	0.446639
H129	H	1.057327	-0.234179	0.053630
H130	H	1.557327	0.265821	0.553630
N131	N	1.025210	0.095962	0.390559
N132	N	1.525210	0.595962	0.890559
H133	H	1.012120	0.026771	0.374770
H134	H	1.512120	0.526771	0.874770
H135	H	1.082586	0.110474	0.374705
H136	H	1.582586	0.610474	0.874705
N137	N	0.705337	0.367761	0.000045
N138	N	1.205337	0.867761	0.500045
H139	H	0.687210	0.406905	0.053521
H140	H	1.187210	0.906905	0.553521
H141	H	0.764246	0.360298	0.000005
H142	H	1.264246	0.860298	0.500005
N143	N	0.161420	0.392077	0.000089
N144	N	0.661420	0.892077	0.500089
H145	H	0.103512	0.373342	0.000095
H146	H	0.603512	0.873342	0.500095
H147	H	0.172020	0.433968	0.053565
H148	H	0.672020	0.933968	0.553565
H149	H	1.038719	0.079258	0.786368
H150	H	1.538719	0.579258	1.286368
N151	N	0.175240	0.034146	0.000121
N152	N	0.675240	0.534146	0.500121
H153	H	0.215923	-0.016652	0.000128
H154	H	0.715923	0.483348	0.500128
H155	H	0.138873	0.029975	0.053600
H156	H	0.638873	0.529975	0.553600
N157	N	1.059419	0.053630	0.609623
N158	N	1.559419	0.553630	1.109623
H159	H	1.115439	0.069745	0.625423
H160	H	1.615439	0.569745	1.125423
H161	H	1.044857	-0.013814	0.625457
H162	H	1.544857	0.486186	1.125457
N163	N	0.346401	0.050774	0.000129
N164	N	0.846401	0.550774	0.500129
H165	H	0.309927	-0.007514	0.000136
H166	H	0.809927	0.492486	0.500136
H167	H	0.383057	0.047439	-0.053348
H168	H	0.883057	0.547439	0.446652
H169	H	0.707411	0.031530	0.000090
H170	H	1.207411	0.531530	0.500090
N171	N	0.548020	-0.006797	0.000118
N172	N	1.048020	0.493203	0.500118
H173	H	0.489102	0.000590	0.000121
H174	H	0.989102	0.500590	0.500121
H175	H	0.566208	-0.045898	-0.053356
H176	H	1.066208	0.454102	0.446644
