data_functionalizedCrystal
_audit_creation_method	'MofGen! by Chris Wilmer'
_symmetry_space_group_name_H-M	'P1'
_symmetry_Int_Tables_number	1
_symmetry_cell_setting	triclinic
loop_
_symmetry_equiv_pos_as_xyz
  x,y,z
_cell_length_a	12.759401
_cell_length_b	10.685194
_cell_length_c	12.759393
_cell_angle_alpha	85.597537
_cell_angle_beta	89.982629
_cell_angle_gamma	94.377514
loop_
_atom_site_label
_atom_site_type_symbol
_atom_site_fract_x
_atom_site_fract_y
_atom_site_fract_z
Zn1	Zn	1.574233	-0.502342	-0.561903
Zn2	Zn	1.560682	-0.713409	-0.372745
Zn3	Zn	1.398535	-0.502405	-0.386239
Zn4	Zn	1.385080	-0.713316	-0.548392
O5	O	1.479633	-0.607868	-0.467320
O6	O	1.719456	-0.530354	-0.536818
O7	O	1.539132	-0.685484	-0.227510
O8	O	1.433144	-0.325798	-0.420843
O9	O	1.709500	-0.685423	-0.397845
O10	O	1.562229	-0.325752	-0.549903
O11	O	1.420003	-0.530460	-0.237423
O12	O	1.249730	-0.530370	-0.407741
O13	O	1.410213	-0.685265	-0.697210
O14	O	1.239845	-0.685325	-0.526875
O15	O	1.549182	-0.530263	-0.707136
O16	O	1.526086	-0.889995	-0.384743
O17	O	1.397072	-0.889927	-0.513791
C18	C	1.206667	-0.607845	-0.467307
C19	C	1.089889	-0.607866	-0.467324
C20	C	0.920167	-0.688693	-0.529249
C21	C	1.029892	-0.688679	-0.529239
C22	C	1.040155	-0.527071	-0.405407
C23	C	0.930431	-0.527092	-0.405412
C24	C	1.170358	-0.837537	-0.557048
C25	C	1.220089	-0.918317	-0.618976
C26	C	1.183269	-0.937847	-0.720217
C27	C	1.096721	-0.876578	-0.759553
C28	C	1.046996	-0.795788	-0.697632
C29	C	1.083813	-0.776282	-0.596375
C30	C	0.789963	-0.378233	-0.377614
C31	C	0.740237	-0.297436	-0.315697
C32	C	0.777055	-0.277893	-0.214455
C33	C	0.863608	-0.339140	-0.175124
C34	C	0.913335	-0.419938	-0.237041
C35	C	0.876509	-0.439482	-0.338282
C36	C	1.458677	-0.935751	-0.446360
C37	C	1.449808	-1.076021	-0.437428
C38	C	1.753664	-0.607892	-0.467333
C39	C	1.870440	-0.607902	-0.467339
C40	C	1.479708	-0.607747	-0.741361
C41	C	1.479741	-0.607695	-0.858141
C42	C	1.500699	-0.278705	-0.488385
C43	C	1.509676	-0.138435	-0.497362
C44	C	1.407404	-0.688366	-0.907838
C45	C	1.407444	-0.688320	-1.017565
C46	C	1.552162	-0.526919	-1.027889
C47	C	1.552125	-0.526973	-0.918163
C48	C	1.360429	-0.837074	-1.158001
C49	C	1.288077	-0.917734	-1.207703
C50	C	1.184311	-0.937116	-1.170852
C51	C	1.152878	-0.875820	-1.084302
C52	C	1.225225	-0.795150	-1.034607
C53	C	1.329004	-0.775792	-1.071455
C54	C	1.599130	-0.378217	-0.777726
C55	C	1.671473	-0.297540	-0.728029
C56	C	1.775242	-0.278145	-0.764878
C57	C	1.806672	-0.339420	-0.851433
C58	C	1.734329	-0.420097	-0.901130
C59	C	1.630562	-0.439493	-0.864273
C60	C	1.479623	-0.607898	-0.194350
C61	C	1.479817	-0.607594	-0.077594
H62	H	0.983813	-0.469805	-0.205010
Br63	Br	0.913589	-0.312612	-0.037724
Br64	Br	1.330735	-1.000923	-1.325157
H65	H	1.391754	-1.129902	-0.379283
H66	H	0.736566	-0.212089	-0.164049
Br67	Br	1.046769	-0.903065	-0.896969
H68	H	1.199632	-0.745239	-0.964143
Br69	Br	1.606417	-1.048644	-0.594289
H70	H	1.068377	-0.891595	-1.054313
Br71	Br	0.622779	-0.214300	-0.369081
H72	H	1.348458	-0.754088	-0.858971
Br73	Br	1.337547	-1.001459	-0.565596
Br74	Br	1.086120	-1.046580	-1.238309
H75	H	1.444925	-0.821314	-1.188005
Br76	Br	1.947505	-0.313102	-0.901449
H77	H	1.611093	-0.461197	-1.076773
H78	H	1.759927	-0.469984	-0.971611
H79	H	1.200335	-0.821658	-0.474604
H80	H	1.089012	-0.461277	-0.354989
H81	H	1.514634	-0.394007	-0.747711
H82	H	0.871325	-0.754494	-0.579674
Br83	Br	1.873420	-0.168642	-0.697438
Br84	Br	1.628816	-0.214375	-0.610563
H85	H	1.223768	-1.003620	-0.770639
Br86	Br	0.929548	-0.712637	-0.751006
H87	H	0.759976	-0.394140	-0.460054
