data_functionalizedCrystal
_audit_creation_method	'MofGen! by Chris Wilmer'
_symmetry_space_group_name_H-M	'P1'
_symmetry_Int_Tables_number	1
_symmetry_cell_setting	triclinic
loop_
_symmetry_equiv_pos_as_xyz
  x,y,z
_cell_length_a	10.686285
_cell_length_b	21.395364
_cell_length_c	21.395355
_cell_angle_alpha	89.974702
_cell_angle_beta	94.380557
_cell_angle_gamma	94.351827
loop_
_atom_site_label
_atom_site_type_symbol
_atom_site_fract_x
_atom_site_fract_y
_atom_site_fract_z
Zn1	Zn	-0.501911	-0.977079	0.335215
Zn2	Zn	-0.712880	-0.985061	0.222427
Zn3	Zn	-0.501973	-0.872297	0.230448
Zn4	Zn	-0.712909	-0.880344	0.327164
O5	O	-0.607418	-0.928695	0.278814
O6	O	-0.529859	-1.065815	0.320266
O7	O	-0.684917	-0.970075	0.135812
O8	O	-0.325396	-0.879489	0.251072
O9	O	-0.684857	-1.071678	0.237401
O10	O	-0.325351	-0.956472	0.328044
O11	O	-0.529964	-0.887228	0.141706
O12	O	-0.529992	-0.785688	0.243266
O13	O	-0.684906	-0.893203	0.415911
O14	O	-0.684966	-0.791600	0.314323
O15	O	-0.529887	-0.964275	0.421826
O16	O	-0.889453	-0.977878	0.229594
O17	O	-0.889474	-0.900942	0.306545
C18	C	-0.607490	-0.765910	0.278791
C19	C	-0.607551	-0.696271	0.278795
C20	C	-0.526978	-0.660532	0.322000
C21	C	-0.526948	-0.595096	0.322002
C22	C	-0.607514	-0.565402	0.278806
C23	C	-0.688093	-0.601149	0.235594
C24	C	-0.688111	-0.666584	0.235589
C25	C	-0.721151	-0.466029	0.269453
C26	C	-0.721134	-0.400595	0.269462
C27	C	-0.607457	-0.363579	0.278820
C28	C	-0.493793	-0.392004	0.288181
C29	C	-0.493811	-0.457438	0.288175
C30	C	-0.607503	-0.494449	0.278807
C31	C	-0.526845	-0.256886	0.322030
C32	C	-0.526813	-0.191448	0.322028
C33	C	-0.687970	-0.197502	0.235623
C34	C	-0.687990	-0.262939	0.235621
C35	C	-0.607430	-0.292626	0.278828
C36	C	-0.935246	-0.941166	0.266339
C37	C	-1.075491	-0.946559	0.261023
C38	C	-0.278311	-0.916192	0.291351
C39	C	-0.138065	-0.910864	0.296693
C40	C	-0.607393	-0.928746	0.442238
C41	C	-0.607382	-0.928768	0.511880
C42	C	-0.607363	-0.092116	0.278833
C43	C	-0.607379	-0.161758	0.278831
C44	C	-0.607353	-0.928677	0.116029
C45	C	-0.607008	-0.928763	0.046401
C46	C	-0.526660	-0.965773	0.547674
C47	C	-0.526606	-0.965770	0.613111
C48	C	-0.607296	-0.928770	0.642751
C49	C	-0.688024	-0.891757	0.606949
C50	C	-0.688067	-0.891756	0.541513
C51	C	-0.720910	-0.928144	0.742103
C52	C	-0.720869	-0.928150	0.807537
C53	C	-0.607163	-0.928768	0.844577
C54	C	-0.493494	-0.929395	0.816175
C55	C	-0.493537	-0.929394	0.750739
C56	C	-0.607258	-0.928766	0.713705
C57	C	-0.526375	-0.965772	0.951326
C58	C	-0.526319	-0.965765	1.016765
C59	C	-0.687748	-0.891755	1.010601
C60	C	-0.687793	-0.891759	0.945164
C61	C	-0.607108	-0.928771	0.915531
H62	H	-0.813687	-0.377457	0.261843
H63	H	-1.084346	-0.876180	0.331300
N64	N	-0.439550	-1.005692	0.651726
H65	H	-0.451770	-1.000077	0.697676
H66	H	-0.349442	-0.992523	0.643710
N67	N	-1.146643	-0.992497	0.215169
H68	H	-1.240105	-0.989964	0.217737
H69	H	-1.123570	-1.036365	0.225825
H70	H	-0.461240	-0.281058	0.357207
N71	N	-0.775027	-0.705138	0.188994
H72	H	-0.723671	-0.730332	0.161955
H73	H	-0.826047	-0.676363	0.161669
N74	N	-0.440053	-0.556541	0.368610
H75	H	-0.452270	-0.510583	0.362057
H76	H	-0.349908	-0.564561	0.362368
N77	N	-0.774768	-0.851844	1.042566
H78	H	-0.833212	-0.879526	1.067507
H79	H	-0.825834	-0.828406	1.009923
H80	H	-0.460959	-0.995910	0.523550
N81	N	-0.843768	-0.505950	0.259355
H82	H	-0.900339	-0.496722	0.293387
H83	H	-0.826423	-0.551699	0.260755
H84	H	-0.753798	-0.861619	0.512370
H85	H	-0.753690	-0.576967	0.200423
H86	H	-0.753533	-0.861629	0.916020
N87	N	-0.370949	-0.930071	0.720103
H88	H	-0.298905	-0.930465	0.753493
H89	H	-0.359268	-0.891452	0.693381
H90	H	-0.400903	-0.929900	0.846332
N91	N	-0.843462	-0.927479	0.838169
H92	H	-0.915500	-0.927079	0.804777
H93	H	-0.841639	-0.888806	0.865373
H94	H	-0.753607	-0.292038	0.200442
H95	H	-0.460670	-0.995906	0.927198
N96	N	-0.439227	-1.005667	1.055376
H97	H	-0.388121	-1.029110	1.026672
H98	H	-0.490545	-1.036612	1.080596
N99	N	-0.843559	-0.927485	0.702155
H100	H	-0.915560	-0.927098	0.730075
H101	H	-0.855259	-0.966109	0.674582
N102	N	-0.439881	-0.152905	0.368625
H103	H	-0.459615	-0.165058	0.412625
H104	H	-0.452114	-0.106958	0.362020
N105	N	-0.440089	-0.692553	0.368598
H106	H	-0.389040	-0.659979	0.395968
H107	H	-0.381625	-0.717477	0.345365
N108	N	-0.371228	-0.488098	0.298268
H109	H	-0.299206	-0.454724	0.304198
H110	H	-0.359412	-0.514780	0.260549
N111	N	-0.775034	-0.851844	0.638923
H112	H	-0.833480	-0.879524	0.663864
H113	H	-0.826097	-0.828400	0.606284
N114	N	-0.371172	-0.352089	0.298280
H115	H	-0.388402	-0.306323	0.296861
H116	H	-0.314656	-0.361374	0.264244
H117	H	-0.753568	-0.173326	0.200451
