data_functionalizedCrystal
_audit_creation_method	'MofGen! by Chris Wilmer'
_symmetry_space_group_name_H-M	'P1'
_symmetry_Int_Tables_number	1
_symmetry_cell_setting	triclinic
loop_
_symmetry_equiv_pos_as_xyz
  x,y,z
_cell_length_a	19.077105
_cell_length_b	10.686285
_cell_length_c	19.076929
_cell_angle_alpha	88.078523
_cell_angle_beta	90.078300
_cell_angle_gamma	83.162422
loop_
_atom_site_label
_atom_site_type_symbol
_atom_site_fract_x
_atom_site_fract_y
_atom_site_fract_z
Zn1	Zn	1.085488	-0.610571	-0.415454
Zn2	Zn	1.099185	-0.813521	-0.289650
Zn3	Zn	0.971957	-0.593675	-0.293938
Zn4	Zn	0.976968	-0.812749	-0.402434
O5	O	1.033400	-0.707629	-0.350369
O6	O	1.185967	-0.644887	-0.402420
O7	O	1.085943	-0.777609	-0.192164
O8	O	0.979188	-0.419297	-0.317301
O9	O	1.196030	-0.793993	-0.309992
O10	O	1.062599	-0.431711	-0.406578
O11	O	0.992469	-0.616089	-0.195314
O12	O	0.873960	-0.615341	-0.304676
O13	O	0.987729	-0.792678	-0.502216
O14	O	0.877642	-0.776294	-0.384387
O15	O	1.067458	-0.644139	-0.511782
O16	O	1.090803	-0.990037	-0.297367
O17	O	1.001010	-0.989470	-0.380229
C18	C	0.850220	-0.693901	-0.343585
C19	C	0.771855	-0.688060	-0.340698
C20	C	1.047955	-1.035551	-0.336936
C21	C	1.054246	-1.175844	-0.331215
C22	C	0.736982	-0.769232	-0.380767
C23	C	0.663350	-0.763728	-0.378059
C24	C	0.624591	-0.677056	-0.335276
C25	C	0.659469	-0.595875	-0.295205
C26	C	0.733100	-0.601374	-0.297918
C27	C	0.404169	-0.651603	-0.322724
C28	C	0.330533	-0.646112	-0.320013
C29	C	0.334419	-0.813964	-0.402868
C30	C	0.408052	-0.819461	-0.405573
C31	C	0.442923	-0.738276	-0.365505
N32	N	0.549327	-0.671429	-0.332505
N33	N	0.518185	-0.743897	-0.368281
C34	C	1.217295	-0.721411	-0.357180
C35	C	1.295661	-0.727284	-0.360083
C36	C	1.026624	-0.720207	-0.533134
C37	C	1.023737	-0.725568	-0.611018
C38	C	1.018806	-0.378429	-0.363870
C39	C	1.012588	-0.238143	-0.369624
C40	C	1.003038	-0.764113	-1.048884
C41	C	1.005747	-0.759058	-0.975704
C42	C	1.048617	-0.679201	-0.944098
C43	C	1.088773	-0.604386	-0.985676
C44	C	1.086060	-0.609435	-1.058854
C45	C	1.061180	-0.655801	-0.725774
C46	C	1.063893	-0.650760	-0.652590
C47	C	0.980865	-0.805432	-0.642624
C48	C	0.978159	-0.810479	-0.715803
C49	C	1.018313	-0.735659	-0.757375
N50	N	1.051389	-0.674035	-0.869297
N51	N	1.015536	-0.740819	-0.832175
C52	C	1.040185	-0.695011	-0.168320
C53	C	1.043193	-0.689306	-0.090456
H54	H	0.768535	-0.839814	-0.415603
H55	H	1.093881	-0.594884	-0.759613
Br56	Br	0.945119	-1.148158	-0.431730
Br57	Br	1.121706	-1.265832	-0.269094
H58	H	0.968132	-0.829146	-1.074611
Br59	Br	1.146932	-0.495970	-0.942784
Br60	Br	0.606868	-0.478235	-0.237150
Br61	Br	0.926371	-0.906963	-0.586202
H62	H	1.098801	-0.585724	-0.626860
Br63	Br	0.919988	-0.918880	-0.758692
H64	H	0.973057	-0.819988	-0.941859
H65	H	1.118756	-0.548514	-1.092702
H66	H	0.634960	-0.829828	-0.410687
Br67	Br	0.287092	-0.924143	-0.457240
Br68	Br	0.277933	-0.528491	-0.261939
Br69	Br	0.460649	-0.937099	-0.463633
Br70	Br	0.780427	-0.491201	-0.243540
Br71	Br	0.451484	-0.541415	-0.268350
