data_functionalizedCrystal
_audit_creation_method	'MofGen! by Chris Wilmer'
_symmetry_space_group_name_H-M	'P1'
_symmetry_Int_Tables_number	1
_symmetry_cell_setting	triclinic
loop_
_symmetry_equiv_pos_as_xyz
  x,y,z
_cell_length_a	16.625547
_cell_length_b	16.625546
_cell_length_c	19.076919
_cell_angle_alpha	92.269917
_cell_angle_beta	92.276735
_cell_angle_gamma	90.022405
loop_
_atom_site_label
_atom_site_type_symbol
_atom_site_fract_x
_atom_site_fract_y
_atom_site_fract_z
Zn1	Zn	1.214333	-0.339339	-0.398022
Zn2	Zn	1.219661	-0.468760	-0.280325
Zn3	Zn	1.084920	-0.333945	-0.280332
Zn4	Zn	1.079467	-0.474131	-0.397971
O5	O	1.149595	-0.404044	-0.339162
O6	O	1.327871	-0.356517	-0.382427
O7	O	1.206300	-0.446371	-0.181837
O8	O	1.102138	-0.221830	-0.295968
O9	O	1.331786	-0.451602	-0.295956
O10	O	1.197217	-0.225793	-0.382434
O11	O	1.107305	-0.347323	-0.181843
O12	O	0.971365	-0.352532	-0.295919
O13	O	1.092845	-0.460756	-0.496466
O14	O	0.967359	-0.455526	-0.382348
O15	O	1.191930	-0.361725	-0.496503
O16	O	1.201012	-0.582304	-0.295907
O17	O	1.098012	-0.586250	-0.382341
C18	C	0.940106	-0.404027	-0.339129
C19	C	0.850485	-0.404040	-0.339132
C20	C	0.777702	-0.404042	-0.339140
C21	C	0.686393	-0.404047	-0.339158
C22	C	0.613615	-0.404055	-0.339176
C23	C	0.522300	-0.404061	-0.339193
C24	C	1.149520	-0.613534	-0.339133
C25	C	1.149561	-0.703155	-0.339144
C26	C	1.149698	-1.031334	-0.339217
C27	C	1.149657	-0.940025	-0.339199
C28	C	1.149629	-0.867248	-0.339180
C29	C	1.149589	-0.775932	-0.339163
C30	C	1.359902	-0.404062	-0.339196
C31	C	1.449523	-0.404069	-0.339211
C32	C	1.141185	-0.412442	-0.522736
C33	C	1.137601	-0.416020	-0.600964
C34	C	1.149692	-0.193737	-0.339207
C35	C	1.149733	-0.104117	-0.339227
C36	C	1.187503	-0.366144	-0.637736
C37	C	1.184126	-0.369503	-0.711240
C38	C	1.130851	-0.422744	-0.747970
C39	C	1.080943	-0.472622	-0.711193
C40	C	1.084317	-0.469258	-0.637690
C41	C	1.115225	-0.438330	-0.967796
C42	C	1.111857	-0.441692	-1.041303
C43	C	1.215039	-0.338571	-1.041346
C44	C	1.218412	-0.335215	-0.967842
C45	C	1.168501	-0.385091	-0.931071
N46	N	1.127399	-0.426181	-0.823102
N47	N	1.171949	-0.381649	-0.855940
C48	C	1.158019	-0.395621	-0.156303
C49	C	1.161759	-0.391815	-0.078076
H50	H	1.230889	-0.322792	-0.607836
O51	O	1.029120	-0.524362	-0.746761
C52	C	0.927173	-0.626327	-0.738956
C53	C	0.985810	-0.567751	-0.698589
H54	H	0.892152	-0.661434	-0.700026
H55	H	0.883397	-0.590920	-0.773349
H56	H	0.962607	-0.670032	-0.773383
H57	H	0.950442	-0.524033	-0.664124
H58	H	1.029585	-0.603210	-0.664240
O59	O	1.066666	-0.486659	-0.932044
C60	C	0.961646	-0.493684	-0.848995
C61	C	1.016579	-0.438858	-0.889461
H62	H	0.921149	-0.455060	-0.814545
H63	H	0.922930	-0.532304	-0.887835
H64	H	1.000240	-0.534286	-0.814610
H65	H	0.978048	-0.398207	-0.923847
H66	H	1.055300	-0.400293	-0.850583
O67	O	1.035964	-0.517746	-0.601886
C68	C	1.028887	-0.622834	-0.518897
C69	C	1.083741	-0.567959	-0.559390
H70	H	1.067493	-0.663456	-0.484541
H71	H	0.988340	-0.584277	-0.484436
H72	H	0.990209	-0.661433	-0.557782
H73	H	1.122469	-0.529350	-0.520556
H74	H	1.124234	-0.606563	-0.593862
O75	O	1.263477	-0.290004	-1.076988
C76	C	1.301608	-0.153880	-1.099545
C77	C	1.246717	-0.208795	-1.059125
H78	H	1.288065	-0.088211	-1.085129
H79	H	1.367294	-0.167314	-1.085091
H80	H	1.290061	-0.165468	-1.158385
H81	H	1.258193	-0.197238	-1.000276
H82	H	1.181049	-0.195349	-1.073638
H83	H	1.224764	-0.328890	-0.741176
O84	O	1.270036	-0.283422	-0.932101
C85	C	1.284680	-0.170687	-0.849218
C86	C	1.226137	-0.229318	-0.889629
H87	H	1.249210	-0.126919	-0.814881
H88	H	1.328414	-0.206047	-0.814746
H89	H	1.319763	-0.135655	-0.888157
H90	H	1.191000	-0.264366	-0.850741
H91	H	1.182456	-0.193913	-0.924111
H92	H	1.068471	-0.485048	-1.071207
