data_functionalizedCrystal
_audit_creation_method	'MofGen! by Chris Wilmer'
_symmetry_space_group_name_H-M	'P1'
_symmetry_Int_Tables_number	1
_symmetry_cell_setting	triclinic
loop_
_symmetry_equiv_pos_as_xyz
  x,y,z
_cell_length_a	12.759401
_cell_length_b	19.805399
_cell_length_c	12.759400
_cell_angle_alpha	89.976763
_cell_angle_beta	90.014845
_cell_angle_gamma	89.984563
loop_
_atom_site_label
_atom_site_type_symbol
_atom_site_fract_x
_atom_site_fract_y
_atom_site_fract_z
Zn1	Zn	1.606224	-0.382665	-0.418286
Zn2	Zn	2.106224	0.117335	0.081714
Zn3	Zn	1.606128	-0.269486	-0.593979
Zn4	Zn	2.106128	0.230514	-0.093979
Zn5	Zn	1.430535	-0.269498	-0.418316
Zn6	Zn	1.930535	0.230502	0.081684
Zn7	Zn	1.430514	-0.382641	-0.593924
Zn8	Zn	1.930514	0.117359	-0.093924
O9	O	1.518350	-0.326072	-0.506126
O10	O	2.018350	0.173928	-0.006126
O11	O	1.753232	-0.367657	-0.441603
O12	O	2.253232	0.132343	0.058397
O13	O	1.582803	-0.174771	-0.570713
O14	O	2.082803	0.325229	-0.070713
O15	O	1.453890	-0.284526	-0.271291
O16	O	1.953890	0.215474	0.228709
O17	O	1.753161	-0.284504	-0.570684
O18	O	2.253161	0.215496	-0.070684
O19	O	1.582967	-0.367669	-0.271269
O20	O	2.082967	0.132331	0.228731
O21	O	1.453796	-0.174780	-0.441653
O22	O	1.953796	0.325220	0.058347
O23	O	1.283511	-0.284502	-0.441600
O24	O	1.783511	0.215498	0.058400
O25	O	1.453854	-0.477361	-0.570590
O26	O	1.953854	0.022639	-0.070590
O27	O	1.283496	-0.367627	-0.570618
O28	O	1.783496	0.132373	-0.070618
O29	O	1.582947	-0.477379	-0.441549
O30	O	2.082947	0.022621	0.058451
O31	O	1.582783	-0.284480	-0.740993
O32	O	2.082783	0.215520	-0.240993
O33	O	1.453761	-0.367615	-0.740953
O34	O	1.953761	0.132385	-0.240953
C35	C	1.245383	-0.326063	-0.506107
C36	C	1.745383	0.173937	-0.006107
C37	C	1.128606	-0.326075	-0.506124
C38	C	1.628606	0.173925	-0.006124
C39	C	1.518409	-0.502615	-0.506060
C40	C	2.018409	-0.002615	-0.006060
C41	C	1.518434	-0.577847	-0.506032
C42	C	2.018434	-0.077847	-0.006032
C43	C	1.073764	-0.369287	-0.573412
C44	C	1.573764	0.130713	-0.073412
C45	C	0.964040	-0.369295	-0.573425
C46	C	1.464040	0.130705	-0.073425
C47	C	0.964010	-0.282873	-0.438860
C48	C	1.464010	0.217127	0.061140
C49	C	1.073732	-0.282869	-0.438842
C50	C	1.573732	0.217131	0.061158
C51	C	1.073780	-0.419180	-0.651105
C52	C	1.573780	0.080820	-0.151105
C53	C	0.964056	-0.419188	-0.651118
C54	C	1.464056	0.080812	-0.151118
C55	C	1.585654	-0.613202	-0.438837
C56	C	2.085654	-0.113202	0.061163
C57	C	1.585665	-0.683890	-0.438807
C58	C	2.085665	-0.183890	0.061193
C59	C	1.518460	-0.719223	-0.505977
C60	C	2.018460	-0.219223	-0.005977
C61	C	1.451233	-0.683863	-0.573175
C62	C	1.951233	-0.183863	-0.073175
C63	C	1.451217	-0.613176	-0.573199
C64	C	1.951217	-0.113176	-0.073199
C65	C	1.451292	-0.968937	-0.573077
C66	C	1.951292	-0.468937	-0.073077
C67	C	1.451315	-1.039629	-0.573049
C68	C	1.951315	-0.539629	-0.073049
C69	C	1.585740	-1.039651	-0.438684
C70	C	2.085740	-0.539651	0.061316
C71	C	1.585724	-0.968964	-0.438709
C72	C	2.085724	-0.468964	0.061291
C73	C	1.518493	-0.933610	-0.505902
C74	C	2.018493	-0.433610	-0.005902
C75	C	1.518481	-0.856962	-0.505933
C76	C	2.018481	-0.356962	-0.005933
C77	C	1.518477	-0.795870	-0.505952
C78	C	2.018477	-0.295870	-0.005952
C79	C	1.792383	-0.326082	-0.506147
C80	C	2.292383	0.173918	-0.006147
C81	C	1.909160	-0.326086	-0.506155
C82	C	2.409160	0.173914	-0.006155
C83	C	1.518288	-0.326058	-0.779094
C84	C	2.018288	0.173942	-0.279094
C85	C	1.518357	-0.326075	-0.895870
C86	C	2.018357	0.173925	-0.395870
C87	C	1.518352	-0.150217	-0.506116
C88	C	2.018352	0.349783	-0.006116
C89	C	1.518530	-0.074985	-0.505849
C90	C	2.018530	0.425015	-0.005849
C91	C	1.585614	-0.282835	-0.950719
C92	C	2.085614	0.217165	-0.450719
C93	C	1.585678	-0.282856	-1.060443
C94	C	2.085678	0.217144	-0.560443
C95	C	1.451221	-0.369359	-1.060460
C96	C	1.951221	0.130641	-0.560460
C97	C	1.451163	-0.369341	-0.950738
C98	C	1.951163	0.130659	-0.450738
C99	C	1.663238	-0.232891	-0.950709
C100	C	2.163238	0.267109	-0.450709
C101	C	1.663303	-0.232912	-1.060433
C102	C	2.163303	0.267088	-0.560433
C103	C	1.518441	-0.326101	-0.232093
C104	C	2.018441	0.173899	0.267907
C105	C	1.518480	-0.326114	-0.115316
C106	C	2.018480	0.173886	0.384684
H107	H	1.118381	-0.247686	-0.384043
H108	H	1.618381	0.252314	0.115957
H109	H	1.103584	-0.471626	-0.629417
H110	H	1.603584	0.028374	-0.129417
H111	H	1.107796	-0.400314	-0.728353
H112	H	1.607796	0.099686	-0.228353
Br113	Br	1.676983	-1.087634	-0.347490
Br114	Br	2.176983	-0.587634	0.152510
H115	H	1.396584	-1.068395	-0.627750
H116	H	1.896584	-0.568395	-0.127750
Br117	Br	1.676946	-0.731870	-0.347659
Br118	Br	2.176946	-0.231870	0.152341
Br119	Br	1.798809	-0.256352	-0.900939
Br120	Br	2.298809	0.243648	-0.400939
Br121	Br	1.614672	-0.149870	-0.894099
Br122	Br	2.114672	0.350130	-0.394099
Br123	Br	1.359980	-0.565194	-0.664389
Br124	Br	1.859980	-0.065194	-0.164389
Br125	Br	1.792130	-0.264293	-1.117029
Br126	Br	2.292130	0.235707	-0.617029
H127	H	1.396564	-0.940160	-0.627805
H128	H	1.896564	-0.440160	-0.127805
H129	H	1.640453	-0.940200	-0.384015
H130	H	2.140453	-0.440200	0.115985
Br131	Br	1.627086	-0.145531	-1.110197
Br132	Br	2.127086	0.354469	-0.610197
Br133	Br	0.907372	-0.502241	-0.602726
Br134	Br	1.407372	-0.002241	-0.102726
H135	H	1.396510	-0.712637	-0.627862
H136	H	1.896510	-0.212637	-0.127862
Br137	Br	1.359903	-0.428039	-0.876303
Br138	Br	1.859903	0.071961	-0.376303
H139	H	1.396514	-0.404585	-1.105147
H140	H	1.896514	0.095415	-0.605147
H141	H	0.919318	-0.247696	-0.384081
H142	H	1.419318	0.252304	0.115919
H143	H	0.934261	-0.405058	-0.732465
H144	H	1.434261	0.094942	-0.232465
H145	H	1.640384	-0.584439	-0.384143
H146	H	2.140384	-0.084439	0.115857
