data_functionalizedCrystal
_audit_creation_method	'MofGen! by Chris Wilmer'
_symmetry_space_group_name_H-M	'P1'
_symmetry_Int_Tables_number	1
_symmetry_cell_setting	triclinic
loop_
_symmetry_equiv_pos_as_xyz
  x,y,z
_cell_length_a	14.908571
_cell_length_b	21.295417
_cell_length_c	14.908694
_cell_angle_alpha	93.263731
_cell_angle_beta	83.592472
_cell_angle_gamma	86.726349
loop_
_atom_site_label
_atom_site_type_symbol
_atom_site_fract_x
_atom_site_fract_y
_atom_site_fract_z
Zn1	Zn	1.413254	-0.331401	-0.591454
Zn2	Zn	1.404396	-0.430225	-0.440074
Zn3	Zn	1.253159	-0.318526	-0.431392
Zn4	Zn	1.261828	-0.430176	-0.582672
O5	O	1.333159	-0.377582	-0.511398
O6	O	1.538744	-0.349919	-0.578682
O7	O	1.376999	-0.410040	-0.312257
O8	O	1.274475	-0.232149	-0.452666
O9	O	1.532236	-0.422525	-0.467464
O10	O	1.392096	-0.241609	-0.570264
O11	O	1.265886	-0.327975	-0.305879
O12	O	1.127644	-0.327928	-0.444151
O13	O	1.289249	-0.422442	-0.710502
O14	O	1.134012	-0.409957	-0.555295
O15	O	1.400502	-0.349872	-0.716954
O16	O	1.385405	-0.518303	-0.458948
O17	O	1.280660	-0.518267	-0.563714
C18	C	1.097985	-0.367540	-0.497828
C19	C	0.997378	-0.363260	-0.492045
C20	C	0.814997	-0.440754	-0.596756
C21	C	0.720468	-0.436734	-0.591325
C22	C	0.713788	-0.351200	-0.475757
C23	C	0.808318	-0.355219	-0.481188
C24	C	0.858919	-0.399998	-0.541689
C25	C	0.953449	-0.404020	-0.547115
C26	C	0.946769	-0.318483	-0.431551
C27	C	0.852239	-0.314464	-0.426120
C28	C	1.333038	-0.541127	-0.511341
C29	C	1.333070	-0.611096	-0.511352
C30	C	1.387665	-0.643966	-0.456862
C31	C	1.387709	-0.709711	-0.456885
C32	C	1.333141	-0.742583	-0.511387
C33	C	1.278542	-0.709706	-0.565887
C34	C	1.278507	-0.643963	-0.565870
N35	N	1.254356	-0.842766	-0.513718
N36	N	1.254392	-0.905219	-0.513730
C37	C	1.333245	-0.940664	-0.511445
N38	N	1.412062	-0.911297	-0.509130
N39	N	1.412025	-0.848837	-0.509113
C40	C	1.333173	-0.813871	-0.511412
C41	C	1.387892	-1.044822	-0.456977
C42	C	1.387938	-1.110569	-0.457006
C43	C	1.278762	-1.110563	-0.566003
C44	C	1.278725	-1.044818	-0.565979
C45	C	1.333289	-1.011951	-0.511461
C46	C	1.569252	-0.387664	-0.525021
C47	C	1.669860	-0.391960	-0.530826
C48	C	1.346831	-0.387587	-0.747489
C49	C	1.352657	-0.391851	-0.848097
C50	C	1.333307	-0.213401	-0.511476
C51	C	1.333370	-0.143437	-0.511510
C52	C	1.247881	-0.314409	-1.030508
C53	C	1.253352	-0.318413	-1.125038
C54	C	1.369064	-0.403865	-1.131688
C55	C	1.363593	-0.399861	-1.037158
C56	C	1.303001	-0.355131	-0.986571
C57	C	1.297535	-0.351125	-0.892040
C58	C	1.413242	-0.436580	-0.898691
C59	C	1.418713	-0.440583	-0.993221
C60	C	1.319593	-0.367573	-0.276228
C61	C	1.313942	-0.363139	-0.175631
H62	H	0.672573	-0.314740	-0.426506
Br63	Br	1.165664	-0.253698	-0.961851
Br64	Br	1.204714	-1.155169	-0.639982
Br65	Br	1.500935	-0.501289	-1.061882
Br66	Br	1.204625	-1.000206	-0.639932
H67	H	1.432401	-1.137330	-0.412636
Br68	Br	1.215308	-0.290418	-0.823387
Br69	Br	0.783559	-0.253692	-0.344022
Br70	Br	1.178538	-0.263149	-1.184664
Br71	Br	1.451273	-0.464576	-1.200355
Br72	Br	1.461937	-1.000213	-0.382987
H73	H	1.458127	-0.469737	-0.862909
Br74	Br	1.204492	-0.754318	-0.639863
H75	H	0.982539	-0.285299	-0.386709
H76	H	0.994648	-0.440482	-0.596376
Br77	Br	1.461728	-0.599365	-0.382887
H78	H	0.684711	-0.469920	-0.636169
Br79	Br	0.883674	-0.501530	-0.678849
H80	H	1.432170	-0.736478	-0.412513
H81	H	1.234048	-0.617200	-0.610243
