data_functionalizedCrystal
_audit_creation_method	'MofGen! by Chris Wilmer'
_symmetry_space_group_name_H-M	'P1'
_symmetry_Int_Tables_number	1
_symmetry_cell_setting	triclinic
loop_
_symmetry_equiv_pos_as_xyz
  x,y,z
_cell_length_a	6.817900
_cell_length_b	15.300912
_cell_length_c	11.102193
_cell_angle_alpha	93.598979
_cell_angle_beta	108.604059
_cell_angle_gamma	104.173621
loop_
_atom_site_label
_atom_site_type_symbol
_atom_site_fract_x
_atom_site_fract_y
_atom_site_fract_z
V1	V	-4.088915	-0.124765	-0.396643
O2	O	-4.071632	0.005989	-0.388696
O3	O	-4.043481	-0.247381	-0.394312
O4	O	-4.066036	-0.122849	-0.569459
O5	O	-4.048921	-0.119406	-0.212336
V6	V	-4.568851	-0.109125	-0.374552
O7	O	-4.358040	-0.159072	-0.445101
O8	O	-4.749923	-0.074817	-0.326094
O9	O	-4.391078	0.013492	-0.376883
O10	O	-4.703530	-0.239878	-0.382499
O11	O	-4.726241	-0.114484	-0.558859
O12	O	-4.368523	-0.111041	-0.201736
C13	C	-3.888377	-0.277272	-0.388153
C14	C	-3.932687	-0.377513	-0.387399
C15	C	-4.306807	-0.813878	-0.390508
C16	C	-4.265154	-0.719690	-0.391208
C17	C	-4.061150	-0.668009	-0.385210
C18	C	-3.898783	-0.710520	-0.378498
C19	C	-3.940433	-0.804705	-0.377789
C20	C	-3.811985	-0.514209	-0.379980
C21	C	-3.770333	-0.420018	-0.380691
C22	C	-4.136707	-0.429194	-0.393399
C23	C	-4.178357	-0.523379	-0.392690
C24	C	-4.015987	-0.565883	-0.385981
C25	C	-3.917147	-0.118417	-0.611569
C26	C	-3.979745	-0.117662	-0.752849
C27	C	-4.070157	-0.282819	-0.789686
C28	C	-4.144763	-0.365038	-0.874476
C29	C	-4.203578	-0.364324	-1.007220
C30	C	-4.187790	-0.281380	-1.055175
C31	C	-4.113184	-0.199160	-0.970385
C32	C	-4.054366	-0.199884	-0.837640
C33	C	-4.022788	-0.034006	-0.933548
C34	C	-3.963957	-0.034719	-0.800804
C35	C	-4.007000	0.048937	-0.981503
C36	C	-3.932378	0.131159	-0.896712
C37	C	-3.873559	0.130441	-0.763961
C38	C	-3.889351	0.047501	-0.716014
C39	C	-4.209523	0.043378	-0.383039
C40	C	-4.144453	0.143618	-0.383801
C41	C	-4.180753	-0.115475	-0.159620
C42	C	-4.097394	-0.116226	-0.018338
H43	H	-3.808230	-0.839312	-0.372338
Cl44	Cl	-4.261768	-0.280485	-1.222056
H45	H	-3.732672	-0.668433	-0.373606
H46	H	-3.812822	0.197395	-0.694931
H47	H	-4.157617	-0.432570	-0.835417
Cl48	Cl	-3.513867	-0.355049	-0.373150
Cl49	Cl	-4.297386	-0.467686	-1.113817
Cl50	Cl	-3.996179	-0.283723	-0.622807
Cl51	Cl	-4.080951	0.049836	-1.148383
Cl52	Cl	-4.563285	-0.878839	-0.398059
Cl53	Cl	-4.469250	-0.666255	-0.399602
Cl54	Cl	-3.912552	0.235419	-0.957006
H55	H	-3.841449	0.046909	-0.607929
Cl56	Cl	-3.607861	-0.567642	-0.371550
H57	H	-4.344477	-0.565456	-0.397584
H58	H	-4.268911	-0.394582	-0.398859
