data_functionalizedCrystal
_audit_creation_method	'MofGen! by Chris Wilmer'
_symmetry_space_group_name_H-M	'P1'
_symmetry_Int_Tables_number	1
_symmetry_cell_setting	triclinic
loop_
_symmetry_equiv_pos_as_xyz
  x,y,z
_cell_length_a	8.497374
_cell_length_b	8.497374
_cell_length_c	16.625548
_cell_angle_alpha	89.995408
_cell_angle_beta	90.003948
_cell_angle_gamma	90.000926
loop_
_atom_site_label
_atom_site_type_symbol
_atom_site_fract_x
_atom_site_fract_y
_atom_site_fract_z
Zn1	Zn	0.892124	-0.628271	1.232706
Zn2	Zn	0.628366	-0.892021	1.232714
Zn3	Zn	0.628343	-0.628254	1.097907
Zn4	Zn	0.892089	-0.892008	1.097904
O5	O	0.760231	-0.760138	1.165308
O6	O	0.857160	-0.663271	1.345539
O7	O	0.407600	-0.857030	1.214836
O8	O	0.663340	-0.407494	1.115786
O9	O	0.663378	-0.857047	1.345546
O10	O	0.857139	-0.407507	1.214822
O11	O	0.407584	-0.663241	1.115794
O12	O	0.663306	-0.663228	0.985074
O13	O	1.112856	-0.857025	1.115781
O14	O	0.857078	-0.857008	0.985072
O15	O	1.112882	-0.663259	1.214819
O16	O	0.663343	-1.112782	1.214834
O17	O	0.857100	-1.112772	1.115790
C18	C	0.760186	-0.760116	0.955817
C19	C	0.760205	-0.760144	0.866196
C20	C	1.350351	-0.760164	1.165312
C21	C	1.171707	-0.760156	1.165304
C22	C	0.760225	-0.170018	1.165305
C23	C	0.760234	-0.348662	1.165309
C24	C	0.760272	-0.760155	0.538020
C25	C	0.760249	-0.760147	0.629329
C26	C	0.760237	-0.760150	0.702105
C27	C	0.760216	-0.760141	0.793419
C28	C	0.760276	-0.760162	1.375617
C29	C	0.760295	-0.760172	1.465238
