data_functionalizedCrystal
_audit_creation_method	'MofGen! by Chris Wilmer'
_symmetry_space_group_name_H-M	'P1'
_symmetry_Int_Tables_number	1
_symmetry_cell_setting	triclinic
loop_
_symmetry_equiv_pos_as_xyz
  x,y,z
_cell_length_a	15.995350
_cell_length_b	19.188930
_cell_length_c	14.472310
_cell_angle_alpha	89.993787
_cell_angle_beta	89.990621
_cell_angle_gamma	83.318578
loop_
_atom_site_label
_atom_site_type_symbol
_atom_site_fract_x
_atom_site_fract_y
_atom_site_fract_z
O1	O	1.110667	0.089991	-0.076773
O2	O	0.866851	0.101105	-0.076794
O3	O	0.995795	-0.006090	-0.076765
O4	O	0.981723	0.197186	-0.076802
O5	O	0.995762	-0.006083	0.076917
O6	O	0.866818	0.101111	0.076888
O7	O	1.110634	0.089998	0.076909
Cu8	Cu	0.988723	0.095555	0.090931
Cu9	Cu	0.988762	0.095547	-0.090816
O10	O	0.981690	0.197192	0.076880
C11	C	0.835641	0.100648	0.000045
C12	C	0.742696	0.099271	0.000038
C13	C	0.404967	0.094324	0.000058
C14	C	0.452680	0.017982	0.000415
C15	C	0.549365	0.019360	0.000062
C16	C	0.572518	0.096778	0.000049
C17	C	0.531312	0.134429	-0.087714
C18	C	0.434683	0.132511	-0.087781
C19	C	0.434301	0.134095	0.086984
C20	C	0.531246	0.134077	0.088137
C21	C	0.667211	0.098169	0.000040
C22	C	0.310274	0.092936	0.000060
C23	C	0.995323	-0.032099	0.000079
C24	C	0.993955	-0.109607	0.000087
C25	C	1.069615	-0.154338	0.000097
C26	C	1.068330	-0.227165	0.000082
C27	C	0.991380	-0.255258	0.000075
C28	C	0.915710	-0.210517	0.000059
C29	C	0.916997	-0.137691	0.000065
N30	N	0.932550	-0.363410	0.052371
N31	N	0.931332	-0.432592	0.052368
C32	C	0.987497	-0.474676	0.000056
N33	N	1.044938	-0.444967	-0.052240
N34	N	1.046158	-0.375779	-0.052233
C35	C	0.989976	-0.334224	0.000069
C36	C	1.061769	-0.598375	0.000050
C37	C	1.060480	-0.671204	0.000029
C38	C	0.907859	-0.654553	0.000015
C39	C	0.909149	-0.581727	0.000027
C40	C	0.986106	-0.553643	0.000048
C41	C	1.141843	0.090454	0.000068
C42	C	1.234789	0.091831	0.000069
C43	C	0.982162	0.223201	0.000034
C44	C	0.983530	0.300709	0.000020
N45	N	0.988701	0.095560	0.218762
N46	N	0.988790	0.095537	-0.218647
C47	C	0.988761	0.095545	0.592853
C48	C	0.919535	0.152710	0.553672
C49	C	0.919694	0.152918	0.446584
C50	C	0.988731	0.095552	0.407262
C51	C	1.076037	0.111464	0.446103
C52	C	1.075648	0.111870	0.553224
C53	C	0.971460	0.022298	0.553394
C54	C	0.969454	0.022787	0.446266
C55	C	0.988719	0.095555	0.302374
C56	C	0.988778	0.095543	0.697741
H57	H	0.577889	-0.010236	0.062975
H58	H	0.905232	0.010711	0.420881
O59	O	0.824859	-0.684841	0.000012
H60	H	0.836673	-0.742996	0.000016
O61	O	0.827544	-0.533473	0.000038
H62	H	0.773819	-0.565240	0.000042
H63	H	0.558650	0.106592	0.153064
O64	O	0.551323	0.208860	0.095161
H65	H	0.591202	0.220665	0.035706
H66	H	1.016620	-0.021746	0.419504
H67	H	0.854420	0.143386	0.579456
H68	H	0.577346	-0.010441	-0.062950
O69	O	0.933924	0.224309	0.589290
H70	H	0.990167	0.219357	0.634776
O71	O	0.407212	0.101032	0.175099
H72	H	0.365612	0.140425	0.215084
O73	O	0.888962	0.002040	0.589204
H74	H	0.859368	0.043957	0.635531
O75	O	0.832716	-0.240817	0.000059
H76	H	0.796387	-0.222851	-0.062586
O77	O	1.038322	-0.034058	0.586962
H78	H	1.083662	-0.010063	0.631532
O79	O	0.428275	-0.022437	0.083786
H80	H	0.399920	-0.069594	0.060681
O81	O	0.410575	0.096122	-0.174656
H82	H	0.467906	0.080055	-0.216224
O83	O	1.142093	-0.719450	0.000037
H84	H	1.128271	-0.774810	0.000017
O85	O	1.144767	-0.568075	0.000054
H86	H	1.197164	-0.611418	0.000041
O87	O	0.569029	0.099778	-0.174222
H88	H	0.598954	0.138772	-0.215670
O89	O	0.833718	0.140376	0.411788
H90	H	0.791651	0.134109	0.471474
O91	O	0.835387	-0.089442	0.000071
H92	H	0.798555	-0.099420	-0.062567
O93	O	0.391685	0.206749	-0.093089
H94	H	0.439937	0.243859	-0.095603
H95	H	0.545229	0.191306	-0.090987
O96	O	0.391950	0.208650	0.087775
H97	H	0.350207	0.217371	0.026595
H98	H	1.132280	-0.131477	0.000112
H99	H	1.129943	-0.263592	0.000087
H100	H	0.930714	0.207273	0.420941
O101	O	1.095895	0.182625	0.586309
H102	H	1.105867	0.216231	0.525797
H103	H	1.128770	0.070935	0.420631
H104	H	1.091696	0.164273	0.419257
O105	O	0.426890	-0.022268	-0.082469
H106	H	0.380239	0.011864	-0.123919
O107	O	1.145915	0.058824	0.587567
H108	H	1.180027	0.032999	0.527661
