data_functionalizedCrystal
_audit_creation_method	'MofGen! by Chris Wilmer'
_symmetry_space_group_name_H-M	'P1'
_symmetry_Int_Tables_number	1
_symmetry_cell_setting	triclinic
loop_
_symmetry_equiv_pos_as_xyz
  x,y,z
_cell_length_a	18.101395
_cell_length_b	21.395362
_cell_length_c	21.395356
_cell_angle_alpha	90.035878
_cell_angle_beta	89.974602
_cell_angle_gamma	89.953017
loop_
_atom_site_label
_atom_site_type_symbol
_atom_site_fract_x
_atom_site_fract_y
_atom_site_fract_z
Zn1	Zn	-0.294531	-0.957808	-0.354598
Zn2	Zn	-0.418375	-0.957724	-0.249825
Zn3	Zn	-0.294586	-0.853038	-0.249799
Zn4	Zn	-0.418369	-0.852991	-0.354530
O5	O	-0.356465	-0.905390	-0.302188
O6	O	-0.310938	-1.045475	-0.340739
O7	O	-0.401980	-0.943822	-0.162144
O8	O	-0.190946	-0.866990	-0.263718
O9	O	-0.401926	-1.045413	-0.263763
O10	O	-0.190905	-0.943964	-0.340713
O11	O	-0.311033	-0.866909	-0.162125
O12	O	-0.311027	-0.765354	-0.263652
O13	O	-0.401916	-0.866911	-0.442217
O14	O	-0.401970	-0.765320	-0.340598
O15	O	-0.310933	-0.943919	-0.442267
O16	O	-0.522007	-0.943777	-0.263697
O17	O	-0.522003	-0.866830	-0.340623
C18	C	-0.548876	-0.905306	-0.302170
C19	C	-0.631190	-0.905328	-0.302183
C20	C	-0.356505	-0.742603	-0.302115
C21	C	-0.356539	-0.672961	-0.302099
C22	C	-0.356418	-0.905419	-0.465611
C23	C	-0.356397	-0.905432	-0.535253
C24	C	-0.930281	-0.905465	-0.302216
C25	C	-0.898984	-0.857165	-0.350736
C26	C	-0.813366	-0.856935	-0.350585
C27	C	-0.781898	-0.905397	-0.302200
C28	C	-0.813053	-0.887524	-0.236161
C29	C	-0.898698	-0.887213	-0.236451
C30	C	-0.898604	-0.971745	-0.319154
C31	C	-0.812953	-0.971355	-0.320602
C32	C	-0.698039	-0.905360	-0.302187
C33	C	-1.014140	-0.905501	-0.302225
C34	C	-0.163303	-0.905492	-0.302220
C35	C	-0.080989	-0.905535	-0.302234
C36	C	-0.356427	-1.068814	-0.302261
C37	C	-0.356410	-1.138455	-0.302293
C38	C	-0.403956	-0.640247	-0.342105
C39	C	-0.403938	-0.574812	-0.342133
C40	C	-0.356511	-0.542093	-0.302144
C41	C	-0.309085	-0.574815	-0.262135
C42	C	-0.309099	-0.640250	-0.262113
C43	C	-0.350556	-0.438376	-0.245738
C44	C	-0.350547	-0.372943	-0.245760
C45	C	-0.356462	-0.340272	-0.302213
C46	C	-0.362402	-0.373042	-0.358647
C47	C	-0.362417	-0.438477	-0.358624
C48	C	-0.356490	-0.471141	-0.302164
C49	C	-0.403862	-0.236605	-0.342252
C50	C	-0.403839	-0.171169	-0.342281
C51	C	-0.308989	-0.171174	-0.262278
C52	C	-0.309009	-0.236609	-0.262255
C53	C	-0.356449	-0.269321	-0.302241
C54	C	-0.308904	-0.945589	-1.037076
C55	C	-0.308922	-0.945584	-0.971640
C56	C	-0.356299	-0.905485	-0.938891
C57	C	-0.403675	-0.865400	-0.971583
C58	C	-0.403661	-0.865411	-1.037017
C59	C	-0.362182	-0.849016	-0.835196
C60	C	-0.362191	-0.849005	-0.769763
C61	C	-0.356346	-0.905453	-0.737070
C62	C	-0.350477	-0.961915	-0.769818
C63	C	-0.350463	-0.961926	-0.835253
C64	C	-0.356320	-0.905470	-0.867939
C65	C	-0.308996	-0.945534	-0.633434
C66	C	-0.309019	-0.945530	-0.567997
C67	C	-0.403768	-0.865341	-0.567941
C68	C	-0.403749	-0.865350	-0.633376
C69	C	-0.356359	-0.905446	-0.666119
C70	C	-0.356459	-0.905397	-0.139400
C71	C	-0.356271	-0.905507	-0.069760
H72	H	-0.792300	-0.868117	-0.399551
C73	C	-0.926677	-0.932670	-0.185948
H74	H	-0.979160	-0.932791	-0.185786
H75	H	-0.909085	-0.919685	-0.146187
H76	H	-0.909052	-0.973582	-0.194721
H77	H	-0.792587	-0.984834	-0.369204
H78	H	-0.919530	-0.868236	-0.399862
H79	H	-0.791526	-1.009245	-0.287841
H80	H	-0.442450	-0.144534	-0.374862
C81	C	-0.928156	-0.791198	-0.335768
H82	H	-0.959324	-0.792965	-0.300076
H83	H	-0.955406	-0.775803	-0.370436
H84	H	-0.887730	-0.764132	-0.327542
H85	H	-0.442487	-0.263241	-0.374814
H86	H	-0.792959	-0.807807	-0.339363
C87	C	-0.455850	-0.821259	-0.669333
H88	H	-0.449062	-0.827013	-0.712993
H89	H	-0.445033	-0.779164	-0.658595
H90	H	-0.505609	-0.830411	-0.658601
C91	C	-0.785516	-0.933547	-0.185987
H92	H	-0.754697	-0.964143	-0.204914
H93	H	-0.826619	-0.953468	-0.166906
H94	H	-0.758226	-0.911422	-0.155192
C95	C	-0.256811	-0.135192	-0.218299
H96	H	-0.263593	-0.091535	-0.224042
H97	H	-0.207073	-0.145972	-0.227544
H98	H	-0.267584	-0.145861	-0.176177
H99	H	-0.442234	-0.832770	-1.063628
H100	H	-0.366942	-0.803046	-0.861809
H101	H	-0.442346	-0.832694	-0.541277
H102	H	-0.366969	-0.803030	-0.743105
C103	C	-0.256915	-0.989622	-0.532042
H104	H	-0.263715	-0.983879	-0.488382
H105	H	-0.207158	-0.980474	-0.542771
H106	H	-0.267738	-1.031719	-0.542785
C107	C	-0.256914	-0.538831	-0.218148
H108	H	-0.228671	-0.567689	-0.194321
H109	H	-0.285194	-0.513255	-0.190814
H110	H	-0.224677	-0.513356	-0.242177
C111	C	-0.925867	-1.020346	-0.271374
H112	H	-0.956416	-1.000378	-0.241253
H113	H	-0.884629	-1.038816	-0.251057
H114	H	-0.953372	-1.051816	-0.292324
H115	H	-0.442250	-0.832753	-0.944914
H116	H	-0.442584	-0.666877	-0.374665
H117	H	-0.918757	-0.838762	-0.222106
C118	C	-0.784198	-0.822762	-0.216436
H119	H	-0.753174	-0.806530	-0.248352
H120	H	-0.756862	-0.826512	-0.178733
H121	H	-0.824765	-0.795284	-0.210067
C122	C	-0.256808	-0.989668	-0.935681
H123	H	-0.228578	-1.013545	-0.964553
H124	H	-0.285125	-1.016952	-0.910156
H125	H	-0.224556	-0.965698	-0.910156
C126	C	-0.927702	-0.993760	-0.383102
H127	H	-0.959444	-0.962730	-0.400071
H128	H	-0.954324	-1.031665	-0.378044
H129	H	-0.887283	-1.000449	-0.410651
C130	C	-0.456055	-0.538818	-0.386177
H131	H	-0.484299	-0.567672	-0.409996
H132	H	-0.427723	-0.513361	-0.413514
H133	H	-0.488295	-0.513224	-0.362198
C134	C	-0.368947	-0.474524	-0.420694
H135	H	-0.368114	-0.518172	-0.412592
H136	H	-0.328702	-0.463863	-0.447116
H137	H	-0.414066	-0.463783	-0.440663
H138	H	-0.345715	-1.007881	-0.743201
C139	C	-0.256942	-0.676240	-0.218104
H140	H	-0.263742	-0.719895	-0.223820
H141	H	-0.267709	-0.665465	-0.175994
H142	H	-0.207193	-0.665570	-0.227358
C143	C	-0.368907	-0.337114	-0.420749
H144	H	-0.368039	-0.293450	-0.412683
H145	H	-0.414024	-0.347816	-0.440714
H146	H	-0.328659	-0.347901	-0.447158
H147	H	-0.270408	-0.978182	-0.660095
H148	H	-0.270401	-0.263246	-0.229675
C149	C	-0.344012	-0.336902	-0.183686
H150	H	-0.340476	-0.365730	-0.150063
H151	H	-0.386438	-0.311335	-0.178119
H152	H	-0.301075	-0.311414	-0.184578
C153	C	-0.344019	-1.024027	-0.871276
H154	H	-0.344844	-1.015945	-0.914928
H155	H	-0.384300	-1.050360	-0.860556
H156	H	-0.298927	-1.044084	-0.860576
H157	H	-0.345736	-0.464972	-0.199764
H158	H	-0.270319	-0.978241	-1.063731
