data_functionalizedCrystal
_audit_creation_method	'MofGen! by Chris Wilmer'
_symmetry_space_group_name_H-M	'P1'
_symmetry_Int_Tables_number	1
_symmetry_cell_setting	triclinic
loop_
_symmetry_equiv_pos_as_xyz
  x,y,z
_cell_length_a	12.837943
_cell_length_b	23.532407
_cell_length_c	11.295483
_cell_angle_alpha	94.064566
_cell_angle_beta	85.461227
_cell_angle_gamma	88.838809
loop_
_atom_site_label
_atom_site_type_symbol
_atom_site_fract_x
_atom_site_fract_y
_atom_site_fract_z
O1	O	1.380948	0.144513	-0.099028
O2	O	1.079219	0.137204	-0.099034
O3	O	1.239181	0.058450	-0.099009
O4	O	1.220986	0.223267	-0.099053
O5	O	1.225131	0.065355	0.099039
O6	O	1.065169	0.144109	0.099014
O7	O	1.366899	0.151419	0.099020
Cu8	Cu	1.214751	0.148394	0.117101
Cu9	Cu	1.231366	0.140228	-0.117115
O10	O	1.206937	0.230173	0.098995
C11	C	1.033599	0.138187	-0.000010
C12	C	0.918597	0.130823	-0.000012
C13	C	0.676728	0.219356	-0.000018
C14	C	0.568673	0.212439	-0.000018
C15	C	0.594431	0.110073	-0.000004
C16	C	0.702485	0.116990	-0.000004
C17	C	0.743630	0.171633	-0.000013
C18	C	0.851687	0.178549	-0.000021
C19	C	0.877442	0.076184	0.000002
C20	C	0.769387	0.069267	0.000002
C21	C	1.231692	0.040660	0.000018
C22	C	1.230298	-0.022637	0.000027
C23	C	1.316228	-0.416812	-0.000037
C24	C	1.314934	-0.476287	-0.000046
O25	O	1.394590	-0.508463	-0.000088
N26	N	1.219836	-0.504370	-0.000047
C27	C	1.126025	-0.472975	-0.000051
O28	O	1.045018	-0.502323	-0.000053
C29	C	1.127321	-0.413501	-0.000050
C30	C	1.222424	-0.385421	-0.000037
C31	C	1.411324	-0.388732	-0.000025
C32	C	1.412617	-0.329261	-0.000014
C33	C	1.318814	-0.297871	-0.000014
C34	C	1.223717	-0.325951	-0.000026
C35	C	1.033512	-0.382108	-0.000063
C36	C	1.034816	-0.322631	-0.000063
C37	C	1.129920	-0.294551	-0.000050
C38	C	1.131207	-0.235089	-0.000015
N39	N	1.226306	-0.207006	-0.000014
C40	C	1.320109	-0.238397	-0.000013
C41	C	1.123313	-0.597873	-0.000054
C42	C	1.122016	-0.657345	-0.000046
C43	C	1.310925	-0.660653	-0.000043
C44	C	1.312220	-0.601180	-0.000043
C45	C	1.218411	-0.569790	-0.000053
C46	C	1.322817	-0.113504	0.000011
C47	C	1.324101	-0.054028	0.000027
C48	C	1.135193	-0.050725	0.000019
C49	C	1.133908	-0.110196	0.000009
C50	C	1.227729	-0.141584	0.000001
O51	O	1.051593	-0.202877	0.000023
O52	O	1.401104	-0.209042	-0.000026
C53	C	1.412519	0.150435	-0.000006
C54	C	1.527521	0.157799	-0.000013
C55	C	1.214425	0.247962	-0.000035
C56	C	1.215820	0.311259	-0.000052
N57	N	1.203072	0.154138	0.281835
N58	N	1.243053	0.134480	-0.281849
C59	C	1.327124	0.093101	0.531144
C60	C	1.318306	0.097446	0.655806
C61	C	1.176612	0.167170	0.655824
C62	C	1.185431	0.162825	0.531162
C63	C	1.260690	0.125790	0.468826
C64	C	1.269513	0.121448	0.344162
C65	C	1.127815	0.191169	0.344182
C66	C	1.118997	0.195514	0.468844
H67	H	0.931927	0.037324	-0.000001
H68	H	1.388410	0.062950	0.480389
H69	H	1.046916	-0.572319	-0.000052
H70	H	1.044571	-0.680202	-0.000036
H71	H	1.387305	-0.686223	-0.000047
C72	C	0.549164	0.049971	0.000009
H73	H	0.604482	0.022537	0.000020
H74	H	0.512439	0.042740	-0.069050
H75	H	0.502652	0.047555	0.069086
C76	C	1.428716	-0.023140	0.000043
H77	H	1.416058	0.016777	0.000061
H78	H	1.472216	-0.035969	-0.069019
H79	H	1.462407	-0.031168	0.069117
C80	C	0.896945	0.238653	-0.000027
H81	H	0.841620	0.266084	-0.000019
H82	H	0.943461	0.241076	-0.069091
H83	H	0.933661	0.245883	0.069046
C84	C	0.721991	0.279458	-0.000039
H85	H	0.666670	0.306891	-0.000040
H86	H	0.768508	0.281874	-0.069103
H87	H	0.758707	0.286693	0.069034
C88	C	1.426016	-0.148023	0.000013
H89	H	1.482829	-0.122774	0.000033
H90	H	1.434352	-0.173695	-0.069051
H91	H	1.424538	-0.168888	0.069085
C92	C	1.517233	-0.298382	-0.000022
H93	H	1.572906	-0.325602	-0.000037
H94	H	1.516783	-0.272845	0.069038
H95	H	1.526562	-0.277657	-0.069098
H96	H	1.330795	0.091294	0.293409
H97	H	1.057719	0.225666	0.519612
H98	H	1.372402	0.070827	0.706542
C99	C	0.928898	-0.412983	-0.000087
H100	H	0.873228	-0.385763	-0.000103
H101	H	0.919547	-0.433714	0.068970
H102	H	0.929368	-0.438515	-0.069166
H103	H	0.514204	0.251300	-0.000020
H104	H	1.487714	-0.414284	-0.000029
C105	C	0.931623	-0.288105	-0.000069
H106	H	0.874804	-0.313350	-0.000069
H107	H	0.933099	-0.267236	-0.069129
H108	H	0.923296	-0.262436	0.069008
H109	H	1.056465	-0.133059	0.000031
C110	C	1.032019	-0.016188	0.000011
H111	H	1.046419	0.023253	0.000005
H112	H	0.988086	-0.022848	0.069067
H113	H	0.997907	-0.027656	-0.069070
H114	H	1.115331	0.197319	0.706594
H115	H	0.735871	0.024778	0.000023
C116	C	1.054734	0.227130	0.275636
H117	H	1.008658	0.249811	0.330619
H118	H	1.015259	0.202611	0.227014
H119	H	1.095209	0.251165	0.226999
C120	C	1.416833	-0.570298	-0.000039
H121	H	1.472509	-0.597516	-0.000045
H122	H	1.416372	-0.544760	0.069021
H123	H	1.426169	-0.549573	-0.069115
