data_functionalizedCrystal
_audit_creation_method	'MofGen! by Chris Wilmer'
_symmetry_space_group_name_H-M	'P1'
_symmetry_Int_Tables_number	1
_symmetry_cell_setting	triclinic
loop_
_symmetry_equiv_pos_as_xyz
  x,y,z
_cell_length_a	14.044220
_cell_length_b	18.366186
_cell_length_c	19.288857
_cell_angle_alpha	89.991598
_cell_angle_beta	88.160993
_cell_angle_gamma	89.996026
loop_
_atom_site_label
_atom_site_type_symbol
_atom_site_fract_x
_atom_site_fract_y
_atom_site_fract_z
O1	O	1.256992	-0.060479	0.167413
O2	O	1.756992	0.439521	0.667413
O3	O	0.981048	-0.060497	0.161372
O4	O	1.481048	0.439503	0.661372
O5	O	1.126997	-0.060479	0.063774
O6	O	1.626997	0.439521	0.563774
O7	O	1.111043	-0.060497	0.265011
O8	O	1.611043	0.439503	0.765011
O9	O	1.126973	0.060621	0.063768
O10	O	1.626973	0.560621	0.563768
O11	O	0.981024	0.060602	0.161365
O12	O	1.481024	0.560602	0.661365
O13	O	1.256967	0.060620	0.167406
O14	O	1.756967	0.560620	0.667406
Zn15	Zn	1.118991	0.079838	0.164385
Zn16	Zn	1.618991	0.579838	0.664385
Zn17	Zn	1.119024	-0.079715	0.164394
Zn18	Zn	1.619024	0.420285	0.664394
O19	O	1.111018	0.060602	0.265004
O20	O	1.611018	0.560602	0.765004
C21	C	0.945733	0.000050	0.158724
C22	C	1.445733	0.500050	0.658724
C23	C	0.840541	0.000044	0.150836
C24	C	1.340541	0.500044	0.650836
N25	N	1.118976	0.188730	0.164379
N26	N	1.618976	0.688730	0.664379
N27	N	1.119047	-0.188606	0.164395
N28	N	1.619047	0.311394	0.664395
C29	C	0.647942	0.000059	0.136416
C30	C	1.147942	0.500059	0.636416
C31	C	0.590068	0.000057	0.192359
C32	C	1.090068	0.500057	0.692359
C33	C	0.482899	0.000066	0.184336
C34	C	0.982899	0.500066	0.684336
C35	C	0.755121	0.000051	0.144439
C36	C	1.255121	0.500051	0.644439
C37	C	1.292282	0.000071	0.170054
C38	C	1.792282	0.500071	0.670054
C39	C	1.397474	0.000073	0.177942
C40	C	1.897474	0.500073	0.677942
C41	C	1.126473	0.000072	0.037862
C42	C	1.626473	0.500072	0.537862
C43	C	1.124935	0.000073	-0.039341
C44	C	1.624935	0.500073	0.460659
C45	C	1.183623	0.226838	0.121187
C46	C	1.683623	0.726838	0.621187
C47	C	1.183629	0.303066	0.121184
C48	C	1.683629	0.803066	0.621184
C49	C	1.118997	0.341182	0.164386
C50	C	1.618997	0.841182	0.664386
C51	C	1.054338	0.303065	0.207580
C52	C	1.554338	0.803065	0.707580
C53	C	1.054327	0.226838	0.207577
C54	C	1.554327	0.726838	0.707577
C55	C	1.106309	0.461936	0.226858
C56	C	1.606309	0.961936	0.726858
C57	C	1.106326	0.538161	0.226863
C58	C	1.606326	1.038161	0.726863
C59	C	1.119024	0.576290	0.164396
C60	C	1.619024	1.076290	0.664396
C61	C	1.131725	0.538184	0.101922
C62	C	1.631725	1.038184	0.601922
C63	C	1.131714	0.461958	0.101919
C64	C	1.631714	0.961958	0.601919
C65	C	1.119001	0.423837	0.164394
C66	C	1.619001	0.923837	0.664394
C67	C	1.183681	0.697053	0.121198
C68	C	1.683681	1.197053	0.621198
C69	C	1.183681	0.773283	0.121194
C70	C	1.683681	1.273283	0.621194
C71	C	1.054394	0.773280	0.207596
C72	C	1.554394	1.273280	0.707596
C73	C	1.054390	0.697052	0.207594
C74	C	1.554390	1.197052	0.707594
C75	C	1.119039	0.658943	0.164396
C76	C	1.619039	1.158943	0.664396
C77	C	1.124231	-0.065938	-0.075594
C78	C	1.624231	0.434062	0.424406
C79	C	1.122773	-0.065943	-0.148134
C80	C	1.622773	0.434057	0.351866
C81	C	1.122038	0.000066	-0.184418
C82	C	1.622038	0.500066	0.315582
C83	C	1.122737	0.066086	-0.148156
C84	C	1.622737	0.566086	0.351844
C85	C	1.124186	0.066090	-0.075618
C86	C	1.624186	0.566090	0.424382
C87	C	1.175238	0.050637	-0.301234
C88	C	1.675238	0.550637	0.198766
C89	C	1.173795	0.050631	-0.373771
C90	C	1.673795	0.550631	0.126229
C91	C	1.117567	0.000058	-0.408152
C92	C	1.617567	0.500058	0.091848
C93	C	1.062793	-0.050521	-0.369986
C94	C	1.562793	0.449479	0.130014
C95	C	1.064242	-0.050518	-0.297447
C96	C	1.564242	0.449482	0.202553
C97	C	1.120467	0.000070	-0.263074
C98	C	1.620467	0.500070	0.236926
C99	C	1.115280	-0.065964	-0.523060
C100	C	1.615280	0.434036	-0.023060
C101	C	1.113816	-0.065967	-0.595601
C102	C	1.613816	0.434033	-0.095601
C103	C	1.113790	0.066065	-0.595623
C104	C	1.613790	0.566065	-0.095623
C105	C	1.115244	0.066066	-0.523083
C106	C	1.615244	0.566066	-0.023083
C107	C	1.115994	0.000049	-0.486806
C108	C	1.615994	0.500049	0.013194
C109	C	1.111543	0.000050	0.290917
C110	C	1.611543	0.500050	0.790917
C111	C	1.113080	0.000043	0.368119
C112	C	1.613080	0.500043	0.868119
H113	H	0.621007	0.000049	0.246280
H114	H	1.121007	0.500049	0.746280
H115	H	1.115825	0.119819	-0.493566
H116	H	1.615825	0.619819	0.006434
C117	C	0.606147	0.000064	0.063576
C118	C	1.106147	0.500064	0.563576
N119	N	0.574655	0.000065	0.008713
N120	N	1.074655	0.500065	0.508713
H121	H	1.095991	0.569181	0.277733
H122	H	1.595991	1.069181	0.777733
H123	H	1.236262	0.195812	0.086011
H124	H	1.736262	0.695812	0.586011
H125	H	1.236274	0.334100	0.086011
H126	H	1.736274	0.834100	0.586011
H127	H	1.001752	0.666022	0.242767
H128	H	1.501752	1.166022	0.742767
H129	H	1.142053	0.430935	0.051051
H130	H	1.642053	0.930935	0.551051
C131	C	1.145691	0.580120	0.033202
C132	C	1.645691	1.080120	0.533202
N133	N	1.156210	0.611709	-0.018556
N134	N	1.656210	1.111709	0.481444
C135	C	1.254787	0.655131	0.073673
C136	C	1.754787	1.155131	0.573673
N137	N	1.308343	0.623558	0.037875
N138	N	1.808343	1.123558	0.537875
C139	C	1.254786	0.815202	0.073664
C140	C	1.754786	1.315202	0.573664
N141	N	1.308339	0.846776	0.037860
N142	N	1.808339	1.346776	0.537860
H143	H	1.001765	0.804313	0.242769
H144	H	1.501765	1.304313	0.742769
C145	C	1.092340	0.420003	0.295582
C146	C	1.592340	0.920003	0.795582
N147	N	1.081819	0.388419	0.347343
N148	N	1.581819	0.888419	0.847343
C149	C	0.983238	0.344994	0.255099
C150	C	1.483238	0.844994	0.755099
N151	N	0.929680	0.376575	0.290888
N152	N	1.429680	0.876575	0.790888
C153	C	1.125047	-0.138558	-0.035694
C154	C	1.625047	0.361442	0.464306
N155	N	1.125659	-0.193257	-0.005639
N156	N	1.625659	0.306743	0.494361
C157	C	0.983248	0.184918	0.255126
C158	C	1.483248	0.684918	0.755126
N159	N	0.929726	0.153342	0.290953
N160	N	1.429726	0.653342	0.790953
C161	C	1.234043	0.106271	-0.415747
C162	C	1.734043	0.606271	0.084253
N163	N	1.279421	0.148182	-0.447361
N164	N	1.779421	0.648182	0.052639
H165	H	1.122194	-0.119700	-0.177657
H166	H	1.622194	0.380300	0.322343
C167	C	1.003984	-0.106148	-0.255467
C168	C	1.503984	0.393852	0.244533
N169	N	0.958593	-0.148047	-0.223848
N170	N	1.458593	0.351953	0.276152
H171	H	1.017007	-0.091703	-0.397976
H172	H	1.517007	0.408297	0.102024
H173	H	1.115885	-0.119719	-0.493522
H174	H	1.615885	0.380281	0.006478
H175	H	1.113238	-0.119724	-0.625117
H176	H	1.613238	0.380276	-0.125117
C177	C	1.112981	0.138677	-0.635532
C178	C	1.612981	0.638677	-0.135532
N179	N	1.112371	0.193370	-0.665594
N180	N	1.612371	0.693370	-0.165594
C181	C	1.237101	0.106273	-0.263423
C182	C	1.737101	0.606273	0.236577
N183	N	1.283697	0.148175	-0.234945
N184	N	1.783697	0.648175	0.265055
H185	H	1.122136	0.119832	-0.177704
H186	H	1.622136	0.619832	0.322296
C187	C	1.124966	0.138711	-0.035738
C188	C	1.624966	0.638711	0.464262
N189	N	1.125557	0.193410	-0.005700
N190	N	1.625557	0.693410	0.494300
