data_functionalizedCrystal
_audit_creation_method	'MofGen! by Chris Wilmer'
_symmetry_space_group_name_H-M	'P1'
_symmetry_Int_Tables_number	1
_symmetry_cell_setting	triclinic
loop_
_symmetry_equiv_pos_as_xyz
  x,y,z
_cell_length_a	11.792241
_cell_length_b	14.519731
_cell_length_c	10.268362
_cell_angle_alpha	89.993732
_cell_angle_beta	89.999626
_cell_angle_gamma	83.941135
loop_
_atom_site_label
_atom_site_type_symbol
_atom_site_fract_x
_atom_site_fract_y
_atom_site_fract_z
O1	O	1.506220	0.126403	-0.108177
O2	O	1.756220	0.376403	0.141823
O3	O	2.006220	0.626403	0.391823
O4	O	2.256220	0.876403	0.641823
O5	O	1.175808	0.139431	-0.108208
O6	O	1.425808	0.389431	0.141792
O7	O	1.675808	0.639431	0.391792
O8	O	1.925808	0.889431	0.641792
O9	O	1.349762	-0.001288	-0.108180
O10	O	1.599762	0.248712	0.141820
O11	O	1.849762	0.498712	0.391820
O12	O	2.099762	0.748712	0.641820
O13	O	1.332266	0.267122	-0.108205
O14	O	1.582266	0.517122	0.141795
O15	O	1.832266	0.767122	0.391795
O16	O	2.082266	1.017122	0.641795
O17	O	1.349747	-0.001294	0.108421
O18	O	1.599747	0.248706	0.358421
O19	O	1.849747	0.498706	0.608421
O20	O	2.099747	0.748706	0.858421
O21	O	1.175793	0.139425	0.108393
O22	O	1.425793	0.389425	0.358393
O23	O	1.675793	0.639425	0.608393
O24	O	1.925793	0.889425	0.858393
O25	O	1.506205	0.126398	0.108424
O26	O	1.756205	0.376398	0.358424
O27	O	2.006205	0.626398	0.608424
O28	O	2.256205	0.876398	0.858424
Cu29	Cu	1.340997	0.132911	0.128186
Cu30	Cu	1.590997	0.382911	0.378186
Cu31	Cu	1.840997	0.632911	0.628186
Cu32	Cu	2.090997	0.882911	0.878186
Cu33	Cu	1.341015	0.132917	-0.127970
Cu34	Cu	1.591015	0.382917	0.122030
Cu35	Cu	1.841015	0.632917	0.372030
Cu36	Cu	2.091015	0.882917	0.622030
O37	O	1.332251	0.267116	0.108396
O38	O	1.582251	0.517116	0.358396
O39	O	1.832251	0.767116	0.608396
O40	O	2.082251	1.017116	0.858396
C41	C	1.133514	0.138609	0.000089
C42	C	1.383514	0.388609	0.250089
C43	C	1.633514	0.638609	0.500089
C44	C	1.883514	0.888609	0.750089
C45	C	1.007513	0.136160	0.000078
C46	C	1.257513	0.386160	0.250078
C47	C	1.507513	0.636160	0.500078
C48	C	1.757513	0.886160	0.750078
C49	C	1.348934	-0.035654	0.000121
C50	C	1.598934	0.214346	0.250121
C51	C	1.848934	0.464346	0.500121
C52	C	2.098934	0.714346	0.750121
C53	C	1.346478	-0.138043	0.000121
C54	C	1.596478	0.111957	0.250121
C55	C	1.846478	0.361957	0.500121
C56	C	2.096478	0.611957	0.750121
C57	C	0.776826	0.131656	0.000115
C58	C	1.026826	0.381656	0.250115
C59	C	1.276826	0.631656	0.500115
C60	C	1.526826	0.881656	0.750115
C61	C	0.905197	0.134159	0.000095
C62	C	1.155197	0.384159	0.250095
C63	C	1.405197	0.634159	0.500095
C64	C	1.655197	0.884159	0.750095
C65	C	1.344482	-0.221194	0.000118
C66	C	1.594482	0.028806	0.250118
C67	C	1.844482	0.278806	0.500118
C68	C	2.094482	0.528806	0.750118
C69	C	1.341988	-0.325512	0.000108
C70	C	1.591988	-0.075512	0.250108
C71	C	1.841988	0.174488	0.500108
C72	C	2.091988	0.424488	0.750108
C73	C	1.340008	-0.408658	0.000100
C74	C	1.590008	-0.158658	0.250100
C75	C	1.840008	0.091342	0.500100
C76	C	2.090008	0.341342	0.750100
C77	C	1.337514	-0.512983	0.000092
C78	C	1.587514	-0.262983	0.250092
C79	C	1.837514	-0.012983	0.500092
C80	C	2.087514	0.237017	0.750092
C81	C	1.548499	0.127219	0.000124
C82	C	1.798499	0.377219	0.250124
C83	C	2.048499	0.627219	0.500124
C84	C	2.298499	0.877219	0.750124
C85	C	1.674499	0.129668	0.000127
C86	C	1.924499	0.379668	0.250127
C87	C	2.174499	0.629668	0.500127
C88	C	2.424499	0.879668	0.750127
C89	C	1.333078	0.301482	0.000092
C90	C	1.583078	0.551482	0.250092
C91	C	1.833078	0.801482	0.500092
C92	C	2.083078	1.051482	0.750092
C93	C	1.335535	0.403871	0.000083
C94	C	1.585535	0.653871	0.250083
C95	C	1.835535	0.903871	0.500083
C96	C	2.085535	1.153871	0.750083
N97	N	1.340993	0.132905	0.308352
N98	N	1.590993	0.382905	0.558352
N99	N	1.840993	0.632905	0.808352
N100	N	2.090993	0.882905	1.058352
N101	N	1.341029	0.132916	-0.308135
N102	N	1.591029	0.382916	-0.058135
N103	N	1.841029	0.632916	0.191865
N104	N	2.091029	0.882916	0.441865
C105	C	1.341010	0.132916	0.574022
C106	C	1.591010	0.382916	0.824022
C107	C	1.841010	0.632916	1.074022
C108	C	2.091010	0.882916	1.324022
C109	C	1.340997	0.132912	0.426184
C110	C	1.590997	0.382912	0.676184
C111	C	1.840997	0.632912	0.926184
C112	C	2.090997	0.882912	1.176184
