data_functionalizedCrystal
_audit_creation_method	'MofGen! by Chris Wilmer'
_symmetry_space_group_name_H-M	'P1'
_symmetry_Int_Tables_number	1
_symmetry_cell_setting	triclinic
loop_
_symmetry_equiv_pos_as_xyz
  x,y,z
_cell_length_a	11.792241
_cell_length_b	12.996460
_cell_length_c	11.792241
_cell_angle_alpha	90.006284
_cell_angle_beta	84.193416
_cell_angle_gamma	90.001369
loop_
_atom_site_label
_atom_site_type_symbol
_atom_site_fract_x
_atom_site_fract_y
_atom_site_fract_z
O1	O	1.506910	0.085467	0.155570
O2	O	2.006910	0.585467	0.655570
O3	O	1.176569	0.085491	0.171603
O4	O	1.676569	0.585491	0.671603
O5	O	1.349756	0.085472	-0.001584
O6	O	1.849756	0.585472	0.498416
O7	O	1.333723	0.085487	0.328757
O8	O	1.833723	0.585487	0.828757
O9	O	1.349738	-0.085662	-0.001594
O10	O	1.849738	0.414338	0.498406
O11	O	1.176551	-0.085642	0.171593
O12	O	1.676551	0.414358	0.671593
O13	O	1.506892	-0.085666	0.155560
O14	O	2.006892	0.414334	0.655560
Cu15	Cu	1.341720	-0.101280	0.163576
Cu16	Cu	1.841720	0.398720	0.663576
Cu17	Cu	1.341741	0.101105	0.163587
Cu18	Cu	1.841741	0.601105	0.663587
O19	O	1.333705	-0.085647	0.328747
O20	O	1.833705	0.414353	0.828747
C21	C	1.134269	-0.000073	0.170591
C22	C	1.634269	0.499927	0.670591
C23	C	1.008255	-0.000064	0.167576
C24	C	1.508255	0.499936	0.667576
N25	N	1.341713	-0.243627	0.163567
N26	N	1.841713	0.256373	0.663567
C27	C	0.777543	-0.000093	0.162034
C28	C	1.277543	0.499907	0.662034
C29	C	0.905928	-0.000077	0.165113
C30	C	1.405928	0.499923	0.665113
C31	C	1.341740	-0.663442	0.163588
C32	C	1.841740	-0.163442	0.663588
C33	C	1.341729	-0.546637	0.163586
C34	C	1.841729	-0.046637	0.663586
C35	C	1.341727	-0.453538	0.163579
C36	C	1.841727	0.046462	0.663579
C37	C	1.341715	-0.336726	0.163575
C38	C	1.841715	0.163274	0.663575
C39	C	1.549192	-0.000100	0.156572
C40	C	2.049192	0.499900	0.656572
C41	C	1.675206	-0.000103	0.159587
C42	C	2.175206	0.499897	0.659587
C43	C	1.348740	-0.000095	-0.043880
C44	C	1.848740	0.499905	0.456120
C45	C	1.345726	-0.000094	-0.169894
C46	C	1.845726	0.499906	0.330106
N47	N	1.341757	0.243452	0.163587
N48	N	1.841757	0.743452	0.663587
C49	C	1.340183	-0.000076	-0.400606
C50	C	1.840183	0.499924	0.099394
C51	C	1.343262	-0.000086	-0.272221
C52	C	1.843262	0.499914	0.227779
C53	C	1.334721	-0.000078	0.371043
C54	C	1.834721	0.499922	0.871043
C55	C	1.337736	-0.000072	0.497057
C56	C	1.837736	0.499928	0.997057
