data_functionalizedCrystal
_audit_creation_method	'MofGen! by Chris Wilmer'
_symmetry_space_group_name_H-M	'P1'
_symmetry_Int_Tables_number	1
_symmetry_cell_setting	triclinic
loop_
_symmetry_equiv_pos_as_xyz
  x,y,z
_cell_length_a	17.038272
_cell_length_b	19.288840
_cell_length_c	17.766277
_cell_angle_alpha	90.006284
_cell_angle_beta	90.008357
_cell_angle_gamma	87.118786
loop_
_atom_site_label
_atom_site_type_symbol
_atom_site_fract_x
_atom_site_fract_y
_atom_site_fract_z
O1	O	0.097423	0.927381	0.062722
O2	O	0.430756	1.260715	0.396055
O3	O	0.764090	1.594048	0.729388
O4	O	0.110598	0.725933	0.062696
O5	O	0.443931	1.059267	0.396029
O6	O	0.777265	1.392600	0.729362
O7	O	-0.009801	0.825460	0.062703
O8	O	0.323533	1.158793	0.396036
O9	O	0.656866	1.492127	0.729369
O10	O	0.217822	0.827854	0.062715
O11	O	0.551155	1.161188	0.396048
O12	O	0.884489	1.494521	0.729381
O13	O	-0.009813	0.825462	-0.062486
O14	O	0.323520	1.158795	0.270847
O15	O	0.656854	1.492128	0.604181
O16	O	0.110586	0.725935	-0.062493
O17	O	0.443919	1.059268	0.270841
O18	O	0.777253	1.392602	0.604174
O19	O	0.097411	0.927383	-0.062467
O20	O	0.430744	1.260716	0.270866
O21	O	0.764078	1.594050	0.604200
Cu22	Cu	0.103997	0.826659	-0.073911
Cu23	Cu	0.437331	1.159993	0.259423
Cu24	Cu	0.770664	1.493326	0.592756
Cu25	Cu	0.104012	0.826657	0.074139
Cu26	Cu	0.437345	1.159990	0.407473
Cu27	Cu	0.770678	1.493324	0.740806
O28	O	0.217810	0.827856	-0.062474
O29	O	0.551143	1.161190	0.270860
O30	O	0.884477	1.494523	0.604193
C31	C	0.110171	0.700031	0.000098
C32	C	0.443505	1.033365	0.333431
C33	C	0.776838	1.366698	0.666765
C34	C	0.108909	0.622849	0.000088
C35	C	0.442242	0.956182	0.333421
C36	C	0.775575	1.289515	0.666755
C37	C	0.108308	0.586607	0.068330
C38	C	0.441642	0.919940	0.401663
C39	C	0.774975	1.253273	0.734997
C40	C	0.107113	0.514086	0.068339
C41	C	0.440447	0.847419	0.401673
C42	C	0.773780	1.180752	0.735006
C43	C	0.106502	0.477811	0.000102
C44	C	0.439836	0.811144	0.333436
C45	C	0.773169	1.144477	0.666769
C46	C	0.107107	0.514061	-0.068149
C47	C	0.440440	0.847395	0.265185
C48	C	0.773774	1.180728	0.598518
C49	C	0.108310	0.586580	-0.068156
C50	C	0.441643	0.919914	0.265177
C51	C	0.774977	1.253247	0.598511
C52	C	0.058806	0.365533	-0.052169
C53	C	0.392139	0.698866	0.281165
C54	C	0.725473	1.032200	0.614498
C55	C	0.057598	0.293016	-0.052159
C56	C	0.390931	0.626349	0.281175
C57	C	0.724265	0.959682	0.614508
C58	C	0.102795	0.254138	0.000122
C59	C	0.436129	0.587471	0.333455
C60	C	0.769462	0.920804	0.666789
C61	C	0.149190	0.287787	0.052405
C62	C	0.482524	0.621120	0.385738
C63	C	0.815857	0.954453	0.719072
C64	C	0.150393	0.360306	0.052398
C65	C	0.483727	0.693639	0.385731
C66	C	0.817060	1.026972	0.719064
C67	C	0.105198	0.399176	0.000103
C68	C	0.438532	0.732509	0.333436
C69	C	0.771865	1.065843	0.666769
C70	C	0.100900	0.139260	0.068379
C71	C	0.434234	0.472593	0.401712
C72	C	0.767567	0.805927	0.735045
C73	C	0.099710	0.066738	0.068385
C74	C	0.433043	0.400071	0.401718
C75	C	0.766377	0.733404	0.735052
C76	C	0.099696	0.066715	-0.068105
C77	C	0.433029	0.400048	0.265228
C78	C	0.766363	0.733382	0.598562
C79	C	0.100894	0.139236	-0.068109
C80	C	0.434227	0.472569	0.265224
C81	C	0.767561	0.805902	0.598557
C82	C	0.101493	0.175504	0.000135
C83	C	0.434826	0.508837	0.333468
C84	C	0.768159	0.842171	0.666801
C85	C	-0.038928	0.823283	0.000108
C86	C	0.294405	1.156616	0.333441
C87	C	0.627739	1.489950	0.666775
C88	C	-0.125699	0.816785	0.000107
C89	C	0.207634	1.150119	0.333441
C90	C	0.540968	1.483452	0.666774
C91	C	-0.176012	0.876442	0.000114
C92	C	0.157322	1.209775	0.333448
C93	C	0.490655	1.543108	0.666781
C94	C	-0.257542	0.870332	0.000121
C95	C	0.075791	1.203666	0.333454
C96	C	0.409125	1.536999	0.666787
C97	C	-0.288758	0.804566	0.000115
C98	C	0.044575	1.137899	0.333448
C99	C	0.377909	1.471233	0.666781
C100	C	-0.238439	0.744905	0.000110
C101	C	0.094895	1.078238	0.333444
C102	C	0.428228	1.411572	0.666777
C103	C	-0.156910	0.751015	0.000109
C104	C	0.176423	1.084348	0.333443
C105	C	0.509756	1.417682	0.666776
C106	C	-0.534444	0.782980	0.000122
C107	C	-0.201111	1.116314	0.333456
C108	C	0.132223	1.449647	0.666789
C109	C	-0.615979	0.776875	0.000121
C110	C	-0.282646	1.110208	0.333454
C111	C	0.050688	1.443541	0.666788
C112	C	-0.635077	0.902302	0.000133
C113	C	-0.301743	1.235636	0.333466
C114	C	0.031590	1.568969	0.666800
C115	C	-0.553546	0.908407	0.000127
C116	C	-0.220212	1.241740	0.333461
C117	C	0.113121	1.575073	0.666794
C118	C	-0.503234	0.848746	0.000127
C119	C	-0.169900	1.182079	0.333460
C120	C	0.163433	1.515413	0.666793
C121	C	-0.372095	0.798320	0.000119
C122	C	-0.038761	1.131653	0.333452
C123	C	0.294572	1.464986	0.666786
C124	C	-0.419899	0.854993	0.000128
C125	C	-0.086565	1.188326	0.333461
C126	C	0.246768	1.521660	0.666795
C127	C	0.246937	0.830033	0.000122
C128	C	0.580270	1.163367	0.333456
C129	C	0.913604	1.496700	0.666789
C130	C	0.333708	0.836531	0.000128
C131	C	0.667042	1.169864	0.333461
C132	C	1.000375	1.503198	0.666795
C133	C	0.097838	0.953285	0.000132
C134	C	0.431171	1.286618	0.333466
C135	C	0.764504	1.619952	0.666799
C136	C	0.099101	1.030468	0.000147
C137	C	0.432434	1.363801	0.333481
C138	C	0.765767	1.697134	0.666814
N139	N	0.104016	0.826656	0.178270
N140	N	0.437349	1.159989	0.511603
N141	N	0.770683	1.493322	0.844936
N142	N	0.103987	0.826666	-0.178041
N143	N	0.437320	1.159999	0.155292
N144	N	0.770654	1.493333	0.488626
C145	C	0.050807	0.870816	0.217660
C146	C	0.384140	1.204150	0.550993
C147	C	0.717474	1.537483	0.884326
C148	C	0.050806	0.870822	0.296461
C149	C	0.384139	1.204156	0.629795
C150	C	0.717472	1.537489	0.963128
C151	C	0.104006	0.826655	0.335870
C152	C	0.437339	1.159988	0.669204
C153	C	0.770672	1.493322	1.002537
C154	C	0.157225	0.782491	0.296471
C155	C	0.490558	1.115824	0.629804
C156	C	0.823891	1.449158	0.963137
C157	C	0.157230	0.782491	0.217670
C158	C	0.490563	1.115825	0.551004
C159	C	0.823896	1.449158	0.884337
C160	C	0.114304	0.764004	0.460708
C161	C	0.447637	1.097337	0.794041
C162	C	0.780971	1.430671	1.127374
C163	C	0.114294	0.764002	0.539506
C164	C	0.447627	1.097336	0.872840
C165	C	0.780960	1.430669	1.206173
C166	C	0.103995	0.826655	0.578917
C167	C	0.437328	1.159988	0.912250
C168	C	0.770661	1.493321	1.245583
C169	C	0.093690	0.889310	0.539518
C170	C	0.427023	1.222643	0.872852
C171	C	0.760356	1.555977	1.206185
C172	C	0.093695	0.889310	0.460718
C173	C	0.427028	1.222644	0.794051
C174	C	0.760361	1.555977	1.127385
C175	C	0.104007	0.826650	0.421316
C176	C	0.437340	1.159983	0.754649
C177	C	0.770673	1.493317	1.087983
C178	C	0.050781	0.870826	0.703753
C179	C	0.384115	1.204159	1.037086
C180	C	0.717448	1.537492	1.370419
C181	C	0.050785	0.870833	0.782556
C182	C	0.384119	1.204166	1.115889
C183	C	0.717452	1.537500	1.449222
C184	C	0.157201	0.782495	0.782564
C185	C	0.490534	1.115829	1.115897
C186	C	0.823867	1.449162	1.449230
C187	C	0.157200	0.782494	0.703762
C188	C	0.490534	1.115828	1.037095
C189	C	0.823867	1.449161	1.370428
C190	C	0.103987	0.826659	0.664361
C191	C	0.437320	1.159992	0.997694
C192	C	0.770653	1.493325	1.331028
H193	H	0.099226	0.037230	0.123958
H194	H	0.432560	0.370564	0.457292
H195	H	0.765893	0.703897	0.790625
O196	O	-0.689340	0.966649	0.000135
O197	O	-0.356007	1.299982	0.333468
O198	O	-0.022673	1.633316	0.666802
H199	H	-0.726929	0.966871	0.051163
H200	H	-0.393596	1.300205	0.384496
H201	H	-0.060263	1.633538	0.717829
H202	H	0.007479	0.906779	0.185582
H203	H	0.340813	1.240113	0.518915
H204	H	0.674146	1.573446	0.852248
H205	H	0.200560	0.746530	0.185598
H206	H	0.533893	1.079863	0.518932
H207	H	0.867226	1.413196	0.852265
H208	H	0.122695	0.712982	0.428626
H209	H	0.456028	1.046315	0.761960
H210	H	0.789361	1.379648	1.095293
O211	O	-0.006602	0.918468	0.661254
O212	O	0.326731	1.251802	0.994587
O213	O	0.660064	1.585135	1.327920
H214	H	-0.044586	0.887061	0.625348
H215	H	0.288748	1.220394	0.958681
H216	H	0.622081	1.553728	1.292014
H217	H	0.019817	0.265625	-0.094727
H218	H	0.353150	0.598958	0.238606
H219	H	0.686483	0.932291	0.571940
O220	O	0.101552	0.178391	0.141976
O221	O	0.434886	0.511724	0.475310
O222	O	0.768219	0.845058	0.808643
H223	H	0.154596	0.161437	0.174702
H224	H	0.487930	0.494771	0.508035
H225	H	0.821263	0.828104	0.841369
O226	O	-0.405769	0.727388	0.000096
O227	O	-0.072436	1.060721	0.333430
O228	O	0.260898	1.394055	0.666763
H229	H	-0.442455	0.721604	0.051117
H230	H	-0.109121	1.054938	0.384450
H231	H	0.224212	1.388271	0.717783
H232	H	0.099203	0.037180	-0.123665
H233	H	0.432537	0.370514	0.209668
H234	H	0.765870	0.703847	0.543002
H235	H	-0.641391	0.723317	0.000104
H236	H	-0.308058	1.056650	0.333437
H237	H	0.025275	1.389984	0.666771
H238	H	0.122675	0.712984	0.571578
H239	H	0.456009	1.046318	0.904912
H240	H	0.789342	1.379651	1.238245
O241	O	0.108964	0.625726	0.141932
O242	O	0.442298	0.959059	0.475266
O243	O	0.775631	1.292393	0.808599
H244	H	0.108353	0.588336	0.189387
H245	H	0.441687	0.921669	0.522721
H246	H	0.775020	1.255002	0.856054
O247	O	0.101553	0.178332	-0.141714
O248	O	0.434886	0.511666	0.191620
O249	O	0.768220	0.844999	0.524953
H250	H	0.100929	0.140927	-0.189163
H251	H	0.434263	0.474260	0.144170
H252	H	0.767596	0.807593	0.477504
H253	H	0.007475	0.906785	0.328539
H254	H	0.340809	1.240118	0.661872
H255	H	0.674142	1.573452	0.995205
O256	O	0.010050	0.407457	-0.108563
O257	O	0.343384	0.740790	0.224770
O258	O	0.676717	1.074124	0.558103
H259	H	0.049208	0.438272	-0.143870
H260	H	0.382542	0.771605	0.189463
H261	H	0.715875	1.104939	0.522796
H262	H	0.188172	0.387700	0.094967
H263	H	0.521505	0.721033	0.428300
H264	H	0.854838	1.054366	0.761633
O265	O	0.106826	0.474921	-0.141749
O266	O	0.440159	0.808255	0.191584
O267	O	0.773493	1.141588	0.524918
H268	H	0.106019	0.418398	-0.130279
H269	H	0.439353	0.751731	0.203054
H270	H	0.772686	1.085064	0.536387
H271	H	0.108799	0.616088	-0.123729
H272	H	0.442133	0.949422	0.209605
H273	H	0.775466	1.282755	0.542938
H274	H	0.007459	0.906798	0.814628
H275	H	0.340792	1.240131	1.147961
H276	H	0.674125	1.573465	1.481294
H277	H	0.200542	0.746530	0.328561
H278	H	0.533875	1.079864	0.661895
H279	H	0.867209	1.413197	0.995228
O280	O	-0.142344	0.947376	0.000128
O281	O	0.190990	1.280709	0.333461
O282	O	0.524323	1.614042	0.666794
H283	H	-0.191030	0.987831	0.000143
H284	H	0.142303	1.321165	0.333477
H285	H	0.475637	1.654498	0.666810
O286	O	0.106450	0.474983	0.141945
O287	O	0.439784	0.808316	0.475279
O288	O	0.773117	1.141650	0.808612
H289	H	0.107061	0.512387	0.189397
H290	H	0.440394	0.845720	0.522731
H291	H	0.773727	1.179053	0.856064
O292	O	-0.311804	0.934679	0.000116
O293	O	0.021529	1.268012	0.333449
O294	O	0.354862	1.601346	0.666783
H295	H	-0.300721	0.965932	0.051136
H296	H	0.032613	1.299266	0.384469
H297	H	0.365946	1.632599	0.717803
O298	O	0.197950	0.245867	0.108796
O299	O	0.531284	0.579200	0.442129
O300	O	0.864617	0.912533	0.775463
H301	H	0.189331	0.189786	0.100013
H302	H	0.522664	0.523120	0.433346
H303	H	0.855997	0.856453	0.766680
H304	H	-0.528136	0.961961	0.000132
H305	H	-0.194803	1.295294	0.333465
H306	H	0.138530	1.628627	0.666799
O307	O	-0.480183	0.718635	0.000102
O308	O	-0.146850	1.051969	0.333436
O309	O	0.186483	1.385302	0.666769
H310	H	-0.515589	0.671879	0.000085
H311	H	-0.182256	1.005213	0.333418
H312	H	0.151077	1.338546	0.666752
O313	O	0.082598	0.956883	0.418220
O314	O	0.415931	1.290216	0.751554
O315	O	0.749264	1.623549	1.084887
H316	H	0.075443	1.000453	0.458857
H317	H	0.408776	1.333786	0.792190
H318	H	0.742109	1.667119	1.125524
H319	H	-0.263861	0.691356	0.000110
H320	H	0.069472	1.024690	0.333443
H321	H	0.402806	1.358023	0.666777
O322	O	-0.102638	0.686673	0.000094
O323	O	0.230695	1.020006	0.333427
O324	O	0.564029	1.353339	0.666760
H325	H	-0.138040	0.639914	0.000081
H326	H	0.195294	0.973247	0.333414
H327	H	0.528627	1.306581	0.666748
H328	H	0.085309	0.940328	0.571604
H329	H	0.418642	1.273661	0.904938
H330	H	0.751976	1.606995	1.238271
O331	O	-0.386238	0.925927	0.000138
O332	O	-0.052905	1.259260	0.333471
O333	O	0.280429	1.592594	0.666804
H334	H	-0.349562	0.931709	-0.050890
H335	H	-0.016229	1.265042	0.282444
H336	H	0.317104	1.598376	0.615777
O337	O	0.214578	0.734850	0.825056
O338	O	0.547911	1.068183	1.158389
O339	O	0.881245	1.401516	1.491722
H340	H	0.205632	0.742263	0.886469
H341	H	0.538965	1.075597	1.219802
H342	H	0.872299	1.408930	1.553136
H343	H	0.200525	0.746531	0.671688
H344	H	0.533858	1.079865	1.005022
H345	H	0.867191	1.413198	1.338355
