data_functionalizedCrystal
_audit_creation_method	'MofGen! by Chris Wilmer'
_symmetry_space_group_name_H-M	'P1'
_symmetry_Int_Tables_number	1
_symmetry_cell_setting	triclinic
loop_
_symmetry_equiv_pos_as_xyz
  x,y,z
_cell_length_a	16.992695
_cell_length_b	17.699083
_cell_length_c	16.176319
_cell_angle_alpha	90.001389
_cell_angle_beta	89.993125
_cell_angle_gamma	93.024381
loop_
_atom_site_label
_atom_site_type_symbol
_atom_site_fract_x
_atom_site_fract_y
_atom_site_fract_z
O1	O	0.099146	-1.010252	-0.068631
O2	O	0.599146	-0.510252	0.431369
O3	O	0.112045	-0.790676	-0.068658
O4	O	0.612045	-0.290676	0.431342
O5	O	-0.008546	-0.899584	-0.068638
O6	O	0.491454	-0.399584	0.431362
O7	O	0.219736	-0.901344	-0.068651
O8	O	0.719736	-0.401344	0.431349
O9	O	-0.008553	-0.899567	0.068855
O10	O	0.491447	-0.399567	0.568855
O11	O	0.112037	-0.790660	0.068835
O12	O	0.612037	-0.290660	0.568835
O13	O	0.099138	-1.010235	0.068862
O14	O	0.599138	-0.510235	0.568862
Cu15	Cu	0.105587	-0.900446	0.081403
Cu16	Cu	0.605587	-0.400446	0.581403
Cu17	Cu	0.105596	-0.900465	-0.081199
Cu18	Cu	0.605596	-0.400465	0.418801
O19	O	0.219729	-0.901328	0.068842
O20	O	0.719729	-0.401328	0.568842
C21	C	0.111579	-0.762442	0.000085
C22	C	0.611579	-0.262442	0.500085
C23	C	0.110192	-0.678338	0.000075
C24	C	0.610192	-0.178338	0.500075
C25	C	-0.037758	-0.897311	0.000108
C26	C	0.462242	-0.397311	0.500108
C27	C	-0.124789	-0.890554	0.000107
C28	C	0.375211	-0.390554	0.500107
C29	C	0.099604	-1.038469	0.000117
C30	C	0.599604	-0.538469	0.500117
C31	C	0.100991	-1.122574	0.000122
C32	C	0.600991	-0.622574	0.500122
C33	C	-0.175154	-0.955751	0.000116
C34	C	0.324846	-0.455751	0.500116
C35	C	-0.256928	-0.949398	0.000107
C36	C	0.243072	-0.449398	0.500107
C37	C	-0.288336	-0.877846	0.000096
C38	C	0.211664	-0.377846	0.500096
C39	C	-0.237965	-0.812643	0.000084
C40	C	0.262035	-0.312643	0.500084
C41	C	-0.156192	-0.818998	0.000087
C42	C	0.343808	-0.318998	0.500087
C43	C	-0.531884	-0.851510	0.000081
C44	C	-0.031884	-0.351510	0.500081
C45	C	-0.613663	-0.845160	0.000081
C46	C	-0.113663	-0.345160	0.500081
C47	C	-0.632621	-0.981915	0.000102
C48	C	-0.132621	-0.481915	0.500102
C49	C	-0.550845	-0.988263	0.000110
C50	C	-0.050845	-0.488263	0.500110
C51	C	-0.500481	-0.923061	0.000094
C52	C	-0.000481	-0.423061	0.500094
N53	N	-0.371923	-0.871350	0.000090
N54	N	0.128077	-0.371350	0.500090
N55	N	-0.416897	-0.929558	0.000095
N56	N	0.083103	-0.429558	0.500095
C57	C	0.248941	-0.903601	0.000094
C58	C	0.748941	-0.403601	0.500094
C59	C	0.335972	-0.910358	0.000090
C60	C	0.835972	-0.410358	0.500090
N61	N	0.105580	-0.900438	0.195768
N62	N	0.605580	-0.400438	0.695768
C63	C	0.180976	-0.634124	0.000071
C64	C	0.680976	-0.134124	0.500071
C65	C	0.179669	-0.555099	0.000082
C66	C	0.679669	-0.055099	0.500082
C67	C	0.107576	-0.520290	0.000091
C68	C	0.607576	-0.020290	0.500091
C69	C	0.036787	-0.564510	0.000097
C70	C	0.536787	-0.064510	0.500097
C71	C	0.038095	-0.643533	0.000092
C72	C	0.538095	-0.143533	0.500092
C73	C	0.031509	-0.245818	0.000118
C74	C	0.531509	0.254182	0.500118
C75	C	0.030206	-0.166789	0.000120
C76	C	0.530206	0.333211	0.500120
C77	C	0.173082	-0.157384	0.000108
C78	C	0.673082	0.342616	0.500108
C79	C	0.174391	-0.236408	0.000103
C80	C	0.674391	0.263592	0.500103
C81	C	0.103602	-0.280621	0.000113
C82	C	0.603602	0.219379	0.500113
C83	C	0.105020	-0.366308	0.000103
C84	C	0.605020	0.133692	0.500103
C85	C	0.106157	-0.434604	0.000095
C86	C	0.606157	0.065396	0.500095
N87	N	0.105597	-0.900479	-0.195564
N88	N	0.605597	-0.400479	0.304436
C89	C	0.052204	-0.948679	0.239041
C90	C	0.552204	-0.448679	0.739041
C91	C	0.052203	-0.948683	0.325588
C92	C	0.552203	-0.448683	0.825588
C93	C	0.105583	-0.900449	0.368861
C94	C	0.605583	-0.400449	0.868861
C95	C	0.158961	-0.852202	0.325582
C96	C	0.658961	-0.352202	0.825582
C97	C	0.158957	-0.852195	0.239036
C98	C	0.658957	-0.352195	0.739036
C99	C	0.158976	-0.852229	0.674610
C100	C	0.658976	-0.352229	1.174610
C101	C	0.158977	-0.852242	0.761161
C102	C	0.658977	-0.352242	1.261161
C103	C	0.052222	-0.948717	0.761162
C104	C	0.552222	-0.448717	1.261162
C105	C	0.052218	-0.948709	0.674617
C106	C	0.552218	-0.448709	1.174617
C107	C	0.105593	-0.900461	0.631345
C108	C	0.605593	-0.400461	1.131345
C109	C	0.105593	-0.900456	0.537501
C110	C	0.605593	-0.400456	1.037501
C111	C	0.105588	-0.900457	0.462703
C112	C	0.605588	-0.400457	0.962703
H113	H	-0.297933	-1.002489	0.000117
H114	H	0.202067	-0.502489	0.500117
O115	O	0.252146	-0.273954	0.000106
O116	O	0.752146	0.226046	0.500106
H117	H	0.301149	-0.229933	0.000117
H118	H	0.801149	0.270067	0.500117
H119	H	-0.115186	-0.765906	0.000080
H120	H	0.384814	-0.265906	0.500080
H121	H	-0.673635	-1.034999	0.000114
H122	H	-0.173635	-0.534999	0.500114
H123	H	0.202421	-0.812925	0.360819
H124	H	0.702421	-0.312925	0.860819
O125	O	-0.005385	-1.000697	0.192382
O126	O	0.494615	-0.500697	0.692382
H127	H	-0.043445	-0.966524	0.152968
H128	H	0.456555	-0.466524	0.652968
O129	O	0.216567	-0.800223	0.807830
O130	O	0.716567	-0.300223	1.307830
H131	H	0.206656	-0.740620	0.791243
H132	H	0.706656	-0.240620	1.291243
O133	O	-0.005351	-1.000728	0.372265
O134	O	0.494649	-0.500728	0.872265
H135	H	-0.042458	-1.034278	0.327635
H136	H	0.457542	-0.534278	0.827635
H137	H	-0.026132	-0.281807	0.000127
H138	H	0.473868	0.218193	0.500127
O139	O	-0.141278	-1.032926	0.000121
O140	O	0.358722	-0.532926	0.500121
H141	H	-0.190042	-1.077193	0.000115
H142	H	0.309958	-0.577193	0.500115
O143	O	-0.005358	-1.000728	0.627942
O144	O	0.494642	-0.500728	1.127942
H145	H	-0.042482	-1.034269	0.672573
H146	H	0.457518	-0.534269	1.172573
O147	O	0.216551	-0.800197	0.627949
O148	O	0.716551	-0.300197	1.127949
H149	H	0.207581	-0.808285	0.560498
H150	H	0.707581	-0.308285	1.060498
O151	O	-0.516968	-1.065437	0.000103
O152	O	-0.016968	-0.565437	0.500103
H153	H	-0.565729	-1.109707	0.000095
H154	H	-0.065729	-0.609707	0.500095
H155	H	-0.021912	-0.536162	0.000116
H156	H	0.478088	-0.036162	0.500116
H157	H	0.239682	-0.662460	0.000064
H158	H	0.739682	-0.162460	0.500064
H159	H	-0.490887	-0.798417	0.000069
H160	H	0.009113	-0.298417	0.500069
H161	H	0.230722	-0.121377	0.000103
H162	H	0.730722	0.378623	0.500103
H163	H	-0.639232	-0.786891	0.000085
H164	H	-0.139232	-0.286891	0.500085
H165	H	-0.028504	-0.138450	0.000128
H166	H	0.471496	0.361550	0.500128
O167	O	-0.271835	-0.735466	0.000081
O168	O	0.228165	-0.235466	0.500081
H169	H	-0.337158	-0.741999	0.000092
H170	H	0.162842	-0.241999	0.500092
O171	O	0.256014	-0.507408	0.000078
O172	O	0.756014	-0.007408	0.500078
H173	H	0.306363	-0.544890	0.000062
H174	H	0.806363	-0.044890	0.500062
H175	H	0.202420	-0.812912	0.203804
H176	H	0.702420	-0.312912	0.703804
O177	O	-0.038250	-0.691227	0.000093
O178	O	0.461750	-0.191227	0.500093
H179	H	-0.088601	-0.653748	0.000093
H180	H	0.411399	-0.153748	0.500093
O181	O	-0.005358	-1.000752	0.807832
O182	O	0.494642	-0.500752	1.307832
H183	H	0.003602	-0.992651	0.875282
H184	H	0.503602	-0.492651	1.375282
