data_functionalizedCrystal
_audit_creation_method	'MofGen! by Chris Wilmer'
_symmetry_space_group_name_H-M	'P1'
_symmetry_Int_Tables_number	1
_symmetry_cell_setting	triclinic
loop_
_symmetry_equiv_pos_as_xyz
  x,y,z
_cell_length_a	23.532407
_cell_length_b	10.654550
_cell_length_c	9.130313
_cell_angle_alpha	89.998681
_cell_angle_beta	90.011115
_cell_angle_gamma	96.333196
loop_
_atom_site_label
_atom_site_type_symbol
_atom_site_fract_x
_atom_site_fract_y
_atom_site_fract_z
O1	O	0.079986	-1.665307	0.121707
O2	O	0.087607	-1.299587	0.121735
O3	O	0.000937	-1.493475	0.121693
O4	O	0.166656	-1.471419	0.121749
O5	O	0.000931	-1.493459	-0.121905
O6	O	0.087601	-1.299571	-0.121863
O7	O	0.079981	-1.665291	-0.121892
Cu8	Cu	0.083790	-1.482429	-0.144120
Cu9	Cu	0.083797	-1.482448	0.143964
O10	O	0.166651	-1.471402	-0.121850
C11	C	-0.020286	-1.492905	-0.000110
C12	C	-0.083514	-1.491217	-0.000121
C13	C	0.087044	-1.252799	-0.000061
C14	C	0.085370	-1.113408	-0.000051
C15	C	0.080543	-1.712079	-0.000093
C16	C	0.082217	-1.851469	-0.000093
C17	C	-0.481938	-1.595364	-0.000049
C18	C	-0.541349	-1.593795	-0.000037
O19	O	-0.577464	-1.690341	0.000009
N20	N	-0.564726	-1.478529	-0.000030
C21	C	-0.528689	-1.364824	-0.000018
O22	O	-0.554029	-1.266636	-0.000009
C23	C	-0.469280	-1.366394	-0.000019
C24	C	-0.445906	-1.481668	-0.000041
C25	C	-0.458564	-1.710629	-0.000070
C26	C	-0.399158	-1.712197	-0.000084
C27	C	-0.363126	-1.598500	-0.000077
C28	C	-0.386500	-1.483236	-0.000055
C29	C	-0.433244	-1.252690	0.000003
C30	C	-0.373831	-1.254270	0.000004
C31	C	-0.350458	-1.369544	-0.000019
C32	C	-0.291061	-1.371107	-0.000062
N33	N	-0.267684	-1.486374	-0.000070
C34	C	-0.303716	-1.600070	-0.000077
C35	C	-0.653453	-1.361535	-0.000014
C36	C	-0.712861	-1.359964	-0.000023
C37	C	-0.725517	-1.588936	-0.000040
C38	C	-0.666108	-1.590506	-0.000041
C39	C	-0.630076	-1.476802	-0.000022
C40	C	-0.178958	-1.603355	-0.000108
C41	C	-0.119546	-1.604913	-0.000128
C42	C	-0.106896	-1.375942	-0.000104
C43	C	-0.166303	-1.374383	-0.000091
C44	C	-0.202333	-1.488100	-0.000088
O45	O	-0.254911	-1.274613	-0.000103
O46	O	-0.278369	-1.698241	-0.000067
C47	C	0.187873	-1.471972	-0.000044
C48	C	0.251101	-1.473661	-0.000023
N49	N	0.083785	-1.482425	-0.346743
C50	C	0.136400	-1.032306	-0.000038
C51	C	0.134824	-0.901335	-0.000064
C52	C	0.031183	-0.932582	-0.000110
C53	C	0.032760	-1.063550	-0.000094
C54	C	0.048935	-1.406731	-0.576795
C55	C	0.048927	-1.406715	-0.423458
C56	C	0.118650	-1.558165	-0.423372
C57	C	0.118654	-1.558187	-0.576706
N58	N	0.083798	-1.482463	0.346586
H59	H	-0.100519	-1.698787	-0.000150
H60	H	-0.731886	-1.266096	-0.000030
H61	H	-0.008797	-1.129588	-0.000109
H62	H	-0.011650	-0.891971	-0.000154
C63	C	0.010580	-1.323402	-0.339178
C64	C	-0.027759	-1.240112	-0.423559
C65	C	-0.066109	-1.156795	-0.339279
C66	C	-0.066119	-1.156769	-0.170618
C67	C	-0.027779	-1.240063	-0.086227
C68	C	0.010571	-1.323379	-0.170507
H69	H	-0.027753	-1.240128	-0.548421
H70	H	-0.094491	-1.095136	-0.401752
H71	H	-0.094507	-1.095094	-0.108229
H72	H	-0.027785	-1.240047	0.038635
H73	H	0.038953	-1.385039	-0.108034
H74	H	-0.647081	-1.684372	-0.000058
H75	H	0.020552	-1.345072	-0.639246
H76	H	0.147030	-1.619816	-0.360898
C77	C	-0.613821	-1.236449	-0.000019
C78	C	-0.616763	-1.141786	0.126474
C79	C	-0.577135	-1.016702	0.126469
C80	C	-0.534564	-0.986280	-0.000028
C81	C	-0.531620	-1.080945	-0.126531
C82	C	-0.571248	-1.206030	-0.126527
H83	H	-0.648278	-1.164304	0.220124
H84	H	-0.579314	-0.946625	0.220116
H85	H	-0.505228	-0.893685	-0.000032
H86	H	-0.500105	-1.058428	-0.220181
H87	H	-0.569068	-1.276107	-0.220173
C88	C	-0.192022	-1.247588	-0.000074
C89	C	-0.178652	-1.153338	-0.126556
C90	C	-0.204368	-1.026544	-0.126520
C91	C	-0.243453	-0.994000	-0.000001
C92	C	-0.256825	-1.088253	0.126491
C93	C	-0.231109	-1.215047	0.126454
H94	H	-0.149717	-1.177427	-0.220221
H95	H	-0.194469	-0.956772	-0.220158
H96	H	-0.262490	-0.900140	0.000026
H97	H	-0.285760	-1.064164	0.220156
H98	H	-0.241008	-1.284818	0.220093
H99	H	-0.452264	-1.158822	0.000031
C100	C	0.157003	-1.641504	-0.660999
C101	C	0.157003	-1.641537	-0.829660
C102	C	0.195346	-1.724858	-0.913954
C103	C	0.233690	-1.808146	-0.829585
C104	C	0.233692	-1.808116	-0.660915
C105	C	0.195349	-1.724796	-0.576621
H106	H	0.128617	-1.579879	-0.892123
H107	H	0.195344	-1.724879	-1.038815
H108	H	0.262074	-1.869825	-0.891984
H109	H	0.262078	-1.869774	-0.598452
H110	H	0.195350	-1.724774	-0.451760
H111	H	-0.208288	-1.695954	-0.000100
H112	H	0.179239	-1.072896	-0.000014
H113	H	-0.380133	-1.806065	-0.000096
H114	H	-0.077548	-1.283373	-0.000103
H115	H	-0.487896	-1.803219	-0.000070
H116	H	-0.754865	-1.681514	-0.000040
H117	H	-0.344497	-1.161675	0.000022
H118	H	0.176378	-0.835306	-0.000057
