data_functionalizedCrystal
_audit_creation_method	'MofGen! by Chris Wilmer'
_symmetry_space_group_name_H-M	'P1'
_symmetry_Int_Tables_number	1
_symmetry_cell_setting	triclinic
loop_
_symmetry_equiv_pos_as_xyz
  x,y,z
_cell_length_a	19.805407
_cell_length_b	19.077174
_cell_length_c	19.805405
_cell_angle_alpha	92.272419
_cell_angle_beta	90.024042
_cell_angle_gamma	87.685436
loop_
_atom_site_label
_atom_site_type_symbol
_atom_site_fract_x
_atom_site_fract_y
_atom_site_fract_z
Zn1	Zn	1.050089	-0.397938	-0.284897
Zn2	Zn	1.383422	-0.064605	0.048436
Zn3	Zn	1.716756	0.268729	0.381770
Zn4	Zn	1.045462	-0.280243	-0.393540
Zn5	Zn	1.378795	0.053091	-0.060206
Zn6	Zn	1.712128	0.386424	0.273127
Zn7	Zn	0.932363	-0.280258	-0.280365
Zn8	Zn	1.265696	0.053076	0.052968
Zn9	Zn	1.599029	0.386409	0.386301
Zn10	Zn	0.936865	-0.397901	-0.398043
Zn11	Zn	1.270198	-0.064567	-0.064709
Zn12	Zn	1.603532	0.268766	0.268624
O13	O	0.991195	-0.339085	-0.339211
O14	O	1.324528	-0.005751	-0.005878
O15	O	1.657861	0.327582	0.327456
O16	O	1.144192	-0.382335	-0.299321
O17	O	1.477525	-0.049002	0.034013
O18	O	1.810859	0.284332	0.367346
O19	O	1.026638	-0.181755	-0.374746
O20	O	1.359972	0.151579	-0.041412
O21	O	1.693305	0.484912	0.291921
O22	O	0.948032	-0.295890	-0.186251
O23	O	1.281365	0.037443	0.147083
O24	O	1.614698	0.370777	0.480416
O25	O	1.140792	-0.295865	-0.379140
O26	O	1.474126	0.037469	-0.045807
O27	O	1.807459	0.370802	0.287527
O28	O	1.034525	-0.382349	-0.189580
O29	O	1.367858	-0.049016	0.143753
O30	O	1.701191	0.284317	0.477087
O31	O	0.943545	-0.181766	-0.291597
O32	O	1.276878	0.151568	0.041736
O33	O	1.610212	0.484901	0.375070
O34	O	0.838243	-0.295854	-0.295963
O35	O	1.171576	0.037480	0.037370
O36	O	1.504910	0.370813	0.370703
O37	O	0.955705	-0.496395	-0.386815
O38	O	1.289038	-0.163062	-0.053482
O39	O	1.622372	0.170271	0.279852
O40	O	0.841551	-0.382286	-0.382420
O41	O	1.174884	-0.048952	-0.049087
O42	O	1.508218	0.284381	0.284246
O43	O	1.038890	-0.496423	-0.303687
O44	O	1.372224	-0.163090	0.029646
O45	O	1.705557	0.170244	0.362979
O46	O	1.031004	-0.295828	-0.488853
O47	O	1.364337	0.037505	-0.155519
O48	O	1.697671	0.370839	0.177814
O49	O	0.951218	-0.382271	-0.492161
O50	O	1.284552	-0.048938	-0.158828
O51	O	1.617885	0.284396	0.174506
C52	C	0.815338	-0.339068	-0.339189
C53	C	1.148671	-0.005734	-0.005856
C54	C	1.482005	0.327599	0.327477
C55	C	0.740106	-0.339077	-0.339197
C56	C	1.073440	-0.005744	-0.005864
C57	C	1.406773	0.327590	0.327470
C58	C	0.706536	-0.384171	-0.297714
C59	C	1.039869	-0.050837	0.035619
C60	C	1.373202	0.282496	0.368952
C61	C	0.635847	-0.384173	-0.297718
C62	C	0.969181	-0.050840	0.035615
C63	C	1.302514	0.282493	0.368949
C64	C	0.598731	-0.339085	-0.339208
C65	C	0.932064	-0.005752	-0.005875
C66	C	1.265398	0.327581	0.327458
C67	C	0.632307	-0.293987	-0.380693
C68	C	0.965640	0.039346	-0.047359
C69	C	1.298973	0.372680	0.285974
C70	C	0.702993	-0.293981	-0.380685
C71	C	1.036327	0.039352	-0.047352
C72	C	1.369660	0.372686	0.285982
C73	C	0.347234	-0.294008	-0.380724
C74	C	0.680567	0.039325	-0.047391
C75	C	1.013901	0.372658	0.285943
C76	C	0.276542	-0.294019	-0.380730
C77	C	0.609876	0.039314	-0.047397
C78	C	0.943209	0.372648	0.285937
C79	C	0.280088	-0.384201	-0.297757
C80	C	0.613421	-0.050867	0.035576
C81	C	0.946755	0.282466	0.368910
C82	C	0.350775	-0.384195	-0.297749
C83	C	0.684108	-0.050862	0.035584
C84	C	1.017441	0.282472	0.368918
C85	C	0.384344	-0.339094	-0.339231
C86	C	0.717677	-0.005761	-0.005897
C87	C	1.051011	0.327573	0.327436
C88	C	0.460992	-0.339091	-0.339225
C89	C	0.794326	-0.005757	-0.005892
C90	C	1.127659	0.327576	0.327441
C91	C	0.522084	-0.339092	-0.339218
C92	C	0.855418	-0.005758	-0.005884
C93	C	1.188751	0.327575	0.327449
C94	C	0.998316	-0.522661	-0.346259
C95	C	1.331649	-0.189327	-0.012926
C96	C	1.664983	0.144006	0.320408
C97	C	1.001351	-0.600890	-0.349262
C98	C	1.334684	-0.267556	-0.015929
C99	C	1.668017	0.065777	0.317405
C100	C	0.959516	-0.637647	-0.307383
C101	C	1.292849	-0.304314	0.025950
C102	C	1.626183	0.029019	0.359284
C103	C	0.962365	-0.711152	-0.310210
C104	C	1.295698	-0.377818	0.023123
C105	C	1.629032	-0.044485	0.356456
C106	C	1.007052	-0.747898	-0.354914
C107	C	1.340386	-0.414564	-0.021581
C108	C	1.673719	-0.081231	0.311752
C109	C	1.048889	-0.711135	-0.396798
C110	C	1.382222	-0.377802	-0.063465
C111	C	1.715555	-0.044468	0.269868
C112	C	1.046036	-0.637632	-0.393974
C113	C	1.379369	-0.304298	-0.060640
C114	C	1.712703	0.029035	0.272693
C115	C	1.020220	-0.967728	-0.368007
C116	C	1.353553	-0.634395	-0.034674
C117	C	1.686887	-0.301062	0.298659
C118	C	1.023071	-1.041237	-0.370827
C119	C	1.356404	-0.707903	-0.037494
C120	C	1.689738	-0.374570	0.295839
C121	C	0.936546	-1.041248	-0.284240
C122	C	1.269879	-0.707915	0.049093
C123	C	1.603213	-0.374582	0.382427
C124	C	0.933700	-0.967744	-0.281417
C125	C	1.267033	-0.634410	0.051917
C126	C	1.600367	-0.301077	0.385250
C127	C	0.975534	-0.930988	-0.323303
C128	C	1.308867	-0.597654	0.010030
C129	C	1.642201	-0.264321	0.343364
N130	N	1.009967	-0.823031	-0.357804
N131	N	1.343300	-0.489698	-0.024471
N132	N	1.676634	-0.156364	0.308863
N133	N	0.972615	-0.855855	-0.320416
N134	N	1.305949	-0.522522	0.012917
N135	N	1.639282	-0.189189	0.346251
C136	C	1.167738	-0.339102	-0.339234
C137	C	1.501071	-0.005769	-0.005900
C138	C	1.834405	0.327564	0.327433
C139	C	1.242970	-0.339110	-0.339243
C140	C	1.576304	-0.005776	-0.005910
C141	C	1.909637	0.327557	0.327424
C142	C	0.991117	-0.339059	-0.515066
C143	C	1.324450	-0.005726	-0.181733
C144	C	1.657783	0.327607	0.151600
C145	C	0.991146	-0.339072	-0.590299
C146	C	1.324479	-0.005739	-0.256965
C147	C	1.657813	0.327595	0.076368
C148	C	0.984140	-0.156223	-0.332142
C149	C	1.317473	0.177110	0.001191
C150	C	1.650807	0.510444	0.334525
C151	C	0.981236	-0.077994	-0.328948
C152	C	1.314570	0.255339	0.004385
C153	C	1.647903	0.588673	0.337719
C154	C	1.036159	-0.384127	-0.627320
C155	C	1.369492	-0.050793	-0.293986
C156	C	1.702825	0.282540	0.039347
C157	C	1.036183	-0.384140	-0.698009
C158	C	1.369517	-0.050806	-0.364675
C159	C	1.702850	0.282527	-0.031342
C160	C	0.991199	-0.339094	-0.731675
C161	C	1.324532	-0.005761	-0.398342
C162	C	1.657865	0.327573	-0.065008
C163	C	0.946181	-0.294037	-0.694649
C164	C	1.279514	0.039296	-0.361316
C165	C	1.612848	0.372629	-0.027982
C166	C	0.946153	-0.294028	-0.623962
C167	C	1.279487	0.039305	-0.290628
C168	C	1.612820	0.372638	0.042705
C169	C	0.946291	-0.294073	-0.979724
C170	C	1.279625	0.039260	-0.646390
C171	C	1.612958	0.372593	-0.313057
C172	C	0.946324	-0.294084	-1.050416
C173	C	1.279657	0.039249	-0.717083
C174	C	1.612990	0.372582	-0.383750
C175	C	1.036321	-0.384185	-1.053771
C176	C	1.369655	-0.050851	-0.720437
C177	C	1.702988	0.282482	-0.387104
C178	C	1.036294	-0.384176	-0.983083
C179	C	1.369627	-0.050842	-0.649750
C180	C	1.702960	0.282491	-0.316417
C181	C	0.991274	-0.339122	-0.946064
C182	C	1.324607	-0.005789	-0.612730
C183	C	1.657941	0.327545	-0.279397
C184	C	0.991247	-0.339109	-0.869415
C185	C	1.324580	-0.005776	-0.536081
C186	C	1.657913	0.327557	-0.202748
C187	C	0.991229	-0.339103	-0.808323
C188	C	1.324562	-0.005769	-0.474989
C189	C	1.657895	0.327564	-0.141656
C190	C	0.991292	-0.339126	-0.162670
C191	C	1.324625	-0.005792	0.170663
C192	C	1.657959	0.327541	0.503997
C193	C	0.991334	-0.339143	-0.087439
C194	C	1.324667	-0.005810	0.245895
C195	C	1.658000	0.327524	0.579228
H196	H	0.374558	-0.257285	-0.414501
H197	H	0.707891	0.076048	-0.081168
H198	H	1.041224	0.409381	0.252165
H199	H	0.897309	-0.937830	-0.245016
H200	H	1.230642	-0.604497	0.088318
H201	H	1.563976	-0.271164	0.421651
H202	H	0.602081	-0.257272	-0.414471
H203	H	0.935414	0.076061	-0.081138
H204	H	1.268747	0.409394	0.252195
C205	C	1.085701	-0.433693	-0.738732
C206	C	1.419035	-0.100359	-0.405398
C207	C	1.752368	0.232974	-0.072065
H208	H	1.079272	-0.427253	-0.785652
H209	H	1.412606	-0.093919	-0.452319
H210	H	1.745939	0.239414	-0.118986
H211	H	1.130782	-0.423428	-0.726719
H212	H	1.464115	-0.090094	-0.393386
H213	H	1.797449	0.243239	-0.060052
H214	H	1.077590	-0.480974	-0.728954
H215	H	1.410924	-0.147641	-0.395621
H216	H	1.744257	0.185692	-0.062287
C217	C	0.896835	-0.244539	-1.087452
C218	C	1.230168	0.088795	-0.754118
C219	C	1.563501	0.422128	-0.420785
H220	H	0.903305	-0.250994	-1.134852
H221	H	1.236639	0.082340	-0.801519
H222	H	1.569972	0.415673	-0.468186
H223	H	0.851743	-0.254799	-1.076298
H224	H	1.185077	0.078534	-0.742964
H225	H	1.518410	0.411868	-0.409631
H226	H	0.904936	-0.197253	-1.074061
H227	H	1.238270	0.136080	-0.740727
H228	H	1.571603	0.469414	-0.407394
H229	H	0.902487	-1.071183	-0.250139
H230	H	1.235820	-0.737850	0.083194
H231	H	1.569153	-0.404516	0.416527
C232	C	1.066246	-0.927306	-0.414070
C233	C	1.399579	-0.593972	-0.080737
C234	C	1.732912	-0.260639	0.252597
H235	H	1.093274	-0.959719	-0.441090
H236	H	1.426607	-0.626386	-0.107757
H237	H	1.759941	-0.293053	0.225577
H238	H	1.039233	-0.898619	-0.442460
H239	H	1.372566	-0.565286	-0.109127
H240	H	1.705899	-0.231953	0.224207
H241	H	1.094640	-0.898645	-0.387072
H242	H	1.427973	-0.565312	-0.053739
H243	H	1.761307	-0.231978	0.279594
H244	H	0.380992	-0.420912	-0.263966
H245	H	0.714325	-0.087579	0.069368
H246	H	1.047658	0.245754	0.402701
H247	H	1.085271	-0.741059	-0.433201
H248	H	1.418604	-0.407726	-0.099867
H249	H	1.751937	-0.074393	0.233466
H250	H	1.059464	-1.071153	-0.407231
H251	H	1.392797	-0.737820	-0.073898
H252	H	1.726130	-0.404486	0.259435
H253	H	1.072927	-0.420854	-0.955674
H254	H	1.406260	-0.087520	-0.622341
H255	H	1.739593	0.245813	-0.289008
C256	C	0.598919	-0.433780	-0.252093
C257	C	0.932253	-0.100446	0.081240
C258	C	1.265586	0.232887	0.414574
H259	H	0.551505	-0.427322	-0.258033
H260	H	0.884838	-0.093989	0.075300
H261	H	1.218172	0.239344	0.408633
H262	H	0.612342	-0.481048	-0.263888
H263	H	0.945676	-0.147714	0.069446
H264	H	1.279009	0.185619	0.402779
H265	H	0.610121	-0.423563	-0.206204
H266	H	0.943454	-0.090230	0.127130
H267	H	1.276788	0.243104	0.460463
C268	C	1.085841	-0.433749	-1.094491
C269	C	1.419174	-0.100415	-0.761158
C270	C	1.752507	0.232918	-0.427824
H271	H	1.112633	-0.460568	-1.064315
H272	H	1.445966	-0.127234	-0.730982
H273	H	1.779299	0.206099	-0.397649
H274	H	1.061129	-0.464397	-1.123254
H275	H	1.394463	-0.131064	-0.789921
H276	H	1.727796	0.202269	-0.456587
H277	H	1.114321	-0.406851	-1.121017
H278	H	1.447655	-0.073517	-0.787684
H279	H	1.780988	0.259816	-0.454351
H280	H	0.909636	-0.257388	-0.949588
H281	H	1.242969	0.075946	-0.616254
H282	H	1.576303	0.409279	-0.282921
C283	C	1.092053	-0.597195	-0.440039
C284	C	1.425386	-0.263862	-0.106706
C285	C	1.758719	0.069471	0.226627
H286	H	1.083949	-0.548157	-0.431960
H287	H	1.417282	-0.214824	-0.098627
H288	H	1.750615	0.118509	0.234707
H289	H	1.138004	-0.609246	-0.430606
H290	H	1.471337	-0.275912	-0.097273
H291	H	1.804670	0.057421	0.236061
H292	H	1.082582	-0.609230	-0.485979
H293	H	1.415915	-0.275897	-0.152646
H294	H	1.749249	0.057437	0.180688
H295	H	0.909551	-0.257363	-0.722066
H296	H	1.242884	0.075970	-0.388733
H297	H	1.576218	0.409303	-0.055399
H298	H	1.072793	-0.420805	-0.599913
H299	H	1.406127	-0.087471	-0.266580
H300	H	1.739460	0.245862	0.066754
C301	C	0.896641	-0.244470	-0.583235
C302	C	1.229974	0.088864	-0.249902
C303	C	1.563308	0.422197	0.083431
H304	H	0.903062	-0.250921	-0.536315
H305	H	1.236395	0.082413	-0.202982
H306	H	1.569729	0.415746	0.130351
H307	H	0.904750	-0.197191	-0.593010
H308	H	1.238084	0.136143	-0.259677
H309	H	1.571417	0.469476	0.073656
H310	H	0.851557	-0.254736	-0.595249
H311	H	1.184890	0.078597	-0.261916
H312	H	1.518224	0.411931	0.071418
C313	C	0.747360	-0.433768	-0.252077
C314	C	1.080694	-0.100435	0.081256
C315	C	1.414027	0.232898	0.414590
H316	H	0.794268	-0.427313	-0.258017
H317	H	1.127601	-0.093980	0.075316
H318	H	1.460935	0.239354	0.408650
H319	H	0.735393	-0.423555	-0.206194
H320	H	1.068726	-0.090221	0.127140
H321	H	1.402059	0.243112	0.460473
H322	H	0.737613	-0.481042	-0.263875
H323	H	1.070946	-0.147708	0.069458
H324	H	1.404280	0.185625	0.402791
C325	C	0.243160	-0.433805	-0.252121
C326	C	0.576493	-0.100471	0.081213
C327	C	0.909826	0.232862	0.414546
H328	H	0.195745	-0.427348	-0.258059
H329	H	0.529078	-0.094014	0.075274
H330	H	0.862412	0.239319	0.408607
H331	H	0.256582	-0.481074	-0.263911
H332	H	0.589916	-0.147741	0.069422
H333	H	0.923249	0.185593	0.402755
H334	H	0.254364	-0.423584	-0.206233
H335	H	0.587697	-0.090250	0.127101
H336	H	0.921030	0.243083	0.460434
H337	H	0.246324	-0.257301	-0.414518
H338	H	0.579657	0.076033	-0.081185
H339	H	0.912991	0.409366	0.252149
H340	H	0.730326	-0.257261	-0.414464
H341	H	1.063659	0.076073	-0.081131
H342	H	1.396992	0.409406	0.252203
H343	H	0.923131	-0.607734	-0.270976
H344	H	1.256464	-0.274401	0.062357
H345	H	1.589797	0.058933	0.395690
C346	C	0.916351	-0.751582	-0.264139
C347	C	1.249684	-0.418249	0.069194
C348	C	1.583018	-0.084915	0.402528
H349	H	0.889335	-0.719170	-0.237104
H350	H	1.222669	-0.385837	0.096229
H351	H	1.556002	-0.052504	0.429563
H352	H	0.887955	-0.780247	-0.291124
H353	H	1.221288	-0.446913	0.042209
H354	H	1.554621	-0.113580	0.375543
H355	H	0.943379	-0.780265	-0.235753
H356	H	1.276712	-0.446932	0.097580
H357	H	1.610046	-0.113598	0.430913
