data_functionalizedCrystal
_audit_creation_method	'MofGen! by Chris Wilmer'
_symmetry_space_group_name_H-M	'P1'
_symmetry_Int_Tables_number	1
_symmetry_cell_setting	triclinic
loop_
_symmetry_equiv_pos_as_xyz
  x,y,z
_cell_length_a	17.038275
_cell_length_b	11.792241
_cell_length_c	10.868271
_cell_angle_alpha	89.998441
_cell_angle_beta	90.001969
_cell_angle_gamma	87.652600
loop_
_atom_site_label
_atom_site_type_symbol
_atom_site_fract_x
_atom_site_fract_y
_atom_site_fract_z
O1	O	-1.038456	-0.246562	0.102146
O2	O	-0.810808	-0.242646	0.102187
O3	O	-0.930157	-0.079917	0.102157
O4	O	-0.919108	-0.409290	0.102176
O5	O	-0.930146	-0.079922	-0.102488
O6	O	-0.810798	-0.242651	-0.102458
O7	O	-1.038446	-0.246566	-0.102499
Zn8	Zn	-0.924620	-0.244609	-0.134970
Zn9	Zn	-0.924634	-0.244603	0.134658
O10	O	-0.919097	-0.409295	-0.102469
C11	C	-0.781659	-0.239087	-0.000130
C12	C	-0.694819	-0.228463	-0.000115
C13	C	-0.929457	-0.037568	-0.000165
C14	C	-0.927380	0.088628	-0.000164
C15	C	-0.645136	-0.326003	-0.000109
C16	C	-0.563542	-0.316014	-0.000124
C17	C	-0.531632	-0.208484	-0.000137
C18	C	-0.581321	-0.110937	-0.000147
C19	C	-0.662914	-0.120927	-0.000140
C20	C	-0.285718	-0.173190	-0.000166
C21	C	-0.204118	-0.163207	-0.000170
C22	C	-0.186344	-0.368285	-0.000150
C23	C	-0.267940	-0.378266	-0.000135
C24	C	-0.317622	-0.280719	-0.000151
C25	C	-0.448229	-0.198270	-0.000149
C26	C	-0.401023	-0.290933	-0.000148
N27	N	-0.924616	-0.244613	-0.318984
C28	C	-0.067595	-0.250124	-0.000174
C29	C	-0.154435	-0.260746	-0.000164
C30	C	-0.919797	-0.451644	-0.000144
C31	C	-0.921874	-0.577840	-0.000138
C32	C	-0.923560	0.319675	-0.000142
C33	C	-0.925683	0.191104	-0.000154
C34	C	-0.924622	-0.244614	-0.430322
C35	C	-0.924632	-0.244605	-0.569999
N36	N	-0.924644	-0.244591	0.318672
H37	H	-0.671110	-0.413565	-0.000098
H38	H	-0.293914	-0.465828	-0.000111
O39	O	-0.138003	-0.462952	0.000019
C40	C	-0.035593	-0.570729	0.106072
C41	C	-0.090281	-0.463454	0.106025
H42	H	0.002993	-0.571182	0.191782
H43	H	0.003100	-0.571192	0.020483
H44	H	-0.072432	-0.649282	0.106020
H45	H	-0.053504	-0.384844	0.106121
H46	H	-0.128978	-0.463092	0.191607
H47	H	-0.555334	-0.023383	-0.000175
H48	H	-0.703366	-0.041499	-0.000144
H49	H	-0.427008	-0.378483	-0.000145
H50	H	-0.422239	-0.110719	-0.000194
O51	O	-0.172990	-0.058832	-0.000139
C52	C	-0.055165	0.047432	-0.000238
C53	C	-0.090313	-0.070832	-0.000245
H54	H	0.011684	0.037770	-0.000350
H55	H	-0.075529	0.096070	0.085415
H56	H	-0.075637	0.096014	-0.085872
H57	H	-0.069857	-0.119508	0.085331
H58	H	-0.069953	-0.119384	-0.085955
O59	O	-0.333860	-0.078320	-0.000122
C60	C	-0.342871	0.126143	-0.000219
C61	C	-0.288256	0.018792	-0.000239
H62	H	-0.306022	0.204685	-0.000339
H63	H	-0.381500	0.126683	0.085443
H64	H	-0.381532	0.126526	-0.085844
H65	H	-0.249546	0.018338	0.085328
H66	H	-0.249680	0.018293	-0.085958
H67	H	-0.523092	-0.395441	-0.000118
