data_functionalizedCrystal
_audit_creation_method	'MofGen! by Chris Wilmer'
_symmetry_space_group_name_H-M	'P1'
_symmetry_Int_Tables_number	1
_symmetry_cell_setting	triclinic
loop_
_symmetry_equiv_pos_as_xyz
  x,y,z
_cell_length_a	25.639239
_cell_length_b	25.639242
_cell_length_c	18.215399
_cell_angle_alpha	89.970114
_cell_angle_beta	90.030035
_cell_angle_gamma	89.966288
loop_
_atom_site_label
_atom_site_type_symbol
_atom_site_fract_x
_atom_site_fract_y
_atom_site_fract_z
Zn1	Zn	-0.208225	-0.799258	0.416303
Zn2	Zn	-0.295661	-0.799171	0.293232
Zn3	Zn	-0.208234	-0.711824	0.293228
Zn4	Zn	-0.295624	-0.711779	0.416235
O5	O	-0.251936	-0.755508	0.354749
O6	O	-0.219836	-0.872411	0.400007
O7	O	-0.284083	-0.787568	0.190247
O8	O	-0.135068	-0.723477	0.309581
O9	O	-0.284075	-0.872348	0.309587
O10	O	-0.135061	-0.787714	0.400003
O11	O	-0.219851	-0.723394	0.190244
O12	O	-0.219815	-0.638653	0.309516
O13	O	-0.284011	-0.723400	0.519228
O14	O	-0.284020	-0.638620	0.399888
O15	O	-0.219800	-0.787670	0.519278
O16	O	-0.368822	-0.787524	0.309522
O17	O	-0.368794	-0.723317	0.399892
C18	C	-0.251915	-0.619666	0.354695
C19	C	-0.251918	-0.561551	0.354689
C20	C	-0.285419	-0.201180	0.401742
C21	C	-0.285422	-0.146576	0.401752
O22	O	-0.313882	-0.118332	0.441726
N23	N	-0.251945	-0.119269	0.354775
C24	C	-0.218460	-0.146569	0.307791
O25	O	-0.189986	-0.118329	0.267834
C26	C	-0.218455	-0.201173	0.307785
C27	C	-0.251938	-0.228477	0.354760
C28	C	-0.318898	-0.228484	0.448714
C29	C	-0.318896	-0.283084	0.448703
C30	C	-0.285415	-0.310381	0.401721
C31	C	-0.251935	-0.283077	0.354749
C32	C	-0.184968	-0.228472	0.260805
C33	C	-0.184965	-0.283079	0.260804
C34	C	-0.218448	-0.310383	0.307779
C35	C	-0.218452	-0.364974	0.307756
N36	N	-0.251928	-0.392281	0.354733
C37	C	-0.285410	-0.364984	0.401715
C38	C	-0.218472	-0.031899	0.307807
C39	C	-0.218480	0.022703	0.307808
C40	C	-0.285441	0.022694	0.401770
C41	C	-0.285436	-0.031910	0.401765
C42	C	-0.251949	-0.059205	0.354783
C43	C	-0.285403	-0.479649	0.401688
C44	C	-0.285399	-0.534255	0.401671
C45	C	-0.218437	-0.534240	0.307712
C46	C	-0.218442	-0.479639	0.307726
C47	C	-0.251927	-0.452345	0.354720
O48	O	-0.190004	-0.393253	0.267804
O49	O	-0.313874	-0.393231	0.441671
C50	C	-0.387779	-0.755420	0.354716
C51	C	-0.445893	-0.755430	0.354726
C52	C	-0.806258	-0.789028	0.307774
C53	C	-0.860862	-0.789048	0.307784
O54	O	-0.889100	-0.817523	0.267827
N55	N	-0.888175	-0.755600	0.354798
C56	C	-0.860882	-0.722133	0.401811
O57	O	-0.889128	-0.693685	0.441802
C58	C	-0.806278	-0.722116	0.401804
C59	C	-0.778968	-0.755562	0.354782
C60	C	-0.778947	-0.822472	0.260756
C61	C	-0.724347	-0.822451	0.260745
C62	C	-0.697057	-0.788986	0.307753
C63	C	-0.724367	-0.755541	0.354771
C64	C	-0.778986	-0.688652	0.448820
C65	C	-0.724379	-0.688638	0.448810
C66	C	-0.697068	-0.722085	0.401787
C67	C	-0.642477	-0.722055	0.401768
N68	N	-0.615163	-0.755503	0.354754
C69	C	-0.642453	-0.788968	0.307746
C70	C	-0.975552	-0.722173	0.401822
C71	C	-1.030155	-0.722187	0.401826
C72	C	-1.030131	-0.789102	0.307799
C73	C	-0.975528	-0.789085	0.307793
C74	C	-0.948239	-0.755621	0.354808
C75	C	-0.527788	-0.788921	0.307727
C76	C	-0.473183	-0.788896	0.307718
C77	C	-0.473211	-0.721982	0.401747
C78	C	-0.527812	-0.722005	0.401753
C79	C	-0.555099	-0.755479	0.354741
O80	O	-0.614204	-0.693596	0.441707
O81	O	-0.614201	-0.817416	0.267769
C82	C	-0.115563	-0.755611	0.354799
C83	C	-0.057449	-0.755654	0.354821
C84	C	-0.251900	-0.755540	0.546702
C85	C	-0.251885	-0.755553	0.628501
C86	C	-0.251956	0.108119	0.354796
C87	C	-0.251959	0.050005	0.354793
C88	C	-0.251935	-0.755506	0.163543
C89	C	-0.251803	-0.755594	0.081745
C90	C	-0.218419	-0.789031	0.816722
C91	C	-0.218404	-0.789037	0.893581
C92	C	-0.285270	-0.722113	0.893518
C93	C	-0.285282	-0.722105	0.816661
C94	C	-0.251858	-0.755566	0.778265
C95	C	-0.251830	-0.755581	0.931981
C96	C	-0.251814	-0.755588	1.015315
C97	C	-0.251873	-0.755559	0.694926
H98	H	-0.312668	-0.457433	0.439957
H99	H	-0.346160	-0.305310	0.486956
C100	C	-0.321498	-0.685701	0.935167
C101	C	-0.310102	-0.633975	0.916466
C102	C	-0.343462	-0.600419	0.954823
H103	H	-0.356649	-0.693258	0.922590
H104	H	-0.316700	-0.690464	0.986456
H105	H	-0.314905	-0.629215	0.865188
H106	H	-0.274957	-0.626402	0.929045
H107	H	-0.338664	-0.605181	1.006112
H108	H	-0.378611	-0.607980	0.942243
H109	H	-0.335731	-0.565319	0.942145
C110	C	-0.808657	-0.858743	0.209719
C111	C	-0.840084	-0.829197	0.162514
C112	C	-0.867470	-0.862601	0.115511
H113	H	-0.784641	-0.878687	0.181649
H114	H	-0.829942	-0.881497	0.237932
H115	H	-0.818800	-0.806453	0.134304
H116	H	-0.864110	-0.809255	0.190563
H117	H	-0.888755	-0.885355	0.143723
H118	H	-0.843450	-0.882543	0.087446
H119	H	-0.888799	-0.842559	0.083481
C120	C	-0.321687	-0.563870	0.452801
C121	C	-0.310358	-0.550636	0.525646
C122	C	-0.343769	-0.577910	0.572767
H123	H	-0.356826	-0.554918	0.442042
H124	H	-0.316889	-0.600305	0.446119
H125	H	-0.315160	-0.514209	0.532325
H126	H	-0.275225	-0.559589	0.536429
H127	H	-0.338971	-0.614345	0.566085
H128	H	-0.378905	-0.568956	0.562001
H129	H	-0.336083	-0.568938	0.622197
H130	H	-0.191201	-0.816276	0.785463
C131	C	-0.182080	-0.825429	0.935202
C132	C	-0.152821	-0.854739	0.885123
C133	C	-0.119358	-0.888274	0.923437
H134	H	-0.159243	-0.805508	0.965185
H135	H	-0.202067	-0.848226	0.965173
H136	H	-0.132836	-0.831945	0.855165
H137	H	-0.175644	-0.874671	0.855139
H138	H	-0.139345	-0.911071	0.953408
H139	H	-0.096525	-0.868348	0.953418
H140	H	-0.099505	-0.908168	0.889465
H141	H	-0.550049	-0.694772	0.440045
C142	C	-0.694846	-0.652248	0.499887
C143	C	-0.730455	-0.622956	0.541053
C144	C	-0.703270	-0.589424	0.588105
H145	H	-0.673510	-0.672171	0.532044
H146	H	-0.673590	-0.629439	0.471719
H147	H	-0.751701	-0.645762	0.569220
H148	H	-0.751791	-0.603022	0.508916
H149	H	-0.682014	-0.566616	0.559937
H150	H	-0.681935	-0.609352	0.620257
H151	H	-0.727426	-0.569542	0.616037
C152	C	-0.694674	-0.858683	0.209605
C153	C	-0.663384	-0.829096	0.162363
C154	C	-0.636052	-0.862459	0.115236
H155	H	-0.673298	-0.881458	0.237702
H156	H	-0.718738	-0.878606	0.181574
H157	H	-0.639322	-0.809183	0.190391
H158	H	-0.684747	-0.806323	0.134250
H159	H	-0.660116	-0.882381	0.087204
H160	H	-0.614679	-0.885232	0.143339
H161	H	-0.614822	-0.842389	0.083172
C162	C	-0.945813	-0.825432	0.256862
C163	C	-0.914408	-0.858911	0.298575
C164	C	-0.887025	-0.892399	0.251682
H165	H	-0.969831	-0.845412	0.228852
H166	H	-0.924513	-0.805454	0.224773
H167	H	-0.935706	-0.878887	0.330651
H168	H	-0.890380	-0.838946	0.326584
H169	H	-0.865725	-0.872421	0.219593
H170	H	-0.911047	-0.912375	0.223674
H171	H	-0.865711	-0.915115	0.279977
H172	H	-0.312512	-0.694850	0.785348
C173	C	-0.182105	-0.563977	0.256787
C174	C	-0.189261	-0.617639	0.266854
C175	C	-0.155794	-0.645051	0.219967
H176	H	-0.189673	-0.555070	0.207289
H177	H	-0.146975	-0.555084	0.267661
H178	H	-0.224384	-0.626530	0.255975
H179	H	-0.181689	-0.626563	0.316343
H180	H	-0.120663	-0.636157	0.230841
H181	H	-0.163365	-0.636139	0.170472
H182	H	-0.160641	-0.681463	0.226796
H183	H	-1.052361	-0.816354	0.269526
C184	C	-0.182175	-0.449958	0.256645
C185	C	-0.211726	-0.418571	0.209394
C186	C	-0.178328	-0.391229	0.162334
H187	H	-0.159414	-0.428647	0.284790
H188	H	-0.162239	-0.474016	0.228617
H189	H	-0.231652	-0.394516	0.237419
H190	H	-0.234485	-0.439869	0.181233
H191	H	-0.158392	-0.415287	0.134306
H192	H	-0.155569	-0.369921	0.190485
H193	H	-0.198373	-0.369933	0.130264
H194	H	-0.312699	-0.054137	0.440017
H195	H	-0.450983	-0.694733	0.440018
C196	C	-1.059708	-0.685849	0.452954
C197	C	-1.024115	-0.656548	0.494128
C198	C	-1.051318	-0.623075	0.541247
H199	H	-1.081046	-0.663039	0.424856
H200	H	-1.080963	-0.705831	0.485098
H201	H	-1.002869	-0.636568	0.461989
H202	H	-1.002776	-0.679344	0.522241
H203	H	-1.072573	-0.643057	0.573390
H204	H	-1.072655	-0.600269	0.513143
H205	H	-1.027172	-0.603194	0.569194
H206	H	-0.346163	-0.206265	0.486976
C207	C	-0.443626	-0.825269	0.256636
C208	C	-0.479217	-0.854591	0.215488
C209	C	-0.452011	-0.888108	0.168433
H210	H	-0.422358	-0.805334	0.224468
H211	H	-0.422302	-0.848060	0.284802
H212	H	-0.500533	-0.831804	0.187324
H213	H	-0.500487	-0.874537	0.247636
H214	H	-0.430687	-0.910898	0.196599
H215	H	-0.430744	-0.868168	0.136270
H216	H	-0.476156	-0.908010	0.140514
H217	H	-0.312701	0.044928	0.440028
H218	H	-0.191220	0.044930	0.269549
H219	H	-0.191204	-0.054120	0.269543
C220	C	-0.148642	-0.198917	0.209672
C221	C	-0.159956	-0.212190	0.136837
C222	C	-0.126495	-0.184986	0.089705
H223	H	-0.153391	-0.162476	0.216282
H224	H	-0.113516	-0.207910	0.220492
H225	H	-0.195073	-0.203193	0.126021
H226	H	-0.155203	-0.248627	0.130204
H227	H	-0.091369	-0.193980	0.100525
H228	H	-0.131247	-0.148546	0.096321
H229	H	-0.134164	-0.193992	0.040282
C230	C	-0.557431	-0.825336	0.256811
C231	C	-0.588711	-0.858856	0.298539
C232	C	-0.616018	-0.892414	0.251662
H233	H	-0.578811	-0.805427	0.224695
H234	H	-0.533351	-0.845278	0.228830
H235	H	-0.612788	-0.838916	0.326508
H236	H	-0.567344	-0.878776	0.330653
H237	H	-0.591938	-0.912356	0.223681
H238	H	-0.637395	-0.872501	0.219548
H239	H	-0.637241	-0.915164	0.279967
C240	C	-0.148544	-0.312740	0.209912
C241	C	-0.115058	-0.344116	0.251659
C242	C	-0.081497	-0.371439	0.204803
H243	H	-0.168451	-0.334057	0.177774
H244	H	-0.128576	-0.288671	0.181954
H245	H	-0.135024	-0.368182	0.279605
H246	H	-0.095140	-0.322811	0.283796
H247	H	-0.061530	-0.347370	0.176844
H248	H	-0.101408	-0.392753	0.172667
H249	H	-0.058770	-0.392727	0.233121
C250	C	-0.945860	-0.685800	0.452744
C251	C	-0.914552	-0.652302	0.411022
C252	C	-0.887191	-0.618795	0.457906
H253	H	-0.969891	-0.665834	0.480758
H254	H	-0.924497	-0.705763	0.484831
H255	H	-0.935914	-0.632342	0.378948
H256	H	-0.890512	-0.672254	0.383010
H257	H	-0.865827	-0.638757	0.489993
H258	H	-0.911226	-0.598833	0.485918
H259	H	-0.865942	-0.596066	0.429605
C260	C	-0.808692	-0.652426	0.499926
C261	C	-0.839997	-0.682024	0.547136
C262	C	-0.867374	-0.648670	0.594224
H263	H	-0.784670	-0.632488	0.527990
H264	H	-0.830059	-0.629666	0.471776
H265	H	-0.818632	-0.704775	0.575283
H266	H	-0.864029	-0.701961	0.519093
H267	H	-0.888740	-0.625909	0.566074
H268	H	-0.843348	-0.628733	0.622282
H269	H	-0.888620	-0.668747	0.626257
