data_functionalizedCrystal
_audit_creation_method	'MofGen! by Chris Wilmer'
_symmetry_space_group_name_H-M	'P1'
_symmetry_Int_Tables_number	1
_symmetry_cell_setting	triclinic
loop_
_symmetry_equiv_pos_as_xyz
  x,y,z
_cell_length_a	15.944545
_cell_length_b	14.853567
_cell_length_c	13.330367
_cell_angle_alpha	90.000844
_cell_angle_beta	89.995231
_cell_angle_gamma	96.434449
loop_
_atom_site_label
_atom_site_type_symbol
_atom_site_fract_x
_atom_site_fract_y
_atom_site_fract_z
O1	O	1.114661	-0.116246	-0.083350
O2	O	1.614661	0.383754	0.416650
O3	O	0.870126	-0.130587	-0.083365
O4	O	1.370126	0.369413	0.416635
O5	O	0.998925	0.007822	-0.083360
O6	O	1.498925	0.507822	0.416640
O7	O	0.985862	-0.254655	-0.083355
O8	O	1.485862	0.245345	0.416645
O9	O	0.998907	0.007825	0.083487
O10	O	1.498907	0.507825	0.583487
O11	O	0.870108	-0.130584	0.083482
O12	O	1.370108	0.369416	0.583482
O13	O	1.114642	-0.116243	0.083497
O14	O	1.614642	0.383757	0.583497
Cu15	Cu	0.992373	-0.123413	0.098724
Cu16	Cu	1.492373	0.376587	0.598724
Cu17	Cu	0.992395	-0.123417	-0.098592
Cu18	Cu	1.492395	0.376583	0.401408
O19	O	0.985843	-0.254652	0.083492
O20	O	1.485843	0.245348	0.583492
C21	C	0.838822	-0.129991	0.000056
C22	C	1.338822	0.370009	0.500056
C23	C	0.745574	-0.128209	0.000050
C24	C	1.245574	0.371791	0.500050
C25	C	0.474840	-0.037092	0.000059
C26	C	0.974840	0.462908	0.500059
C27	C	0.525461	-0.081020	0.082327
C28	C	1.025461	0.418980	0.582327
C29	C	0.409923	-0.121854	0.000067
C30	C	0.909923	0.378146	0.500067
C31	C	0.525460	-0.081046	-0.082172
C32	C	1.025460	0.418954	0.417828
C33	C	0.574840	-0.124972	0.000057
C34	C	1.074840	0.375028	0.500057
C35	C	0.459316	-0.165759	0.082403
C36	C	0.959316	0.334241	0.582403
C37	C	0.459312	-0.165773	-0.082169
C38	C	0.959312	0.334227	0.417831
C39	C	0.509900	-0.209763	0.000118
C40	C	1.009900	0.290237	0.500118
C41	C	0.314919	-0.120056	0.000074
C42	C	0.814919	0.379944	0.500074
C43	C	0.669841	-0.126777	0.000058
C44	C	1.169841	0.373223	0.500058
C45	C	0.998324	0.041411	0.000060
C46	C	1.498324	0.541411	0.500060
C47	C	0.996550	0.141493	0.000052
C48	C	1.496550	0.641493	0.500052
C49	C	1.145946	-0.116839	0.000073
C50	C	1.645946	0.383161	0.500073
C51	C	1.239194	-0.118620	0.000073
C52	C	1.739194	0.381380	0.500073
C53	C	0.986444	-0.288241	0.000069
C54	C	1.486444	0.211759	0.500069
C55	C	0.988218	-0.388322	0.000072
C56	C	1.488218	0.111678	0.500072
N57	N	0.992364	-0.123410	0.237505
N58	N	1.492364	0.376590	0.737505
C59	C	0.912543	0.553917	0.000065
C60	C	1.412543	1.053917	0.500065
C61	C	1.065559	0.575398	0.000075
C62	C	1.565559	1.075398	0.500075
C63	C	1.067227	0.481366	0.000069
C64	C	1.567227	0.981366	0.500069
C65	C	0.991551	0.423605	0.000063
C66	C	1.491551	0.923605	0.500063
C67	C	0.914208	0.459876	0.000063
C68	C	1.414208	0.959876	0.500063
C69	C	1.144569	0.445088	0.000080
C70	C	1.644569	0.945088	0.500080
C71	C	1.146240	0.351052	0.000075
C72	C	1.646240	0.851052	0.500075
C73	C	1.070563	0.293289	0.000062
C74	C	1.570563	0.793289	0.500062
C75	C	0.993217	0.329565	0.000060
C76	C	1.493217	0.829565	0.500060
C77	C	0.917542	0.271804	0.000054
C78	C	1.417542	0.771804	0.500054
C79	C	0.840194	0.308078	0.000045
C80	C	1.340194	0.808078	0.500045
C81	C	0.838532	0.402114	0.000049
C82	C	1.338532	0.902114	0.500049
C83	C	1.072226	0.199254	0.000058
C84	C	1.572226	0.699254	0.500058
C85	C	0.919207	0.177763	0.000051
C86	C	1.419207	0.677763	0.500051
N87	N	0.992411	-0.123413	-0.237374
N88	N	1.492411	0.376587	0.262626
C89	C	0.935361	-0.184680	0.710126
C90	C	1.435361	0.315320	1.210126
C91	C	1.049453	-0.062146	0.710099
C92	C	1.549453	0.437854	1.210099
C93	C	1.049443	-0.062143	0.605080
C94	C	1.549443	0.437857	1.105080
C95	C	0.992392	-0.123411	0.552580
C96	C	1.492392	0.376589	1.052580
C97	C	0.935351	-0.184681	0.605098
C98	C	1.435351	0.315319	1.105098
C99	C	1.106489	-0.000880	0.552554
C100	C	1.606489	0.499120	1.052554
C101	C	1.106483	-0.000876	0.447529
C102	C	1.606483	0.499124	0.947529
C103	C	1.049427	-0.062140	0.395027
C104	C	1.549427	0.437860	0.895027
C105	C	0.992383	-0.123412	0.447552
C106	C	1.492383	0.376588	0.947552
C107	C	0.935332	-0.184679	0.395052
C108	C	1.435332	0.315321	0.895052
C109	C	0.878283	-0.245947	0.447574
C110	C	1.378283	0.254053	0.947574
C111	C	0.878295	-0.245945	0.552596
C112	C	1.378295	0.254055	1.052596
C113	C	1.049415	-0.062142	0.290006
C114	C	1.549415	0.437858	0.790006
C115	C	0.935322	-0.184680	0.290024
C116	C	1.435322	0.315320	0.790024
H117	H	0.857582	0.130740	0.000042
H118	H	1.357582	0.630740	0.500042
H119	H	0.525474	-0.282817	0.000168
H120	H	1.025474	0.217183	0.500168
O121	O	0.563735	-0.033617	0.174454
O122	O	1.063735	0.466383	0.674454
H123	H	0.633069	-0.035957	0.173958
H124	H	1.133069	0.464043	0.673958
O125	O	0.758575	0.245774	0.000051
O126	O	1.258575	0.745774	0.500051
H127	H	0.721568	0.258666	-0.067951
H128	H	1.221568	0.758666	0.432049
H129	H	0.554345	-0.045235	-0.151718
H130	H	1.054345	0.454765	0.348282
H131	H	0.775560	0.431657	0.000043
H132	H	1.275560	0.931657	0.500043
O133	O	1.229662	0.311935	0.000061
O134	O	1.729662	0.811935	0.500061
H135	H	1.266031	0.335135	0.068060
H136	H	1.766031	0.835135	0.568060
O137	O	1.110934	0.003933	0.233352
O138	O	1.610934	0.503933	0.733352
H139	H	1.150605	0.046537	0.287503
H140	H	1.650605	0.546537	0.787503
O141	O	0.421212	-0.213123	0.174646
O142	O	0.921212	0.286877	0.674646
H143	H	0.351800	-0.211396	0.173949
H144	H	0.851800	0.288604	0.673949
O145	O	0.829119	0.593031	0.000068
O146	O	1.329119	1.093031	0.500068
H147	H	0.840669	0.668124	0.000079
H148	H	1.340669	1.168124	0.500079
O149	O	0.816736	-0.312015	0.390947
O150	O	1.316736	0.187985	0.890947
H151	H	0.826312	-0.301711	0.309097
H152	H	1.326312	0.198289	0.809097
H153	H	1.127170	0.622432	0.000088
H154	H	1.627170	1.122432	0.500088
O155	O	1.110989	0.003929	0.766715
O156	O	1.610989	0.503929	1.266715
H157	H	1.075589	0.047774	0.814571
H158	H	1.575589	0.547774	1.314571
H159	H	0.430413	-0.201540	-0.151721
H160	H	0.930413	0.298460	0.348279
H161	H	0.459105	0.035905	0.000137
H162	H	0.959105	0.535905	0.500137
H163	H	0.831849	-0.295828	0.595366
H164	H	1.331849	0.204172	1.095366
O165	O	1.168000	0.065211	0.390881
O166	O	1.668000	0.565211	0.890881
H167	H	1.207667	0.107819	0.445033
H168	H	1.707667	0.607819	0.945033
O169	O	1.226187	0.507382	0.000100
O170	O	1.726187	1.007382	0.500100
H171	H	1.212033	0.578864	0.000093
H172	H	1.712033	1.078864	0.500093
H173	H	0.888910	-0.234562	0.752893
H174	H	1.388910	0.265438	1.252893
O175	O	1.155638	0.160124	0.000060
O176	O	1.655638	0.660124	0.500060
H177	H	1.207980	0.216087	0.000061
H178	H	1.707980	0.716087	0.500061
H179	H	1.152942	0.048997	0.595303
H180	H	1.652942	0.548997	1.095303
O181	O	0.873787	-0.250755	0.233390
O182	O	1.373787	0.249245	0.733390
H183	H	0.884567	-0.321046	0.253534
H184	H	1.384567	0.178954	0.753534
