data_functionalizedCrystal
_audit_creation_method	'MofGen! by Chris Wilmer'
_symmetry_space_group_name_H-M	'P1'
_symmetry_Int_Tables_number	1
_symmetry_cell_setting	triclinic
loop_
_symmetry_equiv_pos_as_xyz
  x,y,z
_cell_length_a	14.908941
_cell_length_b	14.908579
_cell_length_c	14.908294
_cell_angle_alpha	83.636631
_cell_angle_beta	83.630300
_cell_angle_gamma	96.420196
loop_
_atom_site_label
_atom_site_type_symbol
_atom_site_fract_x
_atom_site_fract_y
_atom_site_fract_z
Zn1	Zn	-1.335348	0.308090	-0.450950
Zn2	Zn	-1.335242	0.450742	-0.308334
Zn3	Zn	-1.192720	0.308128	-0.308327
Zn4	Zn	-1.174075	0.469286	-0.469496
O5	O	-1.259346	0.384062	-0.384277
O6	O	-1.462473	0.319237	-0.424273
O7	O	-1.324095	0.424079	-0.181197
O8	O	-1.219487	0.180977	-0.319482
O9	O	-1.462395	0.424042	-0.319493
O10	O	-1.324275	0.180949	-0.424267
O11	O	-1.219385	0.319301	-0.181193
O12	O	-1.063108	0.337282	-0.337465
O13	O	-1.187710	0.455648	-0.594171
O14	O	-1.049410	0.455685	-0.455875
O15	O	-1.306196	0.337218	-0.580546
O16	O	-1.306016	0.580348	-0.337476
O17	O	-1.187607	0.593972	-0.455882
C18	C	-1.023293	0.398501	-0.398683
C19	C	-0.922306	0.404701	-0.404868
C20	C	-0.746753	0.292895	-0.293343
C21	C	-0.651867	0.298717	-0.299152
C22	C	-0.637645	0.422172	-0.422290
C23	C	-0.732532	0.416350	-0.416481
C24	C	-0.787082	0.351708	-0.352006
C25	C	-0.881970	0.345882	-0.346202
C26	C	-0.867747	0.469340	-0.469335
C27	C	-0.772861	0.475163	-0.475144
C28	C	-1.244800	0.620127	-0.398710
C29	C	-1.238658	0.721113	-0.404910
C30	C	-0.496322	0.369557	-0.369808
C31	C	-0.597310	0.363353	-0.363624
C32	C	-1.350530	0.896628	-0.293352
C33	C	-1.344763	0.991514	-0.299174
C34	C	-1.221361	1.005772	-0.422381
C35	C	-1.227129	0.910886	-0.416559
C36	C	-1.291714	0.856317	-0.352041
C37	C	-1.297477	0.761430	-0.346215
C38	C	-1.174080	0.775690	-0.469426
C39	C	-1.168313	0.870575	-0.475248
C40	C	-1.244885	0.398498	-0.621245
C41	C	-1.238723	0.404649	-0.722227
C42	C	-1.273966	1.147075	-0.369817
C43	C	-1.280179	1.046088	-0.363686
C44	C	-1.168350	0.474969	-0.871651
C45	C	-1.174139	0.469196	-0.776770
C46	C	-1.297521	0.345870	-0.762571
C47	C	-1.291733	0.351644	-0.857452
C48	C	-1.227146	0.416196	-0.911989
C49	C	-1.221363	0.421973	-1.006871
C50	C	-1.344741	0.298645	-0.992671
C51	C	-1.350529	0.292871	-0.897790
C52	C	-1.273808	0.369613	-0.148223
C53	C	-1.280162	0.363194	-0.047215
H54	H	-0.728433	0.527795	-0.527635
F55	F	-1.419248	0.224159	-0.839739
H56	H	-1.392619	0.250789	-1.025524
F57	F	-0.910675	0.531924	-0.531787
H58	H	-1.350063	0.717001	-0.293679
F59	F	-1.419255	0.838550	-0.224678
H60	H	-1.115731	0.915018	-0.527779
F61	F	-1.111558	0.531748	-0.733842
F62	F	-0.940026	0.277083	-0.277586
H63	H	-1.115767	0.527535	-0.916055
F64	F	-0.804812	0.224093	-0.224732
F65	F	-1.152640	1.063862	-0.491049
F66	F	-1.111471	0.732782	-0.531882
F67	F	-1.407364	1.034412	-0.236711
H68	H	-0.619035	0.250825	-0.251383
H69	H	-1.168775	0.474537	-1.051274
F70	F	-1.366212	0.277134	-0.704515
H71	H	-0.593214	0.474808	-0.474774
