data_functionalizedCrystal
_audit_creation_method	'MofGen! by Chris Wilmer'
_symmetry_space_group_name_H-M	'P1'
_symmetry_Int_Tables_number	1
_symmetry_cell_setting	triclinic
loop_
_symmetry_equiv_pos_as_xyz
  x,y,z
_cell_length_a	15.995350
_cell_length_b	15.995350
_cell_length_c	9.130307
_cell_angle_alpha	89.998938
_cell_angle_beta	90.002128
_cell_angle_gamma	83.492375
loop_
_atom_site_label
_atom_site_type_symbol
_atom_site_fract_x
_atom_site_fract_y
_atom_site_fract_z
O1	O	1.110982	0.107925	-0.121668
O2	O	0.867207	0.121253	-0.121697
O3	O	0.995758	-0.007299	-0.121680
O4	O	0.982431	0.236477	-0.121685
O5	O	0.995754	-0.007300	0.121919
O6	O	0.867203	0.121252	0.121902
O7	O	1.110978	0.107924	0.121931
Cu8	Cu	0.989090	0.114588	0.144159
Cu9	Cu	0.989095	0.114589	-0.143925
O10	O	0.982427	0.236475	0.121914
C11	C	0.836010	0.120701	0.000098
C12	C	0.743060	0.119049	0.000087
C13	C	0.405312	0.113117	0.000118
C14	C	0.452746	0.021565	0.000663
C15	C	0.549436	0.023217	0.000103
C16	C	0.572873	0.116060	0.000103
C17	C	0.531788	0.161217	-0.138999
C18	C	0.435152	0.158917	-0.139105
C19	C	0.434808	0.160807	0.137913
C20	C	0.531754	0.160785	0.139741
C21	C	0.667570	0.117727	0.000090
C22	C	0.310614	0.111452	0.000121
C23	C	0.995205	-0.038494	0.000116
C24	C	0.993553	-0.131444	0.000108
C25	C	0.987621	-0.469192	0.000112
C26	C	0.896069	-0.421758	-0.000445
C27	C	0.897721	-0.325068	0.000104
C28	C	0.990564	-0.301631	0.000109
C29	C	1.035718	-0.342710	0.139219
C30	C	1.033418	-0.439345	0.139335
C31	C	1.035314	-0.439702	-0.137682
C32	C	1.035292	-0.342757	-0.139521
C33	C	0.992231	-0.206934	0.000112
C34	C	0.985956	-0.563890	0.000119
C35	C	1.142175	0.108476	0.000132
C36	C	1.235125	0.110127	0.000134
C37	C	0.982980	0.267671	0.000114
C38	C	0.984631	0.360621	0.000113
N39	N	0.989093	0.114586	0.346782
N40	N	0.989099	0.114584	-0.346548
C41	C	1.102971	0.000787	0.346787
C42	C	1.159916	-0.056111	0.423456
C43	C	1.159924	-0.056111	0.576789
C44	C	1.102980	0.000790	0.653457
C45	C	1.046035	0.057687	0.576788
C46	C	1.046035	0.057683	0.423451
C47	C	0.932154	0.171481	0.576783
C48	C	0.932148	0.171487	0.423449
C49	C	0.875210	0.228383	0.653451
C50	C	0.818268	0.285285	0.576782
C51	C	0.818262	0.285284	0.423439
C52	C	0.875204	0.228385	0.346780
H53	H	0.559069	0.127821	0.242648
H54	H	0.771888	0.331614	0.361023
H55	H	1.206278	-0.102441	0.361020
O56	O	0.552110	0.250466	0.150884
H57	H	0.527766	0.286101	0.052568
O58	O	0.586344	-0.024112	-0.132213
H59	H	0.655612	-0.023103	-0.133067
H60	H	0.875207	0.228382	0.221928
H61	H	0.577864	-0.012279	0.099818
O62	O	0.550490	0.251569	-0.145878
H63	H	0.619597	0.253379	-0.150769
O64	O	1.124725	-0.481775	-0.138940
H65	H	1.135185	-0.523492	-0.041958
H66	H	0.403047	0.228308	0.138853
O67	O	1.221349	-0.117472	0.659488
H68	H	1.210700	-0.182757	0.630064
O69	O	0.850690	-0.287406	-0.131962
H70	H	0.826556	-0.338249	-0.196797
O71	O	0.428211	-0.026918	0.132796
H72	H	0.381941	0.013714	0.199491
H73	H	1.102997	-0.327395	-0.147916
H74	H	0.416846	0.125987	-0.243087
H75	H	1.002279	-0.315507	-0.242430
H76	H	0.859478	-0.440289	-0.100204
H77	H	1.000488	-0.457647	0.243318
H78	H	0.402904	0.226133	-0.145418
H79	H	0.771904	0.331607	0.639214
H80	H	0.560164	0.129854	-0.242521
H81	H	1.102977	0.000788	0.221934
H82	H	0.859638	-0.441352	0.098749
H83	H	0.433154	-0.014861	-0.098542
O84	O	1.102985	0.000793	0.818838
H85	H	1.152150	-0.048328	0.859271
O86	O	0.407623	0.121149	0.277577
H87	H	0.337980	0.123939	0.279583
H88	H	0.861985	-0.297203	0.099985
O89	O	1.122447	-0.482072	0.147736
H90	H	1.166951	-0.433685	0.151710
H91	H	1.103927	-0.328584	0.144396
O92	O	0.994180	-0.305122	0.276351
H93	H	0.941383	-0.257196	0.245780
O94	O	0.875218	0.228393	0.818832
H95	H	0.924389	0.179278	0.859268
O96	O	0.995669	-0.466897	-0.277355
H97	H	0.941523	-0.501739	-0.250113
