data_functionalizedCrystal
_audit_creation_method	'MofGen! by Chris Wilmer'
_symmetry_space_group_name_H-M	'P1'
_symmetry_Int_Tables_number	1
_symmetry_cell_setting	triclinic
loop_
_symmetry_equiv_pos_as_xyz
  x,y,z
_cell_length_a	18.050589
_cell_length_b	17.077404
_cell_length_c	17.077396
_cell_angle_alpha	90.019501
_cell_angle_beta	89.975358
_cell_angle_gamma	89.971554
loop_
_atom_site_label
_atom_site_type_symbol
_atom_site_fract_x
_atom_site_fract_y
_atom_site_fract_z
Zn1	Zn	-0.295655	-1.200026	-0.443864
Zn2	Zn	0.037678	-0.866692	-0.110530
Zn3	Zn	0.371012	-0.533359	0.222803
Zn4	Zn	-0.419852	-1.199920	-0.312606
Zn5	Zn	-0.086519	-0.866587	0.020727
Zn6	Zn	0.246814	-0.533254	0.354060
Zn7	Zn	-0.295681	-1.068757	-0.312612
Zn8	Zn	0.037652	-0.735424	0.020722
Zn9	Zn	0.370986	-0.402091	0.354055
Zn10	Zn	-0.419808	-1.068713	-0.443830
Zn11	Zn	-0.086475	-0.735380	-0.110497
Zn12	Zn	0.246859	-0.402046	0.222837
O13	O	-0.357749	-1.134354	-0.378228
O14	O	-0.024416	-0.801021	-0.044895
O15	O	0.308918	-0.467687	0.288439
O16	O	-0.312138	-1.309858	-0.426464
O17	O	0.021196	-0.976525	-0.093131
O18	O	0.354529	-0.643192	0.240203
O19	O	-0.403410	-1.182496	-0.202760
O20	O	-0.070077	-0.849163	0.130573
O21	O	0.263257	-0.515829	0.463907
O22	O	-0.191753	-1.086233	-0.330039
O23	O	0.141580	-0.752900	0.003295
O24	O	0.474914	-0.419566	0.336628
O25	O	-0.403385	-1.309781	-0.330030
O26	O	-0.070051	-0.976448	0.003303
O27	O	0.263282	-0.643115	0.336637
O28	O	-0.191734	-1.182675	-0.426469
O29	O	0.141599	-0.849342	-0.093136
O30	O	0.474933	-0.516008	0.240198
O31	O	-0.312182	-1.086131	-0.202764
O32	O	0.021151	-0.752798	0.130569
O33	O	0.354485	-0.419464	0.463903
O34	O	-0.312139	-0.958905	-0.330006
O35	O	0.021194	-0.625571	0.003327
O36	O	0.354527	-0.292238	0.336661
O37	O	-0.403310	-1.086157	-0.553681
O38	O	-0.069976	-0.752824	-0.220348
O39	O	0.263357	-0.419491	0.112985
O40	O	-0.403335	-0.958872	-0.426412
O41	O	-0.070002	-0.625539	-0.093078
O42	O	0.263332	-0.292205	0.240255
O43	O	-0.312095	-1.182632	-0.553706
O44	O	0.021239	-0.849299	-0.220373
O45	O	0.354572	-0.515965	0.112961
O46	O	-0.523771	-1.182453	-0.329997
O47	O	-0.190438	-0.849120	0.003336
O48	O	0.142896	-0.515786	0.336669
O49	O	-0.523739	-1.086056	-0.426407
O50	O	-0.190405	-0.752722	-0.093073
O51	O	0.142928	-0.419389	0.240260
C52	C	-0.357736	-0.930406	-0.378206
C53	C	-0.024402	-0.597073	-0.044873
C54	C	0.308931	-0.263740	0.288460
C55	C	-0.357748	-0.843156	-0.378216
C56	C	-0.024414	-0.509823	-0.044882
C57	C	0.308919	-0.176490	0.288451
C58	C	-0.550701	-1.134259	-0.378215
C59	C	-0.217368	-0.800926	-0.044882
C60	C	0.115965	-0.467593	0.288452
C61	C	-0.633247	-1.134291	-0.378236
C62	C	-0.299914	-0.800957	-0.044902
C63	C	0.033420	-0.467624	0.288431
C64	C	-0.357694	-1.134402	-0.582972
C65	C	-0.024361	-0.801068	-0.249639
C66	C	0.308972	-0.467735	0.083694
C67	C	-0.357671	-1.134422	-0.670222
C68	C	-0.024338	-0.801089	-0.336889
C69	C	0.308996	-0.467755	-0.003555
C70	C	-0.832707	-1.081921	-0.430645
C71	C	-0.499374	-0.748588	-0.097311
C72	C	-0.166040	-0.415255	0.236022
C73	C	-0.882149	-1.062786	-0.359016
C74	C	-0.548815	-0.729453	-0.025682
C75	C	-0.215482	-0.396119	0.307651
C76	C	-0.784377	-1.134368	-0.378246
C77	C	-0.451044	-0.801034	-0.044912
C78	C	-0.117711	-0.467701	0.288421
C79	C	-0.882017	-1.153541	-0.449883
C80	C	-0.548684	-0.820208	-0.116550
C81	C	-0.215351	-0.486875	0.216784
C82	C	-0.930362	-1.134441	-0.378262
C83	C	-0.597029	-0.801107	-0.044929
C84	C	-0.263696	-0.467774	0.288405
C85	C	-0.832732	-1.115195	-0.306579
C86	C	-0.499398	-0.781862	0.026755
C87	C	-0.166065	-0.448528	0.360088
C88	C	-0.832596	-1.205984	-0.397495
C89	C	-0.499263	-0.872650	-0.064161
C90	C	-0.165929	-0.539317	0.269172
C91	C	-0.882016	-1.186876	-0.325816
C92	C	-0.548682	-0.853542	0.007517
C93	C	-0.215349	-0.520209	0.340851
C94	C	-0.700279	-1.134324	-0.378238
C95	C	-0.366946	-0.800990	-0.044904
C96	C	-0.033612	-0.467657	0.288429
C97	C	-1.014459	-1.134485	-0.378262
C98	C	-0.681126	-0.801152	-0.044929
C99	C	-0.347792	-0.467818	0.288404
C100	C	-0.164043	-1.134471	-0.378258
C101	C	0.169290	-0.801137	-0.044925
C102	C	0.502623	-0.467804	0.288408
C103	C	-0.081498	-1.134520	-0.378271
C104	C	0.251836	-0.801187	-0.044938
C105	C	0.585169	-0.467854	0.288396
C106	C	-0.357763	-1.339098	-0.378250
C107	C	-0.024430	-1.005765	-0.044917
C108	C	0.308904	-0.672432	0.288417
C109	C	-0.357769	-1.426348	-0.378260
C110	C	-0.024436	-1.093015	-0.044926
C111	C	0.308898	-0.759681	0.288407
C112	C	-0.405305	-0.802170	-0.428333
C113	C	-0.071972	-0.468837	-0.095000
C114	C	0.261362	-0.135503	0.238333
C115	C	-0.405307	-0.720189	-0.428346
C116	C	-0.071973	-0.386856	-0.095013
C117	C	0.261360	-0.053523	0.238321
C118	C	-0.357754	-0.679197	-0.378236
C119	C	-0.024421	-0.345864	-0.044903
C120	C	0.308912	-0.012530	0.288431
C121	C	-0.310192	-0.720189	-0.328116
C122	C	0.023142	-0.386856	0.005217
C123	C	0.356475	-0.053523	0.338551
C124	C	-0.310187	-0.802168	-0.328108
C125	C	0.023146	-0.468835	0.005225
C126	C	0.356480	-0.135502	0.338559
C127	C	-0.310206	-0.549319	-0.328135
C128	C	0.023127	-0.215986	0.005198
C129	C	0.356460	0.117347	0.338532
C130	C	-0.310212	-0.467335	-0.328142
C131	C	0.023121	-0.134001	0.005192
C132	C	0.356455	0.199332	0.338525
C133	C	-0.405326	-0.467340	-0.428373
C134	C	-0.071993	-0.134007	-0.095040
C135	C	0.261341	0.199326	0.238294
C136	C	-0.405321	-0.549319	-0.428365
C137	C	-0.071988	-0.215986	-0.095032
C138	C	0.261345	0.117347	0.238302
C139	C	-0.357760	-0.590306	-0.378244
C140	C	-0.024426	-0.256973	-0.044910
C141	C	0.308907	0.076361	0.288423
C142	C	-0.310172	-1.184658	-0.711226
C143	C	0.023162	-0.851325	-0.377893
C144	C	0.356495	-0.517991	-0.044560
C145	C	-0.310147	-1.184667	-0.793207
C146	C	0.023186	-0.851334	-0.459874
C147	C	0.356520	-0.518001	-0.126540
C148	C	-0.357626	-1.134444	-0.834182
C149	C	-0.024293	-0.801111	-0.500848
C150	C	0.309041	-0.467777	-0.167515
C151	C	-0.405128	-1.084202	-0.793172
C152	C	-0.071794	-0.750869	-0.459838
C153	C	0.261539	-0.417536	-0.126505
C154	C	-0.405148	-1.084190	-0.711193
C155	C	-0.071815	-0.750856	-0.377859
C156	C	0.261519	-0.417523	-0.044526
C157	C	-0.405083	-1.084234	-0.964042
C158	C	-0.071750	-0.750901	-0.630708
C159	C	0.261584	-0.417567	-0.297375
C160	C	-0.405064	-1.084248	-1.046026
C161	C	-0.071730	-0.750914	-0.712693
C162	C	0.261603	-0.417581	-0.379360
C163	C	-0.310082	-1.184712	-1.046056
C164	C	0.023252	-0.851379	-0.712723
C165	C	0.356585	-0.518045	-0.379389
C166	C	-0.310102	-1.184699	-0.964077
C167	C	0.023231	-0.851366	-0.630744
C168	C	0.356564	-0.518032	-0.297410
C169	C	-0.357605	-1.134458	-0.923073
C170	C	-0.024272	-0.801125	-0.589739
C171	C	0.309062	-0.467792	-0.256406
C172	C	-0.357750	-1.134352	-0.174280
C173	C	-0.024417	-0.801019	0.159053
C174	C	0.308917	-0.467685	0.492387
C175	C	-0.357564	-1.134484	-0.087031
C176	C	-0.024231	-0.801151	0.246303
C177	C	0.309103	-0.467817	0.579636
H178	H	-0.811056	-1.037504	-0.474894
H179	H	-0.477722	-0.704170	-0.141561
H180	H	-0.144389	-0.370837	0.191773
H181	H	-0.903931	-1.002257	-0.342749
H182	H	-0.570597	-0.668924	-0.009416
H183	H	-0.237264	-0.335591	0.323917
H184	H	-0.903530	-1.231259	-0.281460
H185	H	-0.570196	-0.897926	0.051873
H186	H	-0.236863	-0.564593	0.385207
H187	H	-0.810816	-1.266499	-0.413795
H188	H	-0.477483	-0.933165	-0.080462
H189	H	-0.144149	-0.599832	0.252872
H190	H	-0.444033	-0.686822	-0.469156
H191	H	-0.110700	-0.353488	-0.135823
H192	H	0.222633	-0.020155	0.197510
H193	H	-0.903667	-1.169729	-0.510460
H194	H	-0.570333	-0.836396	-0.177126
H195	H	-0.237000	-0.503063	0.156207
H196	H	-0.811172	-1.098937	-0.245986
H197	H	-0.477839	-0.765604	0.087348
H198	H	-0.144505	-0.432270	0.420681
H199	H	-0.271511	-1.225558	-0.677871
H200	H	0.061823	-0.892225	-0.344537
H201	H	0.395156	-0.558892	-0.011204
H202	H	-0.271470	-0.582688	-0.287328
H203	H	0.061863	-0.249355	0.046006
H204	H	0.395197	0.083979	0.379339
H205	H	-0.271457	-0.835538	-0.287301
H206	H	0.061876	-0.502205	0.046032
H207	H	0.395210	-0.168872	0.379366
H208	H	-0.271402	-1.225619	-1.079446
H209	H	0.061931	-0.892285	-0.746112
H210	H	0.395265	-0.558952	-0.412779
H211	H	-0.271471	-0.686807	-0.287319
H212	H	0.061863	-0.353473	0.046014
H213	H	0.395196	-0.020140	0.379348
H214	H	-0.444030	-0.835540	-0.469136
H215	H	-0.110697	-0.502207	-0.135803
H216	H	0.222636	-0.168873	0.197530
H217	H	-0.271482	-0.433961	-0.287347
H218	H	0.061852	-0.100627	0.045986
H219	H	0.395185	0.232706	0.379319
H220	H	-0.271470	-1.225577	-0.826589
H221	H	0.061864	-0.892243	-0.493256
H222	H	0.395197	-0.558910	-0.159922
H223	H	-0.444047	-0.582693	-0.469164
H224	H	-0.110713	-0.249360	-0.135831
H225	H	0.222620	0.083973	0.197502
H226	H	-0.271445	-1.225600	-0.930718
H227	H	0.061889	-0.892266	-0.597384
H228	H	0.395222	-0.558933	-0.264051
H229	H	-0.443724	-1.043350	-1.079386
H230	H	-0.110390	-0.710016	-0.746053
H231	H	0.222943	-0.376683	-0.412719
H232	H	-0.443819	-1.043274	-0.677808
H233	H	-0.110486	-0.709941	-0.344475
H234	H	0.222847	-0.376607	-0.011141
H235	H	-0.443753	-1.043310	-0.930658
H236	H	-0.110420	-0.709977	-0.597325
H237	H	0.222914	-0.376644	-0.263992
H238	H	-0.444050	-0.433965	-0.469186
H239	H	-0.110717	-0.100632	-0.135853
H240	H	0.222616	0.232701	0.197481
H241	H	-0.443783	-1.043307	-0.826540
H242	H	-0.110450	-0.709973	-0.493206
H243	H	0.222884	-0.376640	-0.159873
