data_functionalizedCrystal
_audit_creation_method	'MofGen! by Chris Wilmer'
_symmetry_space_group_name_H-M	'P1'
_symmetry_Int_Tables_number	1
_symmetry_cell_setting	triclinic
loop_
_symmetry_equiv_pos_as_xyz
  x,y,z
_cell_length_a	14.519731
_cell_length_b	10.540510
_cell_length_c	13.596369
_cell_angle_alpha	89.996501
_cell_angle_beta	89.994584
_cell_angle_gamma	84.101082
loop_
_atom_site_label
_atom_site_type_symbol
_atom_site_fract_x
_atom_site_fract_y
_atom_site_fract_z
O1	O	1.224741	0.166531	-0.081788
O2	O	1.558074	0.499864	0.251545
O3	O	1.891407	0.833198	0.584879
O4	O	0.956370	0.186098	-0.081789
O5	O	1.289704	0.519432	0.251544
O6	O	1.623037	0.852765	0.584878
O7	O	1.096693	-0.008456	-0.081788
O8	O	1.430026	0.324877	0.251545
O9	O	1.763359	0.658210	0.584879
O10	O	1.084418	0.361086	-0.081789
O11	O	1.417752	0.694419	0.251544
O12	O	1.751085	1.027752	0.584878
O13	O	1.096678	-0.008467	0.081795
O14	O	1.430012	0.324867	0.415128
O15	O	1.763345	0.658200	0.748462
O16	O	0.956356	0.186088	0.081794
O17	O	1.289690	0.519421	0.415127
O18	O	1.623023	0.852755	0.748461
O19	O	1.224727	0.166521	0.081795
O20	O	1.558060	0.499854	0.415128
O21	O	1.891393	0.833187	0.748462
Zn22	Zn	1.090539	0.176303	0.107767
Zn23	Zn	1.423872	0.509636	0.441100
Zn24	Zn	1.757206	0.842969	0.774433
Zn25	Zn	1.090558	0.176316	-0.107761
Zn26	Zn	1.423891	0.509650	0.225573
Zn27	Zn	1.757224	0.842983	0.558906
O28	O	1.084404	0.361075	0.081794
O29	O	1.417738	0.694409	0.415127
O30	O	1.751071	1.027742	0.748461
C31	C	0.921999	0.185176	0.000002
C32	C	1.255332	0.518510	0.333336
C33	C	1.588666	0.851843	0.666669
C34	C	0.819604	0.182429	0.000002
C35	C	1.152937	0.515762	0.333335
C36	C	1.486271	0.849096	0.666669
C37	C	0.736448	0.180197	-0.000002
C38	C	1.069781	0.513530	0.333331
C39	C	1.403115	0.846863	0.666665
C40	C	0.632125	0.177407	-0.000002
C41	C	0.965458	0.510740	0.333331
C42	C	1.298791	0.844074	0.666664
C43	C	0.548974	0.175193	-0.000002
C44	C	0.882307	0.508526	0.333331
C45	C	1.215640	0.841860	0.666664
C46	C	0.444644	0.172404	-0.000005
C47	C	0.777977	0.505737	0.333329
C48	C	1.111310	0.839071	0.666662
C49	C	1.095771	-0.055756	0.000001
C50	C	1.429104	0.277578	0.333335
C51	C	1.762437	0.610911	0.666668
C52	C	1.093034	-0.196678	-0.000005
C53	C	1.426368	0.136655	0.333329
C54	C	1.759701	0.469989	0.666662
C55	C	1.190516	-0.415118	0.000370
C56	C	1.523849	-0.081785	0.333704
C57	C	1.857182	0.251548	0.667037
C58	C	1.193435	-0.268552	-0.000003
C59	C	1.526768	0.064781	0.333330
C60	C	1.860101	0.398114	0.666663
C61	C	1.041647	-0.240912	-0.093417
C62	C	1.374980	0.092422	0.239917
C63	C	1.708314	0.425755	0.573250
C64	C	1.039439	-0.387650	-0.093490
C65	C	1.372773	-0.054317	0.239844
C66	C	1.706106	0.279016	0.573177
C67	C	1.037332	-0.387449	0.092535
C68	C	1.370666	-0.054116	0.425868
C69	C	1.703999	0.279217	0.759201
C70	C	1.042094	-0.241156	0.093764
C71	C	1.375428	0.092177	0.427098
C72	C	1.708761	0.425510	0.760431
C73	C	1.259098	0.167443	0.000001
C74	C	1.592431	0.500776	0.333335
C75	C	1.925765	0.834109	0.666668
C76	C	1.361493	0.170190	-0.000004
C77	C	1.694826	0.503523	0.333329
C78	C	2.028159	0.836857	0.666662
C79	C	1.085326	0.408375	0.000002
C80	C	1.418659	0.741708	0.333336
C81	C	1.751993	1.075041	0.666669
C82	C	1.088063	0.549297	0.000002
C83	C	1.421396	0.882630	0.333335
C84	C	1.754729	1.215964	0.666669
N85	N	1.090533	0.176293	0.254859
N86	N	1.423866	0.509626	0.588192
N87	N	1.757200	0.842959	0.921525
N88	N	1.090571	0.176316	-0.254853
N89	N	1.423904	0.509650	0.078481
N90	N	1.757238	0.842983	0.411814
C91	C	1.090557	0.176318	0.656150
C92	C	1.423890	0.509651	0.989483
C93	C	1.757223	0.842984	1.322816
C94	C	1.090547	0.176315	0.544498
C95	C	1.423881	0.509648	0.877832
C96	C	1.757214	0.842982	1.211165
C97	C	1.090545	0.176306	0.455508
C98	C	1.423879	0.509639	0.788841
C99	C	1.757212	0.842973	1.122174
C100	C	1.090535	0.176301	0.343849
C101	C	1.423868	0.509635	0.677183
C102	C	1.757202	0.842968	1.010516
H103	H	1.233642	-0.239619	0.066957
H104	H	1.566976	0.093715	0.400290
H105	H	1.900309	0.427048	0.733623
H106	H	1.069232	-0.429958	0.163341
H107	H	1.402565	-0.096625	0.496675
H108	H	1.735899	0.236709	0.830008
H109	H	1.077345	-0.210411	-0.162933
H110	H	1.410679	0.122922	0.170400
H111	H	1.744012	0.456255	0.503733
H112	H	1.229625	-0.457473	0.067361
H113	H	1.562958	-0.124140	0.400694
H114	H	1.896291	0.209194	0.734028
H115	H	1.079486	-0.212927	0.162870
H116	H	1.412819	0.120407	0.496203
H117	H	1.746152	0.453740	0.829536
H118	H	0.964346	-0.409886	-0.097722
H119	H	1.297679	-0.076553	0.235611
H120	H	1.631013	0.256780	0.568944
H121	H	1.229411	-0.459013	-0.066241
H122	H	1.562744	-0.125680	0.267092
H123	H	1.896077	0.207654	0.600426
H124	H	0.967734	-0.192776	-0.096890
H125	H	1.301068	0.140558	0.236443
H126	H	1.634401	0.473891	0.569776
H127	H	1.074569	-0.428216	-0.163316
H128	H	1.407902	-0.094883	0.170017
H129	H	1.741236	0.238451	0.503350
Cl130	Cl	0.928920	-0.164265	0.102474
Cl131	Cl	1.262253	0.169069	0.435808
Cl132	Cl	1.595587	0.502402	0.769141
H133	H	0.961951	-0.408838	0.093164
H134	H	1.295284	-0.075504	0.426497
H135	H	1.628618	0.257829	0.759830
H136	H	1.233887	-0.240551	-0.067080
H137	H	1.567221	0.092782	0.266253
H138	H	1.900554	0.426115	0.599587
