data_functionalizedCrystal
_audit_creation_method	'MofGen! by Chris Wilmer'
_symmetry_space_group_name_H-M	'P1'
_symmetry_Int_Tables_number	1
_symmetry_cell_setting	triclinic
loop_
_symmetry_equiv_pos_as_xyz
  x,y,z
_cell_length_a	19.188940
_cell_length_b	19.188930
_cell_length_c	9.798715
_cell_angle_alpha	90.017327
_cell_angle_beta	90.003817
_cell_angle_gamma	83.146747
loop_
_atom_site_label
_atom_site_type_symbol
_atom_site_fract_x
_atom_site_fract_y
_atom_site_fract_z
O1	O	0.087166	0.926147	0.113931
O2	O	0.098900	0.722836	0.113838
O3	O	-0.008622	0.830355	0.113877
O4	O	0.194688	0.818628	0.113892
O5	O	-0.008623	0.830348	-0.113106
O6	O	0.098899	0.722829	-0.113145
O7	O	0.087165	0.926140	-0.113051
Zn8	Zn	0.093032	0.824483	-0.149136
Zn9	Zn	0.093033	0.824493	0.149923
O10	O	0.194687	0.818620	-0.113090
C11	C	0.098520	0.696821	0.000334
C12	C	0.097379	0.619317	0.000299
C13	C	-0.034633	0.829970	0.000386
C14	C	-0.112138	0.828827	0.000386
C15	C	-0.665397	0.820688	-0.123314
C16	C	-0.592573	0.821755	-0.123321
C17	C	-0.556153	0.822296	0.000406
C18	C	-0.592561	0.821752	0.124149
C19	C	-0.665383	0.820678	0.124152
N20	N	-0.447129	0.863715	0.092517
N21	N	-0.377951	0.864737	0.092505
C22	C	-0.336744	0.825530	0.000403
N23	N	-0.367329	0.785271	-0.091709
N24	N	-0.436513	0.784253	-0.091701
C25	C	-0.477189	0.823460	0.000416
C26	C	-0.221379	0.827225	-0.123340
C27	C	-0.148553	0.828288	-0.123342
C28	C	-0.148543	0.828291	0.124131
C29	C	-0.221367	0.827222	0.124129
C30	C	-0.257781	0.826692	0.000390
C31	C	0.160470	0.574395	0.000325
C32	C	0.159398	0.501571	0.000340
C33	C	0.095232	0.473672	0.000356
C34	C	0.032133	0.518604	0.000322
C35	C	0.033207	0.591426	0.000293
N36	N	0.046186	0.365693	0.077659
N37	N	0.045170	0.296514	0.077689
C38	C	0.091994	0.254264	0.000439
N39	N	0.139882	0.283803	-0.076825
N40	N	0.140900	0.352988	-0.076849
C41	C	0.094061	0.394710	0.000386
C42	C	0.153927	0.130377	0.000480
C43	C	0.152853	0.057553	0.000486
C44	C	0.025586	0.074587	0.000482
C45	C	0.026662	0.147410	0.000462
C46	C	0.090835	0.175301	0.000467
C47	C	0.220699	0.819005	0.000404
C48	C	0.298203	0.820148	0.000413
C49	C	0.087546	0.952154	0.000455
C50	C	0.088686	1.029659	0.000500
N51	N	0.093031	0.824481	-0.353236
C52	C	0.047787	0.869737	-0.578151
C53	C	0.047788	0.869728	-0.420988
N54	N	0.093029	0.824500	0.354022
H55	H	-0.695041	0.820256	-0.224072
H56	H	-0.562929	0.822182	-0.224077
H57	H	-0.251005	0.826787	0.224881
H58	H	-0.118917	0.828726	-0.224099
F59	F	-0.109784	0.828844	0.255811
F60	F	0.228768	0.604074	0.000326
H61	H	0.204231	0.020977	0.000499
H62	H	0.009056	0.908477	-0.636431
H63	H	-0.026659	0.051873	0.000580
H64	H	0.009053	0.908455	-0.362661
F65	F	-0.260136	0.826658	-0.255032
H66	H	-0.562903	0.822189	0.224888
F67	F	0.143658	0.773852	-0.429462
H68	H	-0.695019	0.820237	0.224908
F69	F	0.143661	0.773870	-0.569804
F70	F	0.226550	0.453753	0.000364
H71	H	-0.024713	0.183987	0.000448
H72	H	-0.020111	0.495884	0.000354
H73	H	-0.018171	0.628002	0.000273
F74	F	0.222224	0.160063	0.000475
