data_functionalizedCrystal
_audit_creation_method	'MofGen! by Chris Wilmer'
_symmetry_space_group_name_H-M	'P1'
_symmetry_Int_Tables_number	1
_symmetry_cell_setting	triclinic
loop_
_symmetry_equiv_pos_as_xyz
  x,y,z
_cell_length_a	13.897449
_cell_length_b	12.759399
_cell_length_c	12.759393
_cell_angle_alpha	89.969094
_cell_angle_beta	89.975751
_cell_angle_gamma	90.015943
loop_
_atom_site_label
_atom_site_type_symbol
_atom_site_fract_x
_atom_site_fract_y
_atom_site_fract_z
Zn1	Zn	1.474728	-0.418192	-0.594110
Zn2	Zn	1.974728	0.081808	-0.094110
Zn3	Zn	1.474627	-0.593908	-0.418429
Zn4	Zn	1.974627	-0.093908	0.081571
Zn5	Zn	1.313415	-0.418246	-0.418435
Zn6	Zn	1.813415	0.081754	0.081565
Zn7	Zn	1.313406	-0.593832	-0.594056
Zn8	Zn	1.813406	-0.093832	-0.094056
O9	O	1.394044	-0.506045	-0.506257
O10	O	1.894044	-0.006045	-0.006257
O11	O	1.609696	-0.441510	-0.570826
O12	O	2.109696	0.058490	-0.070826
O13	O	1.453203	-0.570660	-0.271408
O14	O	1.953203	-0.070660	0.228592
O15	O	1.334859	-0.271218	-0.441764
O16	O	1.834859	0.228782	0.058236
O17	O	1.609622	-0.570608	-0.441753
O18	O	2.109622	-0.070608	0.058247
O19	O	1.453375	-0.271178	-0.570831
O20	O	1.953375	0.228822	-0.070831
O21	O	1.334761	-0.441602	-0.271413
O22	O	1.834761	0.058398	0.228587
O23	O	1.178432	-0.441529	-0.441711
O24	O	1.678432	0.058471	0.058289
O25	O	1.334845	-0.570479	-0.741084
O26	O	1.834845	-0.070479	-0.241084
O27	O	1.178426	-0.570531	-0.570739
O28	O	1.678426	-0.070531	-0.070739
O29	O	1.453367	-0.441437	-0.741124
O30	O	1.953367	0.058563	-0.241124
O31	O	1.453195	-0.740919	-0.441701
O32	O	1.953195	-0.240919	0.058299
O33	O	1.334746	-0.740863	-0.570733
O34	O	1.834746	-0.240863	-0.070733
C35	C	1.143430	-0.506028	-0.506221
C36	C	1.643430	-0.006028	-0.006221
C37	C	1.036216	-0.506047	-0.506230
C38	C	1.536216	-0.006047	-0.006230
C39	C	1.393985	-0.779012	-0.506233
C40	C	1.893985	-0.279012	-0.006233
C41	C	1.394048	-0.895789	-0.506258
C42	C	1.894048	-0.395789	-0.006258
C43	C	1.455794	-0.950644	-0.439148
C44	C	1.955794	-0.450644	0.060852
C45	C	1.455856	-1.060369	-0.439183
C46	C	1.955856	-0.560369	0.060817
C47	C	1.332417	-1.060371	-0.573443
C48	C	1.832417	-0.560371	-0.073443
C49	C	1.332361	-0.950649	-0.573412
C50	C	1.832361	-0.450649	-0.073412
C51	C	0.949146	-0.506050	-0.506248
C52	C	1.449146	-0.006050	-0.006248
C53	C	0.839913	-0.506058	-0.506279
C54	C	1.339913	-0.006058	-0.006279
C55	C	1.645637	-0.506062	-0.506295
C56	C	2.145637	-0.006062	-0.006295
C57	C	1.752851	-0.506069	-0.506311
C58	C	2.252851	-0.006069	-0.006311
C59	C	1.394116	-0.505944	-0.780291
C60	C	1.894116	-0.005944	-0.280291
C61	C	1.394147	-0.505901	-0.897068
C62	C	1.894147	-0.005901	-0.397068
C63	C	1.394130	-0.232011	-0.506304
C64	C	1.894130	0.267989	-0.006304
C65	C	1.394166	-0.115235	-0.506324
C66	C	1.894166	0.384765	-0.006324
C67	C	1.455866	-0.438698	-0.951952
C68	C	1.955866	0.061302	-0.451952
C69	C	1.455882	-0.438653	-1.061676
C70	C	1.955882	0.061347	-0.561676
C71	C	1.332458	-0.573022	-1.061622
C72	C	1.832458	-0.073022	-0.561622
C73	C	1.332437	-0.573061	-0.951900
C74	C	1.832437	-0.073061	-0.451900
C75	C	1.394028	-0.506069	-0.233290
C76	C	1.894028	-0.006069	0.266710
C77	C	1.394184	-0.505816	-0.116514
C78	C	1.894184	-0.005816	0.383486
H79	H	1.506025	-0.905980	-0.384469
H80	H	2.006025	-0.405980	0.115531
Cl81	Cl	1.254889	-0.657453	-1.130561
Cl82	Cl	1.754889	-0.157453	-0.630561
Cl83	Cl	1.533486	-1.129326	-0.354814
Cl84	Cl	2.033486	-0.629326	0.145186
H85	H	1.282192	-1.105052	-0.628115
H86	H	1.782192	-0.605052	-0.128115
Cl87	Cl	1.254735	-0.881682	-0.657793
Cl88	Cl	1.754735	-0.381682	-0.157793
H89	H	1.506112	-0.384008	-0.907311
H90	H	2.006112	0.115992	-0.407311
H91	H	1.282171	-0.627785	-0.907212
H92	H	1.782171	-0.127785	-0.407212
H93	H	1.506139	-0.383928	-1.106358
H94	H	2.006139	0.116072	-0.606358
