data_functionalizedCrystal
_audit_creation_method	'MofGen! by Chris Wilmer'
_symmetry_space_group_name_H-M	'P1'
_symmetry_Int_Tables_number	1
_symmetry_cell_setting	triclinic
loop_
_symmetry_equiv_pos_as_xyz
  x,y,z
_cell_length_a	9.065215
_cell_length_b	15.455301
_cell_length_c	9.065218
_cell_angle_alpha	92.962259
_cell_angle_beta	94.984675
_cell_angle_gamma	87.036321
loop_
_atom_site_label
_atom_site_type_symbol
_atom_site_fract_x
_atom_site_fract_y
_atom_site_fract_z
O1	O	-1.966245	0.072113	0.222177
O2	O	-1.536960	0.072118	0.239929
O3	O	-1.760476	0.072113	0.016410
O4	O	-1.742729	0.072117	0.445696
O5	O	-1.748771	-0.072149	0.004720
O6	O	-1.525255	-0.072145	0.228239
O7	O	-1.954540	-0.072149	0.210488
Cu8	Cu	-1.738829	-0.085320	0.218296
Cu9	Cu	-1.752671	0.085288	0.232120
O10	O	-1.731024	-0.072145	0.434006
C11	C	-1.476121	-0.000013	0.232379
C12	C	-1.312278	-0.000011	0.227281
N13	N	-1.729103	-0.205315	0.208571
C14	C	-1.816109	-0.250706	0.295638
C15	C	-1.808774	-0.341514	0.288275
C16	C	-1.714424	-0.386930	0.193852
C17	C	-1.627415	-0.341533	0.106776
C18	C	-1.634759	-0.250727	0.114132
C19	C	-1.682743	-0.658513	0.162113
C20	C	-1.675402	-0.749326	0.154767
C21	C	-1.856764	-0.749301	0.336265
C22	C	-1.864094	-0.658492	0.343619
C23	C	-1.777090	-0.613103	0.256537
N24	N	-1.706920	-0.479751	0.186327
N25	N	-1.784603	-0.520284	0.264055
C26	C	-1.015379	-0.000016	0.218037
C27	C	-1.179223	-0.000011	0.223136
C28	C	-1.752918	-0.000016	-0.044421
C29	C	-1.747818	-0.000012	-0.208264
N30	N	-1.762408	0.205284	0.241833
C31	C	-1.738583	-0.000014	0.494837
C32	C	-1.743682	-0.000012	0.658680
H33	H	-1.892930	-0.213735	0.372536
Cl34	Cl	-1.573309	-0.601464	0.052695
Cl35	Cl	-1.556784	-0.806419	0.036053
Cl36	Cl	-1.918155	-0.398573	0.397739
H37	H	-1.550600	-0.378518	0.029887
H38	H	-1.563909	-0.213771	0.043233
H39	H	-1.940927	-0.621521	0.420504
Cl40	Cl	-1.966136	-0.806366	0.445728
