data_functionalizedCrystal
_audit_creation_method	'MofGen! by Chris Wilmer'
_symmetry_space_group_name_H-M	'P1'
_symmetry_Int_Tables_number	1
_symmetry_cell_setting	triclinic
loop_
_symmetry_equiv_pos_as_xyz
  x,y,z
_cell_length_a	10.685976
_cell_length_b	18.050590
_cell_length_c	10.686551
_cell_angle_alpha	85.590282
_cell_angle_beta	89.651515
_cell_angle_gamma	85.655563
loop_
_atom_site_label
_atom_site_type_symbol
_atom_site_fract_x
_atom_site_fract_y
_atom_site_fract_z
Zn1	Zn	1.972164	-0.359113	-0.561839
Zn2	Zn	1.955920	-0.492066	-0.352069
Zn3	Zn	1.746292	-0.357718	-0.368215
Zn4	Zn	1.762360	-0.473085	-0.577898
O5	O	1.859184	-0.420495	-0.465005
O6	O	2.145543	-0.385276	-0.520535
O7	O	1.914589	-0.481604	-0.178668
O8	O	1.776328	-0.253980	-0.393936
O9	O	2.133608	-0.482956	-0.366418
O10	O	1.942275	-0.255005	-0.536191
O11	O	1.760577	-0.382899	-0.190530
O12	O	1.572890	-0.364495	-0.409507
O13	O	1.803714	-0.450607	-0.751311
O14	O	1.584695	-0.449255	-0.563561
O15	O	1.957856	-0.366872	-0.739512
O16	O	1.930170	-0.593471	-0.381989
O17	O	1.787963	-0.579526	-0.547905
C18	C	1.533279	-0.404664	-0.490030
C19	C	1.393857	-0.397908	-0.500765
C20	C	1.859084	-0.613445	-0.464963
C21	C	1.859159	-0.695993	-0.464978
C22	C	1.936674	-0.903004	-0.374856
C23	C	1.976108	-0.949040	-0.486992
C24	C	1.859234	-0.847125	-0.465022
C25	C	1.819932	-0.948175	-0.352928
C26	C	1.859308	-0.993112	-0.465055
C27	C	1.898731	-0.892074	-0.577214
C28	C	1.742495	-0.891205	-0.443076
C29	C	1.781892	-0.937214	-0.555295
C30	C	1.859194	-0.763026	-0.465001
C31	C	1.859348	-1.077209	-0.465089
C32	C	2.186362	-0.436389	-0.439884
C33	C	2.325786	-0.443162	-0.429179
C34	C	1.884389	-0.406778	-0.792201
C35	C	1.895130	-0.400932	-0.931632
C36	C	1.859321	-0.226793	-0.465073
C37	C	1.859379	-0.144248	-0.465102
C38	C	1.834149	-0.434110	-0.139077
C39	C	1.823651	-0.439758	0.000372
H40	H	1.345475	-0.353997	-0.570273
H41	H	1.374175	-0.487082	-0.359677
H42	H	1.931913	-0.867624	-0.672114
O43	O	2.015011	-0.884817	-0.284103
C44	C	2.138036	-0.914425	-0.307729
H45	H	2.148341	-0.924002	-0.411611
H46	H	2.207982	-0.873581	-0.281359
H47	H	2.157269	-0.969630	-0.249324
H48	H	2.074864	-0.974304	-0.505577
H49	H	1.716441	-0.952342	-0.631641
H50	H	1.643764	-0.865928	-0.424455
H51	H	1.786660	-0.972709	-0.258118
O52	O	1.741003	-0.484801	-0.941677
C53	C	1.806624	-0.539386	-0.860407
H54	H	1.900219	-0.518619	-0.833622
H55	H	1.748510	-0.550676	-0.772131
H56	H	1.824204	-0.593002	-0.909751
O57	O	1.977773	-0.355845	-0.989501
C58	C	1.912165	-0.301282	-1.070820
H59	H	1.810359	-0.293538	-1.038848
H60	H	1.957691	-0.246265	-1.068966
H61	H	1.915391	-0.319919	-1.170401
