data_functionalizedCrystal
_audit_creation_method	'MofGen! by Chris Wilmer'
_symmetry_space_group_name_H-M	'P1'
_symmetry_Int_Tables_number	1
_symmetry_cell_setting	triclinic
loop_
_symmetry_equiv_pos_as_xyz
  x,y,z
_cell_length_a	6.817900
_cell_length_b	14.712618
_cell_length_c	14.858329
_cell_angle_alpha	84.596690
_cell_angle_beta	104.519616
_cell_angle_gamma	77.863674
loop_
_atom_site_label
_atom_site_type_symbol
_atom_site_fract_x
_atom_site_fract_y
_atom_site_fract_z
V1	V	-4.016599	0.290227	-0.129269
V2	V	-3.683265	0.623561	0.204064
V3	V	-3.349932	0.956894	0.537397
O4	O	-3.998979	0.284430	0.005596
O5	O	-3.665646	0.617763	0.338929
O6	O	-3.332313	0.951096	0.672263
O7	O	-3.973308	0.288505	-0.255727
O8	O	-3.639974	0.621838	0.077606
O9	O	-3.306641	0.955171	0.410939
O10	O	-3.961428	0.416686	-0.127551
O11	O	-3.628095	0.750019	0.205782
O12	O	-3.294762	1.083352	0.539115
O13	O	-4.010941	0.155361	-0.123467
O14	O	-3.677607	0.488695	0.209866
O15	O	-3.344274	0.822028	0.543199
V16	V	-4.500442	0.274064	-0.113106
V17	V	-4.167108	0.607398	0.220227
V18	V	-3.833775	0.940731	0.553561
O19	O	-4.277155	0.325682	-0.164725
O20	O	-3.943821	0.659015	0.168608
O21	O	-3.610488	0.992349	0.501941
O22	O	-4.690083	0.238610	-0.077650
O23	O	-4.356750	0.571943	0.255683
O24	O	-4.023416	0.905276	0.589016
O25	O	-4.320526	0.275787	0.013352
O26	O	-3.987193	0.609120	0.346685
O27	O	-3.653859	0.942454	0.680018
O28	O	-4.635458	0.279862	-0.247972
O29	O	-4.302125	0.613195	0.085362
O30	O	-3.968791	0.946529	0.418695
O31	O	-4.623497	0.408930	-0.118908
O32	O	-4.290163	0.742264	0.214425
O33	O	-3.956830	1.075597	0.547758
O34	O	-4.332405	0.147606	-0.114824
O35	O	-3.999072	0.480939	0.218509
O36	O	-3.665739	0.814273	0.551842
C37	C	-3.819770	0.283994	-0.286547
C38	C	-3.486437	0.617327	0.046787
C39	C	-3.153104	0.950661	0.380120
C40	C	-3.865616	0.283428	-0.389929
C41	C	-3.532283	0.616762	-0.056596
C42	C	-3.198950	0.950095	0.276737
C43	C	-3.902843	0.282960	-0.473886
C44	C	-3.569510	0.616294	-0.140553
C45	C	-3.236176	0.949627	0.192781
C46	C	-3.949565	0.282378	-0.579215
C47	C	-3.616231	0.615711	-0.245881
C48	C	-3.282898	0.949045	0.087452
C49	C	-3.986819	0.281914	-0.663166
C50	C	-3.653485	0.615248	-0.329833
C51	C	-3.320152	0.948581	0.003501
C52	C	-4.033543	0.281330	-0.768501
C53	C	-3.700210	0.614664	-0.435167
C54	C	-3.366877	0.947997	-0.101834
C55	C	-4.152560	0.116786	-0.119334
C56	C	-3.819227	0.450120	0.213999
C57	C	-3.485893	0.783453	0.547332
C58	C	-4.095589	0.013403	-0.119898
C59	C	-3.762255	0.346737	0.213436
C60	C	-3.428922	0.680070	0.546769
C61	C	-3.887085	-0.365161	-0.122005
C62	C	-3.553752	-0.031828	0.211328
C63	C	-3.220418	0.301506	0.544662
C64	C	-3.945105	-0.259833	-0.121419
C65	C	-3.611772	0.073500	0.211915
C66	C	-3.278439	0.406834	0.545248
C67	C	-3.991336	-0.175882	-0.120952
C68	C	-3.658003	0.157451	0.212381
C69	C	-3.324669	0.490785	0.545714
C70	C	-4.049358	-0.070548	-0.120364
C71	C	-3.716025	0.262786	0.212969
C72	C	-3.382691	0.596119	0.546302
C73	C	-3.804616	0.447500	-0.123044
C74	C	-3.471283	0.780834	0.210289
C75	C	-3.137950	1.114167	0.543623
C76	C	-3.840826	0.550883	-0.122476
C77	C	-3.507493	0.884216	0.210857
C78	C	-3.174159	1.217549	0.544191
C79	C	-4.137406	0.280295	0.044166
C80	C	-3.804072	0.613629	0.377499
C81	C	-3.470739	0.946962	0.710833
C82	C	-4.070797	0.280867	0.147548
C83	C	-3.737464	0.614200	0.480881
C84	C	-3.404131	0.947533	0.814214
