data_functionalizedCrystal
_audit_creation_method	'MofGen! by Chris Wilmer'
_symmetry_space_group_name_H-M	'P1'
_symmetry_Int_Tables_number	1
_symmetry_cell_setting	triclinic
loop_
_symmetry_equiv_pos_as_xyz
  x,y,z
_cell_length_a	10.654562
_cell_length_b	16.109304
_cell_length_c	9.130313
_cell_angle_alpha	90.001562
_cell_angle_beta	89.996930
_cell_angle_gamma	83.976371
loop_
_atom_site_label
_atom_site_type_symbol
_atom_site_fract_x
_atom_site_fract_y
_atom_site_fract_z
O1	O	1.666242	0.116820	-0.121886
O2	O	1.300615	0.127935	-0.121866
O3	O	1.493470	0.001407	-0.121877
O4	O	1.473386	0.243348	-0.121875
O5	O	1.493468	0.001410	0.121721
O6	O	1.300612	0.127938	0.121732
O7	O	1.666239	0.116824	0.121713
Cu8	Cu	1.483426	0.122381	0.143965
Cu9	Cu	1.483428	0.122377	-0.144119
O10	O	1.473384	0.243352	0.121724
C11	C	1.253827	0.127118	-0.000065
C12	C	1.114418	0.124670	-0.000058
C13	C	1.048901	0.123530	0.132717
C14	C	0.917910	0.121236	0.132692
C15	C	0.917963	0.121226	-0.132893
C16	C	1.048953	0.123514	-0.132867
C17	C	1.048869	0.123539	0.286050
C18	C	0.917878	0.121245	0.286026
C19	C	1.492655	-0.029571	-0.000081
C20	C	1.490214	-0.121881	-0.000091
C21	C	1.484576	-0.334254	-0.132871
C22	C	1.482271	-0.420988	-0.132870
C23	C	1.482274	-0.420981	0.132715
C24	C	1.484571	-0.334248	0.132712
C25	C	1.485728	-0.290887	-0.000085
C26	C	1.481126	-0.464354	-0.000081
C27	C	1.478627	-0.558395	-0.000078
C28	C	1.488225	-0.196840	-0.000088
C29	C	1.713027	0.117640	-0.000092
C30	C	1.852436	0.120088	-0.000108
C31	C	1.474199	0.274330	-0.000075
C32	C	1.476640	0.366639	-0.000075
N33	N	1.483433	0.122384	0.346588
N34	N	1.483431	0.122368	-0.346741
C35	C	1.568851	0.066376	0.423235
C36	C	1.568848	0.066366	0.576572
C37	C	1.398004	0.178378	0.576601
C38	C	1.398002	0.178384	0.423267
C39	C	1.667490	0.001709	0.423220
C40	C	1.667487	0.001699	0.576556
H41	H	1.095907	0.066083	0.344932
Cl42	Cl	1.807836	0.032987	0.349774
H43	H	1.481335	-0.456296	0.240834
Cl44	Cl	1.486004	-0.279725	0.299657
H45	H	1.637792	-0.058690	0.624104
Cl46	Cl	1.290600	0.248783	0.326909
Cl47	Cl	1.093271	0.217154	0.359506
H48	H	1.646913	-0.062195	0.381600
H49	H	1.328448	0.223972	0.639049
H50	H	1.763805	0.015947	0.618168
H51	H	1.102294	0.124429	-0.240984
Cl52	Cl	0.845203	0.209954	0.376905
H53	H	0.864645	0.120285	-0.241021
H54	H	0.889111	0.060612	0.333604
Cl55	Cl	1.480820	-0.475502	-0.299808
Cl56	Cl	1.486023	-0.279746	-0.299816
