data_functionalizedCrystal
_audit_creation_method	'MofGen! by Chris Wilmer'
_symmetry_space_group_name_H-M	'P1'
_symmetry_Int_Tables_number	1
_symmetry_cell_setting	triclinic
loop_
_symmetry_equiv_pos_as_xyz
  x,y,z
_cell_length_a	14.908571
_cell_length_b	21.295417
_cell_length_c	14.908694
_cell_angle_alpha	93.263731
_cell_angle_beta	83.592472
_cell_angle_gamma	86.726349
loop_
_atom_site_label
_atom_site_type_symbol
_atom_site_fract_x
_atom_site_fract_y
_atom_site_fract_z
Zn1	Zn	1.413254	-0.331401	-0.591454
Zn2	Zn	1.913254	0.168599	-0.091454
Zn3	Zn	1.404396	-0.430225	-0.440074
Zn4	Zn	1.904396	0.069775	0.059926
Zn5	Zn	1.253159	-0.318526	-0.431392
Zn6	Zn	1.753159	0.181474	0.068608
Zn7	Zn	1.261828	-0.430176	-0.582672
Zn8	Zn	1.761828	0.069824	-0.082672
O9	O	1.333159	-0.377582	-0.511398
O10	O	1.833159	0.122418	-0.011398
O11	O	1.538744	-0.349919	-0.578682
O12	O	2.038744	0.150081	-0.078682
O13	O	1.376999	-0.410040	-0.312257
O14	O	1.876999	0.089960	0.187743
O15	O	1.274475	-0.232149	-0.452666
O16	O	1.774475	0.267851	0.047334
O17	O	1.532236	-0.422525	-0.467464
O18	O	2.032236	0.077475	0.032536
O19	O	1.392096	-0.241609	-0.570264
O20	O	1.892096	0.258391	-0.070264
O21	O	1.265886	-0.327975	-0.305879
O22	O	1.765886	0.172025	0.194121
O23	O	1.127644	-0.327928	-0.444151
O24	O	1.627644	0.172072	0.055849
O25	O	1.289249	-0.422442	-0.710502
O26	O	1.789249	0.077558	-0.210502
O27	O	1.134012	-0.409957	-0.555295
O28	O	1.634012	0.090043	-0.055295
O29	O	1.400502	-0.349872	-0.716954
O30	O	1.900502	0.150128	-0.216954
O31	O	1.385405	-0.518303	-0.458948
O32	O	1.885405	-0.018303	0.041052
O33	O	1.280660	-0.518267	-0.563714
O34	O	1.780660	-0.018267	-0.063714
C35	C	1.097985	-0.367540	-0.497828
C36	C	1.597985	0.132460	0.002172
C37	C	0.997378	-0.363260	-0.492045
C38	C	1.497378	0.136740	0.007955
C39	C	0.814997	-0.440754	-0.596756
C40	C	1.314997	0.059246	-0.096756
C41	C	0.720468	-0.436734	-0.591325
C42	C	1.220468	0.063266	-0.091325
C43	C	0.713788	-0.351200	-0.475757
C44	C	1.213788	0.148800	0.024243
C45	C	0.808318	-0.355219	-0.481188
C46	C	1.308318	0.144781	0.018812
C47	C	0.858919	-0.399998	-0.541689
C48	C	1.358919	0.100002	-0.041689
C49	C	0.953449	-0.404020	-0.547115
C50	C	1.453449	0.095980	-0.047115
C51	C	0.946769	-0.318483	-0.431551
C52	C	1.446769	0.181517	0.068449
C53	C	0.852239	-0.314464	-0.426120
C54	C	1.352239	0.185536	0.073880
C55	C	1.333038	-0.541127	-0.511341
C56	C	1.833038	-0.041127	-0.011341
C57	C	1.333070	-0.611096	-0.511352
C58	C	1.833070	-0.111096	-0.011352
C59	C	1.387665	-0.643966	-0.456862
C60	C	1.887665	-0.143966	0.043138
C61	C	1.387709	-0.709711	-0.456885
C62	C	1.887709	-0.209711	0.043115
C63	C	1.333141	-0.742583	-0.511387
C64	C	1.833141	-0.242583	-0.011387
C65	C	1.278542	-0.709706	-0.565887
C66	C	1.778542	-0.209706	-0.065887
C67	C	1.278507	-0.643963	-0.565870
C68	C	1.778507	-0.143963	-0.065870
N69	N	1.254356	-0.842766	-0.513718
N70	N	1.754356	-0.342766	-0.013718
N71	N	1.254392	-0.905219	-0.513730
N72	N	1.754392	-0.405219	-0.013730
C73	C	1.333245	-0.940664	-0.511445
C74	C	1.833245	-0.440664	-0.011445
N75	N	1.412062	-0.911297	-0.509130
N76	N	1.912062	-0.411297	-0.009130
N77	N	1.412025	-0.848837	-0.509113
N78	N	1.912025	-0.348837	-0.009113
C79	C	1.333173	-0.813871	-0.511412
C80	C	1.833173	-0.313871	-0.011412
C81	C	1.387892	-1.044822	-0.456977
C82	C	1.887892	-0.544822	0.043023
C83	C	1.387938	-1.110569	-0.457006
C84	C	1.887938	-0.610569	0.042994
C85	C	1.278762	-1.110563	-0.566003
C86	C	1.778762	-0.610563	-0.066003
C87	C	1.278725	-1.044818	-0.565979
C88	C	1.778725	-0.544818	-0.065979
C89	C	1.333289	-1.011951	-0.511461
C90	C	1.833289	-0.511951	-0.011461
C91	C	1.569252	-0.387664	-0.525021
C92	C	2.069252	0.112336	-0.025021
C93	C	1.669860	-0.391960	-0.530826
C94	C	2.169860	0.108040	-0.030826
C95	C	1.346831	-0.387587	-0.747489
C96	C	1.846831	0.112413	-0.247489
C97	C	1.352657	-0.391851	-0.848097
C98	C	1.852657	0.108149	-0.348097
C99	C	1.333307	-0.213401	-0.511476
C100	C	1.833307	0.286599	-0.011476
C101	C	1.333370	-0.143437	-0.511510
C102	C	1.833370	0.356563	-0.011510
C103	C	1.247881	-0.314409	-1.030508
C104	C	1.747881	0.185591	-0.530508
C105	C	1.253352	-0.318413	-1.125038
C106	C	1.753352	0.181587	-0.625038
C107	C	1.369064	-0.403865	-1.131688
C108	C	1.869064	0.096135	-0.631688
C109	C	1.363593	-0.399861	-1.037158
C110	C	1.863593	0.100139	-0.537158
C111	C	1.303001	-0.355131	-0.986571
C112	C	1.803001	0.144869	-0.486571
C113	C	1.297535	-0.351125	-0.892040
C114	C	1.797535	0.148875	-0.392040
C115	C	1.413242	-0.436580	-0.898691
C116	C	1.913242	0.063420	-0.398691
C117	C	1.418713	-0.440583	-0.993221
C118	C	1.918713	0.059417	-0.493221
C119	C	1.319593	-0.367573	-0.276228
C120	C	1.819593	0.132427	0.223772
C121	C	1.313942	-0.363139	-0.175631
C122	C	1.813942	0.136861	0.324369
H123	H	0.672573	-0.314740	-0.426506
H124	H	1.172573	0.185260	0.073494
Br125	Br	1.165664	-0.253698	-0.961851
Br126	Br	1.665664	0.246302	-0.461851
Br127	Br	1.204714	-1.155169	-0.639982
Br128	Br	1.704714	-0.655169	-0.139982
Br129	Br	1.500935	-0.501289	-1.061882
Br130	Br	2.000935	-0.001289	-0.561882
Br131	Br	1.204625	-1.000206	-0.639932
Br132	Br	1.704625	-0.500206	-0.139932
H133	H	1.432401	-1.137330	-0.412636
H134	H	1.932401	-0.637330	0.087364
Br135	Br	1.215308	-0.290418	-0.823387
Br136	Br	1.715308	0.209582	-0.323387
Br137	Br	0.783559	-0.253692	-0.344022
Br138	Br	1.283559	0.246308	0.155978
Br139	Br	1.178538	-0.263149	-1.184664
Br140	Br	1.678538	0.236851	-0.684664
Br141	Br	1.451273	-0.464576	-1.200355
Br142	Br	1.951273	0.035424	-0.700355
Br143	Br	1.461937	-1.000213	-0.382987
Br144	Br	1.961937	-0.500213	0.117013
H145	H	1.458127	-0.469737	-0.862909
H146	H	1.958127	0.030263	-0.362909
Br147	Br	1.204492	-0.754318	-0.639863
Br148	Br	1.704492	-0.254318	-0.139863
H149	H	0.982539	-0.285299	-0.386709
H150	H	1.482539	0.214701	0.113291
H151	H	0.994648	-0.440482	-0.596376
H152	H	1.494648	0.059518	-0.096376
Br153	Br	1.461728	-0.599365	-0.382887
Br154	Br	1.961728	-0.099365	0.117113
H155	H	0.684711	-0.469920	-0.636169
H156	H	1.184711	0.030080	-0.136169
Br157	Br	0.883674	-0.501530	-0.678849
Br158	Br	1.383674	-0.001530	-0.178849
H159	H	1.432170	-0.736478	-0.412513
H160	H	1.932170	-0.236478	0.087487
H161	H	1.234048	-0.617200	-0.610243
H162	H	1.734048	-0.117200	-0.110243
