data_functionalizedCrystal
_audit_creation_method	'MofGen! by Chris Wilmer'
_symmetry_space_group_name_H-M	'P1'
_symmetry_Int_Tables_number	1
_symmetry_cell_setting	triclinic
loop_
_symmetry_equiv_pos_as_xyz
  x,y,z
_cell_length_a	21.395362
_cell_length_b	14.908178
_cell_length_c	21.395355
_cell_angle_alpha	93.314561
_cell_angle_beta	90.043940
_cell_angle_gamma	93.328618
loop_
_atom_site_label
_atom_site_type_symbol
_atom_site_fract_x
_atom_site_fract_y
_atom_site_fract_z
Zn1	Zn	0.943530	-0.358911	0.340196
Zn2	Zn	1.443530	0.141089	0.840196
Zn3	Zn	0.937410	-0.509764	0.229370
Zn4	Zn	1.437410	-0.009764	0.729370
Zn5	Zn	0.838744	-0.358953	0.235395
Zn6	Zn	1.338744	0.141047	0.735395
Zn7	Zn	0.832691	-0.509782	0.334074
Zn8	Zn	1.332691	-0.009782	0.834074
O9	O	0.888094	-0.434352	0.284759
O10	O	1.388094	0.065648	0.784759
O11	O	1.030397	-0.378896	0.325535
O12	O	1.530397	0.121104	0.825535
O13	O	0.924294	-0.489768	0.142491
O14	O	1.424294	0.010232	0.642491
O15	O	0.857738	-0.232692	0.254381
O16	O	1.357738	0.267308	0.754381
O17	O	1.025901	-0.489727	0.244112
O18	O	1.525901	0.010273	0.744112
O19	O	0.934725	-0.232661	0.331377
O20	O	1.434725	0.267339	0.831377
O21	O	0.851804	-0.378968	0.146918
O22	O	1.351804	0.121032	0.646918
O23	O	0.750262	-0.378986	0.248445
O24	O	1.250262	0.121014	0.748445
O25	O	0.847422	-0.489759	0.422564
O26	O	1.347422	0.010241	0.922564
O27	O	0.745815	-0.489800	0.320944
O28	O	1.245815	0.010200	0.820944
O29	O	0.928856	-0.378914	0.427062
O30	O	1.428856	0.121086	0.927062
O31	O	0.918425	-0.636021	0.238176
O32	O	1.418425	-0.136021	0.738176
O33	O	0.841488	-0.636035	0.315101
O34	O	1.341488	-0.136035	0.815101
C35	C	0.725304	-0.434400	0.284684
C36	C	1.225304	0.065600	0.784684
C37	C	0.655661	-0.434442	0.284666
C38	C	1.155661	0.065558	0.784666
C39	C	0.878652	-0.668765	0.275334
C40	C	1.378652	-0.168765	0.775334
C41	C	0.874671	-0.769047	0.271323
C42	C	1.374671	-0.269047	0.771323
C43	C	0.620646	-0.492219	0.322353
C44	C	1.120646	0.007781	0.822353
C45	C	0.555212	-0.492197	0.322382
C46	C	1.055212	0.007803	0.822382
C47	C	0.524794	-0.434407	0.284712
C48	C	1.024794	0.065593	0.784712
C49	C	0.559818	-0.376619	0.247023
C50	C	1.059818	0.123381	0.747023
C51	C	0.625251	-0.376636	0.247000
C52	C	1.125251	0.123364	0.747000
C53	C	0.421360	-0.427139	0.228598
C54	C	0.921360	0.072861	0.728598
C55	C	0.355927	-0.427128	0.228620
C56	C	0.855927	0.072872	0.728620
C57	C	0.322976	-0.434348	0.284784
C58	C	0.822976	0.065652	0.784784
C59	C	0.355465	-0.441599	0.340927
C60	C	0.855465	0.058401	0.840927
C61	C	0.420898	-0.441616	0.340904
C62	C	0.920898	0.058384	0.840904
C63	C	0.453843	-0.434382	0.284733
C64	C	0.953843	0.065618	0.784733
C65	C	0.217009	-0.492105	0.322505
C66	C	0.717009	0.007895	0.822505
C67	C	0.151574	-0.492076	0.322535
C68	C	0.651574	0.007924	0.822535
C69	C	0.156181	-0.376503	0.247170
C70	C	0.656181	0.123497	0.747170
C71	C	0.221616	-0.376527	0.247146
C72	C	0.721616	0.123473	0.747146
C73	C	0.252025	-0.434332	0.284812
C74	C	0.752025	0.065668	0.784812
C75	C	0.947294	-0.957307	0.344048
C76	C	1.447294	-0.457307	0.844048
C77	C	0.943555	-1.051531	0.340282
C78	C	1.443555	-0.551531	0.840282
C79	C	0.863451	-1.051722	0.260027
C80	C	1.363451	-0.551722	0.760027
C81	C	0.867190	-0.957498	0.263793
C82	C	1.367190	-0.457498	0.763793
C83	C	0.909113	-0.910293	0.305805
C84	C	1.409113	-0.410293	0.805805
C85	C	0.912855	-0.816067	0.309568
C86	C	1.412855	-0.316067	0.809568
C87	C	0.832749	-0.816260	0.229317
C88	C	1.332749	-0.316260	0.729317
C89	C	0.829010	-0.910484	0.225550
C90	C	1.329010	-0.410484	0.725550
C91	C	1.051519	-0.434305	0.284834
C92	C	1.551519	0.065695	0.784834
C93	C	1.121161	-0.434285	0.284866
C94	C	1.621161	0.065715	0.784866
C95	C	0.888147	-0.434334	0.448183
C96	C	1.388147	0.065666	0.948183
C97	C	0.888169	-0.434326	0.517824
C98	C	1.388169	0.065674	1.017824
C99	C	0.897589	-0.199025	0.294234
C100	C	1.397589	0.300975	0.794234
C101	C	0.901635	-0.098742	0.298272
C102	C	1.401635	0.401258	0.798272
C103	C	0.888080	-0.434305	0.121973
C104	C	1.388080	0.065695	0.621973
C105	C	0.888189	-0.434059	0.052342
C106	C	1.388189	0.065941	0.552342
C107	C	0.930570	-0.376607	0.552881
C108	C	1.430570	0.123393	1.052881
C109	C	0.930570	-0.376568	0.618318
C110	C	1.430570	0.123432	1.118318
C111	C	0.888176	-0.434265	0.648695
C112	C	1.388176	0.065735	1.148695
C113	C	0.845768	-0.491988	0.613631
C114	C	1.345768	0.008012	1.113631
C115	C	0.845764	-0.492019	0.548196
C116	C	1.345764	0.007981	1.048196
C117	C	0.879957	-0.515504	0.749102
C118	C	1.379957	-0.015504	1.249102
C119	C	0.879965	-0.515475	0.814536
C120	C	1.379965	-0.015475	1.314536
C121	C	0.888184	-0.434169	0.850520
C122	C	1.388184	0.065831	1.350520
C123	C	0.896408	-0.352891	0.821062
C124	C	1.396408	0.147109	1.321062
C125	C	0.896405	-0.352921	0.755626
C126	C	1.396405	0.147079	1.255626
C127	C	0.888175	-0.434237	0.719649
C128	C	1.388175	0.065763	1.219649
C129	C	0.930588	-0.376403	0.956531
C130	C	1.430588	0.123597	1.456531
C131	C	0.930584	-0.376363	1.021969
C132	C	1.430584	0.123637	1.521969
C133	C	0.845785	-0.491791	1.017281
C134	C	1.345785	0.008209	1.517281
C135	C	0.845785	-0.491823	0.951844
C136	C	1.345785	0.008177	1.451844
C137	C	0.888190	-0.434130	0.921473
C138	C	1.388190	0.065870	1.421473
H139	H	0.645402	-0.539288	0.353025
H140	H	1.145402	-0.039288	0.853025
F141	F	0.800647	-0.553390	0.645962
F142	F	1.300647	-0.053390	1.145962
H143	H	0.829316	-1.090172	0.225826
H144	H	1.329316	-0.590172	0.725826
F145	F	0.975716	-0.314999	0.924205
F146	F	1.475716	0.185001	1.424205
H147	H	0.794875	-0.948931	0.191347
H148	H	1.294875	-0.448931	0.691347
H149	H	0.903102	-0.286684	0.850359
H150	H	1.403102	0.213316	1.350359
H151	H	0.250125	-0.329483	0.216454
H152	H	0.750125	0.170517	0.716454
F153	F	0.455472	-0.449329	0.400653
F154	F	0.955472	0.050671	0.900653
H155	H	0.974642	-1.089806	0.371427
H156	H	1.474642	-0.589806	0.871427
H157	H	0.123065	-0.539124	0.353229
H158	H	0.623065	-0.039124	0.853229
F159	F	0.527445	-0.315111	0.206935
F160	F	1.027445	0.184889	0.706935
F161	F	0.792116	-0.766218	0.188609
F162	F	1.292116	-0.266218	0.688609
F163	F	0.456423	-0.419456	0.168817
F164	F	0.956423	0.080544	0.668817
F165	F	0.957475	-0.765830	0.354278
F166	F	1.457475	-0.265830	0.854278
H167	H	0.328637	-0.447477	0.386661
H168	H	0.828637	0.052523	0.886661
F169	F	0.975722	-0.314937	1.059278
F170	F	1.475722	0.185063	1.559278
F171	F	0.871223	-0.602048	0.710811
F172	F	1.371223	-0.102048	1.210811
H173	H	0.965098	-0.329628	0.528157
H174	H	1.465098	0.170372	1.028157
H175	H	0.981434	-0.918872	0.378251
H176	H	1.481434	-0.418872	0.878251
H177	H	0.965097	-0.329561	0.646866
H178	H	1.465097	0.170439	1.146866
F179	F	0.321357	-0.419412	0.168869
F180	F	0.821357	0.080588	0.668869
F181	F	0.905154	-0.266421	0.724277
F182	F	1.405154	0.233579	1.224277
H183	H	0.811261	-0.538759	1.042014
H184	H	1.311261	-0.038759	1.542014
F185	F	0.800658	-0.553260	0.914533
F186	F	1.300658	-0.053260	1.414533
H187	H	0.873272	-0.581657	0.838516
H188	H	1.373272	-0.081657	1.338516
F189	F	0.662518	-0.315139	0.206887
F190	F	1.162518	0.184861	0.706887
H191	H	0.131416	-0.329445	0.216502
H192	H	0.631416	0.170555	0.716502
F193	F	0.800634	-0.553454	0.510885
F194	F	1.300634	-0.053454	1.010885
H195	H	0.526697	-0.539246	0.353074
H196	H	1.026697	-0.039246	0.853074
H197	H	0.241770	-0.539169	0.353179
H198	H	0.741770	-0.039169	0.853179
