data_functionalizedCrystal
_audit_creation_method	'MofGen! by Chris Wilmer'
_symmetry_space_group_name_H-M	'P1'
_symmetry_Int_Tables_number	1
_symmetry_cell_setting	triclinic
loop_
_symmetry_equiv_pos_as_xyz
  x,y,z
_cell_length_a	23.532407
_cell_length_b	15.995350
_cell_length_c	15.072220
_cell_angle_alpha	89.993871
_cell_angle_beta	89.990343
_cell_angle_gamma	83.170562
loop_
_atom_site_label
_atom_site_type_symbol
_atom_site_fract_x
_atom_site_fract_y
_atom_site_fract_z
O1	O	0.073404	1.110385	-0.073668
O2	O	0.406737	1.443719	0.259665
O3	O	0.740070	1.777052	0.592998
O4	O	0.082469	0.866535	-0.073701
O5	O	0.415802	1.199868	0.259632
O6	O	0.749135	1.533201	0.592966
O7	O	-0.004967	0.995813	-0.073659
O8	O	0.328366	1.329147	0.259675
O9	O	0.661700	1.662480	0.593008
O10	O	0.160840	0.981107	-0.073711
O11	O	0.494173	1.314440	0.259623
O12	O	0.827506	1.647773	0.592956
O13	O	-0.004962	0.995781	0.073906
O14	O	0.328371	1.329115	0.407240
O15	O	0.661704	1.662448	0.740573
O16	O	0.082474	0.866503	0.073864
O17	O	0.415807	1.199836	0.407197
O18	O	0.749140	1.533170	0.740531
O19	O	0.073409	1.110354	0.073897
O20	O	0.406742	1.443687	0.407230
O21	O	0.740075	1.777020	0.740563
Zn22	Zn	0.077942	0.988423	0.097310
Zn23	Zn	0.411275	1.321757	0.430643
Zn24	Zn	0.744609	1.655090	0.763976
Zn25	Zn	0.077935	0.988465	-0.097114
Zn26	Zn	0.411269	1.321798	0.236220
Zn27	Zn	0.744602	1.655132	0.569553
O28	O	0.160845	0.981075	0.073855
O29	O	0.494178	1.314408	0.407188
O30	O	0.827511	1.647742	0.740521
C31	C	0.082096	0.835327	0.000078
C32	C	0.415430	1.168661	0.333411
C33	C	0.748763	1.501994	0.666744
C34	C	0.080973	0.742386	0.000067
C35	C	0.414306	1.075719	0.333400
C36	C	0.747640	1.409053	0.666733
C37	C	-0.026182	0.995423	0.000128
C38	C	0.307151	1.328756	0.333462
C39	C	0.640484	1.662090	0.666795
C40	C	-0.089404	0.994297	0.000141
C41	C	0.243930	1.327630	0.333475
C42	C	0.577263	1.660964	0.666808
N43	N	0.077946	0.988401	0.229998
N44	N	0.411279	1.321734	0.563332
N45	N	0.744613	1.655067	0.896665
C46	C	-0.355883	0.913149	0.000075
C47	C	-0.022550	1.246482	0.333409
C48	C	0.310783	1.579816	0.666742
C49	C	-0.296479	0.914195	0.000082
C50	C	0.036854	1.247528	0.333416
C51	C	0.370188	1.580862	0.666749
O52	O	-0.259982	0.849822	0.000046
O53	O	0.073351	1.183155	0.333379
O54	O	0.406685	1.516488	0.666712
N55	N	-0.273557	0.991051	0.000103
N56	N	0.059776	1.324385	0.333436
N57	N	0.393110	1.657718	0.666769
C58	C	-0.310043	1.066866	0.000107
C59	C	0.023290	1.400200	0.333441
C60	C	0.356624	1.733533	0.666774
O61	O	-0.285091	1.132334	0.000125
O62	O	0.048242	1.465668	0.333458
O63	O	0.381575	1.799001	0.666791
C64	C	-0.369446	1.065819	0.000094
C65	C	-0.036113	1.399153	0.333427
C66	C	0.297221	1.732486	0.666761
C67	C	-0.392364	0.988958	0.000082
C68	C	-0.059031	1.322292	0.333416
C69	C	0.274302	1.655625	0.666749
C70	C	-0.378802	0.836294	0.000063
C71	C	-0.045469	1.169628	0.333396
C72	C	0.287864	1.502961	0.666729
C73	C	-0.438202	0.835249	0.000058
C74	C	-0.104869	1.168582	0.333391
C75	C	0.228464	1.501915	0.666724
C76	C	-0.474684	0.911058	0.000065
C77	C	-0.141350	1.244391	0.333398
C78	C	0.191983	1.577725	0.666731
C79	C	-0.451765	0.987913	0.000077
C80	C	-0.118431	1.321246	0.333410
C81	C	0.214902	1.654579	0.666744
C82	C	-0.405931	1.141634	0.000092
C83	C	-0.072597	1.474967	0.333425
C84	C	0.260736	1.808300	0.666759
C85	C	-0.465337	1.140580	0.000078
C86	C	-0.132004	1.473913	0.333411
C87	C	0.201330	1.807247	0.666745
C88	C	-0.488256	1.063719	0.000067
C89	C	-0.154922	1.397052	0.333400
C90	C	0.178411	1.730386	0.666733
C91	C	-0.547646	1.062676	0.000079
C92	C	-0.214313	1.396010	0.333412
C93	C	0.119021	1.729343	0.666746
N94	N	-0.570568	0.985820	0.000059
N95	N	-0.237235	1.319154	0.333392
N96	N	0.096099	1.652487	0.666725
C97	C	-0.534087	0.910011	0.000051
C98	C	-0.200753	1.243344	0.333385
C99	C	0.132580	1.576678	0.666718
C100	C	-0.185292	1.069059	0.000134
C101	C	0.148041	1.402392	0.333467
C102	C	0.481375	1.735726	0.666800
C103	C	-0.125890	1.070107	0.000153
C104	C	0.207443	1.403440	0.333487
C105	C	0.540777	1.736773	0.666820
C106	C	-0.112330	0.917435	0.000127
C107	C	0.221003	1.250768	0.333460
C108	C	0.554337	1.584102	0.666793
C109	C	-0.171733	0.916388	0.000113
C110	C	0.161600	1.249721	0.333447
C111	C	0.494933	1.583055	0.666780
C112	C	-0.208214	0.992203	0.000113
C113	C	0.125120	1.325536	0.333447
C114	C	0.458453	1.658869	0.666780
C115	C	-0.658832	0.907821	0.000041
C116	C	-0.325499	1.241154	0.333374
C117	C	0.007835	1.574488	0.666708
C118	C	-0.718238	0.906782	0.000039
C119	C	-0.384905	1.240116	0.333373
C120	C	-0.051571	1.573449	0.666706
C121	C	-0.731792	1.059453	0.000061
C122	C	-0.398459	1.392787	0.333395
C123	C	-0.065126	1.726120	0.666728
C124	C	-0.672392	1.060493	0.000068
C125	C	-0.339058	1.393826	0.333401
C126	C	-0.005725	1.727159	0.666734
C127	C	-0.635912	0.984670	0.000054
C128	C	-0.302579	1.318003	0.333388
C129	C	0.030754	1.651336	0.666721
O130	O	-0.584177	1.127016	0.000112
O131	O	-0.250844	1.460350	0.333445
O132	O	0.082489	1.793683	0.666779
O133	O	-0.559047	0.844554	0.000022
O134	O	-0.225713	1.177887	0.333356
O135	O	0.107620	1.511220	0.666689
C136	C	0.182060	0.981465	0.000066
C137	C	0.515393	1.314799	0.333399
C138	C	0.848726	1.648132	0.666732
C139	C	0.245281	0.982591	0.000047
C140	C	0.578614	1.315925	0.333380
C141	C	0.911948	1.649258	0.666713
C142	C	0.073781	1.141561	0.000116
C143	C	0.407114	1.474894	0.333449
C144	C	0.740448	1.808228	0.666783
C145	C	0.074905	1.234502	0.000122
C146	C	0.408238	1.567835	0.333455
C147	C	0.741571	1.901169	0.666788
C148	C	0.078939	1.572216	0.000085
C149	C	0.412273	1.905549	0.333418
C150	C	0.745606	2.238883	0.666751
C151	C	0.141210	1.524264	0.000399
C152	C	0.474543	1.857598	0.333732
C153	C	0.807876	2.190931	0.667065
C154	C	0.140086	1.427583	0.000076
C155	C	0.473419	1.760917	0.333409
C156	C	0.806752	2.094250	0.666742
C157	C	0.076938	1.404672	0.000103
C158	C	0.410271	1.738006	0.333437
C159	C	0.743605	2.071339	0.666770
C160	C	0.046221	1.446006	-0.084155
C161	C	0.379554	1.779340	0.249178
C162	C	0.712888	2.112673	0.582511
C163	C	0.047785	1.542629	-0.084236
C164	C	0.381119	1.875963	0.249098
C165	C	0.714452	2.209296	0.582431
C166	C	0.046505	1.542995	0.083574
C167	C	0.379838	1.876329	0.416907
C168	C	0.713172	2.209662	0.750241
C169	C	0.046520	1.446050	0.084697
C170	C	0.379853	1.779383	0.418030
C171	C	0.713187	2.112717	0.751364
C172	C	0.075804	1.309984	0.000111
C173	C	0.409137	1.643317	0.333444
C174	C	0.742470	1.976651	0.666778
C175	C	0.080072	1.666904	0.000071
C176	C	0.413405	2.000238	0.333404
C177	C	0.746739	2.333571	0.666738
N178	N	0.077927	0.988494	-0.229803
N179	N	0.411260	1.321828	0.103531
N180	N	0.744594	1.655161	0.436864
C181	C	0.077933	0.988463	0.589200
C182	C	0.411267	1.321797	0.922533
C183	C	0.744600	1.655130	1.255867
C184	C	0.124562	0.919059	0.551570
C185	C	0.457895	1.252393	0.884904
C186	C	0.791228	1.585726	1.218237
C187	C	0.124732	0.919216	0.448745
C188	C	0.458065	1.252549	0.782078
C189	C	0.791398	1.585883	1.115411
C190	C	0.077940	0.988432	0.410996
C191	C	0.411273	1.321765	0.744329
C192	C	0.744606	1.655098	1.077663
C193	C	0.090918	1.075689	0.448294
C194	C	0.424252	1.409022	0.781627
C195	C	0.757585	1.742355	1.114961
C196	C	0.091250	1.075299	0.551152
C197	C	0.424583	1.408632	0.884485
C198	C	0.757916	1.741966	1.217818
C199	C	0.018188	0.971391	0.551316
C200	C	0.351521	1.304724	0.884649
C201	C	0.684855	1.638057	1.217983
C202	C	0.018587	0.969383	0.448452
C203	C	0.351920	1.302716	0.781786
C204	C	0.685253	1.636050	1.115119
C205	C	0.077942	0.988419	0.310282
C206	C	0.411275	1.321752	0.643616
C207	C	0.744609	1.655086	0.976949
C208	C	0.077932	0.988482	0.689913
C209	C	0.411265	1.321815	1.023247
C210	C	0.744599	1.655148	1.356580
H211	H	-0.736894	0.844190	0.000034
H212	H	-0.403561	1.177523	0.333367
H213	H	-0.070228	1.510857	0.666701
Cl214	Cl	-0.332950	0.740978	0.000052
Cl215	Cl	0.000384	1.074311	0.333386
Cl216	Cl	0.333717	1.407644	0.666719
H217	H	0.070182	1.560745	-0.147236
H218	H	0.403515	1.894078	0.186098
H219	H	0.736848	2.227412	0.519431
H220	H	-0.190389	0.853801	0.000108
H221	H	0.142944	1.187134	0.333441
H222	H	0.476278	1.520468	0.666774
H223	H	-0.082616	0.855707	0.000121
H224	H	0.250717	1.189040	0.333455
H225	H	0.584051	1.522374	0.666788
Cl226	Cl	-0.025407	1.424795	-0.088969
Cl227	Cl	0.307927	1.758128	0.244365
Cl228	Cl	0.641260	2.091461	0.577698
Cl229	Cl	0.179464	1.554192	-0.092396
Cl230	Cl	0.512797	1.887525	0.240937
Cl231	Cl	0.846131	2.220859	0.574271
Cl232	Cl	-0.024579	1.422923	0.092588
Cl233	Cl	0.308755	1.756256	0.425922
Cl234	Cl	0.642088	2.089590	0.759255
Cl235	Cl	-0.097086	1.166736	0.000181
Cl236	Cl	0.236247	1.500069	0.333514
Cl237	Cl	0.569581	1.833403	0.666848
H238	H	0.168648	0.929757	0.577397
H239	H	0.501981	1.263091	0.910730
H240	H	0.835315	1.596424	1.244063
Cl241	Cl	0.179801	1.553093	0.093279
Cl242	Cl	0.513135	1.886426	0.426612
Cl243	Cl	0.846468	2.219759	0.759945
Cl244	Cl	-0.231148	1.164379	0.000145
Cl245	Cl	0.102185	1.497712	0.333478
Cl246	Cl	0.435519	1.831046	0.666811
Cl247	Cl	0.193190	0.935935	0.410717
Cl248	Cl	0.526523	1.269268	0.744051
Cl249	Cl	0.859856	1.602602	1.077384
H250	H	0.066866	1.563366	0.147433
H251	H	0.400199	1.896700	0.480766
H252	H	0.733532	2.230033	0.814100
H253	H	-0.629137	0.846079	0.000030
H254	H	-0.295803	1.179412	0.333363
H255	H	0.037530	1.512745	0.666697
H256	H	0.164387	1.399518	-0.060439
H257	H	0.497721	1.732851	0.272894
H258	H	0.831054	2.066184	0.606227
H259	H	0.002068	1.575257	-0.088058
H260	H	0.335401	1.908591	0.245276
H261	H	0.668735	2.241924	0.578609
Cl262	Cl	0.158521	1.098641	0.588164
Cl263	Cl	0.491854	1.431974	0.921497
Cl264	Cl	0.825188	1.765308	1.254831
H265	H	0.008737	0.905198	0.424075
H266	H	0.342070	1.238532	0.757409
H267	H	0.675404	1.571865	1.090742
Cl268	Cl	-0.035385	1.049540	0.588888
Cl269	Cl	0.297948	1.382874	0.922221
Cl270	Cl	0.631281	1.716207	1.255554
Cl271	Cl	-0.467005	0.738618	0.000032
Cl272	Cl	-0.133672	1.071951	0.333365
Cl273	Cl	0.199662	1.405285	0.666699
Cl274	Cl	0.112812	0.818563	0.589770
Cl275	Cl	0.446146	1.151897	0.923103
Cl276	Cl	0.779479	1.485230	1.256436
H277	H	0.058627	1.128531	0.576043
H278	H	0.391960	1.461865	0.909376
H279	H	0.725294	1.795198	1.242710
Cl280	Cl	-0.643579	1.157119	0.000114
Cl281	Cl	-0.310246	1.490452	0.333448
Cl282	Cl	0.023088	1.823786	0.666781
H283	H	0.067537	1.417425	-0.146870
H284	H	0.400871	1.750759	0.186464
H285	H	0.734204	2.084092	0.519797
H286	H	-0.761506	1.121175	0.000071
H287	H	-0.428173	1.454508	0.333405
H288	H	-0.094839	1.787842	0.666738
H289	H	-0.387281	1.204222	0.000101
H290	H	-0.053948	1.537555	0.333434
H291	H	0.279385	1.870889	0.666768
H292	H	0.068949	1.418563	0.147030
H293	H	0.402282	1.751897	0.480364
H294	H	0.735616	2.085230	0.813697
Cl295	Cl	0.039879	1.157302	0.410547
Cl296	Cl	0.373213	1.490636	0.743880
Cl297	Cl	0.706546	1.823969	1.077213
Cl298	Cl	-0.024375	1.592632	0.084482
Cl299	Cl	0.308958	1.925966	0.417816
Cl300	Cl	0.642292	2.259299	0.751149
Cl301	Cl	-0.037497	1.042426	0.408801
Cl302	Cl	0.295837	1.375760	0.742134
Cl303	Cl	0.629170	1.709093	1.075467
H304	H	-0.495038	1.202319	0.000073
H305	H	-0.161704	1.535653	0.333407
H306	H	0.171629	1.868986	0.666740
H307	H	0.116999	0.854341	0.423528
H308	H	0.450332	1.187674	0.756861
H309	H	0.783666	1.521007	1.090195
Cl310	Cl	0.157423	1.099613	0.408495
Cl311	Cl	0.490756	1.432947	0.741828
Cl312	Cl	0.824090	1.766280	1.075162
Cl313	Cl	0.177374	1.383385	0.093318
Cl314	Cl	0.510708	1.716718	0.426651
Cl315	Cl	0.844041	2.050051	0.759984
H316	H	0.005708	0.909172	0.577303
H317	H	0.339041	1.242505	0.910636
H318	H	0.672375	1.575839	1.243969
