data_functionalizedCrystal
_audit_creation_method	'MofGen! by Chris Wilmer'
_symmetry_space_group_name_H-M	'P1'
_symmetry_Int_Tables_number	1
_symmetry_cell_setting	triclinic
loop_
_symmetry_equiv_pos_as_xyz
  x,y,z
_cell_length_a	19.121102
_cell_length_b	19.121063
_cell_length_c	19.120904
_cell_angle_alpha	94.741613
_cell_angle_beta	89.911827
_cell_angle_gamma	89.873098
loop_
_atom_site_label
_atom_site_type_symbol
_atom_site_fract_x
_atom_site_fract_y
_atom_site_fract_z
Zn1	Zn	1.039579	0.343506	0.456040
Zn2	Zn	1.539579	0.843506	0.956040
Zn3	Zn	1.039493	0.456149	0.343386
Zn4	Zn	1.539493	0.956149	0.843386
Zn5	Zn	0.927792	0.333518	0.333417
Zn6	Zn	1.427792	0.833518	0.833417
Zn7	Zn	0.917325	0.455677	0.455570
Zn8	Zn	1.417325	0.955677	0.955570
O9	O	0.981047	0.397212	0.397103
O10	O	1.481047	0.897212	0.897103
O11	O	1.137479	0.362826	0.445465
O12	O	1.637479	0.862826	0.945465
O13	O	1.029020	0.435899	0.243797
O14	O	1.529020	0.935899	0.743797
O15	O	0.947038	0.236577	0.345708
O16	O	1.447038	0.736577	0.845708
O17	O	1.137415	0.445584	0.362699
O18	O	1.637415	0.945584	0.862699
O19	O	1.029167	0.243915	0.435798
O20	O	1.529167	0.743915	0.935798
O21	O	0.946954	0.345802	0.236473
O22	O	1.446954	0.845802	0.736473
O23	O	0.828493	0.345345	0.345252
O24	O	1.328493	0.845345	0.845252
O25	O	0.929198	0.444780	0.553899
O26	O	1.429198	0.944780	1.053899
O27	O	0.820803	0.435094	0.434997
O28	O	1.320803	0.935094	0.934997
O29	O	1.019018	0.362368	0.554244
O30	O	1.519018	0.862368	1.054244
O31	O	1.018870	0.554352	0.362243
O32	O	1.518870	1.054352	0.862243
O33	O	0.929114	0.554005	0.444664
O34	O	1.429114	1.054005	0.944664
C35	C	0.799261	0.389085	0.388992
C36	C	1.299261	0.889085	0.888992
C37	C	0.721490	0.385626	0.385539
C38	C	1.221490	0.885626	0.885539
C39	C	0.972865	0.579659	0.404501
C40	C	1.472865	1.079659	0.904501
C41	C	0.969428	0.657714	0.407691
C42	C	1.469428	1.157714	0.907691
C43	C	0.680968	0.430793	0.430575
C44	C	1.180968	0.930793	0.930575
C45	C	0.607894	0.427534	0.427334
C46	C	1.107894	0.927534	0.927334
C47	C	0.575344	0.379110	0.379053
C48	C	1.075344	0.879110	0.879053
C49	C	0.615872	0.333937	0.334016
C50	C	1.115872	0.833937	0.834016
C51	C	0.688944	0.337194	0.337261
C52	C	1.188944	0.837194	0.837261
C53	C	0.354913	0.366933	0.366924
C54	C	0.854913	0.866933	0.866924
C55	C	0.281835	0.363681	0.363681
C56	C	0.781835	0.863681	0.863681
C57	C	0.273863	0.457277	0.457000
C58	C	0.773863	0.957277	0.957000
C59	C	0.346937	0.460532	0.460238
C60	C	0.846937	0.960532	0.960238
C61	C	0.387458	0.415357	0.415203
C62	C	0.887458	0.915357	0.915203
C63	C	0.500651	0.375778	0.375738
C64	C	1.000651	0.875778	0.875738
C65	C	0.462149	0.418686	0.418523
C66	C	0.962149	0.918686	0.918523
C67	C	0.972950	0.404635	0.580263
C68	C	1.472950	0.904635	1.080263
C69	C	0.969500	0.407799	0.658315
C70	C	1.469500	0.907799	1.158315
C71	C	1.163544	0.405372	0.405246
C72	C	1.663544	0.905372	0.905246
C73	C	1.241313	0.408849	0.408717
C74	C	1.741313	0.908849	0.908717
C75	C	0.989280	0.214054	0.389693
C76	C	1.489280	0.714054	0.889693
C77	C	0.992788	0.136003	0.386535
C78	C	1.492788	0.636003	0.886535
C79	C	1.014577	0.694545	0.366317
C80	C	1.514577	1.194545	0.866317
C81	C	1.011348	0.767887	0.369323
C82	C	1.511348	1.267887	0.869323
C83	C	0.962966	0.804396	0.413699
C84	C	1.462966	1.304396	0.913699
C85	C	0.917815	0.767560	0.455078
C86	C	1.417815	1.267560	0.955078
C87	C	0.921048	0.694220	0.452076
C88	C	1.421048	1.194220	0.952076
C89	C	0.950869	1.025828	0.424912
C90	C	1.450869	1.525828	0.924912
C91	C	0.947638	1.099173	0.427909
C92	C	1.447638	1.599173	0.927909
C93	C	1.041173	1.099494	0.342155
C94	C	1.541173	1.599494	0.842155
C95	C	1.044399	1.026153	0.339154
C96	C	1.544399	1.526153	0.839154
C97	C	0.999250	0.989323	0.380535
C98	C	1.499250	1.489323	0.880535
C99	C	0.959663	0.879363	0.416770
C100	C	1.459663	1.379363	0.916770
C101	C	1.002557	0.914358	0.377467
C102	C	1.502557	1.414358	0.877467
C103	C	0.989156	0.389769	0.214655
C104	C	1.489156	0.889769	0.714655
C105	C	0.992751	0.386414	0.136602
C106	C	1.492751	0.886414	0.636602
C107	C	1.014640	0.366379	0.695165
C108	C	1.514640	0.866379	1.195165
C109	C	1.011390	0.369348	0.768503
C110	C	1.511390	0.869348	1.268503
C111	C	0.963001	0.413741	0.804990
C112	C	1.463001	0.913741	1.304990
C113	C	0.917856	0.455162	0.768135
C114	C	1.417856	0.955162	1.268135
C115	C	0.921103	0.452188	0.694798
C116	C	1.421103	0.952188	1.194798
C117	C	0.950853	0.424862	1.026410
C118	C	1.450853	0.924862	1.526410
C119	C	0.947610	0.427833	1.099752
C120	C	1.447610	0.927833	1.599752
C121	C	1.041143	0.342019	1.100115
C122	C	1.541143	0.842019	1.600115
C123	C	1.044390	0.339052	1.026777
C124	C	1.544390	0.839052	1.526777
C125	C	0.999242	0.380470	0.989928
C126	C	1.499242	0.880470	1.489928
C127	C	0.959679	0.416779	0.879953
C128	C	1.459679	0.916779	1.379953
C129	C	1.002561	0.377429	0.914966
C130	C	1.502561	0.877429	1.414966
H131	H	0.707464	0.470228	0.469888
H132	H	1.207464	0.970228	0.969888
H133	H	0.574904	0.464315	0.464006
H134	H	1.074904	0.964315	0.964006
H135	H	0.920284	0.452927	0.909669
H136	H	1.420284	0.952927	1.409669
H137	H	1.041952	0.884631	0.341339
H138	H	1.541952	1.384631	0.841339
H139	H	0.255336	0.324240	0.324369
H140	H	0.755336	0.824240	0.824369
O141	O	0.865658	0.503037	0.807485
O142	O	1.365658	1.003037	1.307485
H143	H	0.893885	0.541525	0.843738
H144	H	1.393885	1.041525	1.343738
O145	O	0.902163	0.469520	0.986652
O146	O	1.402163	0.969520	1.486652
H147	H	0.869466	0.435124	0.950389
H148	H	1.369466	0.935124	1.450389
H149	H	0.589364	0.294506	0.294708
H150	H	1.089364	0.794506	0.794708
O151	O	0.382045	0.512755	0.512318
O152	O	0.882045	1.012755	1.012318
H153	H	0.341590	0.543611	0.543096
H154	H	0.841590	1.043611	1.043096
H155	H	0.721937	0.300410	0.300591
H156	H	1.221937	0.800410	0.800591
O157	O	1.096583	0.291175	0.987423
O158	O	1.596583	0.791175	1.487423
H159	H	1.127425	0.262870	1.025368
H160	H	1.627425	0.762870	1.525368
H161	H	1.077899	0.308298	1.130125
H162	H	1.577899	0.808298	1.630125
O163	O	0.465553	0.323552	0.323654
O164	O	0.965553	0.823552	0.823654
H165	H	0.481477	0.333906	0.269633
H166	H	0.981477	0.833906	0.769633
O167	O	1.066837	0.318503	0.655815
O168	O	1.566837	0.818503	1.155815
H169	H	1.038610	0.280025	0.619552
H170	H	1.538610	0.780025	1.119552
H171	H	0.884338	0.485909	0.664795
H172	H	1.384338	0.985909	1.164795
H173	H	0.240863	0.494055	0.493666
H174	H	0.740863	0.994055	0.993666
O175	O	1.089880	1.139227	0.297547
O176	O	1.589880	1.639227	0.797547
H177	H	1.058710	1.169850	0.261770
H178	H	1.558710	1.669850	0.761770
O179	O	1.066771	0.655169	0.318465
O180	O	1.566771	1.155169	0.818465
H181	H	1.038546	0.618950	0.279944
H182	H	1.538546	1.118950	0.779944
H183	H	0.387897	0.330153	0.330248
H184	H	0.887897	0.830153	0.830248
O185	O	1.060081	0.324680	0.808252
O186	O	1.560081	0.824680	1.308252
H187	H	1.094281	0.293319	0.770560
H188	H	1.594281	0.793319	1.270560
H189	H	0.920269	0.909097	0.452900
H190	H	1.420269	1.409097	0.952900
H191	H	0.488655	0.458110	0.457836
H192	H	0.988655	0.958110	0.957836
H193	H	1.048113	0.797871	0.335631
H194	H	1.548113	1.297871	0.835631
O195	O	1.096588	0.986775	0.291298
O196	O	1.596588	1.486775	0.791298
H197	H	1.127447	1.024708	0.263037
H198	H	1.627447	1.524708	0.763037
O199	O	0.895410	0.475707	1.139110
O200	O	1.395410	0.975707	1.639110
H201	H	0.905542	0.530788	1.127799
H202	H	1.405542	1.030788	1.627799
O203	O	0.895458	1.138555	0.475780
O204	O	1.395458	1.638555	0.975780
H205	H	0.864611	1.100626	0.504057
H206	H	1.364611	1.600626	1.004057
O207	O	0.902155	0.986106	0.469520
O208	O	1.402155	1.486106	0.969520
H209	H	0.867959	1.023816	0.500867
H210	H	1.367959	1.523816	1.000867
H211	H	0.878424	0.797292	0.491213
H212	H	1.378424	1.297292	0.991213
H213	H	0.884283	0.664233	0.485768
H214	H	1.384283	1.164233	0.985768
H215	H	1.041956	0.341281	0.885255
H216	H	1.541956	0.841281	1.385255
