data_functionalizedCrystal
_audit_creation_method	'MofGen! by Chris Wilmer'
_symmetry_space_group_name_H-M	'P1'
_symmetry_Int_Tables_number	1
_symmetry_cell_setting	triclinic
loop_
_symmetry_equiv_pos_as_xyz
  x,y,z
_cell_length_a	12.759395
_cell_length_b	18.101397
_cell_length_c	12.759387
_cell_angle_alpha	89.962982
_cell_angle_beta	89.980569
_cell_angle_gamma	90.020311
loop_
_atom_site_label
_atom_site_type_symbol
_atom_site_fract_x
_atom_site_fract_y
_atom_site_fract_z
Zn1	Zn	1.606227	-0.294794	-0.593929
Zn2	Zn	1.606100	-0.418654	-0.418231
Zn3	Zn	1.430525	-0.294830	-0.418270
Zn4	Zn	1.430499	-0.418597	-0.593873
O5	O	1.518338	-0.356719	-0.506076
O6	O	1.753231	-0.311232	-0.570630
O7	O	1.582767	-0.402267	-0.271215
O8	O	1.453896	-0.191193	-0.441611
O9	O	1.753137	-0.402232	-0.441545
O10	O	1.582983	-0.191166	-0.570668
O11	O	1.453773	-0.311295	-0.271243
O12	O	1.283500	-0.311240	-0.441557
O13	O	1.453853	-0.402136	-0.740902
O14	O	1.283482	-0.402171	-0.570572
O15	O	1.582959	-0.311178	-0.740943
O16	O	1.582742	-0.522279	-0.441490
O17	O	1.453729	-0.522238	-0.570534
C18	C	1.245370	-0.356704	-0.506063
C19	C	1.128593	-0.356716	-0.506082
C20	C	1.128671	-0.262111	-0.640716
C21	C	1.073849	-0.214818	-0.708041
C22	C	0.964128	-0.214831	-0.708054
C23	C	0.909226	-0.262141	-0.640732
C24	C	0.964047	-0.309434	-0.573407
C25	C	1.073771	-0.309417	-0.573404
C26	C	0.963969	-0.404034	-0.438770
C27	C	1.073691	-0.404026	-0.438761
C28	C	0.909067	-0.451344	-0.371449
C29	C	0.963889	-0.498642	-0.304127
C30	C	1.073617	-0.498628	-0.304118
C31	C	1.128513	-0.451319	-0.371436
C32	C	1.518248	-0.549129	-0.506025
C33	C	1.518305	-0.631443	-0.506038
C34	C	1.518439	-0.930534	-0.506134
C35	C	1.599384	-0.899204	-0.424726
C36	C	1.599665	-0.813586	-0.424937
C37	C	1.518373	-0.782152	-0.506086
C38	C	1.548394	-0.813150	-0.616826
C39	C	1.549020	-0.898795	-0.616383
C40	C	1.407258	-0.899045	-0.477760
C41	C	1.407807	-0.813396	-0.475288
C42	C	1.518334	-0.698292	-0.506065
C43	C	1.518481	-1.014394	-0.506162
C44	C	1.792371	-0.356734	-0.506089
C45	C	1.909148	-0.356741	-0.506095
C46	C	1.518417	-0.356646	-0.780109
C47	C	1.518451	-0.356615	-0.896886
C48	C	1.518456	-0.163557	-0.506150
C49	C	1.518507	-0.081243	-0.506181
C50	C	1.652898	-0.261907	-0.896949
C51	C	1.720136	-0.214541	-0.951841
C52	C	1.720162	-0.214514	-1.061563
C53	C	1.652940	-0.261856	-1.116395
C54	C	1.585701	-0.309222	-1.061503
C55	C	1.585685	-0.309245	-0.951778
C56	C	1.451250	-0.403925	-1.061440
C57	C	1.451229	-0.403957	-0.951718
C58	C	1.384028	-0.451267	-1.116272
C59	C	1.316794	-0.498637	-1.061380
C60	C	1.316772	-0.498663	-0.951651
C61	C	1.383990	-0.451323	-0.896826
C62	C	1.518319	-0.356738	-0.233108
C63	C	1.518489	-0.356560	-0.116332
H64	H	1.217854	-0.451299	-0.371429
H65	H	1.384050	-0.451239	-1.205613
F66	F	1.131955	-0.548962	-0.232456
F67	F	1.328427	-0.925529	-0.555258
F68	F	1.383977	-0.451349	-0.780050
H69	H	1.218012	-0.262092	-0.640707
F70	F	1.575060	-0.786194	-0.317622
F71	F	1.245254	-0.549012	-1.119741
F72	F	1.378213	-0.786922	-0.368769
F73	F	1.324733	-0.785439	-0.547113
H74	H	0.819726	-0.451349	-0.371461
F75	F	1.132287	-0.164469	-0.779685
H76	H	1.630289	-0.918713	-0.640419
F77	F	0.905781	-0.164492	-0.779702
F78	F	1.652889	-0.261941	-0.780173
H79	H	1.628753	-0.791641	-0.641268
F80	F	1.473685	-0.786541	-0.698240
H81	H	1.492646	-0.919517	-0.679128
H82	H	1.652957	-0.261824	-1.205736
H83	H	1.379948	-0.920712	-0.398409
F84	F	1.245201	-0.549073	-0.893239
F85	F	1.791655	-0.164145	-0.893478
H86	H	0.819884	-0.262141	-0.640740
F87	F	1.791710	-0.164094	-1.119985
H88	H	1.580828	-0.919854	-0.342367
F89	F	0.905453	-0.548983	-0.232481
F90	F	1.707310	-0.786729	-0.449479
F91	F	1.706445	-0.927260	-0.448980
