data_functionalizedCrystal
_audit_creation_method	'MofGen! by Chris Wilmer'
_symmetry_space_group_name_H-M	'P1'
_symmetry_Int_Tables_number	1
_symmetry_cell_setting	triclinic
loop_
_symmetry_equiv_pos_as_xyz
  x,y,z
_cell_length_a	8.559649
_cell_length_b	12.811415
_cell_length_c	7.088929
_cell_angle_alpha	78.355812
_cell_angle_beta	95.325015
_cell_angle_gamma	76.944044
loop_
_atom_site_label
_atom_site_type_symbol
_atom_site_fract_x
_atom_site_fract_y
_atom_site_fract_z
O1	O	2.103996	-0.023799	-0.154831
O2	O	1.638174	0.031103	-0.164359
O3	O	1.885553	-0.152141	-0.132575
O4	O	1.856617	0.159444	-0.186615
O5	O	1.918613	-0.176679	0.189656
O6	O	1.671234	0.006565	0.157872
O7	O	2.137056	-0.048337	0.167401
Cu8	Cu	1.907164	-0.023127	0.192059
Cu9	Cu	1.868066	0.005892	-0.189017
O10	O	1.889677	0.134906	0.135617
C11	C	1.595127	0.022995	-0.003966
C12	C	1.417608	0.035379	-0.006117
C13	C	1.901475	-0.203930	0.035391
C14	C	1.899645	-0.321686	0.055801
C15	C	1.860131	-0.516194	-0.257182
C16	C	1.858411	-0.626835	-0.238014
C17	C	1.894472	-0.653610	0.113304
C18	C	1.896193	-0.542969	0.094136
C19	C	1.879024	-0.474264	-0.091113
C20	C	1.880756	-0.363623	-0.110280
C21	C	1.916806	-0.390398	0.241037
C22	C	1.915085	-0.501040	0.260205
C23	C	2.180102	-0.040229	0.007003
C24	C	2.357620	-0.052613	0.009141
C25	C	1.873755	0.186696	-0.032353
C26	C	1.875583	0.304453	-0.052777
N27	N	1.934675	-0.043539	0.460087
N28	N	1.840568	0.026295	-0.457044
H29	H	1.866781	-0.307685	-0.261119
H30	H	2.032223	-0.115905	0.554295
C31	C	1.470372	-0.165612	0.028443
C32	C	1.550321	-0.165327	-0.135173
C33	C	1.654226	-0.269399	-0.117450
H34	H	1.409130	-0.219251	0.037645
H35	H	1.547890	-0.182754	0.142244
H36	H	1.472813	-0.148198	-0.248943
H37	H	1.611594	-0.111710	-0.144406
H38	H	1.731745	-0.286541	-0.003648
H39	H	1.592972	-0.323030	-0.108243
H40	H	1.708495	-0.269217	-0.228449
C41	C	1.304787	0.148431	-0.026028
C42	C	1.190830	0.173394	-0.193930
C43	C	1.086862	0.277518	-0.212323
H44	H	1.366013	0.202083	-0.035429
H45	H	1.250310	0.148471	0.084789
H46	H	1.245302	0.173363	-0.304720
H47	H	1.129566	0.119769	-0.184570
H48	H	1.032385	0.277558	-0.101506
H49	H	1.148101	0.331161	-0.221717
H50	H	1.009520	0.294464	-0.326234
C51	C	1.841170	-0.441587	-0.458353
C52	C	1.692222	-0.437217	-0.563686
C53	C	1.674694	-0.368489	-0.749002
H54	H	1.926650	-0.469845	-0.524899
H55	H	1.844808	-0.369659	-0.446058
H56	H	1.688599	-0.509131	-0.575989
H57	H	1.606714	-0.408949	-0.497199
H58	H	1.678331	-0.296561	-0.736707
H59	H	1.760182	-0.396754	-0.815530
H60	H	1.573627	-0.365507	-0.820487
H61	H	1.843021	-0.660967	-0.373245
H62	H	1.908437	-0.709566	0.264125
H63	H	1.743038	0.098663	0.448757
H64	H	1.932195	-0.356249	0.376262
H65	H	1.929057	-0.556992	0.411029
