data_functionalizedCrystal
_audit_creation_method	'MofGen! by Chris Wilmer'
_symmetry_space_group_name_H-M	'P1'
_symmetry_Int_Tables_number	1
_symmetry_cell_setting	triclinic
loop_
_symmetry_equiv_pos_as_xyz
  x,y,z
_cell_length_a	12.759401
_cell_length_b	16.625546
_cell_length_c	12.759393
_cell_angle_alpha	89.964881
_cell_angle_beta	89.979062
_cell_angle_gamma	90.023993
loop_
_atom_site_label
_atom_site_type_symbol
_atom_site_fract_x
_atom_site_fract_y
_atom_site_fract_z
Zn1	Zn	1.606210	-0.320930	-0.593986
Zn2	Zn	2.106210	0.179070	-0.093986
Zn3	Zn	1.606077	-0.455784	-0.418292
Zn4	Zn	2.106077	0.044216	0.081708
Zn5	Zn	1.430508	-0.320973	-0.418322
Zn6	Zn	1.930508	0.179027	0.081678
Zn7	Zn	1.430476	-0.455728	-0.593930
Zn8	Zn	1.930476	0.044272	-0.093930
O9	O	1.518318	-0.388354	-0.506132
O10	O	2.018318	0.111646	-0.006132
O11	O	1.753213	-0.338824	-0.570692
O12	O	2.253213	0.161176	-0.070692
O13	O	1.582745	-0.437943	-0.271275
O14	O	2.082745	0.062057	0.228725
O15	O	1.453884	-0.208135	-0.441660
O16	O	1.953884	0.291865	0.058340
O17	O	1.753116	-0.437901	-0.441610
O18	O	2.253116	0.062099	0.058390
O19	O	1.582971	-0.208103	-0.570720
O20	O	2.082971	0.291897	-0.070720
O21	O	1.453756	-0.338897	-0.271297
O22	O	1.953756	0.161103	0.228703
O23	O	1.283483	-0.338843	-0.441605
O24	O	1.783483	0.161157	0.058395
O25	O	1.453830	-0.437805	-0.740958
O26	O	1.953830	0.062195	-0.240958
O27	O	1.283460	-0.437847	-0.570623
O28	O	1.783460	0.062153	-0.070623
O29	O	1.582940	-0.338770	-0.741000
O30	O	2.082940	0.161230	-0.241000
O31	O	1.582714	-0.568609	-0.441555
O32	O	2.082714	-0.068609	0.058445
O33	O	1.453701	-0.568568	-0.570595
O34	O	1.953701	-0.068568	-0.070595
C35	C	1.245350	-0.388344	-0.506112
C36	C	1.745350	0.111656	-0.006112
C37	C	1.128574	-0.388359	-0.506128
C38	C	1.628574	0.111641	-0.006128
C39	C	1.073727	-0.439989	-0.573202
C40	C	1.573727	0.060011	-0.073202
C41	C	0.964003	-0.439992	-0.573223
C42	C	1.464003	0.060008	-0.073223
C43	C	0.963982	-0.336733	-0.439086
C44	C	1.463982	0.163267	0.060914
C45	C	1.073704	-0.336726	-0.439071
C46	C	1.573704	0.163274	0.060929
C47	C	1.518218	-0.597844	-0.506088
C48	C	2.018218	-0.097844	-0.006088
C49	C	1.518272	-0.687466	-0.506105
C50	C	2.018272	-0.187466	-0.006105
C51	C	1.518455	-1.015641	-0.506214
C52	C	2.018455	-0.515641	-0.006214
C53	C	1.518401	-0.924333	-0.506187
C54	C	2.018401	-0.424333	-0.006187
C55	C	1.518363	-0.851556	-0.506159
C56	C	2.018363	-0.351556	-0.006159
C57	C	1.518310	-0.760242	-0.506132
C58	C	2.018310	-0.260242	-0.006132
C59	C	1.792351	-0.388364	-0.506154
C60	C	2.292351	0.111636	-0.006154
C61	C	1.909128	-0.388369	-0.506163
C62	C	2.409128	0.111631	-0.006163
C63	C	1.518396	-0.388276	-0.780166
C64	C	2.018396	0.111724	-0.280166
C65	C	1.518430	-0.388243	-0.896943
C66	C	2.018430	0.111757	-0.396943
C67	C	1.518446	-0.178045	-0.506200
C68	C	2.018446	0.321955	-0.006200
C69	C	1.518501	-0.088424	-0.506228
C70	C	2.018501	0.411576	-0.006228
C71	C	1.585663	-0.336667	-0.951828
C72	C	2.085663	0.163333	-0.451828
C73	C	1.585681	-0.336632	-1.061552
C74	C	2.085681	0.163368	-0.561552
C75	C	1.451230	-0.439757	-1.061496
C76	C	1.951230	0.060243	-0.561496
C77	C	1.451208	-0.439787	-0.951774
C78	C	1.951208	0.060213	-0.451774
C79	C	1.518300	-0.388372	-0.233165
C80	C	2.018300	0.111628	0.266835
C81	C	1.518470	-0.388178	-0.116389
C82	C	2.018470	0.111822	0.383611
H83	H	1.118399	-0.482029	-0.627806
H84	H	1.618399	0.017971	-0.127806
H85	H	1.118362	-0.294678	-0.384451
H86	H	1.618362	0.205322	0.115549
H87	H	1.640397	-0.294695	-0.907188
H88	H	2.140397	0.205305	-0.407188
C89	C	0.903677	-0.496796	-0.647000
C90	C	1.403677	0.003204	-0.147000
N91	N	0.858240	-0.539586	-0.702569
N92	N	1.358240	-0.039586	-0.202569
C93	C	0.903615	-0.279945	-0.365322
C94	C	1.403615	0.220055	0.134678
N95	N	0.858148	-0.237172	-0.309760
N96	N	1.358148	0.262828	0.190240
H97	H	1.640427	-0.294633	-1.106235
H98	H	2.140427	0.205367	-0.606235
C99	C	1.377287	-0.496450	-1.121820
C100	C	1.877287	0.003550	-0.621820
N101	N	1.321592	-0.539152	-1.167256
N102	N	1.821592	-0.039152	-0.667256
H103	H	1.396451	-0.481785	-0.907085
H104	H	1.896451	0.018215	-0.407085
