data_functionalizedCrystal
_audit_creation_method	'MofGen! by Chris Wilmer'
_symmetry_space_group_name_H-M	'P1'
_symmetry_Int_Tables_number	1
_symmetry_cell_setting	triclinic
loop_
_symmetry_equiv_pos_as_xyz
  x,y,z
_cell_length_a	11.026607
_cell_length_b	13.330367
_cell_length_c	11.026607
_cell_angle_alpha	89.998240
_cell_angle_beta	71.413983
_cell_angle_gamma	90.006834
loop_
_atom_site_label
_atom_site_type_symbol
_atom_site_fract_x
_atom_site_fract_y
_atom_site_fract_z
O1	O	1.726739	0.083421	-0.533624
O2	O	2.226739	0.583421	-0.033624
O3	O	1.360159	0.083423	-0.472860
O4	O	1.860159	0.583423	0.027140
O5	O	1.513067	0.083418	-0.319952
O6	O	2.013067	0.583418	0.180048
O7	O	1.573831	0.083425	-0.686532
O8	O	2.073831	0.583425	-0.186532
O9	O	1.513038	-0.083429	-0.319942
O10	O	2.013038	0.416571	0.180058
O11	O	1.360130	-0.083424	-0.472850
O12	O	1.860130	0.416576	0.027150
O13	O	1.726710	-0.083426	-0.533613
O14	O	2.226710	0.416574	-0.033613
Cu15	Cu	1.543417	-0.098660	-0.503231
Cu16	Cu	2.043417	0.401340	-0.003231
Cu17	Cu	1.543452	0.098656	-0.503243
Cu18	Cu	2.043452	0.598656	-0.003243
O19	O	1.573801	-0.083422	-0.686522
O20	O	2.073801	0.416578	-0.186522
C21	C	1.312485	-0.000001	-0.461645
C22	C	1.812485	0.499999	0.038355
C23	C	1.170471	-0.000000	-0.428228
C24	C	1.670471	0.500000	0.071772
N25	N	1.543402	-0.237441	-0.503223
N26	N	2.043402	0.262559	-0.003223
C27	C	1.116821	0.000002	-0.520498
C28	C	1.616821	0.500002	-0.020498
C29	C	0.970043	0.000003	-0.485962
C30	C	1.470043	0.500003	0.014038
C31	C	1.475733	-0.710062	-0.570916
C32	C	1.975733	-0.210062	-0.070916
C33	C	1.611203	-0.710034	-0.435568
C34	C	2.111203	-0.210034	0.064432
C35	C	1.611187	-0.605016	-0.435561
C36	C	2.111187	-0.105016	0.064439
C37	C	1.543445	-0.552516	-0.503234
C38	C	2.043445	-0.052516	-0.003234
C39	C	1.475718	-0.605034	-0.570914
C40	C	1.975718	-0.105034	-0.070914
C41	C	1.678924	-0.552489	-0.367892
C42	C	2.178924	-0.052489	0.132108
C43	C	1.678912	-0.447465	-0.367884
C44	C	2.178912	0.052535	0.132116
C45	C	1.611162	-0.394963	-0.435550
C46	C	2.111162	0.105037	0.064450
C47	C	1.543431	-0.447488	-0.503232
C48	C	2.043431	0.052512	-0.003232
C49	C	1.475689	-0.394988	-0.570905
C50	C	1.975689	0.105012	-0.070905
C51	C	1.407950	-0.447511	-0.638581
C52	C	1.907950	0.052489	-0.138581
C53	C	1.407968	-0.552532	-0.638581
C54	C	1.907968	-0.052532	-0.138581
C55	C	1.611144	-0.289941	-0.435550
C56	C	2.111144	0.210059	0.064450
C57	C	1.475675	-0.289960	-0.570903
C58	C	1.975675	0.210040	-0.070903
C59	C	1.774384	-0.000001	-0.544828
C60	C	2.274384	0.499999	-0.044828
C61	C	1.916398	0.000005	-0.578245
C62	C	2.416398	0.500005	-0.078245
N63	N	1.543475	0.237438	-0.503243
N64	N	2.043475	0.737438	-0.003243
C65	C	1.501843	-0.000004	-0.272287
C66	C	2.001843	0.499996	0.227713
C67	C	1.468426	-0.000000	-0.130273
C68	C	1.968426	0.500000	0.369727
C69	C	1.585026	0.000003	-0.734187
C70	C	2.085026	0.500003	-0.234187
C71	C	1.618443	0.000006	-0.876200
C72	C	2.118443	0.500006	-0.376200
C73	C	1.560695	0.000001	-0.076624
C74	C	2.060695	0.500001	0.423376
C75	C	1.526160	0.000005	0.070155
C76	C	2.026160	0.500005	0.570155
H77	H	1.179555	-0.000001	-0.625061
H78	H	1.679555	0.499999	-0.125061
H79	H	1.352800	-0.404753	-0.693687
H80	H	1.852800	0.095247	-0.193687
F81	F	1.088480	-0.000009	-0.291554
F82	F	1.588480	0.499991	0.208446
F83	F	1.331751	0.000010	-0.048283
F84	F	1.831751	0.500010	0.451717
H85	H	1.734085	-0.595238	-0.312802
H86	H	2.234085	-0.095238	0.187198
H87	H	1.420576	-0.752829	-0.626012
H88	H	1.920576	-0.252829	-0.126012
F89	F	0.888056	-0.000006	-0.349281
F90	F	1.388056	0.499994	0.150719
H91	H	1.666364	-0.752783	-0.380478
H92	H	2.166364	-0.252783	0.119522
H93	H	0.979125	0.000001	-0.682816
H94	H	1.479125	0.500001	-0.182816
H95	H	1.420505	-0.247220	-0.626006
H96	H	1.920505	0.252780	-0.126006
F97	F	1.335884	-0.608434	-0.710603
F98	F	1.835884	-0.108434	-0.210603
F99	F	1.755125	0.000010	0.041816
F100	F	2.255125	0.500010	0.541816
F101	F	1.697370	0.000006	-0.158615
F102	F	2.197370	0.500006	0.341385
H103	H	1.666303	-0.247182	-0.380457
H104	H	2.166303	0.252818	0.119543
H105	H	1.421590	0.000012	0.132884
H106	H	1.921590	0.500012	0.632884
H107	H	1.734067	-0.404707	-0.312778
H108	H	2.234067	0.095293	0.187222
