data_functionalizedCrystal
_audit_creation_method	'MofGen! by Chris Wilmer'
_symmetry_space_group_name_H-M	'P1'
_symmetry_Int_Tables_number	1
_symmetry_cell_setting	triclinic
loop_
_symmetry_equiv_pos_as_xyz
  x,y,z
_cell_length_a	19.121112
_cell_length_b	19.120786
_cell_length_c	19.805399
_cell_angle_alpha	92.468930
_cell_angle_beta	92.456608
_cell_angle_gamma	89.915581
loop_
_atom_site_label
_atom_site_type_symbol
_atom_site_fract_x
_atom_site_fract_y
_atom_site_fract_z
Zn1	Zn	1.059854	-0.324937	0.412841
Zn2	Zn	1.559854	0.175063	0.912841
Zn3	Zn	1.054766	-0.442178	0.294621
Zn4	Zn	1.554766	0.057822	0.794621
Zn5	Zn	0.942618	-0.319946	0.295060
Zn6	Zn	1.442618	0.180054	0.795060
Zn7	Zn	0.937583	-0.437133	0.403167
Zn8	Zn	1.437583	0.062867	0.903167
O9	O	0.998705	-0.381048	0.351422
O10	O	1.498705	0.118952	0.851422
O11	O	1.157284	-0.344689	0.401024
O12	O	1.657284	0.155311	0.901024
O13	O	1.039868	-0.425987	0.199961
O14	O	1.539868	0.074013	0.699961
O15	O	0.962406	-0.222499	0.314917
O16	O	1.462406	0.277501	0.814917
O17	O	1.153546	-0.430826	0.314168
O18	O	1.653546	0.069174	0.814168
O19	O	1.048539	-0.226165	0.401450
O20	O	1.548539	0.273835	0.901450
O21	O	0.957473	-0.336183	0.200284
O22	O	1.457473	0.163817	0.700284
O23	O	0.843845	-0.331291	0.305536
O24	O	1.343845	0.168709	0.805536
O25	O	0.953825	-0.422227	0.499168
O26	O	1.453825	0.077773	0.999168
O27	O	0.840146	-0.417388	0.384961
O28	O	1.340146	0.082612	0.884961
O29	O	1.043657	-0.339797	0.506276
O30	O	1.543657	0.160203	1.006276
O31	O	1.034985	-0.539618	0.304787
O32	O	1.534985	-0.039618	0.804787
O33	O	0.948892	-0.535912	0.384535
O34	O	1.448892	-0.035912	0.884535
C35	C	0.816558	-0.373251	0.344247
C36	C	1.316558	0.126749	0.844247
C37	C	0.738634	-0.369933	0.341193
C38	C	1.238634	0.130067	0.841193
C39	C	0.298008	-0.348878	0.321850
C40	C	0.798008	0.151122	0.821850
C41	C	0.371226	-0.352000	0.324723
C42	C	0.871226	0.148000	0.824723
C43	C	0.405922	-0.398461	0.367439
C44	C	0.905922	0.101539	0.867439
C45	C	0.367396	-0.441797	0.407289
C46	C	0.867396	0.058203	0.907289
C47	C	0.294180	-0.438671	0.404419
C48	C	0.794180	0.061329	0.904419
C49	C	0.626892	-0.410143	0.378173
C50	C	1.126892	0.089857	0.878173
C51	C	0.700114	-0.413267	0.381038
C52	C	1.200114	0.086733	0.881038
C53	C	0.703938	-0.323469	0.298473
C54	C	1.203938	0.176531	0.798473
C55	C	0.630720	-0.320350	0.295604
C56	C	1.130720	0.179650	0.795604
C57	C	0.592201	-0.363683	0.335457
C58	C	1.092201	0.136317	0.835457
C59	C	0.480762	-0.401655	0.370375
C60	C	0.980762	0.098345	0.870375
C61	C	0.517362	-0.360485	0.332523
C62	C	1.017362	0.139515	0.832523
C63	C	0.990859	-0.563204	0.343579
C64	C	1.490859	-0.063204	0.843579
C65	C	0.987566	-0.641134	0.340249
C66	C	1.487566	-0.141134	0.840249
C67	C	1.030831	-0.679593	0.383771
C68	C	1.530831	-0.179593	0.883771
C69	C	1.027734	-0.752816	0.380643
C70	C	1.527734	-0.252816	0.880643
C71	C	0.981376	-0.787579	0.333989
C72	C	1.481376	-0.287579	0.833989
C73	C	0.938107	-0.749115	0.290465
C74	C	1.438107	-0.249115	0.790465
C75	C	0.941201	-0.675893	0.293597
C76	C	1.441201	-0.175893	0.793597
C77	C	0.969791	-1.008570	0.322281
C78	C	1.469791	-0.508570	0.822281
C79	C	0.966702	-1.081797	0.319151
C80	C	1.466702	-0.581797	0.819151
C81	C	1.056329	-1.085492	0.409331
C82	C	1.556329	-0.585492	0.909331
C83	C	1.059421	-1.012269	0.412455
C84	C	1.559421	-0.512269	0.912455
C85	C	1.016149	-0.973811	0.368934
C86	C	1.516149	-0.473811	0.868934
C87	C	0.978212	-0.862425	0.330789
C88	C	1.478212	-0.362425	0.830789
C89	C	1.019311	-0.898967	0.372137
C90	C	1.519311	-0.398967	0.872137
C91	C	1.181564	-0.388877	0.358626
C92	C	1.681564	0.111123	0.858626
C93	C	1.259487	-0.392212	0.361695
C94	C	1.759487	0.107788	0.861695
C95	C	0.998747	-0.381006	0.527968
C96	C	1.498747	0.118994	1.027968
C97	C	0.998764	-0.380988	0.603202
C98	C	1.498764	0.119012	1.103202
C99	C	1.006602	-0.198182	0.359311
C100	C	1.506602	0.301818	0.859311
C101	C	1.009966	-0.120256	0.362673
C102	C	1.509966	0.379744	0.862673
C103	C	0.998707	-0.381042	0.175567
C104	C	1.498707	0.118958	0.675567
C105	C	0.998834	-0.380868	0.100347
C106	C	1.498834	0.119132	0.600347
C107	C	1.045541	-0.338064	0.642248
C108	C	1.545541	0.161936	1.142248
C109	C	1.045549	-0.338044	0.712938
C110	C	1.545549	0.161956	1.212938
C111	C	0.998783	-0.380952	0.744580
C112	C	1.498783	0.119048	1.244580
C113	C	0.952002	-0.423878	0.705528
C114	C	1.452002	0.076122	1.205528
C115	C	0.951991	-0.423893	0.634840
C116	C	1.451991	0.076107	1.134840
C117	C	0.952044	-0.423814	0.990606
C118	C	1.452044	0.076186	1.490606
C119	C	0.952060	-0.423796	1.061300
C120	C	1.452060	0.076204	1.561300
C121	C	1.045602	-0.337965	1.068704
C122	C	1.545602	0.162035	1.568704
C123	C	1.045591	-0.337981	0.998016
C124	C	1.545591	0.162019	1.498016
C125	C	0.998807	-0.380903	0.958970
C126	C	1.498807	0.119097	1.458970
C127	C	0.998798	-0.380923	0.882321
C128	C	1.498798	0.119077	1.382321
C129	C	0.998795	-0.380936	0.821228
C130	C	1.498795	0.119064	1.321228
H131	H	0.602476	-0.282521	0.260815
H132	H	1.102476	0.217479	0.760815
H133	H	1.097169	-0.983966	0.450445
H134	H	1.597169	-0.483966	0.950445
H135	H	0.735309	-0.288188	0.266028
H136	H	1.235309	0.211812	0.766028
H137	H	0.402586	-0.316715	0.292273
H138	H	0.902586	0.183285	0.792273
H139	H	1.062970	-0.784126	0.416079
H140	H	1.562970	-0.284126	0.916079
O141	O	0.260586	-0.298764	0.275780
O142	O	0.760586	0.201236	0.775780
H143	H	0.299676	-0.269150	0.248561
H144	H	0.799676	0.230850	0.748561
H145	H	0.728361	-0.451102	0.415826
H146	H	1.228361	0.048898	0.915826
H147	H	1.091557	-1.116812	0.444764
H148	H	1.591557	-0.616812	0.944764
O149	O	1.095987	-0.291787	0.608126
O150	O	1.595987	0.208213	1.108126
H151	H	1.088129	-0.299013	0.552412
H152	H	1.588129	0.200987	1.052412
O153	O	0.901528	-0.470181	0.592726
O154	O	1.401528	0.029819	1.092726
H155	H	0.911171	-0.525721	0.604384
H156	H	1.411171	-0.025721	1.104384
O157	O	0.916695	-1.119296	0.268834
O158	O	1.416695	-0.619296	0.768834
H159	H	0.887119	-1.080253	0.239101
H160	H	1.387119	-0.580253	0.739101
O161	O	0.901608	-0.470070	1.095427
O162	O	1.401608	0.029930	1.595427
H163	H	0.931446	-0.507084	1.127326
H164	H	1.431446	-0.007084	1.627326
O165	O	0.923132	-0.967102	0.275326
O166	O	1.423132	-0.467102	0.775326
H167	H	0.867506	-0.978852	0.284110
H168	H	1.367506	-0.478852	0.784110
H169	H	0.900359	-0.777425	0.252481
H170	H	1.400359	-0.277425	0.752481
O171	O	0.585344	-0.457021	0.421010
O172	O	1.085344	0.042979	0.921010
H173	H	0.621770	-0.489908	0.451137
H174	H	1.121770	0.010092	0.951137
O175	O	0.901555	-0.470154	0.739651
O176	O	1.401555	0.029846	1.239651
H177	H	0.909424	-0.462937	0.795365
H178	H	1.409424	0.037063	1.295365
O179	O	0.894544	-0.634407	0.246650
O180	O	1.394544	-0.134407	0.746650
H181	H	0.861794	-0.670881	0.213676
H182	H	1.361794	-0.170881	0.713676
O183	O	1.069318	-0.861478	0.422451
O184	O	1.569318	-0.361478	0.922451
H185	H	1.039334	-0.826776	0.457052
H186	H	1.539334	-0.326776	0.957052
H187	H	1.083675	-0.303043	0.972257
H188	H	1.583675	0.196957	1.472257
O189	O	0.404813	-0.491894	0.453380
O190	O	0.904813	0.008106	0.953380
H191	H	0.462197	-0.486787	0.448683
H192	H	0.962197	0.013213	0.948683
O193	O	0.252625	-0.485454	0.447349
O194	O	0.752625	0.014546	0.947349
H195	H	0.289049	-0.518307	0.477514
H196	H	0.789049	-0.018307	0.977514
O197	O	0.928228	-0.899928	0.280459
O198	O	1.428228	-0.399928	0.780459
H199	H	0.891135	-0.931784	0.307887
H200	H	1.391135	-0.431784	0.807887
O201	O	1.096004	-0.291753	0.755055
O202	O	1.596004	0.208247	1.255055
H203	H	1.128528	-0.261927	0.721176
H204	H	1.628528	0.238073	1.221176
H205	H	1.083693	-0.303013	1.100503
H206	H	1.583693	0.196987	1.600503
O207	O	0.901590	-0.470095	0.948481
O208	O	1.401590	0.029905	1.448481
H209	H	0.867281	-0.437175	0.916235
H210	H	1.367281	0.062825	1.416235
H211	H	0.509019	-0.439485	0.405152
H212	H	1.009019	0.060515	0.905152
O213	O	0.479936	-0.310391	0.286442
O214	O	0.979936	0.189609	0.786442
H215	H	0.448114	-0.273343	0.317013
H216	H	0.948114	0.226657	0.817013
H217	H	1.068583	-0.651294	0.421759
H218	H	1.568583	-0.151294	0.921759
