data_functionalizedCrystal
_audit_creation_method	'MofGen! by Chris Wilmer'
_symmetry_space_group_name_H-M	'P1'
_symmetry_Int_Tables_number	1
_symmetry_cell_setting	triclinic
loop_
_symmetry_equiv_pos_as_xyz
  x,y,z
_cell_length_a	11.792241
_cell_length_b	10.654550
_cell_length_c	9.130313
_cell_angle_alpha	89.999724
_cell_angle_beta	89.999538
_cell_angle_gamma	95.660827
loop_
_atom_site_label
_atom_site_type_symbol
_atom_site_fract_x
_atom_site_fract_y
_atom_site_fract_z
O1	O	-0.159420	1.667388	-0.121672
O2	O	0.340580	2.167388	0.378328
O3	O	-0.174608	1.301867	-0.121697
O4	O	0.325392	1.801867	0.378303
O5	O	-0.001864	1.493498	-0.121693
O6	O	0.498136	1.993498	0.378307
O7	O	-0.332164	1.475758	-0.121677
O8	O	0.167836	1.975758	0.378323
O9	O	-0.001859	1.493485	0.121906
O10	O	0.498141	1.993485	0.621906
O11	O	-0.174603	1.301854	0.121901
O12	O	0.325397	1.801854	0.621901
O13	O	-0.159415	1.667375	0.121927
O14	O	0.340585	2.167375	0.621927
Cu15	Cu	-0.167009	1.484613	0.144157
Cu16	Cu	0.332991	1.984613	0.644157
Cu17	Cu	-0.167015	1.484629	-0.143927
Cu18	Cu	0.332985	1.984629	0.356073
O19	O	-0.332159	1.475744	0.121922
O20	O	0.167841	1.975744	0.621922
C21	C	-0.173491	1.255066	0.000098
C22	C	0.326509	1.755066	0.500098
C23	C	-0.170154	1.115632	0.000088
C24	C	0.329846	1.615632	0.500088
C25	C	-0.271863	1.035859	0.000097
C26	C	0.228137	1.535859	0.500097
C27	C	-0.268721	0.904847	0.000123
C28	C	0.231279	1.404847	0.500123
C29	C	-0.062152	0.933394	0.000123
C30	C	0.437848	1.433394	0.500123
C31	C	-0.065295	1.064403	0.000109
C32	C	0.434705	1.564403	0.500109
C33	C	-0.374455	1.476865	0.000125
C34	C	0.125545	1.976865	0.500125
C35	C	-0.500477	1.480201	0.000132
C36	C	-0.000477	1.980201	0.500132
C37	C	-0.731203	1.486334	0.000095
C38	C	-0.231203	1.986334	0.500095
C39	C	-0.602810	1.482926	0.000115
C40	C	-0.102810	1.982926	0.500115
C41	C	0.040432	1.492377	0.000101
C42	C	0.540432	1.992377	0.500101
C43	C	0.166453	1.489042	0.000085
C44	C	0.666453	1.989042	0.500085
C45	C	-0.160533	1.714177	0.000127
C46	C	0.339467	2.214177	0.500127
C47	C	-0.163869	1.853611	0.000128
C48	C	0.336131	2.353611	0.500128
N49	N	-0.167004	1.484612	0.346779
N50	N	0.332996	1.984612	0.846779
N51	N	-0.167011	1.484641	-0.346550
N52	N	0.332989	1.984641	0.153450
C53	C	-0.090545	1.569495	0.423433
C54	C	0.409455	2.069495	0.923433
C55	C	-0.090545	1.569507	0.576770
C56	C	0.409455	2.069507	1.076770
C57	C	-0.243473	1.399749	0.576785
C58	C	0.256527	1.899749	1.076785
C59	C	-0.243466	1.399732	0.423451
C60	C	0.256534	1.899732	0.923451
H61	H	-0.351543	0.839900	0.000133
H62	H	0.148457	1.339900	0.500133
Br63	Br	0.072749	1.172677	0.000115
Br64	Br	0.572749	1.672677	0.500115
Br65	Br	0.080149	0.863861	0.000146
Br66	Br	0.580149	1.363861	0.500146
Br67	Br	0.013227	1.684686	0.319383
Br68	Br	0.513227	2.184686	0.819383
H69	H	-0.028284	1.638624	0.639177
H70	H	0.471716	2.138624	1.139177
Br71	Br	-0.347242	1.284561	0.680846
Br72	Br	0.152758	1.784561	1.180846
H73	H	-0.305728	1.330604	0.361036
H74	H	0.194272	1.830604	0.861036
H75	H	-0.357246	1.077564	0.000092
H76	H	0.142754	1.577564	0.500092
