data_functionalizedCrystal
_audit_creation_method	'MofGen! by Chris Wilmer'
_symmetry_space_group_name_H-M	'P1'
_symmetry_Int_Tables_number	1
_symmetry_cell_setting	triclinic
loop_
_symmetry_equiv_pos_as_xyz
  x,y,z
_cell_length_a	15.944499
_cell_length_b	19.188930
_cell_length_c	14.421503
_cell_angle_alpha	89.999163
_cell_angle_beta	89.989779
_cell_angle_gamma	83.311195
loop_
_atom_site_label
_atom_site_type_symbol
_atom_site_fract_x
_atom_site_fract_y
_atom_site_fract_z
O1	O	1.114220	0.089866	-0.077178
O2	O	0.869623	0.101006	-0.077169
O3	O	0.998980	-0.006202	-0.077156
O4	O	0.984863	0.197075	-0.077191
O5	O	0.998959	-0.006186	0.077068
O6	O	0.869601	0.101022	0.077055
O7	O	1.114199	0.089882	0.077046
Cu8	Cu	0.991898	0.095454	0.091132
Cu9	Cu	0.991923	0.095435	-0.091255
O10	O	0.984841	0.197091	0.077032
C11	C	0.838319	0.100558	-0.000056
C12	C	0.745076	0.099191	-0.000052
C13	C	0.998512	-0.032206	-0.000041
C14	C	0.997140	-0.109714	-0.000033
C15	C	0.453307	0.161476	-0.000076
C16	C	0.514468	0.129091	-0.076112
C17	C	0.409458	0.094223	-0.000072
C18	C	0.514433	0.129088	0.075940
C19	C	0.574358	0.096667	-0.000060
C20	C	0.469391	0.061819	-0.076171
C21	C	0.469349	0.061826	0.075949
C22	C	0.530493	0.029392	-0.000105
C23	C	0.314463	0.092817	-0.000080
C24	C	0.669351	0.098068	-0.000060
C25	C	1.073042	-0.154454	-0.000031
C26	C	1.071753	-0.227281	-0.000046
C27	C	0.994557	-0.255365	-0.000044
C28	C	0.918644	-0.210616	-0.000051
C29	C	0.919936	-0.137790	-0.000045
N30	N	0.935542	-0.363508	0.052443
N31	N	0.934321	-0.432689	0.052440
C32	C	0.990661	-0.474783	-0.000063
N33	N	1.048282	-0.445083	-0.052550
N34	N	1.049506	-0.375895	-0.052543
C35	C	0.993148	-0.334331	-0.000051
C36	C	1.065171	-0.598490	-0.000078
C37	C	1.063879	-0.671318	-0.000099
C38	C	0.910768	-0.654652	-0.000094
C39	C	0.912062	-0.581825	-0.000083
C40	C	0.989266	-0.553749	-0.000071
C41	C	1.145502	0.090330	-0.000070
C42	C	1.238746	0.091698	-0.000080
C43	C	0.985309	0.223095	-0.000084
C44	C	0.986682	0.300603	-0.000098
N45	N	0.991886	0.095466	0.219413
N46	N	0.991942	0.095416	-0.219536
C47	C	0.932061	0.145017	0.469061
C48	C	1.007912	0.158561	0.530858
C49	C	0.991907	0.095450	0.408575
C50	C	0.916075	0.081923	0.530872
C51	C	0.991920	0.095435	0.591296
C52	C	1.067796	0.109024	0.469011
C53	C	0.975909	0.032359	0.469019
C54	C	1.051815	0.045876	0.530788
C55	C	0.991898	0.095460	0.303313
C56	C	0.991937	0.095425	0.696555
H57	H	0.419768	0.217289	-0.000160
H58	H	0.847913	-0.677517	-0.000097
O59	O	0.445850	0.027861	-0.152977
C60	C	0.517846	0.005430	-0.206702
H61	H	0.576344	0.000842	-0.160667
H62	H	0.510681	-0.047868	-0.238728
H63	H	0.524730	0.045177	-0.264154
H64	H	0.563879	-0.026471	-0.000136
O65	O	0.445481	0.028028	0.152744
C66	C	0.468177	0.063666	0.232757
H67	H	0.474706	0.120590	0.214530
H68	H	0.417253	0.061956	0.287937
H69	H	0.530923	0.037269	0.260504
O70	O	0.538386	0.163044	0.152560
C71	C	0.626773	0.163317	0.151947
H72	H	0.651196	0.156390	0.077832
H73	H	0.643243	0.215354	0.180743
H74	H	0.657352	0.118432	0.196770
O75	O	1.024188	0.222199	0.563165
C76	C	1.103569	0.236840	0.530318
H77	H	1.120431	0.205079	0.464752
H78	H	1.100903	0.295186	0.513998
H79	H	1.153563	0.222095	0.585641
O80	O	0.843709	-0.237976	-0.000171
C81	C	0.838385	-0.279588	-0.080057
H82	H	0.904662	-0.297731	-0.106687
H83	H	0.805076	-0.327273	-0.062095
H84	H	0.801114	-0.247409	-0.135987
O85	O	1.147985	-0.127101	-0.000154
C86	C	1.153336	-0.085489	-0.080039
H87	H	1.087069	-0.067341	-0.106666
H88	H	1.186647	-0.037808	-0.062076
H89	H	1.190621	-0.117669	-0.135972
H90	H	0.858125	-0.101363	-0.000046
O91	O	0.959876	-0.031289	0.436535
C92	C	1.028786	-0.060996	0.382735
H93	H	1.088058	-0.036990	0.403847
H94	H	1.038957	-0.120110	0.394627
H95	H	1.015064	-0.049908	0.306229
O96	O	1.145565	-0.270651	-0.000001
C97	C	1.213983	-0.230254	-0.000016
H98	H	1.192459	-0.175898	0.029182
H99	H	1.267138	-0.257126	0.044763
H100	H	1.237676	-0.225072	-0.074002
O101	O	0.871836	0.195152	0.436759
C102	C	0.889026	0.261576	0.468288
H103	H	0.959019	0.259598	0.485611
H104	H	0.872028	0.302305	0.411759
H105	H	0.849932	0.276536	0.532988
H106	H	1.131945	0.120523	0.441952
O107	O	1.137594	-0.714808	-0.000266
C108	C	1.141436	-0.757436	-0.080135
H109	H	1.098394	-0.730758	-0.135960
H110	H	1.209134	-0.765627	-0.106943
H111	H	1.119890	-0.810394	-0.062088
O112	O	1.112369	-0.004068	0.562885
C113	C	1.192169	0.010443	0.531173
H114	H	1.189552	0.068633	0.513921
H115	H	1.241331	-0.003621	0.587566
H116	H	1.210152	-0.021946	0.466393
O117	O	0.538348	0.163151	-0.152688
C118	C	0.498679	0.232771	-0.152414
H119	H	0.480272	0.248938	-0.078427
H120	H	0.544040	0.269200	-0.181019
H121	H	0.439649	0.236470	-0.197573
H122	H	1.128035	-0.575630	-0.000073
O123	O	0.838252	-0.538461	-0.000032
C124	C	0.769838	-0.578862	-0.000056
H125	H	0.791356	-0.633219	0.029135
H126	H	0.716666	-0.551995	0.044724
H127	H	0.746171	-0.584040	-0.074045
O128	O	0.839495	0.068358	0.563175
C129	C	0.776592	0.120766	0.531742
H130	H	0.799686	0.146343	0.466653
H131	H	0.716645	0.096150	0.515093
H132	H	0.762578	0.162180	0.588059
