data_functionalizedCrystal
_audit_creation_method	'MofGen! by Chris Wilmer'
_symmetry_space_group_name_H-M	'P1'
_symmetry_Int_Tables_number	1
_symmetry_cell_setting	triclinic
loop_
_symmetry_equiv_pos_as_xyz
  x,y,z
_cell_length_a	17.038272
_cell_length_b	16.109301
_cell_length_c	15.186229
_cell_angle_alpha	90.004940
_cell_angle_beta	90.002089
_cell_angle_gamma	92.713481
loop_
_atom_site_label
_atom_site_type_symbol
_atom_site_fract_x
_atom_site_fract_y
_atom_site_fract_z
O1	O	1.037364	-0.180538	-0.073123
O2	O	1.537364	0.319462	0.426877
O3	O	0.809734	-0.177671	-0.073149
O4	O	1.309734	0.322329	0.426851
O5	O	0.929802	-0.058518	-0.073127
O6	O	1.429802	0.441482	0.426873
O7	O	0.917296	-0.299692	-0.073146
O8	O	1.417296	0.200308	0.426854
O9	O	0.929794	-0.058516	0.073331
O10	O	1.429794	0.441484	0.573331
O11	O	0.809725	-0.177670	0.073308
O12	O	1.309725	0.322330	0.573308
O13	O	1.037356	-0.180536	0.073334
O14	O	1.537356	0.319464	0.573334
Zn15	Zn	0.923539	-0.179103	0.096574
Zn16	Zn	1.423539	0.320897	0.596574
Zn17	Zn	0.923550	-0.179105	-0.096390
Zn18	Zn	1.423550	0.320895	0.403610
O19	O	0.917287	-0.299690	0.073311
O20	O	1.417287	0.200310	0.573311
C21	C	0.780601	-0.175063	0.000076
C22	C	1.280601	0.324937	0.500076
C23	C	0.693808	-0.167284	0.000067
C24	C	1.193808	0.332716	0.500067
C25	C	0.643694	-0.238705	0.000062
C26	C	1.143694	0.261295	0.500062
C27	C	0.562143	-0.231391	0.000074
C28	C	1.062143	0.268609	0.500074
C29	C	0.530709	-0.152655	0.000086
C30	C	1.030709	0.347345	0.500086
C31	C	0.580830	-0.081229	0.000093
C32	C	1.080830	0.418771	0.500093
C33	C	0.662379	-0.088544	0.000087
C34	C	1.162379	0.411456	0.500087
C35	C	0.284951	-0.126813	0.000111
C36	C	0.784951	0.373187	0.500111
C37	C	0.203396	-0.119503	0.000115
C38	C	0.703396	0.380497	0.500115
C39	C	0.184714	-0.269665	0.000098
C40	C	0.684714	0.230335	0.500098
C41	C	0.266266	-0.276973	0.000086
C42	C	0.766266	0.223027	0.500086
C43	C	0.316380	-0.205547	0.000098
C44	C	0.816380	0.294453	0.500098
C45	C	0.447352	-0.145177	0.000096
C46	C	0.947352	0.354823	0.500096
C47	C	0.399736	-0.213026	0.000094
C48	C	0.899736	0.286974	0.500094
C49	C	0.929291	-0.027506	0.000102
C50	C	1.429291	0.472494	0.500102
C51	C	0.927773	0.064897	0.000103
C52	C	1.427773	0.564897	0.500103
C53	C	1.066488	-0.183145	0.000106
C54	C	1.566488	0.316855	0.500106
C55	C	1.153281	-0.190924	0.000110
C56	C	1.653281	0.309076	0.500110
C57	C	0.917798	-0.330702	0.000080
C58	C	1.417798	0.169298	0.500080
C59	C	0.919317	-0.423105	0.000073
C60	C	1.419317	0.076895	0.500073
N61	N	0.923537	-0.179101	0.228267
N62	N	1.423537	0.320899	0.728267
C63	C	0.995487	0.282360	0.000097
C64	C	1.495487	0.782360	0.500097
C65	C	0.994054	0.369183	0.000090
C66	C	1.494054	0.869183	0.500090
C67	C	0.851597	0.359425	0.000077
C68	C	1.351597	0.859425	0.500077
C69	C	0.853031	0.272605	0.000078
C70	C	1.353031	0.772605	0.500078
C71	C	0.924978	0.234075	0.000093
C72	C	1.424978	0.734075	0.500093
C73	C	0.922111	0.407718	0.000084
C74	C	1.422111	0.907718	0.500084
C75	C	0.920557	0.501854	0.000076
C76	C	1.420557	1.001854	0.500076
C77	C	0.926533	0.139932	0.000099
C78	C	1.426533	0.639932	0.500099
C79	C	0.976721	-0.126361	0.454000
C80	C	1.476721	0.373639	0.954000
C81	C	0.976723	-0.126360	0.546189
C82	C	1.476723	0.373640	1.046189
C83	C	0.870366	-0.231847	0.546178
C84	C	1.370366	0.268153	1.046178
C85	C	0.870361	-0.231843	0.453990
C86	C	1.370361	0.268157	0.953990
C87	C	0.923543	-0.179102	0.407903
C88	C	1.423543	0.320898	0.907903
C89	C	0.923550	-0.179104	0.592281
C90	C	1.423550	0.320896	1.092281
C91	C	0.923552	-0.179103	0.692237
C92	C	1.423552	0.320897	1.192237
C93	C	0.923540	-0.179102	0.307941
C94	C	1.423540	0.320898	0.807941
N95	N	0.923555	-0.179105	0.771918
N96	N	1.423555	0.320895	1.271918
H97	H	0.425333	-0.277132	0.000090
H98	H	0.925333	0.222868	0.500090
F99	F	0.777981	0.221212	0.000067
F100	F	1.277981	0.721212	0.500067
H101	H	0.703182	-0.030385	0.000091
H102	H	1.203182	0.469615	0.500091
H103	H	1.051470	0.408493	0.000091
H104	H	1.551470	0.908493	0.500091
H105	H	1.020024	-0.083414	0.416478
H106	H	1.520024	0.416586	0.916478
H107	H	0.827053	-0.274791	0.416456
H108	H	1.327053	0.225209	0.916456
F109	F	1.072060	0.241357	0.000112
F110	F	1.572060	0.741357	0.500112
H111	H	0.827067	-0.274789	0.583712
H112	H	1.327067	0.225211	1.083712
F113	F	0.299714	-0.360775	0.000069
F114	F	0.799714	0.139225	0.500069
H115	H	0.793020	0.390807	0.000067
H116	H	1.293020	0.890807	0.500067
H117	H	0.143903	-0.327816	0.000089
H118	H	0.643903	0.172184	0.500089
F119	F	1.033321	-0.070224	0.595245
F120	F	1.533321	0.429776	1.095245
H121	H	0.669280	-0.302820	0.000052
H122	H	1.169280	0.197180	0.500052
F123	F	0.169944	-0.035698	0.000143
F124	F	0.669944	0.464302	0.500143
H125	H	0.325745	-0.068652	0.000122
H126	H	0.825745	0.431348	0.500122
F127	F	0.508810	-0.307407	0.000065
F128	F	1.008810	0.192593	0.500065
H129	H	0.555230	-0.017121	0.000115
H130	H	1.055230	0.482879	0.500115
H131	H	0.421749	-0.081070	0.000130
H132	H	0.921749	0.418930	0.500130
