data_functionalizedCrystal
_audit_creation_method	'MofGen! by Chris Wilmer'
_symmetry_space_group_name_H-M	'P1'
_symmetry_Int_Tables_number	1
_symmetry_cell_setting	triclinic
loop_
_symmetry_equiv_pos_as_xyz
  x,y,z
_cell_length_a	27.731993
_cell_length_b	12.996460
_cell_length_c	14.519709
_cell_angle_alpha	90.001234
_cell_angle_beta	83.150269
_cell_angle_gamma	89.994634
loop_
_atom_site_label
_atom_site_type_symbol
_atom_site_fract_x
_atom_site_fract_y
_atom_site_fract_z
O1	O	0.641469	0.085292	0.109485
O2	O	0.500752	0.085355	0.126223
O3	O	0.574842	0.085313	-0.016451
O4	O	0.567380	0.085335	0.252159
O5	O	0.574832	-0.085821	-0.016443
O6	O	0.500743	-0.085778	0.126231
O7	O	0.641460	-0.085842	0.109494
Cu8	Cu	0.571100	-0.101436	0.117863
Cu9	Cu	0.571112	0.100950	0.117853
O10	O	0.567370	-0.085799	0.252167
C11	C	0.482738	-0.000204	0.125883
C12	C	0.429077	-0.000180	0.124849
N13	N	0.571096	-0.243783	0.117869
C14	C	0.045886	0.093055	0.117345
C15	C	0.247562	0.093083	0.121289
O16	O	0.273642	0.172420	0.121758
N17	N	0.272780	-0.000200	0.121787
C18	C	0.247576	-0.093497	0.121293
O19	O	0.273653	-0.172839	0.121797
C20	C	0.045901	-0.093524	0.117342
C21	C	0.020685	-0.000235	0.116854
C22	C	0.020671	0.186336	0.116856
C23	C	-0.029746	0.186328	0.115875
C24	C	-0.054947	0.093039	0.115384
C25	C	-0.029731	-0.000243	0.115873
C26	C	0.020698	-0.186819	0.116842
C27	C	-0.029724	-0.186818	0.115852
C28	C	-0.054939	-0.093529	0.115363
C29	C	-0.105348	-0.093540	0.114401
N30	N	-0.130566	-0.000257	0.113903
C31	C	-0.105365	0.093032	0.114394
C32	C	0.353458	-0.093476	0.123368
C33	C	0.403876	-0.093469	0.124357
C34	C	0.403860	0.093111	0.124352
C35	C	0.353440	0.093103	0.123369
C36	C	0.328240	-0.000193	0.122870
C37	C	-0.211243	0.093008	0.112336
C38	C	-0.261664	0.092992	0.111359
C39	C	-0.261643	-0.093587	0.111360
C40	C	-0.211227	-0.093572	0.112341
C41	C	-0.186028	-0.000265	0.112826
O42	O	-0.131459	-0.172836	0.113921
O43	O	-0.131449	0.172363	0.113869
C44	C	0.096303	0.093063	0.118326
C45	C	0.121518	-0.000219	0.118815
C46	C	0.096317	-0.093508	0.118324
C47	C	0.171936	-0.000212	0.119805
C48	C	0.197137	0.093077	0.120296
C49	C	0.171920	0.186360	0.119798
C50	C	0.121504	0.186352	0.118817
C51	C	0.121535	-0.186791	0.118822
C52	C	0.171951	-0.186775	0.119804
C53	C	0.197152	-0.093486	0.120295
C54	C	0.571098	-0.336889	0.117872
C55	C	0.571103	-0.453694	0.117865
C56	C	0.571109	-0.546792	0.117855
C57	C	0.571114	-0.663605	0.117850
C58	C	0.659474	-0.000280	0.109833
C59	C	0.713135	-0.000297	0.110867
C60	C	0.574489	-0.000254	-0.050800
C61	C	0.573447	-0.000254	-0.153163
N62	N	0.571120	0.243297	0.117839
C63	C	0.569611	-0.000226	-0.527991
C64	C	0.570676	-0.000234	-0.423702
C65	C	0.571529	-0.000241	-0.340580
C66	C	0.572594	-0.000247	-0.236285
C67	C	0.567723	-0.000230	0.286516
C68	C	0.568765	-0.000223	0.388879
H69	H	-0.282192	0.168962	0.110964
H70	H	0.192476	-0.262748	0.120209
H71	H	0.041220	-0.262785	0.117237
H72	H	-0.050239	-0.262792	0.115454
H73	H	-0.282171	-0.169541	0.110963
H74	H	-0.190696	-0.169535	0.112757
C75	C	0.166852	0.370795	0.119703
C76	C	0.199627	0.288907	0.120342
H77	H	0.183960	0.434098	0.120042
H78	H	0.150831	0.366916	0.065524
H79	H	0.143543	0.366915	0.173122
H80	H	0.222934	0.292784	0.066919
H81	H	0.215656	0.292788	0.174526
C82	C	-0.081079	0.294559	0.035452
C83	C	-0.057460	0.288872	0.115326
H84	H	-0.098188	0.357867	0.035116
H85	H	-0.057766	0.290676	-0.017950
H86	H	-0.103306	0.238999	0.035031
H87	H	-0.035230	0.344428	0.115744
H88	H	-0.080776	0.292765	0.168742
H89	H	0.424387	0.169071	0.124755
C90	C	0.358548	-0.277901	0.123486
C91	C	0.325762	-0.196037	0.122833
H92	H	0.341450	-0.341216	0.123165
H93	H	0.381855	-0.274020	0.070074
H94	H	0.374571	-0.273993	0.177672
H95	H	0.309742	-0.199940	0.068643
H96	H	0.302447	-0.199920	0.176249
H97	H	-0.190732	0.168987	0.112732
H98	H	0.041184	0.262308	0.117253
H99	H	0.101021	-0.262760	0.118418
H100	H	0.100978	0.262318	0.118419
H101	H	0.332913	0.169067	0.122971
C102	C	0.465951	-0.201713	0.046166
C103	C	0.431590	-0.196014	0.124904
H104	H	0.483061	-0.265021	0.046504
H105	H	0.449925	-0.197838	-0.008007
H106	H	0.488177	-0.146153	0.046612
H107	H	0.409362	-0.251571	0.124454
H108	H	0.447617	-0.199899	0.179090
