data_functionalizedCrystal
_audit_creation_method	'MofGen! by Chris Wilmer'
_symmetry_space_group_name_H-M	'P1'
_symmetry_Int_Tables_number	1
_symmetry_cell_setting	triclinic
loop_
_symmetry_equiv_pos_as_xyz
  x,y,z
_cell_length_a	21.395362
_cell_length_b	16.120444
_cell_length_c	21.395355
_cell_angle_alpha	87.118536
_cell_angle_beta	90.043940
_cell_angle_gamma	92.943436
loop_
_atom_site_label
_atom_site_type_symbol
_atom_site_fract_x
_atom_site_fract_y
_atom_site_fract_z
Zn1	Zn	0.945240	-0.331660	0.367218
Zn2	Zn	1.195240	-0.081660	0.617218
Zn3	Zn	1.445240	0.168340	0.867218
Zn4	Zn	1.695240	0.418340	1.117218
Zn5	Zn	0.939838	-0.471059	0.267751
Zn6	Zn	1.189838	-0.221059	0.517751
Zn7	Zn	1.439838	0.028941	0.767751
Zn8	Zn	1.689838	0.278941	1.017751
Zn9	Zn	0.840453	-0.331699	0.262421
Zn10	Zn	1.090453	-0.081699	0.512421
Zn11	Zn	1.340453	0.168301	0.762421
Zn12	Zn	1.590453	0.418301	1.012421
Zn13	Zn	0.835119	-0.471077	0.372456
Zn14	Zn	1.085119	-0.221077	0.622456
Zn15	Zn	1.335119	0.028923	0.872456
Zn16	Zn	1.585119	0.278923	1.122456
O17	O	0.890163	-0.401374	0.317462
O18	O	1.140163	-0.151374	0.567462
O19	O	1.390163	0.098626	0.817462
O20	O	1.640163	0.348626	1.067462
O21	O	1.032202	-0.350128	0.354062
O22	O	1.282202	-0.100128	0.604062
O23	O	1.532202	0.149872	0.854062
O24	O	1.782202	0.399872	1.104062
O25	O	0.926626	-0.452582	0.179366
O26	O	1.176626	-0.202582	0.429366
O27	O	1.426626	0.047418	0.679366
O28	O	1.676626	0.297418	0.929366
O29	O	0.858846	-0.215025	0.271900
O30	O	1.108846	0.034975	0.521900
O31	O	1.358846	0.284975	0.771900
O32	O	1.608846	0.534975	1.021900
O33	O	1.028234	-0.452544	0.280984
O34	O	1.278234	-0.202544	0.530984
O35	O	1.528234	0.047456	0.780984
O36	O	1.778234	0.297456	1.030984
O37	O	0.935833	-0.214996	0.348895
O38	O	1.185833	0.035004	0.598895
O39	O	1.435833	0.285004	0.848895
O40	O	1.685833	0.535004	1.098895
O41	O	0.853609	-0.350194	0.175451
O42	O	1.103609	-0.100194	0.425451
O43	O	1.353609	0.149806	0.675451
O44	O	1.603609	0.399806	0.925451
O45	O	0.752067	-0.350211	0.276979
O46	O	1.002067	-0.100211	0.526979
O47	O	1.252067	0.149789	0.776979
O48	O	1.502067	0.399789	1.026979
O49	O	0.849755	-0.452574	0.459439
O50	O	1.099755	-0.202574	0.709439
O51	O	1.349755	0.047426	0.959439
O52	O	1.599755	0.297426	1.209439
O53	O	0.748148	-0.452611	0.357821
O54	O	0.998148	-0.202611	0.607821
O55	O	1.248148	0.047389	0.857821
O56	O	1.498148	0.297389	1.107821
O57	O	0.930660	-0.350145	0.455591
O58	O	1.180660	-0.100145	0.705591
O59	O	1.430660	0.149855	0.955591
O60	O	1.680660	0.399855	1.205591
O61	O	0.921454	-0.587731	0.286062
O62	O	1.171454	-0.337731	0.536062
O63	O	1.421454	-0.087731	0.786062
O64	O	1.671454	0.162269	1.036062
O65	O	0.844518	-0.587743	0.362989
O66	O	1.094518	-0.337743	0.612989
O67	O	1.344518	-0.087743	0.862989
O68	O	1.594518	0.162257	1.112989
C69	C	0.727373	-0.401418	0.317391
C70	C	0.977373	-0.151418	0.567391
C71	C	1.227373	0.098582	0.817391
C72	C	1.477373	0.348582	1.067391
C73	C	0.657731	-0.401457	0.317376
C74	C	0.907731	-0.151457	0.567376
C75	C	1.157731	0.098543	0.817376
C76	C	1.407731	0.348543	1.067376
C77	C	0.622991	-0.454847	0.359413
C78	C	0.872991	-0.204847	0.609413
C79	C	1.122991	0.045153	0.859413
C80	C	1.372991	0.295153	1.109413
C81	C	0.557556	-0.454827	0.359440
C82	C	0.807556	-0.204827	0.609440
C83	C	1.057556	0.045173	0.859440
C84	C	1.307556	0.295173	1.109440
C85	C	0.526864	-0.401425	0.317419
C86	C	0.776864	-0.151425	0.567419
C87	C	1.026864	0.098575	0.817419
C88	C	1.276864	0.348575	1.067419
C89	C	0.561612	-0.348024	0.275379
C90	C	0.811612	-0.098024	0.525379
C91	C	1.061612	0.151976	0.775379
C92	C	1.311612	0.401976	1.025379
C93	C	0.627045	-0.348040	0.275357
C94	C	0.877045	-0.098040	0.525357
C95	C	1.127045	0.151960	0.775357
C96	C	1.377045	0.401960	1.025357
C97	C	0.423394	-0.394708	0.260758
C98	C	0.673394	-0.144708	0.510758
C99	C	0.923394	0.105292	0.760758
C100	C	1.173394	0.355292	1.010758
C101	C	0.357962	-0.394698	0.260779
C102	C	0.607962	-0.144698	0.510779
C103	C	0.857962	0.105302	0.760779
C104	C	1.107962	0.355302	1.010779
C105	C	0.325045	-0.401370	0.317486
C106	C	0.575045	-0.151370	0.567486
C107	C	0.825045	0.098630	0.817486
C108	C	1.075045	0.348630	1.067486
C109	C	0.357568	-0.408070	0.374175
C110	C	0.607568	-0.158070	0.624175
C111	C	0.857568	0.091930	0.874175
C112	C	1.107568	0.341930	1.124175
C113	C	0.423002	-0.408086	0.374153
C114	C	0.673002	-0.158086	0.624153
C115	C	0.923002	0.091914	0.874153
C116	C	1.173002	0.341914	1.124153
C117	C	0.455912	-0.401401	0.317438
C118	C	0.705912	-0.151401	0.567438
C119	C	0.955912	0.098599	0.817438
C120	C	1.205912	0.348599	1.067438
C121	C	0.219353	-0.454741	0.359556
C122	C	0.469353	-0.204741	0.609556
C123	C	0.719353	0.045259	0.859556
C124	C	0.969353	0.295259	1.109556
C125	C	0.153918	-0.454715	0.359584
C126	C	0.403918	-0.204715	0.609584
C127	C	0.653918	0.045285	0.859584
C128	C	0.903918	0.295285	1.109584
C129	C	0.157975	-0.347917	0.275518
C130	C	0.407975	-0.097917	0.525518
C131	C	0.657975	0.152083	0.775518
C132	C	0.907975	0.402083	1.025518
C133	C	0.223409	-0.347939	0.275495
C134	C	0.473409	-0.097939	0.525495
C135	C	0.723409	0.152061	0.775495
C136	C	0.973409	0.402061	1.025495
C137	C	0.254094	-0.401355	0.317514
C138	C	0.504094	-0.151355	0.567514
C139	C	0.754094	0.098645	0.817514
C140	C	1.004094	0.348645	1.067514
C141	C	0.881838	-0.617988	0.325686
C142	C	1.131838	-0.367988	0.575686
C143	C	1.381838	-0.117988	0.825686
C144	C	1.631838	0.132012	1.075686
C145	C	0.878334	-0.710657	0.329225
C146	C	1.128334	-0.460657	0.579225
C147	C	1.378334	-0.210657	0.829225
C148	C	1.628334	0.039343	1.079225
C149	C	0.908494	-0.921578	0.299236
C150	C	1.158494	-0.671578	0.549236
C151	C	1.408494	-0.421578	0.799236
C152	C	1.658494	-0.171578	1.049236
C153	C	0.871948	-0.880318	0.335694
C154	C	1.121948	-0.630318	0.585694
C155	C	1.371948	-0.380318	0.835694
C156	C	1.621948	-0.130318	1.085694
C157	C	0.875502	-0.785910	0.332094
C158	C	1.125502	-0.535910	0.582094
C159	C	1.375502	-0.285910	0.832094
C160	C	1.625502	-0.035910	1.082094
C161	C	0.904940	-1.015995	0.302835
C162	C	1.154940	-0.765995	0.552835
C163	C	1.404940	-0.515995	0.802835
C164	C	1.654940	-0.265995	1.052835
C165	C	1.053588	-0.401330	0.317533
C166	C	1.303588	-0.151330	0.567533
C167	C	1.553588	0.098670	0.817533
C168	C	1.803588	0.348670	1.067533
C169	C	1.123230	-0.401312	0.317564
C170	C	1.373230	-0.151312	0.567564
C171	C	1.623230	0.098688	0.817564
C172	C	1.873230	0.348688	1.067564
C173	C	0.890215	-0.401357	0.480884
C174	C	1.140215	-0.151357	0.730884
C175	C	1.390215	0.098643	0.980884
C176	C	1.640215	0.348643	1.230884
C177	C	0.890238	-0.401350	0.550525
C178	C	1.140238	-0.151350	0.800525
C179	C	1.390238	0.098650	1.050525
C180	C	1.640238	0.348650	1.300525
C181	C	0.898537	-0.183914	0.309219
C182	C	1.148537	0.066086	0.559219
C183	C	1.398537	0.316086	0.809219
C184	C	1.648537	0.566086	1.059219
C185	C	0.902106	-0.091245	0.305706
C186	C	1.152106	0.158755	0.555706
C187	C	1.402106	0.408755	0.805706
C188	C	1.652106	0.658755	1.055706
C189	C	0.890149	-0.401330	0.154672
C190	C	1.140149	-0.151330	0.404672
C191	C	1.390149	0.098670	0.654672
C192	C	1.640149	0.348670	0.904672
C193	C	0.890257	-0.401103	0.085023
C194	C	1.140257	-0.151103	0.335023
C195	C	1.390257	0.098897	0.585023
C196	C	1.640257	0.348897	0.835023
C197	C	0.932363	-0.348013	0.581236
C198	C	1.182363	-0.098013	0.831236
C199	C	1.432363	0.151987	1.081236
C200	C	1.682363	0.401987	1.331236
C201	C	0.932364	-0.347977	0.646670
C202	C	1.182364	-0.097977	0.896670
C203	C	1.432364	0.152023	1.146670
C204	C	1.682364	0.402023	1.396670
C205	C	0.890245	-0.401293	0.681392
C206	C	1.140245	-0.151293	0.931392
C207	C	1.390245	0.098707	1.181392
C208	C	1.640245	0.348707	1.431392
C209	C	0.848111	-0.454633	0.650673
C210	C	1.098111	-0.204633	0.900673
C211	C	1.348111	0.045367	1.150673
C212	C	1.598111	0.295367	1.400673
C213	C	0.848108	-0.454662	0.585240
C214	C	1.098108	-0.204662	0.835240
C215	C	1.348108	0.045338	1.085240
C216	C	1.598108	0.295338	1.335240
C217	C	0.882412	-0.476364	0.787915
C218	C	1.132412	-0.226364	1.037915
C219	C	1.382412	0.023636	1.287915
C220	C	1.632412	0.273636	1.537915
C221	C	0.882420	-0.476337	0.853347
C222	C	1.132420	-0.226337	1.103347
C223	C	1.382420	0.023663	1.353347
C224	C	1.632420	0.273663	1.603347
C225	C	0.890252	-0.401205	0.883209
C226	C	1.140252	-0.151205	1.133209
C227	C	1.390252	0.098795	1.383209
C228	C	1.640252	0.348795	1.633209
C229	C	0.898089	-0.326097	0.847631
C230	C	1.148089	-0.076097	1.097631
C231	C	1.398089	0.173903	1.347631
C232	C	1.648089	0.423903	1.597631
C233	C	0.898086	-0.326126	0.782198
C234	C	1.148086	-0.076126	1.032198
C235	C	1.398086	0.173874	1.282198
C236	C	1.648086	0.423874	1.532198
C237	C	0.890244	-0.401268	0.752343
C238	C	1.140244	-0.151268	1.002343
C239	C	1.390244	0.098732	1.252343
C240	C	1.640244	0.348732	1.502343
C241	C	0.932381	-0.347825	0.984870
C242	C	1.182381	-0.097825	1.234870
C243	C	1.432381	0.152175	1.484870
C244	C	1.682381	0.402175	1.734870
C245	C	0.932377	-0.347787	1.050306
C246	C	1.182377	-0.097787	1.300306
C247	C	1.432377	0.152213	1.550306
C248	C	1.682377	0.402213	1.800306
C249	C	0.848127	-0.454451	1.054308
C250	C	1.098127	-0.204451	1.304308
C251	C	1.348127	0.045549	1.554308
C252	C	1.598127	0.295549	1.804308
C253	C	0.848128	-0.454481	0.988874
C254	C	1.098128	-0.204481	1.238874
C255	C	1.348128	0.045519	1.488874
C256	C	1.598128	0.295519	1.738874
C257	C	0.890258	-0.401169	0.954159
C258	C	1.140258	-0.151169	1.204159
C259	C	1.390258	0.098831	1.454159
C260	C	1.640258	0.348831	1.704159
H261	H	0.529265	-0.498303	0.393674
H262	H	0.779265	-0.248303	0.643674
H263	H	1.029265	0.001697	0.893674
H264	H	1.279265	0.251697	1.143674
F265	F	0.803270	-0.511433	0.552555
F266	F	1.053270	-0.261433	0.802555
F267	F	1.303270	-0.011433	1.052555
F268	F	1.553270	0.238567	1.302555
F269	F	0.322541	-0.415168	0.434532
F270	F	0.572541	-0.165168	0.684532
F271	F	0.822541	0.084832	0.934532
F272	F	1.072541	0.334832	1.184532
F273	F	0.458421	-0.387608	0.200398
F274	F	0.708421	-0.137608	0.450398
F275	F	0.958421	0.112392	0.700398
F276	F	1.208421	0.362392	0.950398
H277	H	0.813828	-0.497919	0.963870
H278	H	1.063828	-0.247919	1.213870
H279	H	1.313828	0.002081	1.463870
H280	H	1.563828	0.252081	1.713870
H281	H	0.966667	-0.304539	0.671679
H282	H	1.216667	-0.054539	0.921679
H283	H	1.466667	0.195461	1.171679
H284	H	1.716667	0.445461	1.421679
H285	H	0.655331	-0.304561	0.241125
H286	H	0.905331	-0.054561	0.491125
H287	H	1.155331	0.195439	0.741125
H288	H	1.405331	0.445439	0.991125
H289	H	0.966668	-0.304601	0.552975
H290	H	1.216668	-0.054601	0.802975
H291	H	1.466668	0.195399	1.052975
H292	H	1.716668	0.445399	1.302975
H293	H	0.966680	-0.304349	1.075308
H294	H	1.216680	-0.054349	1.325308
H295	H	1.466680	0.195651	1.575308
H296	H	1.716680	0.445651	1.825308
F297	F	0.952875	-0.875078	0.254906
F298	F	1.202875	-0.625078	0.504906
F299	F	1.452875	-0.375078	0.754906
F300	F	1.702875	-0.125078	1.004906
H301	H	0.904468	-0.264917	0.871943
H302	H	1.154468	-0.014917	1.121943
H303	H	1.404468	0.235083	1.371943
H304	H	1.654468	0.485083	1.621943
H305	H	0.837991	-0.915896	0.369611
H306	H	1.087991	-0.665896	0.619611
H307	H	1.337991	-0.415896	0.869611
H308	H	1.587991	-0.165896	1.119611
H309	H	0.904465	-0.264970	0.753233
H310	H	1.154465	-0.014970	1.003233
H311	H	1.404465	0.235030	1.253233
H312	H	1.654465	0.485030	1.503233
H313	H	0.876043	-0.537494	0.882309
H314	H	1.126043	-0.287494	1.132309
H315	H	1.376043	-0.037494	1.382309
H316	H	1.626043	0.212506	1.632309
H317	H	0.966682	-0.304410	0.956604
H318	H	1.216682	-0.054410	1.206604
H319	H	1.466682	0.195590	1.456604
H320	H	1.716682	0.445590	1.706604
F321	F	0.803296	-0.511188	1.091257
F322	F	1.053296	-0.261188	1.341257
F323	F	1.303296	-0.011188	1.591257
F324	F	1.553296	0.238812	1.841257
F325	F	0.874091	-0.556337	0.756140
F326	F	1.124091	-0.306337	1.006140
F327	F	1.374091	-0.056337	1.256140
F328	F	1.624091	0.193663	1.506140
F329	F	0.803283	-0.511373	0.687627
F330	F	1.053283	-0.261373	0.937627
F331	F	1.303283	-0.011373	1.187627
F332	F	1.553283	0.238627	1.437627
H333	H	0.647970	-0.498342	0.393629
H334	H	0.897970	-0.248342	0.643629
H335	H	1.147970	0.001658	0.893629
H336	H	1.397970	0.251658	1.143629
H337	H	0.449479	-0.413539	0.420311
H338	H	0.699479	-0.163539	0.670311
H339	H	0.949479	0.086461	0.920311
H340	H	1.199479	0.336461	1.170311
H341	H	0.244339	-0.498232	0.393774
H342	H	0.494339	-0.248232	0.643774
H343	H	0.744339	0.001768	0.893774
H344	H	0.994339	0.251768	1.143774
H345	H	0.125633	-0.498190	0.393820
H346	H	0.375633	-0.248190	0.643820
H347	H	0.625633	0.001810	0.893820
H348	H	0.875633	0.251810	1.143820
H349	H	0.132986	-0.304432	0.241306
H350	H	0.382986	-0.054432	0.491306
H351	H	0.632986	0.195568	0.741306
H352	H	0.882986	0.445568	0.991306
H353	H	0.331486	-0.389248	0.214620
H354	H	0.581486	-0.139248	0.464620
H355	H	0.831486	0.110752	0.714620
H356	H	1.081486	0.360752	0.964620
F357	F	0.528946	-0.291186	0.230660
F358	F	0.778946	-0.041186	0.480660
F359	F	1.028946	0.208814	0.730660
F360	F	1.278946	0.458814	0.980660
F361	F	0.260383	-0.291114	0.230751
F362	F	0.510383	-0.041114	0.480751
F363	F	0.760383	0.208886	0.730751
F364	F	1.010383	0.458886	0.980751
