data_functionalizedCrystal
_audit_creation_method	'MofGen! by Chris Wilmer'
_symmetry_space_group_name_H-M	'P1'
_symmetry_Int_Tables_number	1
_symmetry_cell_setting	triclinic
loop_
_symmetry_equiv_pos_as_xyz
  x,y,z
_cell_length_a	19.288864
_cell_length_b	10.654550
_cell_length_c	18.366186
_cell_angle_alpha	89.994973
_cell_angle_beta	89.977106
_cell_angle_gamma	83.810575
loop_
_atom_site_label
_atom_site_type_symbol
_atom_site_fract_x
_atom_site_fract_y
_atom_site_fract_z
O1	O	0.922379	0.156657	-0.060782
O2	O	0.720256	0.177789	-0.060732
O3	O	0.825965	-0.015616	-0.060755
O4	O	0.816670	0.350062	-0.060758
O5	O	0.825946	-0.015625	0.060344
O6	O	0.720238	0.177780	0.060368
O7	O	0.922360	0.156647	0.060318
Zn8	Zn	0.821296	0.167212	0.079570
Zn9	Zn	0.821320	0.167224	-0.079984
O10	O	0.816652	0.350052	0.060341
C11	C	0.694366	0.177105	-0.000176
C12	C	0.617249	0.175063	-0.000156
C13	C	0.573296	0.288545	-0.000169
C14	C	0.500836	0.286627	-0.000177
C15	C	0.472333	0.171222	-0.000187
C16	C	0.516296	0.057725	-0.000171
C17	C	0.588754	0.059646	-0.000155
C18	C	0.363484	0.080503	-0.042637
C19	C	0.291027	0.078587	-0.042657
C20	C	0.248849	0.165292	-0.000231
C21	C	0.279136	0.253935	0.042205
C22	C	0.351594	0.255855	0.042221
C23	C	0.393766	0.169126	-0.000203
C24	C	0.126326	0.276702	-0.000251
C25	C	0.053865	0.274779	-0.000255
C26	C	0.069327	0.045875	-0.000256
C27	C	0.141786	0.047800	-0.000245
C28	C	0.170281	0.163217	-0.000246
C29	C	0.825273	-0.062404	-0.000206
C30	C	0.823231	-0.201803	-0.000208
C31	C	0.885471	-0.282621	-0.000221
C32	C	0.883548	-0.413601	-0.000226
C33	C	0.757141	-0.382932	-0.000201
C34	C	0.759065	-0.251955	-0.000202
C35	C	0.949637	-0.232470	-0.000228
C36	C	1.011882	-0.313290	-0.000240
C37	C	1.009959	-0.444269	-0.000245
C38	C	0.945792	-0.494429	-0.000237
C39	C	0.948250	0.157332	-0.000240
C40	C	1.025367	0.159373	-0.000264
C41	C	0.817344	0.396840	-0.000209
C42	C	0.819385	0.536240	-0.000212
N43	N	0.821285	0.167203	0.188461
N44	N	0.821337	0.167224	-0.188875
C45	C	0.868108	0.081605	0.226551
C46	C	0.868113	0.081599	0.302779
C47	C	0.821300	0.167213	0.340914
C48	C	0.774468	0.252817	0.302815
C49	C	0.774461	0.252812	0.226588
C50	C	0.812752	0.281634	0.461675
C51	C	0.812764	0.281641	0.537899
C52	C	0.821320	0.167229	0.576021
C53	C	0.829879	0.052804	0.537909
C54	C	0.829871	0.052799	0.461682
C55	C	0.821303	0.167228	0.423569
C56	C	0.868151	0.081618	0.696766
C57	C	0.868151	0.081610	0.772995
C58	C	0.774509	0.252840	0.773030
C59	C	0.774507	0.252836	0.696802
C60	C	0.821331	0.167226	0.658675
H61	H	0.376250	0.328027	0.076776
C62	C	0.723546	0.345560	0.185189
C63	C	0.680696	0.278861	0.141464
C64	C	0.633781	0.364261	0.103323
H65	H	0.748699	0.397752	0.155379
H66	H	0.695624	0.396532	0.218791
H67	H	0.708615	0.227911	0.107866
H68	H	0.655527	0.226674	0.171256
H69	H	0.605859	0.415234	0.136925
H70	H	0.658940	0.416449	0.073517
H71	H	0.604698	0.319019	0.073656
H72	H	0.951210	-0.125822	-0.000222
H73	H	0.149528	0.370681	-0.000241
H74	H	0.704899	-0.423784	-0.000194
C75	C	0.691438	-0.164345	-0.000300
C76	C	0.652843	-0.186966	-0.062586
C77	C	0.590538	-0.106294	-0.062702
H78	H	0.701678	-0.079116	-0.000342
H79	H	0.665106	-0.179524	0.041913
H80	H	0.679170	-0.171777	-0.104789
H81	H	0.642585	-0.272179	-0.062558
H82	H	0.564205	-0.121473	-0.020488
H83	H	0.600785	-0.021070	-0.062741
H84	H	0.564341	-0.121639	-0.104958
H85	H	0.493084	-0.036239	-0.000189
H86	H	0.736381	0.322543	0.665787
C87	C	0.723646	0.345592	0.814516
C88	C	0.680826	0.278892	0.858317
C89	C	0.633965	0.364292	0.896555
H90	H	0.695693	0.396611	0.780993
H91	H	0.748864	0.397739	0.844278
H92	H	0.655611	0.226768	0.828558
H93	H	0.708760	0.227878	0.891854
H94	H	0.659182	0.416438	0.926317
H95	H	0.606016	0.415306	0.863027
H96	H	0.604910	0.319049	0.926284
H97	H	0.944232	-0.601083	-0.000248
C98	C	0.233443	0.348397	0.088163
C99	C	0.242899	0.471110	0.065954
C100	C	0.200839	0.558214	0.108258
H101	H	0.246019	0.337879	0.137964
H102	H	0.185917	0.334771	0.082111
H103	H	0.290414	0.484731	0.072012
H104	H	0.230319	0.481669	0.016159
H105	H	0.153313	0.544588	0.102206
H106	H	0.213418	0.547684	0.158057
H107	H	0.207244	0.641484	0.093191
H108	H	0.836838	-0.040369	0.430654
C109	C	1.081615	-0.259079	-0.000291
C110	C	1.135711	-0.357896	-0.000327
C111	C	1.199960	-0.308010	-0.000386
H112	H	1.085087	-0.208650	0.041927
H113	H	1.085036	-0.208651	-0.042538
H114	H	1.132292	-0.408303	0.041916
H115	H	1.132262	-0.408334	-0.042542
H116	H	1.203380	-0.257581	-0.042633
H117	H	1.203424	-0.257580	0.041833
H118	H	1.236671	-0.375048	-0.000417
C119	C	0.918969	-0.011492	0.185288
C120	C	0.959964	-0.086480	0.234968
C121	C	1.006817	-0.172267	0.196982
H122	H	0.948160	0.033398	0.155529
H123	H	0.893749	-0.063728	0.155588
H124	H	0.985183	-0.034250	0.264656
H125	H	0.930793	-0.131397	0.264729
H126	H	0.981596	-0.224503	0.167282
H127	H	1.036002	-0.127367	0.167224
H128	H	1.034633	-0.223164	0.230684
H129	H	0.177574	-0.044609	-0.000239
C130	C	0.918991	-0.011140	0.344235
C131	C	0.961816	0.055572	0.387980
C132	C	1.008687	-0.029817	0.426182
H133	H	0.946940	-0.062160	0.310691
H134	H	0.893781	-0.063287	0.374031
H135	H	0.987023	0.107697	0.358186
H136	H	0.933886	0.106587	0.421538
H137	H	0.983478	-0.081963	0.455979
H138	H	1.036632	-0.080832	0.392633
H139	H	1.037745	0.015434	0.455873
C140	C	0.723530	0.345625	0.344177
C141	C	0.655182	0.325542	0.325690
C142	C	0.608235	0.410998	0.363786
H143	H	0.731376	0.429460	0.331706
H144	H	0.730196	0.333364	0.395038
H145	H	0.648520	0.337814	0.274841
H146	H	0.647315	0.241725	0.338164
H147	H	0.614900	0.398737	0.414646
H148	H	0.616087	0.494827	0.351311
H149	H	0.561856	0.397376	0.351253
H150	H	0.018079	0.367194	-0.000261
H151	H	0.596492	0.382526	-0.000171
H152	H	0.836846	-0.040361	0.568946
H153	H	0.046120	-0.048091	-0.000309
C154	C	0.258282	-0.017789	-0.088748
C155	C	0.310728	-0.093346	-0.125876
C156	C	0.280593	-0.182155	-0.168334
H157	H	0.227112	0.024720	-0.122931
H158	H	0.233442	-0.069309	-0.058176
H159	H	0.335556	-0.041833	-0.156446
H160	H	0.341901	-0.135884	-0.091711
H161	H	0.255753	-0.233675	-0.137761
H162	H	0.249423	-0.139635	-0.202512
H163	H	0.316173	-0.233438	-0.193524
H164	H	0.906278	0.011900	0.804009
H165	H	0.906276	0.011905	0.665722
H166	H	0.805800	0.374812	0.568925
C167	C	0.409351	-0.013436	-0.088756
C168	C	0.446647	0.051988	-0.138938
C169	C	0.488914	-0.034502	-0.181425
H170	H	0.381023	-0.066534	-0.114105
H171	H	0.441064	-0.063377	-0.058185
H172	H	0.414938	0.101907	-0.169506
H173	H	0.474989	0.105080	-0.113609
H174	H	0.520627	-0.084443	-0.150854
H175	H	0.460580	-0.087595	-0.206769
H176	H	0.514229	0.009876	-0.215474
C177	C	0.803497	0.405998	0.420421
C178	C	0.796034	0.506203	0.470110
C179	C	0.787520	0.620780	0.432135
H180	H	0.763064	0.408918	0.390699
H181	H	0.843227	0.412835	0.390683
H182	H	0.756307	0.499368	0.499835
H183	H	0.836460	0.503324	0.499833
H184	H	0.827250	0.627617	0.402397
H185	H	0.747087	0.623687	0.402415
H186	H	0.782461	0.688783	0.465843
H187	H	0.465043	0.379040	-0.000185
H188	H	0.624542	-0.032767	-0.000146
H189	H	1.060642	-0.510069	-0.000262
