data_functionalizedCrystal
_audit_creation_method	'MofGen! by Chris Wilmer'
_symmetry_space_group_name_H-M	'P1'
_symmetry_Int_Tables_number	1
_symmetry_cell_setting	triclinic
loop_
_symmetry_equiv_pos_as_xyz
  x,y,z
_cell_length_a	13.897447
_cell_length_b	25.639242
_cell_length_c	13.897441
_cell_angle_alpha	89.971480
_cell_angle_beta	89.971646
_cell_angle_gamma	90.015058
loop_
_atom_site_label
_atom_site_type_symbol
_atom_site_fract_x
_atom_site_fract_y
_atom_site_fract_z
Zn1	Zn	-0.384108	0.799328	-0.545645
Zn2	Zn	-0.545427	0.799271	-0.384350
Zn3	Zn	-0.384135	0.711894	-0.384335
Zn4	Zn	-0.545351	0.711878	-0.545575
O5	O	-0.464755	0.755593	-0.464976
O6	O	-0.405529	0.872485	-0.524284
O7	O	-0.524075	0.787663	-0.249366
O8	O	-0.249150	0.723523	-0.405757
O9	O	-0.524049	0.872443	-0.405782
O10	O	-0.249130	0.787760	-0.524270
O11	O	-0.405575	0.723468	-0.249356
O12	O	-0.405500	0.638727	-0.405689
O13	O	-0.523918	0.723496	-0.680566
O14	O	-0.523944	0.638715	-0.524150
O15	O	-0.405454	0.787744	-0.680617
O16	O	-0.680399	0.787647	-0.405713
O17	O	-0.680342	0.723440	-0.524165
C18	C	-0.464717	0.619750	-0.464911
C19	C	-0.464724	0.561636	-0.464906
C20	C	-0.715370	0.755550	-0.464954
C21	C	-0.822584	0.755580	-0.464977
C22	C	-0.909653	0.755605	-0.464999
C23	C	-1.018886	0.755642	-0.465023
C24	C	-0.526532	0.201276	-0.526601
C25	C	-0.526538	0.146671	-0.526616
O26	O	-0.579042	0.118437	-0.579016
N27	N	-0.464782	0.119353	-0.465039
C28	C	-0.403009	0.146643	-0.403450
O29	O	-0.350480	0.118393	-0.351076
C30	C	-0.402999	0.201246	-0.403440
C31	C	-0.464766	0.228561	-0.465014
C32	C	-0.588294	0.228591	-0.588171
C33	C	-0.588289	0.283191	-0.588154
C34	C	-0.526523	0.310477	-0.526567
C35	C	-0.464761	0.283162	-0.464998
C36	C	-0.341222	0.228534	-0.341857
C37	C	-0.341216	0.283141	-0.341853
C38	C	-0.402984	0.310456	-0.403427
C39	C	-0.402990	0.365048	-0.403394
N40	N	-0.464746	0.392366	-0.464971
C41	C	-0.526513	0.365080	-0.526558
C42	C	-0.403033	0.031972	-0.403476
C43	C	-0.403048	-0.022630	-0.403480
C44	C	-0.526576	-0.022598	-0.526648
C45	C	-0.526566	0.032006	-0.526638
C46	C	-0.464790	0.059290	-0.465053
C47	C	-0.526498	0.479745	-0.526517
C48	C	-0.526491	0.534351	-0.526492
C49	C	-0.402959	0.534313	-0.403329
C50	C	-0.402970	0.479713	-0.403350
C51	C	-0.464743	0.452430	-0.464952
O52	O	-0.350510	0.393317	-0.351024
O53	O	-0.579023	0.393337	-0.578932
C54	C	-0.213162	0.755649	-0.465020
C55	C	-0.105948	0.755674	-0.465038
C56	C	-0.464674	0.755625	-0.716569
C57	C	-0.464640	0.755638	-0.823783
C58	C	-0.464794	0.891966	-0.465043
C59	C	-0.464811	0.950080	-0.465071
C60	C	-0.464613	0.755649	-0.910853
C61	C	-0.464569	0.755664	-1.020086
C62	C	-0.464766	0.755591	-0.214362
C63	C	-0.464529	0.755678	-0.107149
H64	H	-0.576793	0.556588	-0.576634
H65	H	-0.638592	0.206381	-0.638327
Br66	Br	-0.672116	0.320253	-0.671727
Br67	Br	-0.610333	0.442727	-0.610121
H68	H	-0.576861	0.054242	-0.576779
Br69	Br	-0.257384	0.191478	-0.258292
H70	H	-0.290904	0.305354	-0.291708
Br71	Br	-0.319192	0.068996	-0.319882
H72	H	-0.576867	-0.044824	-0.576798
H73	H	-0.352676	0.457472	-0.353209
H74	H	-0.352760	-0.044866	-0.353331
H75	H	-0.352674	0.556539	-0.353184
