data_functionalizedCrystal
_audit_creation_method	'MofGen! by Chris Wilmer'
_symmetry_space_group_name_H-M	'P1'
_symmetry_Int_Tables_number	1
_symmetry_cell_setting	triclinic
loop_
_symmetry_equiv_pos_as_xyz
  x,y,z
_cell_length_a	16.120484
_cell_length_b	11.169417
_cell_length_c	11.169417
_cell_angle_alpha	89.997279
_cell_angle_beta	87.115538
_cell_angle_gamma	87.075575
loop_
_atom_site_label
_atom_site_type_symbol
_atom_site_fract_x
_atom_site_fract_y
_atom_site_fract_z
Zn1	Zn	-0.332072	-1.810365	0.702782
Zn2	Zn	-0.471457	-1.800090	0.512248
Zn3	Zn	-0.332057	-1.609718	0.502109
Zn4	Zn	-0.471445	-1.599428	0.712886
O5	O	-0.401758	-1.704900	0.607506
O6	O	-0.350572	-1.976950	0.677522
O7	O	-0.452965	-1.774843	0.342954
O8	O	-0.215392	-1.644940	0.520257
O9	O	-0.452978	-1.969402	0.537538
O10	O	-0.215402	-1.792355	0.667690
O11	O	-0.350548	-1.634977	0.335504
O12	O	-0.350536	-1.440404	0.530054
O13	O	-0.452957	-1.627403	0.879495
O14	O	-0.452944	-1.432844	0.684911
O15	O	-0.350560	-1.782377	0.872072
O16	O	-0.588123	-1.764865	0.547335
O17	O	-0.588114	-1.617440	0.694743
C18	C	-0.401738	-1.393077	0.607479
C19	C	-0.401749	-1.259676	0.607498
C20	C	-0.618369	-1.688954	0.623262
C21	C	-0.711036	-1.682242	0.630042
C22	C	-0.880700	-1.669994	0.642446
C23	C	-0.921975	-1.740021	0.572586
C24	C	-1.016382	-1.733206	0.579487
C25	C	-0.786285	-1.676807	0.635546
C26	C	-0.184301	-1.720941	0.591715
C27	C	-0.091634	-1.727777	0.584986
C28	C	-0.401759	-1.704889	0.920549
C29	C	-0.401760	-1.704884	1.053949
C30	C	-0.401771	-1.017941	0.607524
C31	C	-0.401759	-1.151342	0.607506
C32	C	-0.401772	-1.704896	1.295682
C33	C	-0.401761	-1.704887	1.162282
H34	H	-0.886409	-1.805090	0.507592
F35	F	-0.927183	-1.584947	0.727390
