data_functionalizedCrystal
_audit_creation_method	'MofGen! by Chris Wilmer'
_symmetry_space_group_name_H-M	'P1'
_symmetry_Int_Tables_number	1
_symmetry_cell_setting	triclinic
loop_
_symmetry_equiv_pos_as_xyz
  x,y,z
_cell_length_a	19.077713
_cell_length_b	11.169417
_cell_length_c	11.169409
_cell_angle_alpha	89.978317
_cell_angle_beta	87.738419
_cell_angle_gamma	92.268232
loop_
_atom_site_label
_atom_site_type_symbol
_atom_site_fract_x
_atom_site_fract_y
_atom_site_fract_z
Zn1	Zn	-0.280142	-1.853985	0.697761
Zn2	Zn	-0.397854	-1.861867	0.505128
Zn3	Zn	-0.280181	-1.653273	0.497092
Zn4	Zn	-0.397793	-1.661267	0.705763
O5	O	-0.338993	-1.757598	0.601436
O6	O	-0.295766	-2.022981	0.672223
O7	O	-0.382286	-1.834150	0.336115
O8	O	-0.181693	-1.673254	0.516999
O9	O	-0.382249	-2.028772	0.530696
O10	O	-0.181664	-1.820716	0.664430
O11	O	-0.295833	-1.680897	0.330211
O12	O	-0.295773	-1.486383	0.524758
O13	O	-0.382144	-1.686878	0.872648
O14	O	-0.382182	-1.492256	0.678067
O15	O	-0.295707	-1.828467	0.866770
O16	O	-0.496329	-1.841901	0.538455
O17	O	-0.496284	-1.694521	0.685860
C18	C	-0.338976	-1.445772	0.601409
C19	C	-0.338985	-1.312373	0.601428
C20	C	-0.521842	-1.769966	0.613924
C21	C	-0.600066	-1.775367	0.619307
C22	C	-1.040375	-1.814100	0.657876
C23	C	-0.966876	-1.809012	0.652808
C24	C	-0.930207	-1.729754	0.573463
C25	C	-0.967042	-1.655587	0.499173
C26	C	-1.040540	-1.660682	0.504236
C27	C	-0.710399	-1.706296	0.550079
C28	C	-0.636896	-1.701204	0.545025
C29	C	-0.636735	-1.854631	0.698659
C30	C	-0.710234	-1.859714	0.703720
C31	C	-0.747063	-1.785552	0.629425
N32	N	-0.855079	-1.724548	0.568284
N33	N	-0.822190	-1.790764	0.634599
C34	C	-0.155429	-1.745214	0.588926
C35	C	-0.077205	-1.739937	0.583594
C36	C	-0.338914	-1.757685	0.914473
C37	C	-0.338881	-1.757722	1.047871
C38	C	-0.339004	-1.070641	0.601454
C39	C	-0.338994	-1.204040	0.601436
C40	C	-0.339020	-1.757577	0.289613
C41	C	-0.338855	-1.757759	0.156202
H42	H	-1.070225	-1.878629	0.722500
H43	H	-0.740085	-1.924268	0.768317
F44	F	-0.749586	-1.627359	0.471013
F45	F	-0.927682	-1.887947	0.731870
H46	H	-0.937182	-1.591057	0.434562
H47	H	-1.070526	-1.600290	0.443747
H48	H	-0.606742	-1.915012	0.759145
F49	F	-0.597872	-1.616851	0.460562
