data_functionalizedCrystal
_audit_creation_method	'MofGen! by Chris Wilmer'
_symmetry_space_group_name_H-M	'P1'
_symmetry_Int_Tables_number	1
_symmetry_cell_setting	triclinic
loop_
_symmetry_equiv_pos_as_xyz
  x,y,z
_cell_length_a	18.101398
_cell_length_b	21.295417
_cell_length_c	18.101390
_cell_angle_alpha	89.962939
_cell_angle_beta	89.975319
_cell_angle_gamma	90.025773
loop_
_atom_site_label
_atom_site_type_symbol
_atom_site_fract_x
_atom_site_fract_y
_atom_site_fract_z
Zn1	Zn	1.132127	-0.250665	-0.418817
Zn2	Zn	1.382127	-0.000665	-0.168817
Zn3	Zn	1.632127	0.249335	0.081183
Zn4	Zn	1.882127	0.499335	0.331183
Zn5	Zn	1.132023	-0.355945	-0.294967
Zn6	Zn	1.382023	-0.105945	-0.044967
Zn7	Zn	1.632023	0.144055	0.205033
Zn8	Zn	1.882023	0.394055	0.455033
Zn9	Zn	1.008285	-0.250685	-0.294979
Zn10	Zn	1.258285	-0.000685	-0.044979
Zn11	Zn	1.508285	0.249315	0.205021
Zn12	Zn	1.758285	0.499315	0.455021
Zn13	Zn	1.008238	-0.355891	-0.418755
Zn14	Zn	1.258238	-0.105891	-0.168755
Zn15	Zn	1.508238	0.144109	0.081245
Zn16	Zn	1.758238	0.394109	0.331245
O17	O	1.070168	-0.303296	-0.356880
O18	O	1.320168	-0.053296	-0.106880
O19	O	1.570168	0.196704	0.143120
O20	O	1.820168	0.446704	0.393120
O21	O	1.235746	-0.264644	-0.402409
O22	O	1.485746	-0.014644	-0.152409
O23	O	1.735746	0.235356	0.097591
O24	O	1.985746	0.485356	0.347591
O25	O	1.115585	-0.342013	-0.191335
O26	O	1.365585	-0.092013	0.058665
O27	O	1.615585	0.157987	0.308665
O28	O	1.865585	0.407987	0.558665
O29	O	1.024776	-0.162593	-0.311437
O30	O	1.274776	0.087407	-0.061437
O31	O	1.524776	0.337407	0.188563
O32	O	1.774776	0.587407	0.438563
O33	O	1.235670	-0.341993	-0.311417
O34	O	1.485670	-0.091993	-0.061417
O35	O	1.735670	0.158007	0.188583
O36	O	1.985670	0.408007	0.438583
O37	O	1.115762	-0.162578	-0.402421
O38	O	1.365762	0.087422	-0.152421
O39	O	1.615762	0.337422	0.097579
O40	O	1.865762	0.587422	0.347579
O41	O	1.024675	-0.264679	-0.191344
O42	O	1.274675	-0.014679	0.058656
O43	O	1.524675	0.235321	0.308656
O44	O	1.774675	0.485321	0.558656
O45	O	0.904646	-0.264627	-0.311377
O46	O	1.154646	-0.014627	-0.061377
O47	O	1.404646	0.235373	0.188623
O48	O	1.654646	0.485373	0.438623
O49	O	1.024695	-0.341902	-0.522397
O50	O	1.274695	-0.091902	-0.272397
O51	O	1.524695	0.158098	-0.022397
O52	O	1.774695	0.408098	0.227603
O53	O	0.904611	-0.341921	-0.402315
O54	O	1.154611	-0.091921	-0.152315
O55	O	1.404611	0.158079	0.097685
O56	O	1.654611	0.408079	0.347685
O57	O	1.115716	-0.264592	-0.522442
O58	O	1.365716	-0.014592	-0.272442
O59	O	1.615716	0.235408	-0.022442
O60	O	1.865716	0.485408	0.227558
O61	O	1.115540	-0.444027	-0.311357
O62	O	1.365540	-0.194027	-0.061357
O63	O	1.615540	0.055973	0.188643
O64	O	1.865540	0.305973	0.438643
O65	O	1.024595	-0.443988	-0.402304
O66	O	1.274595	-0.193988	-0.152304
O67	O	1.524595	0.056012	0.097696
O68	O	1.774595	0.306012	0.347696
C69	C	0.877758	-0.303271	-0.356841
C70	C	1.127758	-0.053271	-0.106841
C71	C	1.377758	0.196729	0.143159
C72	C	1.627758	0.446729	0.393159
C73	C	0.795443	-0.303275	-0.356842
C74	C	1.045443	-0.053275	-0.106842
C75	C	1.295443	0.196725	0.143158
C76	C	1.545443	0.446725	0.393158
C77	C	0.496352	-0.303314	-0.356904
C78	C	0.746352	-0.053314	-0.106904
C79	C	0.996352	0.196686	0.143096
C80	C	1.246352	0.446686	0.393096
C81	C	0.527675	-0.254439	-0.299967
C82	C	0.777675	-0.004439	-0.049967
C83	C	1.027675	0.245561	0.200033
C84	C	1.277675	0.495561	0.450033
C85	C	0.613293	-0.254571	-0.299724
C86	C	0.863293	-0.004571	-0.049724
C87	C	1.113293	0.245429	0.200276
C88	C	1.363293	0.495429	0.450276
C89	C	0.644735	-0.303294	-0.356873
C90	C	0.894735	-0.053294	-0.106873
C91	C	1.144735	0.196706	0.143127
C92	C	1.394735	0.446706	0.393127
C93	C	0.613618	-0.369607	-0.335543
C94	C	0.863618	-0.119607	-0.085543
C95	C	1.113618	0.130393	0.164457
C96	C	1.363618	0.380393	0.414457
C97	C	0.527972	-0.369335	-0.335147
C98	C	0.777972	-0.119335	-0.085147
C99	C	1.027972	0.130665	0.164853
C100	C	1.277972	0.380665	0.414853
C101	C	0.527967	-0.286453	-0.435305
C102	C	0.777967	-0.036453	-0.185305
C103	C	1.027967	0.213547	0.064695
C104	C	1.277967	0.463547	0.314695
C105	C	0.613618	-0.284977	-0.434877
C106	C	0.863618	-0.034977	-0.184877
C107	C	1.113618	0.215023	0.065123
C108	C	1.363618	0.465023	0.315123
C109	C	0.728594	-0.303287	-0.356857
C110	C	0.978594	-0.053287	-0.106857
C111	C	1.228594	0.196713	0.143143
C112	C	1.478594	0.446713	0.393143
C113	C	0.412493	-0.303326	-0.356919
C114	C	0.662493	-0.053326	-0.106919
C115	C	0.912493	0.196674	0.143081
C116	C	1.162493	0.446674	0.393081
C117	C	1.070071	-0.466848	-0.356839
C118	C	1.320071	-0.216848	-0.106839
C119	C	1.570071	0.033152	0.143161
C120	C	1.820071	0.283152	0.393161
C121	C	1.070097	-0.536816	-0.356846
C122	C	1.320097	-0.286816	-0.106846
C123	C	1.570097	-0.036816	0.143154
C124	C	1.820097	0.213184	0.393154
C125	C	1.117494	-0.569682	-0.309538
C126	C	1.367494	-0.319682	-0.059538
C127	C	1.617494	-0.069682	0.190462
C128	C	1.867494	0.180318	0.440462
C129	C	1.117529	-0.635425	-0.309555
C130	C	1.367529	-0.385425	-0.059555
C131	C	1.617529	-0.135425	0.190445
C132	C	1.867529	0.114575	0.440445
C133	C	1.070153	-0.668299	-0.356871
C134	C	1.320153	-0.418299	-0.106871
C135	C	1.570153	-0.168299	0.143129
C136	C	1.820153	0.081701	0.393129
C137	C	1.022753	-0.635424	-0.404188
C138	C	1.272753	-0.385424	-0.154188
C139	C	1.522753	-0.135424	0.095812
C140	C	1.772753	0.114576	0.345812
C141	C	1.022725	-0.569683	-0.404175
C142	C	1.272725	-0.319683	-0.154175
C143	C	1.522725	-0.069683	0.095825
C144	C	1.772725	0.180317	0.345825
N145	N	1.005369	-0.771559	-0.362504
N146	N	1.255369	-0.521559	-0.112504
N147	N	1.505369	-0.271559	0.137496
N148	N	1.755369	-0.021559	0.387496
N149	N	1.005398	-0.834011	-0.362512
N150	N	1.255398	-0.584011	-0.112512
N151	N	1.505398	-0.334011	0.137488
N152	N	1.755398	-0.084011	0.387488
C153	C	1.070236	-0.866373	-0.356914
C154	C	1.320236	-0.616373	-0.106914
C155	C	1.570236	-0.366373	0.143086
C156	C	1.820236	-0.116373	0.393086
N157	N	1.135046	-0.833925	-0.351293
N158	N	1.385046	-0.583925	-0.101293
N159	N	1.635046	-0.333925	0.148707
N160	N	1.885046	-0.083925	0.398707
N161	N	1.135017	-0.771468	-0.351282
N162	N	1.385017	-0.521468	-0.101282
N163	N	1.635017	-0.271468	0.148718
N164	N	1.885017	-0.021468	0.398718
C165	C	1.070179	-0.739584	-0.356891
C166	C	1.320179	-0.489584	-0.106891
C167	C	1.570179	-0.239584	0.143109
C168	C	1.820179	0.010416	0.393109
C169	C	1.117675	-0.970525	-0.309622
C170	C	1.367675	-0.720525	-0.059622
C171	C	1.617675	-0.470525	0.190378
C172	C	1.867675	-0.220525	0.440378
C173	C	1.117711	-1.036269	-0.309644
C174	C	1.367711	-0.786269	-0.059644
C175	C	1.617711	-0.536269	0.190356
C176	C	1.867711	-0.286269	0.440356
C177	C	1.022929	-1.036267	-0.404273
C178	C	1.272929	-0.786267	-0.154273
C179	C	1.522929	-0.536267	0.095727
C180	C	1.772929	-0.286267	0.345727
C181	C	1.022899	-0.970525	-0.404255
C182	C	1.272899	-0.720525	-0.154255
C183	C	1.522899	-0.470525	0.095745
C184	C	1.772899	-0.220525	0.345745
C185	C	1.070271	-0.937658	-0.356925
C186	C	1.320271	-0.687658	-0.106925
C187	C	1.570271	-0.437658	0.143075
C188	C	1.820271	-0.187658	0.393075
C189	C	1.263330	-0.303322	-0.356919
C190	C	1.513330	-0.053322	-0.106919
C191	C	1.763330	0.196678	0.143081
C192	C	2.013330	0.446678	0.393081
C193	C	1.345644	-0.303334	-0.356936
C194	C	1.595644	-0.053334	-0.106936
C195	C	1.845644	0.196666	0.143064
C196	C	2.095644	0.446666	0.393064
C197	C	1.070212	-0.303239	-0.550042
C198	C	1.320212	-0.053239	-0.300042
C199	C	1.570212	0.196761	-0.050042
C200	C	1.820212	0.446761	0.199958
C201	C	1.070231	-0.303214	-0.632356
C202	C	1.320231	-0.053214	-0.382356
C203	C	1.570231	0.196786	-0.132356
C204	C	1.820231	0.446786	0.117644
C205	C	1.070286	-0.139106	-0.356937
C206	C	1.320286	0.110894	-0.106937
C207	C	1.570286	0.360894	0.143063
C208	C	1.820286	0.610894	0.393063
C209	C	1.070336	-0.069138	-0.356961
C210	C	1.320336	0.180862	-0.106961
C211	C	1.570336	0.430862	0.143039
C212	C	1.820336	0.680862	0.393039
C213	C	1.070271	-0.303175	-0.931447
C214	C	1.320271	-0.053175	-0.681447
C215	C	1.570271	0.196825	-0.431447
C216	C	1.820271	0.446825	-0.181447
C217	C	1.127727	-0.254705	-0.900150
C218	C	1.377727	-0.004705	-0.650150
C219	C	1.627727	0.245295	-0.400150
C220	C	1.877727	0.495295	-0.150150
C221	C	1.127548	-0.254525	-0.814532
C222	C	1.377548	-0.004525	-0.564532
C223	C	1.627548	0.245475	-0.314532
C224	C	1.877548	0.495475	-0.064532
C225	C	1.070252	-0.303195	-0.783064
C226	C	1.320252	-0.053195	-0.533064
C227	C	1.570252	0.196805	-0.283064
C228	C	1.820252	0.446805	-0.033064
C229	C	0.992235	-0.285166	-0.814132
C230	C	1.242235	-0.035166	-0.564132
C231	C	1.492235	0.214834	-0.314132
C232	C	1.742235	0.464834	-0.064132
C233	C	0.992579	-0.284803	-0.899778
C234	C	1.242579	-0.034803	-0.649778
C235	C	1.492579	0.215197	-0.399778
C236	C	1.742579	0.465197	-0.149778
C237	C	1.090144	-0.369798	-0.899855
C238	C	1.340144	-0.119798	-0.649855
C239	C	1.590144	0.130202	-0.399855
C240	C	1.840144	0.380202	-0.149855
C241	C	1.091857	-0.369458	-0.814205
C242	C	1.341857	-0.119458	-0.564205
C243	C	1.591857	0.130542	-0.314205
C244	C	1.841857	0.380542	-0.064205
C245	C	1.070236	-0.303207	-0.699205
C246	C	1.320236	-0.053207	-0.449205
C247	C	1.570236	0.196793	-0.199205
C248	C	1.820236	0.446793	0.050795
C249	C	1.070281	-0.303162	-1.015306
C250	C	1.320281	-0.053162	-0.765306
C251	C	1.570281	0.196838	-0.515306
C252	C	1.820281	0.446838	-0.265306
C253	C	1.070167	-0.303308	-0.164469
C254	C	1.320167	-0.053308	0.085531
C255	C	1.570167	0.196692	0.335531
C256	C	1.820167	0.446692	0.585531
C257	C	1.070292	-0.303155	-0.082155
C258	C	1.320292	-0.053155	0.167845
C259	C	1.570292	0.196845	0.417845
C260	C	1.820292	0.446845	0.667845
H261	H	0.507251	-0.406984	-0.374809
H262	H	0.757251	-0.156984	-0.124809
H263	H	1.007251	0.093016	0.125191
H264	H	1.257251	0.343016	0.375191
H265	H	0.634333	-0.205397	-0.313095
H266	H	0.884333	0.044603	-0.063095
H267	H	1.134333	0.294603	0.186905
H268	H	1.384333	0.544603	0.436905
H269	H	0.975081	-0.237006	-0.792697
H270	H	1.225081	0.012994	-0.542697
H271	H	1.475081	0.262994	-0.292697
H272	H	1.725081	0.512994	-0.042697
H273	H	0.635032	-0.384153	-0.278847
H274	H	0.885032	-0.134153	-0.028847
H275	H	1.135032	0.115847	0.221153
H276	H	1.385032	0.365847	0.471153
H277	H	1.048300	-0.405914	-0.920098
H278	H	1.298300	-0.155914	-0.670098
H279	H	1.548300	0.094086	-0.420098
H280	H	1.798300	0.344086	-0.170098
H281	H	0.633983	-0.406998	-0.375715
H282	H	0.883983	-0.156998	-0.125715
H283	H	1.133983	0.093002	0.124285
H284	H	1.383983	0.343002	0.374285
H285	H	0.984128	-0.542923	-0.442700
H286	H	1.234128	-0.292923	-0.192700
H287	H	1.484128	-0.042923	0.057300
H288	H	1.734128	0.207077	0.307300
H289	H	1.185768	-0.265856	-0.920757
H290	H	1.435768	-0.015856	-0.670757
H291	H	1.685768	0.234144	-0.420757
H292	H	1.935768	0.484144	-0.170757
H293	H	0.984181	-0.662194	-0.442715
H294	H	1.234181	-0.412194	-0.192715
H295	H	1.484181	-0.162194	0.057285
H296	H	1.734181	0.087806	0.307285
H297	H	0.507712	-0.322052	-0.477728
H298	H	0.757712	-0.072052	-0.227728
H299	H	1.007712	0.177948	0.022272
H300	H	1.257712	0.427948	0.272272
H301	H	0.984358	-1.063032	-0.442802
H302	H	1.234358	-0.813032	-0.192802
H303	H	1.484358	-0.563032	0.057198
H304	H	1.734358	-0.313032	0.307198
H305	H	0.984301	-0.943763	-0.442774
H306	H	1.234301	-0.693763	-0.192774
H307	H	1.484301	-0.443763	0.057226
H308	H	1.734301	-0.193763	0.307226
H309	H	0.506395	-0.238940	-0.454697
H310	H	0.756395	0.011060	-0.204697
H311	H	1.006395	0.261060	0.045303
H312	H	1.256395	0.511060	0.295303
H313	H	1.156251	-0.943764	-0.271085
H314	H	1.406251	-0.693764	-0.021085
H315	H	1.656251	-0.443764	0.228915
H316	H	1.906251	-0.193764	0.478915
H317	H	0.633962	-0.236178	-0.450961
H318	H	0.883962	0.013822	-0.200961
H319	H	1.133962	0.263822	0.049039
H320	H	1.383962	0.513822	0.299039
H321	H	1.114739	-0.205625	-0.921691
H322	H	1.364739	0.044375	-0.671691
H323	H	1.614739	0.294375	-0.421691
H324	H	1.864739	0.544375	-0.171691
H325	H	1.156312	-1.063027	-0.271122
H326	H	1.406312	-0.813027	-0.021122
H327	H	1.656312	-0.563027	0.228878
H328	H	1.906312	-0.313027	0.478878
H329	H	1.156128	-0.662190	-0.271032
H330	H	1.406128	-0.412190	-0.021032
H331	H	1.656128	-0.162190	0.228968
H332	H	1.906128	0.087810	0.478968
H333	H	0.635024	-0.317980	-0.479573
H334	H	0.885024	-0.067980	-0.229573
H335	H	1.135024	0.182020	0.020427
H336	H	1.385024	0.432020	0.270427
H337	H	0.507960	-0.383634	-0.277832
H338	H	0.757960	-0.133634	-0.027832
H339	H	1.007960	0.116366	0.222168
H340	H	1.257960	0.366366	0.472168
H341	H	1.156069	-0.542924	-0.271002
H342	H	1.406069	-0.292924	-0.021002
H343	H	1.656069	-0.042924	0.228998
H344	H	1.906069	0.207076	0.478998
H345	H	1.185399	-0.265816	-0.793528
H346	H	1.435399	-0.015816	-0.543528
H347	H	1.685399	0.234184	-0.293528
H348	H	1.935399	0.484184	-0.043528
H349	H	1.114393	-0.205170	-0.794062
H350	H	1.364393	0.044830	-0.544062
H351	H	1.614393	0.294830	-0.294062
H352	H	1.864393	0.544830	-0.044062
H353	H	0.975731	-0.236102	-0.919771
H354	H	1.225731	0.013898	-0.669771
H355	H	1.475731	0.263898	-0.419771
H356	H	1.725731	0.513898	-0.169771
H357	H	1.146037	-0.386213	-0.921503
H358	H	1.396037	-0.136213	-0.671503
H359	H	1.646037	0.113787	-0.421503
H360	H	1.896037	0.363787	-0.171503
H361	H	1.149270	-0.383053	-0.793899
H362	H	1.399270	-0.133053	-0.543899
H363	H	1.649270	0.116947	-0.293899
H364	H	1.899270	0.366947	-0.043899
H365	H	1.053051	-0.407513	-0.792781
H366	H	1.303051	-0.157513	-0.542781
H367	H	1.553051	0.092487	-0.292781
H368	H	1.803051	0.342487	-0.042781
H369	H	0.948313	-0.318570	-0.920478
H370	H	1.198313	-0.068570	-0.670478
H371	H	1.448313	0.181430	-0.420478
H372	H	1.698313	0.431430	-0.170478
H373	H	0.948263	-0.319382	-0.793747
H374	H	1.198263	-0.069382	-0.543747
H375	H	1.448263	0.180618	-0.293747
H376	H	1.698263	0.430618	-0.043747
H377	H	0.507104	-0.205116	-0.313191
H378	H	0.757104	0.044884	-0.063191
H379	H	1.007104	0.294884	0.186809
H380	H	1.257104	0.544884	0.436809
H381	H	0.506125	-0.265460	-0.242211
H382	H	0.756125	-0.015460	0.007789
H383	H	1.006125	0.234540	0.257789
H384	H	1.256125	0.484540	0.507789
H385	H	0.633746	-0.265717	-0.241630
H386	H	0.883746	-0.015717	0.008370
H387	H	1.133746	0.234283	0.258370
H388	H	1.383746	0.484283	0.508370
