data_functionalizedCrystal
_audit_creation_method	'MofGen! by Chris Wilmer'
_symmetry_space_group_name_H-M	'P1'
_symmetry_Int_Tables_number	1
_symmetry_cell_setting	triclinic
loop_
_symmetry_equiv_pos_as_xyz
  x,y,z
_cell_length_a	9.065215
_cell_length_b	11.792254
_cell_length_c	7.540329
_cell_angle_alpha	89.996229
_cell_angle_beta	89.997574
_cell_angle_gamma	84.606648
loop_
_atom_site_label
_atom_site_type_symbol
_atom_site_fract_x
_atom_site_fract_y
_atom_site_fract_z
O1	O	1.958851	0.166413	-0.147463
O2	O	2.458851	0.666413	0.352537
O3	O	1.529439	0.180068	-0.147471
O4	O	2.029439	0.680068	0.352529
O5	O	1.754556	0.008129	-0.147454
O6	O	2.254556	0.508129	0.352546
O7	O	1.733734	0.338353	-0.147480
O8	O	2.233734	0.838353	0.352520
O9	O	1.754542	0.008127	0.147511
O10	O	2.254542	0.508127	0.647511
O11	O	1.529425	0.180066	0.147494
O12	O	2.029425	0.680066	0.647494
O13	O	1.958838	0.166411	0.147502
O14	O	2.458838	0.666411	0.647502
Cu15	Cu	1.744130	0.173238	0.174431
Cu16	Cu	2.244130	0.673238	0.674431
Cu17	Cu	1.744146	0.173241	-0.174400
Cu18	Cu	2.244146	0.673241	0.325600
O19	O	1.733720	0.338350	0.147485
O20	O	2.233720	0.838350	0.647485
C21	C	1.474457	0.178755	0.000011
C22	C	1.974457	0.678755	0.500011
C23	C	1.310651	0.174834	0.000008
C24	C	1.810651	0.674834	0.500008
C25	C	1.753237	-0.034170	0.000028
C26	C	2.253237	0.465830	0.500028
C27	C	1.749311	-0.160205	0.000026
C28	C	2.249311	0.339795	0.500026
C29	C	1.746122	-0.262559	0.000020
C30	C	2.246122	0.237441	0.500020
C31	C	1.742133	-0.390968	0.000003
C32	C	2.242133	0.109032	0.500003
C33	C	2.013819	0.167724	0.000017
C34	C	2.513819	0.667724	0.500017
C35	C	2.177625	0.171645	0.000008
C36	C	2.677625	0.671645	0.500008
C37	C	1.735039	0.380649	-0.000001
C38	C	2.235039	0.880649	0.499999
C39	C	1.738965	0.506684	-0.000011
C40	C	2.238965	1.006684	0.499989
N41	N	1.744130	0.173236	0.419779
N42	N	2.244130	0.673236	0.919779
N43	N	1.744158	0.173234	-0.419748
N44	N	2.244158	0.673234	0.080252
