data_functionalizedCrystal
_audit_creation_method	'MofGen! by Chris Wilmer'
_symmetry_space_group_name_H-M	'P1'
_symmetry_Int_Tables_number	1
_symmetry_cell_setting	triclinic
loop_
_symmetry_equiv_pos_as_xyz
  x,y,z
_cell_length_a	12.759401
_cell_length_b	21.295417
_cell_length_c	12.759393
_cell_angle_alpha	89.960830
_cell_angle_beta	89.980316
_cell_angle_gamma	90.029621
loop_
_atom_site_label
_atom_site_type_symbol
_atom_site_fract_x
_atom_site_fract_y
_atom_site_fract_z
Zn1	Zn	1.606140	-0.250587	-0.593959
Zn2	Zn	2.106140	0.249413	-0.093959
Zn3	Zn	1.605986	-0.355871	-0.418256
Zn4	Zn	2.105986	0.144129	0.081744
Zn5	Zn	1.430442	-0.250618	-0.418295
Zn6	Zn	1.930442	0.249382	0.081705
Zn7	Zn	1.430382	-0.355821	-0.593894
Zn8	Zn	1.930382	0.144179	-0.093894
O9	O	1.518237	-0.303224	-0.506101
O10	O	2.018237	0.196776	-0.006101
O11	O	1.753141	-0.264561	-0.570663
O12	O	2.253141	0.235439	-0.070663
O13	O	1.582660	-0.341943	-0.271240
O14	O	2.082660	0.158057	0.228760
O15	O	1.453838	-0.162524	-0.441641
O16	O	1.953838	0.337476	0.058359
O17	O	1.753027	-0.341913	-0.441574
O18	O	2.253027	0.158087	0.058426
O19	O	1.582923	-0.162502	-0.570701
O20	O	2.082923	0.337498	-0.070701
O21	O	1.453689	-0.264614	-0.271269
O22	O	1.953689	0.235386	0.228731
O23	O	1.283413	-0.264565	-0.441577
O24	O	1.783413	0.235435	0.058423
O25	O	1.453736	-0.341827	-0.740924
O26	O	1.953736	0.158173	-0.240924
O27	O	1.283369	-0.341857	-0.570589
O28	O	1.783369	0.158143	-0.070589
O29	O	1.582865	-0.264512	-0.740972
O30	O	2.082865	0.235488	-0.240972
O31	O	1.582602	-0.443954	-0.441511
O32	O	2.082602	0.056046	0.058489
O33	O	1.453587	-0.443917	-0.570551
O34	O	1.953587	0.056083	-0.070551
C35	C	1.245270	-0.303210	-0.506081
C36	C	1.745270	0.196790	-0.006081
C37	C	1.128493	-0.303218	-0.506097
C38	C	1.628493	0.196782	-0.006097
C39	C	1.073624	-0.262920	-0.439045
C40	C	1.573624	0.237080	0.060955
C41	C	0.963899	-0.262935	-0.439058
C42	C	1.463899	0.237065	0.060942
C43	C	0.963925	-0.343549	-0.573186
C44	C	1.463925	0.156451	-0.073186
C45	C	1.073647	-0.343537	-0.573167
C46	C	1.573647	0.156463	-0.073167
C47	C	1.073608	-0.216375	-0.361610
C48	C	1.573608	0.283625	0.138390
C49	C	0.963884	-0.216390	-0.361623
C50	C	1.463884	0.283610	0.138377
C51	C	1.518100	-0.466776	-0.506043
C52	C	2.018100	0.033224	-0.006043
C53	C	1.518137	-0.536744	-0.506053
C54	C	2.018137	-0.036744	-0.006053
C55	C	1.585375	-0.569609	-0.438930
C56	C	2.085375	-0.069609	0.061070
C57	C	1.585424	-0.635351	-0.438954
C58	C	2.085424	-0.135351	0.061046
C59	C	1.518217	-0.668226	-0.506089
C60	C	2.018217	-0.168226	-0.006089
C61	C	1.450974	-0.635353	-0.573225
C62	C	1.950974	-0.135353	-0.073225
C63	C	1.450934	-0.569612	-0.573207
C64	C	1.950934	-0.069612	-0.073207
N65	N	1.426309	-0.771491	-0.514092
N66	N	1.926309	-0.271491	-0.014092
N67	N	1.426350	-0.833942	-0.514103
N68	N	1.926350	-0.333942	-0.014103
C69	C	1.518334	-0.866301	-0.506149
C70	C	2.018334	-0.366301	-0.006149
N71	N	1.610278	-0.833849	-0.498164
N72	N	2.110278	-0.333849	0.001836
N73	N	1.610236	-0.771392	-0.498147
N74	N	2.110236	-0.271392	0.001853
C75	C	1.518253	-0.739512	-0.506117
C76	C	2.018253	-0.239512	-0.006117
C77	C	1.585631	-0.970452	-0.439049
C78	C	2.085631	-0.470452	0.060951
C79	C	1.585682	-1.036195	-0.439080
C80	C	2.085682	-0.536195	0.060920
C81	C	1.451223	-1.036196	-0.573345
C82	C	1.951223	-0.536196	-0.073345
C83	C	1.451181	-0.970454	-0.573320
C84	C	1.951181	-0.470454	-0.073320
C85	C	1.518384	-0.937585	-0.506166
C86	C	2.018384	-0.437585	-0.006166
C87	C	1.792271	-0.303239	-0.506121
C88	C	2.292271	0.196761	-0.006121
C89	C	1.909047	-0.303246	-0.506130
C90	C	2.409047	0.196754	-0.006130
C91	C	1.518311	-0.303161	-0.780134
C92	C	2.018311	0.196839	-0.280134
C93	C	1.518342	-0.303134	-0.896911
C94	C	2.018342	0.196866	-0.396911
C95	C	1.518404	-0.139034	-0.506182
C96	C	2.018404	0.360966	-0.006182
C97	C	1.518475	-0.069066	-0.506217
C98	C	2.018475	0.430934	-0.006217
C99	C	1.585589	-0.262872	-0.951800
C100	C	2.085589	0.237128	-0.451800
C101	C	1.585614	-0.262849	-1.061524
C102	C	2.085614	0.237151	-0.561524
C103	C	1.451143	-0.343355	-1.061461
C104	C	1.951143	0.156645	-0.561461
C105	C	1.451113	-0.343374	-0.951739
C106	C	1.951113	0.156626	-0.451739
C107	C	1.663228	-0.216394	-0.951837
C108	C	2.163228	0.283606	-0.451837
C109	C	1.663253	-0.216372	-1.061561
C110	C	2.163253	0.283628	-0.561561
C111	C	1.518225	-0.303242	-0.233133
C112	C	2.018225	0.196758	0.266867
C113	C	1.518397	-0.303092	-0.116357
C114	C	2.018397	0.196908	0.383643
H115	H	1.118318	-0.376358	-0.627757
H116	H	1.618318	0.123642	-0.127757
C117	C	1.376977	-0.533460	-0.647063
C118	C	1.876977	-0.033460	-0.147063
N119	N	1.321275	-0.506228	-0.702697
N120	N	1.821275	-0.006228	-0.202697
C121	C	1.659571	-0.934294	-0.365195
C122	C	2.159571	-0.434294	0.134805
N123	N	1.715266	-0.907062	-0.309571
N124	N	2.215266	-0.407062	0.190429
H125	H	0.934143	-0.167655	-0.383570
H126	H	1.434143	0.332345	0.116430
C127	C	0.903584	-0.387894	-0.646963
C128	C	1.403584	0.112106	-0.146963
N129	N	0.858136	-0.421295	-0.702535
N130	N	1.358136	0.078705	-0.202535
C131	C	1.767618	-0.239988	-0.905848
C132	C	2.267618	0.260012	-0.405848
N133	N	1.846247	-0.257755	-0.871208
N134	N	2.346247	0.242245	-0.371208
C135	C	1.659388	-0.671510	-0.365106
C136	C	2.159388	-0.171510	0.134894
N137	N	1.715096	-0.698743	-0.309480
N138	N	2.215096	-0.198743	0.190520
C139	C	1.659653	-1.072347	-0.365235
C140	C	2.159653	-0.572347	0.134765
N141	N	1.715367	-1.099576	-0.309611
N142	N	2.215367	-0.599576	0.190389
H143	H	1.107681	-0.170082	-0.390898
H144	H	1.607681	0.329918	0.109102
C145	C	1.624001	-0.153784	-1.107577
C146	C	2.124001	0.346216	-0.607577
N147	N	1.594448	-0.106642	-1.142237
N148	N	2.094448	0.393358	-0.642237
H149	H	1.744618	-0.229430	-1.091338
H150	H	2.244618	0.270570	-0.591338
C151	C	1.113772	-0.233934	-0.251624
C152	C	1.613772	0.266066	0.248376
N153	N	1.144023	-0.247161	-0.168784
N154	N	1.644023	0.252839	0.331216
C155	C	1.659289	-0.533458	-0.365048
C156	C	2.159289	-0.033458	0.134952
N157	N	1.714957	-0.506227	-0.309394
N158	N	2.214957	-0.006227	0.190606
C159	C	0.917839	-0.239902	-0.257127
C160	C	1.417839	0.260098	0.242873
N161	N	0.883156	-0.257609	-0.178422
N162	N	1.383156	0.242391	0.321578
C163	C	1.377295	-1.072355	-0.647197
C164	C	1.877295	-0.572355	-0.147197
N165	N	1.321613	-1.099593	-0.702826
N166	N	1.821613	-0.599593	-0.202826
C167	C	1.377042	-0.671517	-0.647070
C168	C	1.877042	-0.171517	-0.147070
N169	N	1.321355	-0.698756	-0.702693
N170	N	1.821355	-0.198756	-0.202693
H171	H	1.396425	-0.943693	-0.627973
H172	H	1.896425	-0.443693	-0.127973
H173	H	1.396351	-0.376157	-0.907053
H174	H	1.896351	0.123843	-0.407053
H175	H	1.396405	-0.376116	-1.106115
H176	H	1.896405	0.123884	-0.606115
C177	C	1.633842	-0.150537	-0.911647
C178	C	2.133842	0.349463	-0.411647
N179	N	1.611705	-0.100935	-0.881376
N180	N	2.111705	0.399065	-0.381376
