data_functionalizedCrystal
_audit_creation_method	'MofGen! by Chris Wilmer'
_symmetry_space_group_name_H-M	'P1'
_symmetry_Int_Tables_number	1
_symmetry_cell_setting	triclinic
loop_
_symmetry_equiv_pos_as_xyz
  x,y,z
_cell_length_a	12.827893
_cell_length_b	19.121063
_cell_length_c	12.827885
_cell_angle_alpha	92.403777
_cell_angle_beta	89.980728
_cell_angle_gamma	92.468878
loop_
_atom_site_label
_atom_site_type_symbol
_atom_site_fract_x
_atom_site_fract_y
_atom_site_fract_z
Zn1	Zn	1.579836	-0.279578	-0.608539
Zn2	Zn	1.572236	-0.397045	-0.441232
Zn3	Zn	1.405075	-0.279613	-0.433815
Zn4	Zn	1.397572	-0.396992	-0.615928
O5	O	1.488680	-0.338307	-0.524878
O6	O	1.725063	-0.295168	-0.586357
O7	O	1.550022	-0.381504	-0.294014
O8	O	1.434577	-0.181324	-0.450795
O9	O	1.719480	-0.381470	-0.463437
O10	O	1.562973	-0.181298	-0.579165
O11	O	1.427209	-0.295227	-0.288565
O12	O	1.257844	-0.295176	-0.457961
O13	O	1.421790	-0.381381	-0.761182
O14	O	1.252332	-0.381414	-0.591759
O15	O	1.555698	-0.295117	-0.755753
O16	O	1.542747	-0.495322	-0.470602
O17	O	1.414422	-0.495284	-0.598951
C18	C	1.217171	-0.338293	-0.524858
C19	C	1.101017	-0.338305	-0.524875
C20	C	1.046528	-0.381045	-0.590989
C21	C	0.926477	-0.381057	-0.591008
C22	C	1.476974	-0.520787	-0.536406
C23	C	1.472062	-0.598853	-0.541373
C24	C	1.536618	-0.635525	-0.476937
C25	C	1.532005	-0.708876	-0.481614
C26	C	1.462829	-0.745553	-0.550723
C27	C	1.398270	-0.708876	-0.615166
C28	C	1.402890	-0.635526	-0.610493
C29	C	1.445540	-0.967022	-0.568177
C30	C	1.440923	-1.040377	-0.572842
C31	C	1.574660	-1.040372	-0.439292
C32	C	1.579269	-0.967021	-0.434621
C33	C	1.514714	-0.930350	-0.499067
C34	C	1.458109	-0.820530	-0.555503
C35	C	1.519440	-0.855374	-0.494292
C36	C	1.761249	-0.338321	-0.524900
C37	C	1.877402	-0.338327	-0.524909
C38	C	1.488755	-0.338239	-0.797444
C39	C	1.488787	-0.338210	-0.913596
C40	C	1.500460	-0.155115	-0.513328
C41	C	1.505479	-0.077049	-0.508406
C42	C	1.549567	-0.380885	-0.968076
C43	C	1.549602	-0.380856	-1.088125
C44	C	1.488668	-0.338324	-0.253370
C45	C	1.488851	-0.338155	-0.137206
H46	H	0.924244	-0.301736	-0.468300
H47	H	1.601636	-0.417393	-1.134966
H48	H	1.058790	-0.301720	-0.468290
O49	O	1.426708	-0.294662	-1.081232
C50	C	1.356660	-0.334701	-1.020637
H51	H	1.390103	-0.387943	-1.007752
H52	H	1.344538	-0.306158	-0.942040
H53	H	1.278698	-0.342377	-1.063118
H54	H	1.592944	-0.605667	-0.420657
O55	O	0.870554	-0.424612	-0.658644
C56	C	0.809986	-0.384646	-0.723643
H57	H	0.846485	-0.329351	-0.726763
H58	H	0.807049	-0.410109	-0.805612
H59	H	0.727451	-0.382159	-0.691116
H60	H	1.436782	-0.301650	-0.955829
H61	H	1.341950	-0.738744	-0.671440
H62	H	1.601581	-0.417440	-0.925843
O63	O	1.373702	-1.075898	-0.640077
C64	C	1.317699	-1.027803	-0.695943
H65	H	1.363791	-0.975490	-0.696266
H66	H	1.305186	-1.048962	-0.779615
H67	H	1.238834	-1.020067	-0.657123
O68	O	1.097017	-0.424592	-0.658547
C69	C	1.162722	-0.384612	-0.723564
H70	H	1.182353	-0.331344	-0.683456
H71	H	1.237700	-0.413175	-0.739222
H72	H	1.121247	-0.376988	-0.800589
H73	H	1.584572	-0.738731	-0.429143
H74	H	1.635597	-0.937159	-0.378347
H75	H	1.627218	-1.070237	-0.386825
H76	H	1.392975	-0.937170	-0.620650
O77	O	1.340077	-0.600009	-0.673129
C78	C	1.278050	-0.648108	-0.735149
H79	H	1.271151	-0.700418	-0.695671
H80	H	1.197044	-0.626951	-0.744888
H81	H	1.315797	-0.655849	-0.815037
H82	H	1.575767	-0.825510	-0.438028
H83	H	1.401784	-0.850401	-0.611769
