data_functionalizedCrystal
_audit_creation_method	'MofGen! by Chris Wilmer'
_symmetry_space_group_name_H-M	'P1'
_symmetry_Int_Tables_number	1
_symmetry_cell_setting	triclinic
loop_
_symmetry_equiv_pos_as_xyz
  x,y,z
_cell_length_a	18.101398
_cell_length_b	25.639239
_cell_length_c	18.101389
_cell_angle_alpha	89.979551
_cell_angle_beta	89.975673
_cell_angle_gamma	90.033952
loop_
_atom_site_label
_atom_site_type_symbol
_atom_site_fract_x
_atom_site_fract_y
_atom_site_fract_z
Zn1	Zn	1.132082	-0.208272	-0.418828
Zn2	Zn	1.632082	0.291728	0.081172
Zn3	Zn	1.131961	-0.295693	-0.294982
Zn4	Zn	1.631961	0.204307	0.205018
Zn5	Zn	1.008241	-0.208266	-0.294989
Zn6	Zn	1.508241	0.291734	0.205011
Zn7	Zn	1.008175	-0.295671	-0.418771
Zn8	Zn	1.508175	0.204329	0.081229
O9	O	1.070115	-0.251975	-0.356893
O10	O	1.570115	0.248025	0.143107
O11	O	1.235699	-0.219880	-0.402421
O12	O	1.735699	0.280120	0.097579
O13	O	1.115527	-0.284103	-0.191350
O14	O	1.615527	0.215897	0.308650
O15	O	1.024747	-0.135102	-0.311444
O16	O	1.524747	0.364898	0.188556
O17	O	1.235610	-0.284108	-0.311432
O18	O	1.735610	0.215892	0.188568
O19	O	1.115732	-0.135106	-0.402428
O20	O	1.615732	0.364894	0.097572
O21	O	1.024630	-0.219871	-0.191356
O22	O	1.524630	0.280129	0.308644
O23	O	0.904599	-0.219849	-0.311388
O24	O	1.404599	0.280151	0.188612
O25	O	1.024635	-0.284070	-0.522411
O26	O	1.524635	0.215930	-0.022411
O27	O	0.904551	-0.284065	-0.402330
O28	O	1.404551	0.215935	0.097670
O29	O	1.115668	-0.219858	-0.522454
O30	O	1.615668	0.280142	-0.022454
O31	O	1.115463	-0.368855	-0.311376
O32	O	1.615463	0.131145	0.188624
O33	O	1.024518	-0.368839	-0.402323
O34	O	1.524518	0.131161	0.097677
C35	C	0.877704	-0.251954	-0.356854
C36	C	1.377704	0.248046	0.143146
C37	C	0.795390	-0.251958	-0.356855
C38	C	1.295390	0.248042	0.143145
C39	C	0.496299	-0.251990	-0.356917
C40	C	0.996299	0.248010	0.143083
C41	C	0.527630	-0.211386	-0.299978
C42	C	1.027630	0.288614	0.200022
C43	C	0.613248	-0.211495	-0.299735
C44	C	1.113248	0.288505	0.200265
C45	C	0.644682	-0.251974	-0.356886
C46	C	1.144682	0.248026	0.143114
C47	C	0.613553	-0.307048	-0.335559
C48	C	1.113553	0.192952	0.164441
C49	C	0.527908	-0.306822	-0.335163
C50	C	1.027908	0.193178	0.164837
C51	C	0.527917	-0.238000	-0.435317
C52	C	1.027917	0.262000	0.064683
C53	C	0.613568	-0.236773	-0.434890
C54	C	1.113568	0.263227	0.065110
C55	C	0.728541	-0.251968	-0.356870
C56	C	1.228541	0.248032	0.143130
C57	C	0.412440	-0.252000	-0.356932
C58	C	0.912440	0.248000	0.143068
C59	C	1.069990	-0.387818	-0.356859
C60	C	1.569990	0.112182	0.143141
C61	C	1.070005	-0.445932	-0.356869
C62	C	1.570005	0.054068	0.143131
C63	C	1.117594	-0.806291	-0.309617
C64	C	1.617594	-0.306291	0.190383
C65	C	1.117622	-0.860895	-0.309627
C66	C	1.617622	-0.360895	0.190373
O67	O	1.157955	-0.889129	-0.269415
O68	O	1.657955	-0.389129	0.230585
N69	N	1.070245	-0.888214	-0.356942
N70	N	1.570245	-0.388214	0.143058
C71	C	1.022841	-0.860926	-0.404255
C72	C	1.522841	-0.360926	0.095745
O73	O	0.982546	-0.889177	-0.444501
O74	O	1.482546	-0.389177	0.055499
C75	C	1.022817	-0.806323	-0.404248
C76	C	1.522817	-0.306323	0.095752
C77	C	1.070192	-0.779007	-0.356925
C78	C	1.570192	-0.279007	0.143075
C79	C	1.164965	-0.778975	-0.262299
C80	C	1.664965	-0.278975	0.237701
C81	C	1.164936	-0.724374	-0.262288
C82	C	1.664936	-0.224374	0.237712
C83	C	1.117534	-0.697090	-0.309596
C84	C	1.617534	-0.197090	0.190404
C85	C	1.070162	-0.724406	-0.356914
C86	C	1.570162	-0.224406	0.143086
C87	C	0.975417	-0.779036	-0.451564
C88	C	1.475417	-0.279036	0.048436
C89	C	0.975397	-0.724429	-0.451554
C90	C	1.475397	-0.224429	0.048446
C91	C	1.022773	-0.697113	-0.404231
C92	C	1.522773	-0.197113	0.095769
C93	C	1.022731	-0.642522	-0.404212
C94	C	1.522731	-0.142522	0.095788
N95	N	1.070108	-0.615202	-0.356897
N96	N	1.570108	-0.115202	0.143103
C97	C	1.117509	-0.642487	-0.309589
C98	C	1.617509	-0.142487	0.190411
C99	C	1.022897	-0.975597	-0.404266
C100	C	1.522897	-0.475597	0.095734
C101	C	1.022917	-1.030199	-0.404270
C102	C	1.522917	-0.530199	0.095730
C103	C	1.117699	-1.030164	-0.309643
C104	C	1.617699	-0.530164	0.190357
C105	C	1.117675	-0.975561	-0.309636
C106	C	1.617675	-0.475561	0.190364
C107	C	1.070274	-0.948278	-0.356952
C108	C	1.570274	-0.448278	0.143048
C109	C	1.117443	-0.527822	-0.309570
C110	C	1.617443	-0.027822	0.190430
C111	C	1.117406	-0.473216	-0.309561
C112	C	1.617406	0.026784	0.190439
C113	C	1.022627	-0.473256	-0.404190
C114	C	1.522627	0.026744	0.095810
C115	C	1.022661	-0.527856	-0.404197
C116	C	1.522661	-0.027856	0.095803
C117	C	1.070074	-0.555138	-0.356884
C118	C	1.570074	-0.055138	0.143116
O119	O	0.982421	-0.614254	-0.444405
O120	O	1.482421	-0.114254	0.055595
O121	O	1.157804	-0.614229	-0.269357
O122	O	1.657804	-0.114229	0.230643
C123	C	1.263277	-0.251997	-0.356932
C124	C	1.763277	0.248003	0.143068
C125	C	1.345591	-0.252006	-0.356949
C126	C	1.845591	0.247994	0.143051
C127	C	1.070158	-0.251962	-0.550055
C128	C	1.570158	0.248038	-0.050055
C129	C	1.070176	-0.251957	-0.632369
C130	C	1.570176	0.248043	-0.132369
C131	C	1.070260	-0.115602	-0.356943
C132	C	1.570260	0.384398	0.143057
C133	C	1.070322	-0.057488	-0.356964
C134	C	1.570322	0.442512	0.143036
C135	C	1.070219	-0.251859	-0.931460
C136	C	1.570219	0.248141	-0.431460
C137	C	1.012746	-0.292130	-0.900108
C138	C	1.512746	0.207870	-0.400108
C139	C	1.012901	-0.292317	-0.814490
C140	C	1.512901	0.207683	-0.314490
C141	C	1.070197	-0.251907	-0.783077
C142	C	1.570197	0.248093	-0.283077
C143	C	1.148220	-0.266868	-0.814182
C144	C	1.648220	0.233132	-0.314182
C145	C	1.147899	-0.267132	-0.899827
C146	C	1.647899	0.232868	-0.399827
C147	C	1.050348	-0.196537	-0.899887
C148	C	1.550348	0.303463	-0.399887
C149	C	1.048612	-0.196856	-0.814236
C150	C	1.548612	0.303144	-0.314236
C151	C	1.070189	-0.251934	-0.699218
C152	C	1.570189	0.248066	-0.199218
C153	C	1.070232	-0.251833	-1.015320
C154	C	1.570232	0.248167	-0.515320
C155	C	1.070115	-0.251951	-0.164482
C156	C	1.570115	0.248049	0.335518
C157	C	1.070240	-0.251809	-0.082169
C158	C	1.570240	0.248191	0.417831
H159	H	0.633919	-0.196245	-0.450971
H160	H	1.133919	0.303755	0.049029
C161	C	0.923302	-0.809072	-0.503626
C162	C	1.423302	-0.309072	-0.003626
N163	N	0.884047	-0.831694	-0.542844
N164	N	1.384047	-0.331694	-0.042844
H165	H	0.936799	-0.702218	-0.490086
H166	H	1.436799	-0.202218	0.009914
H167	H	0.634966	-0.319119	-0.278864
H168	H	1.134966	0.180881	0.221136
C169	C	1.169848	-1.060188	-0.257609
C170	C	1.669848	-0.560188	0.242391
N171	N	1.209125	-1.082803	-0.218420
N172	N	1.709125	-0.582803	0.281580
C173	C	1.169596	-0.557823	-0.257519
C174	C	1.669596	-0.057823	0.242481
N175	N	1.208873	-0.580420	-0.218310
N176	N	1.708873	-0.080420	0.281690
H177	H	0.507894	-0.318688	-0.277849
H178	H	1.007894	0.181312	0.222151
H179	H	1.203514	-0.702136	-0.223756
H180	H	1.703514	-0.202136	0.276244
C181	C	0.970794	-1.060241	-0.456322
C182	C	1.470794	-0.560241	0.043678
N183	N	0.931536	-1.082867	-0.495532
N184	N	1.431536	-0.582867	0.004468
C185	C	0.498791	-0.184688	-0.461509
C186	C	0.998791	0.315312	0.038491
N187	N	0.476856	-0.144530	-0.481227
N188	N	0.976856	0.355470	0.018773
C189	C	1.217112	-0.808979	-0.210248
C190	C	1.717112	-0.308979	0.289752
N191	N	1.256387	-0.831574	-0.171034
N192	N	1.756387	-0.331574	0.328966
H193	H	0.634968	-0.264193	-0.479587
H194	H	1.134968	0.235807	0.020413
H195	H	1.025734	-0.332886	-0.921632
H196	H	1.525734	0.167114	-0.421632
C197	C	0.641685	-0.156320	-0.317785
C198	C	1.141685	0.343680	0.182215
N199	N	0.663100	-0.114759	-0.331376
N200	N	1.163100	0.385241	0.168624
C201	C	1.171372	-0.320923	-0.785218
C202	C	1.671372	0.179077	-0.285218
N203	N	1.188806	-0.361640	-0.763404
N204	N	1.688806	0.138360	-0.263404
H205	H	1.092209	-0.166532	-0.920164
H206	H	1.592209	0.333468	-0.420164
C207	C	0.970752	-0.945590	-0.456324
C208	C	1.470752	-0.445590	0.043676
N209	N	0.931481	-0.922992	-0.495537
N210	N	1.431481	-0.422992	0.004463
C211	C	0.971058	-0.181602	-0.786739
C212	C	1.471058	0.318398	-0.286739
N213	N	0.912650	-0.170109	-0.766013
N214	N	1.412650	0.329891	-0.266013
H215	H	0.507654	-0.267575	-0.477742
H216	H	1.007654	0.232425	0.022258
H217	H	0.633912	-0.338111	-0.375733
H218	H	1.133912	0.161889	0.124267
C219	C	0.499848	-0.156043	-0.317836
C220	C	0.999848	0.343957	0.182164
N221	N	0.478917	-0.114357	-0.331287
N222	N	0.978917	0.385643	0.168713
H223	H	0.984031	-0.451032	-0.442706
H224	H	1.484031	0.048968	0.057294
C225	C	1.169793	-0.945518	-0.257580
C226	C	1.669793	-0.445518	0.242420
N227	N	1.209052	-0.922893	-0.218370
N228	N	1.709052	-0.422893	0.281630
H229	H	0.984086	-0.550098	-0.442733
H230	H	1.484086	-0.050098	0.057267
H231	H	1.155985	-0.450977	-0.271023
H232	H	1.655985	0.049023	0.228977
H233	H	0.506079	-0.220529	-0.242223
H234	H	1.006079	0.279471	0.257777
H235	H	0.955044	-0.282955	-0.793458
H236	H	1.455044	0.217045	-0.293458
H237	H	0.954715	-0.282864	-0.920695
H238	H	1.454715	0.217136	-0.420695
H239	H	1.164746	-0.307573	-0.919809
H240	H	1.664746	0.192427	-0.419809
H241	H	1.192172	-0.239073	-0.920569
H242	H	1.692172	0.260927	-0.420569
H243	H	1.026019	-0.333323	-0.794005
H244	H	1.526019	0.166677	-0.294005
C245	C	0.499904	-0.349078	-0.388741
C246	C	0.999904	0.150922	0.111259
N247	N	0.478814	-0.380908	-0.429092
N248	N	0.978814	0.119092	0.070908
C249	C	1.207626	-0.228490	-0.786694
C250	C	1.707626	0.271510	-0.286694
N251	N	1.252370	-0.199583	-0.765988
N252	N	1.752370	0.300417	-0.265988
C253	C	1.101028	-0.154166	-0.785336
C254	C	1.601028	0.345834	-0.285336
N255	N	1.140510	-0.122011	-0.763564
N256	N	1.640510	0.377989	-0.263564
C257	C	0.640881	-0.223991	-0.221254
C258	C	1.140881	0.276009	0.278746
N259	N	0.661693	-0.233406	-0.162138
N260	N	1.161693	0.266594	0.337862
C261	C	0.974819	-0.178127	-0.929041
C262	C	1.474819	0.321873	-0.429041
N263	N	0.917926	-0.164267	-0.951000
N264	N	1.417926	0.335733	-0.451000
