data_functionalizedCrystal
_audit_creation_method	'MofGen! by Chris Wilmer'
_symmetry_space_group_name_H-M	'P1'
_symmetry_Int_Tables_number	1
_symmetry_cell_setting	triclinic
loop_
_symmetry_equiv_pos_as_xyz
  x,y,z
_cell_length_a	19.121414
_cell_length_b	19.120786
_cell_length_c	17.077396
_cell_angle_alpha	92.471235
_cell_angle_beta	87.583209
_cell_angle_gamma	95.006361
loop_
_atom_site_label
_atom_site_type_symbol
_atom_site_fract_x
_atom_site_fract_y
_atom_site_fract_z
Zn1	Zn	1.063718	-0.234253	0.382056
Zn2	Zn	1.563718	0.265747	0.882056
Zn3	Zn	1.058609	-0.351935	0.245416
Zn4	Zn	1.558609	0.148065	0.745416
Zn5	Zn	0.946053	-0.239297	0.256161
Zn6	Zn	1.446053	0.260703	0.756161
Zn7	Zn	0.941002	-0.356910	0.381997
Zn8	Zn	1.441002	0.143090	0.881997
O9	O	1.002345	-0.295599	0.316407
O10	O	1.502345	0.204401	0.816407
O11	O	1.161502	-0.245671	0.359459
O12	O	1.661502	0.254329	0.859459
O13	O	1.043654	-0.337022	0.136994
O14	O	1.543654	0.162978	0.636994
O15	O	0.965913	-0.140156	0.277384
O16	O	1.465913	0.359844	0.777384
O17	O	1.157749	-0.332131	0.259069
O18	O	1.657749	0.167869	0.759069
O19	O	1.052361	-0.136450	0.369878
O20	O	1.552361	0.363550	0.869878
O21	O	0.960960	-0.254267	0.144889
O22	O	1.460960	0.245733	0.644889
O23	O	0.846921	-0.259091	0.277326
O24	O	1.346921	0.240909	0.777326
O25	O	0.957305	-0.340610	0.491852
O26	O	1.457305	0.159390	0.991852
O27	O	0.843210	-0.345501	0.369776
O28	O	1.343210	0.154499	0.869776
O29	O	1.047463	-0.250495	0.491896
O30	O	1.547463	0.249505	0.991896
O31	O	1.038756	-0.451067	0.259011
O32	O	1.538756	0.048933	0.759011
O33	O	0.952351	-0.454722	0.359357
O34	O	1.452351	0.045278	0.859357
C35	C	0.819535	-0.303384	0.324711
C36	C	1.319535	0.196616	0.824711
C37	C	0.741328	-0.306731	0.328281
C38	C	1.241328	0.193269	0.828281
C39	C	0.994470	-0.478426	0.308028
C40	C	1.494470	0.021574	0.808028
C41	C	0.991166	-0.556638	0.304466
C42	C	1.491166	-0.056638	0.804466
C43	C	0.706500	-0.263247	0.281910
C44	C	1.206500	0.236753	0.781910
C45	C	0.633015	-0.266398	0.285264
C46	C	1.133015	0.233602	0.785264
C47	C	0.594360	-0.313031	0.334993
C48	C	1.094360	0.186969	0.834993
C49	C	0.629193	-0.356520	0.381367
C50	C	1.129193	0.143480	0.881367
C51	C	0.702676	-0.353372	0.378008
C52	C	1.202676	0.146628	0.878008
C53	C	0.372392	-0.324794	0.347534
C54	C	0.872392	0.175206	0.847534
C55	C	0.298904	-0.327938	0.350891
C56	C	0.798904	0.172062	0.850891
C57	C	0.302732	-0.237817	0.254787
C58	C	0.802732	0.262183	0.754787
C59	C	0.376216	-0.234670	0.251436
C60	C	0.876216	0.265330	0.751436
C61	C	0.411043	-0.278161	0.297806
C62	C	0.911043	0.221839	0.797806
C63	C	0.519247	-0.316252	0.338425
C64	C	1.019247	0.183748	0.838425
C65	C	0.486154	-0.274943	0.294370
C66	C	0.986154	0.225057	0.794370
C67	C	1.034588	-0.591393	0.350992
C68	C	1.534588	-0.091393	0.850992
C69	C	1.031480	-0.664882	0.347647
C70	C	1.531480	-0.164882	0.847647
C71	C	0.984953	-0.703613	0.297771
C72	C	1.484953	-0.203613	0.797771
C73	C	0.941526	-0.668852	0.251243
C74	C	1.441526	-0.168852	0.751243
C75	C	0.944630	-0.595365	0.254593
C76	C	1.444630	-0.095365	0.754593
C77	C	0.973325	-0.925595	0.285250
C78	C	1.473325	-0.425595	0.785250
C79	C	0.970225	-0.999086	0.281902
C80	C	1.470225	-0.499086	0.781902
C81	C	1.060179	-0.995111	0.378307
C82	C	1.560179	-0.495111	0.878307
C83	C	1.063283	-0.921623	0.381649
C84	C	1.563283	-0.421623	0.881649
C85	C	1.019853	-0.886869	0.335124
C86	C	1.519853	-0.386869	0.835124
C87	C	0.981777	-0.778729	0.294349
C88	C	1.481777	-0.278729	0.794349
C89	C	1.023026	-0.811753	0.338551
C90	C	1.523026	-0.311753	0.838551
C91	C	1.185869	-0.287784	0.308072
C92	C	1.685869	0.212216	0.808072
C93	C	1.264076	-0.284453	0.304520
C94	C	1.764076	0.215547	0.804520
C95	C	1.002390	-0.295545	0.521152
C96	C	1.502390	0.204455	1.021152
C97	C	1.002409	-0.295522	0.608402
C98	C	1.502409	0.204478	1.108402
C99	C	1.010270	-0.112057	0.324836
C100	C	1.510270	0.387943	0.824836
C101	C	1.013648	-0.033842	0.328428
C102	C	1.513648	0.466158	0.828428
C103	C	1.002344	-0.295600	0.112460
C104	C	1.502344	0.204400	0.612460
C105	C	1.002469	-0.295418	0.025213
C106	C	1.502469	0.204582	0.525213
C107	C	1.049357	-0.248595	0.649417
C108	C	1.549357	0.251405	1.149417
C109	C	1.049366	-0.248571	0.731398
C110	C	1.549366	0.251429	1.231398
C111	C	1.002431	-0.295479	0.772363
C112	C	1.502431	0.204521	1.272363
C113	C	0.955479	-0.342408	0.731343
C114	C	1.455479	0.157592	1.231343
C115	C	0.955466	-0.342428	0.649363
C116	C	1.455466	0.157572	1.149363
C117	C	0.955509	-0.342364	0.902214
C118	C	1.455509	0.157636	1.402214
C119	C	0.955522	-0.342345	0.984198
C120	C	1.455522	0.157655	1.484198
C121	C	1.049409	-0.248508	0.984248
C122	C	1.549409	0.251492	1.484248
C123	C	1.049396	-0.248528	0.902269
C124	C	1.549396	0.251472	1.402269
C125	C	1.002445	-0.295458	0.861254
C126	C	1.502445	0.204542	1.361254
H127	H	0.604662	-0.230993	0.247498
H128	H	1.104662	0.269007	0.747498
H129	H	0.731031	-0.388781	0.415768
H130	H	1.231031	0.111219	0.915768
N131	N	0.265167	-0.190926	0.204761
N132	N	0.765167	0.309074	0.704761
H133	H	0.236084	-0.159657	0.239597
H134	H	0.736084	0.340343	0.739597
H135	H	0.233481	-0.220849	0.168428
H136	H	0.733481	0.279151	0.668428
H137	H	1.087597	-0.210361	0.764788
H138	H	1.587597	0.289639	1.264788
H139	H	0.597713	-0.394492	0.421854
H140	H	1.097713	0.105508	0.921854
H141	H	0.267433	-0.365911	0.391392
H142	H	0.767433	0.134089	0.891392
N143	N	0.926494	-0.888114	0.235063
N144	N	1.426494	-0.388114	0.735063
H145	H	0.875672	-0.903087	0.248902
H146	H	1.375672	-0.403087	0.748902
H147	H	0.936976	-0.900474	0.177925
H148	H	1.436976	-0.400474	0.677925
N149	N	0.409940	-0.371695	0.397561
N150	N	0.909940	0.128305	0.897561
H151	H	0.441669	-0.341833	0.433906
H152	H	0.941669	0.158167	0.933906
H153	H	0.438975	-0.402963	0.362671
H154	H	0.938975	0.097037	0.862671
N155	N	0.748191	-0.212943	0.228280
N156	N	1.248191	0.287057	0.728280
H157	H	0.714974	-0.185875	0.199413
H158	H	1.214974	0.314125	0.699413
H159	H	0.777438	-0.240236	0.189196
H160	H	1.277438	0.259764	0.689196
H161	H	0.517631	-0.236978	0.253877
H162	H	1.017631	0.263022	0.753877
H163	H	1.087619	-0.210336	0.868917
H164	H	1.587619	0.289664	1.368917
N165	N	1.099985	-0.198007	0.605235
N166	N	1.599985	0.301993	1.105235
H167	H	1.129726	-0.168275	0.643661
H168	H	1.629726	0.331725	1.143661
H169	H	1.072746	-0.166669	0.574015
H170	H	1.572746	0.333331	1.074015
H171	H	1.095537	-1.023416	0.416186
H172	H	1.595537	-0.523416	0.916186
H173	H	0.932333	-1.030619	0.241287
H174	H	1.432333	-0.530619	0.741287
H175	H	1.087637	-0.210295	1.017646
H176	H	1.587637	0.289705	1.517646
H177	H	0.407685	-0.196702	0.210935
H178	H	0.907685	0.303298	0.710935
H179	H	1.060906	-0.780217	0.379163
H180	H	1.560906	-0.280217	0.879163
N181	N	0.904835	-0.393048	0.605125
N182	N	1.404835	0.106952	1.105125
H183	H	0.911947	-0.385942	0.546976
H184	H	1.411947	0.114058	1.046976
H185	H	0.855059	-0.384231	0.622236
H186	H	1.355059	0.115769	1.122236
N187	N	0.477546	-0.366537	0.392067
N188	N	0.977546	0.133463	0.892067
H189	H	0.490821	-0.355120	0.448086
H190	H	0.990821	0.144880	0.948086
H191	H	0.488181	-0.416236	0.376837
H192	H	0.988181	0.083764	0.876837
N193	N	1.084776	-0.549621	0.404783
N194	N	1.584776	-0.049621	0.904783
H195	H	1.111810	-0.582793	0.433750
H196	H	1.611810	-0.082793	0.933750
H197	H	1.057404	-0.520357	0.443775
H198	H	1.557404	-0.020357	0.943775
N199	N	0.904874	-0.392983	0.857970
N200	N	1.404874	0.107017	1.357970
H201	H	0.873497	-0.365784	0.826749
H202	H	1.373497	0.134216	1.326749
H203	H	0.875191	-0.422688	0.896405
H204	H	1.375191	0.077312	1.396405
H205	H	0.917302	-0.380540	1.017550
H206	H	1.417302	0.119460	1.517550
H207	H	0.917261	-0.380598	0.764703
H208	H	1.417261	0.119402	1.264703
N209	N	1.078279	-0.702370	0.397870
N210	N	1.578279	-0.202370	0.897870
H211	H	1.108216	-0.666684	0.429983
H212	H	1.608216	-0.166684	0.929983
H213	H	1.109579	-0.731482	0.363115
H214	H	1.609579	-0.231482	0.863115
N215	N	1.113463	-0.879850	0.435446
N216	N	1.613463	-0.379850	0.935446
H217	H	1.140499	-0.913019	0.464416
H218	H	1.640499	-0.413019	0.964416
H219	H	1.086087	-0.850588	0.474436
H220	H	1.586087	-0.350588	0.974436
N221	N	0.891343	-0.710622	0.197446
N222	N	1.391343	-0.210622	0.697446
H223	H	0.895968	-0.762450	0.202379
H224	H	1.395968	-0.262450	0.702379
H225	H	0.902870	-0.697326	0.141482
H226	H	1.402870	-0.197326	0.641482
H227	H	0.909270	-0.567068	0.216708
H228	H	1.409270	-0.067068	0.716708
H229	H	0.943896	-0.810272	0.253738
H230	H	1.443896	-0.310272	0.753738
