data_functionalizedCrystal
_audit_creation_method	'MofGen! by Chris Wilmer'
_symmetry_space_group_name_H-M	'P1'
_symmetry_Int_Tables_number	1
_symmetry_cell_setting	triclinic
loop_
_symmetry_equiv_pos_as_xyz
  x,y,z
_cell_length_a	14.971486
_cell_length_b	15.944551
_cell_length_c	13.448316
_cell_angle_alpha	89.992444
_cell_angle_beta	89.998199
_cell_angle_gamma	83.556434
loop_
_atom_site_label
_atom_site_type_symbol
_atom_site_fract_x
_atom_site_fract_y
_atom_site_fract_z
O1	O	1.186829	0.109463	-0.082580
O2	O	1.686829	0.609463	0.417420
O3	O	0.926415	0.122572	-0.082607
O4	O	1.426415	0.622572	0.417393
O5	O	1.063733	-0.006250	-0.082584
O6	O	1.563733	0.493750	0.417416
O7	O	1.049511	0.238286	-0.082603
O8	O	1.549511	0.738286	0.417397
O9	O	1.063716	-0.006258	0.082800
O10	O	1.563716	0.493742	0.582800
O11	O	0.926398	0.122564	0.082777
O12	O	1.426398	0.622564	0.582777
O13	O	1.186812	0.109456	0.082804
O14	O	1.686812	0.609456	0.582804
Cu15	Cu	1.056603	0.116009	0.097891
Cu16	Cu	1.556603	0.616009	0.597891
Cu17	Cu	1.056624	0.116018	-0.097694
Cu18	Cu	1.556624	0.616018	0.402306
O19	O	1.049494	0.238278	0.082781
O20	O	1.549494	0.738278	0.582781
C21	C	0.893082	0.121982	0.000081
C22	C	1.393082	0.621982	0.500081
C23	C	0.793787	0.120225	0.000071
C24	C	1.293787	0.620225	0.500071
C25	C	0.736480	0.195904	0.000067
C26	C	1.236480	0.695904	0.500067
C27	C	0.643182	0.194249	0.000082
C28	C	1.143182	0.694249	0.500082
C29	C	0.607194	0.116913	0.000094
C30	C	1.107194	0.616913	0.500094
C31	C	0.664508	0.041227	0.000102
C32	C	1.164508	0.541227	0.500102
C33	C	0.757804	0.042884	0.000094
C34	C	1.257804	0.542884	0.500094
C35	C	0.470049	0.037780	0.000116
C36	C	0.970049	0.537780	0.500116
C37	C	0.376747	0.036123	0.000122
C38	C	0.876747	0.536123	0.500122
C39	C	0.355428	0.189145	0.000104
C40	C	0.855428	0.689145	0.500104
C41	C	0.448724	0.190801	0.000096
C42	C	0.948724	0.690801	0.500096
C43	C	0.506032	0.115116	0.000101
C44	C	1.006032	0.615116	0.500101
C45	C	1.063134	-0.037549	0.000108
C46	C	1.563134	0.462451	0.500108
C47	C	1.061364	-0.130797	0.000109
C48	C	1.561364	0.369203	0.500109
C49	C	0.972017	-0.345738	0.000086
C50	C	1.472017	0.154262	0.500086
C51	C	1.013498	-0.406720	0.081634
C52	C	1.513498	0.093280	0.581634
C53	C	1.058162	-0.301526	0.000101
C54	C	1.558162	0.198474	0.500101
C55	C	1.013536	-0.406696	-0.081421
C56	C	1.513536	0.093304	0.418579
C57	C	1.055062	-0.466441	0.000089
C58	C	1.555062	0.033559	0.500089
C59	C	1.099667	-0.361279	0.081717
C60	C	1.599667	0.138721	0.581717
C61	C	1.099692	-0.361248	-0.081412
C62	C	1.599692	0.138752	0.418588
C63	C	1.141236	-0.422212	0.000156
C64	C	1.641236	0.077788	0.500156
C65	C	1.059945	-0.206522	0.000109
C66	C	1.559945	0.293478	0.500109
C67	C	1.053286	-0.561444	0.000088
C68	C	1.553286	-0.061444	0.500088
C69	C	1.220145	0.110046	0.000113
C70	C	1.720145	0.610046	0.500113
C71	C	1.319440	0.111802	0.000117
C72	C	1.819440	0.611802	0.500117
C73	C	1.050093	0.269576	0.000087
C74	C	1.550093	0.769576	0.500087
C75	C	1.051863	0.362824	0.000080
C76	C	1.551863	0.862824	0.500080
N77	N	1.056595	0.116002	0.235456
N78	N	1.556595	0.616002	0.735456
N79	N	1.056639	0.116019	-0.235258
N80	N	1.556639	0.616019	0.264742
C81	C	1.117419	0.058983	0.287506
C82	C	1.617419	0.558983	0.787506
C83	C	1.117425	0.058982	0.391610
C84	C	1.617425	0.558982	0.891610
C85	C	1.056610	0.116005	0.443660
C86	C	1.556610	0.616005	0.943660
C87	C	0.995780	0.173027	0.391602
C88	C	1.495780	0.673027	0.891602
C89	C	0.995771	0.173023	0.287501
C90	C	1.495771	0.673023	0.787501
C91	C	0.995805	0.173033	0.608582
C92	C	1.495805	0.673033	1.108582
C93	C	0.995815	0.173038	0.712691
C94	C	1.495815	0.673038	1.212691
C95	C	1.117459	0.058992	0.712691
C96	C	1.617459	0.558992	1.212691
C97	C	1.117449	0.058988	0.608590
C98	C	1.617449	0.558988	1.108590
C99	C	1.056620	0.116011	0.556539
C100	C	1.556620	0.616011	1.056539
H101	H	0.516708	-0.023852	0.000122
H102	H	1.016708	0.476148	0.500122
H103	H	0.596526	0.255875	0.000077
H104	H	1.096526	0.755875	0.500077
H105	H	0.347448	-0.026851	0.000133
H106	H	0.847448	0.473149	0.500133
C107	C	1.251574	-0.516856	-0.085218
C108	C	1.751574	-0.016856	0.414782
C109	C	1.237858	-0.466863	0.000201
C110	C	1.737858	0.033137	0.500201
H111	H	1.311228	-0.544409	-0.085195
H112	H	1.811228	-0.044409	0.414805
H113	H	1.210202	-0.557866	-0.085782
H114	H	1.710202	-0.057866	0.414218
H115	H	1.242606	-0.482194	-0.142609
H116	H	1.742606	0.017806	0.357391
H117	H	1.246819	-0.501526	0.057591
H118	H	1.746819	-0.001526	0.557591
H119	H	1.279242	-0.425848	0.000774
H120	H	1.779242	0.074152	0.500774
C121	C	1.239148	0.040963	0.508676
C122	C	1.739148	0.540963	1.008676
C123	C	1.184284	-0.003688	0.448833
C124	C	1.684284	0.496312	0.948833
H125	H	1.280421	0.002270	0.544009
H126	H	1.780421	0.502270	1.044009
H127	H	1.271314	0.075970	0.468053
H128	H	1.771314	0.575970	0.968053
H129	H	1.202915	0.074921	0.554564
H130	H	1.702915	0.574921	1.054564
H131	H	1.220517	-0.037641	0.402940
H132	H	1.720517	0.462359	0.902940
H133	H	1.152116	-0.038709	0.489460
H134	H	1.652116	0.461291	0.989460
C135	C	0.910289	-0.022521	0.000096
C136	C	1.410289	0.477479	0.500096
C137	C	0.820801	-0.040305	0.000098
C138	C	1.320801	0.459695	0.500098
H139	H	0.949178	-0.073881	0.000108
H140	H	1.449178	0.426119	0.500108
H141	H	0.921192	0.009181	-0.057579
H142	H	1.421192	0.509181	0.442421
H143	H	0.921188	0.009188	0.057767
H144	H	1.421188	0.509188	0.557767
H145	H	0.809900	-0.072008	-0.057578
H146	H	1.309900	0.427992	0.442422
H147	H	0.809893	-0.072020	0.057779
H148	H	1.309893	0.427980	0.557779
C149	C	0.202949	0.254560	0.000115
C150	C	0.702949	0.754560	0.500115
C151	C	0.292438	0.272341	0.000099
C152	C	0.792438	0.772341	0.500099
H153	H	0.164061	0.305921	0.000113
H154	H	0.664061	0.805921	0.500113
H155	H	0.192041	0.222856	-0.057545
H156	H	0.692041	0.722856	0.442455
H157	H	0.192051	0.222855	0.057801
H158	H	0.692051	0.722855	0.557801
H159	H	0.303338	0.304041	-0.057591
H160	H	0.803338	0.804041	0.442409
H161	H	0.303350	0.304059	0.057766
H162	H	0.803350	0.804059	0.557766
H163	H	1.136104	-0.341080	-0.150351
H164	H	1.636104	0.158920	0.349649
C165	C	0.875755	-0.394856	-0.174335
C166	C	1.375755	0.105144	0.325665
C167	C	0.964346	-0.433852	-0.174494
C168	C	1.464346	0.066148	0.325506
H169	H	0.845387	-0.411615	-0.231795
H170	H	1.345387	0.088385	0.268205
H171	H	0.845738	-0.411192	-0.116442
H172	H	1.345738	0.088808	0.383558
H173	H	0.876062	-0.335312	-0.174676
H174	H	1.376062	0.164688	0.325324
H175	H	0.964039	-0.493397	-0.174145
H176	H	1.464039	0.006603	0.325855
H177	H	0.994370	-0.417521	-0.232402
H178	H	1.494370	0.082479	0.267598
H179	H	0.635199	-0.021741	0.000126
H180	H	1.135199	0.478259	0.500126
H181	H	0.946241	0.219452	0.245122
H182	H	1.446241	0.719452	0.745122
H183	H	0.478022	0.253775	0.000076
H184	H	0.978022	0.753775	0.500076
H185	H	0.765774	0.258881	0.000056
H186	H	1.265774	0.758881	0.500056
H187	H	0.900512	-0.312499	0.000160
H188	H	1.400512	0.187501	0.500160
H189	H	0.977055	-0.426866	0.150570
H190	H	1.477055	0.073134	0.650570
C191	C	1.237651	-0.053752	0.297974
C192	C	1.737651	0.446248	0.797974
C193	C	1.184267	-0.003702	0.230297
C194	C	1.684267	0.496298	0.730297
H195	H	1.278916	-0.092456	0.262655
H196	H	1.778916	0.407544	0.762655
H197	H	1.269827	-0.018736	0.338561
H198	H	1.769827	0.481264	0.838561
H199	H	1.200412	-0.084018	0.338592
H200	H	1.700412	0.415982	0.838592
H201	H	1.221506	0.026570	0.189684
H202	H	1.721506	0.526570	0.689684
H203	H	1.152090	-0.038722	0.189693
H204	H	1.652090	0.461278	0.689693
H205	H	1.166973	0.012560	0.566210
H206	H	1.666973	0.512560	1.066210
C207	C	1.149971	-0.246571	0.174078
C208	C	1.649971	0.253429	0.674078
C209	C	1.148799	-0.334258	0.174895
C210	C	1.648799	0.165742	0.674895
H211	H	1.180295	-0.229890	0.231607
H212	H	1.680295	0.270110	0.731607
H213	H	1.180373	-0.230651	0.116256
H214	H	1.680373	0.269349	0.616256
H215	H	1.090036	-0.219707	0.173836
H216	H	1.590036	0.280293	0.673836
H217	H	1.208734	-0.361123	0.175130
H218	H	1.708734	0.138877	0.675130
H219	H	1.118399	-0.350187	0.232733
H220	H	1.618399	0.149813	0.732733
H221	H	0.946269	0.219464	0.566206
H222	H	1.446269	0.719464	1.066206
H223	H	1.166987	0.012562	0.755077
H224	H	1.666987	0.512562	1.255077
C225	C	0.875544	0.285740	0.702240
C226	C	1.375544	0.785740	1.202240
C227	C	0.928951	0.235702	0.769907
C228	C	1.428951	0.735702	1.269907
H229	H	0.834259	0.324419	0.737566
H230	H	1.334259	0.824419	1.237566
H231	H	0.912759	0.316027	0.661632
H232	H	1.412759	0.816027	1.161632
H233	H	0.843384	0.250708	0.661642
H234	H	1.343384	0.750708	1.161642
H235	H	0.961116	0.270734	0.810501
H236	H	1.461116	0.770734	1.310501
H237	H	0.891732	0.205413	0.810533
H238	H	1.391732	0.705413	1.310533
H239	H	0.946260	0.219453	0.433988
H240	H	1.446260	0.719453	0.933988
