data_functionalizedCrystal
_audit_creation_method	'MofGen! by Chris Wilmer'
_symmetry_space_group_name_H-M	'P1'
_symmetry_Int_Tables_number	1
_symmetry_cell_setting	triclinic
loop_
_symmetry_equiv_pos_as_xyz
  x,y,z
_cell_length_a	12.996460
_cell_length_b	10.654541
_cell_length_c	10.654545
_cell_angle_alpha	95.515322
_cell_angle_beta	90.003784
_cell_angle_gamma	89.995778
loop_
_atom_site_label
_atom_site_type_symbol
_atom_site_fract_x
_atom_site_fract_y
_atom_site_fract_z
O1	O	0.085529	-1.667846	0.176387
O2	O	0.085538	-1.302367	0.193196
O3	O	0.085533	-1.493509	0.002052
O4	O	0.085535	-1.476705	0.367531
O5	O	-0.085601	-1.493489	0.002041
O6	O	-0.085596	-1.302347	0.193185
O7	O	-0.085604	-1.667826	0.176376
Cu8	Cu	-0.101226	-1.485085	0.184780
Cu9	Cu	0.101160	-1.485109	0.184792
O10	O	-0.085599	-1.476685	0.367520
C11	C	-0.000028	-1.255559	0.191957
C12	C	-0.000024	-1.116116	0.188266
N13	N	-0.243573	-1.485077	0.184770
C14	C	-0.000032	-1.492265	-0.044751
C15	C	-0.000026	-1.488572	-0.184195
C16	C	-0.663387	-1.485107	0.184794
C17	C	-0.546582	-1.485095	0.184791
C18	C	-0.453484	-1.485093	0.184783
C19	C	-0.336671	-1.485080	0.184778
N20	N	0.243507	-1.485126	0.184792
C21	C	-0.000036	-1.714634	0.177615
C22	C	-0.000033	-1.854078	0.181306
C23	C	-0.000010	-1.088146	0.416831
C24	C	0.000001	-1.008652	0.529374
C25	C	0.000002	-0.877634	0.525898
C26	C	-0.000012	-0.826108	0.409867
C27	C	-0.000023	-0.905602	0.297324
C28	C	-0.000021	-1.036622	0.300812
C29	C	-0.000044	-0.933572	0.068763
C30	C	-0.000038	-1.064590	0.072235
C31	C	-0.000057	-0.882046	-0.047269
C32	C	-0.000061	-0.961540	-0.159814
C33	C	-0.000061	-1.092565	-0.156334
C34	C	-0.000049	-1.144084	-0.040308
C35	C	0.186549	-1.488609	-0.184191
C36	C	0.279837	-1.486898	-0.249699
C37	C	0.279838	-1.483429	-0.380718
C38	C	0.186542	-1.481667	-0.446231
C39	C	0.093255	-1.483379	-0.380723
C40	C	0.093263	-1.486852	-0.249702
C41	C	-0.093319	-1.483333	-0.380725
C42	C	-0.093322	-1.486811	-0.249708
C43	C	-0.186615	-1.481571	-0.446238
C44	C	-0.279904	-1.483292	-0.380731
C45	C	-0.279901	-1.486763	-0.249705
C46	C	-0.186609	-1.488522	-0.184199
C47	C	-0.000032	-1.477929	0.414323
C48	C	-0.000031	-1.481621	0.553766
H49	H	0.000009	-1.050619	0.623844
Cl50	Cl	0.000008	-1.252854	0.421209
Cl51	Cl	0.000006	-0.777695	0.667382
Cl52	Cl	-0.397177	-1.481063	-0.463093
Cl53	Cl	-0.000028	-0.661398	0.405502
Cl54	Cl	-0.000061	-0.717336	-0.051638
H55	H	-0.000037	-1.250764	-0.037463
Cl56	Cl	-0.000086	-0.896758	-0.305665
H57	H	-0.000074	-1.157283	-0.247981
H58	H	0.186558	-1.491449	-0.077511
Cl59	Cl	0.397117	-1.489147	-0.167339
Cl60	Cl	-0.186598	-1.492893	-0.019490
H61	H	0.355800	-1.482024	-0.434053
H62	H	0.186551	-1.478827	-0.552912
H63	H	-0.186607	-1.478740	-0.552920
Cl64	Cl	-0.397184	-1.488906	-0.167362
