data_functionalizedCrystal
_audit_creation_method	'MofGen! by Chris Wilmer'
_symmetry_space_group_name_H-M	'P1'
_symmetry_Int_Tables_number	1
_symmetry_cell_setting	triclinic
loop_
_symmetry_equiv_pos_as_xyz
  x,y,z
_cell_length_a	14.044220
_cell_length_b	14.044220
_cell_length_c	12.503572
_cell_angle_alpha	86.164750
_cell_angle_beta	86.156832
_cell_angle_gamma	86.811122
loop_
_atom_site_label
_atom_site_type_symbol
_atom_site_fract_x
_atom_site_fract_y
_atom_site_fract_z
O1	O	0.225116	-1.282200	0.089210
O2	O	0.558450	-0.948867	0.422543
O3	O	0.891783	-0.615533	0.755877
O4	O	0.216809	-1.005530	0.089237
O5	O	0.550142	-0.672197	0.422570
O6	O	0.883476	-0.338863	0.755904
O7	O	0.082627	-1.139712	0.089213
O8	O	0.415961	-0.806378	0.422547
O9	O	0.749294	-0.473045	0.755880
O10	O	0.359298	-1.148019	0.089234
O11	O	0.692631	-0.814685	0.422567
O12	O	1.025964	-0.481352	0.755900
O13	O	0.092737	-1.129622	-0.089427
O14	O	0.426070	-0.796289	0.243907
O15	O	0.759404	-0.462955	0.577240
O16	O	0.226918	-0.995440	-0.089403
O17	O	0.560252	-0.662107	0.243930
O18	O	0.893585	-0.328774	0.577264
O19	O	0.235226	-1.272110	-0.089430
O20	O	0.568559	-0.938777	0.243903
O21	O	0.901892	-0.605444	0.577237
Cu22	Cu	0.231995	-1.132854	-0.105728
Cu23	Cu	0.565328	-0.799521	0.227605
Cu24	Cu	0.898662	-0.466187	0.560939
Cu25	Cu	0.220040	-1.144786	0.105535
Cu26	Cu	0.553373	-0.811453	0.438868
Cu27	Cu	0.886706	-0.478120	0.772202
O28	O	0.369407	-1.137929	-0.089406
O29	O	0.702741	-0.804595	0.243927
O30	O	1.036074	-0.471262	0.577260
C31	C	0.052060	-1.131031	-0.000107
C32	C	0.385394	-0.797698	0.333227
C33	C	0.718727	-0.464365	0.666560
C34	C	-0.054082	-1.120187	-0.000107
C35	C	0.279251	-0.786853	0.333226
C36	C	0.612584	-0.453520	0.666560
C37	C	0.218228	-0.964864	-0.000080
C38	C	0.551561	-0.631530	0.333254
C39	C	0.884895	-0.298197	0.666587
C40	C	0.207383	-0.858721	-0.000070
C41	C	0.540716	-0.525388	0.333264
C42	C	0.874049	-0.192055	0.666597
C43	C	0.233807	-1.312777	-0.000111
C44	C	0.567140	-0.979444	0.333222
C45	C	0.900473	-0.646110	0.666556
C46	C	0.244651	-1.418920	-0.000114
C47	C	0.577985	-1.085586	0.333219
C48	C	0.911318	-0.752253	0.666553
C49	C	-0.248421	-1.100361	-0.000090
C50	C	0.084912	-0.767028	0.333244
C51	C	0.418246	-0.433695	0.666577
C52	C	-0.299551	-1.177275	-0.000094
C53	C	0.033783	-0.843942	0.333239
C54	C	0.367116	-0.510609	0.666573
C55	C	-0.407687	-1.166244	-0.000084
C56	C	-0.074354	-0.832911	0.333249
C57	C	0.258979	-0.499578	0.666582
C58	C	-0.140274	-1.111391	-0.000099
C59	C	0.193059	-0.778058	0.333234
C60	C	0.526392	-0.444724	0.666567
C61	C	0.399974	-1.146609	-0.000084
C62	C	0.733308	-0.813276	0.333249
C63	C	1.066641	-0.479943	0.666583
C64	C	0.506117	-1.157454	-0.000077
C65	C	0.839450	-0.824121	0.333257
C66	C	1.172783	-0.490788	0.666590
N67	N	0.240404	-1.124469	-0.254319
N68	N	0.573737	-0.791135	0.079015
N69	N	0.907071	-0.457802	0.412348
C70	C	0.187558	-0.664382	-0.000092
C71	C	0.520891	-0.331049	0.333241
C72	C	0.854224	0.002284	0.666574
C73	C	0.264472	-0.613253	-0.000091
C74	C	0.597805	-0.279919	0.333242
C75	C	0.931139	0.053414	0.666575
C76	C	0.253441	-0.505116	-0.000104
C77	C	0.586775	-0.171782	0.333229
C78	C	0.920108	0.161551	0.666563
C79	C	0.198587	-0.772529	-0.000080
C80	C	0.531921	-0.439196	0.333254
C81	C	0.865254	-0.105863	0.666587
C82	C	0.252782	-1.112134	-0.473432
C83	C	0.586115	-0.778800	-0.140098
C84	C	0.919449	-0.445467	0.193235
C85	C	0.199249	-1.165511	-0.526768
C86	C	0.532582	-0.832178	-0.193435
C87	C	0.865915	-0.498844	0.139898
C88	C	0.206136	-1.158648	-0.648690
C89	C	0.539469	-0.825314	-0.315357
C90	C	0.872802	-0.491981	0.017976
C91	C	0.245896	-1.118996	-0.351499
C92	C	0.579229	-0.785662	-0.018165
C93	C	0.912563	-0.452329	0.315168
N94	N	0.211624	-1.153179	0.254126
N95	N	0.544957	-0.819846	0.587459
N96	N	0.878290	-0.486512	0.920792
H97	H	-0.262115	-1.251413	-0.000029
H98	H	0.071218	-0.918079	0.333304
H99	H	0.404551	-0.584746	0.666638
F100	F	0.132893	-1.232289	-0.466773
F101	F	0.466226	-0.898956	-0.133439
F102	F	0.799559	-0.565622	0.199894
H103	H	-0.285859	-1.026234	-0.000080
H104	H	0.047475	-0.692901	0.333253
H105	H	0.380808	-0.359568	0.666587
F106	F	0.090667	-0.615449	-0.000103
F107	F	0.424000	-0.282116	0.333231
F108	F	0.757333	0.051217	0.666564
F109	F	0.361370	-0.662186	-0.000079
F110	F	0.694703	-0.328853	0.333254
F111	F	1.028037	0.004480	0.666587
F112	F	0.319446	-1.045671	-0.533425
F113	F	0.652780	-0.712338	-0.200092
F114	F	0.986113	-0.379005	0.133241
