data_functionalizedCrystal
_audit_creation_method	'MofGen! by Chris Wilmer'
_symmetry_space_group_name_H-M	'P1'
_symmetry_Int_Tables_number	1
_symmetry_cell_setting	triclinic
loop_
_symmetry_equiv_pos_as_xyz
  x,y,z
_cell_length_a	12.759401
_cell_length_b	16.625546
_cell_length_c	12.759393
_cell_angle_alpha	89.964718
_cell_angle_beta	89.982824
_cell_angle_gamma	90.022629
loop_
_atom_site_label
_atom_site_type_symbol
_atom_site_fract_x
_atom_site_fract_y
_atom_site_fract_z
Zn1	Zn	1.606185	-0.320958	-0.593948
Zn2	Zn	1.606060	-0.455813	-0.418253
Zn3	Zn	1.430491	-0.320998	-0.418287
Zn4	Zn	1.430452	-0.455753	-0.593895
O5	O	1.518297	-0.388380	-0.506096
O6	O	1.753189	-0.338855	-0.570649
O7	O	1.582734	-0.437971	-0.271237
O8	O	1.453866	-0.208160	-0.441625
O9	O	1.753097	-0.437932	-0.441568
O10	O	1.582948	-0.208131	-0.570682
O11	O	1.453744	-0.338923	-0.271261
O12	O	1.283465	-0.338865	-0.441574
O13	O	1.453799	-0.437830	-0.740923
O14	O	1.283436	-0.437869	-0.570592
O15	O	1.582910	-0.338797	-0.740962
O16	O	1.582696	-0.568637	-0.441517
O17	O	1.453678	-0.568593	-0.570560
C18	C	1.245329	-0.388365	-0.506081
C19	C	1.128553	-0.388378	-0.506100
C20	C	1.073703	-0.440012	-0.573169
C21	C	0.963979	-0.440022	-0.573180
C22	C	0.963964	-0.336763	-0.439045
C23	C	1.073686	-0.336749	-0.439040
C24	C	1.128570	-0.491641	-0.640229
C25	C	1.073720	-0.543280	-0.707303
C26	C	0.963996	-0.543290	-0.707314
C27	C	0.909122	-0.491662	-0.640252
C28	C	1.518197	-0.597871	-0.506052
C29	C	1.518251	-0.687492	-0.506068
C30	C	1.518434	-1.015668	-0.506177
C31	C	1.518380	-0.924359	-0.506150
C32	C	1.518342	-0.851583	-0.506122
C33	C	1.518289	-0.760269	-0.506096
C34	C	1.792330	-0.388396	-0.506111
C35	C	1.909107	-0.388402	-0.506117
C36	C	1.518364	-0.388302	-0.780129
C37	C	1.518393	-0.388269	-0.896906
C38	C	1.518425	-0.178071	-0.506163
C39	C	1.518480	-0.088450	-0.506191
C40	C	1.451187	-0.439811	-0.951750
C41	C	1.451226	-0.439782	-1.061474
C42	C	1.585678	-0.336661	-1.061501
C43	C	1.585644	-0.336695	-0.951779
C44	C	1.383936	-0.491385	-0.896877
C45	C	1.316725	-0.542931	-0.951720
C46	C	1.316763	-0.542902	-1.061445
C47	C	1.384013	-0.491327	-1.116325
C48	C	1.518290	-0.388400	-0.233128
C49	C	1.518465	-0.388206	-0.116352
H50	H	0.919341	-0.585331	-0.761936
C51	C	1.383869	-0.491388	-1.235456
C52	C	1.310606	-0.547556	-1.271744
C53	C	1.310431	-0.547625	-1.381477
H54	H	1.451606	-0.505358	-1.260398
H55	H	1.365690	-0.439361	-1.260335
H56	H	1.328791	-0.599571	-1.246875
H57	H	1.242859	-0.533599	-1.246830
H58	H	1.292252	-0.495599	-1.406357
H59	H	1.378171	-0.561594	-1.406410
H60	H	1.260717	-0.585729	-1.406113
H61	H	1.640428	-0.294670	-1.106193
C62	C	0.904200	-0.280811	-0.366266
C63	C	0.796370	-0.291893	-0.380603
C64	C	0.741284	-0.240375	-0.313560
H65	H	0.922070	-0.226612	-0.381694
H66	H	0.922096	-0.292558	-0.295626
H67	H	0.778480	-0.280140	-0.451226
H68	H	0.778468	-0.346081	-0.365167
H69	H	0.759181	-0.252122	-0.242920
H70	H	0.759163	-0.186179	-0.328994
H71	H	0.668117	-0.247892	-0.323272
H72	H	1.640367	-0.294724	-0.907124
H73	H	1.118406	-0.585309	-0.761909
H74	H	0.819777	-0.491667	-0.640276
H75	H	1.118346	-0.294698	-0.384435
C76	C	1.383785	-0.491572	-0.777748
C77	C	1.310529	-0.547784	-0.741428
C78	C	1.310374	-0.547986	-0.631694
H79	H	1.365612	-0.439593	-0.752807
H80	H	1.451549	-0.505572	-0.752889
H81	H	1.242780	-0.533779	-0.766277
H82	H	1.328685	-0.599771	-0.766340
H83	H	1.378138	-0.561986	-0.606835
H84	H	1.292202	-0.496004	-0.606763
H85	H	1.260678	-0.586130	-0.607037
C86	C	1.243858	-0.599066	-0.892190
C87	C	1.266723	-0.678836	-0.918833
C88	C	1.199634	-0.730574	-0.864004
H89	H	1.173240	-0.587370	-0.910127
H90	H	1.253474	-0.591755	-0.818980
H91	H	1.257098	-0.686143	-0.992027
H92	H	1.337329	-0.690557	-0.900894
H93	H	1.209250	-0.723263	-0.790794
H94	H	1.129019	-0.718871	-0.881945
H95	H	1.215145	-0.784704	-0.882066
H96	H	1.262043	-0.584878	-1.106095
H97	H	1.217913	-0.491640	-0.640226
