data_functionalizedCrystal
_audit_creation_method	'MofGen! by Chris Wilmer'
_symmetry_space_group_name_H-M	'P1'
_symmetry_Int_Tables_number	1
_symmetry_cell_setting	triclinic
loop_
_symmetry_equiv_pos_as_xyz
  x,y,z
_cell_length_a	21.295417
_cell_length_b	12.759401
_cell_length_c	12.759393
_cell_angle_alpha	90.019003
_cell_angle_beta	89.960626
_cell_angle_gamma	89.973523
loop_
_atom_site_label
_atom_site_type_symbol
_atom_site_fract_x
_atom_site_fract_y
_atom_site_fract_z
Zn1	Zn	-0.250639	-1.606128	-0.593971
Zn2	Zn	-0.355923	-1.605978	-0.418268
Zn3	Zn	-0.250664	-1.430434	-0.418306
Zn4	Zn	-0.355866	-1.430371	-0.593905
O5	O	-0.303273	-1.518228	-0.506112
O6	O	-0.264618	-1.753129	-0.570676
O7	O	-0.341994	-1.582655	-0.271252
O8	O	-0.162571	-1.453830	-0.441652
O9	O	-0.341970	-1.753019	-0.441588
O10	O	-0.162553	-1.582912	-0.570712
O11	O	-0.264661	-1.453683	-0.271280
O12	O	-0.264607	-1.283404	-0.441587
O13	O	-0.341873	-1.453722	-0.740935
O14	O	-0.341898	-1.283358	-0.570599
O15	O	-0.264563	-1.582850	-0.740984
O16	O	-0.444005	-1.582593	-0.441523
O17	O	-0.443963	-1.453576	-0.570562
C18	C	-0.303249	-1.245260	-0.506090
C19	C	-0.303255	-1.128484	-0.506106
C20	C	-0.263052	-1.073672	-0.573425
C21	C	-0.263060	-0.963948	-0.573428
C22	C	-0.343480	-0.963856	-0.438791
C23	C	-0.343468	-1.073579	-0.438783
C24	C	-0.216624	-1.073724	-0.651160
C25	C	-0.216632	-0.964000	-0.651164
C26	C	-0.466825	-1.518090	-0.506054
C27	C	-0.536793	-1.518127	-0.506064
C28	C	-0.569660	-1.585366	-0.438942
C29	C	-0.635403	-1.585416	-0.438966
C30	C	-0.668275	-1.518207	-0.506101
C31	C	-0.635400	-1.450963	-0.573236
C32	C	-0.569659	-1.450923	-0.573218
N33	N	-0.771536	-1.426299	-0.514103
N34	N	-0.833988	-1.426340	-0.514114
C35	C	-0.866350	-1.518324	-0.506161
N36	N	-0.833901	-1.610268	-0.498176
N37	N	-0.771444	-1.610226	-0.498159
C38	C	-0.739561	-1.518243	-0.506128
C39	C	-0.970503	-1.585623	-0.439061
C40	C	-1.036246	-1.585674	-0.439092
C41	C	-1.036243	-1.451212	-0.573356
C42	C	-0.970500	-1.451170	-0.573331
C43	C	-0.937634	-1.518374	-0.506177
C44	C	-0.139083	-1.518394	-0.506194
C45	C	-0.069115	-1.518466	-0.506228
C46	C	-0.303209	-1.518296	-0.780146
C47	C	-0.303182	-1.518325	-0.896923
C48	C	-0.303289	-0.792261	-0.506128
C49	C	-0.303275	-0.909037	-0.506118
C50	C	-0.262907	-1.451198	-0.951805
C51	C	-0.262888	-1.451230	-1.061529
C52	C	-0.343421	-1.585524	-1.061479
C53	C	-0.343442	-1.585487	-0.951757
C54	C	-0.216410	-1.373667	-0.951835
C55	C	-0.216391	-1.373699	-1.061559
C56	C	-0.303291	-1.518220	-0.233145
C57	C	-0.303141	-1.518395	-0.116369
H58	H	-0.234140	-1.107780	-0.728395
H59	H	-1.063006	-1.640435	-0.384435
H60	H	-0.943738	-1.396413	-0.627983
C61	C	-0.234360	-0.923792	-0.761028
C62	C	-0.298305	-0.952919	-0.809181
C63	C	-0.316033	-0.912710	-0.919039
C64	C	-0.269817	-0.843372	-0.980743
C65	C	-0.205868	-0.814241	-0.932590
C66	C	-0.188140	-0.854451	-0.822733
H67	H	-0.332520	-1.004250	-0.763503
H68	H	-0.363373	-0.934275	-0.954685
H69	H	-0.282941	-0.813607	-1.062067
H70	H	-0.171653	-0.762910	-0.978268
H71	H	-0.140801	-0.832886	-0.787087
C72	C	-0.533511	-1.659295	-0.365078
C73	C	-0.488384	-1.613788	-0.282536
C74	C	-0.452235	-1.687717	-0.208670
C75	C	-0.461213	-1.807154	-0.217346
C76	C	-0.506343	-1.852667	-0.299891
C77	C	-0.542492	-1.778738	-0.373757
H78	H	-0.481735	-1.525368	-0.276111
H79	H	-0.418826	-1.654025	-0.147565
H80	H	-0.434454	-1.861881	-0.162666
H81	H	-0.512992	-1.941087	-0.306316
H82	H	-0.575900	-1.812431	-0.434862
H83	H	-0.376247	-1.640132	-0.907075
H84	H	-0.167851	-1.103514	-0.629518
C85	C	-1.072394	-1.377277	-0.647204
C86	C	-1.144707	-1.377315	-0.647227
C87	C	-1.180862	-1.303379	-0.721079
C88	C	-1.144704	-1.229407	-0.794907
C89	C	-1.072387	-1.229366	-0.794887
C90	C	-1.036232	-1.303302	-0.721035
H91	H	-1.171477	-1.432076	-0.592572
H92	H	-1.234396	-1.303410	-0.721093
H93	H	-1.171468	-1.174675	-0.849577
H94	H	-1.045618	-1.174605	-0.849542
H95	H	-0.982698	-1.303271	-0.721021
H96	H	-0.376199	-1.640206	-1.106138
C97	C	-0.239953	-1.269259	-1.107515
C98	C	-0.298274	-1.267550	-1.178783
C99	C	-0.321835	-1.163110	-1.224733
C100	C	-0.287076	-1.060379	-1.199416
C101	C	-0.228751	-1.062084	-1.128144
C102	C	-0.205190	-1.166523	-1.082193
H103	H	-0.324008	-1.343601	-1.197528
H104	H	-0.365011	-1.161849	-1.277494
H105	H	-0.304517	-0.983066	-1.233431
H106	H	-0.203017	-0.986032	-1.109399
H107	H	-0.162014	-1.167785	-1.029433
C108	C	-0.153862	-1.413090	-0.905885
C109	C	-0.100244	-1.446912	-0.979557
C110	C	-0.037698	-1.486339	-0.933605
C111	C	-0.028769	-1.491946	-0.813982
C112	C	-0.082389	-1.458123	-0.740303
C113	C	-0.144935	-1.418695	-0.786254
H114	H	-0.106852	-1.442762	-1.068116
H115	H	0.001995	-1.511377	-0.988148
H116	H	0.017532	-1.521132	-0.779966
H117	H	-0.075781	-1.462272	-0.651744
H118	H	-0.184628	-1.393658	-0.731711
H119	H	-0.170299	-0.929981	-0.622173
H120	H	-0.376199	-1.118202	-0.383956
C121	C	-0.671567	-1.659372	-0.365117
C122	C	-0.635416	-1.733289	-0.291249
C123	C	-0.671579	-1.807241	-0.217397
C124	C	-0.743891	-1.807276	-0.217413
C125	C	-0.780046	-1.733357	-0.291283
C126	C	-0.743884	-1.659405	-0.365136
H127	H	-0.581883	-1.733265	-0.291235
H128	H	-0.644814	-1.861961	-0.162713
H129	H	-0.770661	-1.862020	-0.162743
H130	H	-0.833580	-1.733381	-0.291297
H131	H	-0.770648	-1.604685	-0.419820
C132	C	-0.671557	-1.377032	-0.647085
C133	C	-0.743869	-1.377068	-0.647105
C134	C	-0.780025	-1.303139	-0.720962
C135	C	-0.743868	-1.229174	-0.794799
C136	C	-0.671551	-1.229135	-0.794782
C137	C	-0.635396	-1.303064	-0.720925
H138	H	-0.770639	-1.431824	-0.592443
H139	H	-0.833559	-1.303168	-0.720974
H140	H	-0.770633	-1.174447	-0.849472
H141	H	-0.644782	-1.174379	-0.849443
H142	H	-0.581862	-1.303034	-0.720913
H143	H	-0.229462	-1.292272	-0.922052
C144	C	-0.533501	-1.376950	-0.647052
C145	C	-0.542605	-1.257524	-0.638376
C146	C	-0.506446	-1.183549	-0.712209
C147	C	-0.461183	-1.229000	-0.794719
C148	C	-0.452078	-1.348431	-0.803399
C149	C	-0.488237	-1.422407	-0.729565
H150	H	-0.576112	-1.223874	-0.577294
H151	H	-0.513187	-1.095138	-0.705784
H152	H	-0.434416	-1.174239	-0.849375
H153	H	-0.418570	-1.382082	-0.864480
H154	H	-0.481496	-1.510818	-0.735990
C155	C	-0.934343	-1.659556	-0.365211
C156	C	-0.889214	-1.614055	-0.282669
C157	C	-0.853055	-1.687991	-0.208822
C158	C	-0.862026	-1.807427	-0.217518
C159	C	-0.907157	-1.852935	-0.300064
C160	C	-0.943316	-1.778999	-0.373911
H161	H	-0.882571	-1.525635	-0.276229
H162	H	-0.819646	-1.654302	-0.147716
H163	H	-0.835259	-1.862159	-0.162852
H164	H	-0.913800	-1.941355	-0.306504
H165	H	-0.976725	-1.812688	-0.435016
C166	C	-0.150528	-1.403229	-1.101843
C167	C	-0.141718	-1.500903	-1.171248
C168	C	-0.075859	-1.530432	-1.211534
C169	C	-0.018809	-1.462289	-1.182414
C170	C	-0.027617	-1.364609	-1.113006
C171	C	-0.093476	-1.335080	-1.072720
H172	H	-0.183951	-1.551352	-1.192808
H173	H	-0.069339	-1.602741	-1.262915
H174	H	0.029944	-1.484148	-1.212236
H175	H	0.014616	-1.314160	-1.091446
H176	H	-0.099996	-1.262770	-1.021339
H177	H	-0.376220	-0.919139	-0.383980
