data_functionalizedCrystal
_audit_creation_method	'MofGen! by Chris Wilmer'
_symmetry_space_group_name_H-M	'P1'
_symmetry_Int_Tables_number	1
_symmetry_cell_setting	triclinic
loop_
_symmetry_equiv_pos_as_xyz
  x,y,z
_cell_length_a	18.050589
_cell_length_b	19.805407
_cell_length_c	19.805399
_cell_angle_alpha	90.016510
_cell_angle_beta	89.976299
_cell_angle_gamma	89.975629
loop_
_atom_site_label
_atom_site_type_symbol
_atom_site_fract_x
_atom_site_fract_y
_atom_site_fract_z
Zn1	Zn	-0.295743	-1.034709	-0.382738
Zn2	Zn	0.204257	-0.534709	0.117262
Zn3	Zn	-0.419938	-1.034626	-0.269560
Zn4	Zn	0.080062	-0.534626	0.230440
Zn5	Zn	-0.295758	-0.921529	-0.269563
Zn6	Zn	0.204242	-0.421529	0.230437
Zn7	Zn	-0.419887	-0.921484	-0.382707
Zn8	Zn	0.080113	-0.421484	0.117293
O9	O	-0.357831	-0.978087	-0.326142
O10	O	0.142169	-0.478087	0.173858
O11	O	-0.312232	-1.129415	-0.367736
O12	O	0.187768	-0.629415	0.132264
O13	O	-0.403493	-1.019607	-0.174844
O14	O	0.096507	-0.519607	0.325156
O15	O	-0.191831	-0.936597	-0.284590
O16	O	0.308169	-0.436597	0.215410
O17	O	-0.403478	-1.129353	-0.284585
O18	O	0.096522	-0.629353	0.215415
O19	O	-0.191820	-1.019750	-0.367739
O20	O	0.308180	-0.519750	0.132261
O21	O	-0.312258	-0.936516	-0.174846
O22	O	0.187742	-0.436516	0.325154
O23	O	-0.312209	-0.826807	-0.284560
O24	O	0.187791	-0.326807	0.215440
O25	O	-0.403391	-0.936519	-0.477428
O26	O	0.096609	-0.436519	0.022572
O27	O	-0.403406	-0.826773	-0.367687
O28	O	0.096594	-0.326773	0.132313
O29	O	-0.312183	-1.019706	-0.477450
O30	O	0.187817	-0.519706	0.022550
O31	O	-0.523856	-1.019563	-0.284555
O32	O	-0.023856	-0.519563	0.215445
O33	O	-0.523818	-0.936438	-0.367684
O34	O	-0.023818	-0.436438	0.132316
C35	C	-0.357804	-0.802231	-0.326121
C36	C	0.142196	-0.302231	0.173879
C37	C	-0.357810	-0.726999	-0.326128
C38	C	0.142190	-0.226999	0.173872
C39	C	-0.550783	-0.978005	-0.326131
C40	C	-0.050783	-0.478005	0.173869
C41	C	-0.633329	-0.978032	-0.326149
C42	C	-0.133329	-0.478032	0.173851
C43	C	-0.310382	-0.691687	-0.369490
C44	C	0.189618	-0.191687	0.130510
C45	C	-0.310384	-0.620999	-0.369491
C46	C	0.189616	-0.120999	0.130509
C47	C	-0.357819	-0.585623	-0.326133
C48	C	0.142181	-0.085623	0.173867
C49	C	-0.405250	-0.620940	-0.282767
C50	C	0.094750	-0.120940	0.217233
C51	C	-0.405243	-0.691627	-0.282763
C52	C	0.094757	-0.191627	0.217237
C53	C	-0.405277	-0.335867	-0.282780
C54	C	0.094723	0.164133	0.217220
C55	C	-0.405281	-0.265175	-0.282789
C56	C	0.094719	0.234825	0.217211
C57	C	-0.310418	-0.265238	-0.369509
C58	C	0.189582	0.234762	0.130491
C59	C	-0.310411	-0.335926	-0.369505
C60	C	0.189589	0.164074	0.130495
C61	C	-0.357839	-0.371236	-0.326136
C62	C	0.142161	0.128764	0.173864
C63	C	-0.357835	-0.447884	-0.326135
C64	C	0.142165	0.052116	0.173865
C65	C	-0.357828	-0.508976	-0.326137
C66	C	0.142172	-0.008976	0.173863
C67	C	-0.832787	-0.932873	-0.371338
C68	C	-0.332787	-0.432873	0.128662
C69	C	-0.882226	-0.916378	-0.309575
C70	C	-0.382226	-0.416378	0.190425
C71	C	-0.784460	-0.978099	-0.326157
C72	C	-0.284460	-0.478099	0.173843
C73	C	-0.882102	-0.994627	-0.387928
C74	C	-0.382102	-0.494627	0.112072
C75	C	-0.930445	-0.978162	-0.326171
C76	C	-0.430445	-0.478162	0.173829
C77	C	-0.832812	-0.961571	-0.264362
C78	C	-0.332812	-0.461571	0.235638
C79	C	-0.832683	-1.039849	-0.342756
C80	C	-0.332683	-0.539849	0.157244
C81	C	-0.882100	-1.023377	-0.280950
C82	C	-0.382100	-0.523377	0.219050
C83	C	-0.700361	-0.978061	-0.326150
C84	C	-0.200361	-0.478061	0.173850
C85	C	-1.014541	-0.978200	-0.326172
C86	C	-0.514541	-0.478200	0.173828
C87	C	-0.164126	-0.978187	-0.326168
C88	C	0.335874	-0.478187	0.173832
C89	C	-0.081580	-0.978230	-0.326179
C90	C	0.418420	-0.478230	0.173821
C91	C	-0.357780	-0.978117	-0.502685
C92	C	0.142220	-0.478117	-0.002685
C93	C	-0.357758	-0.978129	-0.577917
C94	C	0.142242	-0.478129	-0.077917
C95	C	-0.357854	-0.154630	-0.326157
C96	C	0.142146	0.345370	0.173843
C97	C	-0.357849	-0.229862	-0.326148
C98	C	0.142151	0.270138	0.173852
C99	C	-0.310248	-0.934876	-0.613262
C100	C	0.189752	-0.434876	-0.113262
C101	C	-0.310233	-0.934885	-0.683950
C102	C	0.189767	-0.434885	-0.183950
C103	C	-0.357726	-0.978152	-0.719292
C104	C	0.142274	-0.478152	-0.219292
C105	C	-0.405241	-1.021407	-0.683943
C106	C	0.094759	-0.521407	-0.183943
C107	C	-0.405259	-1.021394	-0.613255
C108	C	0.094741	-0.521394	-0.113255
C109	C	-0.405172	-1.021461	-0.969016
C110	C	0.094828	-0.521461	-0.469016
C111	C	-0.405149	-1.021472	-1.039708
C112	C	0.094851	-0.521472	-0.539708
C113	C	-0.310146	-0.934952	-1.039711
C114	C	0.189854	-0.434952	-0.539711
C115	C	-0.310164	-0.934939	-0.969024
C116	C	0.189836	-0.434939	-0.469024
C117	C	-0.357682	-0.978191	-0.933680
C118	C	0.142318	-0.478191	-0.433680
C119	C	-0.357698	-0.978180	-0.857031
C120	C	0.142302	-0.478180	-0.357031
C121	C	-0.357706	-0.978167	-0.795940
C122	C	0.142294	-0.478167	-0.295940
C123	C	-0.357829	-0.978096	-0.150286
C124	C	0.142171	-0.478096	0.349714
C125	C	-0.357642	-0.978215	-0.075054
C126	C	0.142358	-0.478215	0.424946
H127	H	-0.271757	-0.720485	-0.404799
H128	H	0.228243	-0.220485	0.095201
C129	C	-0.216620	-0.628162	-0.455218
C130	C	0.283380	-0.128162	0.044782
C131	C	-0.258251	-0.582184	-0.417158
C132	C	0.241749	-0.082184	0.082842
H133	H	-0.184437	-0.604198	-0.484648
H134	H	0.315563	-0.104198	0.015352
H135	H	-0.188170	-0.655732	-0.425773
H136	H	0.311830	-0.155732	0.074227
H137	H	-0.249023	-0.655731	-0.481054
H138	H	0.250977	-0.155731	0.018946
H139	H	-0.225849	-0.554619	-0.391318
H140	H	0.274151	-0.054619	0.108682
H141	H	-0.286704	-0.554603	-0.446607
H142	H	0.213296	-0.054603	0.053393
C143	C	-0.447416	-0.156786	-0.244294
C144	C	0.052584	0.343214	0.255706
C145	C	-0.457424	-0.226287	-0.235125
C146	C	0.042576	0.273713	0.264875
H147	H	-0.479609	-0.132780	-0.214873
H148	H	0.020391	0.367220	0.285127
H149	H	-0.397510	-0.145218	-0.234469
H150	H	0.102490	0.354782	0.265531
H151	H	-0.458354	-0.145226	-0.289757
H152	H	0.041646	0.354774	0.210243
H153	H	-0.446480	-0.237848	-0.189662
H154	H	0.053520	0.262152	0.310338
H155	H	-0.507341	-0.237860	-0.244945
H156	H	-0.007341	0.262140	0.255055
C157	C	-0.415426	-0.771081	-0.191695
C158	C	0.084574	-0.271081	0.308305
C159	C	-0.457380	-0.730443	-0.235098
C160	C	0.042620	-0.230443	0.264902
H161	H	-0.447613	-0.795039	-0.162265
H162	H	0.052387	-0.295039	0.337735
H163	H	-0.387182	-0.802263	-0.217516
H164	H	0.112818	-0.302263	0.282484
H165	H	-0.383037	-0.743498	-0.165860
H166	H	0.116963	-0.243498	0.334140
H167	H	-0.489765	-0.758026	-0.260937
H168	H	0.010235	-0.258026	0.239063
H169	H	-0.485636	-0.699258	-0.209274
H170	H	0.014364	-0.199258	0.290726
C171	C	-0.210528	-0.415459	-0.379057
C172	C	0.289472	0.084541	0.120943
C173	C	-0.258271	-0.374812	-0.417164
C174	C	0.241729	0.125188	0.082836
H175	H	-0.178340	-0.439468	-0.408480
H176	H	0.321660	0.060532	0.091520
H177	H	-0.182083	-0.387881	-0.349620
H178	H	0.317917	0.112119	0.150380
H179	H	-0.238784	-0.446603	-0.353234
H180	H	0.261216	0.053397	0.146766
H181	H	-0.230014	-0.343665	-0.442983
H182	H	0.269986	0.156335	0.057017
H183	H	-0.286718	-0.402393	-0.446613
H184	H	0.213282	0.097607	0.053387
C185	C	-0.447296	-1.059916	-1.148067
C186	C	0.052704	-0.559916	-0.648067
C187	C	-0.457355	-1.069035	-1.078559
C188	C	0.042645	-0.569035	-0.578559
H189	H	-0.479520	-1.089283	-1.172051
H190	H	0.020480	-0.589283	-0.672051
H191	H	-0.458155	-1.014441	-1.159643
H192	H	0.041845	-0.514441	-0.659643
H193	H	-0.397393	-1.069851	-1.159648
H194	H	0.102607	-0.569851	-0.659648
H195	H	-0.507258	-1.059095	-1.066978
H196	H	-0.007258	-0.559095	-0.566978
H197	H	-0.446502	-1.114521	-1.066979
H198	H	0.053498	-0.614521	-0.566979
H199	H	-0.903617	-1.061650	-0.242704
H200	H	-0.403617	-0.561650	0.257296
H201	H	-0.271457	-0.899732	-1.068496
H202	H	0.228543	-0.399732	-0.568496
C203	C	-0.828112	-1.127463	-0.426461
C204	C	-0.328112	-0.627463	0.073539
C205	C	-0.803277	-1.110287	-0.361730
C206	C	-0.303277	-0.610287	0.138270
H207	H	-0.809952	-1.170947	-0.438181
H208	H	-0.309952	-0.670947	0.061819
H209	H	-0.880726	-1.127900	-0.427008
H210	H	-0.380726	-0.627900	0.072992
H211	H	-0.810489	-1.095197	-0.458097
H212	H	-0.310489	-0.595197	0.041903
H213	H	-0.820905	-1.142551	-0.330093
H214	H	-0.320905	-0.642551	0.169907
H215	H	-0.750652	-1.109856	-0.361178
H216	H	-0.250652	-0.609856	0.138822
H217	H	-0.443941	-1.056621	-0.584479
H218	H	0.056059	-0.556621	-0.084479
C219	C	-0.954310	-0.850512	-0.231764
C220	C	-0.454310	-0.350512	0.268236
C221	C	-0.911608	-0.845921	-0.290623
C222	C	-0.411608	-0.345921	0.209377
H223	H	-0.972443	-0.807014	-0.220067
H224	H	-0.472443	-0.307014	0.279933
H225	H	-0.994833	-0.880144	-0.239304
H226	H	-0.494833	-0.380144	0.260696
H227	H	-0.924607	-0.867483	-0.196002
H228	H	-0.424607	-0.367483	0.303998
H229	H	-0.941312	-0.828955	-0.326387
H230	H	-0.441312	-0.328955	0.173613
H231	H	-0.871079	-0.816279	-0.283087
H232	H	-0.371079	-0.316279	0.216913
C233	C	-0.274411	-0.243524	-0.484181
C234	C	0.225589	0.256476	0.015819
C235	C	-0.258280	-0.226422	-0.417178
C236	C	0.241720	0.273578	0.082822
H237	H	-0.242228	-0.219558	-0.513610
H238	H	0.257772	0.280442	-0.013610
H239	H	-0.267618	-0.290679	-0.490380
H240	H	0.232382	0.209321	0.009620
H241	H	-0.324326	-0.231922	-0.493998
H242	H	0.175674	0.268078	0.006002
H243	H	-0.208366	-0.238029	-0.407360
H244	H	0.291634	0.261971	0.092640
H245	H	-0.265066	-0.179256	-0.410977
H246	H	0.234934	0.320744	0.089023
C247	C	-0.499062	-1.107000	-0.976124
C248	C	0.000938	-0.607000	-0.476124
C249	C	-0.457390	-1.069015	-0.930172
C250	C	0.042610	-0.569015	-0.430172
H251	H	-0.531294	-1.136364	-0.952140
H252	H	-0.031294	-0.636364	-0.452140
H253	H	-0.527461	-1.077502	-1.003682
H254	H	-0.027461	-0.577502	-0.503682
H255	H	-0.466688	-1.132903	-1.003706
H256	H	0.033312	-0.632903	-0.503706
H257	H	-0.489763	-1.043109	-0.902593
H258	H	0.010237	-0.543109	-0.402593
H259	H	-0.428988	-1.098517	-0.902603
H260	H	0.071012	-0.598517	-0.402603
C261	C	-0.273982	-0.820342	-0.947250
C262	C	0.226018	-0.320342	-0.447250
C263	C	-0.257961	-0.887377	-0.930175
C264	C	0.242039	-0.387377	-0.430175
H265	H	-0.241757	-0.790978	-0.923263
H266	H	0.258243	-0.290978	-0.423263
H267	H	-0.267167	-0.814164	-0.994401
H268	H	0.232833	-0.314164	-0.494401
H269	H	-0.323884	-0.810419	-0.935654
H270	H	0.176116	-0.310419	-0.435654
H271	H	-0.208060	-0.897301	-0.941776
H272	H	0.291940	-0.397301	-0.441776
H273	H	-0.264770	-0.893558	-0.883013
H274	H	0.235230	-0.393558	-0.383013
H275	H	-0.443896	-0.364608	-0.247467
H276	H	0.056104	0.135392	0.252533
H277	H	-0.271569	-0.899647	-0.584491
H278	H	0.228431	-0.399647	-0.084491
H279	H	-0.443869	-0.592132	-0.247460
H280	H	0.056131	-0.092132	0.252540
H281	H	-0.443914	-1.056632	-0.712724
H282	H	0.056086	-0.556632	-0.212724
H283	H	-0.271548	-0.899661	-0.712725
H284	H	0.228452	-0.399661	-0.212725
H285	H	-0.811133	-0.894571	-0.409492
H286	H	-0.311133	-0.394571	0.090508
H287	H	-0.811250	-0.947555	-0.212115
H288	H	-0.311250	-0.447555	0.287885
C289	C	-0.886431	-0.966008	-0.505654
C290	C	-0.386431	-0.466008	-0.005654
C291	C	-0.911329	-1.013472	-0.458438
C292	C	-0.411329	-0.513472	0.041562
H293	H	-0.904470	-0.977642	-0.549185
H294	H	-0.404470	-0.477642	-0.049185
H295	H	-0.904127	-0.922481	-0.493559
H296	H	-0.404127	-0.422481	0.006441
H297	H	-0.833809	-0.965720	-0.506246
H298	H	-0.333809	-0.465720	-0.006246
H299	H	-0.963952	-1.013756	-0.457843
H300	H	-0.463952	-0.513756	0.042157
H301	H	-0.893637	-1.057011	-0.470536
H302	H	-0.393637	-0.557011	0.029464
