data_functionalizedCrystal
_audit_creation_method	'MofGen! by Chris Wilmer'
_symmetry_space_group_name_H-M	'P1'
_symmetry_Int_Tables_number	1
_symmetry_cell_setting	triclinic
loop_
_symmetry_equiv_pos_as_xyz
  x,y,z
_cell_length_a	14.044220
_cell_length_b	19.288865
_cell_length_c	17.766277
_cell_angle_alpha	90.011603
_cell_angle_beta	90.004280
_cell_angle_gamma	88.162563
loop_
_atom_site_label
_atom_site_type_symbol
_atom_site_fract_x
_atom_site_fract_y
_atom_site_fract_z
O1	O	-1.256998	-0.167413	-0.062531
O2	O	-0.981055	-0.161372	-0.062549
O3	O	-1.127000	-0.063774	-0.062525
O4	O	-1.111053	-0.265010	-0.062556
O5	O	-1.126975	-0.063767	0.062664
O6	O	-0.981029	-0.161365	0.062639
O7	O	-1.256973	-0.167406	0.062658
Cu8	Cu	-1.118999	-0.164385	0.074079
Cu9	Cu	-1.119029	-0.164393	-0.073971
O10	O	-1.111028	-0.265003	0.062633
C11	C	-1.126474	-0.037862	0.000072
C12	C	-1.124934	0.039341	0.000078
C13	C	-0.945739	-0.158724	0.000043
C14	C	-0.840547	-0.150836	0.000036
C15	C	-1.292289	-0.170054	0.000064
C16	C	-1.397481	-0.177942	0.000065
C17	C	-0.647947	-0.136416	0.000053
C18	C	-0.590075	-0.192359	0.000048
C19	C	-0.482906	-0.184335	0.000058
C20	C	-0.755126	-0.144438	0.000044
C21	C	-1.111554	-0.290916	0.000035
C22	C	-1.113094	-0.368119	0.000023
N23	N	-1.118984	-0.164379	0.178209
C24	C	-1.210568	0.078535	0.000088
C25	C	-1.209121	0.151075	0.000076
C26	C	-1.122035	0.184418	0.000069
C27	C	-1.036390	0.145215	0.000056
C28	C	-1.037839	0.072676	0.000060
C29	C	-1.053566	0.297107	0.043916
C30	C	-1.052120	0.369644	0.043916
C31	C	-1.117560	0.408151	0.000052
C32	C	-1.184463	0.374113	-0.043802
C33	C	-1.185912	0.301574	-0.043797
C34	C	-1.120453	0.263074	0.000064
C35	C	-1.201631	0.526002	0.000048
C36	C	-1.200181	0.598543	0.000031
C37	C	-1.027447	0.592681	0.000019
C38	C	-1.028900	0.520142	0.000028
C39	C	-1.115995	0.486806	0.000046
N40	N	-1.119051	-0.164394	-0.178101
C41	C	-1.183630	-0.121187	0.217607
C42	C	-1.183635	-0.121184	0.296409
C43	C	-1.119004	-0.164386	0.335810
C44	C	-1.054347	-0.207580	0.296403
C45	C	-1.054337	-0.207577	0.217602
C46	C	-1.106318	-0.226858	0.460638
C47	C	-1.106335	-0.226863	0.539437
C48	C	-1.119030	-0.164396	0.578856
C49	C	-1.131728	-0.101922	0.539467
C50	C	-1.131718	-0.101919	0.460667
C51	C	-1.119008	-0.164394	0.421256
C52	C	-1.183684	-0.121197	0.703700
C53	C	-1.183683	-0.121193	0.782503
C54	C	-1.054400	-0.207595	0.782495
C55	C	-1.054396	-0.207593	0.703694
C56	C	-1.119044	-0.164395	0.664301
H57	H	-0.617008	-0.082499	0.000066
H58	H	-0.621016	-0.246280	0.000036
N59	N	-1.145427	-0.034540	0.581971
H60	H	-1.143503	-0.044019	0.637867
H61	H	-1.092870	-0.002334	0.568209
H62	H	-1.001760	-0.242767	0.671614
N63	N	-0.979960	0.406345	0.091215
H64	H	-0.938670	0.435055	0.057613
H65	H	-1.014211	0.437591	0.128724
H66	H	-1.142055	-0.051051	0.428600
H67	H	-1.236322	-0.086020	0.671625
N68	N	-1.301482	0.193366	0.000090
H69	H	-1.339511	0.182018	-0.046310
H70	H	-1.339399	0.182018	0.046536
N71	N	-1.304501	0.042581	0.000106
H72	H	-1.358531	0.078422	0.000109
H73	H	-1.308879	0.012601	-0.046301
H74	H	-1.240385	0.273863	-0.079506
N75	N	-1.255055	0.415634	-0.091114
H76	H	-1.243985	0.466751	-0.084467
H77	H	-1.246461	0.402637	-0.145820
H78	H	-1.001772	-0.242768	0.814575
H79	H	-1.096001	-0.277733	0.571501
N80	N	-1.295563	0.490041	0.000064
H81	H	-1.349594	0.525880	0.000062
H82	H	-1.299935	0.460057	-0.046341
H83	H	-1.001722	-0.242754	0.328487
N84	N	-1.292547	0.640821	0.000038
H85	H	-1.347937	0.608693	0.000053
H86	H	-1.295690	0.671057	0.046444
H87	H	-0.956540	0.619828	0.000010
H88	H	-1.236267	-0.086011	0.185536
N89	N	-1.092626	-0.294238	0.418124
H90	H	-1.084595	-0.333814	0.455032
H91	H	-1.150174	-0.301879	0.385422
N92	N	-1.253418	-0.074608	0.824998
H93	H	-1.243614	-0.081162	0.880896
H94	H	-1.242694	-0.024662	0.811237
N95	N	-0.984605	-0.254165	0.175110
H96	H	-0.995302	-0.304132	0.188810
H97	H	-0.994440	-0.247552	0.119225
N98	N	-0.936539	0.477860	0.000033
H99	H	-0.933298	0.447621	-0.046372
H100	H	-0.881201	0.510031	0.000057
N101	N	-0.982975	0.255577	0.091224
H102	H	-0.940380	0.288145	0.119008
H103	H	-1.018438	0.226671	0.128690
H104	H	-0.968103	0.040764	0.000053
N105	N	-0.942460	0.181172	0.000045
H106	H	-0.954535	0.233073	0.000046
H107	H	-0.904988	0.167223	0.046450
N108	N	-1.253360	-0.074596	0.338915
H109	H	-1.294310	-0.047229	0.302003
H110	H	-1.295134	-0.103800	0.371596
