data_functionalizedCrystal
_audit_creation_method	'MofGen! by Chris Wilmer'
_symmetry_space_group_name_H-M	'P1'
_symmetry_Int_Tables_number	1
_symmetry_cell_setting	triclinic
loop_
_symmetry_equiv_pos_as_xyz
  x,y,z
_cell_length_a	10.686220
_cell_length_b	13.032127
_cell_length_c	13.032268
_cell_angle_alpha	89.069017
_cell_angle_beta	100.919293
_cell_angle_gamma	102.073360
loop_
_atom_site_label
_atom_site_type_symbol
_atom_site_fract_x
_atom_site_fract_y
_atom_site_fract_z
Zn1	Zn	1.808472	-0.355741	-0.430893
Zn2	Zn	2.308472	0.144259	0.069107
Zn3	Zn	1.815193	-0.505452	-0.236700
Zn4	Zn	2.315193	-0.005452	0.263300
Zn5	Zn	1.623640	-0.346985	-0.269009
Zn6	Zn	2.123640	0.153015	0.230991
Zn7	Zn	1.569873	-0.544522	-0.421987
Zn8	Zn	2.069873	-0.044522	0.078013
O9	O	1.704294	-0.438175	-0.339647
O10	O	2.204294	0.061825	0.160353
O11	O	1.989384	-0.362914	-0.395339
O12	O	2.489384	0.137086	0.104661
O13	O	1.815098	-0.464416	-0.095693
O14	O	2.315098	0.035584	0.404307
O15	O	1.667847	-0.202822	-0.307733
O16	O	2.167847	0.297178	0.192267
O17	O	1.994322	-0.472906	-0.252665
O18	O	2.494322	0.027094	0.247335
O19	O	1.803642	-0.209255	-0.426668
O20	O	2.303642	0.290745	0.073332
O21	O	1.674364	-0.347991	-0.119431
O22	O	2.174364	0.152009	0.380569
O23	O	1.436487	-0.385876	-0.299097
O24	O	1.936487	0.114124	0.200903
O25	O	1.576209	-0.539495	-0.568461
O26	O	2.076209	-0.039495	-0.068461
O27	O	1.396985	-0.531005	-0.411489
O28	O	1.896985	-0.031005	0.088511
O29	O	1.751507	-0.400798	-0.575004
O30	O	2.251507	0.099202	-0.075004
O31	O	1.762962	-0.655959	-0.244030
O32	O	2.262962	-0.155959	0.255970
O33	O	1.582726	-0.684664	-0.380160
O34	O	2.082726	-0.184664	0.119840
C35	C	1.370058	-0.461731	-0.357833
C36	C	1.870058	0.038269	0.142167
C37	C	1.227063	-0.471836	-0.365635
C38	C	1.727063	0.028164	0.134365
C39	C	1.667770	-0.707993	-0.307643
C40	C	2.167770	-0.207993	0.192357
C41	C	1.652257	-0.823419	-0.293980
C42	C	2.152257	-0.323419	0.206020
C43	C	1.696426	-0.997295	-0.332681
C44	C	2.196426	-0.497295	0.167319
C45	C	1.712470	-0.877996	-0.346805
C46	C	2.212470	-0.377996	0.153195
C47	C	2.039836	-0.414529	-0.321391
C48	C	2.539836	0.085471	0.178609
C49	C	2.182823	-0.404452	-0.313612
C50	C	2.682823	0.095548	0.186388
C51	C	1.657111	-0.475481	-0.610459
C52	C	2.157111	0.024519	-0.110459
C53	C	1.637004	-0.491379	-0.725863
C54	C	2.137004	0.008621	-0.225863
C55	C	1.740992	-0.167304	-0.371798
C56	C	2.240992	0.332696	0.128202
C57	C	1.756631	-0.051875	-0.385498
C58	C	2.256631	0.448125	0.114502
C59	C	1.714773	-0.429842	-0.780551
C60	C	2.214773	0.070158	-0.280551
C61	C	1.693994	-0.446272	-0.899827
C62	C	2.193994	0.053728	-0.399827
C63	C	1.751379	-0.400934	-0.069894
C64	C	2.251379	0.099066	0.430106
C65	C	1.771774	-0.384726	0.045488
C66	C	2.271774	0.115274	0.545488
H67	H	1.155535	-0.537267	-0.416140
H68	H	1.655535	-0.037267	0.083860
Br69	Br	1.590694	-1.066612	-0.239896
Br70	Br	2.090694	-0.566612	0.260104
Br71	Br	1.851359	-0.321726	-0.711427
Br72	Br	2.351359	0.178274	-0.211427
H73	H	1.612016	-0.511117	-0.941307
H74	H	2.112016	-0.011117	-0.441307
Br75	Br	1.862330	-0.982564	-0.478308
Br76	Br	2.362330	-0.482564	0.021692
Br77	Br	1.908416	-0.276646	-0.885388
Br78	Br	2.408416	0.223354	-0.385388
H79	H	1.775891	-0.836410	-0.402488
H80	H	2.275891	-0.336410	0.097512
Br81	Br	1.302025	-0.295410	-0.229420
Br82	Br	1.802025	0.204590	0.270580
H83	H	1.555031	-0.556220	-0.767347
H84	H	2.055031	-0.056220	-0.267347
H85	H	1.588821	-0.865008	-0.238307
H86	H	2.088821	-0.365008	0.261693
