data_functionalizedCrystal
_audit_creation_method	'MofGen! by Chris Wilmer'
_symmetry_space_group_name_H-M	'P1'
_symmetry_Int_Tables_number	1
_symmetry_cell_setting	triclinic
loop_
_symmetry_equiv_pos_as_xyz
  x,y,z
_cell_length_a	16.109301
_cell_length_b	9.130313
_cell_length_c	10.654550
_cell_angle_alpha	90.004369
_cell_angle_beta	96.026794
_cell_angle_gamma	89.999196
loop_
_atom_site_label
_atom_site_type_symbol
_atom_site_fract_x
_atom_site_fract_y
_atom_site_fract_z
O1	O	1.104090	-0.121706	-0.161420
O2	O	0.862148	-0.121729	-0.181509
O3	O	0.988682	-0.121708	0.011350
O4	O	0.977556	-0.121728	-0.354279
O5	O	0.988673	0.121891	0.011356
O6	O	0.862139	0.121869	-0.181503
O7	O	1.104082	0.121893	-0.161415
Cu8	Cu	0.983110	0.144123	-0.171458
Cu9	Cu	0.983120	-0.143960	-0.171465
O10	O	0.977548	0.121871	-0.354274
C11	C	0.831164	0.000067	-0.180692
C12	C	0.738854	0.000058	-0.178253
C13	C	0.987861	0.000090	0.058140
C14	C	0.985417	0.000088	0.197550
N15	N	0.983108	0.346746	-0.171453
C16	C	0.517228	0.000070	-0.287019
C17	C	0.430494	0.000079	-0.284717
C18	C	0.449008	0.000085	-0.055896
C19	C	0.535741	0.000086	-0.058199
C20	C	0.569848	0.000071	-0.173764
C21	C	0.396382	0.000079	-0.169159
C22	C	0.302341	0.000090	-0.166662
C23	C	0.663895	0.000063	-0.176262
C24	C	1.135066	0.000093	-0.162231
C25	C	1.227376	0.000092	-0.164671
N26	N	0.983128	-0.346583	-0.171460
C27	C	1.039157	0.423407	-0.086091
C28	C	1.039165	0.576744	-0.086091
C29	C	0.927073	0.576745	-0.256827
C30	C	0.927062	0.423411	-0.256820
C31	C	0.978369	0.000069	-0.401063
C32	C	0.980813	0.000062	-0.540473
C33	C	1.059918	0.000095	0.278046
C34	C	1.057616	0.000076	0.409036
C35	C	0.906306	0.000051	0.379020
C36	C	0.908608	0.000059	0.248033
H37	H	0.544996	0.000068	-0.381119
C38	C	1.189594	-0.125126	0.263282
C39	C	1.144342	0.000102	0.222549
H40	H	1.241712	-0.125128	0.229014
H41	H	1.198884	-0.125118	0.352802
H42	H	1.158877	-0.210063	0.235632
H43	H	1.175056	0.085039	0.250207
H44	H	1.135055	0.000107	0.133009
H45	H	0.881417	0.360989	-0.326332
C46	C	0.676918	0.000095	0.039868
C47	C	0.593589	0.000087	0.066299
H48	H	0.712629	0.000107	0.116726
H49	H	0.687324	-0.084849	-0.007513
H50	H	0.687316	0.085048	-0.007516
H51	H	0.583189	-0.084873	0.113675
H52	H	0.583179	0.085039	0.113700
C53	C	0.324273	0.000071	0.049237
C54	C	0.411514	0.000083	0.071129
H55	H	0.301129	0.000057	0.127660
H56	H	0.306259	0.085014	0.002623
H57	H	0.306267	-0.084883	0.002598
H58	H	0.429520	0.085043	0.117760
H59	H	0.429535	-0.084869	0.117763
H60	H	0.881443	0.639181	-0.326332
H61	H	1.084792	0.360991	-0.016578
H62	H	0.843771	0.000031	0.420140
C63	C	1.142820	-0.125154	0.573724
C64	C	1.139512	0.000082	0.497515
H65	H	1.193384	-0.125155	0.628340
H66	H	1.096757	-0.125158	0.622538
H67	H	1.140575	-0.210085	0.521973
H68	H	1.141751	0.085014	0.549266
H69	H	1.185587	0.000099	0.448696
H70	H	1.084803	0.639158	-0.016580
C71	C	0.420912	0.000051	-0.511123
C72	C	0.372654	0.000067	-0.409210
H73	H	0.385202	0.000035	-0.587982
H74	H	0.455124	0.084993	-0.507262
H75	H	0.455128	-0.084905	-0.507251
H76	H	0.338443	0.085028	-0.413076
H77	H	0.338428	-0.084884	-0.413073
H78	H	0.847937	0.000049	0.182489
