data_functionalizedCrystal
_audit_creation_method	'MofGen! by Chris Wilmer'
_symmetry_space_group_name_H-M	'P1'
_symmetry_Int_Tables_number	1
_symmetry_cell_setting	triclinic
loop_
_symmetry_equiv_pos_as_xyz
  x,y,z
_cell_length_a	14.519710
_cell_length_b	8.559649
_cell_length_c	7.681481
_cell_angle_alpha	94.930900
_cell_angle_beta	95.735070
_cell_angle_gamma	103.270596
loop_
_atom_site_label
_atom_site_type_symbol
_atom_site_fract_x
_atom_site_fract_y
_atom_site_fract_z
O1	O	1.199050	-0.224508	-0.146383
O2	O	0.928802	-0.249170	-0.146394
O3	O	1.087735	-0.004305	-0.146385
O4	O	1.040117	-0.469374	-0.146391
O5	O	1.107302	0.025902	0.146473
O6	O	0.948369	-0.218963	0.146465
O7	O	1.218617	-0.194301	0.146476
Zn8	Zn	1.086600	-0.201836	0.192968
Zn9	Zn	1.060820	-0.241635	-0.192886
O10	O	1.059684	-0.439166	0.146468
C11	C	0.904308	-0.232918	0.000034
C12	C	0.802174	-0.229474	0.000030
C13	C	1.243111	-0.210554	0.000044
C14	C	1.345244	-0.213999	0.000037
C15	C	1.719230	-0.226678	0.000036
C16	C	1.615175	-0.223157	0.000036
C17	C	1.532240	-0.220339	0.000035
C18	C	1.428179	-0.216817	0.000038
C19	C	1.101127	0.070318	0.000041
C20	C	1.111868	0.247666	0.000032
C21	C	1.046292	-0.513790	0.000038
C22	C	1.035550	-0.691139	0.000036
N23	N	1.104201	-0.174673	0.456303
N24	N	1.043227	-0.268786	-0.456221
H25	H	0.961993	0.225574	0.000038
H26	H	1.185431	0.330964	0.000049
H27	H	0.980985	-0.364846	0.468579
H28	H	1.166453	-0.078618	0.531513
