data_functionalizedCrystal
_audit_creation_method	'MofGen! by Chris Wilmer'
_symmetry_space_group_name_H-M	'P1'
_symmetry_Int_Tables_number	1
_symmetry_cell_setting	triclinic
loop_
_symmetry_equiv_pos_as_xyz
  x,y,z
_cell_length_a	13.897449
_cell_length_b	12.594510
_cell_length_c	13.897448
_cell_angle_alpha	89.963457
_cell_angle_beta	90.018519
_cell_angle_gamma	89.977688
loop_
_atom_site_label
_atom_site_type_symbol
_atom_site_fract_x
_atom_site_fract_y
_atom_site_fract_z
Zn1	Zn	1.474692	-0.601878	-0.383906
Zn2	Zn	1.474589	-0.423892	-0.545245
Zn3	Zn	1.313385	-0.423903	-0.383968
Zn4	Zn	1.313363	-0.601819	-0.545163
O5	O	1.394007	-0.512873	-0.464570
O6	O	1.609660	-0.578288	-0.405316
O7	O	1.453171	-0.274948	-0.523911
O8	O	1.334834	-0.447541	-0.248978
O9	O	1.609585	-0.447523	-0.523851
O10	O	1.453347	-0.578298	-0.248933
O11	O	1.334735	-0.274956	-0.405421
O12	O	1.178400	-0.447483	-0.405342
O13	O	1.334798	-0.750772	-0.523712
O14	O	1.178384	-0.578197	-0.523772
O15	O	1.453326	-0.750816	-0.405238
O16	O	1.453150	-0.447466	-0.680216
O17	O	1.334698	-0.578187	-0.680156
C18	C	1.143393	-0.512836	-0.464556
C19	C	1.036179	-0.512845	-0.464572
C20	C	0.949109	-0.512863	-0.464576
C21	C	0.839877	-0.512895	-0.464582
C22	C	1.394071	-0.790494	-0.464459
C23	C	1.394098	-0.908800	-0.464412
C24	C	1.458585	-0.978076	-0.399968
C25	C	1.370611	-1.048866	-0.376360
C26	C	1.482124	-1.048809	-0.487953
C27	C	1.306077	-0.978031	-0.440757
C28	C	1.417650	-0.977968	-0.552392
C29	C	1.329615	-1.048725	-0.528816
C30	C	1.645600	-0.512911	-0.464586
C31	C	1.752814	-0.512927	-0.464593
C32	C	1.393937	-0.512842	-0.715185
C33	C	1.393995	-0.512865	-0.822399
C34	C	1.393999	-0.236332	-0.464612
C35	C	1.394159	-0.118027	-0.464388
C36	C	1.394096	-0.512931	-1.018694
C37	C	1.394037	-0.512897	-0.909461
C38	C	1.394104	-0.512927	-0.212977
C39	C	1.394146	-0.512950	-0.105764
H40	H	1.513023	-0.947051	-0.345439
C41	C	1.443355	-0.824718	-0.651950
C42	C	1.444543	-0.935884	-0.652817
H43	H	1.459960	-0.798739	-0.713951
H44	H	1.488504	-0.799484	-0.606028
H45	H	1.380786	-0.800541	-0.635296
H46	H	1.507114	-0.960062	-0.669464
H47	H	1.399392	-0.961129	-0.698754
C48	C	1.303323	-1.151534	-0.671859
C49	C	1.255952	-1.090361	-0.602367
H50	H	1.257844	-1.177237	-0.717263
H51	H	1.334429	-1.209806	-0.641551
H52	H	1.349814	-1.109037	-0.703904
H53	H	1.209465	-1.132860	-0.570317
H54	H	1.224831	-1.032081	-0.632679
H55	H	1.350711	-1.080009	-0.301946
C56	C	1.206478	-0.825074	-0.413956
C57	C	1.205588	-0.936247	-0.413739
H58	H	1.144444	-0.799279	-0.397268
H59	H	1.223284	-0.800216	-0.476261
H60	H	1.252302	-0.800330	-0.368471
H61	H	1.159769	-0.960991	-0.459229
H62	H	1.188771	-0.961115	-0.351425
C63	C	1.649951	-1.055108	-0.447280
C64	C	1.582582	-1.090777	-0.514856
H65	H	1.711971	-1.081011	-0.463888
H66	H	1.632800	-1.080431	-0.385223
H67	H	1.650783	-0.979690	-0.446913
H68	H	1.581745	-1.166195	-0.515217
H69	H	1.599738	-1.065460	-0.576929
