data_functionalizedCrystal
_audit_creation_method	'MofGen! by Chris Wilmer'
_symmetry_space_group_name_H-M	'P1'
_symmetry_Int_Tables_number	1
_symmetry_cell_setting	triclinic
loop_
_symmetry_equiv_pos_as_xyz
  x,y,z
_cell_length_a	14.044190
_cell_length_b	12.837943
_cell_length_c	11.892113
_cell_angle_alpha	86.040150
_cell_angle_beta	94.026965
_cell_angle_gamma	85.989641
loop_
_atom_site_label
_atom_site_type_symbol
_atom_site_fract_x
_atom_site_fract_y
_atom_site_fract_z
O1	O	0.254482	-1.404905	0.094011
O2	O	0.242208	-1.101965	0.094016
O3	O	0.109948	-1.248883	0.093991
O4	O	0.386742	-1.257988	0.094036
O5	O	0.097962	-1.235935	-0.094018
O6	O	0.230222	-1.089017	-0.093993
O7	O	0.242496	-1.391958	-0.093998
Zn8	Zn	0.234456	-1.238432	-0.123846
Zn9	Zn	0.250248	-1.255491	0.123864
O10	O	0.374756	-1.245040	-0.093973
C11	C	0.232068	-1.056487	0.000012
C12	C	0.219700	-0.940266	0.000013
C13	C	0.068280	-1.238427	-0.000016
C14	C	-0.038019	-1.226549	-0.000026
C15	C	0.252636	-1.437436	0.000008
C16	C	0.265004	-1.553657	0.000015
C17	C	-0.282655	-1.289074	0.000017
C18	C	-0.232634	-1.204854	0.000011
C19	C	-0.124340	-1.216928	-0.000010
C20	C	-0.390959	-1.277002	0.000038
C21	C	0.416424	-1.255496	0.000037
C22	C	0.522724	-1.267374	0.000054
N23	N	0.223678	-1.226797	-0.292901
C24	C	0.368381	-0.713060	0.000021
C25	C	0.356765	-0.603860	0.000021
C26	C	0.184853	-0.612663	0.000005
C27	C	0.196469	-0.721863	0.000005
C28	C	0.288236	-0.772058	0.000015
C29	C	0.299851	-0.881261	0.000023
C30	C	0.127940	-0.890061	-0.000001
C31	C	0.116324	-0.780860	-0.000001
C32	C	0.336062	-1.348087	-0.529535
C33	C	0.328522	-1.339962	-0.647878
C34	C	0.201051	-1.202427	-0.647932
C35	C	0.208592	-1.210552	-0.529589
C36	C	0.276101	-1.283384	-0.470395
C37	C	0.283646	-1.291503	-0.352050
C38	C	0.156172	-1.153974	-0.352106
C39	C	0.148631	-1.145849	-0.470449
N40	N	0.261019	-1.267133	0.292919
H41	H	-0.271140	-1.123683	0.000019
Cl42	Cl	-0.223208	-1.414388	-0.000003
Cl43	Cl	0.415214	-0.944362	0.000037
H44	H	0.377348	-1.392652	-0.696026
Cl45	Cl	0.069498	-0.549541	-0.000021
H46	H	0.146079	-1.143142	-0.696149
Cl47	Cl	0.063768	-1.054293	-0.544875
Cl48	Cl	0.483742	-0.776168	0.000048
Cl49	Cl	0.000966	-0.717748	-0.000015
H50	H	0.062681	-0.938109	0.000002
H51	H	0.107351	-1.101282	-0.303942
H52	H	0.391039	-1.407380	-0.481338
H53	H	0.422027	-0.555828	0.000023
Cl54	Cl	0.368511	-1.383063	-0.277636
