data_functionalizedCrystal
_audit_creation_method	'MofGen! by Chris Wilmer'
_symmetry_space_group_name_H-M	'P1'
_symmetry_Int_Tables_number	1
_symmetry_cell_setting	triclinic
loop_
_symmetry_equiv_pos_as_xyz
  x,y,z
_cell_length_a	10.654541
_cell_length_b	10.654544
_cell_length_c	16.053802
_cell_angle_alpha	87.392810
_cell_angle_beta	92.590712
_cell_angle_gamma	84.484390
loop_
_atom_site_label
_atom_site_type_symbol
_atom_site_fract_x
_atom_site_fract_y
_atom_site_fract_z
O1	O	0.171155	1.673095	-0.069450
O2	O	0.187961	1.307616	-0.069447
O3	O	-0.003181	1.498759	-0.069443
O4	O	0.362297	1.481951	-0.069453
O5	O	0.007296	1.488238	0.069415
O6	O	0.198439	1.297094	0.069412
O7	O	0.181632	1.662573	0.069409
Zn8	Zn	0.191699	1.478163	0.091457
Zn9	Zn	0.177895	1.492026	-0.091495
O10	O	0.372775	1.471429	0.069405
C11	C	0.191966	1.255557	-0.000017
C12	C	0.188274	1.116113	-0.000016
C13	C	0.199712	1.104618	0.151372
C14	C	0.203699	1.033360	0.227063
C15	C	0.200228	0.902342	0.227060
C16	C	0.192765	0.842579	0.151357
C17	C	0.188777	0.913837	0.075665
C18	C	0.192253	1.044857	0.075677
C19	C	0.177331	0.925333	-0.075721
C20	C	0.180811	1.056351	-0.075719
C21	C	0.169868	0.865571	-0.151424
C22	C	0.165889	0.936827	-0.227117
C23	C	0.169363	1.067853	-0.227110
C24	C	0.176824	1.127608	-0.151410
C25	C	-0.044740	1.492265	-0.000015
C26	C	-0.184184	1.488575	-0.000016
C27	C	-0.212154	1.717138	-0.000007
C28	C	-0.291648	1.829681	-0.000001
C29	C	-0.422666	1.826206	-0.000004
C30	C	-0.474192	1.710176	-0.000015
C31	C	-0.394699	1.597633	-0.000021
C32	C	-0.263679	1.601120	-0.000016
C33	C	-0.366729	1.369072	-0.000036
C34	C	-0.235710	1.372544	-0.000027
C35	C	-0.418255	1.253042	-0.000047
C36	C	-0.338760	1.140496	-0.000047
C37	C	-0.207735	1.143976	-0.000043
C38	C	-0.156216	1.260001	-0.000033
C39	C	0.414334	1.477924	-0.000025
C40	C	0.553777	1.481615	-0.000030
C41	C	0.177627	1.714632	-0.000023
C42	C	0.181319	1.854076	-0.000030
N43	N	0.201119	1.468712	0.216317
N44	N	0.168465	1.501487	-0.216355
C45	C	0.119817	1.550074	0.260013
C46	C	0.126419	1.543474	0.347419
C47	C	0.214330	1.455517	0.391129
C48	C	0.295635	1.374146	0.347427
C49	C	0.289027	1.380741	0.260022
C50	C	0.243161	1.426711	0.652538
C51	C	0.249766	1.420125	0.739949
C52	C	0.080548	1.589452	0.739935
C53	C	0.073952	1.596044	0.652528
C54	C	0.155253	1.514668	0.608834
N55	N	0.221082	1.448772	0.480473
N56	N	0.148493	1.521409	0.519492
H57	H	0.189923	0.735899	0.151361
Br58	Br	-0.099861	0.991231	-0.000061
H59	H	-0.380725	1.046034	-0.000061
H60	H	-0.105473	1.719979	0.000006
Br61	Br	-0.221716	1.987144	0.000005
Br62	Br	0.021595	1.264733	-0.000019
H63	H	0.167033	0.758889	-0.151422
H64	H	0.355230	1.314486	0.224446
H65	H	0.048237	1.621703	0.224430
H66	H	0.159806	0.888158	-0.288748
Br67	Br	0.353497	1.316279	0.593244
Br68	Br	-0.530557	1.978943	-0.000006
H69	H	0.166112	1.125864	-0.288748
H70	H	0.060216	1.609725	0.382996
H71	H	0.179660	1.234288	-0.151398
Br72	Br	-0.045350	1.715419	0.593207
Br73	Br	-0.652009	1.705466	-0.000084
H74	H	-0.524938	1.250221	-0.000054
Br75	Br	-0.029786	1.699882	0.799237
Br76	Br	0.369090	1.300750	0.799264
H77	H	0.367210	1.302524	0.383021
H78	H	0.202556	1.211297	0.151383
Br79	Br	0.213824	1.114471	0.329799
H80	H	0.203485	0.844323	0.288694
