data_functionalizedCrystal
_audit_creation_method	'MofGen! by Chris Wilmer'
_symmetry_space_group_name_H-M	'P1'
_symmetry_Int_Tables_number	1
_symmetry_cell_setting	triclinic
loop_
_symmetry_equiv_pos_as_xyz
  x,y,z
_cell_length_a	15.538191
_cell_length_b	14.044220
_cell_length_c	12.503552
_cell_angle_alpha	93.839943
_cell_angle_beta	87.877822
_cell_angle_gamma	70.230486
loop_
_atom_site_label
_atom_site_type_symbol
_atom_site_fract_x
_atom_site_fract_y
_atom_site_fract_z
O1	O	1.229608	-0.306353	-0.089324
O2	O	0.964288	-0.199981	-0.089327
O3	O	1.092965	-0.389780	-0.089315
O4	O	1.100931	-0.116553	-0.089336
O5	O	1.083276	-0.375493	0.089327
O6	O	0.954599	-0.185693	0.089315
O7	O	1.219919	-0.292065	0.089317
Cu8	Cu	1.086375	-0.237575	0.105627
Cu9	Cu	1.097833	-0.254471	-0.105637
O10	O	1.091242	-0.102266	0.089305
C11	C	0.925283	-0.181708	-0.000006
C12	C	0.823495	-0.148557	-0.000007
C13	C	0.508030	-0.477900	0.000002
C14	C	0.412383	-0.446727	-0.000001
C15	C	0.404675	-0.271385	-0.000015
C16	C	0.500322	-0.302543	-0.000006
C17	C	0.551992	-0.405802	0.000001
C18	C	0.544285	-0.230445	-0.000007
C19	C	0.639924	-0.261601	-0.000004
C20	C	0.691601	-0.364856	-0.000001
C21	C	0.647631	-0.436958	0.000004
C22	C	0.492614	-0.127187	-0.000022
C23	C	0.536576	-0.055089	-0.000023
C24	C	0.632217	-0.086244	-0.000012
C25	C	0.683893	-0.189499	-0.000009
C26	C	0.676186	-0.014142	-0.000017
C27	C	0.771825	-0.045298	-0.000014
C28	C	0.779532	-0.220655	-0.000006
C29	C	1.084634	-0.416752	0.000006
C30	C	1.074234	-0.518399	0.000007
C31	C	1.055222	-0.704520	-0.000008
C32	C	1.128981	-0.787531	-0.000011
C33	C	1.118403	-0.891095	-0.000020
C34	C	1.065799	-0.600945	0.000000
C35	C	1.258924	-0.310339	-0.000006
C36	C	1.360713	-0.343490	-0.000012
C37	C	1.099573	-0.075295	-0.000018
C38	C	1.109973	0.026352	-0.000027
N39	N	1.078322	-0.225693	0.254219
N40	N	1.105892	-0.266363	-0.254229
C41	C	1.117732	-0.283842	0.526656
C42	C	1.066485	-0.208218	0.473327
C43	C	1.073073	-0.217944	0.351404
C44	C	1.111145	-0.274118	0.648590
H45	H	0.769477	-0.390222	-0.000013
N46	N	1.218174	-0.779137	-0.000006
N47	N	1.276429	-0.822307	-0.075300
H48	H	1.339419	-0.816376	-0.075294
N49	N	0.700404	-0.542438	0.000036
N50	N	0.661143	-0.606805	0.000054
H51	H	0.698413	-0.681297	0.000080
N52	N	1.178927	-0.374217	0.469013
N53	N	1.148313	-0.426254	0.406238
H54	H	1.191517	-0.490077	0.365495
N55	N	0.560803	-0.583379	0.000034
N56	N	0.521542	-0.647747	0.000052
H57	H	0.558812	-0.722239	0.000078
N58	N	0.966049	-0.712953	0.000008
N59	N	0.938207	-0.751458	0.075313
H60	H	0.875230	-0.757427	0.075330
N61	N	0.832322	-0.326129	0.000035
N62	N	0.820142	-0.375325	0.075352
H63	H	0.857426	-0.449812	0.075384
H64	H	1.017664	-0.136170	0.519239
H65	H	0.376593	-0.505446	-0.000002
H66	H	0.362593	-0.187312	-0.000025
H67	H	0.414738	-0.101823	-0.000028
H68	H	0.634103	0.069931	-0.000033
N69	N	0.483777	0.050379	-0.000019
N70	N	0.425460	0.093343	0.075280
H71	H	0.388170	0.167832	0.075285
N72	N	0.816724	0.028358	-0.000018
N73	N	0.770580	0.120548	-0.000020
H74	H	0.802290	0.172570	-0.000026
