data_functionalizedCrystal
_audit_creation_method	'MofGen! by Chris Wilmer'
_symmetry_space_group_name_H-M	'P1'
_symmetry_Int_Tables_number	1
_symmetry_cell_setting	triclinic
loop_
_symmetry_equiv_pos_as_xyz
  x,y,z
_cell_length_a	17.699083
_cell_length_b	26.809956
_cell_length_c	27.731996
_cell_angle_alpha	90.001656
_cell_angle_beta	97.047798
_cell_angle_gamma	89.997648
loop_
_atom_site_label
_atom_site_type_symbol
_atom_site_fract_x
_atom_site_fract_y
_atom_site_fract_z
O1	O	-1.003525	0.041411	0.061120
O2	O	-0.503525	0.541411	0.561120
O3	O	-0.783074	0.041430	0.069073
O4	O	-0.283074	0.541430	0.569073
O5	O	-0.900167	0.041409	-0.005277
O6	O	-0.400167	0.541409	0.494723
O7	O	-0.886432	0.041432	0.135471
O8	O	-0.386432	0.541432	0.635471
O9	O	-0.900145	-0.041550	-0.005266
O10	O	-0.400145	0.458450	0.494734
O11	O	-0.783052	-0.041530	0.069085
O12	O	-0.283052	0.458470	0.569085
O13	O	-1.003503	-0.041548	0.061132
O14	O	-0.503503	0.458452	0.561132
Zn15	Zn	-0.893274	-0.054710	0.065110
Zn16	Zn	-0.393274	0.445290	0.565110
Zn17	Zn	-0.893303	0.054592	0.065095
Zn18	Zn	-0.393303	0.554592	0.565095
O19	O	-0.886410	-0.041527	0.135482
O20	O	-0.386410	0.458473	0.635482
C21	C	-0.754869	-0.000048	0.068794
C22	C	-0.254869	0.499952	0.568794
C23	C	-0.670858	-0.000041	0.067939
C24	C	-0.170858	0.499959	0.567939
N25	N	-0.893260	-0.129306	0.065120
N26	N	-0.393260	0.370694	0.565120
C27	C	-0.621840	-0.000034	0.111581
C28	C	-0.121840	0.499966	0.611581
C29	C	-0.542904	-0.000040	0.110775
C30	C	-0.042904	0.499960	0.610775
C31	C	-0.512988	-0.000050	0.066326
C32	C	-0.012988	0.499950	0.566326
C33	C	-0.562013	-0.000059	0.022681
C34	C	-0.062013	0.499941	0.522681
C35	C	-0.640947	-0.000056	0.023488
C36	C	-0.140947	0.499944	0.523488
C37	C	-0.243679	-0.000070	0.019427
C38	C	0.256321	0.499930	0.519427
C39	C	-0.164739	-0.000071	0.018623
C40	C	0.335261	0.499929	0.518623
C41	C	-0.145636	-0.000054	0.106714
C42	C	0.354364	0.499946	0.606714
C43	C	-0.224571	-0.000052	0.107521
C44	C	0.275429	0.499948	0.607521
C45	C	-0.273588	-0.000063	0.063876
C46	C	0.226412	0.499937	0.563876
C47	C	-0.359180	-0.000057	0.064750
C48	C	0.140820	0.499943	0.564750
C49	C	-0.427398	-0.000052	0.065451
C50	C	0.072602	0.499948	0.565451
C51	C	-0.945145	-0.473941	0.032181
C52	C	-0.445145	0.026059	0.532181
C53	C	-0.945163	-0.682819	0.032174
C54	C	-0.445163	-0.182819	0.532174
O55	O	-0.989247	-0.709831	0.004171
O56	O	-0.489247	-0.209831	0.504171
N57	N	-0.893307	-0.708933	0.065085
N58	N	-0.393307	-0.208933	0.565085
C59	C	-0.841440	-0.682825	0.097997
C60	C	-0.341440	-0.182825	0.597997
O61	O	-0.797329	-0.709830	0.125987
O62	O	-0.297329	-0.209830	0.625987
C63	C	-0.841419	-0.473948	0.098002
C64	C	-0.341419	0.026052	0.598002
C65	C	-0.893283	-0.447837	0.065092
C66	C	-0.393283	0.052163	0.565092
C67	C	-0.997005	-0.447830	-0.000727
C68	C	-0.497005	0.052170	0.499273
C69	C	-0.997002	-0.395614	-0.000723
C70	C	-0.497002	0.104386	0.499277
C71	C	-0.945140	-0.369509	0.032189
C72	C	-0.445140	0.130491	0.532189
C73	C	-0.893281	-0.395620	0.065096
C74	C	-0.393281	0.104380	0.565096
C75	C	-0.789549	-0.447841	0.130912
C76	C	-0.289549	0.052159	0.630912
C77	C	-0.789547	-0.395618	0.130910
C78	C	-0.289547	0.104382	0.630910
C79	C	-0.841411	-0.369507	0.098000
C80	C	-0.341411	0.130493	0.598000
C81	C	-0.841417	-0.317300	0.098012
C82	C	-0.341417	0.182700	0.598012
N83	N	-0.893273	-0.291185	0.065101
N84	N	-0.393273	0.208815	0.565101
C85	C	-0.945135	-0.317290	0.032189
C86	C	-0.445135	0.182710	0.532189
C87	C	-0.841456	-0.792488	0.097993
C88	C	-0.341456	-0.292488	0.597993
C89	C	-0.841462	-0.844707	0.097993
C90	C	-0.341462	-0.344707	0.597993
C91	C	-0.945184	-0.844698	0.032168
C92	C	-0.445184	-0.344698	0.532168
C93	C	-0.945181	-0.792478	0.032171
C94	C	-0.445181	-0.292478	0.532171
C95	C	-0.893311	-0.766374	0.065082
C96	C	-0.393311	-0.266374	0.565082
C97	C	-0.945126	-0.207632	0.032200
C98	C	-0.445126	0.292368	0.532200
C99	C	-0.945121	-0.155411	0.032209
C100	C	-0.445121	0.344589	0.532209
C101	C	-0.841397	-0.155425	0.098031
C102	C	-0.341397	0.344575	0.598031
C103	C	-0.841404	-0.207641	0.098025
C104	C	-0.341404	0.292359	0.598025
C105	C	-0.893272	-0.233744	0.065106
C106	C	-0.393272	0.266256	0.565106
O107	O	-0.797350	-0.290256	0.125996
O108	O	-0.297350	0.209744	0.625996
O109	O	-0.989228	-0.290276	0.004197
O110	O	-0.489228	0.209724	0.504197
C111	C	-0.945147	-0.526158	0.032177
C112	C	-0.445147	-0.026158	0.532177
C113	C	-0.893288	-0.552269	0.065084
C114	C	-0.393288	-0.052269	0.565084
C115	C	-0.841426	-0.526165	0.097996
C116	C	-0.341426	-0.026165	0.597996
C117	C	-0.893294	-0.604488	0.065084
C118	C	-0.393294	-0.104488	0.565084
C119	C	-0.945156	-0.630593	0.032173
C120	C	-0.445156	-0.130593	0.532173
C121	C	-0.997011	-0.604479	-0.000738
C122	C	-0.497011	-0.104479	0.499262
C123	C	-0.997009	-0.552262	-0.000734
C124	C	-0.497009	-0.052262	0.499266
C125	C	-0.789570	-0.552279	0.130907
C126	C	-0.289570	-0.052279	0.630907
C127	C	-0.789578	-0.604495	0.130901
C128	C	-0.289578	-0.104495	0.630901
C129	C	-0.841439	-0.630600	0.097989
C130	C	-0.341439	-0.130600	0.597989
C131	C	-0.031708	-0.000068	0.061411
C132	C	0.468292	0.499932	0.561411
C133	C	-0.115719	-0.000068	0.062266
C134	C	0.384281	0.499932	0.562266
C135	C	-0.899874	-0.000072	-0.023280
C136	C	-0.399874	0.499928	0.476720
C137	C	-0.899024	-0.000077	-0.076939
C138	C	-0.399024	0.499923	0.423061
N139	N	-0.893323	0.129188	0.065081
N140	N	-0.393323	0.629188	0.565081
C141	C	-0.893689	0.045169	-0.409681
C142	C	-0.393689	0.545169	0.090319
C143	C	-0.890462	0.045178	-0.611350
C144	C	-0.390462	0.545178	-0.111350
O145	O	-0.890023	0.083637	-0.637428
O146	O	-0.390023	0.583637	-0.137428
N147	N	-0.890049	-0.000043	-0.636563
N148	N	-0.390049	0.499957	-0.136563
C149	C	-0.890438	-0.045269	-0.611354
C150	C	-0.390438	0.454731	-0.111354
O151	O	-0.890005	-0.083732	-0.637426
O152	O	-0.390005	0.416268	-0.137426
C153	C	-0.893660	-0.045278	-0.409685
C154	C	-0.393660	0.454722	0.090315
C155	C	-0.894080	-0.000054	-0.384476
C156	C	-0.394080	0.499946	0.115524
C157	C	-0.894109	0.090389	-0.384471
C158	C	-0.394109	0.590389	0.115529
C159	C	-0.894920	0.090386	-0.334057
C160	C	-0.394920	0.590386	0.165943
C161	C	-0.895311	0.045163	-0.308852
C162	C	-0.395311	0.545163	0.191148
C163	C	-0.894891	-0.000057	-0.334062
C164	C	-0.394891	0.499943	0.165938
C165	C	-0.894043	-0.090503	-0.384477
C166	C	-0.394043	0.409497	0.115523
C167	C	-0.894847	-0.090501	-0.334056
C168	C	-0.394847	0.409499	0.165944
C169	C	-0.895268	-0.045278	-0.308847
C170	C	-0.395268	0.454722	0.191153
C171	C	-0.896093	-0.045282	-0.258443
C172	C	-0.396093	0.454718	0.241557
N173	N	-0.896506	-0.000061	-0.233230
N174	N	-0.396506	0.499939	0.266770
C175	C	-0.896115	0.045161	-0.258435
C176	C	-0.396115	0.545161	0.241565
C177	C	-0.888748	-0.045261	-0.717234
C178	C	-0.388748	0.454739	-0.217234
C179	C	-0.887944	-0.045259	-0.767651
C180	C	-0.387944	0.454741	-0.267651
C181	C	-0.887967	0.045188	-0.767644
C182	C	-0.387967	0.545188	-0.267644
C183	C	-0.888776	0.045185	-0.717226
C184	C	-0.388776	0.545185	-0.217226
C185	C	-0.889161	-0.000041	-0.692021
C186	C	-0.389161	0.499959	-0.192021
C187	C	-0.897819	0.045152	-0.152562
C188	C	-0.397819	0.545152	0.347438
C189	C	-0.898633	0.045145	-0.102144
C190	C	-0.398633	0.545145	0.397856
C191	C	-0.898606	-0.045301	-0.102155
C192	C	-0.398606	0.454699	0.397845
C193	C	-0.897796	-0.045295	-0.152569
C194	C	-0.397796	0.454705	0.347431
C195	C	-0.897400	-0.000064	-0.177771
C196	C	-0.397400	0.499936	0.322229
O197	O	-0.896525	-0.083721	-0.232333
O198	O	-0.396525	0.416279	0.267667
O199	O	-0.896531	0.083618	-0.232354
O200	O	-0.396531	0.583618	0.267646
C201	C	-0.892878	0.045171	-0.460095
C202	C	-0.392878	0.545171	0.039905
C203	C	-0.892459	-0.000049	-0.485304
C204	C	-0.392459	0.499951	0.014696
C205	C	-0.892850	-0.045271	-0.460099
C206	C	-0.392850	0.454729	0.039901
C207	C	-0.891655	-0.000047	-0.535721
C208	C	-0.391655	0.499953	-0.035721
C209	C	-0.891264	0.045176	-0.560926
C210	C	-0.391264	0.545176	-0.060926
C211	C	-0.891676	0.090397	-0.535714
C212	C	-0.391676	0.590397	-0.035714
C213	C	-0.892487	0.090394	-0.485300
C214	C	-0.392487	0.590394	0.014700
C215	C	-0.892437	-0.090492	-0.485312
C216	C	-0.392437	0.409508	0.014688
C217	C	-0.891627	-0.090485	-0.535726
C218	C	-0.391627	0.409515	-0.035726
C219	C	-0.891236	-0.045263	-0.560931
C220	C	-0.391236	0.454737	-0.060931
C221	C	-0.886703	-0.000045	0.153485
C222	C	-0.386703	0.499955	0.653485
C223	C	-0.887553	-0.000037	0.207144
C224	C	-0.387553	0.499963	0.707144
H225	H	-0.646191	-0.000026	0.147777
H226	H	-0.146191	0.499974	0.647777
H227	H	-0.799216	-0.771238	0.124795
H228	H	-0.299216	-0.271238	0.624795
H229	H	-0.893702	-0.127329	-0.404994
H230	H	-0.393702	0.372671	0.095006
H231	H	-0.889118	0.082010	-0.696704
H232	H	-0.389118	0.582010	-0.196704
H233	H	-0.898928	-0.082120	-0.081625
H234	H	-0.398928	0.417880	0.418375
H235	H	-0.502996	-0.000034	0.146313
H236	H	-0.002996	0.499966	0.646313
H237	H	-0.799179	-0.228902	0.124828
H238	H	-0.299179	0.271098	0.624828
H239	H	-0.891361	0.127219	-0.556245
H240	H	-0.391361	0.627219	-0.056245
H241	H	-0.799237	-0.865964	0.124796
H242	H	-0.299237	-0.365964	0.624796
H243	H	-0.248923	-0.000042	0.143716
H244	H	0.251077	0.499958	0.643716
H245	H	-1.039242	-0.625742	-0.027535
H246	H	-0.539242	-0.125742	0.472465
H247	H	-0.892757	-0.127318	-0.464795
H248	H	-0.392757	0.372682	0.035205
H249	H	-0.897492	0.081983	-0.173075
H250	H	-0.397492	0.581983	0.326925
H251	H	-0.747306	-0.374367	0.157710
H252	H	-0.247306	0.125633	0.657710
H253	H	-0.537649	-0.000074	-0.013510
H254	H	-0.037649	0.499926	0.486490
H255	H	-0.799174	-0.134163	0.124829
H256	H	-0.299174	0.365837	0.624829
H257	H	-0.283581	-0.000080	-0.016112
H258	H	0.216419	0.499920	0.483888
H259	H	-0.987413	-0.865961	0.005371
H260	H	-0.487413	-0.365961	0.505371
H261	H	-0.105716	-0.000048	0.142252
H262	H	0.394284	0.499952	0.642252
H263	H	-0.680858	-0.000062	-0.012050
H264	H	-0.180858	0.499938	0.487950
H265	H	-0.987361	-0.228878	0.005394
H266	H	-0.487361	0.271122	0.505394
H267	H	-0.140385	-0.000080	-0.017574
H268	H	0.359615	0.499920	0.482426
H269	H	-0.987358	-0.134153	0.005409
H270	H	-0.487358	0.365847	0.505409
H271	H	-0.898977	0.081973	-0.081621
H272	H	-0.398977	0.581973	0.418379
H273	H	-1.039242	-0.531006	-0.027533
H274	H	-0.539242	-0.031006	0.472467
H275	H	-0.897461	-0.082120	-0.173096
H276	H	-0.397461	0.417880	0.326904
H277	H	-0.895259	0.127212	-0.313536
H278	H	-0.395259	0.627212	0.186464
H279	H	-1.039237	-0.469080	-0.027529
H280	H	-0.539237	0.030920	0.472471
H281	H	-1.039232	-0.374357	-0.027522
H282	H	-0.539232	0.125643	0.472478
H283	H	-0.987413	-0.771221	0.005373
H284	H	-0.487413	-0.271221	0.505373
H285	H	-0.887649	0.082010	-0.788174
H286	H	-0.387649	0.582010	-0.288174
H287	H	-0.747345	-0.625752	0.157704
H288	H	-0.247345	-0.125752	0.657704
H289	H	-0.747316	-0.469094	0.157710
H290	H	-0.247316	0.030906	0.657710
H291	H	-0.747337	-0.531029	0.157707
H292	H	-0.247337	-0.031029	0.657707
H293	H	-0.892829	0.127220	-0.464779
H294	H	-0.392829	0.627220	0.035221
H295	H	-0.893788	0.127216	-0.404988
H296	H	-0.393788	0.627216	0.095012
H297	H	-0.887614	-0.082085	-0.788173
H298	H	-0.387614	0.417915	-0.288173
H299	H	-0.889066	-0.082092	-0.696717
H300	H	-0.389066	0.417908	-0.196717
H301	H	-0.895149	-0.127330	-0.313536
H302	H	-0.395149	0.372670	0.186464
H303	H	-0.891291	-0.127315	-0.556247
H304	H	-0.391291	0.372685	-0.056247
