data_functionalizedCrystal
_audit_creation_method	'MofGen! by Chris Wilmer'
_symmetry_space_group_name_H-M	'P1'
_symmetry_Int_Tables_number	1
_symmetry_cell_setting	triclinic
loop_
_symmetry_equiv_pos_as_xyz
  x,y,z
_cell_length_a	14.044220
_cell_length_b	19.188930
_cell_length_c	12.503572
_cell_angle_alpha	93.506241
_cell_angle_beta	86.164750
_cell_angle_gamma	88.166830
loop_
_atom_site_label
_atom_site_type_symbol
_atom_site_fract_x
_atom_site_fract_y
_atom_site_fract_z
O1	O	1.262485	0.164589	-0.089229
O2	O	1.762485	0.664589	0.410771
O3	O	0.986542	0.158515	-0.089255
O4	O	1.486542	0.658515	0.410745
O5	O	1.132475	0.060411	-0.089220
O6	O	1.632475	0.560411	0.410780
O7	O	1.116552	0.262693	-0.089264
O8	O	1.616552	0.762693	0.410736
O9	O	1.121500	0.067803	0.089419
O10	O	1.621500	0.567803	0.589419
O11	O	0.975567	0.165907	0.089384
O12	O	1.475567	0.665907	0.589384
O13	O	1.251510	0.171980	0.089411
O14	O	1.751510	0.671980	0.589411
Cu15	Cu	1.112536	0.169618	0.105709
Cu16	Cu	1.612536	0.669618	0.605709
Cu17	Cu	1.125516	0.160877	-0.105553
Cu18	Cu	1.625516	0.660877	0.394447
O19	O	1.105577	0.270084	0.089376
O20	O	1.605577	0.770084	0.589376
C21	C	0.945752	0.159553	0.000061
C22	C	1.445752	0.659553	0.500061
C23	C	0.840559	0.151624	0.000052
C24	C	1.340559	0.651624	0.500052
C25	C	0.647956	0.137129	0.000077
C26	C	1.147956	0.637129	0.500077
C27	C	0.590090	0.193363	0.000069
C28	C	1.090090	0.693363	0.500069
C29	C	0.482920	0.185298	0.000083
C30	C	0.982920	0.685298	0.500083
C31	C	0.755137	0.145193	0.000063
C32	C	1.255137	0.645193	0.500063
C33	C	1.126472	0.038063	0.000102
C34	C	1.626472	0.538063	0.500102
C35	C	1.124923	-0.039541	0.000112
C36	C	1.624923	0.460459	0.500112
C37	C	1.210552	-0.078939	0.000125
C38	C	1.710552	0.421061	0.500125
C39	C	1.209099	-0.151857	0.000108
C40	C	1.709099	0.348143	0.500108
C41	C	1.122010	-0.185374	0.000098
C42	C	1.622010	0.314626	0.500098
C43	C	1.036370	-0.145968	0.000079
C44	C	1.536370	0.354032	0.500079
C45	C	1.037826	-0.073051	0.000086
C46	C	1.537826	0.426949	0.500086
N47	N	1.051706	-0.295160	0.060886
N48	N	1.551706	0.204840	0.560886
N49	N	1.050328	-0.364427	0.060882
N50	N	1.550328	0.135573	0.560882
C51	C	1.117616	-0.405067	0.000076
C52	C	1.617616	0.094933	0.500076
N53	N	1.186348	-0.373823	-0.060712
N54	N	1.686348	0.126177	0.439288
N55	N	1.187729	-0.304548	-0.060704
N56	N	1.687729	0.195452	0.439296
C57	C	1.120421	-0.264440	0.000091
C58	C	1.620421	0.235560	0.500091
C59	C	1.201676	-0.523532	0.000069
C60	C	1.701676	-0.023532	0.500069
C61	C	1.200219	-0.596451	0.000045
C62	C	1.700219	-0.096451	0.500045
C63	C	1.027487	-0.590560	0.000028
C64	C	1.527487	-0.090560	0.500028
C65	C	1.028947	-0.517642	0.000041
C66	C	1.528947	-0.017642	0.500041
C67	C	1.116043	-0.484132	0.000067
C68	C	1.616043	0.015868	0.500067
C69	C	1.292301	0.170943	0.000092
C70	C	1.792301	0.670943	0.500092
C71	C	1.397493	0.178872	0.000094
C72	C	1.897493	0.678872	0.500094
C73	C	1.111580	0.292433	0.000051
C74	C	1.611580	0.792433	0.500051
C75	C	1.113129	0.370037	0.000034
C76	C	1.613129	0.870037	0.500034
N77	N	1.103414	0.175766	0.254299
N78	N	1.603414	0.675766	0.754299
N79	N	1.134645	0.154724	-0.254143
N80	N	1.634645	0.654724	0.245857
C81	C	1.089995	0.184816	0.473411
C82	C	1.589995	0.684816	0.973411
C83	C	1.148061	0.145676	0.526752
C84	C	1.648061	0.645676	1.026752
C85	C	1.140595	0.150712	0.648673
C86	C	1.640595	0.650712	1.148673
C87	C	1.097461	0.179782	0.351478
C88	C	1.597461	0.679782	0.851478
H89	H	1.278831	-0.183941	0.000114
H90	H	1.778831	0.316059	0.500114
H91	H	1.281473	-0.051660	0.000142
H92	H	1.781473	0.448340	0.500142
H93	H	1.203381	0.108386	0.480852
H94	H	1.703381	0.608386	0.980852
O95	O	0.954696	-0.034695	0.000221
O96	O	1.454696	0.465305	0.500221
C97	C	0.850383	0.054835	0.092801
C98	C	1.350383	0.554835	0.592801
C99	C	0.944566	0.011455	0.092767
C100	C	1.444566	0.511455	0.592767
H101	H	0.842153	0.092147	0.167628
H102	H	1.342153	0.592147	0.667628
H103	H	0.851327	0.086088	0.018097
H104	H	1.351327	0.586088	0.518097
H105	H	0.787904	0.018342	0.092735
H106	H	1.287904	0.518342	0.592735
H107	H	1.007095	0.047897	0.092871
H108	H	1.507095	0.547897	0.592871
H109	H	0.943538	-0.019807	0.167465
H110	H	1.443538	0.480193	0.667465
O111	O	1.283489	-0.634618	0.000105
O112	O	1.783489	-0.134618	0.500105
C113	C	1.454968	-0.632765	0.000081
C114	C	1.954968	-0.132765	0.500081
C115	C	1.360734	-0.589455	0.000037
C116	C	1.860734	-0.089455	0.500037
H117	H	1.517447	-0.596270	0.000003
H118	H	2.017447	-0.096270	0.500003
H119	H	1.454069	-0.663951	0.074853
H120	H	1.954069	-0.163951	0.574853
H121	H	1.463151	-0.670148	-0.074667
H122	H	1.963151	-0.170148	0.425333
H123	H	1.352491	-0.552034	0.074735
H124	H	1.852491	-0.052034	0.574735
H125	H	1.361675	-0.558317	-0.074785
H126	H	1.861675	-0.058317	0.425215
O127	O	0.627164	0.257972	-0.000026
O128	O	1.127164	0.757972	0.499974
C129	C	0.769336	0.325023	-0.000055
C130	C	1.269336	0.825023	0.499945
C131	C	0.727472	0.251817	0.000046
C132	C	1.227472	0.751817	0.500046
H133	H	0.850439	0.320072	0.000026
H134	H	1.350439	0.820072	0.500026
H135	H	0.748908	0.351497	-0.074850
H136	H	1.248908	0.851497	0.425150
H137	H	0.739638	0.357703	0.074671
H138	H	1.239638	0.857703	0.574671
H139	H	0.757148	0.219081	-0.074628
H140	H	1.257148	0.719081	0.425372
H141	H	0.747892	0.225397	0.074891
H142	H	1.247892	0.725397	0.574891
O143	O	0.610891	0.072520	0.000041
O144	O	1.110891	0.572520	0.500041
C145	C	0.468707	0.005480	0.000121
C146	C	0.968707	0.505480	0.500121
C147	C	0.510573	0.078688	0.000142
C148	C	1.010573	0.578688	0.500142
H149	H	0.387594	0.010444	0.000225
H150	H	0.887594	0.510444	0.500225
H151	H	0.498290	-0.027199	-0.074657
H152	H	0.998290	0.472801	0.425343
H153	H	0.489251	-0.021002	0.074864
H154	H	0.989251	0.478998	0.574864
H155	H	0.490046	0.105231	-0.074550
H156	H	0.990046	0.605231	0.425450
H157	H	0.480992	0.111317	0.074969
H158	H	0.980992	0.611317	0.574969
H159	H	1.272595	-0.496247	0.000085
H160	H	1.772595	0.003753	0.500085
O161	O	0.951840	-0.178608	-0.000071
O162	O	1.451840	0.321392	0.499929
C163	C	0.855618	-0.261304	-0.092669
C164	C	1.355618	0.238696	0.407331
C165	C	0.951401	-0.224402	-0.092613
C166	C	1.451401	0.275598	0.407387
H167	H	0.855224	-0.298326	-0.167492
H168	H	1.355224	0.201674	0.332508
H169	H	0.846012	-0.292257	-0.017961
H170	H	1.346012	0.207743	0.482039
H171	H	0.794677	-0.220602	-0.092625
H172	H	1.294677	0.279398	0.407375
H173	H	1.012400	-0.265057	-0.092695
H174	H	1.512400	0.234943	0.407305
H175	H	0.960924	-0.193435	-0.167314
H176	H	1.460924	0.306565	0.332686
O177	O	0.942968	-0.623218	0.000061
O178	O	1.442968	-0.123218	0.500061
C179	C	0.864176	-0.732943	-0.000039
C180	C	1.364176	-0.232943	0.499961
C181	C	0.959960	-0.696041	-0.000043
C182	C	1.459960	-0.196041	0.499957
H183	H	0.877882	-0.791826	-0.000145
H184	H	1.377882	-0.291826	0.499855
H185	H	0.817261	-0.714124	0.074734
H186	H	1.317261	-0.214124	0.574734
H187	H	0.826472	-0.720192	-0.074786
H188	H	1.326472	-0.220192	0.425214
H189	H	0.997744	-0.708775	0.074654
H190	H	1.497744	-0.208775	0.574654
H191	H	1.006805	-0.714863	-0.074865
H192	H	1.506805	-0.214863	0.425135
O193	O	0.945674	-0.479470	0.000089
O194	O	1.445674	0.020530	0.500089
C195	C	0.774201	-0.481326	0.000010
C196	C	1.274201	0.018674	0.500010
C197	C	0.868439	-0.524639	-0.000016
C198	C	1.368439	-0.024639	0.499984
H199	H	0.711733	-0.517828	-0.000098
H200	H	1.211733	-0.017828	0.499902
H201	H	0.765906	-0.443974	0.074792
H202	H	1.265906	0.056026	0.574792
H203	H	0.775209	-0.450106	-0.074729
H204	H	1.275209	0.049894	0.425271
H205	H	0.867498	-0.555901	0.074672
H206	H	1.367498	-0.055901	0.574672
H207	H	0.876697	-0.561947	-0.074847
H208	H	1.376697	-0.061947	0.425153
H209	H	1.034680	0.222105	0.519305
H210	H	1.534680	0.722105	1.019305
