data_functionalizedCrystal
_audit_creation_method	'MofGen! by Chris Wilmer'
_symmetry_space_group_name_H-M	'P1'
_symmetry_Int_Tables_number	1
_symmetry_cell_setting	triclinic
loop_
_symmetry_equiv_pos_as_xyz
  x,y,z
_cell_length_a	14.044220
_cell_length_b	16.992695
_cell_length_c	16.053802
_cell_angle_alpha	92.741074
_cell_angle_beta	87.189254
_cell_angle_gamma	91.928550
loop_
_atom_site_label
_atom_site_type_symbol
_atom_site_fract_x
_atom_site_fract_y
_atom_site_fract_z
O1	O	1.275866	0.187009	-0.069341
O2	O	0.999379	0.180151	-0.069362
O3	O	1.136514	0.069360	-0.069345
O4	O	1.138731	0.297800	-0.069358
O5	O	1.128964	0.075431	0.069513
O6	O	0.991829	0.186221	0.069496
O7	O	1.268316	0.193080	0.069517
Zn8	Zn	1.128874	0.190615	0.091553
Zn9	Zn	1.138822	0.182616	-0.091398
O10	O	1.131181	0.303871	0.069500
C11	C	1.129887	0.042984	0.000084
C12	C	1.121378	-0.044656	0.000083
C13	C	0.960062	0.180184	0.000064
C14	C	0.854158	0.171230	0.000056
C15	C	1.203475	-0.089154	0.000090
C16	C	1.195475	-0.171500	0.000081
C17	C	1.105377	-0.209347	0.000072
C18	C	1.023275	-0.164843	0.000062
C19	C	1.031276	-0.082498	0.000065
C20	C	1.072216	-0.455265	0.000058
C21	C	1.064221	-0.537616	0.000058
C22	C	1.236421	-0.544267	0.000075
C23	C	1.244414	-0.461920	0.000083
C24	C	1.162312	-0.417424	0.000069
N25	N	1.097198	-0.293518	0.000066
N26	N	1.170493	-0.333254	0.000069
C27	C	0.660256	0.154860	0.000074
C28	C	0.607434	0.218367	0.000074
C29	C	0.499540	0.209259	0.000083
C30	C	0.768160	0.163967	0.000064
C31	C	1.307633	0.193047	0.000089
C32	C	1.413537	0.202001	0.000091
C33	C	1.137808	0.330247	0.000069
C34	C	1.146317	0.417886	0.000065
N35	N	1.122091	0.196073	0.216412
N36	N	1.145611	0.177152	-0.216258
C37	C	1.180467	0.148952	0.260114
C38	C	1.175732	0.152778	0.347520
C39	C	1.112626	0.203731	0.391223
C40	C	1.054244	0.250855	0.347516
C41	C	1.058975	0.247023	0.260111
C42	C	1.091960	0.220444	0.652630
C43	C	1.087236	0.224273	0.740041
C44	C	1.208722	0.126196	0.740039
C45	C	1.213452	0.122372	0.652633
C46	C	1.155066	0.169493	0.608933
N47	N	1.107787	0.207646	0.480566
N48	N	1.159901	0.165574	0.519591
H49	H	1.276842	-0.058345	0.000103
C50	C	0.681687	0.015269	0.000070
C51	C	0.611926	0.072232	0.000075
H52	H	0.651840	-0.035741	0.000072
H53	H	0.722885	0.019340	-0.048352
H54	H	0.717639	0.023569	0.048494
H55	H	0.575979	0.063935	-0.048353
H56	H	0.570711	0.068158	0.048501
H57	H	0.643242	0.279576	0.000066
H58	H	1.231858	0.107464	0.224536
H59	H	1.044422	0.258813	0.617057
C60	C	1.007142	0.384553	0.374400
C61	C	0.984870	0.306862	0.395548
H62	H	0.964308	0.419129	0.404048
H63	H	1.070602	0.398220	0.388722
H64	H	1.001606	0.389002	0.316088
H65	H	0.990413	0.302412	0.453859
H66	H	0.921394	0.293192	0.381232
H67	H	1.223265	0.114408	0.383101
H68	H	1.264837	0.080883	0.617051
C69	C	0.890850	-0.054591	-0.071328
C70	C	0.941033	-0.033583	0.000058
H71	H	0.835133	-0.024396	-0.071331
H72	H	0.930172	-0.044575	-0.119738
H73	H	0.873196	-0.109050	-0.071320
H74	H	0.958692	0.020874	0.000046
H75	H	0.901703	-0.043594	0.048480
H76	H	1.256256	0.087831	0.775627
C77	C	0.918265	-0.256709	-0.071328
C78	C	0.924239	-0.206445	0.000051
H79	H	0.857125	-0.282394	-0.071329
H80	H	0.927592	-0.226837	-0.119742
H81	H	0.966020	-0.294992	-0.071315
H82	H	0.876488	-0.168159	0.000035
H83	H	0.914901	-0.236319	0.048478
H84	H	1.035845	0.265768	0.775620
H85	H	1.011438	0.285394	0.224531
C86	C	1.366487	-0.169803	0.000119
C87	C	1.285718	-0.220412	0.000099
H88	H	1.422200	-0.200001	0.000135
H89	H	1.368667	-0.139663	-0.048301
H90	H	1.363377	-0.135432	0.048545
H91	H	1.288824	-0.254780	-0.048331
H92	H	1.283539	-0.250566	0.048523
C93	C	1.397539	-0.445356	-0.071285
C94	C	1.343455	-0.420325	0.000092
H95	H	1.458680	-0.419673	-0.071276
H96	H	1.404518	-0.500760	-0.071281
H97	H	1.366101	-0.432599	-0.119706
H98	H	1.374889	-0.433087	0.048513
H99	H	1.336478	-0.364909	0.000096
C100	C	1.300622	-0.673450	0.000071
C101	C	1.326665	-0.593180	0.000079
H102	H	1.356339	-0.703645	0.000065
H103	H	1.261312	-0.683462	0.048489
H104	H	1.266564	-0.687682	-0.048357
H105	H	1.360716	-0.578946	0.048510
H106	H	1.365990	-0.583164	-0.048344
H107	H	1.005362	-0.419046	0.000046
C108	C	0.894804	-0.522775	0.000014
C109	C	0.965179	-0.579219	0.000034
H110	H	0.833665	-0.548462	-0.000006
H111	H	0.898858	-0.488684	0.048436
H112	H	0.904154	-0.492908	-0.048410
H113	H	0.955833	-0.609082	0.048461
H114	H	0.961121	-0.613324	-0.048393
