data_functionalizedCrystal
_audit_creation_method	'MofGen! by Chris Wilmer'
_symmetry_space_group_name_H-M	'P1'
_symmetry_Int_Tables_number	1
_symmetry_cell_setting	triclinic
loop_
_symmetry_equiv_pos_as_xyz
  x,y,z
_cell_length_a	10.686220
_cell_length_b	13.033915
_cell_length_c	10.686551
_cell_angle_alpha	102.084060
_cell_angle_beta	89.691918
_cell_angle_gamma	87.739593
loop_
_atom_site_label
_atom_site_type_symbol
_atom_site_fract_x
_atom_site_fract_y
_atom_site_fract_z
Zn1	Zn	2.008231	-0.255139	0.520541
Zn2	Zn	2.508231	0.244861	1.020541
Zn3	Zn	2.018687	-0.444557	0.279715
Zn4	Zn	2.518687	0.055443	0.779715
Zn5	Zn	1.786121	-0.281910	0.322467
Zn6	Zn	2.286121	0.218090	0.822467
Zn7	Zn	1.824818	-0.442436	0.505841
Zn8	Zn	2.324818	0.057564	1.005841
O9	O	1.909464	-0.356010	0.407141
O10	O	2.409464	0.143990	0.907141
O11	O	2.183707	-0.269949	0.476855
O12	O	2.683707	0.230051	0.976855
O13	O	1.976017	-0.435073	0.107858
O14	O	2.476017	0.064927	0.607858
O15	O	1.795014	-0.131906	0.372786
O16	O	2.295014	0.368094	0.872786
O17	O	2.191389	-0.409114	0.299921
O18	O	2.691389	0.090886	0.799921
O19	O	1.958197	-0.112237	0.518309
O20	O	2.458197	0.387763	1.018309
O21	O	1.805152	-0.315577	0.139268
O22	O	2.305152	0.184423	0.639268
O23	O	1.617166	-0.313520	0.358532
O24	O	2.117166	0.186480	0.858532
O25	O	1.860968	-0.405499	0.685319
O26	O	2.360968	0.094501	1.185319
O27	O	1.645597	-0.431458	0.493256
O28	O	2.145597	0.068542	0.993256
O29	O	1.995720	-0.267893	0.696119
O30	O	2.495720	0.232107	1.196119
O31	O	2.013541	-0.590728	0.285668
O32	O	2.513541	-0.090728	0.785668
O33	O	1.871106	-0.589170	0.451801
O34	O	2.371106	-0.089170	0.951801
C35	C	1.586242	-0.375165	0.428939
C36	C	2.086242	0.124835	0.928939
C37	C	1.447972	-0.383382	0.438290
C38	C	1.947972	0.116618	0.938290
C39	C	1.947693	-0.627919	0.362525
C40	C	2.447693	-0.127919	0.862525
C41	C	1.964163	-0.744233	0.343474
C42	C	2.464163	-0.244233	0.843474
C43	C	1.917977	-0.915579	0.397418
C44	C	2.417977	-0.415579	0.897418
C45	C	1.900961	-0.795362	0.417119
C46	C	2.400961	-0.295362	0.917119
C47	C	2.233949	-0.336782	0.385259
C48	C	2.733949	0.163218	0.885259
C49	C	2.372225	-0.328588	0.375934
C50	C	2.872225	0.171412	0.875934
C51	C	1.931494	-0.333473	0.738038
C52	C	2.431494	0.166527	1.238038
C53	C	1.940882	-0.323869	0.879046
C54	C	2.440882	0.176131	1.379046
C55	C	1.871123	-0.083036	0.451956
C56	C	2.371123	0.416964	0.951956
C57	C	1.854784	0.033289	0.471054
C58	C	2.354784	0.533289	0.971054
C59	C	1.887581	-0.378380	0.077539
C60	C	2.387581	0.121620	0.577539
C61	C	1.878393	-0.387675	-0.063436
C62	C	2.378393	0.112325	0.436564
H63	H	1.407036	-0.436590	0.498825
H64	H	1.907036	0.063410	0.998825
O65	O	2.021274	-0.241774	0.956712
O66	O	2.521274	0.258226	1.456712
H67	H	2.065576	-0.196554	0.892399
H68	H	2.565576	0.303446	1.392399
H69	H	1.413156	-0.275390	0.315393
H70	H	1.913156	0.224610	0.815393
H71	H	1.817716	-0.449652	0.877931
H72	H	2.317716	0.050348	1.377931
O73	O	2.006368	-0.975465	0.294616
O74	O	2.506368	-0.475465	0.794616
H75	H	2.005885	-1.060489	0.295295
H76	H	2.505885	-0.560489	0.795295
H77	H	1.834251	-0.750142	0.494748
H78	H	2.334251	-0.250142	0.994748
O79	O	2.052538	-0.804115	0.240646
O80	O	2.552538	-0.304115	0.740646
H81	H	2.052051	-0.889140	0.241316
H82	H	2.552051	-0.389140	0.741316
H83	H	1.788079	-0.921487	0.548677
H84	H	2.288079	-0.421487	1.048677
