data_functionalizedCrystal
_audit_creation_method	'MofGen! by Chris Wilmer'
_symmetry_space_group_name_H-M	'P1'
_symmetry_Int_Tables_number	1
_symmetry_cell_setting	triclinic
loop_
_symmetry_equiv_pos_as_xyz
  x,y,z
_cell_length_a	14.908558
_cell_length_b	19.077391
_cell_length_c	19.076919
_cell_angle_alpha	89.937326
_cell_angle_beta	89.120201
_cell_angle_gamma	95.698727
loop_
_atom_site_label
_atom_site_type_symbol
_atom_site_fract_x
_atom_site_fract_y
_atom_site_fract_z
Zn1	Zn	1.374718	0.360102	-0.445240
Zn2	Zn	1.874718	0.860102	0.054760
Zn3	Zn	1.386701	0.473450	-0.323529
Zn4	Zn	1.886701	0.973450	0.176471
Zn5	Zn	1.229644	0.348608	-0.321503
Zn6	Zn	1.729644	0.848608	0.178497
Zn7	Zn	1.230062	0.470796	-0.434253
Zn8	Zn	1.730062	0.970796	0.065747
O9	O	1.305281	0.413239	-0.381131
O10	O	1.805281	0.913239	0.118869
O11	O	1.502576	0.381059	-0.434541
O12	O	2.002576	0.881059	0.065459
O13	O	1.370707	0.453190	-0.225137
O14	O	1.870707	0.953190	0.274863
O15	O	1.243699	0.251560	-0.341668
O16	O	1.743699	0.751560	0.158332
O17	O	1.511379	0.464336	-0.345120
O18	O	2.011379	0.964336	0.154880
O19	O	1.350284	0.260005	-0.432577
O20	O	1.850284	0.760005	0.067423
O21	O	1.255318	0.361469	-0.223649
O22	O	1.755318	0.861469	0.276351
O23	O	1.103431	0.358895	-0.331014
O24	O	1.603431	0.858895	0.168986
O25	O	1.244411	0.459812	-0.533833
O26	O	1.744411	0.959812	-0.033833
O27	O	1.103739	0.448666	-0.413851
O28	O	1.603739	0.948666	0.086149
O29	O	1.350690	0.378486	-0.541906
O30	O	1.850690	0.878486	-0.041906
O31	O	1.371112	0.571671	-0.334466
O32	O	1.871112	1.071671	0.165534
O33	O	1.256030	0.569721	-0.415815
O34	O	1.756030	1.069721	0.084185
C35	C	1.070845	0.402246	-0.371021
C36	C	1.570845	0.902246	0.128979
C37	C	0.970552	0.397560	-0.366711
C38	C	1.470552	0.897560	0.133289
C39	C	1.314941	0.596256	-0.374184
C40	C	1.814941	1.096256	0.125816
C41	C	1.319154	0.674557	-0.371239
C42	C	1.819154	1.174557	0.128761
C43	C	0.829001	0.344154	-0.317585
C44	C	1.329001	0.844154	0.182415
C45	C	0.923235	0.348553	-0.321631
C46	C	1.423235	0.848553	0.178369
C47	C	0.923629	0.442171	-0.407750
C48	C	1.423629	0.942171	0.092250
C49	C	0.829395	0.437772	-0.403703
C50	C	1.329395	0.937772	0.096297
C51	C	0.782084	0.388763	-0.358619
C52	C	1.282084	0.888763	0.141381
C53	C	0.687849	0.384368	-0.354569
C54	C	1.187849	0.884368	0.145431
C55	C	0.688245	0.477982	-0.440691
C56	C	1.188245	0.977982	0.059309
C57	C	0.782479	0.482381	-0.444737
C58	C	1.282479	0.982381	0.055263
C59	C	1.261179	0.710350	-0.412171
C60	C	1.761179	1.210350	0.087829
C61	C	1.265142	0.783921	-0.409401
C62	C	1.765142	1.283921	0.090599
C63	C	1.327086	0.821699	-0.365703
C64	C	1.827086	1.321699	0.134297
C65	C	1.385063	0.785901	-0.324767
C66	C	1.885063	1.285901	0.175233
C67	C	1.381095	0.712330	-0.327533
C68	C	1.881095	1.212330	0.172467
C69	C	1.345379	1.041838	-0.352888
C70	C	1.845379	1.541838	0.147112
C71	C	1.349345	1.115414	-0.350126
C72	C	1.849345	1.615414	0.149874
C73	C	1.229422	1.113429	-0.434760
C74	C	1.729422	1.613429	0.065240
C75	C	1.225463	1.039857	-0.437526
C76	C	1.725463	1.539857	0.062474
C77	C	1.283437	1.004065	-0.396587
C78	C	1.783437	1.504065	0.103413
N79	N	1.331140	0.896901	-0.362872
N80	N	1.831140	1.396901	0.137128
N81	N	1.279378	0.928864	-0.399414
N82	N	1.779378	1.428864	0.100586
C83	C	1.540633	0.424276	-0.391282
C84	C	2.040633	0.924276	0.108718
C85	C	1.640926	0.428979	-0.395607
C86	C	2.140926	0.928979	0.104393
C87	C	1.296260	0.420135	-0.564023
C88	C	1.796260	0.920135	-0.064023
C89	C	1.292416	0.423074	-0.641961
C90	C	1.792416	0.923074	-0.141961
C91	C	1.295579	1.229507	-0.388111
C92	C	1.795579	1.729507	0.111889
C93	C	1.291370	1.151207	-0.391058
C94	C	1.791370	1.651207	0.108942
C95	C	1.345941	0.382114	-0.682780
C96	C	1.845941	0.882114	-0.182780
C97	C	1.342318	0.384872	-0.756010
C98	C	1.842318	0.884872	-0.256010
C99	C	1.285174	0.428594	-0.788420
C100	C	1.785174	0.928594	-0.288420
C101	C	1.231644	0.469555	-0.747595
C102	C	1.731644	0.969555	-0.247595
C103	C	1.235263	0.466793	-0.674367
C104	C	1.735263	0.966793	-0.174367
C105	C	1.268413	0.441392	-1.006980
C106	C	1.768413	0.941392	-0.506980
C107	C	1.264800	0.444152	-1.080214
C108	C	1.764800	0.944152	-0.580214
C109	C	1.375473	0.359468	-1.088624
C110	C	1.875473	0.859468	-0.588624
C111	C	1.379091	0.356713	-1.015393
C112	C	1.879091	0.856713	-0.515393
C113	C	1.325557	0.397671	-0.974575
C114	C	1.825557	0.897671	-0.474575
N115	N	1.281472	0.431416	-0.863273
N116	N	1.781472	0.931416	-0.363273
N117	N	1.329256	0.394845	-0.899723
N118	N	1.829256	0.894845	-0.399723
C119	C	1.314316	0.406321	-0.198955
C120	C	1.814316	0.906321	0.301045
C121	C	1.318325	0.403193	-0.121033
C122	C	1.818325	0.903193	0.378967
H123	H	0.649330	0.344462	-0.317859
H124	H	1.149330	0.844462	0.182141
H125	H	0.821012	0.522281	-0.481445
H126	H	1.321012	1.022281	0.018555
H127	H	1.419057	0.326121	-1.121865
H128	H	1.919057	0.826121	-0.621865
H129	H	0.790480	0.304250	-0.280874
H130	H	1.290480	0.804250	0.219126
H131	H	1.385906	0.351520	-0.789242
H132	H	1.885906	0.851520	-0.289242
H133	H	1.224835	0.474754	-0.973755
H134	H	1.724835	0.974754	-0.473755
H135	H	1.399792	1.146171	-0.314543
H136	H	1.899792	1.646171	0.185457
H137	H	1.175024	1.009100	-0.473108
H138	H	1.675024	1.509100	0.026892
H139	H	1.435495	0.816665	-0.289183
H140	H	1.935495	1.316665	0.210817
H141	H	1.185113	0.505152	-0.773989
H142	H	1.685113	1.005152	-0.273989
C143	C	1.441944	0.308608	-0.979748
C144	C	1.941944	0.808608	-0.479748
N145	N	1.489285	0.272373	-0.952900
N146	N	1.989285	0.772373	-0.452900
H147	H	1.218264	0.479758	-1.106600
H148	H	1.718264	0.979758	-0.606600
H149	H	1.191668	0.500139	-0.641132
H150	H	1.691668	1.000139	-0.141132
H151	H	0.962165	0.482068	-0.444459
H152	H	1.462165	0.982068	0.055541
H153	H	0.961430	0.312226	-0.288220
H154	H	1.461430	0.812226	0.211780
H155	H	1.210742	0.679596	-0.447758
H156	H	1.710742	1.179596	0.052242
C157	C	0.636629	0.527055	-0.485831
C158	C	1.136629	1.027055	0.014169
N159	N	0.597751	0.564016	-0.519829
N160	N	1.097751	1.064016	-0.019829
H161	H	1.217925	0.813060	-0.442725
H162	H	1.717925	1.313060	0.057275
H163	H	1.182222	1.142579	-0.468089
H164	H	1.682222	1.642579	0.031911
C165	C	1.409138	1.002475	-0.307840
C166	C	1.909138	1.502475	0.192160
N167	N	1.457157	0.972825	-0.273903
N168	N	1.957157	1.472825	0.226097
H169	H	1.428303	0.683189	-0.294202
H170	H	1.928303	1.183189	0.205798
H171	H	1.392476	0.346513	-0.656397
H172	H	1.892476	0.846513	-0.156397
