data_functionalizedCrystal
_audit_creation_method	'MofGen! by Chris Wilmer'
_symmetry_space_group_name_H-M	'P1'
_symmetry_Int_Tables_number	1
_symmetry_cell_setting	triclinic
loop_
_symmetry_equiv_pos_as_xyz
  x,y,z
_cell_length_a	19.188930
_cell_length_b	16.109301
_cell_length_c	15.186229
_cell_angle_alpha	90.003114
_cell_angle_beta	89.995250
_cell_angle_gamma	96.696869
loop_
_atom_site_label
_atom_site_type_symbol
_atom_site_fract_x
_atom_site_fract_y
_atom_site_fract_z
O1	O	0.089739	-1.102837	-0.073183
O2	O	0.100908	-0.860738	-0.073198
O3	O	-0.006316	-0.988774	-0.073173
O4	O	0.196963	-0.974801	-0.073208
O5	O	-0.006308	-0.988758	0.073284
O6	O	0.100915	-0.860722	0.073259
O7	O	0.089747	-1.102821	0.073274
Zn8	Zn	0.095332	-0.981769	0.096520
Zn9	Zn	0.095322	-0.981790	-0.096444
O10	O	0.196970	-0.974785	0.073249
C11	C	0.100459	-0.829757	0.000029
C12	C	0.099103	-0.737466	0.000024
C13	C	-0.032324	-0.988313	0.000058
C14	C	-0.109832	-0.986955	0.000066
C15	C	0.090196	-1.133802	0.000045
C16	C	0.091552	-1.226093	0.000045
C17	C	-0.154580	-1.062082	0.000075
C18	C	-0.227407	-1.060806	0.000060
C19	C	-0.255482	-0.984399	0.000055
C20	C	-0.210724	-0.909261	0.000041
C21	C	-0.137899	-0.910540	0.000046
N22	N	-0.363621	-0.925989	0.049893
N23	N	-0.432802	-0.924780	0.049890
C24	C	-0.474900	-0.980543	0.000037
N25	N	-0.445203	-1.037573	-0.049802
N26	N	-0.376016	-1.038785	-0.049795
C27	C	-0.334448	-0.983004	0.000049
C28	C	-0.598616	-1.054292	0.000029
C29	C	-0.671443	-1.053012	0.000010
C30	C	-0.654759	-0.901465	-0.000001
C31	C	-0.581933	-0.902747	0.000010
C32	C	-0.553866	-0.979162	0.000029
C33	C	0.222979	-0.975246	0.000016
C34	C	0.300486	-0.976604	0.000003
N35	N	0.095339	-0.981761	0.228213
C36	C	0.159573	-0.514993	0.000023
C37	C	0.158294	-0.428277	0.000029
C38	C	0.031076	-0.448573	0.000048
C39	C	0.032357	-0.535287	0.000048
C40	C	0.096608	-0.568495	0.000031
C41	C	0.094047	-0.395064	0.000037
C42	C	0.092659	-0.301043	0.000043
C43	C	0.097996	-0.662522	0.000027
C44	C	0.137689	-1.032043	0.453931
C45	C	0.137685	-1.032052	0.546121
C46	C	0.052965	-0.931515	0.546139
C47	C	0.052966	-0.931512	0.453951
C48	C	0.095332	-0.981774	0.407849
C49	C	0.095327	-0.981786	0.592227
C50	C	0.095322	-0.981795	0.692183
C51	C	0.095336	-0.981767	0.307887
N52	N	0.095320	-0.981800	0.771863
H53	H	-0.263848	-1.121986	0.000064
H54	H	-0.018920	-0.578851	0.000057
O55	O	-0.685031	-0.819052	-0.000009
H56	H	-0.667056	-0.782957	0.059681
O57	O	0.183369	-1.086270	0.595829
H58	H	0.239171	-1.067969	0.578142
O59	O	-0.038219	-0.412753	0.000065
H60	H	-0.068480	-0.434271	-0.059620
H61	H	0.209567	-0.384719	0.000024
O62	O	-0.089627	-0.829507	0.000052
H63	H	-0.121381	-0.776159	0.000052
H64	H	0.211890	-0.542027	0.000016
O65	O	0.007270	-0.877311	0.595868
H66	H	-0.022192	-0.842364	0.548334
O67	O	0.007281	-0.877287	0.404238
H68	H	-0.022170	-0.842326	0.451781
O69	O	-0.533661	-0.821716	0.000022
H70	H	-0.565415	-0.768369	0.000026
O71	O	0.183376	-1.086258	0.404203
H72	H	0.212824	-1.121221	0.451738
H73	H	-0.575763	-1.116514	0.000041
O74	O	-0.124306	-1.144498	0.000071
H75	H	-0.167662	-1.196525	0.000062
H76	H	-0.233587	-0.847050	0.000035
H77	H	-0.707878	-1.114193	0.000012
