data_functionalizedCrystal
_audit_creation_method	'MofGen! by Chris Wilmer'
_symmetry_space_group_name_H-M	'P1'
_symmetry_Int_Tables_number	1
_symmetry_cell_setting	triclinic
loop_
_symmetry_equiv_pos_as_xyz
  x,y,z
_cell_length_a	11.792241
_cell_length_b	15.995350
_cell_length_c	10.868271
_cell_angle_alpha	89.997096
_cell_angle_beta	89.999893
_cell_angle_gamma	83.842895
loop_
_atom_site_label
_atom_site_type_symbol
_atom_site_fract_x
_atom_site_fract_y
_atom_site_fract_z
O1	O	1.505951	0.114763	-0.102196
O2	O	1.839284	0.448097	0.231137
O3	O	2.172618	0.781430	0.564470
O4	O	1.175511	0.126591	-0.102224
O5	O	1.508845	0.459924	0.231109
O6	O	1.842178	0.793257	0.564442
O7	O	1.349764	-0.001170	-0.102208
O8	O	1.683097	0.332164	0.231125
O9	O	2.016431	0.665497	0.564458
O10	O	1.331698	0.242524	-0.102212
O11	O	1.665032	0.575857	0.231121
O12	O	1.998365	0.909190	0.564454
O13	O	1.349750	-0.001175	0.102436
O14	O	1.683083	0.332159	0.435770
O15	O	2.016416	0.665492	0.769103
O16	O	1.175497	0.126586	0.102420
O17	O	1.508830	0.459919	0.435754
O18	O	1.842164	0.793252	0.769087
O19	O	1.505937	0.114758	0.102448
O20	O	1.839270	0.448091	0.435782
O21	O	2.172603	0.781425	0.769115
Zn22	Zn	1.340715	0.120671	0.134926
Zn23	Zn	1.674048	0.454004	0.468259
Zn24	Zn	2.007381	0.787338	0.801593
Zn25	Zn	1.340734	0.120678	-0.134702
Zn26	Zn	1.674067	0.454011	0.198631
Zn27	Zn	2.007400	0.787344	0.531965
O28	O	1.331684	0.242519	0.102432
O29	O	1.665018	0.575852	0.435766
O30	O	1.998351	0.909185	0.769099
C31	C	1.133220	0.125845	0.000094
C32	C	1.466553	0.459179	0.333428
C33	C	1.799886	0.792512	0.666761
C34	C	1.007224	0.123621	0.000084
C35	C	1.340558	0.456955	0.333417
C36	C	1.673891	0.790288	0.666750
C37	C	0.776546	0.119532	0.000119
C38	C	1.109880	0.452866	0.333452
C39	C	1.443213	0.786199	0.666786
C40	C	0.904913	0.121804	0.000099
C41	C	1.238246	0.455138	0.333433
C42	C	1.571579	0.788471	0.666766
C43	C	1.349010	-0.032370	0.000112
C44	C	1.682343	0.300963	0.333445
C45	C	2.015677	0.634296	0.666778
C46	C	1.346771	-0.125331	0.000104
C47	C	1.680104	0.208002	0.333438
C48	C	2.013438	0.541336	0.666771
C49	C	1.338730	-0.463115	0.000108
C50	C	1.672063	-0.129782	0.333441
C51	C	2.005397	0.203552	0.666775
C52	C	1.214630	-0.416244	-0.000362
C53	C	1.547964	-0.082911	0.332972
C54	C	1.881297	0.250422	0.666305
C55	C	1.216870	-0.319544	0.000100
C56	C	1.550203	0.013790	0.333433
C57	C	1.883537	0.347123	0.666766
C58	C	1.342718	-0.295536	0.000105
C59	C	1.676052	0.037797	0.333439
C60	C	2.009385	0.371130	0.666772
C61	C	1.403921	-0.336339	0.116971
C62	C	1.737254	-0.003005	0.450304
C63	C	2.070587	0.330328	0.783637
C64	C	1.400803	-0.432989	0.117068
C65	C	1.734136	-0.099655	0.450402
C66	C	2.067470	0.233678	0.783735
C67	C	1.403383	-0.433329	-0.115651
C68	C	1.736716	-0.099996	0.217682
C69	C	2.070050	0.233337	0.551016
C70	C	1.403354	-0.336384	-0.117195
C71	C	1.736687	-0.003051	0.216138
C72	C	2.070020	0.330283	0.549471
C73	C	1.344979	-0.200829	0.000108
C74	C	1.678313	0.132505	0.333442
C75	C	2.011646	0.465838	0.666775
C76	C	1.336473	-0.557823	0.000113
C77	C	1.669806	-0.224490	0.333447
C78	C	2.003139	0.108844	0.666780
C79	C	1.548229	0.115504	0.000127
C80	C	1.881562	0.448837	0.333460
C81	C	2.214895	0.782170	0.666794
C82	C	1.674224	0.117727	0.000130
C83	C	2.007557	0.451061	0.333463
C84	C	2.340891	0.784394	0.666796
C85	C	1.332438	0.273719	0.000110
C86	C	1.665772	0.607053	0.333443
C87	C	1.999105	0.940386	0.666777
C88	C	1.334677	0.366680	0.000109
C89	C	1.668011	0.700013	0.333442
C90	C	2.001344	1.033346	0.666776
N91	N	1.340710	0.120666	0.318940
N92	N	1.674043	0.453999	0.652274
N93	N	2.007377	0.787333	0.985607
N94	N	1.340747	0.120676	-0.318716
N95	N	1.674080	0.454010	0.014617
N96	N	2.007414	0.787343	0.347951
C97	C	1.340728	0.120676	0.569946
C98	C	1.674061	0.454009	0.903280
C99	C	2.007394	0.787343	1.236613
C100	C	1.340714	0.120673	0.430269
C101	C	1.674048	0.454006	0.763602
C102	C	2.007381	0.787340	1.096935
H103	H	1.168760	-0.291338	-0.083674
H104	H	1.502094	0.041995	0.249659
H105	H	1.835427	0.375329	0.582993
H106	H	1.495128	-0.320605	-0.124247
H107	H	1.828461	0.012728	0.209086
H108	H	2.161795	0.346061	0.542420
Cl109	Cl	1.340738	-0.465309	-0.252408
Cl110	Cl	1.674071	-0.131975	0.080926
Cl111	Cl	2.007404	0.201358	0.414259
H112	H	1.165035	-0.434999	-0.084168
H113	H	1.498368	-0.101666	0.249165
H114	H	1.831701	0.231668	0.582498
H115	H	1.361401	-0.308152	0.203934
H116	H	1.694734	0.025181	0.537267
H117	H	2.028068	0.358514	0.870600
H118	H	1.494881	-0.464675	-0.116432
H119	H	1.828214	-0.131342	0.216901
H120	H	2.161548	0.201992	0.550235
H121	H	1.165243	-0.436064	0.082970
H122	H	1.498577	-0.102731	0.416303
H123	H	1.831910	0.230602	0.749637
Cl124	Cl	1.142071	-0.276859	0.129646
Cl125	Cl	1.475405	0.056474	0.462980
Cl126	Cl	1.808738	0.389808	0.796313
Cl127	Cl	1.541467	-0.482143	0.125279
Cl128	Cl	1.874800	-0.148809	0.458612
Cl129	Cl	2.208134	0.184524	0.791945
Cl130	Cl	1.334836	-0.294133	-0.250696
Cl131	Cl	1.668169	0.039201	0.082638
Cl132	Cl	2.001502	0.372534	0.415971
Cl133	Cl	1.546669	-0.313884	0.123695
Cl134	Cl	1.880002	0.019449	0.457028
Cl135	Cl	2.213335	0.352783	0.790361
Cl136	Cl	1.331875	-0.461564	0.251932
Cl137	Cl	1.665208	-0.128231	0.585265
Cl138	Cl	1.998542	0.205103	0.918598
