data_functionalizedCrystal
_audit_creation_method	'MofGen! by Chris Wilmer'
_symmetry_space_group_name_H-M	'P1'
_symmetry_Int_Tables_number	1
_symmetry_cell_setting	triclinic
loop_
_symmetry_equiv_pos_as_xyz
  x,y,z
_cell_length_a	12.759401
_cell_length_b	13.032721
_cell_length_c	12.759393
_cell_angle_alpha	82.851972
_cell_angle_beta	90.018496
_cell_angle_gamma	97.204304
loop_
_atom_site_label
_atom_site_type_symbol
_atom_site_fract_x
_atom_site_fract_y
_atom_site_fract_z
Zn1	Zn	1.553098	-0.415970	0.647064
Zn2	Zn	2.053098	0.084030	1.147064
Zn3	Zn	1.530656	-0.590752	0.493688
Zn4	Zn	2.030656	-0.090752	0.993688
Zn5	Zn	1.377393	-0.416025	0.471410
Zn6	Zn	1.877393	0.083975	0.971410
Zn7	Zn	1.355063	-0.590671	0.669319
Zn8	Zn	1.855063	-0.090671	1.169319
O9	O	1.454052	-0.503355	0.570370
O10	O	1.954052	-0.003355	1.070370
O11	O	1.697140	-0.439166	0.626728
O12	O	2.197140	0.060834	1.126728
O13	O	1.510279	-0.567631	0.343719
O14	O	2.010279	-0.067631	0.843719
O15	O	1.419437	-0.269780	0.476074
O16	O	1.919437	0.230220	0.976074
O17	O	1.680653	-0.567577	0.514043
O18	O	2.180653	-0.067577	1.014043
O19	O	1.548527	-0.269740	0.605126
O20	O	2.048527	0.230260	1.105126
O21	O	1.397677	-0.439259	0.327352
O22	O	1.897677	0.060741	0.827352
O23	O	1.227411	-0.439181	0.497654
O24	O	1.727411	0.060819	0.997654
O25	O	1.381379	-0.567440	0.813381
O26	O	1.881379	-0.067440	1.313381
O27	O	1.211005	-0.567493	0.643057
O28	O	1.711005	-0.067493	1.143057
O29	O	1.526875	-0.439088	0.797030
O30	O	2.026875	0.060912	1.297030
O31	O	1.488626	-0.736978	0.535623
O32	O	1.988626	-0.236978	1.035623
O33	O	1.359619	-0.736919	0.664659
O34	O	1.859619	-0.236919	1.164659
C35	C	1.181087	-0.503335	0.570354
C36	C	1.681087	-0.003335	1.070354
C37	C	1.064309	-0.503352	0.570375
C38	C	1.564309	-0.003352	1.070375
C39	C	1.000918	-0.570271	0.645989
C40	C	1.500918	-0.070271	1.145989
C41	C	0.891192	-0.570285	0.646002
C42	C	1.391192	-0.070285	1.146002
C43	C	0.908258	-0.436457	0.494778
C44	C	1.408258	0.063543	0.994778
C45	C	1.017982	-0.436439	0.494770
C46	C	1.517982	0.063561	0.994770
C47	C	0.991064	-0.647539	0.733294
C48	C	1.491064	-0.147539	1.233294
C49	C	0.881338	-0.647552	0.733307
C50	C	1.381338	-0.147552	1.233307
C51	C	1.419293	-0.774866	0.604997
C52	C	1.919293	-0.274866	1.104997
C53	C	1.404519	-0.891020	0.619845
C54	C	1.904519	-0.391020	1.119845
C55	C	1.461819	-0.942800	0.562668
C56	C	1.961819	-0.442800	1.062668
C57	C	1.446551	-1.062851	0.578013
C58	C	1.946551	-0.562851	1.078013
C59	C	1.728083	-0.503375	0.570388
C60	C	2.228083	-0.003375	1.070388
C61	C	1.844859	-0.503383	0.570395
C62	C	2.344859	-0.003383	1.070395
C63	C	1.454139	-0.503249	0.844390
C64	C	1.954139	-0.003249	1.344390
C65	C	1.454176	-0.503204	0.961161
C66	C	1.954176	-0.003204	1.461161
C67	C	1.488976	-0.230782	0.535632
C68	C	1.988976	0.269218	1.035632
C69	C	1.503859	-0.114628	0.520829
C70	C	2.003859	0.385372	1.020829
C71	C	1.454036	-0.503384	0.297407
C72	C	1.954036	-0.003384	0.797407
C73	C	1.454240	-0.503135	0.180599
C74	C	1.954240	-0.003135	0.680599
C75	C	1.529946	-0.436365	1.007510
C76	C	2.029946	0.063635	1.507510
C77	C	1.529976	-0.436327	1.117230
C78	C	2.029976	0.063673	1.617230
C79	C	1.378462	-0.569977	1.134243
C80	C	1.878462	-0.069977	1.634243
C81	C	1.378429	-0.570009	1.024525
C82	C	1.878429	-0.070009	1.524525
C83	C	1.617424	-0.359206	0.997689
C84	C	2.117424	0.140794	1.497689
C85	C	1.617454	-0.359168	1.107409
C86	C	2.117454	0.140832	1.607409
H87	H	1.015259	-0.724379	0.713815
H88	H	1.515259	-0.224379	1.213815
H89	H	1.522184	-0.898256	0.502360
H90	H	2.022184	-0.398256	1.002360
H91	H	0.851032	-0.618663	0.806972
H92	H	1.351032	-0.118663	1.306972
H93	H	1.069592	-0.381940	0.433204
H94	H	1.569592	0.118060	0.933204
H95	H	1.564228	-1.070087	0.460517
H96	H	2.064228	-0.570087	0.960517
H97	H	0.841202	-0.728468	0.721700
H98	H	1.341202	-0.228468	1.221700
H99	H	1.386190	-1.107394	0.638333
H100	H	1.886190	-0.607394	1.138333
H101	H	1.344163	-0.935567	0.680160
H102	H	1.844163	-0.435567	1.180160
H103	H	1.316727	-0.624432	0.986792
H104	H	1.816727	-0.124432	1.486792
H105	H	1.023631	-0.625956	0.811946
H106	H	1.523631	-0.125956	1.311946
H107	H	1.690988	-0.388219	0.967356
H108	H	2.190988	0.111781	1.467356
H109	H	1.316790	-0.624365	1.185846
H110	H	1.816790	-0.124365	1.685846
H111	H	1.605997	-0.278276	0.957606
H112	H	2.105997	0.221724	1.457606
H113	H	1.696054	-0.380844	1.139953
H114	H	2.196054	0.119156	1.639953
H115	H	0.870525	-0.381977	0.433224
H116	H	1.370525	0.118023	0.933224
H117	H	1.598167	-0.282271	1.131644
H118	H	2.098167	0.217729	1.631644
