data_functionalizedCrystal
_audit_creation_method	'MofGen! by Chris Wilmer'
_symmetry_space_group_name_H-M	'P1'
_symmetry_Int_Tables_number	1
_symmetry_cell_setting	triclinic
loop_
_symmetry_equiv_pos_as_xyz
  x,y,z
_cell_length_a	10.723023
_cell_length_b	17.699091
_cell_length_c	16.176319
_cell_angle_alpha	90.005674
_cell_angle_beta	89.993069
_cell_angle_gamma	96.123188
loop_
_atom_site_label
_atom_site_type_symbol
_atom_site_fract_x
_atom_site_fract_y
_atom_site_fract_z
O1	O	1.655379	-0.106151	-0.068736
O2	O	1.292052	-0.116313	-0.068739
O3	O	1.483975	-0.001108	-0.068734
O4	O	1.463456	-0.221356	-0.068741
O5	O	1.483949	-0.001100	0.068759
O6	O	1.292026	-0.116305	0.068754
O7	O	1.655352	-0.106144	0.068757
Cu8	Cu	1.473687	-0.111224	0.081310
Cu9	Cu	1.473718	-0.111233	-0.081292
O10	O	1.463429	-0.221349	0.068753
C11	C	1.245552	-0.115570	0.000007
C12	C	1.107036	-0.113358	0.000006
C13	C	1.045267	-0.112367	0.071231
C14	C	0.902103	-0.110081	0.071231
C15	C	1.483225	0.027097	0.000011
C16	C	1.481015	0.111129	0.000008
C17	C	1.701852	-0.106887	0.000009
C18	C	1.840369	-0.109099	0.000005
C19	C	1.479994	0.150599	-0.074940
C20	C	1.477908	0.229555	-0.074940
C21	C	1.476854	0.269041	0.000009
C22	C	1.477871	0.229565	0.074963
C23	C	1.479947	0.150610	0.074962
C24	C	1.469497	0.547983	0.074967
C25	C	1.467424	0.626944	0.074962
C26	C	1.467458	0.626928	-0.074935
C27	C	1.469534	0.547973	-0.074935
C28	C	1.470545	0.508504	0.000018
C29	C	1.472803	0.422890	0.000017
C30	C	1.474604	0.354653	0.000010
C31	C	1.464180	0.750446	0.000008
C32	C	1.466394	0.666415	0.000013
N33	N	1.473674	-0.111217	0.195675
N34	N	1.473741	-0.111233	-0.195657
C35	C	1.558683	-0.060226	0.238941
C36	C	1.558689	-0.060225	0.325489
C37	C	1.473692	-0.111220	0.368768
C38	C	1.388673	-0.162214	0.325495
C39	C	1.388662	-0.162210	0.238950
C40	C	1.388716	-0.162228	0.674524
C41	C	1.388737	-0.162229	0.761075
C42	C	1.558743	-0.060243	0.761062
C43	C	1.558732	-0.060239	0.674517
C44	C	1.473710	-0.111230	0.631252
C45	C	1.473703	-0.111229	0.537408
C46	C	1.473704	-0.111225	0.462610
H47	H	1.053930	-0.112511	-0.060972
O48	O	0.838718	-0.108928	0.143961
C49	C	0.777727	-0.042301	0.148373
H50	H	0.827049	0.002802	0.105873
H51	H	0.780923	-0.020306	0.214661
H52	H	0.675892	-0.055522	0.128155
H53	H	1.480761	0.118473	0.135992
O54	O	0.903837	-0.110219	-0.072696
C55	C	0.964774	-0.176865	-0.077128
H56	H	0.979357	-0.198986	-0.012038
H57	H	1.059584	-0.163614	-0.108770
H58	H	0.904660	-0.221885	-0.114159
O59	O	1.480961	0.112359	-0.147820
C60	C	1.479641	0.164133	-0.213971
H61	H	1.438668	0.217489	-0.191996
H62	H	1.419694	0.136828	-0.266391
H63	H	1.579491	0.179949	-0.237016
H64	H	1.098374	-0.113208	0.132209
O65	O	1.641128	-0.010568	0.196959
C66	C	1.621064	0.064454	0.218166
H67	H	1.521159	0.065355	0.241958
H68	H	1.635534	0.102383	0.161272
H69	H	1.690273	0.086289	0.268414
O70	O	1.641270	-0.010597	0.803002
C71	C	1.621194	0.064438	0.781879
H72	H	1.573094	0.064610	0.719047
H73	H	1.715096	0.101192	0.778912
H74	H	1.559160	0.088188	0.830597
H75	H	1.477082	0.261688	-0.135970
H76	H	1.470399	0.515828	-0.135966
O77	O	1.466232	0.665292	-0.147722
C78	C	1.357016	0.702963	-0.152193
H79	H	1.282134	0.673567	-0.109663
H80	H	1.320743	0.701169	-0.218482
H81	H	1.379855	0.764613	-0.132050
H82	H	1.466562	0.659091	0.135998
O83	O	1.641034	-0.010559	0.632454
C84	C	1.574174	0.036506	0.582524
H85	H	1.476535	0.006800	0.569504
H86	H	1.626272	0.048370	0.521685
H87	H	1.565652	0.092404	0.616007
H88	H	1.470345	0.515858	0.135999
O89	O	1.476904	0.268040	0.147695
C90	C	1.474828	0.346191	0.131626
H91	H	1.514042	0.359896	0.067212
H92	H	1.534594	0.380689	0.179492
H93	H	1.374174	0.361181	0.135182
H94	H	1.627909	-0.018703	0.360716
O95	O	1.305985	-0.211688	0.803082
C96	C	1.182508	-0.198701	0.781943
H97	H	1.182092	-0.138101	0.758159
H98	H	1.119875	-0.207054	0.838870
H99	H	1.145708	-0.240447	0.731710
H100	H	1.319491	-0.203748	0.639304
O101	O	1.306226	-0.211723	0.367662
C102	C	1.324444	-0.200782	0.453328
H103	H	1.423733	-0.173045	0.465138
H104	H	1.310391	-0.258024	0.486211
H105	H	1.253942	-0.162431	0.477906
O106	O	1.306040	-0.211818	0.197046
C107	C	1.231001	-0.256817	0.253802
H108	H	1.282163	-0.257960	0.315487
H109	H	1.211773	-0.317153	0.228787
H110	H	1.138389	-0.231727	0.263024
