data_functionalizedCrystal
_audit_creation_method	'MofGen! by Chris Wilmer'
_symmetry_space_group_name_H-M	'P1'
_symmetry_Int_Tables_number	1
_symmetry_cell_setting	triclinic
loop_
_symmetry_equiv_pos_as_xyz
  x,y,z
_cell_length_a	14.044220
_cell_length_b	8.559649
_cell_length_c	7.088929
_cell_angle_alpha	95.344185
_cell_angle_beta	83.222077
_cell_angle_gamma	81.483771
loop_
_atom_site_label
_atom_site_type_symbol
_atom_site_fract_x
_atom_site_fract_y
_atom_site_fract_z
O1	O	-1.219153	-0.396130	-0.158774
O2	O	-0.944182	-0.382376	-0.158823
O3	O	-1.105893	-0.160103	-0.158792
O4	O	-1.057442	-0.618403	-0.158805
O5	O	-1.127509	-0.130326	0.159187
O6	O	-0.965798	-0.352598	0.159156
O7	O	-1.240769	-0.366352	0.159205
Cu8	Cu	-1.105257	-0.356756	0.188215
Cu9	Cu	-1.079694	-0.391972	-0.187832
O10	O	-1.079058	-0.588625	0.159175
C11	C	-1.120372	-0.086208	0.000195
C12	C	-1.131301	0.089613	0.000186
C13	C	-0.920113	-0.361466	0.000161
C14	C	-0.816194	-0.343504	0.000142
C15	C	-1.264837	-0.387263	0.000218
C16	C	-1.368756	-0.405226	0.000224
C17	C	-0.625926	-0.310658	0.000181
C18	C	-0.559019	-0.438064	0.000185
C19	C	-0.453147	-0.419789	0.000207
C20	C	-0.731808	-0.328932	0.000159
C21	C	-1.064578	-0.662521	0.000184
C22	C	-1.053649	-0.838343	0.000180
N23	N	-1.123245	-0.331987	0.452706
N24	N	-1.061715	-0.416730	-0.452324
H25	H	-0.603696	-0.187867	0.000194
H26	H	-0.978807	0.088826	0.000173
H27	H	-0.997947	-0.504546	0.466018
H28	H	-1.206150	0.162454	0.000215
H29	H	-1.187023	-0.244177	0.534374
N30	N	-0.586897	-0.592125	0.000111
N31	N	-0.552443	-0.698214	-0.133947
H32	H	-0.572136	-0.807016	-0.134011
