data_functionalizedCrystal
_audit_creation_method	'MofGen! by Chris Wilmer'
_symmetry_space_group_name_H-M	'P1'
_symmetry_Int_Tables_number	1
_symmetry_cell_setting	triclinic
loop_
_symmetry_equiv_pos_as_xyz
  x,y,z
_cell_length_a	14.908571
_cell_length_b	18.050589
_cell_length_c	14.908858
_cell_angle_alpha	86.674157
_cell_angle_beta	89.795097
_cell_angle_gamma	86.724558
loop_
_atom_site_label
_atom_site_type_symbol
_atom_site_fract_x
_atom_site_fract_y
_atom_site_fract_z
Zn1	Zn	1.345265	-0.331727	-0.587611
Zn2	Zn	1.353817	-0.463479	-0.437254
Zn3	Zn	1.203573	-0.332570	-0.428605
Zn4	Zn	1.194853	-0.449137	-0.578908
O5	O	1.274377	-0.394228	-0.508095
O6	O	1.472225	-0.354853	-0.574928
O7	O	1.341115	-0.452468	-0.310279
O8	O	1.222439	-0.228536	-0.449720
O9	O	1.478508	-0.451650	-0.464461
O10	O	1.326540	-0.227916	-0.566541
O11	O	1.230732	-0.356290	-0.303925
O12	O	1.076591	-0.342384	-0.441282
O13	O	1.207577	-0.427207	-0.705890
O14	O	1.070184	-0.428025	-0.551709
O15	O	1.318084	-0.340946	-0.712284
O16	O	1.332659	-0.565499	-0.456022
O17	O	1.215869	-0.554962	-0.560095
C18	C	1.040763	-0.383740	-0.494613
C19	C	0.940820	-0.379271	-0.488866
C20	C	0.746403	-0.460205	-0.592902
C21	C	0.652498	-0.456007	-0.587506
C22	C	0.659103	-0.366674	-0.472684
C23	C	0.753008	-0.370872	-0.478080
C24	C	0.796655	-0.417639	-0.538190
C25	C	0.890562	-0.421841	-0.543581
C26	C	0.897164	-0.332504	-0.428764
C27	C	0.803259	-0.328307	-0.423368
C28	C	1.274269	-0.587176	-0.508074
C29	C	1.274304	-0.669722	-0.508099
C30	C	1.210853	-0.863474	-0.564676
C31	C	1.193667	-0.916058	-0.481365
C32	C	1.274391	-0.820856	-0.508116
C33	C	1.291621	-0.915355	-0.591439
C34	C	1.274474	-0.966844	-0.508139
C35	C	1.257165	-0.872354	-0.424759
C36	C	1.355153	-0.871645	-0.534890
C37	C	1.338002	-0.924211	-0.451524
C38	C	1.274341	-0.736756	-0.508104
C39	C	1.274524	-1.050943	-0.508143
C40	C	1.508903	-0.404757	-0.521630
C41	C	1.608845	-0.409244	-0.527398
C42	C	1.260904	-0.382383	-0.742625
C43	C	1.255162	-0.377335	-0.842568
C44	C	1.274508	-0.200527	-0.508137
C45	C	1.274564	-0.117983	-0.508155
C46	C	1.189606	-0.320148	-0.980124
C47	C	1.194997	-0.324890	-0.886219
C48	C	1.309942	-0.425042	-0.892829
C49	C	1.304551	-0.420301	-0.986735
C50	C	1.244380	-0.367853	-1.030379
C51	C	1.238985	-0.363116	-1.124286
C52	C	1.353934	-0.463264	-1.130895
C53	C	1.359325	-0.468005	-1.036989
C54	C	1.287849	-0.405976	-0.274480
C55	C	1.293765	-0.410822	-0.174547
H56	H	0.623549	-0.328593	-0.423751
H57	H	1.125408	-0.935668	-0.458739
H58	H	1.242545	-0.853449	-0.354279
H59	H	1.391772	-0.950560	-0.403644
H60	H	1.157051	-0.836992	-0.612432
O61	O	1.135917	-0.273437	-0.832016
H62	H	1.178647	-0.239617	-0.791570
O63	O	0.598342	-0.501952	-0.646515
H64	H	0.552946	-0.464577	-0.689905
H65	H	1.423394	-0.852034	-0.557555
O66	O	1.310890	-0.940510	-0.684765
H67	H	1.258013	-0.916020	-0.731563
O68	O	1.174096	-0.306546	-1.171366
H69	H	1.136922	-0.274165	-1.120641
H70	H	1.140609	-0.277446	-1.015660
O71	O	1.413007	-0.514735	-1.185091
H72	H	1.484624	-0.506090	-1.171140
H73	H	0.767709	-0.290228	-0.374430
H74	H	0.781942	-0.498289	-0.641841
O75	O	0.937636	-0.472266	-0.608430
H76	H	1.011377	-0.468036	-0.602993
H77	H	1.358937	-0.467738	-0.857278
O78	O	1.424220	-0.524575	-0.989916
H79	H	1.418764	-0.519861	-0.916174
O80	O	0.951362	-0.286587	-0.369749
H81	H	1.023993	-0.297358	-0.383601
