data_functionalizedCrystal
_audit_creation_method	'MofGen! by Chris Wilmer'
_symmetry_space_group_name_H-M	'P1'
_symmetry_Int_Tables_number	1
_symmetry_cell_setting	triclinic
loop_
_symmetry_equiv_pos_as_xyz
  x,y,z
_cell_length_a	21.395364
_cell_length_b	15.299816
_cell_length_c	21.395355
_cell_angle_alpha	99.667094
_cell_angle_beta	89.975273
_cell_angle_gamma	80.349247
loop_
_atom_site_label
_atom_site_type_symbol
_atom_site_fract_x
_atom_site_fract_y
_atom_site_fract_z
Zn1	Zn	1.001068	-0.359220	-0.397499
Zn2	Zn	1.334401	-0.025887	-0.064166
Zn3	Zn	1.667734	0.307446	0.269167
Zn4	Zn	1.019110	-0.510026	-0.310873
Zn5	Zn	1.352443	-0.176692	0.022461
Zn6	Zn	1.685777	0.156641	0.355794
Zn7	Zn	0.896282	-0.359216	-0.292735
Zn8	Zn	1.229616	-0.025883	0.040598
Zn9	Zn	1.562949	0.307451	0.373931
Zn10	Zn	0.914388	-0.509998	-0.415609
Zn11	Zn	1.247722	-0.176665	-0.082276
Zn12	Zn	1.581055	0.156669	0.251057
O13	O	0.957712	-0.434615	-0.354179
O14	O	1.291045	-0.101282	-0.020846
O15	O	1.624379	0.232052	0.312487
O16	O	1.091141	-0.379238	-0.386020
O17	O	1.424474	-0.045905	-0.052686
O18	O	1.757807	0.287428	0.280647
O19	O	1.002790	-0.490030	-0.220790
O20	O	1.336123	-0.156697	0.112543
O21	O	1.669456	0.176636	0.445877
O22	O	0.895054	-0.233001	-0.291463
O23	O	1.228388	0.100332	0.041870
O24	O	1.561721	0.433666	0.375204
O25	O	1.104396	-0.490034	-0.322375
O26	O	1.437729	-0.156701	0.010958
O27	O	1.771063	0.176632	0.344291
O28	O	0.972040	-0.233004	-0.368433
O29	O	1.305373	0.100329	-0.035099
O30	O	1.638706	0.433662	0.298234
O31	O	0.912549	-0.379231	-0.207465
O32	O	1.245882	-0.045898	0.125869
O33	O	1.579216	0.287436	0.459202
O34	O	0.811005	-0.379204	-0.309023
O35	O	1.144338	-0.045871	0.024310
O36	O	1.477671	0.287462	0.357643
O37	O	0.925913	-0.489987	-0.500884
O38	O	1.259247	-0.156654	-0.167550
O39	O	1.592580	0.176679	0.165783
O40	O	0.824307	-0.489983	-0.399298
O41	O	1.157640	-0.156650	-0.065965
O42	O	1.490974	0.176683	0.267368
O43	O	0.989596	-0.379211	-0.487578
O44	O	1.322930	-0.045878	-0.154245
O45	O	1.656263	0.287455	0.179088
O46	O	1.020346	-0.636238	-0.339936
O47	O	1.353680	-0.302904	-0.006602
O48	O	1.687013	0.030429	0.326731
O49	O	0.943408	-0.636217	-0.416885
O50	O	1.276741	-0.302884	-0.083552
O51	O	1.610075	0.030449	0.249781
C52	C	0.794922	-0.434591	-0.354158
C53	C	1.128255	-0.101258	-0.020825
C54	C	1.461588	0.232076	0.312508
C55	C	0.725282	-0.434602	-0.354167
C56	C	1.058615	-0.101269	-0.020833
C57	C	1.391948	0.232064	0.312500
C58	C	0.230443	-0.492403	-0.401159
C59	C	0.563776	-0.159070	-0.067826
C60	C	0.897109	0.174263	0.265507
C61	C	0.295878	-0.492403	-0.401153
C62	C	0.629211	-0.159070	-0.067819
C63	C	0.962545	0.174263	0.265514
C64	C	0.321647	-0.434635	-0.354201
C65	C	0.654981	-0.101301	-0.020868
C66	C	0.988314	0.232032	0.312465
C67	C	0.281977	-0.376878	-0.307244
C68	C	0.615310	-0.043545	0.026090
C69	C	0.948644	0.289789	0.359423
C70	C	0.216544	-0.376886	-0.307248
C71	C	0.549877	-0.043552	0.026085
C72	C	0.883210	0.289781	0.359419
C73	C	0.415559	-0.353351	-0.339567
C74	C	0.748892	-0.020018	-0.006234
C75	C	1.082226	0.313316	0.327100
C76	C	0.480991	-0.353342	-0.339567
C77	C	0.814324	-0.020008	-0.006234
C78	C	1.147657	0.313325	0.327100
C79	C	0.523465	-0.434611	-0.354185
C80	C	0.856798	-0.101278	-0.020851
C81	C	1.190132	0.232056	0.312482
C82	C	0.500500	-0.515892	-0.368816
C83	C	0.833833	-0.182559	-0.035483
C84	C	1.167167	0.150774	0.297851
C85	C	0.435067	-0.515900	-0.368820
C86	C	0.768400	-0.182567	-0.035487
C87	C	1.101733	0.150767	0.297846
C88	C	0.392598	-0.434620	-0.354191
C89	C	0.725931	-0.101287	-0.020858
C90	C	1.059265	0.232046	0.312475
C91	C	0.634080	-0.492369	-0.401130
C92	C	0.967414	-0.159036	-0.067797
C93	C	1.300747	0.174298	0.265537
C94	C	0.699517	-0.492371	-0.401119
C95	C	1.032850	-0.159037	-0.067786
C96	C	1.366184	0.174296	0.265548
C97	C	0.685614	-0.376837	-0.307212
C98	C	1.018947	-0.043504	0.026121
C99	C	1.352280	0.289830	0.359454
C100	C	0.620179	-0.376843	-0.307221
C101	C	0.953512	-0.043510	0.026112
C102	C	1.286846	0.289823	0.359446
C103	C	0.594416	-0.434608	-0.354183
C104	C	0.927749	-0.101275	-0.020849
C105	C	1.261083	0.232059	0.312484
C106	C	0.985817	-0.668954	-0.382357
C107	C	1.319150	-0.335620	-0.049024
C108	C	1.652483	-0.002287	0.284309
C109	C	0.997897	-0.769205	-0.394433
C110	C	1.331231	-0.435871	-0.061100
C111	C	1.664564	-0.102538	0.272234
C112	C	0.871781	-1.052088	-0.268085
C113	C	1.205114	-0.718755	0.065248
C114	C	1.538448	-0.385421	0.398582
C115	C	0.860427	-0.957897	-0.256741
C116	C	1.193761	-0.624564	0.076593
C117	C	1.527094	-0.291230	0.409926
C118	C	0.894794	-0.910719	-0.291163
C119	C	1.228127	-0.577386	0.042171
C120	C	1.561461	-0.244053	0.375504
C121	C	0.940516	-0.957742	-0.336931
C122	C	1.273849	-0.624408	-0.003598
C123	C	1.607183	-0.291075	0.329736
C124	C	0.951867	-1.051942	-0.348280
C125	C	1.285200	-0.718608	-0.014947
C126	C	1.618534	-0.385275	0.318387
C127	C	0.974880	-0.910573	-0.371358
C128	C	1.308213	-0.577240	-0.038024
C129	C	1.641547	-0.243907	0.295309
C130	C	1.020602	-0.957596	-0.417126
C131	C	1.353935	-0.624262	-0.083793
C132	C	1.687269	-0.290929	0.249540
C133	C	1.031951	-1.051786	-0.428473
C134	C	1.365285	-0.718453	-0.095139
C135	C	1.698618	-0.385120	0.238194
C136	C	0.997585	-1.098964	-0.394051
C137	C	1.330918	-0.765631	-0.060717
C138	C	1.664251	-0.432297	0.272616
C139	C	0.963529	-0.816373	-0.360009
C140	C	1.296862	-0.483040	-0.026675
C141	C	1.630196	-0.149707	0.306658
C142	C	1.043615	-0.816227	-0.440204
C143	C	1.376948	-0.482894	-0.106870
C144	C	1.710282	-0.149560	0.226463
C145	C	1.054969	-0.910418	-0.451548
C146	C	1.388302	-0.577085	-0.118215
C147	C	1.721635	-0.243751	0.215119
C148	C	1.121138	-0.434640	-0.354201
C149	C	1.454472	-0.101307	-0.020867
C150	C	1.787805	0.232027	0.312466
C151	C	1.190781	-0.434650	-0.354210
C152	C	1.524114	-0.101317	-0.020877
C153	C	1.857447	0.232016	0.312457
C154	C	0.957762	-0.434597	-0.517600
C155	C	1.291095	-0.101263	-0.184267
C156	C	1.624429	0.232070	0.149066
C157	C	0.957783	-0.434589	-0.587241
C158	C	1.291116	-0.101256	-0.253907
C159	C	1.624450	0.232078	0.079426
C160	C	0.929515	-0.199361	-0.325905
C161	C	1.262848	0.133972	0.007429
C162	C	1.596181	0.467305	0.340762
C163	C	0.917499	-0.099110	-0.313856
C164	C	1.250832	0.234223	0.019478
C165	C	1.584165	0.567556	0.352811
C166	C	0.990941	-0.376906	-0.613027
C167	C	1.324274	-0.043572	-0.279693
C168	C	1.657608	0.289761	0.053640
C169	C	0.990935	-0.376867	-0.678457
C170	C	1.324269	-0.043533	-0.345124
C171	C	1.657602	0.289800	-0.011791
C172	C	0.957781	-0.434528	-0.718102
C173	C	1.291114	-0.101194	-0.384768
C174	C	1.624447	0.232139	-0.051435
C175	C	0.924615	-0.492215	-0.692308
C176	C	1.257949	-0.158882	-0.358975
C177	C	1.591282	0.174452	-0.025642
C178	C	0.924617	-0.492246	-0.626878
C179	C	1.257950	-0.158912	-0.293545
C180	C	1.591283	0.174421	0.039789
C181	C	0.962573	-0.515739	-0.831542
C182	C	1.295906	-0.182406	-0.498208
C183	C	1.629240	0.150927	-0.164875
C184	C	0.962576	-0.515710	-0.896971
C185	C	1.295910	-0.182377	-0.563638
C186	C	1.629243	0.150957	-0.230304
C187	C	0.957773	-0.434432	-0.919911
C188	C	1.291106	-0.101099	-0.586578
C189	C	1.624440	0.232234	-0.253244
C190	C	0.952979	-0.353181	-0.877413
C191	C	1.286312	-0.019848	-0.544080
C192	C	1.619646	0.313485	-0.210746
C193	C	0.952980	-0.353212	-0.811983
C194	C	1.286314	-0.019879	-0.478649
C195	C	1.619647	0.313455	-0.145316
C196	C	0.957775	-0.434500	-0.789051
C197	C	1.291109	-0.101167	-0.455717
C198	C	1.624442	0.232166	-0.122384
C199	C	0.990926	-0.376702	-1.016644
C200	C	1.324260	-0.043369	-0.683310
C201	C	1.657593	0.289965	-0.349977
C202	C	0.990916	-0.376662	-1.082076
C203	C	1.324250	-0.043328	-0.748742
C204	C	1.657583	0.290005	-0.415409
C205	C	0.924601	-0.492018	-1.095926
C206	C	1.257934	-0.158685	-0.762593
C207	C	1.591267	0.174649	-0.429260
C208	C	0.924606	-0.492050	-1.030495
C209	C	1.257940	-0.158717	-0.697162
C210	C	1.591273	0.174617	-0.363828
C211	C	0.957773	-0.434393	-0.990858
C212	C	1.291106	-0.101060	-0.657524
C213	C	1.624439	0.232273	-0.324191
C214	C	0.957691	-0.434568	-0.191386
C215	C	1.291024	-0.101235	0.141947
C216	C	1.624357	0.232099	0.475281
C217	C	0.957760	-0.434322	-0.121715
C218	C	1.291094	-0.100989	0.211618
C219	C	1.624427	0.232345	0.544951
H220	H	0.209471	-0.539443	-0.439398
H221	H	0.542805	-0.206110	-0.106064
H222	H	0.876138	0.127224	0.227269
F223	F	0.835203	-1.102303	-0.231464
F224	F	1.168536	-0.768969	0.101869
F225	F	1.501870	-0.435636	0.435202
H226	H	0.897610	-0.539028	-1.009501
H227	H	1.230944	-0.205694	-0.676168
H228	H	1.564277	0.127639	-0.342835
F229	F	0.967684	-0.602184	-0.942195
F230	F	1.301017	-0.268851	-0.608861
F231	F	1.634351	0.064483	-0.275528
F232	F	0.914870	-0.766339	-0.311300
F233	F	1.248203	-0.433006	0.022034
F234	F	1.581537	-0.099672	0.355367
H235	H	0.535082	-0.582069	-0.380724
H236	H	0.868415	-0.248736	-0.047390
H237	H	1.201749	0.084598	0.285943
F238	F	0.967701	-0.602254	-0.807135
F239	F	1.301034	-0.268921	-0.473802
F240	F	1.634367	0.064413	-0.140469
F241	F	0.309403	-0.315399	-0.257273
F242	F	0.642737	0.017934	0.076060
F243	F	0.976070	0.351268	0.409393
F244	F	0.606659	-0.553850	-0.451108
F245	F	0.939993	-0.220516	-0.117775
F246	F	1.273326	0.112817	0.215559
F247	F	0.882537	-0.810474	-0.279261
F248	F	1.215870	-0.477140	0.054073
F249	F	1.549203	-0.143807	0.387406
F250	F	1.009769	-1.199214	-0.406019
F251	F	1.343103	-0.865881	-0.072685
F252	F	1.676436	-0.532547	0.260648
H253	H	0.823200	-0.919615	-0.219477
H254	H	1.156534	-0.586282	0.113856
H255	H	1.489867	-0.252948	0.447190
F256	F	1.080603	-1.101829	-0.477194
F257	F	1.413936	-0.768495	-0.143861
F258	F	1.747269	-0.435162	0.189473
H259	H	0.897613	-0.539217	-0.605884
H260	H	1.230946	-0.205884	-0.272551
H261	H	1.564279	0.127449	0.060783
H262	H	0.184250	-0.329854	-0.269015
H263	H	0.517584	0.003479	0.064318
H264	H	0.850917	0.336813	0.397651
H265	H	1.092196	-0.948717	-0.488813
H266	H	1.425529	-0.615383	-0.155480
H267	H	1.758862	-0.282050	0.177853
H268	H	0.731810	-0.539406	-0.439350
H269	H	1.065144	-0.206073	-0.106017
H270	H	1.398477	0.127261	0.227317
F271	F	0.505426	-0.266835	-0.324003
F272	F	0.838759	0.066498	0.009330
F273	F	1.172092	0.399831	0.342664
H274	H	0.380980	-0.287168	-0.327652
H275	H	0.714313	0.046165	0.005681
H276	H	1.047647	0.379498	0.339014
F277	F	0.338097	-0.553874	-0.451125
F278	F	0.671430	-0.220541	-0.117792
F279	F	1.004764	0.112793	0.215542
F280	F	0.889328	-0.553579	-0.734501
F281	F	1.222661	-0.220245	-0.401168
F282	F	1.555994	0.113088	-0.067835
H283	H	1.017934	-0.329889	-0.699456
H284	H	1.351268	0.003444	-0.366123
H285	H	1.684601	0.336778	-0.032789
F286	F	1.080192	-0.766022	-0.476842
F287	F	1.413525	-0.432689	-0.143508
F288	F	1.746859	-0.099355	0.189825
H289	H	1.017916	-0.329684	-1.103068
H290	H	1.351249	0.003650	-0.769735
H291	H	1.684582	0.336983	-0.436401
F292	F	0.410628	-0.602403	-0.384389
F293	F	0.743961	-0.269069	-0.051056
F294	F	1.077294	0.064264	0.282278
F295	F	1.026237	-0.315538	-0.570845
F296	F	1.359570	0.017795	-0.237511
F297	F	1.692903	0.351129	0.095822
F298	F	0.947875	-0.266741	-0.766756
F299	F	1.281209	0.066592	-0.433423
F300	F	1.614542	0.399925	-0.100089
F301	F	0.577965	-0.315368	-0.257254
F302	F	0.911299	0.017965	0.076080
F303	F	1.244632	0.351299	0.409413
H304	H	0.706594	-0.329804	-0.268982
H305	H	1.039928	0.003530	0.064351
H306	H	1.373261	0.336863	0.397685
F307	F	0.947869	-0.266673	-0.901821
F308	F	1.281202	0.066661	-0.568488
F309	F	1.614535	0.399994	-0.235154
F310	F	0.889309	-0.553379	-1.138114
F311	F	1.222642	-0.220045	-0.804780
F312	F	1.555976	0.113288	-0.471447
H313	H	1.017928	-0.329749	-0.984369
H314	H	1.351262	0.003584	-0.651035
H315	H	1.684595	0.336917	-0.317702
