data_functionalizedCrystal
_audit_creation_method	'MofGen! by Chris Wilmer'
_symmetry_space_group_name_H-M	'P1'
_symmetry_Int_Tables_number	1
_symmetry_cell_setting	triclinic
loop_
_symmetry_equiv_pos_as_xyz
  x,y,z
_cell_length_a	17.640112
_cell_length_b	21.295417
_cell_length_c	17.640968
_cell_angle_alpha	101.234808
_cell_angle_beta	87.860920
_cell_angle_gamma	101.256239
loop_
_atom_site_label
_atom_site_type_symbol
_atom_site_fract_x
_atom_site_fract_y
_atom_site_fract_z
Zn1	Zn	1.247775	-0.018088	0.195079
Zn2	Zn	1.747775	0.481912	0.695079
Zn3	Zn	1.221981	-0.147966	0.068087
Zn4	Zn	1.721981	0.352034	0.568087
Zn5	Zn	1.095099	-0.059037	0.093722
Zn6	Zn	1.595099	0.440963	0.593722
Zn7	Zn	1.120723	-0.139680	0.220669
Zn8	Zn	1.620723	0.360320	0.720669
O9	O	1.171395	-0.091193	0.144389
O10	O	1.671395	0.408807	0.644389
O11	O	1.350625	-0.021647	0.156795
O12	O	1.850625	0.478353	0.656795
O13	O	1.183631	-0.156775	-0.034787
O14	O	1.683631	0.343225	0.465213
O15	O	1.115423	0.034499	0.107185
O16	O	1.615423	0.534499	0.607185
O17	O	1.331674	-0.117068	0.063494
O18	O	1.831674	0.382932	0.563494
O19	O	1.227593	0.064584	0.181652
O20	O	1.727593	0.564584	0.681652
O21	O	1.090412	-0.091439	-0.015953
O22	O	1.590412	0.408561	0.484047
O23	O	0.992227	-0.083404	0.132000
O24	O	1.492227	0.416596	0.632000
O25	O	1.159096	-0.102945	0.323549
O26	O	1.659096	0.397055	0.823549
O27	O	1.011052	-0.142652	0.225268
O28	O	1.511052	0.357348	0.725268
O29	O	1.252440	-0.013612	0.304748
O30	O	1.752440	0.486388	0.804748
O31	O	1.208478	-0.234971	0.088309
O32	O	1.708478	0.265029	0.588309
O33	O	1.134084	-0.228883	0.200410
O34	O	1.634084	0.271117	0.700410
C35	C	0.974084	-0.116573	0.184193
C36	C	1.474084	0.383427	0.684193
C37	C	0.889678	-0.127442	0.201239
C38	C	1.389678	0.372558	0.701239
C39	C	1.171287	-0.254765	0.144367
C40	C	1.671287	0.245235	0.644367
C41	C	1.171315	-0.324729	0.144369
C42	C	1.671315	0.175271	0.644369
C43	C	0.563037	-0.008607	0.014897
C44	C	1.063037	0.491393	0.514897
C45	C	0.483727	-0.018831	0.030925
C46	C	0.983727	0.481169	0.530925
C47	C	0.503351	-0.080669	0.127878
C48	C	1.003351	0.419331	0.627878
C49	C	0.582665	-0.070447	0.111861
C50	C	1.082665	0.429553	0.611861
C51	C	0.612502	-0.034416	0.055369
C52	C	1.112502	0.465584	0.555369
C53	C	0.632129	-0.096257	0.152332
C54	C	1.132129	0.403743	0.652332
C55	C	0.711436	-0.086038	0.136313
C56	C	1.211436	0.413962	0.636313
C57	C	0.741279	-0.050011	0.079823
C58	C	1.241279	0.449989	0.579823
C59	C	0.691809	-0.024198	0.039350
C60	C	1.191809	0.475802	0.539350
C61	C	0.602290	-0.132291	0.208820
C62	C	1.102290	0.367709	0.708820
C63	C	0.651755	-0.158101	0.249291
C64	C	1.151755	0.341899	0.749291
C65	C	0.731064	-0.147879	0.233277
C66	C	1.231064	0.352121	0.733277
C67	C	0.760907	-0.111851	0.176786
C68	C	1.260907	0.388149	0.676786
C69	C	0.780534	-0.173691	0.273749
C70	C	1.280534	0.326309	0.773749
C71	C	0.859841	-0.163473	0.257730
C72	C	1.359841	0.336527	0.757730
C73	C	0.840214	-0.101633	0.160767
C74	C	1.340214	0.398367	0.660767
C75	C	1.210105	-0.360729	0.086039
C76	C	1.710105	0.139271	0.586039
C77	C	1.210144	-0.426464	0.086049
C78	C	1.710144	0.073536	0.586049
C79	C	1.171378	-0.456199	0.144384
C80	C	1.671378	0.043801	0.644384
C81	C	1.132586	-0.420189	0.202724
C82	C	1.632586	0.079811	0.702724
C83	C	1.132555	-0.354454	0.202717
C84	C	1.632555	0.145546	0.702717
N85	N	1.106115	-0.566893	0.163575
N86	N	1.606115	-0.066893	0.663575
N87	N	1.106146	-0.629339	0.163577
N88	N	1.606146	-0.129339	0.663577
C89	C	1.171472	-0.654254	0.144410
C90	C	1.671472	-0.154254	0.644410
N91	N	1.236764	-0.614366	0.125225
N92	N	1.736764	-0.114366	0.625225
N93	N	1.236731	-0.551916	0.125220
N94	N	1.736731	-0.051916	0.625220
C95	C	1.171408	-0.527477	0.144398
C96	C	1.671408	-0.027477	0.644398
C97	C	1.210308	-0.761531	0.086087
C98	C	1.710308	-0.261531	0.586087
C99	C	1.210349	-0.827266	0.086102
C100	C	1.710349	-0.327266	0.586102
C101	C	1.132784	-0.820991	0.202775
C102	C	1.632784	-0.320991	0.702775
C103	C	1.132750	-0.755256	0.202763
C104	C	1.632750	-0.255256	0.702763
C105	C	1.171510	-0.725531	0.144415
C106	C	1.671510	-0.225531	0.644415
C107	C	1.369475	-0.065714	0.104431
C108	C	1.869475	0.434286	0.604431
C109	C	1.453885	-0.054856	0.087403
C110	C	1.953885	0.445144	0.587403
C111	C	1.211503	-0.052786	0.342475
C112	C	1.711503	0.447214	0.842475
C113	C	1.228595	-0.036419	0.426887
C114	C	1.728595	0.463581	0.926887
C115	C	1.171527	0.073024	0.144424
C116	C	1.671527	0.573024	0.644424
C117	C	1.171584	0.143004	0.144438
C118	C	1.671584	0.643004	0.644438
C119	C	1.131486	-0.129399	-0.052935
C120	C	1.631486	0.370601	0.447065
C121	C	1.114541	-0.145569	-0.137376
C122	C	1.614541	0.354431	0.362624
C123	C	1.041841	-0.215148	0.753447
C124	C	1.541841	0.284852	1.253447
C125	C	1.057917	-0.199759	0.832762
C126	C	1.557917	0.300241	1.332762
C127	C	1.155108	-0.106745	0.813176
C128	C	1.655108	0.393255	1.313176
C129	C	1.139037	-0.122124	0.733858
C130	C	1.639037	0.377876	1.233858
C131	C	1.082403	-0.176327	0.704000
C132	C	1.582403	0.323673	1.204000
C133	C	1.179600	-0.083303	0.684411
C134	C	1.679600	0.416697	1.184411
C135	C	1.163533	-0.098683	0.605099
C136	C	1.663533	0.401317	1.105099
C137	C	1.106903	-0.152885	0.575235
C138	C	1.606903	0.347115	1.075235
C139	C	1.066336	-0.191707	0.624689
C140	C	1.566336	0.308293	1.124689
C141	C	1.236237	-0.029103	0.714269
C142	C	1.736237	0.470897	1.214269
C143	C	1.276800	0.009719	0.664822
C144	C	1.776800	0.509719	1.164822
C145	C	1.260729	-0.005659	0.585510
C146	C	1.760729	0.494341	1.085510
C147	C	1.204100	-0.059860	0.555646
C148	C	1.704100	0.440140	1.055646
C149	C	1.301296	0.033164	0.536056
C150	C	1.801296	0.533164	1.036056
C151	C	1.285229	0.017784	0.456745
C152	C	1.785229	0.517784	0.956745
C153	C	1.188033	-0.075241	0.476334
C154	C	1.688033	0.424759	0.976334
H155	H	0.864510	-0.072281	0.114778
H156	H	1.364510	0.427719	0.614778
H157	H	1.101160	-0.725943	0.250258
H158	H	1.601160	-0.225943	0.750258
C159	C	1.039379	-0.217487	0.963039
C160	C	1.539379	0.282513	1.463039
C161	C	1.013320	-0.242432	0.887119
C162	C	1.513320	0.257568	1.387119
H163	H	1.011849	-0.243833	0.996594
H164	H	1.511849	0.256167	1.496594
H165	H	1.030931	-0.174099	0.978281
H166	H	1.530931	0.325901	1.478281
H167	H	1.093029	-0.217622	0.965732
H168	H	1.593029	0.282378	1.465732
H169	H	0.959671	-0.242292	0.884425
H170	H	1.459671	0.257708	1.384425
H171	H	1.021761	-0.285831	0.871873
H172	H	1.521761	0.214169	1.371873
H173	H	0.537713	-0.140610	0.221860
H174	H	1.037713	0.359390	0.721860
H175	H	1.322913	0.053849	0.689143
H176	H	1.822913	0.553849	1.189143
C177	C	1.395763	0.123567	0.508729
C178	C	1.895763	0.623567	1.008729
C179	C	1.363551	0.092740	0.568881
C180	C	1.863551	0.592740	1.068881
H181	H	1.434200	0.160344	0.528994
H182	H	1.934200	0.660344	1.028994
H183	H	1.356428	0.137398	0.484484
H184	H	1.856428	0.637398	0.984484
H185	H	1.418518	0.093867	0.471921
H186	H	1.918518	0.593867	0.971921
H187	H	1.340791	0.122439	0.605686
H188	H	1.840791	0.622439	1.105686
H189	H	1.402892	0.078910	0.593138
H190	H	1.902892	0.578910	1.093138
H191	H	1.318258	0.049397	0.416484
H192	H	1.818258	0.549397	0.916484
C193	C	1.222895	-0.041861	0.926057
C194	C	1.722895	0.458139	1.426057
C195	C	1.217356	-0.047165	0.846001
C196	C	1.717356	0.452835	1.346001
H197	H	1.261321	-0.005075	0.946319
H198	H	1.761321	0.494925	1.446319
H199	H	1.236613	-0.080208	0.936797
H200	H	1.736613	0.419792	1.436797
H201	H	1.174506	-0.036693	0.949349
H202	H	1.674506	0.463307	1.449349
H203	H	1.265743	-0.052337	0.822708
H204	H	1.765743	0.447663	1.322708
H205	H	1.203642	-0.008809	0.835254
H206	H	1.703642	0.491191	1.335254
C207	C	1.221168	-0.360674	-0.050019
C208	C	1.721168	0.139326	0.449981
C209	C	1.252721	-0.328057	0.021909
C210	C	1.752721	0.171943	0.521909
H211	H	1.247484	-0.340504	-0.089608
H212	H	1.747484	0.159496	0.410392
H213	H	1.167897	-0.358662	-0.050883
H214	H	1.667897	0.141338	0.449117
H215	H	1.226738	-0.404976	-0.058350
H216	H	1.726738	0.095024	0.441650
H217	H	1.247146	-0.283755	0.030243
H218	H	1.747146	0.216245	0.530243
H219	H	1.306005	-0.330062	0.022774
H220	H	1.806005	0.169938	0.522774
C221	C	1.098393	-0.918968	0.254592
C222	C	1.598393	-0.418968	0.754592
C223	C	1.090173	-0.853667	0.266901
C224	C	1.590173	-0.353667	0.766901
H225	H	1.072084	-0.939142	0.294182
H226	H	1.572084	-0.439142	0.794182
H227	H	1.151668	-0.920965	0.255459
H228	H	1.651668	-0.420965	0.755459
H229	H	1.076988	-0.941085	0.205790
H230	H	1.576988	-0.441085	0.705790
H231	H	1.111583	-0.831549	0.315700
H232	H	1.611583	-0.331549	0.815700
H233	H	1.036888	-0.851666	0.266041
H234	H	1.536888	-0.351666	0.766041
H235	H	0.805856	-0.041693	0.066780
H236	H	1.305856	0.458307	0.566780
H237	H	0.716105	0.005154	-0.006639
H238	H	1.216105	0.505154	0.493361
H239	H	1.241734	-0.455781	0.038549
H240	H	1.741734	0.044219	0.538549
H241	H	0.627450	-0.187439	0.295284
H242	H	1.127450	0.312561	0.795284
H243	H	1.241871	-0.737328	0.038579
H244	H	1.741871	-0.237328	0.538579
H245	H	0.756228	-0.203033	0.319739
H246	H	1.256228	0.296967	0.819739
H247	H	1.141897	-0.119366	0.452027
H248	H	1.641897	0.380634	0.952027
C249	C	0.535678	0.051492	-0.079351
C250	C	1.035678	0.551492	0.420649
C251	C	0.595841	0.030994	-0.047205
C252	C	1.095841	0.530994	0.452795
H253	H	0.555931	0.075932	-0.117693
H254	H	1.055931	0.575932	0.382307
H255	H	0.511479	0.077977	-0.039968
H256	H	1.011479	0.577977	0.460032
H257	H	0.498828	0.014465	-0.102202
H258	H	0.998828	0.514465	0.397798
H259	H	0.632688	0.068021	-0.024348
H260	H	1.132688	0.568021	0.475652
H261	H	0.620052	0.004508	-0.086594
H262	H	1.120052	0.504508	0.413406
C263	C	1.098186	-0.518174	0.254532
C264	C	1.598186	-0.018174	0.754532
C265	C	1.089971	-0.452871	0.266846
C266	C	1.589971	0.047129	0.766846
H267	H	1.071873	-0.538349	0.294119
H268	H	1.571873	-0.038349	0.794119
H269	H	1.151460	-0.520174	0.255400
H270	H	1.651460	-0.020174	0.755400
H271	H	1.076781	-0.540287	0.205729
H272	H	1.576781	-0.040287	0.705729
H273	H	1.111381	-0.430757	0.315646
H274	H	1.611381	0.069243	0.815646
H275	H	1.036687	-0.450867	0.265985
H276	H	1.536687	0.049133	0.765985
C277	C	0.871285	-0.225615	0.355193
C278	C	1.371285	0.274385	0.855193
C279	C	0.914220	-0.191837	0.302221
C280	C	1.414220	0.308163	0.802221
H281	H	0.904858	-0.243123	0.382661
H282	H	1.404858	0.256877	0.882661
H283	H	0.833628	-0.260067	0.328305
H284	H	1.333628	0.239933	0.828305
H285	H	0.846260	-0.196558	0.390545
H286	H	1.346260	0.303442	0.890545
H287	H	0.939240	-0.220895	0.266866
H288	H	1.439240	0.279105	0.766866
H289	H	0.951890	-0.157381	0.329111
H290	H	1.451890	0.342619	0.829111
H291	H	1.100967	-0.325141	0.250217
H292	H	1.600967	0.174859	0.750217
C293	C	0.373826	-0.041233	-0.053179
C294	C	0.873826	0.458767	0.446821
C295	C	0.429349	0.009552	-0.013549
C296	C	0.929349	0.509552	0.486451
H297	H	0.340258	-0.023709	-0.080634
H298	H	0.840258	0.476291	0.419366
H299	H	0.344714	-0.064150	-0.017245
H300	H	0.844714	0.435850	0.482755
H301	H	0.398854	-0.070277	-0.088547
H302	H	0.898854	0.429723	0.411453
H303	H	0.404322	0.038594	0.021823
H304	H	0.904322	0.538594	0.521823
H305	H	0.458465	0.032480	-0.049487
H306	H	0.958465	0.532480	0.450513
C307	C	0.390494	-0.123789	0.195490
C308	C	0.890494	0.376211	0.695490
C309	C	0.470550	-0.120270	0.189975
C310	C	0.970550	0.379730	0.689975
H311	H	0.370248	-0.148232	0.233832
H312	H	0.870248	0.351768	0.733832
H313	H	0.367151	-0.144514	0.147078
H314	H	0.867151	0.355486	0.647078
H315	H	0.379791	-0.081004	0.209315
H316	H	0.879791	0.418996	0.709315
H317	H	0.481253	-0.163055	0.176144
H318	H	0.981253	0.336945	0.676144
H319	H	0.493900	-0.099546	0.238397
H320	H	0.993900	0.400454	0.738397
H321	H	1.241941	-0.856576	0.038603
H322	H	1.741941	-0.356576	0.538603
C323	C	1.156111	-0.181674	0.447035
C324	C	1.656111	0.318326	0.947035
C325	C	1.089239	-0.169793	0.488055
C326	C	1.589239	0.330207	0.988055
H327	H	1.145205	-0.192108	0.393214
H328	H	1.645205	0.307892	0.893214
H329	H	1.172838	-0.217132	0.462318
H330	H	1.672838	0.282868	0.962318
H331	H	1.195639	-0.143834	0.457745
H332	H	1.695639	0.356166	0.957745
H333	H	1.049712	-0.207635	0.477349
H334	H	1.549712	0.292365	0.977349
H335	H	1.072501	-0.134332	0.472766
H336	H	1.572501	0.365668	0.972766
H337	H	1.020201	-0.235832	0.600381
H338	H	1.520201	0.264168	1.100381
C339	C	0.947397	-0.305578	0.780763
C340	C	1.447397	0.194422	1.280763
C341	C	0.979605	-0.274743	0.720616
C342	C	1.479605	0.225257	1.220616
H343	H	0.908987	-0.342373	0.760490
H344	H	1.408987	0.157627	1.260490
H345	H	0.924616	-0.275895	0.817556
H346	H	1.424616	0.224105	1.317556
H347	H	0.986746	-0.319387	0.805026
H348	H	1.486746	0.180613	1.305026
H349	H	0.940257	-0.260929	0.696357
H350	H	1.440257	0.239071	1.196357
H351	H	1.002385	-0.304431	0.683810
H352	H	1.502385	0.195569	1.183810
H353	H	1.249319	-0.016583	0.778850
H354	H	1.749319	0.483417	1.278850
