data_functionalizedCrystal
_audit_creation_method	'MofGen! by Chris Wilmer'
_symmetry_space_group_name_H-M	'P1'
_symmetry_Int_Tables_number	1
_symmetry_cell_setting	triclinic
loop_
_symmetry_equiv_pos_as_xyz
  x,y,z
_cell_length_a	6.817900
_cell_length_b	11.353959
_cell_length_c	14.125465
_cell_angle_alpha	106.193871
_cell_angle_beta	100.398878
_cell_angle_gamma	107.526623
loop_
_atom_site_label
_atom_site_type_symbol
_atom_site_fract_x
_atom_site_fract_y
_atom_site_fract_z
V1	V	-4.027839	-0.179668	-0.330075
O2	O	-3.977518	0.009789	-0.292626
O3	O	-4.015716	-0.357363	-0.357791
O4	O	-3.963316	-0.176398	-0.460357
O5	O	-4.030281	-0.172429	-0.189350
V6	V	-4.508855	-0.157067	-0.309602
O7	O	-4.294595	-0.229247	-0.374984
O8	O	-4.692296	-0.107489	-0.264693
O9	O	-4.297772	0.020628	-0.281886
O10	O	-4.676572	-0.346524	-0.347050
O11	O	-4.623810	-0.164306	-0.450326
O12	O	-4.350171	-0.160338	-0.179319
C13	C	-3.870063	-0.400697	-0.360318
C14	C	-3.941330	-0.545962	-0.383847
C15	C	-3.941208	-0.593306	-0.307688
C16	C	-4.014866	-0.743444	-0.332005
C17	C	-3.803221	-0.169856	-0.491150
C18	C	-3.831990	-0.168358	-0.597853
C19	C	-3.884722	-0.165611	-0.793216
C20	C	-4.071340	-0.171122	-0.846460
C21	C	-4.100683	-0.169593	-0.955167
C22	C	-3.855372	-0.167139	-0.684499
C23	C	-4.106768	0.063955	-0.279357
C24	C	-4.014738	0.209218	-0.255834
C25	C	-4.173610	-0.166883	-0.148522
C26	C	-4.124078	-0.168375	-0.041817
H27	H	-3.960111	-0.720169	-0.172623
H28	H	-3.995972	-0.616581	-0.467053
H29	H	-4.209079	-0.177002	-0.810407
O30	O	-4.080021	-0.827857	-0.431217
C31	C	-4.139097	-0.958971	-0.433411
H32	H	-4.055805	-0.959419	-0.355975
H33	H	-4.320648	-1.004409	-0.449173
C34	C	-4.173197	-1.039656	-0.614230
C35	C	-4.070882	-1.040208	-0.519124
H36	H	-4.131129	-1.089770	-0.667104
H37	H	-4.133405	-0.951323	-0.612753
H38	H	-4.324483	-1.077518	-0.627350
H39	H	-3.919601	-1.002331	-0.506000
H40	H	-4.110647	-1.128537	-0.520601
O41	O	-3.720486	-0.158450	-0.836287
C42	C	-3.665578	-0.043593	-0.861821
H43	H	-3.808479	-0.011131	-0.871211
H44	H	-3.522951	0.038653	-0.797824
C45	C	-3.429719	-0.112951	-0.951944
C46	C	-3.605239	-0.073087	-0.963486
H47	H	-3.392489	-0.131141	-1.014653
H48	H	-3.466704	-0.190330	-0.934738
H49	H	-3.310884	-0.044406	-0.898609
H50	H	-3.724078	-0.141638	-1.016811
H51	H	-3.568273	0.004280	-0.980703
O52	O	-3.876258	-0.508943	-0.208472
C53	C	-4.009354	-0.435236	-0.195924
H54	H	-4.086474	-0.432954	-0.273697
H55	H	-4.140220	-0.483119	-0.163315
C56	C	-3.779067	-0.295927	-0.025688
C57	C	-3.873773	-0.293114	-0.121209
H58	H	-3.695439	-0.208261	0.020404
H59	H	-3.689401	-0.345587	-0.034139
H60	H	-3.888140	-0.335835	0.001473
H61	H	-3.764700	-0.253222	-0.148374
H62	H	-3.963418	-0.243443	-0.112760
