data_functionalizedCrystal
_audit_creation_method	'MofGen! by Chris Wilmer'
_symmetry_space_group_name_H-M	'P1'
_symmetry_Int_Tables_number	1
_symmetry_cell_setting	triclinic
loop_
_symmetry_equiv_pos_as_xyz
  x,y,z
_cell_length_a	23.532407
_cell_length_b	12.837942
_cell_length_c	11.295483
_cell_angle_alpha	85.469583
_cell_angle_beta	85.925856
_cell_angle_gamma	91.161191
loop_
_atom_site_label
_atom_site_type_symbol
_atom_site_fract_x
_atom_site_fract_y
_atom_site_fract_z
O1	O	0.765926	-0.118761	-0.098874
O2	O	0.601108	-0.136956	-0.098909
O3	O	0.679862	0.023007	-0.098885
O4	O	0.687172	-0.278723	-0.098898
O5	O	0.672943	0.008978	0.099164
O6	O	0.594189	-0.150984	0.099140
O7	O	0.759007	-0.132789	0.099175
Cu8	Cu	0.675967	-0.143167	0.117241
Cu9	Cu	0.684148	-0.126577	-0.116975
O10	O	0.680253	-0.292751	0.099151
C11	C	0.576406	-0.143506	0.000111
C12	C	0.513110	-0.142112	0.000098
C13	C	0.118935	-0.228040	0.000148
C14	C	0.059460	-0.226746	0.000156
O15	O	0.027284	-0.306402	0.000195
N16	N	0.031377	-0.131648	0.000158
C17	C	0.062772	-0.037838	0.000165
O18	O	0.033424	0.043169	0.000168
C19	C	0.122245	-0.039134	0.000166
C20	C	0.150325	-0.134237	0.000152
C21	C	0.147015	-0.323136	0.000135
C22	C	0.206486	-0.324429	0.000126
C23	C	0.237876	-0.230626	0.000129
C24	C	0.209796	-0.135530	0.000142
C25	C	0.153639	0.054674	0.000181
C26	C	0.213116	0.053371	0.000183
C27	C	0.241196	-0.041733	0.000169
C28	C	0.300657	-0.043021	0.000136
N29	N	0.328740	-0.138119	0.000134
C30	C	0.297350	-0.231922	0.000130
C31	C	-0.062126	-0.035125	0.000164
C32	C	-0.121598	-0.033828	0.000155
C33	C	-0.124906	-0.222737	0.000148
C34	C	-0.065433	-0.224032	0.000149
C35	C	-0.034043	-0.130223	0.000162
C36	C	0.422243	-0.234630	0.000109
C37	C	0.481719	-0.235915	0.000095
C38	C	0.485021	-0.047007	0.000108
C39	C	0.425551	-0.045721	0.000116
C40	C	0.394162	-0.139542	0.000121
O41	O	0.332870	0.036593	0.000101
O42	O	0.326704	-0.312917	0.000142
C43	C	0.673933	0.054588	0.000138
C44	C	0.666569	0.169589	0.000135
C45	C	0.783709	-0.126238	0.000152
C46	C	0.847006	-0.127632	0.000157
C47	C	0.686182	-0.324332	0.000125
C48	C	0.693546	-0.439333	0.000121
N49	N	0.670216	-0.154835	0.281975
C50	C	0.755103	0.411460	0.000129
C51	C	0.748186	0.519515	0.000125
C52	C	0.645820	0.493756	0.000116
C53	C	0.652737	0.385702	0.000119
C54	C	0.707380	0.344557	0.000128
C55	C	0.714296	0.236500	0.000140
C56	C	0.611930	0.210745	0.000122
C57	C	0.605013	0.318799	0.000118
N58	N	0.689903	-0.114901	-0.281709
C59	C	0.731295	-0.030851	0.531283
C60	C	0.726953	-0.039676	0.655946
C61	C	0.657190	-0.181304	0.655965
C62	C	0.661531	-0.172479	0.531302
C63	C	0.698585	-0.097251	0.468966
C64	C	0.702929	-0.088432	0.344301
C65	C	0.633163	-0.230055	0.344323
C66	C	0.628822	-0.238879	0.468985
H67	H	0.504579	-0.313363	0.000082
H68	H	0.396693	-0.311028	0.000117
H69	H	-0.150475	-0.299116	0.000151
C70	C	-0.152479	0.070786	0.000159
H71	H	-0.125261	0.126461	0.000168
H72	H	-0.173205	0.080117	-0.068900
H73	H	-0.178017	0.070328	0.069237
H74	H	0.238670	0.129763	0.000195
H75	H	0.598651	-0.300126	0.519753
C76	C	0.519556	0.056171	0.000105
H77	H	0.494318	0.113001	0.000103
H78	H	0.540419	0.054695	0.069165
H79	H	0.545232	0.064479	-0.068971
C80	C	0.597188	-0.303110	0.275771
H81	H	0.605080	-0.287083	0.192598
H82	H	0.606417	-0.373638	0.296211
H83	H	0.557874	-0.293665	0.296201
H84	H	0.560525	0.352315	0.000107
H85	H	-0.036572	0.041271	0.000164
C86	C	0.800679	0.593108	0.000125
H87	H	0.788736	0.663357	0.000111
H88	H	0.820435	0.575806	0.069188
H89	H	0.825251	0.585577	-0.068949
C90	C	0.743684	-0.005683	0.275733
H91	H	0.762538	0.032606	0.330706
H92	H	0.771096	-0.039282	0.227093
H93	H	0.722556	0.040698	0.227111
H94	H	0.753588	0.014395	0.706681
C95	C	0.585719	0.539029	0.000106
H96	H	0.588437	0.612964	0.000110
H97	H	0.568231	0.520916	-0.068956
H98	H	0.563413	0.511146	0.069181
H99	H	0.229343	-0.401872	0.000114
H100	H	0.130786	0.132118	0.000194
C101	C	0.112494	-0.426328	0.000121
H102	H	0.137744	-0.483139	0.000105
H103	H	0.086813	-0.434660	0.069179
H104	H	0.091639	-0.424857	-0.068957
H105	H	0.761470	0.030396	0.480528
C106	C	0.774398	0.191236	0.000149
H107	H	0.771684	0.117300	0.000162
H108	H	0.796705	0.219124	-0.068914
H109	H	0.791882	0.209350	0.069222
H110	H	0.402687	0.031721	0.000110
H111	H	-0.042574	-0.301474	0.000144
H112	H	0.573070	0.156259	0.000130
H113	H	0.627017	-0.242546	0.706735
C114	C	0.815205	0.366196	0.000147
H115	H	0.842638	0.421518	0.000145
H116	H	0.817617	0.319690	0.069212
H117	H	0.822444	0.329470	-0.068924
