data_functionalizedCrystal
_audit_creation_method	'MofGen! by Chris Wilmer'
_symmetry_space_group_name_H-M	'P1'
_symmetry_Int_Tables_number	1
_symmetry_cell_setting	triclinic
loop_
_symmetry_equiv_pos_as_xyz
  x,y,z
_cell_length_a	23.532407
_cell_length_b	23.532407
_cell_length_c	9.565339
_cell_angle_alpha	89.995586
_cell_angle_beta	90.001814
_cell_angle_gamma	82.848678
loop_
_atom_site_label
_atom_site_type_symbol
_atom_site_fract_x
_atom_site_fract_y
_atom_site_fract_z
O1	O	0.755259	0.069131	-0.116100
O2	O	1.255259	0.569131	0.383900
O3	O	0.589396	0.079134	-0.116143
O4	O	1.089396	0.579134	0.383857
O5	O	0.677329	-0.008799	-0.116094
O6	O	1.177329	0.491201	0.383906
O7	O	0.667326	0.157064	-0.116148
O8	O	1.167326	0.657064	0.383852
O9	O	0.677322	-0.008794	0.116426
O10	O	1.177322	0.491206	0.616426
O11	O	0.589389	0.079139	0.116377
O12	O	1.089389	0.579139	0.616377
O13	O	0.755252	0.069136	0.116421
O14	O	1.255252	0.569136	0.616421
Zn15	Zn	0.672319	0.074139	0.153317
Zn16	Zn	1.172319	0.574139	0.653317
Zn17	Zn	0.672329	0.074131	-0.153039
Zn18	Zn	1.172329	0.574131	0.346961
O19	O	0.667319	0.157070	0.116372
O20	O	1.167319	0.657070	0.616372
C21	C	0.568176	0.078882	0.000112
C22	C	1.068176	0.578882	0.500112
C23	C	0.504959	0.078116	0.000097
C24	C	1.004959	0.578116	0.500097
C25	C	0.105856	0.125350	0.000145
C26	C	0.605856	0.625350	0.500145
C27	C	0.046456	0.124638	0.000154
C28	C	0.546456	0.624638	0.500154
O29	O	0.009711	0.168424	0.000190
O30	O	0.509711	0.668424	0.500190
N31	N	0.023830	0.072362	0.000168
N32	N	0.523830	0.572362	0.500168
C33	C	0.060607	0.020794	0.000188
C34	C	0.560607	0.520794	0.500188
O35	O	0.035908	-0.023737	0.000203
O36	O	0.535908	0.476263	0.500203
C37	C	0.120006	0.021506	0.000190
C38	C	0.620006	0.521506	0.500190
C39	C	0.142629	0.073785	0.000161
C40	C	0.642629	0.573785	0.500161
C41	C	0.128479	0.177625	0.000118
C42	C	0.628479	0.677625	0.500118
C43	C	0.187876	0.178336	0.000106
C44	C	0.687876	0.678336	0.500106
C45	C	0.224649	0.126772	0.000122
C46	C	0.724649	0.626772	0.500122
C47	C	0.202025	0.074497	0.000149
C48	C	0.702025	0.574497	0.500149
C49	C	0.156783	-0.030062	0.000220
C50	C	0.656783	0.469938	0.500220
C51	C	0.216185	-0.029345	0.000222
C52	C	0.716185	0.470655	0.500222
C53	C	0.238808	0.022934	0.000193
C54	C	0.738808	0.522934	0.500193
C55	C	0.298194	0.023643	0.000154
C56	C	0.798194	0.523643	0.500154
N57	N	0.320820	0.075920	0.000139
N58	N	0.820820	0.575920	0.500139
C59	C	0.284048	0.127484	0.000123
C60	C	0.784048	0.627484	0.500123
C61	C	-0.064135	0.019302	0.000188
C62	C	0.435865	0.519302	0.500188
C63	C	-0.123533	0.018589	0.000177
C64	C	0.376467	0.518589	0.500177
C65	C	-0.137680	0.122434	0.000145
C66	C	0.362320	0.622434	0.500145
C67	C	-0.078281	0.123146	0.000146
C68	C	0.421719	0.623146	0.500146
C69	C	-0.041509	0.071578	0.000174
C70	C	0.458491	0.571578	0.500174
C71	C	0.408784	0.128974	0.000098
C72	C	0.908784	0.628974	0.500098
C73	C	0.468186	0.129680	0.000081
C74	C	0.968186	0.629680	0.500081
C75	C	0.482329	0.025836	0.000121
C76	C	0.982329	0.525836	0.500121
C77	C	0.422932	0.025129	0.000130
C78	C	0.922932	0.525129	0.500130
C79	C	0.386160	0.076702	0.000124
C80	C	0.886160	0.576702	0.500124
O81	O	0.334974	-0.020119	0.000123
O82	O	0.834974	0.479881	0.500123
O83	O	0.308755	0.172007	0.000127
O84	O	0.808755	0.672007	0.500127
C85	C	0.677071	-0.030013	0.000169
C86	C	1.177071	0.469987	0.500169
C87	C	0.676305	-0.093230	0.000180
C88	C	1.176305	0.406770	0.500180
C89	C	0.723539	-0.492333	0.000116
C90	C	1.223539	0.007667	0.500116
C91	C	0.722827	-0.551733	0.000105
C92	C	1.222827	-0.051733	0.500105
O93	O	0.766613	-0.588478	0.000065
O94	O	1.266613	-0.088478	0.500065
N95	N	0.670551	-0.574359	0.000092
N96	N	1.170551	-0.074359	0.500092
C97	C	0.618983	-0.537582	0.000076
C98	C	1.118983	-0.037582	0.500076
O99	O	0.574452	-0.562281	0.000063
O100	O	1.074452	-0.062281	0.500063
C101	C	0.619695	-0.478182	0.000077
C102	C	1.119695	0.021818	0.500077
C103	C	0.671974	-0.455560	0.000104
C104	C	1.171974	0.044440	0.500104
C105	C	0.775814	-0.469710	0.000141
C106	C	1.275814	0.030290	0.500141
C107	C	0.776525	-0.410313	0.000154
C108	C	1.276525	0.089687	0.500154
C109	C	0.724961	-0.373540	0.000142
C110	C	1.224961	0.126460	0.500142
C111	C	0.672685	-0.396164	0.000117
C112	C	1.172685	0.103836	0.500117
C113	C	0.568127	-0.441406	0.000051
C114	C	1.068127	0.058594	0.500051
C115	C	0.568844	-0.382004	0.000051
C116	C	1.068844	0.117996	0.500051
C117	C	0.621123	-0.359381	0.000078
C118	C	1.121123	0.140619	0.500078
C119	C	0.621832	-0.299995	0.000119
C120	C	1.121832	0.200005	0.500119
N121	N	0.674109	-0.277368	0.000131
N122	N	1.174109	0.222632	0.500131
C123	C	0.725673	-0.314141	0.000143
C124	C	1.225673	0.185859	0.500143
C125	C	0.617491	-0.662324	0.000072
C126	C	1.117491	-0.162324	0.500072
C127	C	0.616778	-0.721722	0.000081
C128	C	1.116778	-0.221722	0.500081
C129	C	0.720623	-0.735869	0.000107
C130	C	1.220623	-0.235869	0.500107
C131	C	0.721335	-0.676470	0.000108
C132	C	1.221335	-0.176470	0.500108
C133	C	0.669767	-0.639698	0.000085
C134	C	1.169767	-0.139698	0.500085
C135	C	0.727163	-0.189405	0.000173
C136	C	1.227163	0.310595	0.500173
C137	C	0.727869	-0.130003	0.000192
C138	C	1.227869	0.369997	0.500192
C139	C	0.624025	-0.115860	0.000158
C140	C	1.124025	0.384140	0.500158
C141	C	0.623318	-0.175257	0.000147
C142	C	1.123318	0.324743	0.500147
C143	C	0.674891	-0.212029	0.000149
C144	C	1.174891	0.287971	0.500149
O145	O	0.578070	-0.263215	0.000153
O146	O	1.078070	0.236785	0.500153
O147	O	0.770196	-0.289433	0.000138
O148	O	1.270196	0.210567	0.500138
C149	C	0.776472	0.069388	0.000163
C150	C	1.276472	0.569388	0.500163
C151	C	0.839689	0.070154	0.000169
C152	C	1.339689	0.570154	0.500169
C153	C	0.667577	0.178283	0.000105
C154	C	1.167577	0.678283	0.500105
C155	C	0.668343	0.241500	0.000086
C156	C	1.168343	0.741500	0.500086
N157	N	0.672317	0.074143	0.362396
N158	N	1.172317	0.574143	0.862396
N159	N	0.672335	0.074122	-0.362118
N160	N	1.172335	0.574122	0.137882
C161	C	0.631639	0.114796	0.453577
C162	C	1.131639	0.614796	0.953577
C163	C	0.683041	0.125556	0.546765
C164	C	1.183041	0.625556	1.046765
C165	C	0.620937	0.063388	0.546763
C166	C	1.120937	0.563388	1.046763
C167	C	0.723745	0.084929	0.453532
C168	C	1.223745	0.584929	0.953532
C169	C	0.661608	0.022738	0.453523
C170	C	1.161608	0.522738	0.953523
C171	C	0.713047	0.033476	0.546669
C172	C	1.213047	0.533476	1.046669
H173	H	0.770443	-0.111587	0.000217
H174	H	1.270443	0.388413	0.500217
O175	O	0.649575	-0.034814	0.399209
O176	O	1.149575	0.465186	0.899209
H177	H	0.606872	-0.043636	0.436479
H178	H	1.106872	0.456364	0.936479
H179	H	0.577479	0.054300	0.587719
H180	H	1.077479	0.554300	1.087719
H181	H	0.486602	0.172255	0.000057
H182	H	0.986602	0.672255	0.500057
H183	H	-0.167632	0.164421	0.000139
H184	H	0.332368	0.664421	0.500139
O185	O	0.560389	-0.746116	0.000079
O186	O	1.060389	-0.246116	0.500079
H187	H	0.568550	-0.793598	0.000087
H188	H	1.068550	-0.293598	0.500087
H189	H	0.404512	-0.017441	0.000133
H190	H	0.904512	0.482559	0.500133
O191	O	0.566929	-0.199656	0.000134
O192	O	1.066929	0.300344	0.500134
H193	H	0.564114	-0.226383	0.094902
H194	H	1.064114	0.273617	0.594902
H195	H	0.692112	0.169019	0.587721
H196	H	1.192112	0.669019	1.087721
O197	O	0.782788	-0.229059	0.000186
O198	O	1.282788	0.270941	0.500186
H199	H	0.784943	-0.256465	0.094952
H200	H	1.284943	0.243535	0.594952
O201	O	0.088821	0.233245	0.000095
O202	O	0.588821	0.733245	0.500095
H203	H	0.114541	0.269709	0.000067
H204	H	0.614541	0.769709	0.500067
O205	O	0.832917	-0.385924	0.000157
O206	O	1.332917	0.114076	0.500157
H207	H	0.835737	-0.359209	0.094933
H208	H	1.335737	0.140791	0.594933
H209	H	0.378851	0.170970	0.000098
H210	H	0.878851	0.670970	0.500098
H211	H	0.525555	-0.459814	0.000021
H212	H	1.025555	0.040186	0.500021
H213	H	0.747493	-0.000914	0.587286
H214	H	1.247493	0.499086	1.087286
O215	O	0.781327	0.097036	0.399537
O216	O	1.281327	0.597036	0.899537
H217	H	0.775728	0.136532	0.334978
H218	H	1.275728	0.636532	0.834978
H219	H	0.246123	-0.071339	0.000245
H220	H	0.746123	0.428661	0.500245
H221	H	0.206289	0.220908	0.000082
H222	H	0.706289	0.720908	0.500082
H223	H	-0.059867	0.165717	0.000131
H224	H	0.440133	0.665717	0.500131
H225	H	-0.141947	-0.023982	0.000179
H226	H	0.358053	0.476018	0.500179
H227	H	0.762610	-0.765821	0.000111
H228	H	1.262610	-0.265821	0.500111
H229	H	0.526850	-0.352066	0.000030
H230	H	1.026850	0.147934	0.500030
O231	O	-0.024473	-0.036321	0.000197
O232	O	0.475527	0.463679	0.500197
H233	H	-0.050191	-0.072787	0.000196
H234	H	0.449809	0.427213	0.500196
O235	O	0.777723	-0.652074	0.000109
O236	O	1.277723	-0.152074	0.500109
H237	H	0.802484	-0.666875	0.094879
H238	H	1.302484	-0.166875	0.594879
O239	O	0.132391	-0.086450	0.000257
O240	O	0.632391	0.413550	0.500257
H241	H	0.105667	-0.089252	0.095030
H242	H	0.605667	0.410748	0.595030
H243	H	0.512280	-0.016146	0.000128
H244	H	1.012280	0.483854	0.500128
O245	O	0.831436	-0.509365	0.000176
O246	O	1.331436	-0.009365	0.500176
H247	H	0.856479	-0.501349	-0.094574
H248	H	1.356479	-0.001349	0.405426
O249	O	0.561866	-0.622665	0.000087
O250	O	1.061866	-0.122665	0.500087
H251	H	0.536830	-0.630675	-0.094680
H252	H	1.036830	-0.130675	0.405320
O253	O	0.568410	-0.076193	0.000151
O254	O	1.068410	0.423807	0.500151
H255	H	0.566257	-0.048792	-0.094624
H256	H	1.066257	0.451208	0.405376
O257	O	0.586113	0.160370	0.399411
O258	O	1.086113	0.660370	0.899411
H259	H	0.595152	0.202991	0.436756
H260	H	1.095152	0.702991	0.936756
