data_functionalizedCrystal
_audit_creation_method	'MofGen! by Chris Wilmer'
_symmetry_space_group_name_H-M	'P1'
_symmetry_Int_Tables_number	1
_symmetry_cell_setting	triclinic
loop_
_symmetry_equiv_pos_as_xyz
  x,y,z
_cell_length_a	13.897449
_cell_length_b	15.297327
_cell_length_c	15.296720
_cell_angle_alpha	107.319222
_cell_angle_beta	99.662199
_cell_angle_gamma	99.707995
loop_
_atom_site_label
_atom_site_type_symbol
_atom_site_fract_x
_atom_site_fract_y
_atom_site_fract_z
Zn1	Zn	1.280070	-0.461193	-0.589805
Zn2	Zn	1.279960	-0.589814	-0.461199
Zn3	Zn	1.152528	-0.434324	-0.434325
Zn4	Zn	1.084978	-0.616662	-0.616648
O5	O	1.199384	-0.525498	-0.525494
O6	O	1.415033	-0.478264	-0.572758
O7	O	1.291280	-0.546708	-0.327509
O8	O	1.197762	-0.307751	-0.432469
O9	O	1.414952	-0.572762	-0.478272
O10	O	1.291467	-0.327491	-0.546699
O11	O	1.197656	-0.432470	-0.307765
O12	O	1.008589	-0.458502	-0.458498
O13	O	1.082634	-0.618519	-0.743211
O14	O	0.958961	-0.592465	-0.592449
O15	O	1.225967	-0.504296	-0.723490
O16	O	1.225780	-0.723513	-0.504300
O17	O	1.082528	-0.743238	-0.618508
C18	C	1.146834	-0.767122	-0.567253
C19	C	1.124434	-0.870495	-0.585149
C20	C	0.948777	-0.525482	-0.525471
C21	C	0.841557	-0.525501	-0.525487
C22	C	1.359807	-1.120712	-0.397908
C23	C	1.380853	-1.023587	-0.381089
C24	C	1.316751	-0.985309	-0.432103
C25	C	1.231597	-1.044166	-0.499938
C26	C	1.210545	-1.141300	-0.516753
C27	C	1.167488	-1.005897	-0.550948
C28	C	1.082335	-1.064754	-0.618783
C29	C	1.061287	-1.161878	-0.635595
C30	C	1.125390	-1.200156	-0.584582
C31	C	1.188541	-0.908763	-0.534132
C32	C	1.039279	-0.929352	-0.652978
C33	C	1.018232	-1.026477	-0.669796
C34	C	0.645255	-0.525509	-0.525512
C35	C	0.754492	-0.525502	-0.525495
C36	C	1.450969	-0.525515	-0.525518
C37	C	1.558180	-0.525522	-0.525528
C38	C	1.146778	-0.567399	-0.768034
C39	C	1.124360	-0.585255	-0.871390
C40	C	1.252161	-0.282934	-0.483592
C41	C	1.274652	-0.179568	-0.465736
C42	C	1.359678	-0.397717	-1.121663
C43	C	1.380746	-0.380942	-1.024556
C44	C	1.316651	-0.432019	-0.986259
C45	C	1.231485	-0.499874	-1.045081
C46	C	1.210419	-0.516655	-1.142199
C47	C	1.167392	-0.550957	-1.006795
C48	C	1.082226	-0.618812	-1.065616
C49	C	1.061163	-0.635590	-1.162724
C50	C	1.125258	-0.584513	-1.201021
C51	C	1.188458	-0.534175	-0.909676
C52	C	1.039199	-0.653113	-0.930212
C53	C	1.018131	-0.669888	-1.027320
C54	C	1.251856	-0.483693	-0.283886
C55	C	1.274517	-0.465575	-0.180485
H56	H	1.257873	-0.860850	-0.478901
H57	H	1.333811	-0.418357	-0.907189
H58	H	0.991941	-1.209796	-0.690820
N59	N	0.931140	-0.739192	-1.087422
N60	N	0.912346	-0.754159	-1.174126
H61	H	0.850908	-0.803103	-1.216575
N62	N	1.103744	-0.601629	-1.300214
N63	N	1.160974	-0.556008	-1.334387
H64	H	1.145782	-0.568092	-1.404443
H65	H	0.987079	-0.898187	-0.694516
N66	N	0.973733	-0.705286	-0.891090
N67	N	0.992551	-0.690292	-0.804381
H68	H	0.946321	-0.727136	-0.776744
N69	N	1.467730	-0.311642	-0.964459
N70	N	1.533825	-0.335006	-0.915925
H71	H	1.595261	-0.286058	-0.873476
N72	N	1.338259	-0.886097	-0.414911
N73	N	1.414290	-0.833557	-0.354344
H74	H	1.429487	-0.763484	-0.342201
N75	N	1.467829	-0.963482	-0.311796
N76	N	1.525056	-0.997666	-0.266254
H77	H	1.586488	-0.955217	-0.217312
H78	H	0.991821	-0.690849	-1.210616
N79	N	1.275444	-0.464873	-0.849586
N80	N	1.341543	-0.488232	-0.801052
H81	H	1.402981	-0.439282	-0.758611
N82	N	1.425260	-1.159825	-0.345804
N83	N	1.406445	-1.246547	-0.360824
H84	H	1.452674	-1.274173	-0.324021
H85	H	0.948900	-1.074411	-0.725028
N86	N	1.103915	-1.299370	-0.601762
N87	N	1.161168	-1.333530	-0.556217
H88	H	1.146006	-1.403601	-0.568350
H89	H	1.411859	-0.356143	-1.152855
