data_functionalizedCrystal
_audit_creation_method	'MofGen! by Chris Wilmer'
_symmetry_space_group_name_H-M	'P1'
_symmetry_Int_Tables_number	1
_symmetry_cell_setting	triclinic
loop_
_symmetry_equiv_pos_as_xyz
  x,y,z
_cell_length_a	15.944551
_cell_length_b	8.559649
_cell_length_c	7.681481
_cell_angle_alpha	85.069100
_cell_angle_beta	95.728392
_cell_angle_gamma	76.638701
loop_
_atom_site_label
_atom_site_type_symbol
_atom_site_fract_x
_atom_site_fract_y
_atom_site_fract_z
O1	O	-1.092318	-0.221184	0.146240
O2	O	-0.846126	-0.246596	0.146284
O3	O	-0.990912	-0.001290	0.146256
O4	O	-0.947532	-0.466490	0.146268
O5	O	-1.008737	0.028972	-0.146605
O6	O	-0.863951	-0.216334	-0.146578
O7	O	-1.110143	-0.190923	-0.146621
Zn8	Zn	-0.989877	-0.198824	-0.193097
Zn9	Zn	-0.966392	-0.238694	0.192760
O10	O	-0.965358	-0.436229	-0.146594
C11	C	-1.003112	0.073370	-0.000171
C12	C	-1.012897	0.250749	-0.000163
C13	C	-0.823813	-0.230411	-0.000141
C14	C	-0.730770	-0.227250	-0.000125
C15	C	-1.132457	-0.207108	-0.000192
C16	C	-1.225499	-0.210269	-0.000197
C17	C	-0.526216	-0.067638	-0.000163
C18	C	-0.451624	-0.156675	0.144235
C19	C	-0.560414	-0.221527	-0.000146
C20	C	-0.469218	-0.126876	-0.144503
C21	C	-0.395861	-0.215987	-0.000174
C22	C	-0.487040	-0.310620	0.144371
C23	C	-0.504650	-0.280786	-0.144497
C24	C	-0.430066	-0.369939	-0.000064
C25	C	-0.655210	-0.224715	-0.000128
C26	C	-0.301065	-0.212814	-0.000179
C27	C	-0.953157	-0.510889	-0.000162
C28	C	-0.943372	-0.688268	-0.000158
N29	N	-1.005912	-0.171612	-0.456434
N30	N	-0.950365	-0.265893	0.456097
H31	H	-0.567780	0.060059	0.000013
F32	F	-1.100491	0.359885	-0.000200
F33	F	-0.421117	-0.088093	0.303799
F34	F	-0.876251	-0.391680	-0.445603
H35	H	-0.495392	-0.388287	0.266581
F36	F	-0.375932	-0.537051	0.000041
F37	F	-0.535192	-0.349303	-0.304065
F38	F	-0.855783	0.202606	-0.000147
F39	F	-1.080037	-0.045834	-0.554742
F40	F	-0.458169	-0.025281	-0.304064
