data_functionalizedCrystal
_audit_creation_method	'MofGen! by Chris Wilmer'
_symmetry_space_group_name_H-M	'P1'
_symmetry_Int_Tables_number	1
_symmetry_cell_setting	triclinic
loop_
_symmetry_equiv_pos_as_xyz
  x,y,z
_cell_length_a	14.044191
_cell_length_b	14.044220
_cell_length_c	12.503572
_cell_angle_alpha	93.843168
_cell_angle_beta	86.162165
_cell_angle_gamma	93.190327
loop_
_atom_site_label
_atom_site_type_symbol
_atom_site_fract_x
_atom_site_fract_y
_atom_site_fract_z
O1	O	1.282208	0.225145	-0.089273
O2	O	1.532208	0.475145	0.160727
O3	O	1.782208	0.725145	0.410727
O4	O	2.032208	0.975145	0.660727
O5	O	1.005536	0.216832	-0.089287
O6	O	1.255536	0.466832	0.160713
O7	O	1.505536	0.716832	0.410713
O8	O	1.755536	0.966832	0.660713
O9	O	1.139719	0.082653	-0.089269
O10	O	1.389719	0.332653	0.160731
O11	O	1.639719	0.582653	0.410731
O12	O	1.889719	0.832653	0.660731
O13	O	1.148026	0.359324	-0.089290
O14	O	1.398026	0.609324	0.160710
O15	O	1.648026	0.859324	0.410710
O16	O	1.898026	1.109324	0.660710
O17	O	1.129629	0.092762	0.089371
O18	O	1.379629	0.342762	0.339371
O19	O	1.629629	0.592762	0.589371
O20	O	1.879629	0.842762	0.839371
O21	O	0.995447	0.226941	0.089354
O22	O	1.245447	0.476941	0.339354
O23	O	1.495447	0.726941	0.589354
O24	O	1.745447	0.976941	0.839354
O25	O	1.272118	0.235254	0.089368
O26	O	1.522118	0.485254	0.339368
O27	O	1.772118	0.735254	0.589368
O28	O	2.022118	0.985254	0.839368
Cu29	Cu	1.132861	0.232021	0.105672
Cu30	Cu	1.382861	0.482021	0.355672
Cu31	Cu	1.632861	0.732021	0.605672
Cu32	Cu	1.882861	0.982021	0.855672
Cu33	Cu	1.144794	0.220065	-0.105591
Cu34	Cu	1.394794	0.470065	0.144409
Cu35	Cu	1.644794	0.720065	0.394409
Cu36	Cu	1.894794	0.970065	0.644409
O37	O	1.137936	0.369433	0.089350
O38	O	1.387936	0.619433	0.339350
O39	O	1.637936	0.869433	0.589350
O40	O	1.887936	1.119433	0.839350
C41	C	0.964870	0.218250	0.000032
C42	C	1.214870	0.468250	0.250032
C43	C	1.464870	0.718250	0.500032
C44	C	1.714870	0.968250	0.750032
C45	C	0.858727	0.207402	0.000027
C46	C	1.108727	0.457402	0.250027
C47	C	1.358727	0.707402	0.500027
C48	C	1.608727	0.957402	0.750027
C49	C	1.131038	0.052086	0.000051
C50	C	1.381038	0.302086	0.250051
C51	C	1.631038	0.552086	0.500051
C52	C	1.881038	0.802086	0.750051
C53	C	1.120194	-0.054057	0.000052
C54	C	1.370194	0.195943	0.250052
C55	C	1.620194	0.445943	0.500052
C56	C	1.870194	0.695943	0.750052
C57	C	1.100368	-0.248396	0.000036
C58	C	1.350368	0.001604	0.250036
C59	C	1.600368	0.251604	0.500036
C60	C	1.850368	0.501604	0.750036
C61	C	1.177283	-0.299524	0.000036
C62	C	1.427283	-0.049524	0.250036
C63	C	1.677283	0.200476	0.500036
C64	C	1.927283	0.450476	0.750036
C65	C	1.166252	-0.407661	0.000027
C66	C	1.416252	-0.157661	0.250027
C67	C	1.666252	0.092339	0.500027
C68	C	1.916252	0.342339	0.750027
C69	C	1.111398	-0.140249	0.000045
C70	C	1.361398	0.109751	0.250045
C71	C	1.611398	0.359751	0.500045
C72	C	1.861398	0.609751	0.750045
C73	C	0.613268	0.264503	0.000034
C74	C	0.863268	0.514503	0.250034
C75	C	1.113268	0.764503	0.500034
C76	C	1.363268	1.014503	0.750034
C77	C	0.664393	0.187587	0.000038
C78	C	0.914393	0.437587	0.250038
C79	C	1.164393	0.687587	0.500038
C80	C	1.414393	0.937587	0.750038
C81	C	0.772531	0.198615	0.000032
C82	C	1.022531	0.448615	0.250032
C83	C	1.272531	0.698615	0.500032
C84	C	1.522531	0.948615	0.750032
C85	C	0.505121	0.253477	0.000040
C86	C	0.755121	0.503477	0.250040
C87	C	1.005121	0.753477	0.500040
C88	C	1.255121	1.003477	0.750040
C89	C	1.312785	0.233836	0.000046
C90	C	1.562785	0.483836	0.250046
C91	C	1.812785	0.733836	0.500046
C92	C	2.062785	0.983836	0.750046
C93	C	1.418929	0.244683	0.000044
C94	C	1.668929	0.494683	0.250044
C95	C	1.918929	0.744683	0.500044
C96	C	2.168929	0.994683	0.750044
C97	C	1.146617	0.400000	0.000027
C98	C	1.396617	0.650000	0.250027
C99	C	1.646617	0.900000	0.500027
C100	C	1.896617	1.150000	0.750027
C101	C	1.157462	0.506143	0.000020
C102	C	1.407462	0.756143	0.250020
C103	C	1.657462	1.006143	0.500020
C104	C	1.907462	1.256143	0.750020
N105	N	1.124476	0.240429	0.254263
N106	N	1.374476	0.490429	0.504263
N107	N	1.624476	0.740429	0.754263
N108	N	1.874476	0.990429	1.004263
N109	N	1.153186	0.211650	-0.254182
N110	N	1.403186	0.461650	-0.004182
N111	N	1.653186	0.711650	0.245818
N112	N	1.903186	0.961650	0.495818
C113	C	1.112141	0.252807	0.473377
C114	C	1.362141	0.502807	0.723377
C115	C	1.612141	0.752807	0.973377
C116	C	1.862141	1.002807	1.223377
C117	C	1.165518	0.199275	0.526711
C118	C	1.415518	0.449275	0.776711
C119	C	1.665518	0.699275	1.026711
C120	C	1.915518	0.949275	1.276711
C121	C	1.158655	0.206162	0.648633
C122	C	1.408655	0.456162	0.898633
C123	C	1.658655	0.706162	1.148633
C124	C	1.908655	0.956162	1.398633
C125	C	1.119003	0.245921	0.351444
C126	C	1.369003	0.495921	0.601444
C127	C	1.619003	0.745921	0.851444
C128	C	1.869003	0.995921	1.101444
H129	H	1.026241	-0.285835	0.000029
H130	H	1.276241	-0.035835	0.250029
H131	H	1.526241	0.214165	0.500029
H132	H	1.776241	0.464165	0.750029
H133	H	0.626954	0.113450	-0.000032
H134	H	0.876954	0.363450	0.249968
H135	H	1.126954	0.613450	0.499968
H136	H	1.376954	0.863450	0.749968
H137	H	0.650710	0.338629	0.000025
H138	H	0.900710	0.588629	0.250025
H139	H	1.150710	0.838629	0.500025
H140	H	1.400710	1.088629	0.750025
N141	N	1.232881	0.131718	0.465907
N142	N	1.482881	0.381718	0.715907
N143	N	1.732881	0.631718	0.965907
N144	N	1.982881	0.881718	1.215907
H145	H	1.280883	0.169138	0.419244
H146	H	1.530883	0.419138	0.669244
H147	H	1.780883	0.669138	0.919244
H148	H	2.030883	0.919138	1.169244
H149	H	1.267484	0.096967	0.518555
H150	H	1.517484	0.346967	0.768555
H151	H	1.767484	0.596967	1.018555
H152	H	2.017484	0.846967	1.268555
N153	N	1.275484	-0.249939	0.000046
N154	N	1.525484	0.000061	0.250046
N155	N	1.775484	0.250061	0.500046
N156	N	2.025484	0.500061	0.750046
H157	H	1.269550	-0.178598	0.000054
H158	H	1.519550	0.071402	0.250054
H159	H	1.769550	0.321402	0.500054
H160	H	2.019550	0.571402	0.750054
H161	H	1.307549	-0.265333	0.066275
H162	H	1.557549	-0.015333	0.316275
H163	H	1.807549	0.234667	0.566275
H164	H	2.057549	0.484667	0.816275
N165	N	1.044783	0.320363	0.534173
N166	N	1.294783	0.570363	0.784173
N167	N	1.544783	0.820363	1.034173
N168	N	1.794783	1.070363	1.284173
H169	H	1.049369	0.315768	0.613913
H170	H	1.299369	0.565768	0.863913
H171	H	1.549369	0.815768	1.113913
H172	H	1.799369	1.065768	1.363913
H173	H	1.062741	0.387919	0.514581
H174	H	1.312741	0.637919	0.764581
H175	H	1.562741	0.887919	1.014581
H176	H	1.812741	1.137919	1.264581
