data_functionalizedCrystal
_audit_creation_method	'MofGen! by Chris Wilmer'
_symmetry_space_group_name_H-M	'P1'
_symmetry_Int_Tables_number	1
_symmetry_cell_setting	triclinic
loop_
_symmetry_equiv_pos_as_xyz
  x,y,z
_cell_length_a	14.971487
_cell_length_b	9.198806
_cell_length_c	14.971486
_cell_angle_alpha	90.003393
_cell_angle_beta	96.385734
_cell_angle_gamma	90.002228
loop_
_atom_site_label
_atom_site_type_symbol
_atom_site_fract_x
_atom_site_fract_y
_atom_site_fract_z
O1	O	-1.186944	0.120685	0.116564
O2	O	-0.686944	0.620685	0.616564
O3	O	-0.926544	0.120734	0.130522
O4	O	-0.426544	0.620734	0.630522
O5	O	-1.063723	0.120698	-0.006657
O6	O	-0.563723	0.620698	0.493343
O7	O	-1.049764	0.120721	0.253743
O8	O	-0.549764	0.620721	0.753743
O9	O	-1.063712	-0.121087	-0.006658
O10	O	-0.563712	0.378913	0.493342
O11	O	-0.926533	-0.121051	0.130521
O12	O	-0.426533	0.378949	0.630521
O13	O	-1.186933	-0.121100	0.116563
O14	O	-0.686933	0.378900	0.616563
Cu15	Cu	-1.056732	-0.143153	0.123542
Cu16	Cu	-0.556732	0.356847	0.623542
Cu17	Cu	-1.056745	0.142786	0.123543
Cu18	Cu	-0.556745	0.642786	0.623543
O19	O	-1.049754	-0.121064	0.253742
O20	O	-0.549754	0.378936	0.753742
C21	C	-0.893214	-0.000153	0.129897
C22	C	-0.393214	0.499847	0.629897
C23	C	-0.793917	-0.000134	0.128026
C24	C	-0.293917	0.499866	0.628026
N25	N	-1.056729	-0.344267	0.123541
N26	N	-0.556729	0.155733	0.623541
C27	C	-0.736691	-0.000127	0.208615
C28	C	-0.236691	0.499873	0.708615
C29	C	-0.643392	-0.000146	0.206852
C30	C	-0.143392	0.499854	0.706852
C31	C	-0.607320	-0.000161	0.124499
C32	C	-0.107320	0.499839	0.624499
C33	C	-0.664552	-0.000173	0.043903
C34	C	-0.164552	0.499827	0.543903
C35	C	-0.757850	-0.000164	0.045668
C36	C	-0.257850	0.499836	0.545668
C37	C	-0.470090	-0.000186	0.040232
C38	C	0.029910	0.499814	0.540232
C39	C	-0.376786	-0.000192	0.038467
C40	C	0.123214	0.499808	0.538467
C41	C	-0.355632	-0.000168	0.201416
C42	C	0.144368	0.499832	0.701416
C43	C	-0.448929	-0.000160	0.203181
C44	C	0.051071	0.499840	0.703181
C45	C	-0.506156	-0.000168	0.122585
C46	C	-0.006156	0.499832	0.622585
C47	C	-1.114329	-0.416479	0.065692
C48	C	-0.614329	0.083521	0.565692
C49	C	-1.114343	-0.583891	0.065689
C50	C	-0.614343	-0.083891	0.565689
C51	C	-0.220263	-0.000202	0.117187
C52	C	0.279737	0.499798	0.617187
C53	C	-0.319560	-0.000185	0.119056
C54	C	0.180440	0.499815	0.619056
C55	C	-1.063094	-0.000194	-0.039982
C56	C	-0.563094	0.499806	0.460018
C57	C	-1.061223	-0.000193	-0.139279
C58	C	-0.561223	0.499807	0.360721
N59	N	-1.056754	0.343900	0.123536
N60	N	-0.556754	0.843900	0.623536
C61	C	-1.141812	-0.000209	-0.196504
C62	C	-0.641812	0.499791	0.303496
C63	C	-1.140049	-0.000194	-0.289804
C64	C	-0.640049	0.499806	0.210196
C65	C	-1.057696	-0.000173	-0.325876
C66	C	-0.557696	0.499827	0.174124
C67	C	-0.977100	-0.000153	-0.268644
C68	C	-0.477100	0.499847	0.231356
C69	C	-0.978864	-0.000157	-0.175346
C70	C	-0.478864	0.499843	0.324654
C71	C	-0.973429	-0.000147	-0.463107
C72	C	-0.473429	0.499853	0.036893
C73	C	-0.971665	-0.000145	-0.556411
C74	C	-0.471665	0.499855	-0.056411
C75	C	-1.134614	-0.000183	-0.577564
C76	C	-0.634614	0.499817	-0.077564
C77	C	-1.136378	-0.000188	-0.484266
C78	C	-0.636378	0.499812	0.015734
C79	C	-1.055782	-0.000170	-0.427040
C80	C	-0.555782	0.499830	0.072960
C81	C	-1.050383	-0.000169	0.287067
C82	C	-0.550383	0.499831	0.787067
C83	C	-1.052254	-0.000161	0.386364
C84	C	-0.552254	0.499839	0.886364
H85	H	-0.766053	-0.000114	0.275677
H86	H	-0.266053	0.499886	0.775677
H87	H	-0.478296	-0.000133	0.270240
H88	H	0.021704	0.499867	0.770240
H89	H	-1.007423	-0.406382	0.173063
H90	H	-0.507423	0.093618	0.673063
H91	H	-0.596802	-0.000139	0.272476
H92	H	-0.096802	0.499861	0.772476
Cl93	Cl	-0.980617	-0.560239	0.200014
Cl94	Cl	-0.480617	-0.060239	0.700014
Cl95	Cl	-0.873570	-0.000109	-0.313992
Cl96	Cl	-0.373570	0.499891	0.186008
Cl97	Cl	-1.235934	-0.000198	-0.649505
Cl98	Cl	-0.735934	0.499802	-0.149505
H99	H	-0.904606	-0.000151	-0.585777
H100	H	-0.404606	0.499849	-0.085777
Cl101	Cl	-0.619204	-0.000201	-0.059627
Cl102	Cl	-0.119204	0.499799	0.440373
Cl103	Cl	-1.245348	-0.000250	-0.151166
Cl104	Cl	-0.745348	0.499750	0.348834
H105	H	-0.347419	-0.000206	-0.028592
H106	H	0.152581	0.499794	0.471408
H107	H	-1.205673	-0.000210	-0.336394
H108	H	-0.705673	0.499790	0.163606
Cl109	Cl	-1.239909	-0.000207	-0.438919
Cl110	Cl	-0.739909	0.499793	0.061081
Cl111	Cl	-0.872107	-0.000124	-0.391166
Cl112	Cl	-0.372107	0.499876	0.108834
H113	H	-0.913240	-0.000144	-0.128754
H114	H	-0.413240	0.499856	0.371246
Cl115	Cl	-0.829791	-0.000180	-0.055649
Cl116	Cl	-0.329791	0.499820	0.444351
Cl117	Cl	-0.542030	-0.000200	-0.061090
Cl118	Cl	-0.042030	0.499800	0.438910
H119	H	-0.309033	-0.000167	0.267040
H120	H	0.190967	0.499833	0.767040
H121	H	-1.163629	-0.354365	0.016163
H122	H	-0.663629	0.145635	0.516163
H123	H	-1.163660	-0.645990	0.016164
H124	H	-0.663660	-0.145990	0.516164
