data_functionalizedCrystal
_audit_creation_method	'MofGen! by Chris Wilmer'
_symmetry_space_group_name_H-M	'P1'
_symmetry_Int_Tables_number	1
_symmetry_cell_setting	triclinic
loop_
_symmetry_equiv_pos_as_xyz
  x,y,z
_cell_length_a	12.811457
_cell_length_b	13.262508
_cell_length_c	11.295483
_cell_angle_alpha	109.979812
_cell_angle_beta	91.289320
_cell_angle_gamma	82.749985
loop_
_atom_site_label
_atom_site_type_symbol
_atom_site_fract_x
_atom_site_fract_y
_atom_site_fract_z
O1	O	1.386254	0.148377	0.098740
O2	O	1.082763	0.161730	0.070288
O3	O	1.245709	-0.001211	0.035117
O4	O	1.223309	0.311318	0.133911
O5	O	1.231397	0.013078	0.236250
O6	O	1.068452	0.176019	0.271420
O7	O	1.371943	0.162667	0.299873
Cu8	Cu	1.218891	0.170648	0.304011
Cu9	Cu	1.235815	0.153749	0.066149
O10	O	1.208997	0.325608	0.335043
C11	C	1.036825	0.167688	0.166281
C12	C	0.921266	0.164141	0.152652
C13	C	0.688516	0.173035	0.346335
C14	C	0.579938	0.169703	0.333535
C15	C	0.595530	0.154135	0.114251
C16	C	0.704109	0.157468	0.127051
C17	C	0.750597	0.166920	0.243097
C18	C	0.859176	0.170260	0.255898
C19	C	0.874768	0.154685	0.036614
C20	C	0.766190	0.151353	0.023814
C21	C	1.238614	-0.034094	0.122724
C22	C	1.238781	-0.153365	0.084109
C23	C	1.208042	-0.458423	0.413822
C24	C	1.207876	-0.346362	0.450103
C25	C	1.215603	-0.298107	0.358608
C26	C	1.223494	-0.361925	0.230825
C27	C	1.223652	-0.473996	0.194539
C28	C	1.231212	-0.313680	0.139325
C29	C	1.239104	-0.377497	0.011542
C30	C	1.239262	-0.489557	-0.024738
C31	C	1.231535	-0.537812	0.066758
C32	C	1.231055	-0.201608	0.175611
C33	C	1.246665	-0.217181	-0.043672
C34	C	1.246830	-0.329242	-0.079954
C35	C	1.417881	0.156708	0.203876
C36	C	1.533441	0.160254	0.217497
C37	C	1.216093	0.358491	0.247433
C38	C	1.215926	0.477760	0.286041
N39	N	1.206994	0.182533	0.471312
N40	N	1.247720	0.141855	-0.101154
C41	C	1.333359	0.056241	0.693349
C42	C	1.324376	0.065230	0.819954
C43	C	1.180041	0.209494	0.851126
C44	C	1.189024	0.200505	0.724521
C45	C	1.265686	0.123877	0.645637
C46	C	1.274674	0.114894	0.519032
C47	C	1.130334	0.259152	0.550205
C48	C	1.121351	0.268141	0.676809
H49	H	0.728325	0.143652	-0.070669
H50	H	1.337099	0.052502	0.454806
H51	H	0.529394	0.174688	0.417603
H52	H	1.245678	-0.541514	-0.128788
H53	H	1.231675	-0.629062	0.037224
H54	H	0.557663	0.146422	0.019767
O55	O	1.254998	-0.165141	-0.142362
H56	H	1.187655	-0.181674	-0.206753
H57	H	1.058931	0.330528	0.741050
H58	H	0.897024	0.177963	0.350391
H59	H	1.253255	-0.381218	-0.183997
O60	O	1.416040	-0.026401	0.608255
H61	H	1.461587	-0.071927	0.662702
H62	H	1.215466	-0.206861	0.388156
O63	O	0.941728	0.148092	-0.074745
H64	H	0.935266	0.070673	-0.152294
H65	H	1.117617	0.271876	0.915366
H66	H	1.224620	-0.149658	0.279652
O67	O	0.738667	0.183243	0.471493
H68	H	0.677255	0.186936	0.541133
O69	O	1.199386	-0.277533	0.587917
H70	H	1.194055	-0.329913	0.645445
H71	H	1.201745	-0.497723	0.488303
O72	O	1.397375	-0.007707	0.871426
H73	H	1.452197	-0.062490	0.795302
H74	H	1.075233	0.314229	0.511346
