data_functionalizedCrystal
_audit_creation_method	'MofGen! by Chris Wilmer'
_symmetry_space_group_name_H-M	'P1'
_symmetry_Int_Tables_number	1
_symmetry_cell_setting	triclinic
loop_
_symmetry_equiv_pos_as_xyz
  x,y,z
_cell_length_a	17.699104
_cell_length_b	16.992695
_cell_length_c	16.776229
_cell_angle_alpha	89.993259
_cell_angle_beta	89.991971
_cell_angle_gamma	86.979870
loop_
_atom_site_label
_atom_site_type_symbol
_atom_site_fract_x
_atom_site_fract_y
_atom_site_fract_z
O1	O	1.010246	0.099224	-0.066305
O2	O	0.790672	0.112106	-0.066304
O3	O	0.899579	-0.008476	-0.066298
O4	O	0.901339	0.219806	-0.066311
O5	O	0.899563	-0.008484	0.066278
O6	O	0.790656	0.112098	0.066273
O7	O	1.010230	0.099216	0.066271
Zn8	Zn	0.900441	0.105656	0.087321
Zn9	Zn	0.900462	0.105666	-0.087354
O10	O	0.901323	0.219798	0.066266
C11	C	0.762438	0.111638	-0.000015
C12	C	0.678334	0.110245	-0.000014
C13	C	0.157381	0.173167	-0.000026
C14	C	0.236406	0.174472	-0.000028
C15	C	0.280616	0.103685	-0.000024
C16	C	0.245798	0.031590	-0.000026
C17	C	0.166774	0.030287	-0.000029
C18	C	0.564491	0.036845	-0.000013
C19	C	0.643520	0.038154	-0.000008
C20	C	0.634123	0.181030	-0.000013
C21	C	0.555099	0.179727	-0.000016
C22	C	0.520288	0.107632	-0.000022
C23	C	0.434600	0.106219	-0.000021
C24	C	0.366303	0.105098	-0.000020
C25	C	0.897306	-0.037688	-0.000010
C26	C	0.890549	-0.124720	-0.000010
C27	C	0.955746	-0.175080	-0.000010
C28	C	0.949393	-0.256855	-0.000017
C29	C	0.877841	-0.288269	-0.000019
C30	C	0.812639	-0.237902	-0.000022
C31	C	0.818993	-0.156129	-0.000020
C32	C	0.851505	-0.531818	-0.000030
C33	C	0.845156	-0.613598	-0.000030
C34	C	0.981910	-0.632545	-0.000026
C35	C	0.988258	-0.550769	-0.000020
C36	C	0.923056	-0.500410	-0.000027
N37	N	0.871345	-0.371855	-0.000025
N38	N	0.929553	-0.416825	-0.000027
C39	C	1.038464	0.099684	-0.000019
C40	C	1.122568	0.101078	-0.000025
C41	C	0.903596	0.249011	-0.000024
C42	C	0.910353	0.336042	-0.000029
N43	N	0.900432	0.105649	0.206533
N44	N	0.900476	0.105667	-0.206565
C45	C	0.948673	0.052277	0.248252
C46	C	0.948677	0.052277	0.331704
C47	C	0.900444	0.105652	0.373436
C48	C	0.852197	0.159027	0.331710
C49	C	0.852190	0.159023	0.248260
C50	C	0.852226	0.159042	0.668257
C51	C	0.852238	0.159043	0.751714
C52	C	0.948713	0.052296	0.751702
C53	C	0.948705	0.052292	0.668252
C54	C	0.900457	0.105663	0.626534
C55	C	0.900452	0.105662	0.536045
C56	C	0.900452	0.105657	0.463922
H57	H	0.662476	0.239733	-0.000011
Cl58	Cl	1.045702	-0.135597	0.000001
H59	H	0.786887	-0.639171	-0.000018
Cl60	Cl	0.520738	-0.053788	-0.000039
Cl61	Cl	0.791538	0.226120	0.195813
H62	H	0.987997	0.008835	0.785678
Cl63	Cl	0.722688	-0.277394	-0.000035
H64	H	0.281800	-0.026045	-0.000027
H65	H	0.121390	0.230810	-0.000023
Cl66	Cl	1.031360	-0.320161	-0.000015
H67	H	0.765903	-0.115126	-0.000021
H68	H	0.679515	-0.019492	-0.000006
Cl69	Cl	1.063873	-0.695857	-0.000020
Cl70	Cl	0.123009	-0.060344	-0.000028
Cl71	Cl	0.791575	0.226138	0.615817
H72	H	0.812921	0.202483	0.365693
H73	H	1.046523	-0.525198	-0.000018
Cl74	Cl	0.280168	0.265103	-0.000034
H75	H	0.519107	0.237368	-0.000015
Cl76	Cl	0.791596	0.226148	0.804175
H77	H	0.798413	-0.490825	-0.000036
H78	H	0.987953	0.008816	0.214280
H79	H	0.987958	0.008817	0.365672
H80	H	0.987984	0.008831	0.634277
