data_functionalizedCrystal
_audit_creation_method	'MofGen! by Chris Wilmer'
_symmetry_space_group_name_H-M	'P1'
_symmetry_Int_Tables_number	1
_symmetry_cell_setting	triclinic
loop_
_symmetry_equiv_pos_as_xyz
  x,y,z
_cell_length_a	15.944551
_cell_length_b	13.339070
_cell_length_c	12.376897
_cell_angle_alpha	81.002498
_cell_angle_beta	77.334128
_cell_angle_gamma	99.564016
loop_
_atom_site_label
_atom_site_type_symbol
_atom_site_fract_x
_atom_site_fract_y
_atom_site_fract_z
O1	O	0.402697	1.325015	0.093982
O2	O	0.347423	1.030482	0.093989
O3	O	0.254662	1.185793	0.093975
O4	O	0.495459	1.169704	0.093996
O5	O	0.291475	1.220379	-0.094022
O6	O	0.384237	1.065068	-0.094008
O7	O	0.439511	1.359600	-0.094015
Zn8	Zn	0.417719	1.217826	-0.123860
Zn9	Zn	0.369215	1.172257	0.123834
O10	O	0.532273	1.204290	-0.094001
C11	C	0.241619	1.202419	-0.000024
C12	C	0.147906	1.200417	-0.000024
C13	C	0.356493	1.010085	-0.000009
C14	C	0.328663	0.897781	-0.000007
C15	C	0.430440	1.379997	-0.000015
C16	C	0.458269	1.492300	-0.000010
C17	C	-0.090500	1.099361	-0.000007
C18	C	-0.122432	1.163339	-0.092701
C19	C	-0.023665	1.196793	-0.000016
C20	C	-0.158705	1.129263	0.092649
C21	C	-0.189397	1.193285	-0.000002
C22	C	-0.054347	1.260813	-0.092787
C23	C	-0.090634	1.226708	0.092646
C24	C	-0.122527	1.290761	-0.000071
C25	C	0.071809	1.198812	-0.000024
C26	C	-0.284867	1.191276	-0.000002
C27	C	0.545315	1.187664	-0.000000
C28	C	0.639026	1.189664	0.000008
N29	N	0.450823	1.248932	-0.292905
C30	C	0.241877	1.857079	-0.000013
C31	C	0.215726	1.751564	-0.000010
C32	C	0.276360	1.686743	-0.000010
C33	C	0.363149	1.727447	-0.000013
C34	C	0.389301	1.832970	-0.000006
C35	C	0.423783	1.662634	-0.000004
C36	C	0.510572	1.703338	-0.000006
C37	C	0.536720	1.808852	-0.000001
C38	C	0.476086	1.873673	-0.000001
C39	C	0.397632	1.557111	-0.000010
C40	C	0.545055	1.533003	-0.000004
C41	C	0.571206	1.638518	-0.000007
C42	C	0.259247	1.068913	-0.647970
C43	C	0.236072	1.047125	-0.529639
C44	C	0.289758	1.097575	-0.470450
C45	C	0.366622	1.169817	-0.529602
C46	C	0.389796	1.191613	-0.647944
C47	C	0.420307	1.220274	-0.470424
C48	C	0.497172	1.292516	-0.529577
C49	C	0.520342	1.314308	-0.647907
C50	C	0.466656	1.263858	-0.707096
C51	C	0.397133	1.198478	-0.352083
C52	C	0.527683	1.321178	-0.352057
C53	C	0.550858	1.342966	-0.470387
N54	N	0.336107	1.141159	0.292878
H55	H	-0.136797	1.136547	-0.171066
H56	H	0.582925	1.373141	-0.696065
O57	O	0.633757	1.420885	-0.534199
H58	H	0.667204	1.452303	-0.473170
O59	O	0.201341	1.014507	-0.711800
H60	H	0.239465	0.970063	-0.765721
H61	H	0.192517	1.909863	-0.000004
H62	H	0.641871	1.671674	-0.000008
O63	O	0.314216	1.120583	-0.288319
H64	H	0.269842	1.159174	-0.234425
H65	H	0.173487	0.988309	-0.481486
H66	H	0.594428	1.480225	-0.000004
O67	O	0.248155	1.572940	-0.000024
H68	H	0.258069	1.525803	0.076599
H69	H	-0.136814	1.371714	-0.000125
H70	H	0.270884	1.079830	-0.374100
O71	O	0.005179	1.334469	-0.196714
H72	H	0.074772	1.335341	-0.195927
O73	O	0.504302	1.987487	-0.000029
H74	H	0.447559	2.025719	-0.000038
H75	H	0.571398	1.362260	-0.303865
O76	O	0.491639	1.287392	-0.834729
H77	H	0.441387	1.240184	-0.865943
H78	H	0.145063	1.718430	-0.000006
O79	O	-0.071305	0.992264	-0.000118
H80	H	-0.083631	0.966239	-0.077182
H81	H	-0.076256	1.253464	0.171015
H82	H	0.326968	1.523980	-0.000008
O83	O	-0.218370	1.055571	0.196453
H84	H	-0.177986	1.019793	0.247742
O85	O	0.630328	1.852763	-0.000012
H86	H	0.668101	1.789969	-0.000029
