data_functionalizedCrystal
_audit_creation_method	'MofGen! by Chris Wilmer'
_symmetry_space_group_name_H-M	'P1'
_symmetry_Int_Tables_number	1
_symmetry_cell_setting	triclinic
loop_
_symmetry_equiv_pos_as_xyz
  x,y,z
_cell_length_a	18.050589
_cell_length_b	18.050591
_cell_length_c	18.050582
_cell_angle_alpha	89.979078
_cell_angle_beta	90.018205
_cell_angle_gamma	89.975773
loop_
_atom_site_label
_atom_site_type_symbol
_atom_site_fract_x
_atom_site_fract_y
_atom_site_fract_z
Zn1	Zn	-0.295786	-1.135293	0.420054
Zn2	Zn	-0.045786	-0.885293	0.670054
Zn3	Zn	0.204214	-0.635293	0.920054
Zn4	Zn	0.454214	-0.385293	1.170054
Zn5	Zn	-0.419969	-1.135203	0.295873
Zn6	Zn	-0.169969	-0.885203	0.545873
Zn7	Zn	0.080031	-0.635203	0.795873
Zn8	Zn	0.330031	-0.385203	1.045873
Zn9	Zn	-0.295789	-1.011112	0.295865
Zn10	Zn	-0.045789	-0.761112	0.545865
Zn11	Zn	0.204211	-0.511112	0.795865
Zn12	Zn	0.454211	-0.261112	1.045865
Zn13	Zn	-0.419930	-1.011060	0.420009
Zn14	Zn	-0.169930	-0.761060	0.670009
Zn15	Zn	0.080070	-0.511060	0.920009
Zn16	Zn	0.330070	-0.261060	1.170009
O17	O	-0.357868	-1.073167	0.357950
O18	O	-0.107868	-0.823167	0.607950
O19	O	0.142132	-0.573167	0.857950
O20	O	0.392132	-0.323167	1.107950
O21	O	-0.312274	-1.239205	0.403603
O22	O	-0.062274	-0.989205	0.653603
O23	O	0.187726	-0.739205	0.903603
O24	O	0.437726	-0.489205	1.153603
O25	O	-0.403514	-1.118727	0.191948
O26	O	-0.153514	-0.868727	0.441948
O27	O	0.096486	-0.618727	0.691948
O28	O	0.346486	-0.368727	0.941948
O29	O	-0.191864	-1.027644	0.312354
O30	O	0.058136	-0.777644	0.562354
O31	O	0.308136	-0.527644	0.812354
O32	O	0.558136	-0.277644	1.062354
O33	O	-0.403511	-1.239140	0.312369
O34	O	-0.153511	-0.989140	0.562369
O35	O	0.096489	-0.739140	0.812369
O36	O	0.346489	-0.489140	1.062369
O37	O	-0.191862	-1.118879	0.403595
O38	O	0.058138	-0.868879	0.653595
O39	O	0.308138	-0.618879	0.903595
O40	O	0.558138	-0.368879	1.153595
O41	O	-0.312279	-1.027557	0.191942
O42	O	-0.062279	-0.777557	0.441942
O43	O	0.187721	-0.527557	0.691942
O44	O	0.437721	-0.277557	0.941942
O45	O	-0.312241	-0.907180	0.312311
O46	O	-0.062241	-0.657180	0.562311
O47	O	0.187759	-0.407180	0.812311
O48	O	0.437759	-0.157180	1.062311
O49	O	-0.403444	-1.027555	0.523940
O50	O	-0.153444	-0.777555	0.773940
O51	O	0.096556	-0.527555	1.023940
O52	O	0.346556	-0.277555	1.273940
O53	O	-0.403447	-0.907142	0.403519
O54	O	-0.153447	-0.657142	0.653519
O55	O	0.096553	-0.407142	0.903519
O56	O	0.346553	-0.157142	1.153519
O57	O	-0.312236	-1.118828	0.523973
O58	O	-0.062236	-0.868828	0.773973
O59	O	0.187764	-0.618828	1.023973
O60	O	0.437764	-0.368828	1.273973
O61	O	-0.523888	-1.118676	0.312325
O62	O	-0.273888	-0.868676	0.562325
O63	O	-0.023888	-0.618676	0.812325
O64	O	0.226112	-0.368676	1.062325
O65	O	-0.523860	-1.027468	0.403527
O66	O	-0.273860	-0.777468	0.653527
O67	O	-0.023860	-0.527468	0.903527
O68	O	0.226140	-0.277468	1.153527
C69	C	-0.550820	-1.073077	0.357938
C70	C	-0.300820	-0.823077	0.607938
C71	C	-0.050820	-0.573077	0.857938
C72	C	0.199180	-0.323077	1.107938
C73	C	-0.633366	-1.073107	0.357958
C74	C	-0.383366	-0.823107	0.607958
C75	C	-0.133366	-0.573107	0.857958
C76	C	0.116634	-0.323107	1.107958
C77	C	-0.357841	-0.880215	0.357909
C78	C	-0.107841	-0.630215	0.607909
C79	C	0.142159	-0.380215	0.857909
C80	C	0.392159	-0.130215	1.107909
C81	C	-0.357847	-0.797669	0.357909
C82	C	-0.107847	-0.547669	0.607909
C83	C	0.142153	-0.297669	0.857909
C84	C	0.392153	-0.047669	1.107909
C85	C	-0.357835	-1.073196	0.551656
C86	C	-0.107835	-0.823196	0.801656
C87	C	0.142165	-0.573196	1.051656
C88	C	0.392165	-0.323196	1.301656
C89	C	-0.357821	-1.073208	0.634202
C90	C	-0.107821	-0.823208	0.884202
C91	C	0.142179	-0.573208	1.134202
C92	C	0.392179	-0.323208	1.384202
C93	C	-0.832828	-1.023557	0.407536
C94	C	-0.582828	-0.773557	0.657536
C95	C	-0.332828	-0.523557	0.907536
C96	C	-0.082828	-0.273557	1.157536
C97	C	-0.882261	-1.005459	0.339767
C98	C	-0.632261	-0.755459	0.589767
C99	C	-0.382261	-0.505459	0.839767
C100	C	-0.132261	-0.255459	1.089767
C101	C	-0.784497	-1.073180	0.357967
C102	C	-0.534497	-0.823180	0.607967
C103	C	-0.284497	-0.573180	0.857967
C104	C	-0.034497	-0.323180	1.107967
C105	C	-0.882146	-1.091314	0.425744
C106	C	-0.632146	-0.841314	0.675744
C107	C	-0.382146	-0.591314	0.925744
C108	C	-0.132146	-0.341314	1.175744
C109	C	-0.930482	-1.073249	0.357983
C110	C	-0.680482	-0.823249	0.607983
C111	C	-0.430482	-0.573249	0.857983
C112	C	-0.180482	-0.323249	1.107983
C113	C	-0.832842	-1.055046	0.290162
C114	C	-0.582842	-0.805046	0.540162
C115	C	-0.332842	-0.555046	0.790162
C116	C	-0.082842	-0.305046	1.040162
C117	C	-0.832722	-1.140933	0.376186
C118	C	-0.582722	-0.890933	0.626186
C119	C	-0.332722	-0.640933	0.876186
C120	C	-0.082722	-0.390933	1.126186
C121	C	-0.882133	-1.122861	0.308370
C122	C	-0.632133	-0.872861	0.558370
C123	C	-0.382133	-0.622861	0.808370
C124	C	-0.132133	-0.372861	1.058370
C125	C	-0.700398	-1.073138	0.357959
C126	C	-0.450398	-0.823138	0.607959
C127	C	-0.200398	-0.573138	0.857959
C128	C	0.049602	-0.323138	1.107959
C129	C	-1.014578	-1.073291	0.357983
C130	C	-0.764578	-0.823291	0.607983
C131	C	-0.514578	-0.573291	0.857983
C132	C	-0.264578	-0.323291	1.107983
C133	C	-0.164163	-1.073277	0.357979
C134	C	0.085837	-0.823277	0.607979
C135	C	0.335837	-0.573277	0.857979
C136	C	0.585837	-0.323277	1.107979
C137	C	-0.081617	-1.073324	0.357991
C138	C	0.168383	-0.823324	0.607991
C139	C	0.418383	-0.573324	0.857991
C140	C	0.668383	-0.323324	1.107991
C141	C	-0.357897	-1.266872	0.357992
C142	C	-0.107897	-1.016872	0.607992
C143	C	0.142103	-0.766872	0.857992
C144	C	0.392103	-0.516872	1.107992
C145	C	-0.357909	-1.349418	0.358010
C146	C	-0.107909	-1.099418	0.608010
C147	C	0.142091	-0.849418	0.858010
C148	C	0.392091	-0.599418	1.108010
C149	C	-0.308191	-0.598217	0.308425
C150	C	-0.058191	-0.348217	0.558425
C151	C	0.191809	-0.098217	0.808425
C152	C	0.441809	0.151783	1.058425
C153	C	-0.375927	-0.548798	0.290154
C154	C	-0.125927	-0.298798	0.540154
C155	C	0.124073	-0.048798	0.790154
C156	C	0.374073	0.201202	1.040154
C157	C	-0.357869	-0.646539	0.357943
C158	C	-0.107869	-0.396539	0.607943
C159	C	0.142131	-0.146539	0.857943
C160	C	0.392131	0.103461	1.107943
C161	C	-0.290157	-0.548877	0.376212
C162	C	-0.040157	-0.298877	0.626212
C163	C	0.209843	-0.048877	0.876212
C164	C	0.459843	0.201123	1.126212
C165	C	-0.357885	-0.500553	0.357974
C166	C	-0.107885	-0.250553	0.607974
C167	C	0.142115	-0.000553	0.857974
C168	C	0.392115	0.249447	1.107974
C169	C	-0.425641	-0.598206	0.339637
C170	C	-0.175641	-0.348206	0.589637
C171	C	0.074359	-0.098206	0.839637
C172	C	0.324359	0.151794	1.089637
C173	C	-0.339825	-0.598289	0.425726
C174	C	-0.089825	-0.348289	0.675726
C175	C	0.160175	-0.098289	0.925726
C176	C	0.410175	0.151711	1.175726
C177	C	-0.407607	-0.548892	0.407481
C178	C	-0.157607	-0.298892	0.657481
C179	C	0.092393	-0.048892	0.907481
C180	C	0.342393	0.201108	1.157481
C181	C	-0.357859	-0.730637	0.357923
C182	C	-0.107859	-0.480637	0.607923
C183	C	0.142141	-0.230637	0.857923
C184	C	0.392141	0.019363	1.107923
C185	C	-0.357903	-0.416457	0.357994
C186	C	-0.107903	-0.166457	0.607994
C187	C	0.142097	0.083543	0.857994
C188	C	0.392097	0.333543	1.107994
C189	C	-0.357848	-1.073181	0.164998
C190	C	-0.107848	-0.823181	0.414998
C191	C	0.142152	-0.573181	0.664998
C192	C	0.392152	-0.323181	0.914998
C193	C	-0.357652	-1.073312	0.082453
C194	C	-0.107652	-0.823312	0.332453
C195	C	0.142348	-0.573312	0.582453
C196	C	0.392348	-0.323312	0.832453
C197	C	-0.407353	-1.023612	0.833635
C198	C	-0.157353	-0.773612	1.083635
C199	C	0.092647	-0.523612	1.333635
C200	C	0.342647	-0.273612	1.583635
C201	C	-0.425511	-1.091367	0.883034
C202	C	-0.175511	-0.841367	1.133034
C203	C	0.074489	-0.591367	1.383034
C204	C	0.324489	-0.341367	1.633034
C205	C	-0.357765	-1.073245	0.785332
C206	C	-0.107765	-0.823245	1.035332
C207	C	0.142235	-0.573245	1.285332
C208	C	0.392235	-0.323245	1.535332
C209	C	-0.339586	-1.005527	0.883014
C210	C	-0.089586	-0.755527	1.133014
C211	C	0.160414	-0.505527	1.383014
C212	C	0.410414	-0.255527	1.633014
C213	C	-0.357711	-1.073274	0.931317
C214	C	-0.107711	-0.823274	1.181317
C215	C	0.142289	-0.573274	1.431317
C216	C	0.392289	-0.323274	1.681317
C217	C	-0.375958	-1.141036	0.833645
C218	C	-0.125958	-0.891036	1.083645
C219	C	0.124042	-0.641036	1.333645
C220	C	0.374042	-0.391036	1.583645
C221	C	-0.290002	-1.055150	0.833620
C222	C	-0.040002	-0.805150	1.083620
C223	C	0.209998	-0.555150	1.333620
C224	C	0.459998	-0.305150	1.583620
C225	C	-0.308134	-1.122952	0.882998
C226	C	-0.058134	-0.872952	1.132998
C227	C	0.191866	-0.622952	1.382998
C228	C	0.441866	-0.372952	1.632998
C229	C	-0.357797	-1.073227	0.701234
C230	C	-0.107797	-0.823227	0.951234
C231	C	0.142203	-0.573227	1.201234
C232	C	0.392203	-0.323227	1.451234
C233	C	-0.357679	-1.073300	1.015414
C234	C	-0.107679	-0.823300	1.265414
C235	C	0.142321	-0.573300	1.515414
C236	C	0.392321	-0.323300	1.765414
H237	H	-0.811178	-0.981531	0.449395
H238	H	-0.561178	-0.731531	0.699395
H239	H	-0.311178	-0.481531	0.949395
H240	H	-0.061178	-0.231531	1.199395
H241	H	-0.482794	-1.106690	0.904739
H242	H	-0.232794	-0.856690	1.154739
H243	H	0.017206	-0.606690	1.404739
H244	H	0.267206	-0.356690	1.654739
Br245	Br	-0.477333	-0.953718	0.797507
Br246	Br	-0.227333	-0.703718	1.047507
Br247	Br	0.022667	-0.453718	1.297507
Br248	Br	0.272667	-0.203718	1.547507
H249	H	-0.324530	-0.620045	0.483019
H250	H	-0.074530	-0.370045	0.733019
H251	H	0.175470	-0.120045	0.983019
H252	H	0.425470	0.129955	1.233019
Br253	Br	-0.917989	-1.192858	0.238438
Br254	Br	-0.667989	-0.942858	0.488438
Br255	Br	-0.417989	-0.692858	0.738438
Br256	Br	-0.167989	-0.442858	0.988438
H257	H	-0.810948	-1.198184	0.391613
H258	H	-0.560948	-0.948184	0.641613
H259	H	-0.310948	-0.698184	0.891613
H260	H	-0.060948	-0.448184	1.141613
Br261	Br	-0.194706	-0.512751	0.401942
Br262	Br	0.055294	-0.262751	0.651942
Br263	Br	0.305294	-0.012751	0.901942
Br264	Br	0.555294	0.237249	1.151942
Br265	Br	-0.796901	-1.029421	0.194609
Br266	Br	-0.546901	-0.779421	0.444609
Br267	Br	-0.296901	-0.529421	0.694609
Br268	Br	-0.046901	-0.279421	0.944609
H269	H	-0.903802	-1.106625	0.483056
H270	H	-0.653802	-0.856625	0.733056
H271	H	-0.403802	-0.606625	0.983056
H272	H	-0.153802	-0.356625	1.233056
Br273	Br	-0.238201	-1.193007	0.918901
Br274	Br	0.011799	-0.943007	1.168901
Br275	Br	0.261799	-0.693007	1.418901
Br276	Br	0.511799	-0.443007	1.668901
Br277	Br	-0.313995	-0.910058	0.919163
Br278	Br	-0.063995	-0.660058	1.169163
Br279	Br	0.186005	-0.410058	1.419163
Br280	Br	0.436005	-0.160058	1.669163
H281	H	-0.266226	-0.619875	0.266503
H282	H	-0.016226	-0.369875	0.516503
H283	H	0.233774	-0.119875	0.766503
H284	H	0.483774	0.130125	1.016503
Br285	Br	-0.401388	-0.512566	0.194635
Br286	Br	-0.151388	-0.262566	0.444635
Br287	Br	0.098612	-0.012566	0.694635
Br288	Br	0.348612	0.237434	0.944635
Br289	Br	-0.401665	-1.236534	0.797657
Br290	Br	-0.151665	-0.986534	1.047657
Br291	Br	0.098335	-0.736534	1.297657
Br292	Br	0.348335	-0.486534	1.547657
H293	H	-0.482928	-0.619785	0.324134
H294	H	-0.232928	-0.369785	0.574134
H295	H	0.017072	-0.119785	0.824134
H296	H	0.267072	0.130215	1.074134
H297	H	-0.232736	-1.039807	0.811899
H298	H	0.017264	-0.789807	1.061899
H299	H	0.267264	-0.539807	1.311899
H300	H	0.517264	-0.289807	1.561899
Br301	Br	-0.918525	-0.910010	0.314083
Br302	Br	-0.668525	-0.660010	0.564083
Br303	Br	-0.418525	-0.410010	0.814083
Br304	Br	-0.168525	-0.160010	1.064083
Br305	Br	-0.477716	-0.513018	0.477302
Br306	Br	-0.227716	-0.263018	0.727302
Br307	Br	0.022284	-0.013018	0.977302
Br308	Br	0.272284	0.236982	1.227302
