data_functionalizedCrystal
_audit_creation_method	'MofGen! by Chris Wilmer'
_symmetry_space_group_name_H-M	'P1'
_symmetry_Int_Tables_number	1
_symmetry_cell_setting	triclinic
loop_
_symmetry_equiv_pos_as_xyz
  x,y,z
_cell_length_a	10.723024
_cell_length_b	10.723024
_cell_length_c	9.198806
_cell_angle_alpha	89.997988
_cell_angle_beta	89.996352
_cell_angle_gamma	84.467869
loop_
_atom_site_label
_atom_site_type_symbol
_atom_site_fract_x
_atom_site_fract_y
_atom_site_fract_z
O1	O	1.657188	0.175024	-0.120879
O2	O	1.294035	0.191778	-0.120884
O3	O	1.483988	0.001825	-0.120876
O4	O	1.467235	0.364977	-0.120887
O5	O	1.483973	0.001824	0.120909
O6	O	1.294020	0.191777	0.120901
O7	O	1.657173	0.175024	0.120906
Cu8	Cu	1.475595	0.183401	0.142981
Cu9	Cu	1.475613	0.183401	-0.142958
O10	O	1.467220	0.364977	0.120898
C11	C	1.247528	0.190558	0.000008
C12	C	1.108974	0.186911	0.000007
C13	C	1.482762	-0.044675	0.000015
C14	C	1.479114	-0.183229	0.000010
C15	C	1.033991	0.293198	0.000002
C16	C	0.890788	0.289431	0.000001
C17	C	1.585401	-0.258212	0.000009
C18	C	1.581634	-0.401415	0.000004
C19	C	1.703680	0.176243	0.000011
C20	C	1.842234	0.179891	0.000003
C21	C	1.468447	0.411477	0.000004
C22	C	1.472094	0.550031	-0.000000
N23	N	1.475592	0.183399	0.344095
N24	N	1.475626	0.183393	-0.344072
C25	C	1.555347	0.103292	0.416295
C26	C	1.555367	0.103288	0.583707
H27	H	1.075814	0.386984	0.000008
H28	H	1.381099	-0.385544	0.000010
H29	H	1.407345	0.251984	0.593848
C30	C	0.803754	0.412356	-0.000003
H31	H	0.718924	0.393698	0.000006
H32	H	0.819322	0.459606	-0.084318
H33	H	0.819310	0.459597	0.084325
H34	H	1.385328	-0.225051	-0.000001
H35	H	0.906659	0.088896	-0.000003
C36	C	1.052495	0.060206	0.000011
H37	H	1.118108	-0.005989	0.000023
H38	H	1.002276	0.054214	-0.084303
H39	H	1.002273	0.054216	0.084340
C40	C	1.712103	-0.201726	0.000016
H41	H	1.698013	-0.112887	0.000029
H42	H	1.758239	-0.228713	-0.084297
H43	H	1.758218	-0.228720	0.084345
C44	C	1.647572	0.010641	0.332381
H45	H	1.635465	0.022804	0.230869
H46	H	1.633100	-0.072727	0.357261
H47	H	1.731059	0.024706	0.357231
C48	C	1.383344	0.276033	0.428002
H49	H	1.333293	0.326282	0.360994
H50	H	1.428869	0.328206	0.487382
H51	H	1.330933	0.230749	0.487376
H52	H	1.623653	0.034709	0.645796
H53	H	1.672624	-0.465848	0.000010
