data_functionalizedCrystal
_audit_creation_method	'MofGen! by Chris Wilmer'
_symmetry_space_group_name_H-M	'P1'
_symmetry_Int_Tables_number	1
_symmetry_cell_setting	triclinic
loop_
_symmetry_equiv_pos_as_xyz
  x,y,z
_cell_length_a	6.817900
_cell_length_b	17.982968
_cell_length_c	17.982783
_cell_angle_alpha	95.926085
_cell_angle_beta	102.448572
_cell_angle_gamma	102.451960
loop_
_atom_site_label
_atom_site_type_symbol
_atom_site_fract_x
_atom_site_fract_y
_atom_site_fract_z
V1	V	-4.009918	-0.237867	-0.106127
O2	O	-4.003034	-0.233013	0.004365
O3	O	-3.956470	-0.236553	-0.209725
O4	O	-3.956489	-0.341466	-0.104816
O5	O	-4.003015	-0.127374	-0.101269
V6	V	-4.494852	-0.224613	-0.092872
O7	O	-4.268082	-0.266940	-0.135201
O8	O	-4.686885	-0.195540	-0.063798
O9	O	-4.325093	-0.225927	0.010726
O10	O	-4.619133	-0.229466	-0.203364
O11	O	-4.619152	-0.335106	-0.097730
O12	O	-4.325074	-0.121014	-0.094183
C13	C	-3.800406	-0.232881	-0.234970
C14	C	-3.837959	-0.232498	-0.319665
C15	C	-3.819323	-0.162514	-0.348365
C16	C	-3.854628	-0.162156	-0.427945
C17	C	-3.908554	-0.231782	-0.478825
C18	C	-3.927196	-0.301772	-0.450120
C19	C	-3.891906	-0.302129	-0.370541
C20	C	-4.069522	-0.300333	-0.771054
C21	C	-4.104806	-0.299970	-0.850638
C22	C	-4.032244	-0.160359	-0.828458
C23	C	-3.996953	-0.160716	-0.748879
C24	C	-4.015609	-0.230705	-0.720182
C25	C	-3.977331	-0.231093	-0.633891
C26	C	-3.946818	-0.231396	-0.565113
C27	C	-3.800429	-0.366707	-0.101148
C28	C	-3.837995	-0.451402	-0.100762
C29	C	-4.037378	-0.495085	-0.104398
C30	C	-4.072664	-0.574664	-0.104036
C31	C	-3.908566	-0.610561	-0.100041
C32	C	-3.709166	-0.566872	-0.096402
C33	C	-3.673880	-0.487293	-0.096760
C34	C	-3.851463	-0.887805	-0.094959
C35	C	-3.886766	-0.967390	-0.094604
C36	C	-4.250247	-0.975176	-0.102235
C37	C	-4.214961	-0.895597	-0.102593
C38	C	-4.015563	-0.851915	-0.098949
C39	C	-3.977304	-0.765625	-0.099342
C40	C	-3.946825	-0.696849	-0.099655
C41	C	-4.144500	-0.229596	0.035967
C42	C	-4.086185	-0.229985	0.120661
C43	C	-4.144477	-0.095769	-0.097854
C44	C	-4.086149	-0.011073	-0.098236
H45	H	-3.907104	-0.359118	-0.347176
H46	H	-4.171013	-0.465865	-0.107656
H47	H	-4.412608	-1.010752	-0.105199
O48	O	-3.761139	-0.087412	-0.293492
H49	H	-3.879195	-0.087085	-0.259606
H50	H	-3.575555	-0.596104	-0.093146
H51	H	-3.511515	-0.451724	-0.093780
H52	H	-3.839456	-0.105168	-0.451308
H53	H	-3.971120	-0.358464	-0.491553
O54	O	-4.012125	-0.084868	-0.859413
H55	H	-4.123818	-0.054306	-0.841724
H56	H	-4.235015	-0.610227	-0.106992
H57	H	-4.348592	-0.866375	-0.105849
O58	O	-3.636416	-0.840695	-0.091041
H59	H	-3.528251	-0.879030	-0.088214
H60	H	-3.953034	-0.104019	-0.707455
O61	O	-4.089610	-0.375816	-0.740104
H62	H	-4.133008	-0.424168	-0.788855
O63	O	-3.709960	-1.006168	-0.090656
H64	H	-3.565442	-0.962444	-0.088308
H65	H	-4.148719	-0.356672	-0.892063
