data_functionalizedCrystal
_audit_creation_method	'MofGen! by Chris Wilmer'
_symmetry_space_group_name_H-M	'P1'
_symmetry_Int_Tables_number	1
_symmetry_cell_setting	triclinic
loop_
_symmetry_equiv_pos_as_xyz
  x,y,z
_cell_length_a	21.395362
_cell_length_b	18.101395
_cell_length_c	18.101389
_cell_angle_alpha	89.983159
_cell_angle_beta	89.961604
_cell_angle_gamma	90.046983
loop_
_atom_site_label
_atom_site_type_symbol
_atom_site_fract_x
_atom_site_fract_y
_atom_site_fract_z
Zn1	Zn	0.957823	-0.294593	-0.419125
Zn2	Zn	1.291157	0.038740	-0.085792
Zn3	Zn	1.624490	0.372073	0.247542
Zn4	Zn	0.957735	-0.418419	-0.295287
Zn5	Zn	1.291069	-0.085086	0.038047
Zn6	Zn	1.624402	0.248248	0.371380
Zn7	Zn	0.853049	-0.294630	-0.295256
Zn8	Zn	1.186382	0.038703	0.038078
Zn9	Zn	1.519715	0.372036	0.371411
Zn10	Zn	0.853007	-0.418432	-0.419045
Zn11	Zn	1.186340	-0.085099	-0.085712
Zn12	Zn	1.519674	0.248235	0.247622
O13	O	0.905404	-0.356519	-0.357178
O14	O	1.238737	-0.023185	-0.023845
O15	O	1.572070	0.310148	0.309489
O16	O	1.045490	-0.310998	-0.402744
O17	O	1.378823	0.022335	-0.069411
O18	O	1.712156	0.355668	0.263923
O19	O	0.943829	-0.402008	-0.191650
O20	O	1.277162	-0.068675	0.141684
O21	O	1.610496	0.264658	0.475017
O22	O	0.867001	-0.190992	-0.311708
O23	O	1.200335	0.142341	0.021626
O24	O	1.533668	0.475674	0.354959
O25	O	1.045425	-0.401973	-0.311761
O26	O	1.378758	-0.068639	0.021573
O27	O	1.712092	0.264694	0.354906
O28	O	0.943979	-0.190965	-0.402714
O29	O	1.277312	0.142368	-0.069381
O30	O	1.610646	0.475701	0.263953
O31	O	0.866916	-0.311061	-0.191627
O32	O	1.200249	0.022272	0.141706
O33	O	1.533583	0.355605	0.475040
O34	O	0.765365	-0.311074	-0.311630
O35	O	1.098698	0.022260	0.021703
O36	O	1.432032	0.355593	0.355037
O37	O	0.866930	-0.401994	-0.522689
O38	O	1.200264	-0.068661	-0.189355
O39	O	1.533597	0.264672	0.143978
O40	O	0.765334	-0.402030	-0.402578
O41	O	1.098668	-0.068697	-0.069244
O42	O	1.432001	0.264636	0.264089
O43	O	0.943939	-0.311011	-0.522747
O44	O	1.277272	0.022323	-0.189414
O45	O	1.610605	0.355656	0.143919
O46	O	0.943789	-0.522054	-0.311683
O47	O	1.277122	-0.188720	0.021650
O48	O	1.610455	0.144613	0.354984
O49	O	0.866845	-0.522063	-0.402608
O50	O	1.200178	-0.188730	-0.069274
O51	O	1.533512	0.144603	0.264059
C52	C	0.742616	-0.356558	-0.357092
C53	C	1.075949	-0.023225	-0.023759
C54	C	1.409283	0.310109	0.309574
C55	C	0.672975	-0.356592	-0.357073
C56	C	1.006308	-0.023259	-0.023740
C57	C	1.339641	0.310074	0.309594
C58	C	0.905320	-0.548929	-0.357156
C59	C	1.238653	-0.215596	-0.023823
C60	C	1.571986	0.117737	0.309510
C61	C	0.905341	-0.631243	-0.357172
C62	C	1.238675	-0.297910	-0.023838
C63	C	1.572008	0.035423	0.309495
C64	C	0.640262	-0.404016	-0.404358
C65	C	0.973595	-0.070683	-0.071025
C66	C	1.306929	0.262650	0.262308
C67	C	0.574827	-0.403998	-0.404391
C68	C	0.908160	-0.070665	-0.071058
C69	C	1.241493	0.262669	0.262275
C70	C	0.542106	-0.356564	-0.357126
C71	C	0.875440	-0.023231	-0.023792
C72	C	1.208773	0.310103	0.309541
C73	C	0.574827	-0.309131	-0.309837
C74	C	0.908160	0.024202	0.023496
C75	C	1.241494	0.357536	0.356830
C76	C	0.640261	-0.309145	-0.309811
C77	C	0.973594	0.024188	0.023523
C78	C	1.306928	0.357522	0.356856
C79	C	0.438387	-0.350599	-0.290456
C80	C	0.771720	-0.017266	0.042877
C81	C	1.105054	0.316067	0.376211
C82	C	0.372954	-0.350590	-0.290481
C83	C	0.706287	-0.017257	0.042852
C84	C	1.039621	0.316076	0.376186
C85	C	0.340286	-0.356516	-0.357208
C86	C	0.673619	-0.023182	-0.023874
C87	C	1.006952	0.310151	0.309459
C88	C	0.373058	-0.362466	-0.423911
C89	C	0.706391	-0.029132	-0.090578
C90	C	1.039725	0.304201	0.242756
C91	C	0.438492	-0.362480	-0.423884
C92	C	0.771826	-0.029147	-0.090551
C93	C	1.105159	0.304187	0.242782
C94	C	0.471154	-0.356543	-0.357149
C95	C	0.804487	-0.023210	-0.023816
C96	C	1.137821	0.310124	0.309517
C97	C	0.236620	-0.403922	-0.404533
C98	C	0.569954	-0.070589	-0.071199
C99	C	0.903287	0.262744	0.262134
C100	C	0.171184	-0.403899	-0.404567
C101	C	0.504517	-0.070566	-0.071234
C102	C	0.837851	0.262768	0.262100
C103	C	0.171185	-0.309036	-0.310006
C104	C	0.504519	0.024298	0.023327
C105	C	0.837852	0.357631	0.356661
C106	C	0.236621	-0.309055	-0.309978
C107	C	0.569954	0.024278	0.023355
C108	C	0.903287	0.357612	0.356688
C109	C	0.269334	-0.356502	-0.357241
C110	C	0.602668	-0.023169	-0.023907
C111	C	0.936001	0.310164	0.309426
C112	C	0.905479	-0.930334	-0.357212
C113	C	1.238812	-0.597001	-0.023878
C114	C	1.572145	-0.263668	0.309455
C115	C	0.857180	-0.899046	-0.414561
C116	C	1.190513	-0.565712	-0.081228
C117	C	1.523847	-0.232379	0.252106
C118	C	0.856951	-0.813428	-0.414382
C119	C	1.190284	-0.480095	-0.081048
C120	C	1.523617	-0.146761	0.252285
C121	C	0.905410	-0.781952	-0.357193
C122	C	1.238744	-0.448618	-0.023859
C123	C	1.572077	-0.115285	0.309474
C124	C	0.887534	-0.813095	-0.279136
C125	C	1.220868	-0.479761	0.054197
C126	C	1.554201	-0.146428	0.387531
C127	C	0.887223	-0.898740	-0.279479
C128	C	1.220556	-0.565407	0.053854
C129	C	1.553890	-0.232073	0.387188
C130	C	0.971759	-0.898660	-0.377232
C131	C	1.305092	-0.565327	-0.043899
C132	C	1.638426	-0.231993	0.289435
C133	C	0.971369	-0.813009	-0.378943
C134	C	1.304703	-0.479676	-0.045610
C135	C	1.638036	-0.146343	0.287723
C136	C	0.905373	-0.698092	-0.357177
C137	C	1.238706	-0.364759	-0.023844
C138	C	1.572040	-0.031426	0.309490
C139	C	0.905515	-1.014194	-0.357222
C140	C	1.238848	-0.680860	-0.023889
C141	C	1.572181	-0.347527	0.309445
C142	C	1.068827	-0.356480	-0.357265
C143	C	1.402160	-0.023147	-0.023931
C144	C	1.735494	0.310187	0.309402
C145	C	1.138468	-0.356463	-0.357302
C146	C	1.471802	-0.023130	-0.023968
C147	C	1.805135	0.310203	0.309365
C148	C	0.905440	-0.356500	-0.550340
C149	C	1.238773	-0.023167	-0.217007
C150	C	1.572106	0.310167	0.116327
C151	C	0.905455	-0.356492	-0.632654
C152	C	1.238789	-0.023159	-0.299321
C153	C	1.572122	0.310175	0.034012
C154	C	0.905505	-0.163357	-0.357216
C155	C	1.238838	0.169977	-0.023883
C156	C	1.572171	0.503310	0.309450
C157	C	0.905548	-0.081043	-0.357232
C158	C	1.238881	0.252291	-0.023899
C159	C	1.572215	0.585624	0.309434
C160	C	0.905492	-0.356353	-0.931745
C161	C	1.238825	-0.023020	-0.598412
C162	C	1.572158	0.310314	-0.265079
C163	C	0.856873	-0.413416	-0.900383
C164	C	1.190207	-0.080082	-0.567050
C165	C	1.523540	0.253251	-0.233716
C166	C	0.857005	-0.413680	-0.814765
C167	C	1.190338	-0.080347	-0.481432
C168	C	1.523671	0.252986	-0.148098
C169	C	0.905473	-0.356422	-0.783363
C170	C	1.238806	-0.023089	-0.450029
C171	C	1.572140	0.310245	-0.116696
C172	C	0.971486	-0.377584	-0.814488
C173	C	1.304819	-0.044251	-0.481155
C174	C	1.638153	0.289082	-0.147822
C175	C	0.971215	-0.377959	-0.900133
C176	C	1.304548	-0.044626	-0.566800
C177	C	1.637882	0.288708	-0.233466
C178	C	0.888671	-0.278001	-0.900163
C179	C	1.222005	0.055332	-0.566829
C180	C	1.555338	0.388666	-0.233496
C181	C	0.887202	-0.278454	-0.814511
C182	C	1.220536	0.054879	-0.481178
C183	C	1.553869	0.388212	-0.147845
C184	C	0.905467	-0.356460	-0.699503
C185	C	1.238800	-0.023126	-0.366170
C186	C	1.572133	0.310207	-0.032837
C187	C	0.905503	-0.356317	-1.015605
C188	C	1.238836	-0.022984	-0.682272
C189	C	1.572169	0.310349	-0.348938
C190	C	0.905404	-0.356484	-0.164768
C191	C	1.238737	-0.023151	0.168566
C192	C	1.572070	0.310183	0.501899
C193	C	0.905510	-0.356283	-0.082454
C194	C	1.238843	-0.022950	0.250879
C195	C	1.572176	0.310383	0.584213
H196	H	0.666893	-0.442651	-0.442844
H197	H	1.000227	-0.109317	-0.109511
H198	H	1.333560	0.224016	0.223822
Cl199	Cl	0.781065	-0.393182	-0.932136
Cl200	Cl	1.114398	-0.059848	-0.598803
Cl201	Cl	1.447731	0.273485	-0.265469
Cl202	Cl	0.781099	-0.781912	-0.393907
Cl203	Cl	1.114432	-0.448578	-0.060574
Cl204	Cl	1.447765	-0.115245	0.272760
H205	H	0.984850	-0.792652	-0.436389
H206	H	1.318183	-0.459319	-0.103056
H207	H	1.651517	-0.125986	0.230278
Cl208	Cl	0.331997	-0.369911	-0.507802
Cl209	Cl	0.665330	-0.036577	-0.174469
Cl210	Cl	0.998663	0.296756	0.158865
Cl211	Cl	1.029870	-0.779916	-0.319162
Cl212	Cl	1.363204	-0.446582	0.014171
Cl213	Cl	1.696537	-0.113249	0.347505
Cl214	Cl	0.815642	-0.248228	-0.933463
Cl215	Cl	1.148975	0.085106	-0.600130
Cl216	Cl	1.482309	0.418439	-0.266797
H217	H	0.838772	-0.918796	-0.262523
H218	H	1.172106	-0.585462	0.070810
H219	H	1.505439	-0.252129	0.404144
H220	H	1.008683	-0.337328	-0.794152
H221	H	1.342016	-0.003994	-0.460819
H222	H	1.675350	0.329339	-0.127485
Cl223	Cl	0.277748	-0.249435	-0.250528
Cl224	Cl	0.611081	0.083898	0.082805
Cl225	Cl	0.944414	0.417232	0.416139
Cl226	Cl	1.029004	-0.316534	-0.932173
Cl227	Cl	1.362338	0.016799	-0.598840
Cl228	Cl	1.695671	0.350133	-0.265507
Cl229	Cl	0.781428	-0.393235	-0.782266
Cl230	Cl	1.114762	-0.059902	-0.448933
Cl231	Cl	1.448095	0.273431	-0.115600
Cl232	Cl	0.993885	-0.465074	-0.781395
Cl233	Cl	1.327218	-0.131741	-0.448062
Cl234	Cl	1.660551	0.201593	-0.114729
Cl235	Cl	0.874215	-0.780914	-0.503741
Cl236	Cl	1.207548	-0.447580	-0.170407
Cl237	Cl	1.540882	-0.114247	0.162926
Cl238	Cl	0.813521	-0.780104	-0.252487
Cl239	Cl	1.146854	-0.446771	0.080846
Cl240	Cl	1.480187	-0.113438	0.414179
H241	H	1.007743	-0.918890	-0.335463
H242	H	1.341077	-0.585557	-0.002129
H243	H	1.674410	-0.252224	0.331204
H244	H	0.867868	-0.471139	-0.921913
H245	H	1.201201	-0.137805	-0.588580
H246	H	1.534535	0.195528	-0.255247
H247	H	0.666895	-0.270525	-0.271305
H248	H	1.000229	0.062809	0.062028
H249	H	1.333562	0.396142	0.395362
Cl250	Cl	0.939171	-0.930700	-0.211251
Cl251	Cl	1.272505	-0.597367	0.122083
Cl252	Cl	1.605838	-0.264034	0.455416
Cl253	Cl	0.996922	-0.931934	-0.463616
Cl254	Cl	1.330255	-0.598600	-0.130282
Cl255	Cl	1.663589	-0.265267	0.203051
Cl256	Cl	0.874271	-0.930783	-0.504212
Cl257	Cl	1.207605	-0.597450	-0.170878
Cl258	Cl	1.540938	-0.264117	0.162455
H259	H	0.808350	-0.920646	-0.401464
H260	H	1.141683	-0.587313	-0.068131
H261	H	1.475017	-0.253979	0.265202
H262	H	0.985475	-0.435235	-0.920122
H263	H	1.318808	-0.101901	-0.586789
H264	H	1.652141	0.231432	-0.253456
H265	H	0.921606	-0.792705	-0.235240
H266	H	1.254939	-0.459372	0.098093
H267	H	1.588273	-0.126039	0.431427
H268	H	0.924083	-0.235487	-0.920448
H269	H	1.257416	0.097846	-0.587114
H270	H	1.590749	0.431180	-0.253781
H271	H	0.868110	-0.471758	-0.794287
H272	H	1.201443	-0.138424	-0.460954
H273	H	1.534776	0.194909	-0.127621
H274	H	0.263257	-0.442553	-0.443020
H275	H	0.596591	-0.109220	-0.109687
H276	H	0.929924	0.224114	0.223646
Cl277	Cl	0.812195	-0.253816	-0.783108
Cl278	Cl	1.145529	0.079518	-0.449775
Cl279	Cl	1.478862	0.412851	-0.116441
H280	H	0.548187	-0.442616	-0.442900
H281	H	0.881520	-0.109283	-0.109566
H282	H	1.214853	0.224051	0.223767
Cl283	Cl	0.479690	-0.369955	-0.507736
Cl284	Cl	0.813023	-0.036621	-0.174403
Cl285	Cl	1.146357	0.296712	0.158931
H286	H	0.144550	-0.442516	-0.443077
H287	H	0.477884	-0.109182	-0.109744
H288	H	0.811217	0.224151	0.223590
Cl289	Cl	0.130058	-0.249399	-0.250590
Cl290	Cl	0.463391	0.083935	0.082743
Cl291	Cl	0.796724	0.417268	0.416077
H292	H	0.346276	-0.345750	-0.236167
H293	H	0.679609	-0.012417	0.097166
H294	H	1.012942	0.320917	0.430499
Cl295	Cl	0.937892	-0.209332	-0.781521
Cl296	Cl	1.271226	0.124002	-0.448188
Cl297	Cl	1.604559	0.457335	-0.114855
Cl298	Cl	0.479449	-0.343152	-0.206563
Cl299	Cl	0.812782	-0.009819	0.126771
Cl300	Cl	1.146116	0.323514	0.460104
Cl301	Cl	0.533694	-0.249496	-0.250421
Cl302	Cl	0.867027	0.083838	0.082912
Cl303	Cl	1.200361	0.417171	0.416246
