data_functionalizedCrystal
_audit_creation_method	'MofGen! by Chris Wilmer'
_symmetry_space_group_name_H-M	'P1'
_symmetry_Int_Tables_number	1
_symmetry_cell_setting	triclinic
loop_
_symmetry_equiv_pos_as_xyz
  x,y,z
_cell_length_a	19.288840
_cell_length_b	16.109298
_cell_length_c	18.366186
_cell_angle_alpha	89.999156
_cell_angle_beta	89.983729
_cell_angle_gamma	83.293103
loop_
_atom_site_label
_atom_site_type_symbol
_atom_site_fract_x
_atom_site_fract_y
_atom_site_fract_z
O1	O	0.921610	0.103617	-0.060663
O2	O	1.171610	0.353617	0.189337
O3	O	1.421610	0.603617	0.439337
O4	O	1.671610	0.853617	0.689337
O5	O	0.719380	0.117630	-0.060636
O6	O	0.969380	0.367630	0.189364
O7	O	1.219380	0.617630	0.439364
O8	O	1.469380	0.867630	0.689364
O9	O	0.826052	-0.010428	-0.060655
O10	O	1.076052	0.239572	0.189345
O11	O	1.326052	0.489572	0.439345
O12	O	1.576052	0.739572	0.689345
O13	O	0.814939	0.231674	-0.060644
O14	O	1.064939	0.481674	0.189356
O15	O	1.314939	0.731674	0.439356
O16	O	1.564939	0.981674	0.689356
O17	O	0.826034	-0.010434	0.060444
O18	O	1.076034	0.239566	0.310444
O19	O	1.326034	0.489566	0.560444
O20	O	1.576034	0.739566	0.810444
O21	O	0.719362	0.117623	0.060463
O22	O	0.969362	0.367623	0.310463
O23	O	1.219362	0.617623	0.560463
O24	O	1.469362	0.867623	0.810463
O25	O	0.921592	0.103611	0.060437
O26	O	1.171592	0.353611	0.310437
O27	O	1.421592	0.603611	0.560437
O28	O	1.671592	0.853611	0.810437
Zn29	Zn	0.820474	0.110616	0.079677
Zn30	Zn	1.070474	0.360616	0.329677
Zn31	Zn	1.320474	0.610616	0.579677
Zn32	Zn	1.570474	0.860616	0.829677
Zn33	Zn	0.820498	0.110624	-0.079877
Zn34	Zn	1.070498	0.360624	0.170123
Zn35	Zn	1.320498	0.610624	0.420123
Zn36	Zn	1.570498	0.860624	0.670123
O37	O	0.814921	0.231668	0.060456
O38	O	1.064921	0.481668	0.310456
O39	O	1.314921	0.731668	0.560456
O40	O	1.564921	0.981668	0.810456
C41	C	0.693494	0.117179	-0.000083
C42	C	0.943494	0.367179	0.249917
C43	C	1.193494	0.617179	0.499917
C44	C	1.443494	0.867179	0.749917
C45	C	0.616386	0.115836	-0.000074
C46	C	0.866386	0.365836	0.249926
C47	C	1.116386	0.615836	0.499926
C48	C	1.366386	0.865836	0.749926
C49	C	0.580191	0.115194	-0.066087
C50	C	0.830191	0.365194	0.183913
C51	C	1.080191	0.615194	0.433913
C52	C	1.330191	0.865194	0.683913
C53	C	0.507741	0.113923	-0.066096
C54	C	0.757741	0.363923	0.183904
C55	C	1.007741	0.613923	0.433904
C56	C	1.257741	0.863923	0.683904
C57	C	0.471491	0.113277	-0.000088
C58	C	0.721491	0.363277	0.249912
C59	C	0.971491	0.613277	0.499912
C60	C	1.221491	0.863277	0.749912
C61	C	0.507694	0.113924	0.065934
C62	C	0.757694	0.363924	0.315934
C63	C	1.007694	0.613924	0.565934
C64	C	1.257694	0.863924	0.815934
C65	C	0.580142	0.115203	0.065941
C66	C	0.830142	0.365203	0.315941
C67	C	1.080142	0.615203	0.565941
C68	C	1.330142	0.865203	0.815941
C69	C	0.362035	0.062549	0.050471
C70	C	0.612035	0.312549	0.300471
C71	C	0.862035	0.562549	0.550471
C72	C	1.112035	0.812549	0.800471
C73	C	0.289589	0.061265	0.050461
C74	C	0.539589	0.311265	0.300461
C75	C	0.789589	0.561265	0.550461
C76	C	1.039589	0.811265	0.800461
C77	C	0.248038	0.109334	-0.000107
C78	C	0.498038	0.359334	0.249893
C79	C	0.748038	0.609334	0.499893
C80	C	0.998038	0.859334	0.749893
C81	C	0.278942	0.158677	-0.050678
C82	C	0.528942	0.408677	0.199322
C83	C	0.778942	0.658677	0.449322
C84	C	1.028942	0.908677	0.699322
C85	C	0.351390	0.159957	-0.050671
C86	C	0.601390	0.409957	0.199329
C87	C	0.851390	0.659957	0.449329
C88	C	1.101390	0.909957	0.699329
C89	C	0.392933	0.111890	-0.000088
C90	C	0.642933	0.361890	0.249912
C91	C	0.892933	0.611890	0.499912
C92	C	1.142933	0.861890	0.749912
C93	C	0.133284	0.107315	-0.066135
C94	C	0.383284	0.357315	0.183865
C95	C	0.633284	0.607315	0.433865
C96	C	0.883284	0.857315	0.683865
C97	C	0.060832	0.106049	-0.066141
C98	C	0.310832	0.356049	0.183859
C99	C	0.560832	0.606049	0.433859
C100	C	0.810832	0.856049	0.683859
C101	C	0.060788	0.106041	0.065891
C102	C	0.310788	0.356041	0.315891
C103	C	0.560788	0.606041	0.565891
C104	C	0.810788	0.856041	0.815891
C105	C	0.133237	0.107315	0.065895
C106	C	0.383237	0.357315	0.315895
C107	C	0.633237	0.607315	0.565895
C108	C	0.883237	0.857315	0.815895
C109	C	0.169481	0.107948	-0.000120
C110	C	0.419481	0.357948	0.249880
C111	C	0.669481	0.607948	0.499880
C112	C	0.919481	0.857948	0.749880
C113	C	0.825593	-0.041404	-0.000109
C114	C	1.075593	0.208596	0.249891
C115	C	1.325593	0.458596	0.499891
C116	C	1.575593	0.708596	0.749891
C117	C	0.824245	-0.133695	-0.000117
C118	C	1.074245	0.116305	0.249883
C119	C	1.324245	0.366305	0.499883
C120	C	1.574245	0.616305	0.749883
C121	C	0.819854	-0.432745	-0.066112
C122	C	1.069854	-0.182745	0.183888
C123	C	1.319854	0.067255	0.433888
C124	C	1.569854	0.317255	0.683888
C125	C	0.821130	-0.346029	-0.066118
C126	C	1.071130	-0.096029	0.183882
C127	C	1.321130	0.153971	0.433882
C128	C	1.571130	0.403971	0.683882
C129	C	0.821121	-0.346022	0.065911
C130	C	1.071121	-0.096022	0.315911
C131	C	1.321121	0.153978	0.565911
C132	C	1.571121	0.403978	0.815911
C133	C	0.819849	-0.432736	0.065916
C134	C	1.069849	-0.182736	0.315916
C135	C	1.319849	0.067264	0.565916
C136	C	1.569849	0.317264	0.815916
C137	C	0.819212	-0.476095	-0.000098
C138	C	1.069212	-0.226095	0.249902
C139	C	1.319212	0.023905	0.499902
C140	C	1.569212	0.273905	0.749902
C141	C	0.821760	-0.302665	-0.000108
C142	C	1.071760	-0.052665	0.249892
C143	C	1.321760	0.197335	0.499892
C144	C	1.571760	0.447335	0.749892
C145	C	0.823144	-0.208644	-0.000113
C146	C	1.073144	0.041356	0.249887
C147	C	1.323144	0.291356	0.499887
C148	C	1.573144	0.541356	0.749887
C149	C	0.817830	-0.570122	-0.000093
C150	C	1.067830	-0.320122	0.249907
C151	C	1.317830	-0.070122	0.499907
C152	C	1.567830	0.179878	0.749907
C153	C	0.947479	0.104061	-0.000118
C154	C	1.197479	0.354061	0.249882
C155	C	1.447479	0.604061	0.499882
C156	C	1.697479	0.854061	0.749882
C157	C	1.024587	0.105404	-0.000132
C158	C	1.274587	0.355404	0.249868
C159	C	1.524587	0.605404	0.499868
C160	C	1.774587	0.855404	0.749868
C161	C	0.815379	0.262644	-0.000093
C162	C	1.065379	0.512644	0.249907
C163	C	1.315379	0.762644	0.499907
C164	C	1.565379	1.012644	0.749907
C165	C	0.816728	0.354935	-0.000089
C166	C	1.066728	0.604935	0.249911
C167	C	1.316728	0.854935	0.499911
C168	C	1.566728	1.104935	0.749911
N169	N	0.820463	0.110610	0.188568
N170	N	1.070463	0.360610	0.438568
N171	N	1.320463	0.610610	0.688568
N172	N	1.570463	0.860610	0.938568
N173	N	0.820515	0.110624	-0.188768
N174	N	1.070515	0.360624	0.061232
N175	N	1.320515	0.610624	0.311232
N176	N	1.570515	0.860624	0.561232
C177	C	0.867713	0.053934	0.226660
C178	C	1.117713	0.303934	0.476660
C179	C	1.367713	0.553934	0.726660
C180	C	1.617713	0.803934	0.976660
C181	C	0.867717	0.053930	0.302888
C182	C	1.117717	0.303930	0.552888
C183	C	1.367717	0.553930	0.802888
C184	C	1.617717	0.803930	1.052888
C185	C	0.820479	0.110617	0.341021
C186	C	1.070479	0.360617	0.591021
C187	C	1.320479	0.610617	0.841021
C188	C	1.570479	0.860617	1.091021
C189	C	0.773220	0.167297	0.302920
C190	C	1.023220	0.417297	0.552920
C191	C	1.273220	0.667297	0.802920
C192	C	1.523220	0.917297	1.052920
C193	C	0.773212	0.167294	0.226693
C194	C	1.023212	0.417294	0.476693
C195	C	1.273212	0.667294	0.726693
C196	C	1.523212	0.917294	0.976693
C197	C	0.811360	0.186371	0.461786
C198	C	1.061360	0.436371	0.711786
C199	C	1.311360	0.686371	0.961786
C200	C	1.561360	0.936371	1.211786
C201	C	0.811373	0.186376	0.538011
C202	C	1.061373	0.436376	0.788011
C203	C	1.311373	0.686376	1.038011
C204	C	1.561373	0.936376	1.288011
C205	C	0.820498	0.110627	0.576128
C206	C	1.070498	0.360627	0.826128
C207	C	1.320498	0.610627	1.076128
C208	C	1.570498	0.860627	1.326128
C209	C	0.829626	0.034870	0.538012
C210	C	1.079626	0.284870	0.788012
C211	C	1.329626	0.534870	1.038012
C212	C	1.579626	0.784870	1.288012
C213	C	0.829618	0.034867	0.461786
C214	C	1.079618	0.284867	0.711786
C215	C	1.329618	0.534867	0.961786
C216	C	1.579618	0.784867	1.211786
C217	C	0.820481	0.110626	0.423676
C218	C	1.070481	0.360626	0.673676
C219	C	1.320481	0.610626	0.923676
C220	C	1.570481	0.860626	1.173676
C221	C	0.867755	0.053942	0.696875
C222	C	1.117755	0.303942	0.946875
C223	C	1.367755	0.553942	1.196875
C224	C	1.617755	0.803942	1.446875
C225	C	0.867755	0.053938	0.773104
C226	C	1.117755	0.303938	1.023104
C227	C	1.367755	0.553938	1.273104
C228	C	1.617755	0.803938	1.523104
C229	C	0.773261	0.167312	0.773135
C230	C	1.023261	0.417312	1.023135
C231	C	1.273261	0.667312	1.273135
C232	C	1.523261	0.917312	1.523135
C233	C	0.773258	0.167309	0.696907
C234	C	1.023258	0.417309	0.946907
C235	C	1.273258	0.667309	1.196907
C236	C	1.523258	0.917309	1.446907
C237	C	0.820509	0.110626	0.658782
C238	C	1.070509	0.360626	0.908782
C239	C	1.320509	0.610626	1.158782
C240	C	1.570509	0.860626	1.408782
H241	H	0.376549	0.200136	-0.091845
H242	H	0.626549	0.450136	0.158155
H243	H	0.876549	0.700136	0.408155
H244	H	1.126549	0.950136	0.658155
H245	H	0.803917	0.248059	0.430756
H246	H	1.053917	0.498059	0.680756
H247	H	1.303917	0.748059	0.930756
H248	H	1.553917	0.998059	1.180756
Br249	Br	0.818986	-0.491576	0.155514
Br250	Br	1.068986	-0.241576	0.405514
Br251	Br	1.318986	0.008424	0.655514
Br252	Br	1.568986	0.258424	0.905514
Br253	Br	0.182476	0.108180	-0.155723
Br254	Br	0.432476	0.358180	0.094277
Br255	Br	0.682476	0.608180	0.344277
Br256	Br	0.932476	0.858180	0.594277
Br257	Br	0.821982	-0.287172	0.155498
Br258	Br	1.071982	-0.037172	0.405498
Br259	Br	1.321982	0.212828	0.655498
Br260	Br	1.571982	0.462828	0.905498
H261	H	0.906185	0.007777	0.195621
H262	H	1.156185	0.257777	0.445621
H263	H	1.406185	0.507777	0.695621
H264	H	1.656185	0.757777	0.945621
H265	H	0.906195	0.007776	0.333908
H266	H	1.156195	0.257776	0.583908
H267	H	1.406195	0.507776	0.833908
H268	H	1.656195	0.757776	1.083908
H269	H	0.837056	-0.026812	0.569046
H270	H	1.087056	0.223188	0.819046
H271	H	1.337056	0.473188	1.069046
H272	H	1.587056	0.723188	1.319046
H273	H	0.821654	-0.310737	-0.119873
H274	H	1.071654	-0.060737	0.130127
H275	H	1.321654	0.189263	0.380127
H276	H	1.571654	0.439263	0.630127
Br277	Br	0.841998	-0.067940	0.410058
Br278	Br	1.091998	0.182060	0.660058
Br279	Br	1.341998	0.432060	0.910058
Br280	Br	1.591998	0.682060	1.160058
H281	H	0.906228	0.007784	0.665832
H282	H	1.156228	0.257784	0.915832
H283	H	1.406228	0.507784	1.165832
H284	H	1.656228	0.757784	1.415832
H285	H	0.609611	0.115727	0.119698
H286	H	0.859611	0.365727	0.369698
H287	H	1.109611	0.615727	0.619698
H288	H	1.359611	0.865727	0.869698
Br289	Br	0.931878	-0.022993	0.824805
Br290	Br	1.181878	0.227007	1.074805
Br291	Br	1.431878	0.477007	1.324805
Br292	Br	1.681878	0.727007	1.574805
H293	H	0.734796	0.213464	0.804182
H294	H	0.984796	0.463464	1.054182
H295	H	1.234796	0.713464	1.304182
H296	H	1.484796	0.963464	1.554182
Br297	Br	0.709133	0.244233	0.645205
Br298	Br	0.959133	0.494233	0.895205
Br299	Br	1.209133	0.744233	1.145205
Br300	Br	1.459133	0.994233	1.395205
Br301	Br	0.798994	0.289187	0.589732
Br302	Br	1.048994	0.539187	0.839732
Br303	Br	1.298994	0.789187	1.089732
Br304	Br	1.548994	1.039187	1.339732
H305	H	0.245112	0.197824	-0.091853
H306	H	0.495112	0.447824	0.158147
H307	H	0.745112	0.697824	0.408147
H308	H	0.995112	0.947824	0.658147
Br309	Br	0.709082	0.244216	0.174993
Br310	Br	0.959082	0.494216	0.424993
Br311	Br	1.209082	0.744216	0.674993
Br312	Br	1.459082	0.994216	0.924993
H313	H	0.031363	0.105531	-0.119899
H314	H	0.281363	0.355531	0.130101
H315	H	0.531363	0.605531	0.380101
H316	H	0.781363	0.855531	0.630101
H317	H	0.734756	0.213451	0.333971
H318	H	0.984756	0.463451	0.583971
H319	H	1.234756	0.713451	0.833971
H320	H	1.484756	0.963451	1.083971
H321	H	0.609696	0.115710	-0.119841
H322	H	0.859696	0.365710	0.130159
H323	H	1.109696	0.615710	0.380159
H324	H	1.359696	0.865710	0.630159
H325	H	0.478265	0.113402	-0.119853
H326	H	0.728265	0.363402	0.130147
H327	H	0.978265	0.613402	0.380147
H328	H	1.228265	0.863402	0.630147
Br329	Br	0.418419	-0.002690	0.119108
Br330	Br	0.668419	0.247310	0.369108
Br331	Br	0.918419	0.497310	0.619108
Br332	Br	1.168419	0.747310	0.869108
H333	H	0.031273	0.105520	0.119636
H334	H	0.281273	0.355520	0.369636
H335	H	0.531273	0.605520	0.619636
H336	H	0.781273	0.855520	0.869636
Br337	Br	0.818991	-0.491586	-0.155702
Br338	Br	1.068991	-0.241586	0.094298
Br339	Br	1.318991	0.008414	0.344298
Br340	Br	1.568991	0.258414	0.594298
H341	H	0.162708	0.107833	0.119650
H342	H	0.412708	0.357833	0.369650
H343	H	0.662708	0.607833	0.619650
H344	H	0.912708	0.857833	0.869650
H345	H	0.478174	0.113399	0.119678
H346	H	0.728174	0.363399	0.369678
H347	H	0.978174	0.613399	0.619678
H348	H	1.228174	0.863399	0.869678
Br349	Br	0.247652	-0.005680	0.119106
Br350	Br	0.497652	0.244320	0.369106
Br351	Br	0.747652	0.494320	0.619106
Br352	Br	0.997652	0.744320	0.869106
