data_functionalizedCrystal
_audit_creation_method	'MofGen! by Chris Wilmer'
_symmetry_space_group_name_H-M	'P1'
_symmetry_Int_Tables_number	1
_symmetry_cell_setting	triclinic
loop_
_symmetry_equiv_pos_as_xyz
  x,y,z
_cell_length_a	14.971486
_cell_length_b	11.792254
_cell_length_c	13.448316
_cell_angle_alpha	89.993237
_cell_angle_beta	89.998199
_cell_angle_gamma	83.906363
loop_
_atom_site_label
_atom_site_type_symbol
_atom_site_fract_x
_atom_site_fract_y
_atom_site_fract_z
O1	O	1.187545	0.147909	-0.082578
O2	O	1.687545	0.647909	0.417422
O3	O	0.927217	0.165621	-0.082605
O4	O	1.427217	0.665621	0.417395
O5	O	1.063693	-0.008446	-0.082584
O6	O	1.563693	0.491554	0.417416
O7	O	1.051069	0.321975	-0.082599
O8	O	1.551069	0.821975	0.417401
O9	O	1.063675	-0.008456	0.082800
O10	O	1.563675	0.491544	0.582800
O11	O	0.927199	0.165610	0.082779
O12	O	1.427199	0.665610	0.582779
O13	O	1.187528	0.147898	0.082806
O14	O	1.687528	0.647898	0.582806
Cu15	Cu	1.057362	0.156753	0.097893
Cu16	Cu	1.557362	0.656753	0.597893
Cu17	Cu	1.057383	0.156766	-0.097692
Cu18	Cu	1.557383	0.656766	0.402308
O19	O	1.051052	0.321964	0.082785
O20	O	1.551052	0.821964	0.582785
C21	C	0.893880	0.164823	0.000083
C22	C	1.393880	0.664823	0.500083
C23	C	0.794574	0.162450	0.000073
C24	C	1.294574	0.662450	0.500073
C25	C	0.737762	0.264709	0.000070
C26	C	1.237762	0.764709	0.500070
C27	C	0.644453	0.262472	0.000085
C28	C	1.144453	0.762472	0.500085
C29	C	0.607958	0.157974	0.000096
C30	C	1.107958	0.657974	0.500096
C31	C	0.664778	0.055707	0.000102
C32	C	1.164778	0.555707	0.500102
C33	C	0.758084	0.057945	0.000095
C34	C	1.258084	0.557945	0.500095
C35	C	0.470296	0.051049	0.000116
C36	C	0.970296	0.551049	0.500116
C37	C	0.376983	0.048810	0.000122
C38	C	0.876983	0.548810	0.500122
C39	C	0.356665	0.255575	0.000107
C40	C	0.856665	0.755575	0.500107
C41	C	0.449972	0.257814	0.000099
C42	C	0.949972	0.757814	0.500099
C43	C	0.506785	0.155546	0.000103
C44	C	1.006785	0.655546	0.500103
C45	C	1.062889	-0.050737	0.000108
C46	C	1.562889	0.449263	0.500108
C47	C	1.060509	-0.176734	0.000107
C48	C	1.560509	0.323266	0.500107
C49	C	1.058575	-0.279058	0.000103
C50	C	1.558575	0.220942	0.500103
C51	C	1.056157	-0.407429	0.000093
C52	C	1.556157	0.092571	0.500093
C53	C	1.220865	0.148695	0.000115
C54	C	1.720865	0.648695	0.500115
C55	C	1.320171	0.151069	0.000119
C56	C	1.820171	0.651069	0.500119
C57	C	1.051856	0.364255	0.000091
C58	C	1.551856	0.864255	0.500091
C59	C	1.054236	0.490253	0.000086
C60	C	1.554236	0.990253	0.500086
N61	N	1.057354	0.156743	0.235458
N62	N	1.557354	0.656743	0.735458
N63	N	1.057398	0.156766	-0.235257
N64	N	1.557398	0.656766	0.264743
C65	C	1.117805	0.079698	0.287507
C66	C	1.617805	0.579698	0.787507
C67	C	1.117810	0.079697	0.391611
C68	C	1.617810	0.579697	0.891611
C69	C	1.057369	0.156748	0.443662
C70	C	1.557369	0.656748	0.943662
C71	C	0.996912	0.233796	0.391605
C72	C	1.496912	0.733796	0.891605
C73	C	0.996903	0.233791	0.287504
C74	C	1.496903	0.733791	0.787504
C75	C	0.996937	0.233804	0.608585
C76	C	1.496937	0.733804	1.108585
C77	C	0.996947	0.233811	0.712694
C78	C	1.496947	0.733811	1.212694
C79	C	1.117844	0.079711	0.712692
C80	C	1.617844	0.579711	1.212692
C81	C	1.117835	0.079705	0.608591
C82	C	1.617835	0.579705	1.108591
C83	C	1.057379	0.156755	0.556541
C84	C	1.557379	0.656755	1.056541
H85	H	0.598200	0.345742	0.000081
H86	H	1.098200	0.845742	0.500081
H87	H	1.167069	0.016974	0.755077
H88	H	1.667069	0.516974	1.255077
Br89	Br	0.499500	0.399633	0.000069
Br90	Br	0.999500	0.899633	0.500069
Br91	Br	0.914916	0.338384	0.783328
Br92	Br	1.414916	0.838384	1.283328
Br93	Br	0.279563	0.394368	0.000099
Br94	Br	0.779563	0.894368	0.500099
Br95	Br	1.199844	-0.024868	0.216877
Br96	Br	1.699844	0.475132	0.716877
Br97	Br	0.914883	0.338369	0.537949
Br98	Br	1.414883	0.838369	1.037949
Br99	Br	0.787280	0.406535	0.000045
Br100	Br	1.287280	0.906535	0.500045
Br101	Br	0.835188	-0.080841	0.000108
Br102	Br	1.335188	0.419159	0.500108
H103	H	0.635056	-0.029377	0.000126
H104	H	1.135056	0.470623	0.500126
Br105	Br	1.199870	-0.024853	0.537946
Br106	Br	1.699870	0.475147	1.037946
H107	H	0.516551	-0.032229	0.000121
H108	H	1.016551	0.467771	0.500121
Br109	Br	0.914876	0.338359	0.462242
Br110	Br	1.414876	0.838359	0.962242
Br111	Br	0.914853	0.338349	0.216864
Br112	Br	1.414853	0.838349	0.716864
H113	H	0.347273	-0.036281	0.000133
H114	H	0.847273	0.463719	0.500133
Br115	Br	1.199848	-0.024869	0.462253
Br116	Br	1.699848	0.475131	0.962253
