data_functionalizedCrystal
_audit_creation_method	'MofGen! by Chris Wilmer'
_symmetry_space_group_name_H-M	'P1'
_symmetry_Int_Tables_number	1
_symmetry_cell_setting	triclinic
loop_
_symmetry_equiv_pos_as_xyz
  x,y,z
_cell_length_a	16.120297
_cell_length_b	19.805407
_cell_length_c	19.805405
_cell_angle_alpha	89.977440
_cell_angle_beta	92.868750
_cell_angle_gamma	87.122111
loop_
_atom_site_label
_atom_site_type_symbol
_atom_site_fract_x
_atom_site_fract_y
_atom_site_fract_z
Zn1	Zn	-0.471377	-1.015337	-0.288954
Zn2	Zn	-0.331959	-1.020989	-0.396403
Zn3	Zn	-0.331980	-0.907888	-0.283226
Zn4	Zn	-0.471323	-0.902117	-0.402096
O5	O	-0.401660	-0.961583	-0.342670
O6	O	-0.452897	-1.110802	-0.303221
O7	O	-0.215300	-1.010767	-0.376610
O8	O	-0.350503	-0.922191	-0.189271
O9	O	-0.350467	-1.114955	-0.382164
O10	O	-0.452918	-1.001133	-0.193479
O11	O	-0.215315	-0.927672	-0.293459
O12	O	-0.350450	-0.812407	-0.298980
O13	O	-0.587993	-0.912355	-0.391868
O14	O	-0.452825	-0.808167	-0.386314
O15	O	-0.588033	-0.995537	-0.308742
O16	O	-0.350415	-1.005171	-0.491873
O17	O	-0.452805	-0.917836	-0.496056
C18	C	-0.401634	-0.785728	-0.342644
C19	C	-0.401643	-0.710495	-0.342650
C20	C	-0.455059	-0.672986	-0.301624
C21	C	-0.455060	-0.602298	-0.301626
C22	C	-0.401649	-0.569120	-0.342658
C23	C	-0.348228	-0.606634	-0.383686
C24	C	-0.348223	-0.677321	-0.383680
C25	C	-0.348245	-0.321560	-0.383711
C26	C	-0.348256	-0.250867	-0.383716
C27	C	-0.455081	-0.246536	-0.301658
C28	C	-0.455077	-0.317224	-0.301651
C29	C	-0.401653	-0.354732	-0.342676
C30	C	-0.401651	-0.431381	-0.342672
C31	C	-0.401654	-0.492472	-0.342666
C32	C	-0.619108	-0.952672	-0.351579
C33	C	-0.711771	-0.948875	-0.355375
C34	C	-0.881428	-0.941917	-0.362292
C35	C	-0.922744	-0.981382	-0.322845
C36	C	-1.017147	-0.977511	-0.326693
C37	C	-0.787016	-0.945787	-0.358444
C38	C	-0.185058	-0.970498	-0.333746
C39	C	-0.092395	-0.974426	-0.329759
C40	C	-0.401620	-0.961508	-0.518524
C41	C	-0.401630	-0.961537	-0.593757
C42	C	-0.401679	-0.138125	-0.342691
C43	C	-0.401667	-0.213357	-0.342686
C44	C	-0.348372	-1.007052	-0.626902
C45	C	-0.348390	-1.007080	-0.697592
C46	C	-0.401664	-0.961589	-0.735133
C47	C	-0.454928	-0.916072	-0.701983
C48	C	-0.454913	-0.916048	-0.631295
C49	C	-0.454990	-0.916169	-0.987059
C50	C	-0.454999	-0.916196	-1.057751
C51	C	-0.348467	-1.007202	-1.053355
C52	C	-0.348452	-1.007177	-0.982667
C53	C	-0.401719	-0.961663	-0.949523
C54	C	-0.401700	-0.961634	-0.872874
C55	C	-0.401679	-0.961614	-0.811781
C56	C	-0.401719	-0.961675	-0.166129
C57	C	-0.401744	-0.961715	-0.090898
H58	H	-0.498579	-0.215989	-0.268251
H59	H	-0.304726	-0.707861	-0.417087
H60	H	-0.304736	-0.579615	-0.417092
O61	O	-0.506933	-0.349558	-0.261855
C62	C	-0.495459	-0.419992	-0.270635
H63	H	-0.468039	-0.430749	-0.321711
H64	H	-0.451151	-0.441873	-0.228615
C65	C	-0.613499	-0.439631	-0.205258
C66	C	-0.579827	-0.452843	-0.267993
H67	H	-0.665540	-0.459896	-0.203625
H68	H	-0.621228	-0.392178	-0.199340
H69	H	-0.576567	-0.457866	-0.170248
H70	H	-0.616754	-0.434601	-0.303001
H71	H	-0.572107	-0.500294	-0.273917
O72	O	-0.506533	-0.871805	-0.599018
C73	C	-0.459015	-0.830040	-0.556242
H74	H	-0.395861	-0.856534	-0.543067
H75	H	-0.449805	-0.780273	-0.583147
C76	C	-0.582429	-0.783313	-0.507152
C77	C	-0.504864	-0.815857	-0.490965
H78	H	-0.610712	-0.774561	-0.466887
H79	H	-0.614444	-0.811449	-0.535972
H80	H	-0.574743	-0.741844	-0.529574
H81	H	-0.512552	-0.857328	-0.468552
H82	H	-0.472852	-0.787727	-0.462140
O83	O	-0.506876	-0.872075	-1.094195
C84	C	-0.589978	-0.883397	-1.080278
H85	H	-0.594239	-0.937285	-1.060978
H86	H	-0.611729	-0.846189	-1.040161
C87	C	-0.640383	-0.807048	-1.169047
C88	C	-0.645617	-0.873236	-1.145347
H89	H	-0.674705	-0.800777	-1.209183
H90	H	-0.584396	-0.799418	-1.178422
H91	H	-0.658507	-0.776049	-1.135610
H92	H	-0.627483	-0.904233	-1.178780
H93	H	-0.701603	-0.880871	-1.135979
O94	O	-0.880238	-1.025135	-0.279157
C95	C	-0.794078	-1.019296	-0.284977
H96	H	-0.782269	-0.997584	-0.336740
H97	H	-0.769370	-0.984256	-0.243842
C98	C	-0.763795	-1.116244	-0.213400
C99	C	-0.749291	-1.089583	-0.276979
H100	H	-0.736167	-1.159600	-0.208464
H101	H	-0.821843	-1.120177	-0.209477
H102	H	-0.743205	-1.087038	-0.179128
H103	H	-0.769891	-1.118785	-0.311249
H104	H	-0.691245	-1.085657	-0.280908
O105	O	-0.506719	-0.871975	-0.738526
C106	C	-0.560630	-0.908280	-0.781565
H107	H	-0.531288	-0.960799	-0.790924
H108	H	-0.622415	-0.913134	-0.756828
C109	C	-0.611731	-0.805930	-0.837854
C110	C	-0.575689	-0.870433	-0.849354
H111	H	-0.621024	-0.782583	-0.879669
H112	H	-0.575413	-0.781469	-0.808857
H113	H	-0.663214	-0.809984	-0.817239
H114	H	-0.524202	-0.866378	-0.869962
H115	H	-0.611999	-0.894892	-0.878357
H116	H	-0.916953	-0.905226	-0.398951
H117	H	-0.304987	-1.044093	-0.596340
O118	O	-0.296573	-1.051316	-0.729681
C119	C	-0.249560	-1.091470	-0.681388
H120	H	-0.246634	-1.063848	-0.630903
H121	H	-0.280142	-1.141601	-0.675072
C122	C	-0.164443	-1.138850	-0.767373
C123	C	-0.160843	-1.104922	-0.705367
H124	H	-0.109719	-1.147151	-0.782164
H125	H	-0.196118	-1.111800	-0.799909
H126	H	-0.189932	-1.180622	-0.762101
H127	H	-0.135364	-1.063147	-0.710642
H128	H	-0.129161	-1.131965	-0.672832
O129	O	-0.296676	-1.051432	-0.946304
C130	C	-0.249657	-1.091602	-0.990717
H131	H	-0.283816	-1.092540	-1.042492
H132	H	-0.186313	-1.069458	-0.995679
C133	C	-0.195769	-1.162974	-0.898999
C134	C	-0.237726	-1.164131	-0.962589
H135	H	-0.188405	-1.207712	-0.881648
H136	H	-0.227444	-1.135910	-0.869076
H137	H	-0.142986	-1.144517	-0.903143
H138	H	-0.290511	-1.182579	-0.958443
H139	H	-0.206060	-1.191200	-0.992511
H140	H	-0.304759	-0.223856	-0.417131
H141	H	-0.498554	-0.699994	-0.268212
O142	O	-0.296819	-1.051406	-1.085661
C143	C	-0.308246	-1.041673	-1.156102
H144	H	-0.372555	-1.016820	-1.168383
H145	H	-0.258750	-1.007711	-1.174189
C146	C	-0.221736	-1.141018	-1.176940
C147	C	-0.300723	-1.110497	-1.192025
H148	H	-0.217091	-1.183470	-1.199101
H149	H	-0.214034	-1.147574	-1.129483
H150	H	-0.180498	-1.112709	-1.192014
H151	H	-0.341958	-1.138801	-1.176944
H152	H	-0.308431	-1.103947	-1.239481
H153	H	-0.498557	-0.571761	-0.268220
H154	H	-0.304745	-0.352091	-0.417117
H155	H	-0.498360	-0.879109	-0.960078
