data_functionalizedCrystal
_audit_creation_method	'MofGen! by Chris Wilmer'
_symmetry_space_group_name_H-M	'P1'
_symmetry_Int_Tables_number	1
_symmetry_cell_setting	triclinic
loop_
_symmetry_equiv_pos_as_xyz
  x,y,z
_cell_length_a	17.038272
_cell_length_b	17.019234
_cell_length_c	12.996460
_cell_angle_alpha	86.112554
_cell_angle_beta	90.000198
_cell_angle_gamma	87.240293
loop_
_atom_site_label
_atom_site_type_symbol
_atom_site_fract_x
_atom_site_fract_y
_atom_site_fract_z
O1	O	1.037209	0.171290	-0.100622
O2	O	1.537209	0.671290	0.399378
O3	O	0.809581	0.168570	-0.100411
O4	O	1.309581	0.668570	0.399589
O5	O	0.929753	0.055522	-0.090368
O6	O	1.429753	0.555522	0.409632
O7	O	0.917037	0.284338	-0.110665
O8	O	1.417037	0.784338	0.389335
O9	O	0.929741	0.055515	0.080767
O10	O	1.429741	0.555515	0.580767
O11	O	0.809569	0.168563	0.070723
O12	O	1.309569	0.668563	0.570723
O13	O	1.037197	0.171283	0.070513
O14	O	1.537197	0.671283	0.570513
Cu15	Cu	0.923382	0.169922	0.086244
Cu16	Cu	1.423382	0.669922	0.586244
Cu17	Cu	0.923396	0.169931	-0.116142
Cu18	Cu	1.423396	0.669931	0.383858
O19	O	0.917025	0.284331	0.060469
O20	O	1.417025	0.784331	0.560469
C21	C	0.780449	0.166093	-0.014628
C22	C	1.280449	0.666093	0.485372
C23	C	0.693663	0.158712	-0.013986
C24	C	1.193663	0.658712	0.486014
C25	C	0.929268	0.026097	-0.002193
C26	C	1.429268	0.526097	0.497807
C27	C	0.927829	-0.061572	0.005577
C28	C	1.427829	0.438428	0.505577
C29	C	0.919622	-0.557403	0.054155
C30	C	1.419622	-0.057403	0.554155
C31	C	0.920981	-0.475030	0.046860
C32	C	1.420981	0.024970	0.546860
C33	C	0.921673	-0.433831	-0.050076
C34	C	1.421673	0.066169	0.449924
C35	C	0.920998	-0.475009	-0.139722
C36	C	1.420998	0.024991	0.360278
C37	C	0.919634	-0.557380	-0.132425
C38	C	1.419634	-0.057380	0.367575
C39	C	0.925789	-0.185121	-0.076773
C40	C	1.425789	0.314879	0.423227
C41	C	0.927157	-0.102744	-0.084063
C42	C	1.427157	0.397256	0.415937
C43	C	0.927137	-0.102771	0.102520
C44	C	1.427137	0.397229	0.602520
C45	C	0.925777	-0.185144	0.109807
C46	C	1.425777	0.314856	0.609807
C47	C	0.925099	-0.226315	0.020162
C48	C	1.425099	0.273685	0.520162
C49	C	0.923065	-0.349632	-0.057535
C50	C	1.423065	0.150368	0.442465
C51	C	0.923701	-0.310511	0.027622
C52	C	1.423701	0.189489	0.527622
C53	C	0.643486	0.226473	-0.019996
C54	C	1.143486	0.726473	0.480004
C55	C	0.561942	0.219534	-0.019366
C56	C	1.061942	0.719534	0.480634
C57	C	0.530576	0.144833	-0.012733
C58	C	1.030576	0.644833	0.487267
C59	C	0.580760	0.077067	-0.006720
C60	C	1.080760	0.577067	0.493280
C61	C	0.662302	0.084007	-0.007342
C62	C	1.162302	0.584007	0.492658
C63	C	0.284841	0.120315	-0.010531
C64	C	0.784841	0.620315	0.489469
C65	C	0.203292	0.113380	-0.009912
C66	C	0.703292	0.613380	0.490088
C67	C	0.184480	0.255848	-0.022556
C68	C	0.684480	0.755848	0.477444
C69	C	0.266025	0.262781	-0.023184
C70	C	0.766025	0.762781	0.476816
C71	C	0.316201	0.195015	-0.017165
C72	C	0.816201	0.695015	0.482835
C73	C	0.447225	0.137738	-0.012093
C74	C	0.947225	0.637738	0.487907
C75	C	0.399551	0.202111	-0.017799
C76	C	0.899551	0.702111	0.482201
C77	C	1.066329	0.173760	-0.015272
C78	C	1.566329	0.673760	0.484728
C79	C	1.153115	0.181141	-0.015922
C80	C	1.653115	0.681141	0.484078
C81	C	0.917511	0.313756	-0.027708
C82	C	1.417511	0.813756	0.472292
C83	C	0.918949	0.401425	-0.035484
C84	C	1.418949	0.901425	0.464516
N85	N	0.923377	0.169916	0.228592
N86	N	1.423377	0.669916	0.728592
N87	N	0.923407	0.169931	-0.258490
N88	N	1.423407	0.669931	0.241510
C89	C	0.923395	0.169932	0.648404
C90	C	1.423395	0.669932	1.148404
C91	C	0.923388	0.169930	0.531600
C92	C	1.423388	0.669930	1.031600
C93	C	0.923387	0.169924	0.438502
C94	C	1.423387	0.669924	0.938502
C95	C	0.923378	0.169921	0.321689
C96	C	1.423378	0.669921	0.821689
H97	H	0.919061	-0.590941	0.133090
H98	H	1.419061	-0.090941	0.633090
F99	F	0.923833	-0.305780	-0.160698
F100	F	1.423833	0.194220	0.339302
F101	F	0.338232	0.048191	-0.004125
F102	F	0.838232	0.548191	0.495875
H103	H	0.669017	0.287303	-0.025397
H104	H	1.169017	0.787303	0.474603
H105	H	0.521091	0.274713	-0.024261
H106	H	1.021091	0.774713	0.475739
F107	F	0.299400	0.342288	-0.030249
F108	F	0.799400	0.842288	0.469751
H109	H	0.425092	0.262932	-0.023193
H110	H	0.925092	0.762932	0.476807
H111	H	0.143618	0.311019	-0.027455
H112	H	0.643618	0.811019	0.472545
F113	F	0.169913	0.033869	-0.002834
F114	F	0.669913	0.533869	0.497166
H115	H	0.421678	0.076916	-0.006663
H116	H	0.921678	0.576916	0.493337
F117	F	0.547376	-0.002436	0.000346
F118	F	1.047376	0.497564	0.500346
H119	H	0.703156	0.028828	-0.002449
H120	H	1.203156	0.528828	0.497551
H121	H	0.925217	-0.218683	0.188743
H122	H	1.425217	0.281317	0.688743
F123	F	0.922959	-0.354359	0.130784
F124	F	1.422959	0.145641	0.630784
F125	F	0.927857	-0.058948	0.197920
F126	F	1.427857	0.441052	0.697920
F127	F	0.927895	-0.058899	-0.187239
F128	F	1.427895	0.441101	0.312761
F129	F	0.921683	-0.431214	0.142267
F130	F	1.421683	0.068786	0.642267
H131	H	0.921558	-0.441458	-0.218649
H132	H	1.421558	0.058542	0.281351
F133	F	0.918914	-0.601198	-0.227832
F134	F	1.418914	-0.101198	0.272168
F135	F	0.925073	-0.228928	-0.172183
F136	F	1.425073	0.271072	0.327817
