data_functionalizedCrystal
_audit_creation_method	'MofGen! by Chris Wilmer'
_symmetry_space_group_name_H-M	'P1'
_symmetry_Int_Tables_number	1
_symmetry_cell_setting	triclinic
loop_
_symmetry_equiv_pos_as_xyz
  x,y,z
_cell_length_a	18.050591
_cell_length_b	21.295417
_cell_length_c	18.050591
_cell_angle_alpha	90.009154
_cell_angle_beta	90.008268
_cell_angle_gamma	90.026512
loop_
_atom_site_label
_atom_site_type_symbol
_atom_site_fract_x
_atom_site_fract_y
_atom_site_fract_z
Zn1	Zn	1.135188	-0.250826	0.420010
Zn2	Zn	1.635188	0.249174	0.920010
Zn3	Zn	1.135121	-0.356055	0.295811
Zn4	Zn	1.635121	0.143945	0.795811
Zn5	Zn	1.011035	-0.250796	0.295821
Zn6	Zn	1.511035	0.249204	0.795821
Zn7	Zn	1.010950	-0.356054	0.419946
Zn8	Zn	1.510950	0.143946	0.919946
O9	O	1.073073	-0.303432	0.357897
O10	O	1.573073	0.196568	0.857897
O11	O	1.239104	-0.264797	0.403557
O12	O	1.739104	0.235203	0.903557
O13	O	1.118668	-0.342080	0.191887
O14	O	1.618668	0.157920	0.691887
O15	O	1.027567	-0.162710	0.312326
O16	O	1.527567	0.337290	0.812326
O17	O	1.239055	-0.342109	0.312308
O18	O	1.739055	0.157891	0.812308
O19	O	1.118782	-0.162732	0.403567
O20	O	1.618782	0.337268	0.903567
O21	O	1.027502	-0.264747	0.191895
O22	O	1.527502	0.235253	0.691895
O23	O	0.907099	-0.264746	0.312264
O24	O	1.407099	0.235254	0.812264
O25	O	1.027423	-0.342107	0.523879
O26	O	1.527423	0.157893	1.023879
O27	O	0.907037	-0.342078	0.403458
O28	O	1.407037	0.157922	0.903458
O29	O	1.118700	-0.264796	0.523926
O30	O	1.618700	0.235204	1.023926
O31	O	1.118586	-0.444144	0.312246
O32	O	1.618586	0.055856	0.812246
O33	O	1.027358	-0.444143	0.403448
O34	O	1.527358	0.055857	0.903448
C35	C	0.880121	-0.303409	0.357856
C36	C	1.380121	0.196591	0.857856
C37	C	0.797576	-0.303414	0.357856
C38	C	1.297576	0.196586	0.857856
C39	C	0.598137	-0.261312	0.308378
C40	C	1.098137	0.238688	0.808378
C41	C	0.548719	-0.318722	0.290097
C42	C	1.048719	0.181278	0.790097
C43	C	0.646445	-0.303433	0.357889
C44	C	1.146445	0.196567	0.857889
C45	C	0.548782	-0.246043	0.376168
C46	C	1.048782	0.253957	0.876168
C47	C	0.500460	-0.303447	0.357920
C48	C	1.000460	0.196553	0.857920
C49	C	0.598114	-0.360873	0.339573
C50	C	1.098114	0.139127	0.839573
C51	C	0.598182	-0.288156	0.425675
C52	C	1.098182	0.211844	0.925675
C53	C	0.548785	-0.345605	0.407420
C54	C	1.048785	0.154395	0.907420
C55	C	0.730543	-0.303425	0.357869
C56	C	1.230543	0.196575	0.857869
C57	C	0.416364	-0.303462	0.357940
C58	C	0.916364	0.196538	0.857940
C59	C	1.072976	-0.466984	0.357856
C60	C	1.572976	0.033016	0.857856
C61	C	1.073002	-0.536952	0.357863
C62	C	1.573002	-0.036952	0.857863
C63	C	1.120547	-0.569798	0.310423
C64	C	1.620547	-0.069798	0.810423
C65	C	1.120582	-0.635541	0.310439
C66	C	1.620582	-0.135541	0.810439
C67	C	1.073059	-0.668435	0.357888
C68	C	1.573059	-0.168435	0.857888
C69	C	1.025511	-0.635581	0.405338
C70	C	1.525511	-0.135581	0.905338
C71	C	1.025483	-0.569839	0.405325
C72	C	1.525483	-0.069839	0.905325
N73	N	1.008090	-0.771698	0.363536
N74	N	1.508090	-0.271698	0.863536
N75	N	1.008119	-0.834150	0.363544
N76	N	1.508119	-0.334150	0.863544
C77	C	1.073142	-0.866509	0.357931
C78	C	1.573142	-0.366509	0.857931
N79	N	1.138136	-0.834058	0.352295
N80	N	1.638136	-0.334058	0.852295
N81	N	1.138106	-0.771601	0.352284
N82	N	1.638106	-0.271601	0.852284
C83	C	1.073084	-0.739720	0.357908
C84	C	1.573084	-0.239720	0.857908
C85	C	1.120728	-0.970641	0.310506
C86	C	1.620728	-0.470641	0.810506
C87	C	1.120764	-1.036385	0.310528
C88	C	1.620764	-0.536385	0.810528
C89	C	1.025687	-1.036423	0.405423
C90	C	1.525687	-0.536423	0.905423
C91	C	1.025657	-0.970681	0.405405
C92	C	1.525657	-0.470681	0.905405
C93	C	1.073177	-0.937794	0.357943
C94	C	1.573177	-0.437794	0.857943
C95	C	1.266779	-0.303456	0.357938
C96	C	1.766779	0.196544	0.857938
C97	C	1.349325	-0.303467	0.357956
C98	C	1.849325	0.196533	0.857956
C99	C	1.073060	-0.303455	0.551602
C100	C	1.573060	0.196545	1.051602
C101	C	1.073054	-0.303465	0.634148
C102	C	1.573054	0.196535	1.134148
C103	C	1.073191	-0.139242	0.357954
C104	C	1.573191	0.360758	0.857954
C105	C	1.073242	-0.069274	0.357979
C106	C	1.573242	0.430726	0.857979
C107	C	1.023411	-0.345501	0.833573
C108	C	1.523411	0.154499	1.333573
C109	C	1.091155	-0.360905	0.882970
C110	C	1.591155	0.139095	1.382970
C111	C	1.073057	-0.303456	0.785278
C112	C	1.573057	0.196544	1.285278
C113	C	1.005318	-0.288072	0.882963
C114	C	1.505318	0.211928	1.382963
C115	C	1.073054	-0.303449	0.931263
C116	C	1.573054	0.196551	1.431263
C117	C	1.140836	-0.318890	0.833588
C118	C	1.640836	0.181110	1.333588
C119	C	1.054954	-0.246031	0.833577
C120	C	1.554954	0.253969	1.333577
C121	C	1.122744	-0.261413	0.882951
C122	C	1.622744	0.238587	1.382951
C123	C	1.073058	-0.303462	0.701180
C124	C	1.573058	0.196538	1.201180
C125	C	1.073061	-0.303443	1.015360
C126	C	1.573061	0.196557	1.515360
C127	C	1.073074	-0.303430	1.164945
C128	C	1.573074	0.196570	1.664945
C129	C	1.073059	-0.303438	1.082399
C130	C	1.573059	0.196562	1.582399
H131	H	0.619925	-0.275206	0.482970
H132	H	1.119925	0.224794	0.982970
H133	H	0.526993	-0.331654	0.232785
H134	H	1.026993	0.168346	0.732785
H135	H	0.986939	-0.943936	0.444032
H136	H	1.486939	-0.443936	0.944032
C137	C	0.627264	-0.426466	0.318609
C138	C	1.127264	0.073534	0.818609
N139	N	0.649222	-0.475869	0.302815
N140	N	1.149222	0.024131	0.802815
H141	H	1.159242	-0.543023	0.271778
H142	H	1.659242	-0.043023	0.771778
C143	C	0.519687	-0.393790	0.463998
C144	C	1.019687	0.106210	0.963998
N145	N	0.497768	-0.430084	0.506609
N146	N	0.997768	0.069916	1.006609
C147	C	1.173011	-0.934463	0.258309
C148	C	1.673011	-0.434463	0.758309
N149	N	1.212394	-0.907215	0.218995
N150	N	1.712394	-0.407215	0.718995
H151	H	0.986819	-0.662367	0.443972
H152	H	1.486819	-0.162367	0.943972
H153	H	0.527073	-0.197510	0.391590
H154	H	1.027073	0.302490	0.891590
C155	C	1.173069	-1.072515	0.258337
C156	C	1.673069	-0.572515	0.758337
N157	N	1.212465	-1.099729	0.219024
N158	N	1.712465	-0.599729	0.719024
H159	H	1.159301	-0.662289	0.271808
H160	H	1.659301	-0.162289	0.771808
H161	H	1.198138	-0.331953	0.811991
H162	H	1.698138	0.168047	1.311991
C163	C	0.973187	-0.533707	0.457524
C164	C	1.473187	-0.033707	0.957524
N165	N	0.933800	-0.506492	0.496845
N166	N	1.433800	-0.006492	0.996845
H167	H	0.981481	-0.381087	0.811893
H168	H	1.481481	0.118913	1.311893
H169	H	0.986996	-1.063205	0.444060
H170	H	1.486996	-0.563205	0.944060
C171	C	1.111844	-0.426506	0.912286
C172	C	1.611844	0.073494	1.412286
N173	N	1.127422	-0.475919	0.934364
N174	N	1.627422	0.024081	1.434364
H175	H	1.164775	-0.225854	0.904495
H176	H	1.664775	0.274146	1.404495
H177	H	1.039619	-0.197485	0.811864
H178	H	1.539619	0.302515	1.311864
H179	H	0.948033	-0.275064	0.904652
H180	H	1.448033	0.224936	1.404652
C181	C	0.627417	-0.213244	0.251754
C182	C	1.127417	0.286756	0.751754
N183	N	0.649472	-0.177043	0.209104
N184	N	1.149472	0.322957	0.709104
