data_functionalizedCrystal
_audit_creation_method	'MofGen! by Chris Wilmer'
_symmetry_space_group_name_H-M	'P1'
_symmetry_Int_Tables_number	1
_symmetry_cell_setting	triclinic
loop_
_symmetry_equiv_pos_as_xyz
  x,y,z
_cell_length_a	15.538191
_cell_length_b	16.109301
_cell_length_c	15.186229
_cell_angle_alpha	89.998295
_cell_angle_beta	90.005650
_cell_angle_gamma	114.633213
loop_
_atom_site_label
_atom_site_type_symbol
_atom_site_fract_x
_atom_site_fract_y
_atom_site_fract_z
O1	O	1.249997	0.270061	0.073231
O2	O	1.749997	0.770061	0.573231
O3	O	0.975709	0.174053	0.073233
O4	O	1.475709	0.674053	0.573233
O5	O	1.120388	0.345360	0.073223
O6	O	1.620388	0.845360	0.573223
O7	O	1.105318	0.098754	0.073241
O8	O	1.605318	0.598754	0.573241
O9	O	1.120371	0.345348	-0.073234
O10	O	1.620371	0.845348	0.426766
O11	O	0.975692	0.174041	-0.073224
O12	O	1.475692	0.674041	0.426776
O13	O	1.249980	0.270049	-0.073226
O14	O	1.749980	0.770049	0.426774
Zn15	Zn	1.112833	0.222043	-0.096479
Zn16	Zn	1.612833	0.722043	0.403521
Zn17	Zn	1.112856	0.222059	0.096485
Zn18	Zn	1.612856	0.722059	0.596485
O19	O	1.105301	0.098742	-0.073216
O20	O	1.605301	0.598742	0.426784
C21	C	0.940602	0.164002	0.000005
C22	C	1.440602	0.664002	0.500005
C23	C	0.836019	0.134081	0.000005
C24	C	1.336019	0.634081	0.500005
C25	C	1.119769	0.376145	-0.000006
C26	C	1.619769	0.876145	0.499994
C27	C	1.117939	0.467888	-0.000007
C28	C	1.617939	0.967888	0.499993
N29	N	1.112825	0.222034	-0.228171
N30	N	1.612825	0.722034	0.271829
C31	C	0.548320	0.431335	-0.000003
C32	C	1.048320	0.931335	0.499997
C33	C	0.450045	0.403199	-0.000000
C34	C	0.950045	0.903199	0.500000
C35	C	0.427554	0.244941	0.000011
C36	C	0.927554	0.744941	0.500011
C37	C	0.525828	0.273063	0.000004
C38	C	1.025828	0.773063	0.500004
C39	C	0.586204	0.366262	-0.000002
C40	C	1.086204	0.866262	0.499998
C41	C	0.563712	0.207990	0.000005
C42	C	1.063712	0.707990	0.500005
C43	C	0.661978	0.236111	0.000003
C44	C	1.161978	0.736111	0.500003
C45	C	0.722360	0.329305	-0.000000
C46	C	1.222360	0.829305	0.500000
C47	C	0.684470	0.394382	-0.000004
C48	C	1.184470	0.894382	0.499996
C49	C	0.503335	0.114793	0.000018
C50	C	1.003335	0.614793	0.500018
C51	C	0.541219	0.049719	0.000019
C52	C	1.041219	0.549719	0.500019
C53	C	0.639487	0.077840	0.000010
C54	C	1.139487	0.577840	0.500010
C55	C	0.699869	0.171034	0.000007
C56	C	1.199869	0.671034	0.500007
C57	C	0.677377	0.012763	0.000014
C58	C	1.177377	0.512763	0.500014
C59	C	0.775643	0.040883	0.000011
C60	C	1.275643	0.540883	0.500011
C61	C	0.798135	0.199155	0.000004
C62	C	1.298135	0.699155	0.500004
C63	C	1.285087	0.280100	0.000004
C64	C	1.785087	0.780100	0.500004
C65	C	1.389670	0.310020	0.000009
C66	C	1.889670	0.810020	0.500009
C67	C	1.105920	0.067957	0.000015
C68	C	1.605920	0.567957	0.500015
C69	C	1.107750	-0.023786	0.000022
C70	C	1.607750	0.476214	0.500022
C71	C	1.199533	0.714764	0.000006
C72	C	1.699533	1.214764	0.500006
C73	C	1.197806	0.800964	0.000013
C74	C	1.697806	1.300964	0.500013
C75	C	1.026149	0.729329	0.000011
C76	C	1.526149	1.229329	0.500011
C77	C	1.027877	0.643131	0.000010
C78	C	1.527877	1.143131	0.500010
C79	C	1.114572	0.635852	0.000003
C80	C	1.614572	1.135852	0.500003
C81	C	1.111117	0.808250	0.000011
C82	C	1.611117	1.308250	0.500011
C83	C	1.109244	0.901711	0.000019
C84	C	1.609244	1.401711	0.500019
C85	C	1.116446	0.542385	-0.000003
C86	C	1.616446	1.042385	0.499997
C87	C	1.169962	0.188835	-0.453890
C88	C	1.669962	0.688835	0.046110
C89	C	1.169972	0.188844	-0.546080
C90	C	1.669972	0.688844	-0.046080
C91	C	1.055732	0.255281	-0.546096
C92	C	1.555732	0.755281	-0.046096
C93	C	1.055728	0.255277	-0.453908
C94	C	1.555728	0.755277	0.046092
C95	C	1.112841	0.222049	-0.407808
C96	C	1.612841	0.722049	0.092192
C97	C	1.112856	0.222062	-0.592185
C98	C	1.612856	0.722062	-0.092185
C99	C	1.112866	0.222072	-0.692142
C100	C	1.612866	0.722072	-0.192142
C101	C	1.112832	0.222040	-0.307845
C102	C	1.612832	0.722040	0.192155
N103	N	1.112872	0.222076	0.228178
N104	N	1.612872	0.722076	0.728178
H105	H	0.847297	0.275046	-0.000006
H106	H	1.347297	0.775046	0.499994
H107	H	0.423321	0.091900	0.000022
H108	H	0.923321	0.591900	0.500022
H109	H	0.419205	0.456196	0.000000
H110	H	0.919205	0.956196	0.500000
H111	H	1.009212	0.282328	-0.416387
H112	H	1.509212	0.782328	0.083613
H113	H	1.216487	0.161799	-0.583597
H114	H	1.716487	0.661799	-0.083597
C115	C	0.992904	0.291817	-0.596810
C116	C	1.492904	0.791817	-0.096810
H117	H	1.001079	0.287054	-0.658314
H118	H	1.501079	0.787054	-0.158314
H119	H	1.010421	0.353982	-0.581702
H120	H	1.510421	0.853982	-0.081702
H121	H	0.928439	0.256938	-0.581707
H122	H	1.428439	0.756938	-0.081707
C123	C	0.934415	0.556322	0.000004
C124	C	1.434415	1.056322	0.500004
H125	H	0.882536	0.573001	-0.000004
H126	H	1.382536	1.073001	0.499996
H127	H	0.931527	0.521207	0.051076
H128	H	1.431527	1.021207	0.551076
H129	H	0.931521	0.521211	-0.051076
H130	H	1.431521	1.021211	0.448924
H131	H	0.802374	0.352199	0.000009
H132	H	1.302374	0.852199	0.500009
H133	H	0.955565	0.735267	0.000015
H134	H	1.455565	1.235267	0.500015
H135	H	0.733632	0.470273	-0.000014
H136	H	1.233632	0.970273	0.499986
H137	H	1.216467	0.161779	-0.416358
H138	H	1.716467	0.661779	0.083642
C139	C	1.294893	0.706758	0.000008
C140	C	1.794893	1.206758	0.500008
H141	H	1.345244	0.766104	0.000019
H142	H	1.845244	1.266104	0.500019
H143	H	1.299135	0.674623	-0.051064
H144	H	1.799135	1.174623	0.448936
H145	H	1.299136	0.674622	0.051088
H146	H	1.799136	1.174622	0.551088
C147	C	1.291261	0.887767	0.000020
C148	C	1.791261	1.387767	0.500020
H149	H	1.277819	0.940148	0.000032
H150	H	1.777819	1.440148	0.500032
H151	H	1.326808	0.888363	-0.051052
H152	H	1.826808	1.388363	0.448948
H153	H	1.326808	0.888349	0.051100
H154	H	1.826808	1.388349	0.551100
H155	H	0.597482	0.507226	-0.000013
H156	H	1.097482	1.007226	0.499987
H157	H	0.378383	0.169059	0.000020
H158	H	0.878383	0.669059	0.500020
H159	H	0.492048	-0.026163	0.000027
H160	H	0.992048	0.473837	0.500027
H161	H	0.628205	-0.063119	0.000027
H162	H	1.128205	0.436881	0.500027
C163	C	0.817320	-0.030694	0.000012
C164	C	1.317320	0.469306	0.500012
H165	H	0.767289	-0.090226	0.000008
H166	H	1.267289	0.409774	0.500008
H167	H	0.855193	-0.023008	0.051085
H168	H	1.355193	0.476992	0.551085
H169	H	0.855179	-0.023015	-0.051067
H170	H	1.355179	0.476985	0.448933
