data_functionalizedCrystal
_audit_creation_method	'MofGen! by Chris Wilmer'
_symmetry_space_group_name_H-M	'P1'
_symmetry_Int_Tables_number	1
_symmetry_cell_setting	triclinic
loop_
_symmetry_equiv_pos_as_xyz
  x,y,z
_cell_length_a	21.606444
_cell_length_b	23.196402
_cell_length_c	23.196401
_cell_angle_alpha	60.008822
_cell_angle_beta	90.012419
_cell_angle_gamma	60.001587
loop_
_atom_site_label
_atom_site_type_symbol
_atom_site_fract_x
_atom_site_fract_y
_atom_site_fract_z
Zr1	Zr	0.596220	0.631023	-0.075647
O2	O	0.497378	0.751286	-0.167691
O3	O	0.626518	0.510758	-0.047435
O4	O	0.626491	0.631025	-0.167700
O5	O	0.497429	0.631017	0.047446
O6	O	0.728341	0.631030	-0.167704
O7	O	0.497405	0.631018	-0.047425
O8	O	0.728390	0.415894	0.047429
O9	O	0.497380	0.846153	-0.167687
O10	O	0.715452	0.560229	-0.035401
O11	O	0.639461	0.560224	0.035403
O12	O	0.639429	0.701823	-0.106194
O13	O	0.563438	0.701819	-0.035390
Zr14	Zr	0.758698	0.631027	0.075656
Zr15	Zr	0.758659	0.631029	-0.075653
Zr16	Zr	0.596259	0.631020	0.075661
Zr17	Zr	0.596225	0.782325	-0.075641
Zr18	Zr	0.758693	0.479725	0.075649
O19	O	0.728400	0.751291	0.047443
O20	O	0.728344	0.751295	-0.167698
O21	O	0.497433	0.751282	0.047451
O22	O	0.857540	0.510764	0.167699
O23	O	0.857485	0.510768	-0.047443
O24	O	0.626574	0.510755	0.167707
O25	O	0.857489	0.631033	-0.047438
O26	O	0.728427	0.631024	0.167709
O27	O	0.626577	0.631020	0.167712
O28	O	0.857513	0.631031	0.047434
O29	O	0.626497	0.846158	-0.167691
O30	O	0.728421	0.415892	0.167699
O31	O	0.857538	0.415897	0.167695
O32	O	0.857507	0.415899	0.047425
O33	O	0.497411	0.846151	-0.047416
O34	O	0.626528	0.846156	-0.047421
O35	O	0.715489	0.560226	0.106202
O36	O	0.791480	0.560231	0.035398
O37	O	0.715457	0.701825	-0.035395
O38	O	0.639466	0.701821	0.035409
C39	C	0.677453	0.441769	-0.000004
C40	C	0.677452	0.377537	-0.000007
C41	C	0.717113	0.347369	-0.036968
C42	C	0.717120	0.287008	-0.036963
C43	C	0.677451	0.256829	-0.000005
C44	C	0.637788	0.287001	0.036965
C45	C	0.637788	0.347355	0.036964
C46	C	0.610992	0.194797	-0.005277
C47	C	0.610989	0.134447	-0.005281
C48	C	0.677452	0.070674	0.000002
C49	C	0.743917	0.067265	0.005276
C50	C	0.743917	0.127619	0.005275
C51	C	0.677447	0.191384	0.000001
C52	C	0.717125	-0.024946	-0.036955
C53	C	0.717135	-0.085311	-0.036944
C54	C	0.637795	-0.085311	0.036979
C55	C	0.637793	-0.024952	0.036973
C56	C	0.677456	0.005230	0.000002
C57	C	0.474273	0.631017	0.000011
C58	C	0.405314	0.631014	0.000013
C59	C	0.412598	0.557104	0.036964
C60	C	0.347801	0.557106	0.036965
C61	C	0.275720	0.631019	0.000010
C62	C	0.268437	0.704936	-0.036942
C63	C	0.333234	0.704932	-0.036938
C64	C	0.007119	0.704950	-0.036957
C65	C	-0.057679	0.704947	-0.036960
C66	C	0.021686	0.557123	0.036945
C67	C	0.086482	0.557120	0.036949
C68	C	0.079194	0.631036	0.000000
C69	C	0.149455	0.631032	0.000001
C70	C	0.205459	0.631024	0.000005
C71	C	0.880645	0.631033	-0.000003
C72	C	0.949604	0.631036	-0.000005
C73	C	0.677410	0.631028	-0.189260
C74	C	0.677394	0.631029	-0.253495
C75	C	0.677465	0.820281	0.000012
C76	C	0.677466	0.884513	0.000015
C77	C	0.637714	0.704938	-0.320621
C78	C	0.637733	0.704939	-0.380976
C79	C	0.677422	0.631027	-0.374201
C80	C	0.717110	0.557108	-0.307063
C81	C	0.717096	0.557109	-0.246710
C82	C	0.671784	0.574399	-0.441520
C83	C	0.671793	0.574401	-0.501874
C84	C	0.677470	0.631021	-0.560349
C85	C	0.683123	0.687652	-0.558469
C86	C	0.683109	0.687653	-0.498116
C87	C	0.677442	0.631017	-0.439640
C88	C	0.637809	0.704936	-0.692922
C89	C	0.637834	0.704934	-0.753276
C90	C	0.717206	0.557101	-0.679361
C91	C	0.717186	0.557105	-0.619008
C92	C	0.677484	0.631025	-0.625793
C93	C	0.677508	0.631022	0.189269
C94	C	0.677524	0.631021	0.253503
C95	C	0.880639	0.441777	-0.000011
C96	C	0.949597	0.377548	-0.000016
C97	C	0.677502	0.441766	0.189261
C98	C	0.677517	0.377533	0.253492
C99	C	0.880688	0.441774	0.189254
C100	C	0.949662	0.377544	0.253483
C101	C	0.474230	0.820276	-0.189245
C102	C	0.405256	0.884506	-0.253475
C103	C	0.474279	0.820273	0.000019
C104	C	0.405321	0.884502	0.000024
C105	C	0.677416	0.820284	-0.189252
C106	C	0.677401	0.884517	-0.253484
C107	C	0.942294	0.347384	-0.036981
C108	C	1.007081	0.287042	-0.037000
C109	C	1.079170	0.256861	-0.000049
C110	C	1.086470	0.287031	0.036917
C111	C	1.021684	0.347376	0.036931
C112	C	0.717209	0.347370	0.320619
C113	C	0.717220	0.287024	0.380977
C114	C	0.677542	0.256840	0.374208
C115	C	0.637845	0.287009	0.307074
C116	C	0.637830	0.347357	0.246717
C117	C	1.021726	0.347383	0.246687
C118	C	1.086541	0.287040	0.307032
C119	C	1.079290	0.256856	0.374172
C120	C	1.007218	0.287023	0.380967
C121	C	0.942405	0.347368	0.320623
C122	C	0.333192	0.914674	-0.246679
C123	C	0.268377	0.975036	-0.307023
C124	C	0.275628	1.005223	-0.374163
C125	C	0.347700	0.975053	-0.380958
C126	C	0.412513	0.914697	-0.320614
C127	C	0.412624	0.914672	0.036983
C128	C	0.347837	0.975030	0.036985
C129	C	0.275748	1.005214	0.000032
C130	C	0.268448	0.975041	-0.036931
C131	C	0.333234	0.914688	-0.036937
C132	C	0.717087	0.914683	-0.246692
C133	C	0.717088	0.975028	-0.307038
C134	C	0.677399	1.005211	-0.374177
C135	C	0.637712	0.975039	-0.380968
C136	C	0.637716	0.914691	-0.320622
H137	H	0.749424	-0.000373	-0.067056
C138	C	0.760738	1.008215	-0.299557
C139	C	0.804380	0.975022	-0.225705
C140	C	0.848028	1.008208	-0.218222
C141	C	0.848036	1.074587	-0.284592
C142	C	0.804392	1.107784	-0.358450
C143	C	0.760744	1.074598	-0.365933
H144	H	0.804376	0.925881	-0.176569
H145	H	0.880336	0.983633	-0.163547
H146	H	0.880347	1.099153	-0.279053
H147	H	0.804396	1.156925	-0.407586
H148	H	0.728436	1.099173	-0.420608
C149	C	0.355802	0.475809	0.077609
C150	C	0.322177	0.455492	0.137560
C151	C	0.330175	0.374194	0.178207
C152	C	0.371797	0.313215	0.158905
C153	C	0.405425	0.333531	0.098952
C154	C	0.397427	0.414828	0.058304
H155	H	0.291363	0.500634	0.151851
H156	H	0.305281	0.359155	0.222589
H157	H	0.377718	0.253034	0.188995
H158	H	0.436239	0.288389	0.084661
H159	H	0.422321	0.429867	0.013923
C160	C	0.189147	0.786240	-0.077598
C161	C	0.165316	0.847212	-0.157874
C162	C	0.086026	0.928517	-0.198536
C163	C	0.030566	0.948851	-0.158921
C164	C	0.054396	0.887877	-0.078640
C165	C	0.133687	0.806572	-0.037978
H166	H	0.206372	0.832161	-0.187204
H167	H	0.068386	0.973654	-0.257965
H168	H	-0.028129	1.009038	-0.189021
H169	H	0.013341	0.902928	-0.049311
H170	H	0.151327	0.761435	0.021451
H171	H	0.209699	0.999590	-0.301477
C172	C	0.189147	1.008238	-0.077567
C173	C	0.117891	1.074614	-0.077544
C174	C	0.038589	1.107806	-0.118174
C175	C	0.030542	1.074622	-0.158826
C176	C	0.101799	1.008242	-0.158850
C177	C	0.181102	0.975050	-0.118221
H178	H	0.123846	1.099182	-0.047450
H179	H	-0.014161	1.156945	-0.118155
H180	H	-0.028163	1.099192	-0.188902
H181	H	0.095845	0.983674	-0.188945
H182	H	0.233852	0.925911	-0.118239
C183	C	0.594155	0.008245	0.077623
C184	C	0.550519	-0.024946	0.118277
C185	C	0.506881	0.008250	0.158931
C186	C	0.506879	0.074637	0.158932
C187	C	0.550517	0.107832	0.118276
C188	C	0.594155	0.074636	0.077622
H189	H	0.550519	-0.074093	0.118278
H190	H	0.474577	-0.016324	0.189027
H191	H	0.474575	0.099210	0.189027
H192	H	0.550517	0.156979	0.118275
H193	H	0.626459	0.099210	0.047526
C194	C	0.760896	0.253840	0.454818
C195	C	0.718382	0.262145	0.506481
C196	C	0.762059	0.228962	0.580320
C197	C	0.848250	0.187472	0.602496
C198	C	0.890769	0.179165	0.550832
C199	C	0.847092	0.212348	0.476993
H200	H	0.654574	0.292860	0.490067
H201	H	0.730583	0.235112	0.618565
H202	H	0.880582	0.162908	0.657156
H203	H	0.954577	0.148450	0.567247
H204	H	0.878568	0.206198	0.438748
C205	C	0.594046	0.786247	-0.328084
C206	C	0.550399	0.867548	-0.401928
C207	C	0.506731	0.948858	-0.409390
C208	C	0.506710	0.948866	-0.343008
C209	C	0.550358	0.867562	-0.269158
C210	C	0.594027	0.786253	-0.261697
H211	H	0.550414	0.867544	-0.451073
H212	H	0.474420	1.009044	-0.464059
H213	H	0.474384	1.009056	-0.348531
H214	H	0.550344	0.867566	-0.220014
H215	H	0.626338	0.726066	-0.207028
C216	C	0.594078	0.786240	-0.454829
C217	C	0.614771	0.847236	-0.477017
C218	C	0.571114	0.928535	-0.550868
C219	C	0.506764	0.948838	-0.602531
C220	C	0.486068	0.887840	-0.580345
C221	C	0.529725	0.806541	-0.506493
H222	H	0.662409	0.832209	-0.438771
H223	H	0.586435	0.973690	-0.567292
H224	H	0.474447	1.009020	-0.657201
H225	H	0.438430	0.902867	-0.618590
H226	H	0.514404	0.761386	-0.490070
C227	C	0.355880	1.008203	0.077655
C228	C	0.397542	1.049670	0.058370
C229	C	0.405588	1.082839	0.099041
C230	C	0.371972	1.074542	0.158997
C231	C	0.330308	1.033073	0.178285
C232	C	0.322262	0.999904	0.137614
H233	H	0.422428	1.055814	0.013985
H234	H	0.436430	1.113537	0.084763
H235	H	0.377928	1.099095	0.189104
H236	H	0.305422	1.026929	0.222670
H237	H	0.291420	0.969206	0.151892
H238	H	0.605525	0.765122	-0.807935
C239	C	0.029703	0.475812	0.077594
C240	C	0.108990	0.394510	0.118237
C241	C	0.117008	0.313202	0.158881
C242	C	0.045739	0.313196	0.158884
C243	C	-0.033553	0.394501	0.118240
C244	C	-0.041571	0.475809	0.077595
H245	H	0.161752	0.394512	0.118236
H246	H	0.175706	0.253015	0.188969
H247	H	0.051675	0.253006	0.188971
H248	H	-0.086315	0.394499	0.118240
H249	H	-0.100269	0.535996	0.047508
H250	H	1.145219	0.262484	0.301487
C251	C	0.594052	1.008247	-0.454823
C252	C	0.507860	1.049748	-0.477020
C253	C	0.464196	1.082960	-0.550875
C254	C	0.506725	1.074671	-0.602534
C255	C	0.592922	1.033168	-0.580338
C256	C	0.636586	0.999956	-0.506482
H257	H	0.476373	1.055885	-0.438778
H258	H	0.400387	1.113683	-0.567306
H259	H	0.474403	1.099256	-0.657206
H260	H	0.624409	1.027030	-0.618580
H261	H	0.700395	0.969233	-0.490051
C262	C	0.689418	0.749906	-0.622769
C263	C	0.689477	0.749880	-0.689143
C264	C	0.695791	0.812118	-0.753437
C265	C	0.702046	0.874382	-0.751357
C266	C	0.701987	0.874410	-0.684981
C267	C	0.695673	0.812172	-0.620687
H268	H	0.684846	0.703787	-0.690684
H269	H	0.695834	0.812097	-0.802573
H270	H	0.706720	0.920454	-0.798951
H271	H	0.706617	0.920503	-0.683439
H272	H	0.695629	0.812193	-0.571550
H273	H	1.001122	0.262486	-0.067102
H274	H	0.327277	0.890125	-0.067031
H275	H	0.222847	1.054369	-0.423294
H276	H	0.687714	0.733763	-0.496589
H277	H	0.749426	0.496929	-0.301550
C278	C	0.760875	0.475795	-0.671899
C279	C	0.760901	0.475789	-0.738283
C280	C	0.804579	0.394481	-0.730823
C281	C	0.848231	0.313179	-0.656980
C282	C	0.848207	0.313182	-0.590591
C283	C	0.804529	0.394490	-0.598051
H284	H	0.728586	0.535976	-0.792951
H285	H	0.804597	0.394479	-0.779969
H286	H	0.880564	0.252989	-0.651458
H287	H	0.880522	0.252995	-0.535923
H288	H	0.804511	0.394492	-0.548905
H289	H	0.605396	0.890137	-0.326162
H290	H	0.749411	0.371939	-0.067070
H291	H	-0.116372	0.765140	-0.067054
C292	C	0.665535	0.512113	-0.377202
C293	C	0.598718	0.541801	-0.350576
C294	C	0.592468	0.479518	-0.286260
C295	C	0.653034	0.387547	-0.248571
C296	C	0.719856	0.357855	-0.275197
C297	C	0.726106	0.420138	-0.339513
H298	H	0.553878	0.609888	-0.378475
H299	H	0.543001	0.501499	-0.266550
H300	H	0.648408	0.341442	-0.200961
H301	H	0.764696	0.289769	-0.247297
H302	H	0.775572	0.398157	-0.359223
H303	H	0.145171	0.496932	0.067039
H304	H	0.749419	0.262440	-0.067062
H305	H	1.132071	0.207718	0.423302
H306	H	0.798035	0.124838	0.009570
C307	C	0.817033	-0.002880	0.011087
C308	C	0.817041	-0.069274	0.011093
C309	C	0.890153	-0.139417	0.016900
C310	C	0.963257	-0.143167	0.022700
C311	C	0.963252	-0.076771	0.022693
C312	C	0.890140	-0.006628	0.016887
H313	H	0.762922	-0.066500	0.006800
H314	H	0.890156	-0.188568	0.016905
H315	H	1.017379	-0.195091	0.026998
H316	H	1.017371	-0.079545	0.026986
H317	H	0.890137	0.042523	0.016882
H318	H	0.749436	-0.109878	-0.067040
H319	H	0.327298	0.765118	-0.067018
H320	H	0.605496	-0.109882	0.067071
C321	C	0.355667	1.008260	-0.454816
C322	C	0.397283	0.950184	-0.477024
C323	C	0.405247	0.983389	-0.550884
C324	C	0.371594	1.074669	-0.602537
C325	C	0.329975	1.132750	-0.580330
C326	C	0.322012	1.099545	-0.506470
H327	H	0.422197	0.882608	-0.438787
H328	H	0.436056	0.940393	-0.567323
H329	H	0.377489	1.099249	-0.657213
H330	H	0.305061	1.200326	-0.618568
H331	H	0.291203	1.142541	-0.490032
H332	H	0.556869	0.137232	-0.009579
H333	H	0.556862	0.246731	-0.009594
H334	H	0.677560	0.207700	0.423360
H335	H	1.001325	0.262437	0.435640
H336	H	0.605489	0.371918	0.067063
C337	C	0.491885	0.475796	0.077615
C338	C	0.499894	0.394496	0.118264
C339	C	0.579181	0.313185	0.158918
C340	C	0.650458	0.313175	0.158924
C341	C	0.642451	0.394478	0.118274
C342	C	0.563165	0.475788	0.077620
H343	H	0.447128	0.394501	0.118261
H344	H	0.585108	0.253000	0.189010
H345	H	0.709151	0.252984	0.189019
H346	H	0.695217	0.394473	0.118277
H347	H	0.557238	0.535974	0.047528
H348	H	0.883729	0.371917	0.326166
H349	H	0.749406	0.890117	-0.192029
H350	H	0.749494	0.496920	-0.564350
H351	H	0.605490	0.262425	0.067057
H352	H	0.001175	0.765136	-0.067056
H353	H	0.749409	0.496922	-0.192051
C354	C	0.665573	0.512110	-0.503940
C355	C	0.659344	0.449818	-0.439618
C356	C	0.653123	0.387526	-0.441682
C357	C	0.653133	0.387526	-0.508068
C358	C	0.659362	0.449819	-0.572396
C359	C	0.665583	0.512112	-0.570331
H360	H	0.659336	0.449817	-0.390471
H361	H	0.648511	0.341412	-0.394063
H362	H	0.648528	0.341413	-0.509596
H363	H	0.659370	0.449821	-0.621543
H364	H	0.670195	0.558225	-0.617951
H365	H	0.605482	0.765125	-0.698447
C366	C	0.863002	0.380579	-0.077635
C367	C	0.854986	0.347396	-0.118299
C368	C	0.775696	0.380590	-0.158960
C369	C	0.704423	0.446969	-0.158956
C370	C	0.712437	0.480156	-0.118290
C371	C	0.791727	0.446961	-0.077630
H372	H	0.907749	0.298255	-0.118304
H373	H	0.769764	0.356022	-0.189064
H374	H	0.645728	0.471542	-0.189056
H375	H	0.659674	0.529297	-0.118286
H376	H	0.797659	0.471529	-0.047526
C377	C	0.594208	0.253794	0.299637
C378	C	0.614924	0.212286	0.260862
C379	C	0.571292	0.179063	0.253428
C380	C	0.506945	0.187348	0.284770
C381	C	0.486226	0.228857	0.323548
C382	C	0.529858	0.262080	0.330981
H383	H	0.662560	0.206152	0.237658
H384	H	0.586630	0.148335	0.224722
H385	H	0.474647	0.162754	0.279267
H386	H	0.438590	0.234992	0.346751
H387	H	0.514520	0.292808	0.359687
H388	H	0.327273	0.890099	-0.192015
H389	H	1.131916	0.207724	-0.000066
H390	H	1.145173	0.262449	0.067001
H391	H	1.027641	0.371927	0.067037
H392	H	0.749520	0.371939	0.326145
H393	H	0.471190	0.890134	-0.326156
H394	H	0.605510	0.371908	0.192062
H395	H	0.223002	1.054357	0.000043
H396	H	1.027645	0.371950	0.192024
H397	H	0.471316	0.890102	0.067079
H398	H	0.677401	1.054351	-0.423309
