data_functionalizedCrystal
_audit_creation_method	'MofGen! by Chris Wilmer'
_symmetry_space_group_name_H-M	'P1'
_symmetry_Int_Tables_number	1
_symmetry_cell_setting	triclinic
loop_
_symmetry_equiv_pos_as_xyz
  x,y,z
_cell_length_a	12.811457
_cell_length_b	10.489741
_cell_length_c	11.892095
_cell_angle_alpha	93.929268
_cell_angle_beta	91.498327
_cell_angle_gamma	84.290239
loop_
_atom_site_label
_atom_site_type_symbol
_atom_site_fract_x
_atom_site_fract_y
_atom_site_fract_z
O1	O	1.390523	0.175985	0.048548
O2	O	1.087282	0.191984	0.017459
O3	O	1.245802	-0.001593	0.033718
O4	O	1.232003	0.369561	0.032290
O5	O	1.232585	0.014522	0.220370
O6	O	1.074065	0.208099	0.204111
O7	O	1.377305	0.192099	0.235200
Zn8	Zn	1.223587	0.202658	0.249291
Zn9	Zn	1.241001	0.181426	0.003369
O10	O	1.218786	0.385676	0.218942
C11	C	1.041844	0.198651	0.106804
C12	C	0.926143	0.194493	0.094942
C13	C	0.694318	0.204226	0.276163
C14	C	0.585606	0.200319	0.265023
C15	C	0.600006	0.182763	0.061524
C16	C	0.708718	0.186670	0.072664
C17	C	0.755869	0.197403	0.179987
C18	C	0.864582	0.201319	0.191125
C19	C	0.878981	0.183755	-0.012373
C20	C	0.770270	0.179848	-0.023512
C21	C	1.238151	-0.041070	0.126936
C22	C	1.235033	-0.182709	0.126615
C23	C	1.134172	-0.251147	0.116266
C24	C	1.175301	-0.335184	0.213180
C25	C	1.188356	-0.351046	0.029158
C26	C	1.276198	-0.264873	0.223609
C27	C	1.289245	-0.280734	0.039503
C28	C	1.330446	-0.364741	0.136447
C29	C	1.422744	0.185432	0.145853
C30	C	1.538446	0.189590	0.157707
C31	C	1.226437	0.425153	0.125721
C32	C	1.229555	0.566791	0.126035
N33	N	1.211709	0.217147	0.417127
N34	N	1.252886	0.166926	-0.164466
C35	C	1.335533	0.066027	0.666475
C36	C	1.327238	0.076165	0.783966
C37	C	1.186822	0.247553	0.769602
C38	C	1.195116	0.237415	0.652111
C39	C	1.269475	0.146651	0.600551
C40	C	1.277774	0.136520	0.483059
C41	C	1.137353	0.307902	0.468696
C42	C	1.129059	0.318039	0.586188
H43	H	0.929108	0.178207	-0.090687
C44	C	1.124700	0.470594	0.799689
C45	C	1.105075	0.347304	0.826277
H46	H	1.074224	0.532171	0.834671
H47	H	1.192975	0.487145	0.826084
H48	H	1.120192	0.476084	0.720279
H49	H	1.109591	0.341811	0.905687
H50	H	1.036783	0.330748	0.799888
H51	H	1.051237	-0.201732	0.107856
C52	C	0.896677	0.108048	0.369111
C53	C	0.916419	0.213108	0.309090
H54	H	0.928684	0.115321	0.441937
H55	H	0.823131	0.106707	0.376239
H56	H	0.924846	0.030865	0.329870
H57	H	0.888243	0.290290	0.348328
H58	H	0.989980	0.214461	0.301967
C59	C	1.196828	-0.373204	-0.172786
C60	C	1.138170	-0.402110	-0.081785
H61	H	1.165842	-0.404733	-0.241272
H62	H	1.197863	-0.282813	-0.173067
H63	H	1.266557	-0.412483	-0.165742
H64	H	1.068443	-0.362823	-0.088825
H65	H	1.137123	-0.492518	-0.081505
H66	H	1.313323	-0.227191	0.305871
C67	C	0.625145	0.165814	-0.138511
C68	C	0.548165	0.170972	-0.056438
H69	H	0.593138	0.158531	-0.211335
H70	H	0.659856	0.241926	-0.130687
H71	H	0.674639	0.093469	-0.129179
H72	H	0.498674	0.243323	-0.065764
H73	H	0.513437	0.094851	-0.064265
H74	H	1.337396	-0.256281	-0.033933
C75	C	1.007493	-0.310304	0.301603
C76	C	1.110256	-0.368163	0.312304
H77	H	0.967334	-0.330668	0.362792
H78	H	1.008480	-0.219846	0.302122
H79	H	0.976968	-0.341179	0.232642
H80	H	1.140784	-0.337281	0.381261
H81	H	1.109273	-0.458640	0.311795
H82	H	1.396086	-0.007868	0.624495
C83	C	1.415726	-0.031881	0.509061
C84	C	1.359503	0.036749	0.426381
H85	H	1.466176	-0.093484	0.474070
H86	H	1.450374	0.025724	0.558757
H87	H	1.368755	-0.074447	0.550418
H88	H	1.406473	0.079322	0.385030
H89	H	1.324853	-0.020865	0.376665
C90	C	1.466867	-0.094260	0.786357
C91	C	1.399852	-0.012458	0.856430
H92	H	1.511699	-0.148970	0.831096
H93	H	1.426380	-0.144738	0.736063
H94	H	1.507983	-0.044547	0.744403
H95	H	1.358730	-0.062171	0.898378
H96	H	1.440343	0.038025	0.906744
C97	C	1.464734	-0.515144	0.053145
C98	C	1.442504	-0.431097	0.147973
H99	H	1.533919	-0.556091	0.060257
H100	H	1.416115	-0.578099	0.047524
H101	H	1.459258	-0.468234	-0.012655
H102	H	1.447972	-0.478008	0.213773
H103	H	1.491136	-0.368133	0.153607
C104	C	1.066964	0.541085	0.616263
C105	C	1.047322	0.417804	0.642861
H106	H	1.016497	0.602675	0.651243
H107	H	1.135243	0.557623	0.642653
H108	H	1.062454	0.546568	0.536852
H109	H	1.051839	0.412318	0.722272
H110	H	0.979026	0.401261	0.616477
C111	C	0.726418	0.110977	0.454162
C112	C	0.746158	0.216026	0.394125
H113	H	0.758428	0.118261	0.526985
H114	H	0.652873	0.109640	0.461296
H115	H	0.754584	0.033788	0.414928
H116	H	0.717986	0.293215	0.433356
H117	H	0.819719	0.217375	0.386996
C118	C	0.412568	0.202112	0.338305
C119	C	0.517946	0.207814	0.370742
H120	H	0.370801	0.206728	0.403576
H121	H	0.390325	0.272093	0.293931
H122	H	0.405112	0.123635	0.295426
H123	H	0.525403	0.286296	0.413615
H124	H	0.540196	0.137827	0.415135
H125	H	0.731864	0.171103	-0.110891
H126	H	1.083567	0.373555	0.415008
