data_functionalizedCrystal
_audit_creation_method	'MofGen! by Chris Wilmer'
_symmetry_space_group_name_H-M	'P1'
_symmetry_Int_Tables_number	1
_symmetry_cell_setting	triclinic
loop_
_symmetry_equiv_pos_as_xyz
  x,y,z
_cell_length_a	19.805407
_cell_length_b	19.805405
_cell_length_c	11.169409
_cell_angle_alpha	89.960201
_cell_angle_beta	89.974307
_cell_angle_gamma	90.028350
loop_
_atom_site_label
_atom_site_type_symbol
_atom_site_fract_x
_atom_site_fract_y
_atom_site_fract_z
Zn1	Zn	1.034771	-0.269374	-0.678644
Zn2	Zn	1.034675	-0.382583	-0.477935
Zn3	Zn	0.921575	-0.269417	-0.477961
Zn4	Zn	0.921549	-0.382530	-0.678562
O5	O	0.978143	-0.325976	-0.578275
O6	O	1.129475	-0.284395	-0.652043
O7	O	1.019643	-0.367611	-0.309988
O8	O	0.936642	-0.174695	-0.504627
O9	O	1.129405	-0.367569	-0.504583
O10	O	1.019806	-0.174663	-0.652069
O11	O	0.936549	-0.284469	-0.310007
O12	O	0.826855	-0.284418	-0.504547
O13	O	0.936597	-0.367479	-0.846523
O14	O	0.826836	-0.367521	-0.651928
O15	O	1.019781	-0.284344	-0.846583
O16	O	1.019618	-0.477292	-0.504503
O17	O	0.936505	-0.477254	-0.651903
C18	C	0.802287	-0.325969	-0.578232
C19	C	0.727055	-0.325982	-0.578242
C20	C	0.265304	-0.282748	-0.655222
C21	C	0.335992	-0.282749	-0.655213
C22	C	0.371293	-0.325986	-0.578314
C23	C	0.335902	-0.369229	-0.501427
C24	C	0.265215	-0.369231	-0.501443
C25	C	0.620975	-0.369224	-0.501364
C26	C	0.691667	-0.369218	-0.501351
C27	C	0.691753	-0.282742	-0.655134
C28	C	0.621065	-0.282744	-0.655150
C29	C	0.585680	-0.325990	-0.578268
C30	C	0.509032	-0.325989	-0.578280
C31	C	0.447940	-0.325984	-0.578295
C32	C	0.978067	-0.501832	-0.578217
C33	C	0.978096	-0.577064	-0.578233
C34	C	1.021415	-0.612406	-0.501562
C35	C	1.021444	-0.683094	-0.501588
C36	C	0.978149	-0.718439	-0.578280
C37	C	0.934828	-0.683093	-0.654960
C38	C	0.934804	-0.612405	-0.654938
C39	C	0.934928	-0.968166	-0.655049
C40	C	0.934955	-1.038858	-0.655061
C41	C	1.021568	-1.038855	-0.501699
C42	C	1.021544	-0.968167	-0.501677
C43	C	0.978225	-0.932827	-0.578360
C44	C	0.978196	-0.856178	-0.578332
C45	C	0.978175	-0.795087	-0.578303
C46	C	1.154685	-0.325983	-0.578320
C47	C	1.229917	-0.325987	-0.578338
C48	C	0.978197	-0.325901	-0.891318
C49	C	0.978220	-0.325869	-1.024718
C50	C	0.978238	-0.149433	-0.578360
C51	C	0.978278	-0.074201	-0.578396
C52	C	0.978128	-0.326002	-0.266451
C53	C	0.978236	-0.325843	-0.133051
H54	H	0.592173	-0.404436	-0.438758
H55	H	0.899530	-0.583631	-0.717373
F56	F	0.373473	-0.415249	-0.419591
F57	F	0.729418	-0.236719	-0.736964
H58	H	0.236404	-0.404442	-0.438839
H59	H	0.236567	-0.247535	-0.717835
F60	F	0.729235	-0.415239	-0.419501
F61	F	0.583500	-0.236724	-0.736993
F62	F	0.888874	-1.076474	-0.736693
H63	H	1.056718	-0.711866	-0.439155
H64	H	0.364801	-0.247542	-0.717824
F65	F	0.888824	-0.930563	-0.736660
F66	F	1.067623	-0.930554	-0.420051
H67	H	1.056667	-0.583632	-0.439105
H68	H	1.056843	-1.067637	-0.439264
F69	F	0.888755	-0.720711	-0.736588
