data_functionalizedCrystal
_audit_creation_method	'MofGen! by Chris Wilmer'
_symmetry_space_group_name_H-M	'P1'
_symmetry_Int_Tables_number	1
_symmetry_cell_setting	triclinic
loop_
_symmetry_equiv_pos_as_xyz
  x,y,z
_cell_length_a	15.944551
_cell_length_b	14.044220
_cell_length_c	12.503572
_cell_angle_alpha	93.835250
_cell_angle_beta	93.522593
_cell_angle_gamma	91.656192
loop_
_atom_site_label
_atom_site_type_symbol
_atom_site_fract_x
_atom_site_fract_y
_atom_site_fract_z
O1	O	0.198062	-1.263178	-0.089210
O2	O	0.190753	-0.987210	-0.089237
O3	O	0.072697	-1.132730	-0.089213
O4	O	0.316117	-1.117659	-0.089234
O5	O	0.081592	-1.121786	0.089427
O6	O	0.199647	-0.976267	0.089403
O7	O	0.206956	-1.252235	0.089430
Cu8	Cu	0.204114	-1.113251	0.105728
Cu9	Cu	0.193595	-1.126194	-0.105535
O10	O	0.325012	-1.106715	0.089406
C11	C	0.192001	-0.946424	0.000079
C12	C	0.182459	-0.841198	0.000069
C13	C	0.045804	-1.126632	0.000107
C14	C	-0.047583	-1.124756	0.000107
N15	N	0.211512	-1.104155	0.254318
C16	C	-0.269530	-1.030073	0.000083
C17	C	-0.322870	-1.068645	0.088168
C18	C	-0.218563	-1.121363	0.000099
C19	C	-0.331621	-1.079457	-0.087957
C20	C	-0.383722	-1.118079	0.000086
C21	C	-0.270669	-1.159956	0.088256
C22	C	-0.279418	-1.170759	-0.087948
C23	C	-0.332734	-1.209396	0.000158
C24	C	-0.123419	-1.123252	0.000107
C25	C	-0.478865	-1.116197	0.000085
C26	C	0.351905	-1.112813	0.000083
C27	C	0.445291	-1.114689	0.000076
C28	C	0.205708	-1.293021	0.000111
C29	C	0.215249	-1.398247	0.000114
C30	C	0.165017	-0.648534	0.000092
C31	C	0.232688	-0.590906	0.000091
C32	C	0.222983	-0.483701	0.000104
C33	C	0.174721	-0.755749	0.000079
N34	N	0.186191	-1.135297	-0.254126
C35	C	0.222403	-1.090774	0.473431
C36	C	0.175303	-1.148675	0.526768
C37	C	0.181362	-1.141230	0.648690
C38	C	0.216344	-1.098218	0.351498
H39	H	-0.241893	-0.954293	0.000164
H40	H	0.267275	-1.035617	0.519330
O41	O	0.121702	-1.214516	0.472181
C42	C	0.018469	-1.341535	0.483752
C43	C	0.079115	-1.266999	0.545710
H44	H	-0.015965	-1.384001	0.543173
H45	H	-0.029150	-1.303745	0.431130
H46	H	0.055675	-1.392085	0.431070
H47	H	0.041979	-1.216428	0.598450
H48	H	0.126735	-1.304852	0.598264
H49	H	0.099799	-0.617360	0.000104
O50	O	-0.345849	-1.016996	0.176920
C51	C	-0.339570	-0.864122	0.277298
C52	C	-0.313509	-0.922503	0.176736
H53	H	-0.313419	-0.787718	0.277194
H54	H	-0.411079	-0.863702	0.276850
H55	H	-0.313455	-0.897753	0.352346
H56	H	-0.339566	-0.888916	0.101635
H57	H	-0.241996	-0.922926	0.177278
O58	O	-0.238812	-1.200471	0.177165
C59	C	-0.114508	-1.247740	0.276881
C60	C	-0.150475	-1.201824	0.176161
H61	H	-0.043085	-1.248868	0.276092
H62	H	-0.132679	-1.204493	0.351884
H63	H	-0.141149	-1.323921	0.277194
H64	H	-0.123853	-1.125648	0.175744
H65	H	-0.132312	-1.245143	0.101203
O66	O	0.310436	-0.628252	0.000003
C67	C	0.391123	-0.770706	-0.000018
C68	C	0.303029	-0.728534	0.000074
H69	H	0.385166	-0.851788	0.000062
H70	H	0.422982	-0.750390	-0.074811
H71	H	0.430449	-0.741146	0.074711
H72	H	0.263636	-0.758072	-0.074604
H73	H	0.271237	-0.748843	0.074916
O74	O	-0.365474	-1.299872	0.000411
C75	C	-0.371264	-1.444495	0.093477
C76	C	-0.334138	-1.342044	0.093330
H77	H	-0.345930	-1.478627	0.168582
H78	H	-0.442721	-1.442507	0.092834
H79	H	-0.352582	-1.488221	0.019068
H80	H	-0.352757	-1.298258	0.167726
H81	H	-0.262688	-1.344103	0.093917
H82	H	-0.260107	-1.213901	-0.162413
H83	H	-0.358298	-1.045395	-0.162431
