data_functionalizedCrystal
_audit_creation_method	'MofGen! by Chris Wilmer'
_symmetry_space_group_name_H-M	'P1'
_symmetry_Int_Tables_number	1
_symmetry_cell_setting	triclinic
loop_
_symmetry_equiv_pos_as_xyz
  x,y,z
_cell_length_a	10.489716
_cell_length_b	10.489716
_cell_length_c	18.366186
_cell_angle_alpha	89.997846
_cell_angle_beta	89.991341
_cell_angle_gamma	84.529136
loop_
_atom_site_label
_atom_site_type_symbol
_atom_site_fract_x
_atom_site_fract_y
_atom_site_fract_z
O1	O	1.694064	0.179823	-0.060537
O2	O	1.322863	0.196748	-0.060539
O3	O	1.516927	0.002685	-0.060540
O4	O	1.500001	0.373886	-0.060535
O5	O	1.516893	0.002675	0.060559
O6	O	1.322830	0.196738	0.060561
O7	O	1.694031	0.179813	0.060563
Zn8	Zn	1.508425	0.188274	0.079789
Zn9	Zn	1.508469	0.188287	-0.079765
O10	O	1.499967	0.373876	0.060564
C11	C	1.275314	0.195472	0.000011
C12	C	1.133684	0.191667	0.000010
C13	C	1.035999	0.310673	0.000009
C14	C	0.958642	0.247783	0.059720
C15	C	0.958682	0.247764	-0.059674
C16	C	1.058192	0.128827	0.059770
C17	C	1.058237	0.128826	-0.059679
C18	C	0.980929	0.065848	0.000047
C19	C	1.515638	-0.044852	0.000007
C20	C	1.511833	-0.186483	0.000001
C21	C	1.630839	-0.284167	0.000008
C22	C	1.567970	-0.361517	-0.059699
C23	C	1.567910	-0.361491	0.059696
C24	C	1.449014	-0.261967	-0.059756
C25	C	1.448971	-0.261936	0.059693
C26	C	1.386015	-0.339237	-0.000029
C27	C	1.741580	0.181089	0.000012
C28	C	1.883210	0.184894	0.000008
C29	C	1.501256	0.421413	0.000015
C30	C	1.505061	0.563044	0.000017
N31	N	1.508404	0.188264	0.188680
N32	N	1.508500	0.188287	-0.188656
C33	C	1.594364	0.102376	0.226780
C34	C	1.594372	0.102370	0.303008
C35	C	1.508433	0.188275	0.341133
C36	C	1.422456	0.274170	0.303024
C37	C	1.422442	0.274164	0.226797
C38	C	1.492777	0.304298	0.461895
C39	C	1.492800	0.304305	0.538120
C40	C	1.508469	0.188292	0.576240
C41	C	1.524142	0.072266	0.538127
C42	C	1.524128	0.072260	0.461900
C43	C	1.508438	0.188290	0.423787
C44	C	1.594443	0.102390	0.696995
C45	C	1.594442	0.102383	0.773224
C46	C	1.422532	0.274193	0.773239
C47	C	1.422527	0.274190	0.697011
C48	C	1.508489	0.188289	0.658894
H49	H	0.915208	0.298030	-0.110148
C50	C	1.770675	-0.250829	-0.000070
C51	C	1.861298	-0.297329	0.062437
C52	C	2.001129	-0.263988	0.062356
C53	C	2.050336	-0.184146	-0.000232
C54	C	1.959711	-0.137641	-0.062743
C55	C	1.819880	-0.170982	-0.062662
H56	H	1.824874	-0.356437	0.108772
H57	H	2.068216	-0.298415	0.108631
H58	H	2.153848	-0.159465	-0.000292
H59	H	1.996136	-0.078534	-0.109079
H60	H	1.752794	-0.136556	-0.108937
H61	H	1.101499	0.078614	0.110300
H62	H	1.536901	-0.022204	0.569163
H63	H	1.664435	0.032441	0.665958
H64	H	1.618221	-0.405013	-0.110177
C65	C	0.899868	0.315636	0.127917
C66	C	0.915985	0.458204	0.141037
C67	C	0.857215	0.526065	0.209231
C68	C	0.782329	0.451359	0.264306
C69	C	0.766209	0.308784	0.251188
C70	C	0.824978	0.240922	0.182993
H71	H	0.971423	0.513513	0.100266
H72	H	0.869149	0.631609	0.218942
H73	H	0.738825	0.501594	0.314787
H74	H	0.710771	0.253475	0.291958
H75	H	0.813044	0.135378	0.173283
H76	H	1.398818	-0.218655	-0.110289
H77	H	1.282422	-0.363659	-0.000061
C78	C	1.381147	-0.203132	0.127886
C79	C	1.431146	-0.242707	0.204217
C80	C	1.363333	-0.183902	0.272417
C81	C	1.245521	-0.085521	0.264288
C82	C	1.195516	-0.045940	0.187954
C83	C	1.263328	-0.104746	0.119754
H84	H	1.518363	-0.315539	0.210238
H85	H	1.400351	-0.213202	0.328924
H86	H	1.195322	-0.041989	0.314774
H87	H	1.108299	0.026892	0.181933
H88	H	1.226310	-0.075445	0.063246
C89	C	1.327887	0.368654	0.184882
C90	C	1.233386	0.463187	0.226811
C91	C	1.138834	0.557680	0.184894
C92	C	1.138782	0.557638	0.101048
C93	C	1.233286	0.463101	0.059115
C94	C	1.327839	0.368609	0.101032
H95	H	1.233422	0.463221	0.288883
H96	H	1.068875	0.627662	0.215937
H97	H	1.068788	0.627587	0.070019
H98	H	1.233251	0.463068	-0.002957
H99	H	1.397798	0.298627	0.069989
H100	H	1.618158	-0.404972	0.110172
C101	C	1.117049	0.061025	-0.127877
C102	C	1.077482	0.111052	-0.204204
C103	C	1.136296	0.043263	-0.272409
C104	C	1.234676	-0.074551	-0.264286
C105	C	1.274248	-0.124584	-0.187956
C106	C	1.215434	-0.056795	-0.119751
H107	H	1.004651	0.198271	-0.210220
H108	H	1.107002	0.080301	-0.328914
H109	H	1.278214	-0.124732	-0.314776
H110	H	1.347080	-0.211803	-0.181940
H111	H	1.244729	-0.093833	-0.063246
C112	C	1.688942	0.007893	0.344927
C113	C	1.783531	-0.086551	0.302998
C114	C	1.878102	-0.181026	0.344914
C115	C	1.878084	-0.181057	0.428760
C116	C	1.783491	-0.086609	0.470695
C117	C	1.688920	0.007866	0.428778
H118	H	1.783547	-0.086532	0.240926
H119	H	1.948125	-0.250943	0.313871
H120	H	1.948091	-0.250993	0.459790
H121	H	1.783475	-0.086628	0.532767
H122	H	1.618897	0.077783	0.459821
C123	C	1.475575	0.431929	0.580041
C124	C	1.475608	0.431943	0.663887
C125	C	1.458388	0.559570	0.705806
C126	C	1.441136	0.687183	0.663879
C127	C	1.441103	0.687174	0.580028
C128	C	1.458322	0.559547	0.538109
H129	H	1.488380	0.337472	0.694928
H130	H	1.458413	0.559576	0.767878
H131	H	1.428389	0.781660	0.694910
H132	H	1.428331	0.781645	0.548987
H133	H	1.458297	0.559540	0.476037
H134	H	0.956508	-0.037744	0.000080
H135	H	1.352535	0.344133	0.665988
C136	C	1.541342	-0.055359	0.419975
C137	C	1.558571	-0.182980	0.461895
C138	C	1.575774	-0.310601	0.419969
C139	C	1.575749	-0.310601	0.336123
C140	C	1.558519	-0.182976	0.294198
C141	C	1.541316	-0.055355	0.336124
H142	H	1.558590	-0.182984	0.523967
H143	H	1.588528	-0.405077	0.451005
H144	H	1.588484	-0.405074	0.305087
H145	H	1.558500	-0.182972	0.232126
H146	H	1.528562	0.039122	0.305088
H147	H	1.664357	0.032428	0.195747
H148	H	1.060659	0.414190	0.000067
H149	H	1.664437	0.032435	0.804245
H150	H	1.352553	0.344134	0.804280
H151	H	1.479995	0.398777	0.430863
H152	H	1.352481	0.344113	0.334069
