data_functionalizedCrystal
_audit_creation_method	'MofGen! by Chris Wilmer'
_symmetry_space_group_name_H-M	'P1'
_symmetry_Int_Tables_number	1
_symmetry_cell_setting	triclinic
loop_
_symmetry_equiv_pos_as_xyz
  x,y,z
_cell_length_a	10.654541
_cell_length_b	10.723024
_cell_length_c	9.198806
_cell_angle_alpha	89.996339
_cell_angle_beta	90.003218
_cell_angle_gamma	95.524101
loop_
_atom_site_label
_atom_site_type_symbol
_atom_site_fract_x
_atom_site_fract_y
_atom_site_fract_z
O1	O	0.176148	-1.657212	0.120882
O2	O	0.193008	-1.294062	0.120887
O3	O	0.001837	-1.483988	0.120876
O4	O	0.367319	-1.467286	0.120894
O5	O	0.001836	-1.483973	-0.120909
O6	O	0.193007	-1.294047	-0.120898
O7	O	0.176146	-1.657197	-0.120903
Cu8	Cu	0.184576	-1.475621	-0.142977
Cu9	Cu	0.184578	-1.475639	0.142962
O10	O	0.367317	-1.467271	-0.120891
C11	C	0.191781	-1.247555	-0.000005
C12	C	0.188109	-1.109000	-0.000003
C13	C	-0.044961	-1.482755	-0.000016
C14	C	-0.184404	-1.479088	-0.000013
N15	N	0.184574	-1.475617	-0.344091
C16	C	-0.212409	-1.706196	-0.000035
C17	C	-0.291921	-1.818022	-0.000048
C18	C	-0.422938	-1.814569	-0.000044
C19	C	-0.474446	-1.699277	-0.000021
C20	C	-0.394935	-1.587451	-0.000008
C21	C	-0.263916	-1.590917	-0.000017
C22	C	-0.366930	-1.360346	0.000024
C23	C	-0.235912	-1.363796	0.000009
C24	C	-0.418438	-1.245054	0.000047
C25	C	-0.338927	-1.133225	0.000050
C26	C	-0.207902	-1.136683	0.000044
C27	C	-0.156401	-1.251970	0.000023
C28	C	0.414116	-1.468504	0.000004
C29	C	0.553559	-1.472172	0.000011
C30	C	0.177374	-1.703705	-0.000008
C31	C	0.181045	-1.842259	0.000000
C32	C	0.295079	-1.034033	0.000003
C33	C	0.291287	-0.890829	0.000005
C34	C	0.257400	-1.548392	-0.416286
C35	C	0.257398	-1.548412	-0.583699
N36	N	0.184570	-1.475652	0.344076
H37	H	-0.105730	-1.709019	-0.000058
O38	O	-0.559749	-1.241320	0.000057
H39	H	-0.588247	-1.191360	-0.098477
O40	O	0.339991	-1.630909	-0.333996
H41	H	0.393330	-1.684228	-0.412347
O42	O	0.339982	-1.630961	-0.665919
H43	H	0.327009	-1.618034	-0.784508
H44	H	0.122225	-1.413338	-0.593847
H45	H	-0.249968	-1.911891	-0.000080
O46	O	0.101964	-1.393101	-0.426353
H47	H	0.161768	-1.326745	-0.495706
H48	H	-0.487677	-1.905628	-0.000044
H49	H	-0.581129	-1.696475	0.000000
O50	O	-0.394476	-1.008884	0.000062
H51	H	-0.498938	-1.025270	0.000059
H52	H	-0.143170	-1.045620	0.000061
O53	O	0.412595	-0.805506	-0.000004
H54	H	0.416417	-0.745528	0.098537
H55	H	-0.049722	-1.254797	0.000009
H56	H	0.389466	-1.075868	-0.000000
O57	O	0.063071	-1.053606	-0.000018
H58	H	0.056100	-0.994954	0.098533
O59	O	0.059734	-0.927578	-0.000017
H60	H	0.004240	-0.909339	0.098530
