data_functionalizedCrystal
_audit_creation_method	'MofGen! by Chris Wilmer'
_symmetry_space_group_name_H-M	'P1'
_symmetry_Int_Tables_number	1
_symmetry_cell_setting	triclinic
loop_
_symmetry_equiv_pos_as_xyz
  x,y,z
_cell_length_a	19.121102
_cell_length_b	29.839131
_cell_length_c	19.120904
_cell_angle_alpha	87.598232
_cell_angle_beta	89.911827
_cell_angle_gamma	87.589066
loop_
_atom_site_label
_atom_site_type_symbol
_atom_site_fract_x
_atom_site_fract_y
_atom_site_fract_z
Zn1	Zn	1.054788	-0.219753	0.441992
Zn2	Zn	1.059688	-0.291815	0.324733
Zn3	Zn	0.942558	-0.213364	0.319778
Zn4	Zn	0.937500	-0.291513	0.436935
O5	O	0.998633	-0.254111	0.380859
O6	O	1.153542	-0.232113	0.430627
O7	O	1.048319	-0.278861	0.225971
O8	O	0.957512	-0.151347	0.336033
O9	O	1.157143	-0.285057	0.344477
O10	O	1.039966	-0.156042	0.425823
O11	O	0.962264	-0.221223	0.222331
O12	O	0.843783	-0.220930	0.331129
O13	O	0.948890	-0.284542	0.535710
O14	O	0.840066	-0.278346	0.417204
O15	O	1.035061	-0.231820	0.539425
O16	O	1.043414	-0.354639	0.339574
O17	O	0.953642	-0.354418	0.422008
C18	C	0.816487	-0.248912	0.373081
C19	C	0.738563	-0.246699	0.369769
C20	C	0.700041	-0.275595	0.412958
C21	C	0.626823	-0.273509	0.409850
C22	C	0.592129	-0.242531	0.363550
C23	C	0.630656	-0.213632	0.320360
C24	C	0.703873	-0.215715	0.323471
C25	C	0.371158	-0.234741	0.351919
C26	C	0.297937	-0.232660	0.348809
C27	C	0.294108	-0.292537	0.438300
C28	C	0.367326	-0.294620	0.441405
C29	C	0.405847	-0.265720	0.398218
C30	C	0.517289	-0.240399	0.360370
C31	C	0.480686	-0.267849	0.401401
C32	C	0.998529	-0.370829	0.380796
C33	C	0.998548	-0.420764	0.380795
C34	C	1.041555	-0.732823	0.427677
C35	C	1.041629	-0.920499	0.427722
O36	O	1.078093	-0.946813	0.467534
N37	N	0.998749	-0.941559	0.380942
C38	C	0.955844	-0.915697	0.334151
O39	O	0.919368	-0.937916	0.294368
C40	C	0.955767	-0.728021	0.334110
C41	C	0.998655	-0.706964	0.380888
C42	C	1.084439	-0.711765	0.474451
C43	C	1.084423	-0.664849	0.474437
C44	C	1.041523	-0.638990	0.427648
C45	C	0.998639	-0.660048	0.380873
C46	C	0.912858	-0.702160	0.287322
C47	C	0.912841	-0.655238	0.287317
C48	C	0.955730	-0.634181	0.334095
C49	C	0.955722	-0.587273	0.334070
N50	N	0.998602	-0.566213	0.380849
C51	C	1.041502	-0.592071	0.427639
C52	C	0.955889	-1.014229	0.334175
C53	C	0.955909	-1.061148	0.334185
C54	C	1.041693	-1.065947	0.427757
C55	C	1.041676	-1.019027	0.427743
C56	C	0.998769	-0.993169	0.380955
C57	C	1.041466	-0.493544	0.427604
C58	C	1.041448	-0.446623	0.427584
C59	C	0.955661	-0.441828	0.334015
C60	C	0.955681	-0.488745	0.334032
C61	C	0.998586	-0.514601	0.380833
O62	O	0.919272	-0.560931	0.294284
O63	O	1.077961	-0.569844	0.467426
C64	C	1.041571	-0.779739	0.427691
C65	C	0.998687	-0.800796	0.380916
C66	C	0.955787	-0.774938	0.334127
C67	C	0.998707	-0.847715	0.380926
C68	C	1.041608	-0.873574	0.427715
C69	C	1.084488	-0.852514	0.474495
C70	C	1.084471	-0.805598	0.474480
C71	C	0.912907	-0.795997	0.287348
C72	C	0.912927	-0.842914	0.287365
C73	C	0.955827	-0.868773	0.334154
C74	C	1.181491	-0.259331	0.388669
C75	C	1.259414	-0.261556	0.391997
C76	C	0.990865	-0.258860	0.563716
C77	C	0.987554	-0.260884	0.641639
C78	C	0.998757	-0.136939	0.380940
C79	C	0.998809	-0.087006	0.380974
C80	C	1.006412	-0.249350	0.198716
C81	C	1.009859	-0.247203	0.120799
C82	C	1.030861	-0.234386	0.680183
C83	C	1.027742	-0.236286	0.753399
C84	C	0.981319	-0.264685	0.788070
C85	C	0.938007	-0.291184	0.749521
C86	C	0.941123	-0.289282	0.676306
C87	C	0.969663	-0.271800	1.009035
C88	C	0.966552	-0.273701	1.082256
C89	C	1.056286	-0.218802	1.086128
C90	C	1.059401	-0.216904	1.012912
C91	C	1.016086	-0.243401	0.974369
C92	C	0.978131	-0.266629	0.862909
C93	C	1.019271	-0.241455	0.899532
H94	H	0.402514	-0.211211	0.316747
O95	O	0.741270	-0.187693	0.281413
C96	C	0.768703	-0.163293	0.163182
C97	C	0.726323	-0.195061	0.210730
H98	H	0.756622	-0.169232	0.106025
H99	H	0.827002	-0.170104	0.173300
H100	H	0.753822	-0.126997	0.175028
H101	H	0.741144	-0.231368	0.198911
H102	H	0.668034	-0.188211	0.200603
H103	H	0.508937	-0.293070	0.439101
O104	O	0.256581	-0.320560	0.480227
C105	C	0.142092	-0.343906	0.515072
C106	C	0.184504	-0.312137	0.467557
H107	H	0.083810	-0.337114	0.504835
H108	H	0.154052	-0.337949	0.572250
H109	H	0.157023	-0.380202	0.503272
H110	H	0.169596	-0.275830	0.479296
H111	H	0.172540	-0.318133	0.410393
H112	H	0.489033	-0.215177	0.322671
O113	O	0.892812	-0.318720	0.783162
C114	C	0.772588	-0.337723	0.800414
C115	C	0.823691	-0.306498	0.762284
H116	H	0.716694	-0.327859	0.783537
H117	H	0.777739	-0.334530	0.859369
H118	H	0.785510	-0.373922	0.786526
H119	H	0.810803	-0.270287	0.776114
H120	H	0.818532	-0.309730	0.703337
H121	H	1.097205	-0.193780	0.984688
H122	H	1.076625	-1.087009	0.465853
O123	O	0.914188	-1.081528	0.288714
C124	C	0.829128	-1.071803	0.195878
C125	C	0.876336	-1.048667	0.247345
H126	H	0.798523	-1.045246	0.162408
H127	H	0.791040	-1.093553	0.226435
H128	H	0.862917	-1.093743	0.160655
H129	H	0.842604	-1.026704	0.282580
H130	H	0.914429	-1.026944	0.216745
H131	H	0.928746	-0.296828	1.110483
H132	H	0.728283	-0.300822	0.450658
O133	O	0.871158	-0.863344	0.241991
C134	C	0.753383	-0.873457	0.202761
C135	C	0.800608	-0.850303	0.254190
H136	H	0.696335	-0.862915	0.212596
H137	H	0.760693	-0.911438	0.210802
H138	H	0.768169	-0.863136	0.146772
H139	H	0.785852	-0.860587	0.310199
H140	H	0.793292	-0.812327	0.246088
H141	H	1.119344	-0.647707	0.512529
O142	O	1.083129	-0.426241	0.473095
C143	C	1.168246	-0.435961	0.565880
C144	C	1.121068	-0.459100	0.514388
H145	H	1.198943	-0.462517	0.599268
H146	H	1.134497	-0.414047	0.601178
H147	H	1.206261	-0.414184	0.535274
H148	H	1.083046	-0.480899	0.544937
H149	H	1.154860	-0.480987	0.479090
H150	H	0.602403	-0.188407	0.282664
H151	H	0.940337	-0.289754	0.891147
H152	H	1.076599	-1.001886	0.465834
H153	H	0.269691	-0.207429	0.311110
H154	H	1.076397	-0.514591	0.465718
H155	H	1.057066	-0.218330	0.871299
O156	O	0.899138	-0.315092	0.638893
C157	C	0.865968	-0.389955	0.615004
C158	C	0.913569	-0.360778	0.657409
H159	H	0.877608	-0.426897	0.629970
H160	H	0.876177	-0.383754	0.556714
H161	H	0.808836	-0.380807	0.626972
H162	H	0.970717	-0.369908	0.645501
H163	H	0.903300	-0.366982	0.715687
O164	O	0.914130	-0.509222	0.288516
C165	C	0.908806	-0.559530	0.193500
C166	C	0.955952	-0.536366	0.244992
H167	H	0.942599	-0.581488	0.158307
H168	H	0.878161	-0.533004	0.160004
H169	H	0.870745	-0.581271	0.224109
H170	H	0.994053	-0.514626	0.214439
H171	H	0.986547	-0.562914	0.278488
O172	O	1.126183	-0.736813	0.519930
C173	C	1.211245	-0.736606	0.612757
C174	C	1.164007	-0.708190	0.561281
H175	H	1.241827	-0.713475	0.646213
H176	H	1.249353	-0.758760	0.582208
H177	H	1.177481	-0.758624	0.647994
H178	H	1.197714	-0.686145	0.526032
H179	H	1.125895	-0.686065	0.591873
O180	O	1.126221	-0.877571	0.519977
C181	C	1.211259	-0.877395	0.612830
C182	C	1.164053	-0.848962	0.561345
H183	H	1.241848	-0.854277	0.646300
H184	H	1.249362	-0.899556	0.582287
H185	H	1.177471	-0.899407	0.648052
H186	H	1.197785	-0.826924	0.526111
H187	H	1.125946	-0.826830	0.591932
H188	H	0.920948	-0.993178	0.296073
H189	H	0.877934	-0.719296	0.249230
H190	H	0.877899	-0.634186	0.249217
H191	H	0.595461	-0.297039	0.445018
O192	O	0.927688	-0.297564	0.971535
C193	C	0.921688	-0.355824	0.888474
C194	C	0.969310	-0.326667	0.930889
H195	H	0.955319	-0.379368	0.855612
H196	H	0.886517	-0.333288	0.852600
H197	H	0.887965	-0.376425	0.925855
H198	H	1.003077	-0.306062	0.893561
H199	H	1.004434	-0.349227	0.966772
H200	H	0.395569	-0.319847	0.479106
O201	O	0.914008	-0.416637	0.288634
C202	C	0.875996	-0.342224	0.247135
C203	C	0.923194	-0.370700	0.298572
H204	H	0.883417	-0.305078	0.255142
H205	H	0.818923	-0.350147	0.256992
H206	H	0.890742	-0.350370	0.191150
H207	H	0.908510	-0.362570	0.354576
H208	H	0.980255	-0.362772	0.288653
H209	H	1.119395	-0.788457	0.512571
O210	O	0.871154	-0.770863	0.241988
C211	C	0.776918	-0.714988	0.228399
C212	C	0.824143	-0.743430	0.279854
H213	H	0.738908	-0.692795	0.258993
H214	H	0.746226	-0.738083	0.194982
H215	H	0.810698	-0.693007	0.193122
H216	H	0.790415	-0.765415	0.315176
H217	H	0.854840	-0.720310	0.313222
H218	H	1.063009	-0.214710	0.784778
O219	O	1.075975	-0.206760	0.646615
C220	C	1.164676	-0.152526	0.658194
C221	C	1.113606	-0.183788	0.696294
H222	H	1.195124	-0.133952	0.698342
H223	H	1.134006	-0.127199	0.622577
H224	H	1.202742	-0.173312	0.625450
H225	H	1.075528	-0.163039	0.729075
H226	H	1.144321	-0.209117	0.731868
H227	H	1.091549	-0.197229	1.117518
