data_functionalizedCrystal
_audit_creation_method	'MofGen! by Chris Wilmer'
_symmetry_space_group_name_H-M	'P1'
_symmetry_Int_Tables_number	1
_symmetry_cell_setting	triclinic
loop_
_symmetry_equiv_pos_as_xyz
  x,y,z
_cell_length_a	10.908878
_cell_length_b	19.288865
_cell_length_c	10.065875
_cell_angle_alpha	98.731867
_cell_angle_beta	83.418572
_cell_angle_gamma	71.610519
loop_
_atom_site_label
_atom_site_type_symbol
_atom_site_fract_x
_atom_site_fract_y
_atom_site_fract_z
O1	O	-1.723364	0.119719	0.113444
O2	O	-1.349189	0.065444	0.113463
O3	O	-1.547083	0.194940	0.113426
O4	O	-1.525469	-0.009776	0.113481
O5	O	-1.509274	0.170196	-0.113556
O6	O	-1.311379	0.040701	-0.113519
O7	O	-1.685554	0.094976	-0.113538
Zn8	Zn	-1.492464	0.063910	-0.149567
Zn9	Zn	-1.542279	0.096510	0.149492
O10	O	-1.487659	-0.034520	-0.113501
C11	C	-1.527482	0.208365	-0.000069
C12	C	-1.525392	0.285229	-0.000081
C13	C	-1.282413	0.048000	-0.000026
C14	C	-1.139774	0.032895	-0.000020
C15	C	-1.752330	0.112420	-0.000046
C16	C	-1.894970	0.127526	-0.000043
C17	C	-1.091082	0.088012	-0.000035
C18	C	-0.943658	0.072401	-0.000029
C19	C	-1.507261	-0.047944	-0.000003
C20	C	-1.509353	-0.124808	0.000018
N21	N	-1.458475	0.041662	-0.353666
C22	C	-1.641509	0.343141	-0.000094
C23	C	-1.639550	0.415367	-0.000072
C24	C	-1.521463	0.429674	-0.000065
C25	C	-1.405332	0.371752	-0.000045
C26	C	-1.407296	0.299530	-0.000053
C27	C	-1.415389	0.518729	-0.079567
C28	C	-1.413428	0.590951	-0.079568
C29	C	-1.515401	0.652433	-0.000034
C30	C	-1.619354	0.641687	0.079482
C31	C	-1.621318	0.569464	0.079474
C32	C	-1.519320	0.507985	-0.000056
C33	C	-1.629403	0.788662	-0.000021
C34	C	-1.627441	0.860889	0.000009
C35	C	-1.393217	0.817271	0.000022
C36	C	-1.395185	0.745047	0.000006
C37	C	-1.513280	0.730747	-0.000023
C38	C	-1.504307	0.071653	-0.578617
C39	C	-1.530456	0.088780	-0.421455
N40	N	-1.576278	0.118765	0.353591
H41	H	-1.158539	0.146758	-0.000044
C42	C	-1.349076	-0.029963	-0.432429
N43	N	-1.266681	-0.083912	-0.491754
H44	H	-0.876207	0.013653	-0.000006
H45	H	-1.657248	0.171780	-0.588098
H46	H	-0.962422	0.186277	-0.000049
C47	C	-1.299079	0.602764	-0.167037
N48	N	-1.212947	0.611659	-0.232918
C49	C	-1.767292	0.479079	-0.000094
N50	N	-1.863506	0.527065	-0.000115
H51	H	-1.072320	-0.025849	0.000002
H52	H	-1.737672	0.331504	-0.000112
H53	H	-1.705957	0.560719	0.144221
H54	H	-1.332346	0.468672	-0.144340
C55	C	-1.731530	0.709314	0.166982
N56	N	-1.816018	0.760253	0.232884
H57	H	-1.725564	0.777019	-0.000038
C58	C	-1.263320	0.833006	0.000034
N59	N	-1.165478	0.844860	0.000047
C60	C	-1.267443	0.681340	0.000012
N61	N	-1.171223	0.633356	0.000022
C62	C	-1.275434	0.387491	-0.000048
N63	N	-1.177591	0.399345	-0.000049
H64	H	-1.312736	0.252375	-0.000043
H65	H	-1.722003	0.908044	0.000006
C66	C	-1.394899	0.000039	-0.657388
N67	N	-1.312487	-0.053901	-0.716717
H68	H	-1.611432	0.141799	-0.363149
