data_functionalizedCrystal
_audit_creation_method	'MofGen! by Chris Wilmer'
_symmetry_space_group_name_H-M	'P1'
_symmetry_Int_Tables_number	1
_symmetry_cell_setting	triclinic
loop_
_symmetry_equiv_pos_as_xyz
  x,y,z
_cell_length_a	12.827893
_cell_length_b	13.032721
_cell_length_c	12.827885
_cell_angle_alpha	82.850965
_cell_angle_beta	90.019272
_cell_angle_gamma	97.204267
loop_
_atom_site_label
_atom_site_type_symbol
_atom_site_fract_x
_atom_site_fract_y
_atom_site_fract_z
Zn1	Zn	1.544798	-0.415987	0.643644
Zn2	Zn	2.044798	0.084013	1.143644
Zn3	Zn	1.522478	-0.590766	0.491086
Zn4	Zn	2.022478	-0.090766	0.991086
Zn5	Zn	1.370033	-0.416038	0.468924
Zn6	Zn	1.870033	0.083962	0.968924
Zn7	Zn	1.347821	-0.590688	0.665776
Zn8	Zn	1.847821	-0.090688	1.165776
O9	O	1.446282	-0.503370	0.567357
O10	O	1.946282	-0.003370	1.067357
O11	O	1.688072	-0.439183	0.623419
O12	O	2.188072	0.060817	1.123419
O13	O	1.502211	-0.567642	0.341917
O14	O	2.002211	-0.067642	0.841917
O15	O	1.411853	-0.269794	0.473563
O16	O	1.911853	0.230206	0.973563
O17	O	1.671673	-0.567593	0.511336
O18	O	2.171673	-0.067593	1.011336
O19	O	1.540252	-0.269756	0.601929
O20	O	2.040252	0.230244	1.101929
O21	O	1.390210	-0.439270	0.325634
O22	O	1.890210	0.060730	0.825634
O23	O	1.220852	-0.439194	0.495024
O24	O	1.720852	0.060806	0.995024
O25	O	1.373995	-0.567460	0.809070
O26	O	1.873995	-0.067460	1.309070
O27	O	1.204532	-0.567509	0.639651
O28	O	1.704532	-0.067509	1.139651
O29	O	1.518714	-0.439108	0.792809
O30	O	2.018714	0.060892	1.292809
O31	O	1.480672	-0.736993	0.532797
O32	O	1.980672	-0.236993	1.032797
O33	O	1.352352	-0.736936	0.661141
O34	O	1.852352	-0.236936	1.161141
C35	C	1.174775	-0.503350	0.567335
C36	C	1.674775	-0.003350	1.067335
C37	C	1.058620	-0.503366	0.567353
C38	C	1.558620	-0.003366	1.067353
C39	C	0.998775	-0.566960	0.638834
C40	C	1.498775	-0.066960	1.138834
C41	C	0.878722	-0.566978	0.638854
C42	C	1.378722	-0.066978	1.138854
C43	C	1.411708	-0.774882	0.601798
C44	C	1.911708	-0.274882	1.101798
C45	C	1.397013	-0.891037	0.616567
C46	C	1.897013	-0.391037	1.116567
C47	C	1.454008	-0.942815	0.559696
C48	C	1.954008	-0.442815	1.059696
C49	C	1.438821	-1.062867	0.574959
C50	C	1.938821	-0.562867	1.074959
C51	C	1.718850	-0.503391	0.567381
C52	C	2.218850	-0.003391	1.067381
C53	C	1.835002	-0.503400	0.567391
C54	C	2.335002	-0.003400	1.067391
C55	C	1.446366	-0.503270	0.839915
C56	C	1.946366	-0.003270	1.339915
C57	C	1.446402	-0.503227	0.956063
C58	C	1.946402	-0.003227	1.456063
C59	C	1.481020	-0.230797	0.532805
C60	C	1.981020	0.269203	1.032805
C61	C	1.495823	-0.114643	0.518081
C62	C	1.995823	0.385357	1.018081
C63	C	1.446269	-0.503394	0.295851
C64	C	1.946269	-0.003394	0.795851
C65	C	1.446473	-0.503143	0.179666
C66	C	1.946473	-0.003143	0.679666
C67	C	1.518022	-0.439702	0.999800
C68	C	2.018022	0.060298	1.499800
C69	C	1.518061	-0.439656	1.119844
C70	C	2.018061	0.060344	1.619844
H71	H	0.827287	-0.621426	0.700049
H72	H	1.327287	-0.121426	1.200049
H73	H	1.020978	-0.448931	0.506175
H74	H	1.520978	0.051069	1.006175
C75	C	1.550294	-0.299300	0.859117
C76	C	2.050294	0.200700	1.359117
C77	C	1.600765	-0.366329	0.930381
C78	C	2.100765	0.133671	1.430381
H79	H	1.601380	-0.254008	0.816258
H80	H	2.101380	0.245992	1.316258
H81	H	1.509931	-0.259266	0.896619
H82	H	2.009931	0.240734	1.396619
H83	H	1.505354	-0.339173	0.816130
H84	H	2.005354	0.160827	1.316130
H85	H	1.645699	-0.326456	0.973372
H86	H	2.145699	0.173544	1.473372
H87	H	1.641146	-0.406367	0.892875
H88	H	2.141146	0.093633	1.392875
H89	H	1.036418	-0.621387	0.700019
H90	H	1.536418	-0.121387	1.200019
C91	C	1.584854	-0.953521	0.429041
C92	C	2.084854	-0.453521	0.929041
C93	C	1.535059	-0.882690	0.478708
C94	C	2.035059	-0.382690	0.978708
H95	H	1.634896	-0.916402	0.379045
H96	H	2.134896	-0.416402	0.879045
H97	H	1.533988	-0.996160	0.394415
H98	H	2.033988	-0.496160	0.894415
H99	H	1.619464	-0.996027	0.479982
H100	H	2.119464	-0.496027	0.979982
H101	H	1.500442	-0.840189	0.427768
H102	H	2.000442	-0.340189	0.927768
H103	H	1.585933	-0.840033	0.513335
H104	H	2.085933	-0.340033	1.013335
C105	C	0.959656	-0.488809	0.425090
C106	C	1.459656	0.011191	0.925090
C107	C	0.904425	-0.429896	0.484769
C108	C	1.404425	0.070104	0.984769
H109	H	1.002525	-0.443428	0.374088
H110	H	1.502525	0.056572	0.874088
H111	H	0.911274	-0.534248	0.390777
H112	H	1.411274	-0.034248	0.890777
H113	H	1.002642	-0.528691	0.469934
H114	H	1.502642	-0.028691	0.969934
H115	H	0.861433	-0.390018	0.439926
H116	H	1.361433	0.109982	0.939926
H117	H	0.952813	-0.384438	0.519084
H118	H	1.452813	0.115562	1.019084
H119	H	1.378782	-1.107411	0.634956
H120	H	1.878782	-0.607411	1.134956
C121	C	1.316602	-1.058453	0.696995
C122	C	1.816602	-0.558453	1.196995
C123	C	1.315959	-0.951164	0.697551
C124	C	1.815959	-0.451164	1.197551
H125	H	1.266556	-1.095568	0.746989
H126	H	1.766556	-0.595568	1.246989
H127	H	1.384569	-1.076209	0.714596
H128	H	1.884569	-0.576209	1.214596
H129	H	1.299099	-1.076344	0.629023
H130	H	1.799099	-0.576344	1.129023
H131	H	1.333469	-0.933271	0.765522
H132	H	1.833469	-0.433271	1.265522
H133	H	1.247977	-0.933400	0.679957
H134	H	1.747977	-0.433400	1.179957
H135	H	1.555870	-1.070100	0.458092
H136	H	2.055870	-0.570100	0.958092
C137	C	1.297427	-0.635350	0.962083
C138	C	1.797427	-0.135350	1.462083
C139	C	1.363658	-0.576604	1.025477
C140	C	1.863658	-0.076604	1.525477
H141	H	1.246340	-0.680646	1.004936
H142	H	1.746340	-0.180646	1.504936
H143	H	1.337806	-0.675381	0.924593
H144	H	1.837806	-0.175381	1.424593
H145	H	1.263204	-0.589860	0.913737
H146	H	1.763204	-0.089860	1.413737
H147	H	1.397887	-0.622094	1.073817
H148	H	1.897887	-0.122094	1.573817
H149	H	1.323274	-0.536571	1.062984
H150	H	1.823274	-0.036571	1.562984
H151	H	1.579380	-0.385273	1.157488
H152	H	2.079380	0.114727	1.657488
H153	H	1.385157	-0.557536	1.142030
H154	H	1.885157	-0.057536	1.642030
