data_functionalizedCrystal
_audit_creation_method	'MofGen! by Chris Wilmer'
_symmetry_space_group_name_H-M	'P1'
_symmetry_Int_Tables_number	1
_symmetry_cell_setting	triclinic
loop_
_symmetry_equiv_pos_as_xyz
  x,y,z
_cell_length_a	10.686220
_cell_length_b	18.050589
_cell_length_c	18.050571
_cell_angle_alpha	89.916021
_cell_angle_beta	94.312592
_cell_angle_gamma	94.409750
loop_
_atom_site_label
_atom_site_type_symbol
_atom_site_fract_x
_atom_site_fract_y
_atom_site_fract_z
Zn1	Zn	1.929444	-0.208084	-0.332920
Zn2	Zn	2.429444	0.291916	0.167080
Zn3	Zn	1.929115	-0.332425	-0.208754
Zn4	Zn	2.429115	0.167575	0.291246
Zn5	Zn	1.718285	-0.217775	-0.218267
Zn6	Zn	2.218285	0.282225	0.281733
Zn7	Zn	1.718374	-0.341770	-0.342407
Zn8	Zn	2.218374	0.158230	0.157593
O9	O	1.823805	-0.275014	-0.275587
O10	O	2.323805	0.224986	0.224413
O11	O	2.105966	-0.216612	-0.308498
O12	O	2.605966	0.283388	0.191502
O13	O	1.900973	-0.317362	-0.106099
O14	O	2.400973	0.182638	0.393901
O15	O	1.746397	-0.112561	-0.233487
O16	O	2.246397	0.387439	0.266513
O17	O	2.105725	-0.307965	-0.217273
O18	O	2.605725	0.192035	0.282727
O19	O	1.901534	-0.105441	-0.317722
O20	O	2.401534	0.394559	0.182278
O21	O	1.746078	-0.233129	-0.113088
O22	O	2.246078	0.266871	0.386912
O23	O	1.541731	-0.242190	-0.242686
O24	O	2.041731	0.257810	0.257314
O25	O	1.746548	-0.323891	-0.445066
O26	O	2.246548	0.176109	0.054934
O27	O	1.541796	-0.333288	-0.333891
O28	O	2.041796	0.166712	0.166109
O29	O	1.901620	-0.225673	-0.438096
O30	O	2.401620	0.274327	0.061904
O31	O	1.901059	-0.437594	-0.226473
O32	O	2.401059	0.062406	0.273527
O33	O	1.746229	-0.444459	-0.324667
O34	O	2.246229	0.055541	0.175333
C35	C	1.495982	-0.289805	-0.290351
C36	C	1.995982	0.210195	0.209649
C37	C	1.355738	-0.296151	-0.296684
C38	C	1.855738	0.203849	0.203316
C39	C	1.823652	-0.467973	-0.275582
C40	C	2.323652	0.032027	0.224418
C41	C	1.823703	-0.550516	-0.275599
C42	C	2.323703	-0.050516	0.224401
C43	C	1.739588	-0.753723	-0.328976
C44	C	2.239588	-0.253723	0.171024
C45	C	1.708744	-0.804628	-0.262599
C46	C	2.208744	-0.304628	0.237401
C47	C	1.823826	-0.701641	-0.275603
C48	C	2.323826	-0.201641	0.224397
C49	C	1.854733	-0.797815	-0.341984
C50	C	2.354733	-0.297815	0.158016
C51	C	1.823944	-0.847621	-0.275613
C52	C	2.323944	-0.347621	0.224387
C53	C	1.792921	-0.751461	-0.209193
C54	C	2.292921	-0.251461	0.290807
C55	C	1.938964	-0.744641	-0.288622
C56	C	2.438964	-0.244641	0.211378
C57	C	1.908163	-0.795522	-0.222196
C58	C	2.408163	-0.295522	0.277804
C59	C	1.823756	-0.617546	-0.275598
C60	C	2.323756	-0.117546	0.224402
C61	C	1.824015	-0.931714	-0.275610
C62	C	2.324015	-0.431714	0.224390
C63	C	2.152907	-0.260165	-0.260766
C64	C	2.652907	0.239835	0.239234
C65	C	2.293151	-0.253838	-0.254450
C66	C	2.793151	0.246162	0.245550
C67	C	1.824130	-0.274744	-0.469278
C68	C	2.324130	0.225256	0.030722
C69	C	1.824269	-0.274628	-0.551818
C70	C	2.324269	0.225372	-0.051818
C71	C	1.823992	-0.081300	-0.275607
C72	C	2.323992	0.418700	0.224393
C73	C	1.824072	0.001250	-0.275616
C74	C	2.324072	0.501250	0.224384
C75	C	1.823553	-0.275226	-0.082646
C76	C	2.323553	0.224774	0.417354
C77	C	1.823659	-0.275121	-0.000095
C78	C	2.323659	0.224879	0.499905
C79	C	1.739144	-0.229422	0.244878
C80	C	2.239144	0.270578	0.744878
C81	C	1.708980	-0.298718	0.194332
C82	C	2.208980	0.201282	0.694332
C83	C	1.824063	-0.274796	0.297042
C84	C	2.324063	0.225204	0.797042
C85	C	1.853967	-0.205668	0.200496
C86	C	2.353967	0.294332	0.700496
C87	C	1.823861	-0.274952	0.151049
C88	C	2.323861	0.225048	0.651049
C89	C	1.793841	-0.344130	0.247581
C90	C	2.293841	0.155870	0.747581
C91	C	1.938881	-0.251031	0.253751
C92	C	2.438881	0.248969	0.753751
C93	C	1.908761	-0.320372	0.203229
C94	C	2.408761	0.179628	0.703229
C95	C	1.824176	-0.274705	0.381146
C96	C	2.324176	0.225295	0.881146
C97	C	1.823748	-0.275051	0.066947
C98	C	2.323748	0.224949	0.566947
H99	H	1.346860	-0.212757	-0.213446
H100	H	1.846860	0.287243	0.286554
H101	H	1.302023	-0.337238	-0.337686
H102	H	1.802023	0.162762	0.162314
H103	H	1.667364	-0.191039	0.263289
H104	H	2.167364	0.308961	0.763289
C105	C	1.643210	-0.728759	-0.389875
C106	C	2.143210	-0.228759	0.110125
N107	N	1.570615	-0.709954	-0.435739
N108	N	2.070615	-0.209954	0.064261
H109	H	1.766715	-0.731144	-0.153049
H110	H	2.266715	-0.231144	0.346951
C111	C	1.577272	-0.839992	-0.247722
C112	C	2.077272	-0.339992	0.252278
N113	N	1.478244	-0.866626	-0.236522
N114	N	1.978244	-0.366626	0.263478
H115	H	1.768352	-0.402678	0.268207
H116	H	2.268352	0.097322	0.768207
H117	H	1.979451	-0.813860	-0.177017
H118	H	2.479451	-0.313860	0.322983
H119	H	2.036255	-0.718451	-0.299656
H120	H	2.536255	-0.218451	0.200344
C121	C	1.889987	-0.825390	-0.417818
C122	C	2.389987	-0.325390	0.082182
N123	N	1.916531	-0.846156	-0.474938
N124	N	2.416531	-0.346156	0.025062
H125	H	2.036039	-0.230842	0.279701
H126	H	2.536039	0.269158	0.779701
C127	C	2.005659	-0.372364	0.178534
C128	C	2.505659	0.127636	0.678534
N129	N	2.078636	-0.411527	0.159932
N130	N	2.578636	0.088473	0.659932
H131	H	1.611794	-0.318891	0.168398
H132	H	2.111794	0.181109	0.668398
C133	C	1.888257	-0.126601	0.172504
C134	C	2.388257	0.373399	0.672504
N135	N	1.914075	-0.067046	0.151423
N136	N	2.414075	0.432954	0.651423
