data_functionalizedCrystal
_audit_creation_method	'MofGen! by Chris Wilmer'
_symmetry_space_group_name_H-M	'P1'
_symmetry_Int_Tables_number	1
_symmetry_cell_setting	triclinic
loop_
_symmetry_equiv_pos_as_xyz
  x,y,z
_cell_length_a	12.759395
_cell_length_b	18.050590
_cell_length_c	12.759387
_cell_angle_alpha	89.964881
_cell_angle_beta	89.979491
_cell_angle_gamma	90.020089
loop_
_atom_site_label
_atom_site_type_symbol
_atom_site_fract_x
_atom_site_fract_y
_atom_site_fract_z
Zn1	Zn	1.606241	-0.295590	-0.593974
Zn2	Zn	1.606119	-0.419799	-0.418281
Zn3	Zn	1.430539	-0.295630	-0.418310
Zn4	Zn	1.430519	-0.419746	-0.593920
O5	O	1.518354	-0.357691	-0.506121
O6	O	1.753246	-0.312072	-0.570678
O7	O	1.582786	-0.403367	-0.271263
O8	O	1.453905	-0.191700	-0.441647
O9	O	1.753157	-0.403327	-0.441597
O10	O	1.582992	-0.191671	-0.570706
O11	O	1.453787	-0.312141	-0.271285
O12	O	1.283515	-0.312089	-0.441595
O13	O	1.453872	-0.403237	-0.740948
O14	O	1.283501	-0.403276	-0.570615
O15	O	1.582973	-0.312020	-0.740988
O16	O	1.582767	-0.523716	-0.441545
O17	O	1.453754	-0.523677	-0.570586
C18	C	1.245387	-0.357682	-0.506103
C19	C	1.128610	-0.357696	-0.506120
C20	C	1.128634	-0.452803	-0.640251
C21	C	1.073785	-0.500362	-0.707319
C22	C	0.964063	-0.500371	-0.707332
C23	C	0.909188	-0.452814	-0.640272
C24	C	0.964037	-0.405255	-0.573203
C25	C	1.073761	-0.405253	-0.573195
C26	C	0.964014	-0.310146	-0.439080
C27	C	1.073735	-0.310139	-0.439060
C28	C	0.909138	-0.262589	-0.372019
C29	C	0.963987	-0.215032	-0.304944
C30	C	1.073716	-0.215026	-0.304933
C31	C	1.128584	-0.262580	-0.371991
C32	C	1.518274	-0.550643	-0.506079
C33	C	1.518335	-0.633189	-0.506096
C34	C	1.588638	-0.832634	-0.436022
C35	C	1.614308	-0.881958	-0.531909
C36	C	1.518395	-0.784319	-0.506138
C37	C	1.492832	-0.882077	-0.410295
C38	C	1.518455	-0.930304	-0.506170
C39	C	1.544114	-0.832556	-0.602076
C40	C	1.422594	-0.832671	-0.480397
C41	C	1.448227	-0.881973	-0.576350
C42	C	1.518363	-0.700221	-0.506119
C43	C	1.518486	-1.014401	-0.506201
C44	C	1.792388	-0.357701	-0.506140
C45	C	1.909165	-0.357705	-0.506148
C46	C	1.518434	-0.357618	-0.780155
C47	C	1.518468	-0.357587	-0.896932
C48	C	1.518464	-0.163986	-0.506186
C49	C	1.518511	-0.081440	-0.506214
C50	C	1.652910	-0.262609	-0.896992
C51	C	1.720146	-0.215109	-0.951884
C52	C	1.720172	-0.215082	-1.061605
C53	C	1.652952	-0.262559	-1.116438
C54	C	1.585716	-0.310059	-1.061547
C55	C	1.585700	-0.310082	-0.951823
C56	C	1.451270	-0.405032	-1.061486
C57	C	1.451248	-0.405064	-0.951764
C58	C	1.384050	-0.452508	-1.116319
C59	C	1.316817	-0.500013	-1.061428
C60	C	1.316796	-0.500039	-0.951700
C61	C	1.384012	-0.452564	-0.896873
C62	C	1.518336	-0.357710	-0.233154
C63	C	1.518506	-0.357532	-0.116377
H64	H	1.217975	-0.452806	-0.640239
H65	H	1.262032	-0.538712	-0.907014
H66	H	1.652906	-0.262634	-0.807651
H67	H	0.819847	-0.452819	-0.640297
H68	H	1.384005	-0.452583	-0.807532
C69	C	0.903626	-0.162721	-0.231190
C70	C	0.963950	-0.110406	-0.157413
C71	C	0.903584	-0.058093	-0.083659
C72	C	0.782894	-0.058094	-0.083683
C73	C	0.722563	-0.110410	-0.157463
C74	C	0.782929	-0.162724	-0.231217
H75	H	1.053298	-0.110404	-0.157393
H76	H	0.948245	-0.019365	-0.029042
H77	H	0.738207	-0.019368	-0.029086
H78	H	0.633215	-0.110413	-0.157483
H79	H	0.738267	-0.201452	-0.285834
H80	H	1.652970	-0.262526	-1.205779
H81	H	0.919406	-0.539094	-0.761950
C82	C	1.134148	-0.552673	-0.781084
C83	C	1.254838	-0.552670	-0.781076
C84	C	1.315196	-0.604978	-0.854843
C85	C	1.254865	-0.657289	-0.928619
C86	C	1.134168	-0.657294	-0.928629
C87	C	1.073810	-0.604986	-0.854862
H88	H	1.299505	-0.513944	-0.726460
H89	H	1.404544	-0.604974	-0.854835
H90	H	1.299545	-0.696011	-0.983226
H91	H	1.089501	-0.696020	-0.983245
H92	H	0.984462	-0.604990	-0.854870
H93	H	0.819797	-0.262596	-0.372039
C94	C	1.134047	-0.162708	-0.231157
C95	C	1.118994	-0.078291	-0.239963
C96	C	1.179321	-0.025972	-0.166186
C97	C	1.254701	-0.058069	-0.083604
C98	C	1.269757	-0.142490	-0.074794
C99	C	1.209430	-0.194809	-0.148571
H100	H	1.063190	-0.054527	-0.301098
H101	H	1.168175	0.036522	-0.172708
H102	H	1.299358	-0.019339	-0.028990
H103	H	1.325561	-0.166254	-0.013659
H104	H	1.220576	-0.257303	-0.142049
C105	C	1.668907	-0.803358	-0.356000
C106	C	1.785796	-0.822813	-0.367991
C107	C	1.866066	-0.793536	-0.287976
C108	C	1.829446	-0.744804	-0.195970
C109	C	1.712550	-0.725346	-0.183975
C110	C	1.632281	-0.754623	-0.263990
H111	H	1.812909	-0.858890	-0.436103
H112	H	1.952599	-0.807940	-0.296856
H113	H	1.888866	-0.723131	-0.136738
H114	H	1.685437	-0.689270	-0.115863
H115	H	1.545747	-0.740219	-0.255110
C116	C	1.723788	-0.911211	-0.561352
C117	C	1.784269	-0.961128	-0.484400
C118	C	1.893752	-0.990376	-0.513836
C119	C	1.942755	-0.969705	-0.620223
C120	C	1.882274	-0.919785	-0.697182
C121	C	1.772790	-0.890538	-0.667747
H122	H	1.747995	-0.976432	-0.405640
H123	H	1.938524	-1.027330	-0.456865
H124	H	2.023801	-0.991356	-0.642013
H125	H	1.918548	-0.904482	-0.775943
H126	H	1.728019	-0.853584	-0.724717
C127	C	1.463579	-0.911460	-0.300782
C128	C	1.357255	-0.890944	-0.251601
C129	C	1.328011	-0.920324	-0.142087
C130	C	1.405091	-0.970220	-0.081753
C131	C	1.511423	-0.990739	-0.130933
C132	C	1.540666	-0.961358	-0.240447
H133	H	1.300189	-0.854006	-0.296265
H134	H	1.249297	-0.905135	-0.105682
H135	H	1.383443	-0.991969	-0.000684
H136	H	1.568488	-1.027677	-0.086270
H137	H	1.619380	-0.976548	-0.276853
C138	C	1.573491	-0.803304	-0.711625
C139	C	1.578932	-0.719274	-0.731838
C140	C	1.608313	-0.690020	-0.841383
C141	C	1.632252	-0.744795	-0.930715
C142	C	1.626811	-0.828830	-0.910504
C143	C	1.597431	-0.858084	-0.800959
H144	H	1.561210	-0.678722	-0.665708
H145	H	1.612340	-0.627812	-0.856344
H146	H	1.654002	-0.723139	-1.011806
H147	H	1.644533	-0.869382	-0.976634
H148	H	1.593403	-0.920292	-0.785997
C149	C	1.368012	-0.911063	-0.656558
C150	C	1.379779	-0.891313	-0.773400
C151	C	1.299571	-0.920405	-0.853611
C152	C	1.207594	-0.969248	-0.816979
C153	C	1.195823	-0.989002	-0.700131
C154	C	1.276032	-0.959909	-0.619920
H155	H	1.447869	-0.855154	-0.800523
H156	H	1.308285	-0.905782	-0.940110
H157	H	1.148219	-0.990784	-0.876355
H158	H	1.127733	-1.025161	-0.673008
H159	H	1.267318	-0.974532	-0.533421
H160	H	1.774874	-0.176454	-0.907227
C161	C	1.313143	-0.803392	-0.450920
C162	C	1.299431	-0.753532	-0.353994
C163	C	1.189981	-0.724252	-0.324503
C164	C	1.094242	-0.744832	-0.391938
C165	C	1.107951	-0.794694	-0.488870
C166	C	1.217401	-0.823974	-0.518361
H167	H	1.370306	-0.738296	-0.304069
H168	H	1.179833	-0.687341	-0.252747
H169	H	1.013220	-0.723157	-0.370107
H170	H	1.037076	-0.809930	-0.538795
H171	H	1.227549	-0.860885	-0.590117
H172	H	1.774915	-0.176399	-1.106298
H173	H	1.217925	-0.262581	-0.371986
H174	H	1.384071	-0.452480	-1.205660
C175	C	1.242882	-0.552232	-1.121743
C176	C	1.242901	-0.552198	-1.242433
C177	C	1.168965	-0.604418	-1.302753
C178	C	1.095010	-0.656672	-1.242382
C179	C	1.094989	-0.656708	-1.121685
C180	C	1.168924	-0.604488	-1.061366
H181	H	1.297649	-0.513515	-1.287129
H182	H	1.168982	-0.604392	-1.392101
H183	H	1.040279	-0.695329	-1.287034
H184	H	1.040240	-0.695392	-1.076989
H185	H	1.168908	-0.604515	-0.972018
