data_functionalizedCrystal
_audit_creation_method	'MofGen! by Chris Wilmer'
_symmetry_space_group_name_H-M	'P1'
_symmetry_Int_Tables_number	1
_symmetry_cell_setting	triclinic
loop_
_symmetry_equiv_pos_as_xyz
  x,y,z
_cell_length_a	15.995350
_cell_length_b	11.792254
_cell_length_c	10.868271
_cell_angle_alpha	90.004308
_cell_angle_beta	89.999184
_cell_angle_gamma	83.845486
loop_
_atom_site_label
_atom_site_type_symbol
_atom_site_fract_x
_atom_site_fract_y
_atom_site_fract_z
O1	O	0.114809	1.505943	0.102315
O2	O	0.126626	1.175505	0.102317
O3	O	-0.001129	1.349757	0.102314
O4	O	0.242564	1.331691	0.102317
O5	O	-0.001125	1.349741	-0.102330
O6	O	0.126630	1.175489	-0.102328
O7	O	0.114813	1.505927	-0.102330
Zn8	Zn	0.120722	1.340706	-0.134821
Zn9	Zn	0.120717	1.340727	0.134807
O10	O	0.242568	1.331676	-0.102328
C11	C	0.125883	1.133213	-0.000005
C12	C	0.123655	1.007218	-0.000004
C13	C	-0.032325	1.349002	-0.000006
C14	C	-0.125286	1.346763	0.000001
C15	C	0.121845	0.904897	0.000001
C16	C	0.119581	0.776529	0.000002
C17	C	-0.463070	1.338722	-0.000003
C18	C	-0.416203	1.214623	0.000457
C19	C	-0.319503	1.216863	-0.000004
C20	C	-0.295491	1.342710	0.000000
C21	C	-0.336286	1.403911	-0.116860
C22	C	-0.432936	1.400794	-0.116958
C23	C	-0.433287	1.403375	0.115761
C24	C	-0.336342	1.403346	0.117306
C25	C	-0.200783	1.344971	-0.000002
C26	C	-0.557778	1.336465	-0.000008
C27	C	0.273764	1.332430	-0.000005
C28	C	0.366725	1.334669	-0.000004
C29	C	0.115556	1.548220	-0.000005
C30	C	0.117784	1.674214	0.000002
N31	N	0.120725	1.340700	-0.318835
C32	C	0.120726	1.340709	-0.430172
C33	C	0.120718	1.340724	-0.569850
N34	N	0.120707	1.340741	0.318822
H35	H	-0.291303	1.168754	0.083766
H36	H	-0.291858	1.168418	-0.083917
C37	C	-0.298212	1.346463	-0.234350
N38	N	-0.269536	1.303186	-0.322841
C39	C	-0.441556	1.147613	0.113662
N40	N	-0.460660	1.097138	0.198929
H41	H	-0.436022	1.165236	-0.082878
C42	C	-0.316616	1.528809	-0.122748
N43	N	-0.301792	1.622880	-0.127185
H44	H	-0.451440	1.356153	-0.204316
H45	H	-0.454015	1.362808	0.204334
C46	C	-0.299761	1.342954	0.234101
N47	N	-0.272211	1.297455	0.322069
C48	C	-0.475941	1.523878	-0.124136
N49	N	-0.508329	1.616583	-0.129551
C50	C	-0.315029	1.527334	0.126839
N51	N	-0.298980	1.620729	0.134008
C52	C	-0.475635	1.526981	0.116832
N53	N	-0.507536	1.620077	0.117631
