data_functionalizedCrystal
_audit_creation_method	'MofGen! by Chris Wilmer'
_symmetry_space_group_name_H-M	'P1'
_symmetry_Int_Tables_number	1
_symmetry_cell_setting	triclinic
loop_
_symmetry_equiv_pos_as_xyz
  x,y,z
_cell_length_a	12.594517
_cell_length_b	21.295417
_cell_length_c	12.594510
_cell_angle_alpha	89.957633
_cell_angle_beta	89.977994
_cell_angle_gamma	90.029939
loop_
_atom_site_label
_atom_site_type_symbol
_atom_site_fract_x
_atom_site_fract_y
_atom_site_fract_z
Zn1	Zn	1.627158	-0.250562	-0.601826
Zn2	Zn	1.627004	-0.355852	-0.423822
Zn3	Zn	1.449162	-0.250599	-0.423852
Zn4	Zn	1.449099	-0.355796	-0.601750
O5	O	1.538106	-0.303202	-0.512813
O6	O	1.776083	-0.264536	-0.578233
O7	O	1.603376	-0.341929	-0.274881
O8	O	1.472865	-0.162505	-0.447505
O9	O	1.775971	-0.341892	-0.447455
O10	O	1.603637	-0.162477	-0.578262
O11	O	1.472716	-0.264600	-0.274902
O12	O	1.300208	-0.264546	-0.447431
O13	O	1.472757	-0.341797	-0.750706
O14	O	1.300162	-0.341834	-0.578132
O15	O	1.603576	-0.264482	-0.750762
O16	O	1.603314	-0.443934	-0.447381
O17	O	1.472608	-0.443893	-0.578103
C18	C	1.261565	-0.303188	-0.512777
C19	C	1.143260	-0.303198	-0.512787
C20	C	1.003237	-0.261115	-0.441861
C21	C	1.074102	-0.245771	-0.538991
C22	C	1.073966	-0.318513	-0.415668
C23	C	1.003339	-0.287849	-0.610046
C24	C	1.003197	-0.360618	-0.486657
C25	C	1.074030	-0.345296	-0.583854
C26	C	1.537966	-0.466754	-0.512754
C27	C	1.538004	-0.536722	-0.512764
C28	C	1.606123	-0.569589	-0.444767
C29	C	1.606173	-0.635331	-0.444791
C30	C	1.538085	-0.668204	-0.512801
C31	C	1.469961	-0.635329	-0.580811
C32	C	1.469920	-0.569588	-0.580793
N33	N	1.444974	-0.771469	-0.520903
N34	N	1.445016	-0.833920	-0.520914
C35	C	1.538204	-0.866279	-0.512862
N36	N	1.631352	-0.833827	-0.504777
N37	N	1.631309	-0.771370	-0.504760
C38	C	1.538122	-0.739490	-0.512829
C39	C	1.606383	-0.970432	-0.444887
C40	C	1.606435	-1.036175	-0.444918
C41	C	1.470213	-1.036172	-0.580933
C42	C	1.470171	-0.970430	-0.580907
C43	C	1.538254	-0.937563	-0.512878
C44	C	1.815727	-0.303216	-0.512849
C45	C	1.934032	-0.303222	-0.512864
C46	C	1.538176	-0.303129	-0.790434
C47	C	1.538206	-0.303099	-0.908739
C48	C	1.538275	-0.139012	-0.512895
C49	C	1.538347	-0.069044	-0.512930
C50	C	1.609380	-0.261044	-0.978023
C51	C	1.512310	-0.245635	-1.048816
C52	C	1.635333	-0.318463	-1.048745
C53	C	1.441085	-0.287660	-0.977974
C54	C	1.564173	-0.360515	-0.977897
C55	C	1.467036	-0.345128	-1.048658
C56	C	1.538097	-0.303229	-0.236272
C57	C	1.538274	-0.303083	-0.117967
H58	H	0.972443	-0.274849	-0.692235
N59	N	1.387260	-0.392224	-1.089502
H60	H	1.424902	-0.424953	-1.133628
H61	H	1.350750	-0.413217	-1.027502
H62	H	0.972157	-0.225490	-0.381924
H63	H	1.104916	-0.380895	-0.643935
H64	H	1.586142	-0.409064	-0.946725
H65	H	1.104994	-0.331456	-0.333502
H66	H	1.661912	-1.062935	-0.389548
H67	H	1.661564	-0.542831	-0.389376
H68	H	1.661648	-0.662097	-0.389419
H69	H	1.105227	-0.197221	-0.561144
N70	N	1.483240	-0.181315	-1.090096
H71	H	1.410428	-0.169377	-1.063245
H72	H	1.537081	-0.149623	-1.064405
H73	H	1.358951	-0.274602	-0.947017
N74	N	1.688963	-0.213911	-0.936920
H75	H	1.744243	-0.236225	-0.892762
H76	H	1.724541	-0.192248	-0.998803
N77	N	1.396518	-0.670777	-0.654167
H78	H	1.439760	-0.698007	-0.703538
H79	H	1.347244	-0.698063	-0.610797
H80	H	1.414449	-0.542827	-0.636166
H81	H	1.717442	-0.331464	-1.079836
H82	H	1.661825	-0.943671	-0.389497
N83	N	0.961906	-0.424907	-0.457301
H84	H	0.987548	-0.436431	-0.383857
H85	H	0.881726	-0.424491	-0.458298
N86	N	1.396781	-1.071618	-0.654298
H87	H	1.407144	-1.118253	-0.643995
H88	H	1.320765	-1.060177	-0.637659
H89	H	1.414697	-0.943667	-0.636273
