data_functionalizedCrystal
_audit_creation_method	'MofGen! by Chris Wilmer'
_symmetry_space_group_name_H-M	'P1'
_symmetry_Int_Tables_number	1
_symmetry_cell_setting	triclinic
loop_
_symmetry_equiv_pos_as_xyz
  x,y,z
_cell_length_a	19.121063
_cell_length_b	16.120542
_cell_length_c	16.120297
_cell_angle_alpha	89.872913
_cell_angle_beta	95.179432
_cell_angle_gamma	90.317046
loop_
_atom_site_label
_atom_site_type_symbol
_atom_site_fract_x
_atom_site_fract_y
_atom_site_fract_z
Zn1	Zn	-0.355825	-1.228532	-0.551617
Zn2	Zn	-0.105825	-0.978532	-0.301617
Zn3	Zn	0.144175	-0.728532	-0.051617
Zn4	Zn	0.394175	-0.478532	0.198383
Zn5	Zn	-0.467608	-1.229541	-0.417908
Zn6	Zn	-0.217608	-0.979541	-0.167908
Zn7	Zn	0.032392	-0.729541	0.082092
Zn8	Zn	0.282392	-0.479541	0.332092
Zn9	Zn	-0.343951	-1.097153	-0.404964
Zn10	Zn	-0.093951	-0.847153	-0.154964
Zn11	Zn	0.156049	-0.597153	0.095036
Zn12	Zn	0.406049	-0.347153	0.345036
Zn13	Zn	-0.466953	-1.083532	-0.549843
Zn14	Zn	-0.216953	-0.833532	-0.299843
Zn15	Zn	0.033047	-0.583532	-0.049843
Zn16	Zn	0.283047	-0.333532	0.200157
O17	O	-0.408584	-1.159690	-0.481083
O18	O	-0.158584	-0.909690	-0.231083
O19	O	0.091416	-0.659690	0.018917
O20	O	0.341416	-0.409690	0.268917
O21	O	-0.375897	-1.344754	-0.540040
O22	O	-0.125897	-1.094754	-0.290040
O23	O	0.124103	-0.844754	-0.040040
O24	O	0.374103	-0.594754	0.209960
O25	O	-0.446510	-1.218102	-0.299601
O26	O	-0.196510	-0.968102	-0.049601
O27	O	0.053490	-0.718102	0.200399
O28	O	0.303490	-0.468102	0.450399
O29	O	-0.247268	-1.119858	-0.419744
O30	O	0.002732	-0.869858	-0.169744
O31	O	0.252732	-0.619858	0.080256
O32	O	0.502732	-0.369858	0.330256
O33	O	-0.458024	-1.345495	-0.441805
O34	O	-0.208024	-1.095495	-0.191805
O35	O	0.041976	-0.845495	0.058195
O36	O	0.291976	-0.595495	0.308195
O37	O	-0.255991	-1.216382	-0.527489
O38	O	-0.005991	-0.966382	-0.277489
O39	O	0.244009	-0.716382	-0.027489
O40	O	0.494009	-0.466382	0.222511
O41	O	-0.355660	-1.120837	-0.290092
O42	O	-0.105660	-0.870837	-0.040092
O43	O	0.144340	-0.620837	0.209908
O44	O	0.394340	-0.370837	0.459908
O45	O	-0.355024	-0.979258	-0.418023
O46	O	-0.105024	-0.729258	-0.168023
O47	O	0.144976	-0.479258	0.081977
O48	O	0.394976	-0.229258	0.331977
O49	O	-0.456906	-1.096644	-0.666668
O50	O	-0.206906	-0.846644	-0.416668
O51	O	0.043094	-0.596644	-0.166668
O52	O	0.293094	-0.346644	0.083332
O53	O	-0.445392	-0.969251	-0.524465
O54	O	-0.195392	-0.719251	-0.274465
O55	O	0.054608	-0.469251	-0.024465
O56	O	0.304608	-0.219251	0.225535
O57	O	-0.375261	-1.203175	-0.667972
O58	O	-0.125261	-0.953175	-0.417972
O59	O	0.124739	-0.703175	-0.167972
O60	O	0.374739	-0.453175	0.082028
O61	O	-0.565780	-1.204895	-0.440085
O62	O	-0.315780	-0.954895	-0.190085
O63	O	-0.065780	-0.704895	0.059915
O64	O	0.184220	-0.454895	0.309915
O65	O	-0.565298	-1.097623	-0.537016
O66	O	-0.315298	-0.847623	-0.287016
O67	O	-0.065298	-0.597623	-0.037016
O68	O	0.184702	-0.347623	0.212984
C69	C	-0.398849	-0.944154	-0.469647
C70	C	-0.148849	-0.694154	-0.219647
C71	C	0.101151	-0.444154	0.030353
C72	C	0.351151	-0.194154	0.280353
C73	C	-0.394702	-0.851945	-0.464776
C74	C	-0.144702	-0.601945	-0.214776
C75	C	0.105298	-0.351945	0.035224
C76	C	0.355298	-0.101945	0.285224
C77	C	-0.430074	-0.637104	-0.506308
C78	C	-0.180074	-0.387104	-0.256308
C79	C	0.069926	-0.137104	-0.006308
C80	C	0.319926	0.112896	0.243692
C81	C	-0.387137	-0.683123	-0.455880
C82	C	-0.137137	-0.433123	-0.205880
C83	C	0.112863	-0.183123	0.044120
C84	C	0.362863	0.066877	0.294120
C85	C	-0.391347	-0.777064	-0.460831
C86	C	-0.141347	-0.527064	-0.210831
C87	C	0.108653	-0.277064	0.039169
C88	C	0.358653	-0.027064	0.289169
C89	C	-0.425864	-0.543154	-0.501358
C90	C	-0.175864	-0.293154	-0.251358
C91	C	0.074136	-0.043154	-0.001358
C92	C	0.324136	0.206846	0.248642
C93	C	-0.591018	-1.149912	-0.489782
C94	C	-0.341018	-0.899912	-0.239782
C95	C	-0.091018	-0.649912	0.010218
C96	C	0.158982	-0.399912	0.260218
C97	C	-0.669068	-1.145803	-0.493535
C98	C	-0.419068	-0.895803	-0.243535
C99	C	-0.169068	-0.645803	0.006465
C100	C	0.080932	-0.395803	0.256465
C101	C	-0.705968	-1.199763	-0.444877
C102	C	-0.455968	-0.949763	-0.194877
C103	C	-0.205968	-0.699763	0.055123
C104	C	0.044032	-0.449763	0.305123
C105	C	-0.779305	-1.195904	-0.448412
C106	C	-0.529305	-0.945904	-0.198412
C107	C	-0.279305	-0.695904	0.051588
C108	C	-0.029305	-0.445904	0.301588
C109	C	-0.815741	-1.138080	-0.500601
C110	C	-0.565741	-0.888080	-0.250601
C111	C	-0.315741	-0.638080	-0.000601
C112	C	-0.065741	-0.388080	0.249399
C113	C	-0.778836	-1.084118	-0.549264
C114	C	-0.528836	-0.834118	-0.299264
C115	C	-0.278836	-0.584118	-0.049264
C116	C	-0.028836	-0.334118	0.200736
C117	C	-0.705501	-1.087982	-0.545733
C118	C	-0.455501	-0.837982	-0.295733
C119	C	-0.205501	-0.587982	-0.045733
C120	C	0.044499	-0.337982	0.204267
C121	C	-1.037155	-1.123621	-0.513789
C122	C	-0.787155	-0.873621	-0.263789
C123	C	-0.537155	-0.623621	-0.013789
C124	C	-0.287155	-0.373621	0.236211
C125	C	-1.110495	-1.119759	-0.517315
C126	C	-0.860495	-0.869759	-0.267315
C127	C	-0.610495	-0.619759	-0.017315
C128	C	-0.360495	-0.369759	0.232685
C129	C	-1.110959	-1.231547	-0.416464
C130	C	-0.860959	-0.981547	-0.166464
C131	C	-0.610959	-0.731547	0.083536
C132	C	-0.360959	-0.481547	0.333536
C133	C	-1.037622	-1.235402	-0.412934
C134	C	-0.787622	-0.985402	-0.162934
C135	C	-0.537622	-0.735402	0.087066
C136	C	-0.287622	-0.485402	0.337066
C137	C	-1.000724	-1.181443	-0.461600
C138	C	-0.750724	-0.931443	-0.211600
C139	C	-0.500724	-0.681443	0.038400
C140	C	-0.250724	-0.431443	0.288400
C141	C	-0.890703	-1.134132	-0.504214
C142	C	-0.640703	-0.884132	-0.254214
C143	C	-0.390703	-0.634132	-0.004214
C144	C	-0.140703	-0.384132	0.245786
C145	C	-0.925764	-1.185396	-0.457991
C146	C	-0.675764	-0.935396	-0.207991
C147	C	-0.425764	-0.685396	0.042009
C148	C	-0.175764	-0.435396	0.292009
C149	C	-0.225440	-1.169527	-0.472370
C150	C	0.024560	-0.919527	-0.222370
C151	C	0.274560	-0.669527	0.027630
C152	C	0.524560	-0.419527	0.277630
C153	C	-0.147395	-1.173719	-0.468657
C154	C	0.102605	-0.923719	-0.218657
C155	C	0.352605	-0.673719	0.031343
C156	C	0.602605	-0.423719	0.281343
C157	C	-0.417335	-1.148277	-0.698396
C158	C	-0.167335	-0.898277	-0.448396
C159	C	0.082665	-0.648277	-0.198396
C160	C	0.332665	-0.398277	0.051604
C161	C	-0.421064	-1.143414	-0.791002
C162	C	-0.171064	-0.893414	-0.541002
C163	C	0.078936	-0.643414	-0.291002
C164	C	0.328936	-0.393414	-0.041002
C165	C	-0.418354	-0.376067	-0.492553
C166	C	-0.168354	-0.126067	-0.242553
C167	C	0.081646	0.123933	0.007447
C168	C	0.331646	0.373933	0.257447
C169	C	-0.422506	-0.468277	-0.497410
C170	C	-0.172506	-0.218277	-0.247410
C171	C	0.077494	0.031723	0.002590
C172	C	0.327494	0.281723	0.252590
C173	C	-0.427855	-1.134505	-0.960551
C174	C	-0.177855	-0.884505	-0.710551
C175	C	0.072145	-0.634505	-0.460551
C176	C	0.322145	-0.384505	-0.210551
C177	C	-0.389110	-1.185048	-1.002466
C178	C	-0.139110	-0.935048	-0.752466
C179	C	0.110890	-0.685048	-0.502466
C180	C	0.360890	-0.435048	-0.252466
C181	C	-0.392889	-1.180092	-1.096809
C182	C	-0.142889	-0.930092	-0.846809
C183	C	0.107111	-0.680092	-0.596809
C184	C	0.357111	-0.430092	-0.346809
C185	C	-0.424077	-1.139461	-0.866199
C186	C	-0.174077	-0.889461	-0.616199
C187	C	0.075923	-0.639461	-0.366199
C188	C	0.325923	-0.389461	-0.116199
C189	C	-0.399819	-1.171108	-0.264616
C190	C	-0.149819	-0.921108	-0.014616
C191	C	0.100181	-0.671108	0.235384
C192	C	0.350181	-0.421108	0.485384
C193	C	-0.395899	-1.176142	-0.172010
C194	C	-0.145899	-0.926142	0.077990
C195	C	0.104101	-0.676142	0.327990
C196	C	0.354101	-0.426142	0.577990
H197	H	-0.676306	-1.246846	-0.402376
H198	H	-0.426306	-0.996846	-0.152376
H199	H	-0.176306	-0.746846	0.097624
H200	H	0.073694	-0.496846	0.347624
H201	H	-0.353101	-1.232042	-0.967497
H202	H	-0.103101	-0.982042	-0.717497
H203	H	0.146899	-0.732042	-0.467497
H204	H	0.396899	-0.482042	-0.217497
F205	F	-0.474920	-1.073087	-1.006256
F206	F	-0.224920	-0.823087	-0.756256
F207	F	0.025080	-0.573087	-0.506256
F208	F	0.275080	-0.323087	-0.256256
F209	F	-0.334958	-0.642405	-0.394587
F210	F	-0.084958	-0.392405	-0.144587
F211	F	0.165042	-0.142405	0.105413
F212	F	0.415042	0.107595	0.355413
F213	F	-0.929487	-1.072593	-0.559755
F214	F	-0.679487	-0.822593	-0.309755
F215	F	-0.429487	-0.572593	-0.059755
F216	F	-0.179487	-0.322593	0.190245
H217	H	-1.007957	-1.282487	-0.370437
H218	H	-0.757957	-1.032487	-0.120437
H219	H	-0.507957	-0.782487	0.129563
H220	H	-0.257957	-0.532487	0.379563
F221	F	-1.150233	-1.288973	-0.364677
F222	F	-0.900233	-1.038973	-0.114677
F223	F	-0.650233	-0.788973	0.135323
F224	F	-0.400233	-0.538973	0.385323
F225	F	-1.149271	-1.058205	-0.572855
F226	F	-0.899271	-0.808205	-0.322855
F227	F	-0.649271	-0.558205	-0.072855
F228	F	-0.399271	-0.308205	0.177145
F229	F	-0.482256	-0.677822	-0.567587
F230	F	-0.232256	-0.427822	-0.317587
F231	F	0.017744	-0.177822	-0.067587
F232	F	0.267744	0.072178	0.182413
F233	F	-0.818573	-1.253338	-0.396626
F234	F	-0.568573	-1.003338	-0.146626
F235	F	-0.318573	-0.753338	0.103374
F236	F	-0.068573	-0.503338	0.353374
H237	H	-1.007118	-1.079684	-0.553414
H238	H	-0.757118	-0.829684	-0.303414
H239	H	-0.507118	-0.579684	-0.053414
H240	H	-0.257118	-0.329684	0.196586
F241	F	-0.817616	-1.022582	-0.604813
F242	F	-0.567616	-0.772582	-0.354813
F243	F	-0.317616	-0.522582	-0.104813
F244	F	-0.067616	-0.272582	0.145187
F245	F	-0.886985	-1.246937	-0.402454
F246	F	-0.636985	-0.996937	-0.152454
F247	F	-0.386985	-0.746937	0.097546
F248	F	-0.136985	-0.496937	0.347546
F249	F	-0.666230	-1.030553	-0.597524
F250	F	-0.416230	-0.780553	-0.347524
F251	F	-0.166230	-0.530553	-0.097524
F252	F	0.083770	-0.280553	0.152476
