data_functionalizedCrystal
_audit_creation_method	'MofGen! by Chris Wilmer'
_symmetry_space_group_name_H-M	'P1'
_symmetry_Int_Tables_number	1
_symmetry_cell_setting	triclinic
loop_
_symmetry_equiv_pos_as_xyz
  x,y,z
_cell_length_a	8.559649
_cell_length_b	8.965430
_cell_length_c	8.597304
_cell_angle_alpha	97.699447
_cell_angle_beta	77.624695
_cell_angle_gamma	90.002970
loop_
_atom_site_label
_atom_site_type_symbol
_atom_site_fract_x
_atom_site_fract_y
_atom_site_fract_z
O1	O	2.119297	0.117185	-0.053154
O2	O	1.655357	0.127588	0.027746
O3	O	1.896457	0.092881	-0.242269
O4	O	1.878198	0.151891	0.216861
O5	O	1.896436	-0.155196	-0.242250
O6	O	1.655337	-0.120489	0.027764
O7	O	2.119277	-0.130892	-0.053135
Cu8	Cu	1.887305	-0.148342	-0.012684
Cu9	Cu	1.887329	0.145037	-0.012706
O10	O	1.878178	-0.096185	0.216879
C11	C	1.595913	0.004338	0.033886
C12	C	1.418818	0.006686	0.052135
N13	N	1.887300	-0.354689	-0.012671
C14	C	1.775764	-0.435948	0.112170
C15	C	1.920357	-0.533690	0.125196
C16	C	1.742768	-0.553075	-0.025691
C17	C	2.031966	-0.450234	0.000417
C18	C	1.854281	-0.469616	-0.150520
C19	C	1.998977	-0.567322	-0.137567
C20	C	2.178721	-0.007639	-0.059275
C21	C	2.355816	-0.009977	-0.077524
C22	C	1.894485	-0.038639	-0.300494
C23	C	1.888621	-0.060931	-0.474012
N24	N	1.887347	0.351383	-0.012733
C25	C	1.880149	0.035338	0.275105
C26	C	1.886013	0.057640	0.448623
H27	H	1.437360	-0.026031	-0.202492
Cl28	Cl	2.144790	-0.655170	-0.300630
H29	H	2.154243	-0.405287	0.011545
Cl30	Cl	1.292917	0.031501	0.245092
H31	H	1.681531	-0.378780	0.217818
Cl32	Cl	1.963528	-0.578050	0.305131
Cl33	Cl	1.811044	-0.425190	-0.330393
Cl34	Cl	1.554029	-0.622729	-0.042660
H35	H	1.888261	0.176217	-0.484864
H36	H	1.886350	-0.179515	-0.540527
