data_functionalizedCrystal
_audit_creation_method	'MofGen! by Chris Wilmer'
_symmetry_space_group_name_H-M	'P1'
_symmetry_Int_Tables_number	1
_symmetry_cell_setting	triclinic
loop_
_symmetry_equiv_pos_as_xyz
  x,y,z
_cell_length_a	16.994686
_cell_length_b	12.759401
_cell_length_c	12.759393
_cell_angle_alpha	89.981504
_cell_angle_beta	89.906263
_cell_angle_gamma	90.085969
loop_
_atom_site_label
_atom_site_type_symbol
_atom_site_fract_x
_atom_site_fract_y
_atom_site_fract_z
Zn1	Zn	-0.313980	-1.606992	0.594896
Zn2	Zn	-0.445908	-1.607195	0.419601
Zn3	Zn	-0.314021	-1.431294	0.419236
Zn4	Zn	-0.445847	-1.431591	0.595242
O5	O	-0.379939	-1.519268	0.507244
O6	O	-0.331489	-1.754040	0.571651
O7	O	-0.428455	-1.583822	0.272531
O8	O	-0.203634	-1.454391	0.442240
O9	O	-0.428415	-1.754189	0.442862
O10	O	-0.203604	-1.583475	0.571297
O11	O	-0.331559	-1.454588	0.272263
O12	O	-0.331500	-1.284312	0.442575
O13	O	-0.428312	-1.454898	0.742217
O14	O	-0.428352	-1.284531	0.571886
O15	O	-0.331430	-1.583764	0.741963
O16	O	-0.556282	-1.584111	0.443197
O17	O	-0.556237	-1.455096	0.572240
C18	C	-0.379924	-1.246301	0.507229
C19	C	-0.379937	-1.129524	0.507248
C20	C	-0.674200	-1.519555	0.507685
C21	C	-0.584878	-1.519578	0.507714
Zn22	Zn	-0.944560	-1.432245	0.417783
Zn23	Zn	-0.813261	-1.430305	0.593906
Zn24	Zn	-0.813141	-1.608215	0.420602
Zn25	Zn	-0.945592	-1.605606	0.595749
O26	O	-0.879138	-1.519093	0.507010
O27	O	-0.926761	-1.284979	0.439196
O28	O	-0.702865	-1.454185	0.571326
O29	O	-0.830092	-1.586776	0.273220
O30	O	-0.830296	-1.283553	0.568593
O31	O	-0.926644	-1.457491	0.271150
O32	O	-0.702777	-1.584895	0.444000
O33	O	-0.831093	-1.754878	0.445786
O34	O	-1.055835	-1.582330	0.571733
O35	O	-0.928404	-1.752961	0.574466
O36	O	-1.055077	-1.454962	0.440983
O37	O	-0.831297	-1.451655	0.741159
O38	O	-0.928520	-1.580449	0.742512
C39	C	-0.174198	-1.518869	0.506686
C40	C	-0.084875	-1.518700	0.506445
C41	C	-0.379859	-1.519341	0.781277
C42	C	-0.379826	-1.519373	0.898053
C43	C	-0.379954	-1.793301	0.507259
C44	C	-0.379961	-1.910078	0.507265
C45	C	-0.430449	-1.074804	0.574470
C46	C	-0.430459	-0.965080	0.574481
C47	C	-0.329444	-0.964806	0.440041
C48	C	-0.329430	-1.074528	0.440035
C49	C	-0.488772	-1.074961	0.652085
C50	C	-0.488782	-0.965237	0.652096
C51	C	-0.379961	-1.519255	0.234276
C52	C	-0.379773	-1.519427	0.117500
C53	C	-0.329374	-1.586482	0.952785
C54	C	-0.329346	-1.586507	1.062509
C55	C	-0.430227	-1.452310	1.062761
C56	C	-0.430251	-1.452281	0.953038
C57	C	-0.271134	-1.663963	0.952641
C58	C	-0.271105	-1.663988	1.062365
C59	C	-0.879848	-1.792037	0.510633
C60	C	-0.880171	-1.908803	0.512207
C61	C	-0.880032	-1.515555	0.779953
C62	C	-0.880391	-1.514012	0.896719
C63	C	-0.878426	-1.245083	0.503374
C64	C	-0.878123	-1.128316	0.501825
C65	C	-0.878240	-1.522641	0.233002
C66	C	-0.877857	-1.524153	0.116235
C67	C	-0.930909	-1.962634	0.580041
C68	C	-0.931220	-2.072349	0.581502
C69	C	-0.830048	-2.074392	0.447290
C70	C	-0.829742	-1.964680	0.445825
C71	C	-0.989318	-1.961455	0.657531
C72	C	-0.989628	-2.071170	0.658991
C73	C	-0.829989	-1.446173	0.950835
C74	C	-0.830346	-1.444706	1.060549
C75	C	-0.931509	-1.578924	1.062020
C76	C	-0.931156	-1.580386	0.952308
C77	C	-0.771580	-1.368686	0.949987
C78	C	-0.771937	-1.367219	1.059700
H79	H	-0.288294	-1.119077	0.385304
H80	H	-1.047697	-2.105407	0.630210
C81	C	-0.800318	-1.266035	1.213782
C82	C	-0.801428	-1.262235	1.104118
H83	H	-0.818536	-1.201230	1.241203
H84	H	-0.748098	-1.278322	1.237129
H85	H	-0.833579	-1.321123	1.237387
H86	H	-0.768162	-1.207152	1.080512
H87	H	-0.853656	-1.249936	1.080761
C88	C	-0.954366	-2.023834	0.834890
C89	C	-0.967875	-2.110012	0.769392
H90	H	-0.940932	-2.047816	0.903041
H91	H	-1.000611	-1.982289	0.838694
H92	H	-0.912382	-1.982960	0.807360
H93	H	-1.009863	-2.150881	0.796918
H94	H	-0.921625	-2.151573	0.765592
C95	C	-0.368246	-1.800781	1.066279
C96	C	-0.293197	-1.773876	1.102650
H97	H	-0.381883	-1.868615	1.091159
H98	H	-0.368263	-1.800772	0.991838
H99	H	-0.405490	-1.751210	1.091190
H100	H	-0.255951	-1.823444	1.077732
H101	H	-0.293174	-1.773894	1.177107
C102	C	-0.529943	-1.319656	1.051987
C103	C	-0.485655	-1.378567	1.123202
H104	H	-0.564159	-1.274126	1.089302
H105	H	-0.560128	-1.365477	1.009278
H106	H	-0.495574	-1.279398	1.009096
H107	H	-0.520024	-1.418832	1.166089
H108	H	-0.455467	-1.332741	1.165930
C109	C	-1.064718	-1.631800	0.918762
C110	C	-0.986564	-1.654952	0.892827
H111	H	-1.098925	-1.677843	0.882045
H112	H	-1.076053	-1.561448	0.899768
H113	H	-1.072180	-1.640427	0.992061
H114	H	-0.979100	-1.646318	0.819529
H115	H	-0.975225	-1.725322	0.911814
H116	H	-0.210046	-1.642051	0.922707
H117	H	-0.472480	-1.104731	0.733444
H118	H	-0.293033	-1.741286	0.918668
H119	H	-0.549858	-0.935584	0.630342
C120	C	-0.976969	-1.636282	1.230855
C121	C	-0.987301	-1.651889	1.123128
H122	H	-1.011410	-1.681336	1.268576
H123	H	-0.988434	-1.565450	1.247823
H124	H	-0.924057	-1.651495	1.249225
H125	H	-1.040212	-1.636669	1.104757
H126	H	-0.975842	-1.722737	1.106153
H127	H	-0.213062	-1.634739	1.096243
C128	C	-0.729775	-1.977725	0.313305
C129	C	-0.773974	-1.905508	0.371254
H130	H	-0.695342	-1.941192	0.267271
H131	H	-0.764180	-2.020937	0.273644
H132	H	-0.699817	-2.020010	0.359704
H133	H	-0.803936	-1.863227	0.324855
H134	H	-0.739564	-1.862277	0.410918
C135	C	-1.121828	-2.006834	0.610648
C136	C	-1.071609	-1.921395	0.627440
H137	H	-1.172627	-1.982100	0.592065
H138	H	-1.125395	-2.047369	0.672929
H139	H	-1.101522	-2.048968	0.555546
H140	H	-1.091912	-1.879265	0.682547
H141	H	-1.068045	-1.880843	0.565152
C142	C	-0.785596	-2.243483	0.389940
C143	C	-0.774614	-2.135816	0.374332
H144	H	-0.751368	-2.281398	0.344902
H145	H	-0.838606	-2.261500	0.374716
H146	H	-0.774250	-2.260568	0.460785
H147	H	-0.785966	-2.118728	0.303488
H148	H	-0.721591	-2.117791	0.389548
H149	H	-0.967502	-1.926482	0.734398
H150	H	-0.787678	-1.287695	0.919045
C151	C	-0.642041	-1.433573	0.987115
C152	C	-0.693174	-1.408750	0.904855
H153	H	-0.593636	-1.458302	0.959249
H154	H	-0.665113	-1.486472	1.029652
H155	H	-0.632687	-1.372770	1.028221
H156	H	-0.702532	-1.469555	0.863753
H157	H	-0.670097	-1.355847	0.862300
H158	H	-0.471330	-1.397630	0.908480
H159	H	-0.288322	-0.920015	0.385319
H160	H	-0.546772	-1.109111	0.622969
H161	H	-0.466976	-0.931188	0.729384
H162	H	-0.710982	-1.388689	1.089993
