data_functionalizedCrystal
_audit_creation_method	'MofGen! by Chris Wilmer'
_symmetry_space_group_name_H-M	'P1'
_symmetry_Int_Tables_number	1
_symmetry_cell_setting	triclinic
loop_
_symmetry_equiv_pos_as_xyz
  x,y,z
_cell_length_a	19.188933
_cell_length_b	19.188924
_cell_length_c	18.266242
_cell_angle_alpha	89.991576
_cell_angle_beta	89.992377
_cell_angle_gamma	83.143767
loop_
_atom_site_label
_atom_site_type_symbol
_atom_site_fract_x
_atom_site_fract_y
_atom_site_fract_z
O1	O	0.926146	0.087175	-0.060860
O2	O	0.722835	0.098908	-0.060867
O3	O	0.830360	-0.008614	-0.060855
O4	O	0.818621	0.194698	-0.060872
O5	O	0.830342	-0.008620	0.060907
O6	O	0.722817	0.098903	0.060895
O7	O	0.926128	0.087170	0.060902
Zn8	Zn	0.824469	0.093036	0.080231
Zn9	Zn	0.824493	0.093043	-0.080196
O10	O	0.818603	0.194692	0.060890
C11	C	0.696815	0.098525	0.000013
C12	C	0.619310	0.097384	0.000011
C13	C	0.066065	0.089242	-0.066353
C14	C	0.138889	0.090310	-0.066356
C15	C	0.175296	0.090844	0.000016
C16	C	0.138876	0.090293	0.066396
C17	C	0.066054	0.089217	0.066397
N18	N	0.284308	0.132261	0.049416
N19	N	0.353486	0.133284	0.049411
C20	C	0.394705	0.094082	0.000017
N21	N	0.364132	0.053828	-0.049382
N22	N	0.294948	0.052808	-0.049379
C23	C	0.254260	0.092010	0.000022
C24	C	0.510082	0.095787	-0.066362
C25	C	0.582908	0.096851	-0.066362
C26	C	0.582892	0.096841	0.066392
C27	C	0.510068	0.095770	0.066390
C28	C	0.473667	0.095246	0.000011
C29	C	0.829972	-0.034628	0.000027
C30	C	0.828833	-0.112133	0.000029
C31	C	0.828311	-0.148529	-0.066344
C32	C	0.827231	-0.221351	-0.066349
C33	C	0.826687	-0.257777	0.000021
C34	C	0.827205	-0.221372	0.066403
C35	C	0.828278	-0.148550	0.066407
N36	N	0.864728	-0.377442	0.049421
N37	N	0.863710	-0.446621	0.049413
C38	C	0.823453	-0.477186	0.000014
N39	N	0.784261	-0.435962	-0.049387
N40	N	0.785282	-0.366777	-0.049381
C41	C	0.825523	-0.336741	0.000025
C42	C	0.821760	-0.592545	-0.066369
C43	C	0.820675	-0.665368	-0.066372
C44	C	0.820656	-0.665389	0.066382
C45	C	0.821733	-0.592566	0.066383
C46	C	0.822288	-0.556149	0.000006
C47	C	0.952148	0.087553	0.000020
C48	C	1.029653	0.088694	0.000018
C49	C	0.818991	0.220706	0.000006
C50	C	0.820130	0.298211	-0.000000
N51	N	0.824458	0.093030	0.189718
N52	N	0.824510	0.093043	-0.189683
C53	C	0.872086	0.045442	0.228032
C54	C	0.872090	0.045439	0.304677
C55	C	0.824474	0.093036	0.343005
C56	C	0.776837	0.140627	0.304681
C57	C	0.776829	0.140624	0.228038
N58	N	0.815397	0.154843	0.463331
N59	N	0.815408	0.154844	0.536140
C60	C	0.824493	0.093046	0.573927
N61	N	0.833580	0.031245	0.536156
N62	N	0.833572	0.031246	0.463341
C63	C	0.824477	0.093044	0.426112
C64	C	0.872129	0.045451	0.695349
C65	C	0.872128	0.045446	0.771995
C66	C	0.776878	0.140640	0.771997
C67	C	0.776875	0.140638	0.695353
C68	C	0.824504	0.093044	0.657033
H69	H	0.036407	0.088774	0.120446
H70	H	0.910867	0.006687	0.196834
C71	C	0.828916	-0.108473	-0.139361
N72	N	0.829369	-0.078302	-0.194359
C73	C	0.724456	0.192980	0.346843
N74	N	0.684998	0.232412	0.378599
H75	H	0.480443	0.095359	-0.120412
H76	H	0.612555	0.097292	-0.120412
H77	H	0.612534	0.097273	0.120433
C78	C	0.924514	-0.006918	0.814141
N79	N	0.963968	-0.046364	0.845885
H80	H	0.910909	0.006694	0.664147
H81	H	0.826802	-0.250990	-0.120400
H82	H	0.910876	0.006686	0.335878
H83	H	0.480420	0.095326	0.120437
H84	H	0.738044	0.179376	0.196841
C85	C	0.826605	-0.261442	0.139411
N86	N	0.826150	-0.291622	0.194403
H87	H	0.820207	-0.695045	0.120423
H88	H	0.738105	0.179391	0.803203
C89	C	0.828856	-0.108514	0.139425
N90	N	0.829293	-0.078358	0.194424
H91	H	0.822208	-0.562892	-0.120418
C92	C	0.724531	0.193040	0.653205
N93	N	0.685118	0.232526	0.621460
C94	C	0.820137	-0.705408	-0.139391
N95	N	0.819745	-0.735569	-0.194391
H96	H	0.822164	-0.562932	0.120431
H97	H	0.036432	0.088813	-0.120404
H98	H	0.168523	0.090726	0.120437
C99	C	0.178950	0.090920	-0.139373
N100	N	0.209121	0.091384	-0.194369
