data_functionalizedCrystal
_audit_creation_method	'MofGen! by Chris Wilmer'
_symmetry_space_group_name_H-M	'P1'
_symmetry_Int_Tables_number	1
_symmetry_cell_setting	triclinic
loop_
_symmetry_equiv_pos_as_xyz
  x,y,z
_cell_length_a	13.032831
_cell_length_b	17.640280
_cell_length_c	13.033109
_cell_angle_alpha	84.505550
_cell_angle_beta	76.665514
_cell_angle_gamma	70.377065
loop_
_atom_site_label
_atom_site_type_symbol
_atom_site_fract_x
_atom_site_fract_y
_atom_site_fract_z
Zn1	Zn	1.831996	-0.555691	-0.674763
Zn2	Zn	1.836135	-0.668645	-0.470386
Zn3	Zn	1.622695	-0.517244	-0.483764
Zn4	Zn	1.681133	-0.668575	-0.625447
O5	O	1.742990	-0.602539	-0.563590
O6	O	1.985007	-0.586793	-0.662692
O7	O	1.785098	-0.632500	-0.327334
O8	O	1.624270	-0.411739	-0.535338
O9	O	1.988048	-0.669781	-0.512537
O10	O	1.778043	-0.439986	-0.675664
O11	O	1.628284	-0.521266	-0.337163
O12	O	1.477985	-0.521199	-0.487519
O13	O	1.723870	-0.669662	-0.776816
O14	O	1.520920	-0.632382	-0.591612
O15	O	1.834708	-0.586726	-0.813048
O16	O	1.841763	-0.779240	-0.464718
O17	O	1.727884	-0.779189	-0.578640
C18	C	1.459921	-0.572611	-0.535666
C19	C	1.338832	-0.559830	-0.523740
C20	C	1.306120	-0.609209	-0.569814
C21	C	1.180968	-0.596001	-0.557489
C22	C	1.791647	-0.807899	-0.514901
C23	C	1.812568	-0.895768	-0.494117
C24	C	1.584563	-1.184686	-0.721910
C25	C	1.604218	-1.267248	-0.702347
C26	C	1.722908	-1.267260	-0.583862
C27	C	1.703267	-1.184697	-0.603419
C28	C	1.634093	-1.143416	-0.672443
C29	C	1.752797	-1.143427	-0.553952
C30	C	1.733152	-1.060870	-0.573504
C31	C	1.663978	-1.019583	-0.642523
C32	C	1.614448	-1.060859	-0.691995
C33	C	1.821964	-1.184708	-0.484923
C34	C	1.871494	-1.143438	-0.435456
C35	C	1.851856	-1.060881	-0.455013
C36	C	1.782682	-1.019594	-0.524032
C37	C	1.901386	-1.019605	-0.405541
C38	C	1.881742	-0.937048	-0.425093
C39	C	1.763038	-0.937037	-0.543583
C40	C	2.027164	-0.632583	-0.591624
C41	C	2.148262	-0.645387	-0.603570
C42	C	1.785346	-0.632475	-0.833534
C43	C	1.803395	-0.645232	-0.948568
C44	C	1.694176	-0.396382	-0.612494
C45	C	1.673375	-0.308530	-0.633334
C46	C	1.733854	-0.595883	-1.004716
C47	C	1.752508	-0.609067	-1.123610
C48	C	1.700848	-0.572669	-0.294716
C49	C	1.682957	-0.559711	-0.179757
H50	H	1.370768	-0.661261	-0.618389
Br51	Br	1.637632	-0.907599	-0.669350
Br52	Br	1.925642	-0.731928	-1.015139
H53	H	1.660504	-0.543876	-0.964766
Br54	Br	1.816785	-1.323291	-0.490191
H55	H	1.274183	-0.507773	-0.475175
Br56	Br	1.490698	-1.128657	-0.815601
Br57	Br	1.874759	-0.695766	-1.190177
Br58	Br	1.073229	-0.509227	-0.476539
H59	H	1.212906	-0.697441	-0.652151
H60	H	1.706718	-0.903427	-0.599798
Br61	Br	1.560670	-0.473037	-1.113182
H62	H	1.558129	-1.027249	-0.748210
H63	H	1.563895	-1.300850	-0.742648
H64	H	1.927812	-1.177060	-0.379253
Br65	Br	1.995250	-1.075636	-0.311858
H66	H	1.837960	-1.251932	-0.469009
H67	H	1.922073	-0.903446	-0.384810
