data_functionalizedCrystal
_audit_creation_method	'MofGen! by Chris Wilmer'
_symmetry_space_group_name_H-M	'P1'
_symmetry_Int_Tables_number	1
_symmetry_cell_setting	triclinic
loop_
_symmetry_equiv_pos_as_xyz
  x,y,z
_cell_length_a	13.185407
_cell_length_b	9.616153
_cell_length_c	13.339070
_cell_angle_alpha	90.004341
_cell_angle_beta	83.801389
_cell_angle_gamma	90.002596
loop_
_atom_site_label
_atom_site_type_symbol
_atom_site_fract_x
_atom_site_fract_y
_atom_site_fract_z
O1	O	1.373292	0.115613	-0.243483
O2	O	1.084460	0.115621	-0.148745
O3	O	1.195727	0.115614	-0.334353
O4	O	1.262025	0.115620	-0.057875
O5	O	1.195718	-0.115677	-0.334361
O6	O	1.084451	-0.115670	-0.148754
O7	O	1.373283	-0.115678	-0.243491
Zn8	Zn	1.228865	-0.152397	-0.196124
Zn9	Zn	1.228877	0.152340	-0.196113
O10	O	1.262016	-0.115671	-0.057883
C11	C	1.046733	-0.000023	-0.139145
C12	C	0.934328	-0.000020	-0.110538
N13	N	1.228864	-0.360371	-0.196134
C14	C	0.562466	-0.000032	-0.383552
C15	C	0.668075	-0.000044	-0.410433
C16	C	0.734643	-0.000038	-0.335461
C17	C	0.695592	-0.000020	-0.233605
C18	C	0.589973	-0.000019	-0.206722
C19	C	0.762150	-0.000025	-0.158631
C20	C	0.723099	-0.000007	-0.056775
C21	C	0.617490	-0.000005	-0.029896
C22	C	0.550922	-0.000012	-0.104867
C23	C	0.867770	-0.000026	-0.185514
C24	C	0.895277	-0.000013	-0.008684
C25	C	0.789668	-0.000001	0.018197
C26	C	1.288768	-0.580702	-0.295244
C27	C	1.288462	-0.419534	-0.295472
C28	C	1.117306	-0.418900	-0.188816
C29	C	1.117638	-0.580117	-0.189486
C30	C	1.279678	-0.580244	-0.103816
C31	C	1.281861	-0.419016	-0.105127
C32	C	1.411010	-0.000031	-0.253091
C33	C	1.523415	-0.000025	-0.281698
C34	C	1.184524	-0.000030	-0.368997
C35	C	1.151143	-0.000023	-0.472211
N36	N	1.228884	0.360314	-0.196112
C37	C	1.410698	-0.000031	-0.907668
C38	C	1.442064	-0.000045	-0.810695
C39	C	1.369336	-0.000039	-0.726070
C40	C	1.265237	-0.000020	-0.738426
C41	C	1.233867	-0.000017	-0.835409
C42	C	1.192506	-0.000025	-0.653810
C43	C	1.088406	-0.000006	-0.666167
C44	C	1.057042	-0.000002	-0.763141
C45	C	1.129770	-0.000008	-0.847766
C46	C	1.223876	-0.000028	-0.556828
C47	C	1.047045	-0.000014	-0.484568
C48	C	1.015679	0.000000	-0.581541
C49	C	1.273219	-0.000024	-0.023239
C50	C	1.306600	-0.000022	0.079975
H51	H	0.820635	-0.000047	-0.357354
H52	H	1.070214	-0.619137	-0.118540
H53	H	0.464925	0.000005	-0.082986
C54	C	0.490361	-0.000109	-0.465088
C55	C	0.547159	-0.000149	-0.560044
C56	C	0.480769	-0.000239	-0.635185
H57	H	0.448564	0.080524	-0.458410
H58	H	0.448602	-0.080799	-0.458334
H59	H	0.588900	0.080533	-0.566795
H60	H	0.588952	-0.080776	-0.566755
H61	H	0.439010	-0.080929	-0.628431
H62	H	0.438976	0.080396	-0.628497
H63	H	0.519296	-0.000279	-0.699621
C64	C	1.221834	-0.630836	-0.005861
C65	C	1.184022	-0.516335	0.051313
C66	C	1.130715	-0.562894	0.141541
H67	H	1.266466	-0.682669	0.031216
H68	H	1.166674	-0.688242	-0.020521
H69	H	1.239175	-0.458952	0.065975
H70	H	1.139376	-0.464490	0.014266
H71	H	1.075555	-0.620300	0.126881
H72	H	1.175354	-0.614727	0.178609
H73	H	1.105045	-0.485214	0.180340
H74	H	1.308634	-0.000044	-0.546778
C75	C	0.943973	0.000075	-0.776350
C76	C	0.886993	0.000115	-0.681487
C77	C	0.782832	0.000202	-0.693613
H78	H	0.927918	-0.080559	-0.812629
H79	H	0.928020	0.080764	-0.812633
H80	H	0.902939	-0.080567	-0.645218
H81	H	0.903017	0.080742	-0.645192
H82	H	0.766879	0.080892	-0.729897
H83	H	0.766787	-0.080433	-0.729896
H84	H	0.744158	0.000242	-0.629253
H85	H	0.899554	-0.000038	-0.268447
H86	H	0.949477	-0.000012	0.052364
H87	H	0.699863	-0.000064	-0.493364
H88	H	0.585698	-0.000005	0.053042
C89	C	1.555046	0.000161	-0.797135
C90	C	1.578224	0.119134	-0.743543
C91	C	1.682296	0.119365	-0.731024
H92	H	1.593981	0.000233	-0.861350
H93	H	1.570980	-0.080456	-0.760762
H94	H	1.562300	0.199730	-0.779916
H95	H	1.539315	0.119087	-0.679320
H96	H	1.698231	0.038747	-0.694651
H97	H	1.721222	0.119433	-0.795242
H98	H	1.698035	0.200079	-0.694653
H99	H	0.757857	0.000013	0.101129
C100	C	1.397834	-0.367030	-0.306989
C101	C	1.464790	-0.480468	-0.313795
C102	C	1.565555	-0.432163	-0.324426
H103	H	1.409191	-0.311979	-0.250134
H104	H	1.409415	-0.312379	-0.366456
H105	H	1.453214	-0.535095	-0.254335
H106	H	1.453465	-0.535530	-0.370649
H107	H	1.577136	-0.377512	-0.383893
H108	H	1.576902	-0.377111	-0.267569
H109	H	1.610997	-0.509121	-0.329055
H110	H	1.370944	-0.619464	-0.304107
H111	H	0.987824	-0.000016	-0.415664
H112	H	1.253576	-0.621233	-0.363972
H113	H	1.252945	-0.380982	-0.364561
C114	C	1.063973	-0.630014	-0.278153
C115	C	1.031550	-0.515004	-0.330613
C116	C	0.982121	-0.560907	-0.412307
H117	H	1.006595	-0.685004	-0.254135
H118	H	1.109828	-0.684163	-0.322015
H119	H	0.985698	-0.460878	-0.286758
H120	H	1.088909	-0.460002	-0.354654
H121	H	1.027976	-0.615056	-0.456170
H122	H	0.924747	-0.615897	-0.388280
H123	H	0.960125	-0.482880	-0.447917
H124	H	1.070438	-0.380579	-0.117337
H125	H	1.076835	-0.378538	-0.254315
C126	C	1.387962	-0.634520	-0.103953
C127	C	1.411076	-0.722415	-0.186963
C128	C	1.510823	-0.772422	-0.187144
H129	H	1.393650	-0.684816	-0.043530
H130	H	1.434263	-0.558513	-0.108209
H131	H	1.364788	-0.798410	-0.182699
H132	H	1.405410	-0.672150	-0.247400
H133	H	1.557124	-0.696416	-0.191400
H134	H	1.516502	-0.822712	-0.126717
H135	H	1.526522	-0.832054	-0.243470
C136	C	1.391457	-0.367927	-0.111427
C137	C	1.405239	-0.290940	-0.024838
C138	C	1.506187	-0.243859	-0.030603
H139	H	1.405594	-0.310773	-0.169327
H140	H	1.436450	-0.445380	-0.116156
H141	H	1.360260	-0.213499	-0.020119
H142	H	1.391124	-0.348066	0.033076
H143	H	1.551181	-0.321312	-0.035332
H144	H	1.520315	-0.186710	-0.088506
H145	H	1.515554	-0.191630	0.028150
H146	H	1.104236	0.000009	-0.926733
H147	H	0.930919	0.000015	-0.591617
H148	H	1.243334	-0.378739	-0.030118
H149	H	1.394881	-0.000051	-0.647112
H150	H	1.469901	-0.000047	-0.976575
