data_functionalizedCrystal
_audit_creation_method	'MofGen! by Chris Wilmer'
_symmetry_space_group_name_H-M	'P1'
_symmetry_Int_Tables_number	1
_symmetry_cell_setting	triclinic
loop_
_symmetry_equiv_pos_as_xyz
  x,y,z
_cell_length_a	18.101395
_cell_length_b	16.959455
_cell_length_c	16.959447
_cell_angle_alpha	89.984772
_cell_angle_beta	90.029468
_cell_angle_gamma	89.974126
loop_
_atom_site_label
_atom_site_type_symbol
_atom_site_fract_x
_atom_site_fract_y
_atom_site_fract_z
Zn1	Zn	-0.294918	-1.208323	0.446932
Zn2	Zn	-0.418771	-1.208220	0.314756
Zn3	Zn	-0.294937	-1.076152	0.314768
Zn4	Zn	-0.418711	-1.076091	0.446892
O5	O	-0.356834	-1.142196	0.380837
O6	O	-0.311365	-1.318920	0.429411
O7	O	-0.402377	-1.190683	0.204146
O8	O	-0.191302	-1.093753	0.332322
O9	O	-0.402359	-1.318845	0.332301
O10	O	-0.191288	-1.190859	0.429422
O11	O	-0.311397	-1.093653	0.204155
O12	O	-0.311338	-0.965533	0.332283
O13	O	-0.402257	-1.093649	0.557509
O14	O	-0.402275	-0.965488	0.429354
O15	O	-0.311307	-1.190800	0.557538
O16	O	-0.522396	-1.190624	0.332262
O17	O	-0.522352	-1.093550	0.429342
C18	C	-0.356803	-0.936830	0.380816
C19	C	-0.356807	-0.848974	0.380825
C20	C	-0.549245	-1.142091	0.380814
C21	C	-0.631559	-1.142118	0.380830
C22	C	-0.309421	-0.477497	0.330387
C23	C	-0.404261	-0.477499	0.431311
C24	C	-0.404254	-0.560045	0.431308
C25	C	-0.356830	-0.601321	0.380842
C26	C	-0.309414	-0.560050	0.330380
C27	C	-0.451674	-0.601321	0.481763
C28	C	-0.451669	-0.683872	0.481761
C29	C	-0.404241	-0.725150	0.431299
C30	C	-0.356822	-0.683874	0.380836
C31	C	-0.309399	-0.725150	0.330370
C32	C	-0.261976	-0.683876	0.279910
C33	C	-0.261986	-0.601327	0.279918
C34	C	-0.404231	-0.807698	0.431291
C35	C	-0.309391	-0.807703	0.330363
C36	C	-0.930650	-1.142291	0.380873
C37	C	-0.899328	-1.081356	0.442105
C38	C	-0.813710	-1.081066	0.441913
C39	C	-0.782268	-1.142205	0.380852
C40	C	-0.813420	-1.119658	0.297548
C41	C	-0.899065	-1.119266	0.297914
C42	C	-0.899000	-1.225907	0.402213
C43	C	-0.813349	-1.225415	0.404040
C44	C	-0.698408	-1.142158	0.380836
C45	C	-1.014509	-1.142337	0.380884
C46	C	-0.163673	-1.142324	0.380878
C47	C	-0.081358	-1.142379	0.380895
C48	C	-0.356773	-1.142229	0.587005
C49	C	-0.356747	-1.142243	0.674862
C50	C	-0.356858	-0.348365	0.380855
C51	C	-0.356845	-0.436221	0.380853
C52	C	-0.356842	-1.142209	0.175471
C53	C	-0.356660	-1.142348	0.087615
C54	C	-0.404022	-1.091756	1.046325
C55	C	-0.309315	-1.192920	1.046351
C56	C	-0.309331	-1.192899	0.963805
C57	C	-0.356694	-1.142306	0.922515
C58	C	-0.404041	-1.091735	0.963771
C59	C	-0.261990	-1.243475	0.922542
C60	C	-0.262004	-1.243456	0.839991
C61	C	-0.309364	-1.192859	0.798700
C62	C	-0.356713	-1.142285	0.839962
C63	C	-0.404076	-1.091693	0.798672
C64	C	-0.451421	-1.041114	0.839932
C65	C	-0.451401	-1.041138	0.922480
C66	C	-0.309384	-1.192836	0.716152
C67	C	-0.404094	-1.091672	0.716118
H68	H	-0.270768	-0.841304	0.289273
H69	H	-0.489987	-0.999926	0.806303
H70	H	-0.792031	-1.059184	0.279147
F71	F	-0.454702	-0.851621	0.484985
H72	H	-0.793282	-1.019089	0.427778
H73	H	-0.489949	-0.999962	0.956081
F74	F	-0.502161	-0.557389	0.535447
F75	F	-0.927163	-1.252777	0.480259
H76	H	-0.223434	-1.284669	0.956166
F77	F	-0.258950	-0.433571	0.276690
F78	F	-0.454406	-1.037927	1.090236
H79	H	-0.270759	-1.234114	1.079974
H80	H	-0.919103	-1.058143	0.279837
F81	F	-0.259004	-1.246666	0.672244
H82	H	-0.223453	-1.284640	0.806405
H83	H	-0.792645	-1.095172	0.503683
H84	H	-0.442876	-0.443888	0.472393
F85	F	-0.502138	-0.727792	0.535465
H86	H	-0.919875	-1.095322	0.504074
F87	F	-0.926153	-1.174753	0.236245
H88	H	-0.792985	-1.242417	0.465347
H89	H	-0.223367	-0.717493	0.238818
F90	F	-0.927549	-1.000841	0.423875
F91	F	-0.785364	-1.287898	0.350001
H92	H	-0.793055	-1.162645	0.250681
F93	F	-0.925487	-1.285250	0.343931
H94	H	-0.442657	-1.050466	0.682506
F95	F	-0.211520	-0.557396	0.226220
