data_functionalizedCrystal
_audit_creation_method	'MofGen! by Chris Wilmer'
_symmetry_space_group_name_H-M	'P1'
_symmetry_Int_Tables_number	1
_symmetry_cell_setting	triclinic
loop_
_symmetry_equiv_pos_as_xyz
  x,y,z
_cell_length_a	21.395364
_cell_length_b	19.805405
_cell_length_c	19.805407
_cell_angle_alpha	90.010665
_cell_angle_beta	90.004597
_cell_angle_gamma	90.041677
loop_
_atom_site_label
_atom_site_type_symbol
_atom_site_fract_x
_atom_site_fract_y
_atom_site_fract_z
Zn1	Zn	0.957753	-0.269315	0.382707
Zn2	Zn	0.957699	-0.382472	0.269521
Zn3	Zn	0.853005	-0.269332	0.269534
Zn4	Zn	0.852945	-0.382497	0.382669
O5	O	0.905350	-0.325904	0.326108
O6	O	1.045424	-0.284308	0.367703
O7	O	0.943814	-0.367461	0.174806
O8	O	0.866947	-0.174613	0.284567
O9	O	1.045384	-0.367444	0.284546
O10	O	0.943906	-0.174601	0.367716
O11	O	0.866895	-0.284337	0.174815
O12	O	0.765319	-0.284361	0.284531
O13	O	0.866845	-0.367487	0.477391
O14	O	0.765275	-0.367503	0.367651
O15	O	0.943847	-0.284333	0.477419
O16	O	0.943756	-0.477192	0.284509
O17	O	0.866793	-0.477211	0.367639
C18	C	0.742563	-0.325937	0.326089
C19	C	0.672922	-0.325968	0.326097
C20	C	0.640251	-0.282750	0.369464
C21	C	0.574816	-0.282732	0.369466
C22	C	0.542053	-0.325944	0.326109
C23	C	0.574731	-0.369165	0.282734
C24	C	0.640166	-0.369177	0.282727
C25	C	0.438335	-0.386897	0.320668
C26	C	0.372902	-0.386887	0.320679
C27	C	0.340232	-0.325906	0.326124
C28	C	0.373004	-0.264935	0.331572
C29	C	0.438439	-0.264947	0.331566
C30	C	0.471101	-0.325935	0.326110
C31	C	0.236610	-0.282665	0.369496
C32	C	0.171173	-0.282646	0.369494
C33	C	0.171090	-0.369085	0.282765
C34	C	0.236525	-0.369098	0.282763
C35	C	0.269281	-0.325889	0.326133
C36	C	0.905279	-0.501760	0.326083
C37	C	0.905306	-0.576992	0.326095
C38	C	0.945354	-0.612272	0.369425
C39	C	0.945377	-0.682960	0.369437
C40	C	0.905354	-0.718368	0.326117
C41	C	0.865301	-0.683083	0.282786
C42	C	0.865276	-0.612396	0.282777
C43	C	0.865401	-0.968157	0.282820
C44	C	0.865431	-1.038849	0.282831
C45	C	0.945503	-1.038721	0.369480
C46	C	0.945478	-0.968034	0.369472
C47	C	0.905423	-0.932755	0.326144
C48	C	0.905398	-0.856107	0.326131
C49	C	0.905381	-0.795015	0.326125
C50	C	1.068774	-0.325872	0.326127
C51	C	1.138415	-0.325858	0.326135
C52	C	0.905346	-0.325911	0.502650
C53	C	0.905343	-0.325914	0.577882
C54	C	0.905439	-0.149362	0.326147
C55	C	0.905477	-0.074130	0.326164
C56	C	0.945437	-0.282611	1.039689
C57	C	0.945439	-0.282614	0.969000
C58	C	0.905348	-0.325908	0.933644
C59	C	0.865257	-0.369207	0.968980
C60	C	0.865259	-0.369207	1.039667
C61	C	0.865251	-0.369210	0.683907
C62	C	0.865251	-0.369205	0.613214
C63	C	0.945430	-0.282616	0.613240
C64	C	0.945432	-0.282616	0.683927
C65	C	0.905344	-0.325917	0.719257
C66	C	0.905343	-0.325914	0.795905
C67	C	0.905345	-0.325908	0.856997
C68	C	0.905349	-0.325912	1.150252
C69	C	0.905348	-0.325905	1.075020
H70	H	0.465119	-0.215302	0.336000
F71	F	0.822579	-0.415288	0.575587
F72	F	0.988108	-0.236534	0.931402
H73	H	0.346224	-0.436533	0.316246
H74	H	0.346407	-0.215279	0.336006
F75	F	0.822592	-0.415288	1.077268
F76	F	0.988077	-0.930354	0.415577
F77	F	0.822587	-0.415297	0.721498
H78	H	0.977993	-0.711682	0.404715
H79	H	0.978076	-0.247359	0.712711
F80	F	0.136403	-0.236642	0.415651
H81	H	0.144415	-0.404269	0.247462
F82	F	0.473097	-0.451805	0.314865
F83	F	0.539862	-0.415152	0.236587
H84	H	0.978115	-1.067453	0.404763
H85	H	0.832837	-1.067676	0.247553
F86	F	0.271473	-0.236675	0.415649
F87	F	0.674937	-0.415176	0.236566
H88	H	0.977948	-0.583448	0.404698
H89	H	0.832618	-0.404462	0.940187
F90	F	0.822767	-0.930620	0.236712
H91	H	0.978079	-0.247351	1.068471
H92	H	0.832711	-0.711918	0.247516
F93	F	0.271297	-0.415095	0.236603
F94	F	0.988096	-0.236529	0.575634
F95	F	0.675109	-0.236762	0.415620
F96	F	0.822650	-0.574849	0.236661
H97	H	0.548211	-0.247535	0.404780
