data_functionalizedCrystal
_audit_creation_method	'MofGen! by Chris Wilmer'
_symmetry_space_group_name_H-M	'P1'
_symmetry_Int_Tables_number	1
_symmetry_cell_setting	triclinic
loop_
_symmetry_equiv_pos_as_xyz
  x,y,z
_cell_length_a	10.967926
_cell_length_b	14.044190
_cell_length_c	9.482900
_cell_angle_alpha	100.185237
_cell_angle_beta	92.549900
_cell_angle_gamma	88.857419
loop_
_atom_site_label
_atom_site_type_symbol
_atom_site_fract_x
_atom_site_fract_y
_atom_site_fract_z
O1	O	1.628190	0.167989	0.286996
O2	O	1.961524	0.501322	0.620330
O3	O	2.294857	0.834655	0.953663
O4	O	1.279200	0.170075	0.199560
O5	O	1.612534	0.503409	0.532893
O6	O	1.945867	0.836742	0.866227
O7	O	1.448449	0.030855	0.241992
O8	O	1.781782	0.364188	0.575326
O9	O	2.115115	0.697522	0.908659
O10	O	1.458942	0.307209	0.244564
O11	O	1.792276	0.640542	0.577897
O12	O	2.125609	0.973875	0.911231
O13	O	1.414083	0.059253	0.475169
O14	O	1.747417	0.392586	0.808502
O15	O	2.080750	0.725920	1.141836
O16	O	1.244835	0.198473	0.432737
O17	O	1.578168	0.531806	0.766070
O18	O	1.911502	0.865140	1.099403
O19	O	1.593825	0.196386	0.520173
O20	O	1.927158	0.529720	0.853506
O21	O	2.260492	0.863053	1.186840
Cu22	Cu	1.416192	0.200023	0.497746
Cu23	Cu	1.749526	0.533356	0.831079
Cu24	Cu	2.082859	0.866689	1.164412
Cu25	Cu	1.456833	0.166439	0.221987
Cu26	Cu	1.790167	0.499772	0.555321
Cu27	Cu	2.123500	0.833106	0.888654
O28	O	1.424577	0.335606	0.477741
O29	O	1.757910	0.668940	0.811074
O30	O	2.091243	1.002273	1.144407
C31	C	1.217085	0.181977	0.304891
C32	C	1.550418	0.515310	0.638224
C33	C	1.883751	0.848643	0.971558
C34	C	1.083197	0.175119	0.271348
C35	C	1.416530	0.508452	0.604681
C36	C	1.749864	0.841786	0.938015
C37	C	1.005703	0.186773	0.377186
C38	C	1.339037	0.520106	0.710519
C39	C	1.672370	0.853439	1.043852
C40	C	0.867323	0.179685	0.342520
C41	C	1.200656	0.513019	0.675853
C42	C	1.533990	0.846352	1.009187
C43	C	1.426678	0.009569	0.357435
C44	C	1.760012	0.342903	0.690769
C45	C	2.093345	0.676236	1.024102
C46	C	1.412994	-0.096165	0.354020
C47	C	1.746327	0.237168	0.687353
C48	C	2.079660	0.570502	1.020686
C49	C	1.485028	-0.343775	0.372010
C50	C	1.818361	-0.010442	0.705343
C51	C	2.151694	0.322892	1.038677
C52	C	1.388005	-0.289759	0.347712
C53	C	1.721338	0.043574	0.681045
C54	C	2.054672	0.376908	1.014379
C55	C	1.401912	-0.182033	0.351222
C56	C	1.735245	0.151300	0.684556
C57	C	2.068579	0.484633	1.017889
C58	C	1.471122	-0.451511	0.368500
C59	C	1.804456	-0.118177	0.701833
C60	C	2.137789	0.215156	1.035167
C61	C	1.655941	0.184485	0.414839
C62	C	1.989275	0.517818	0.748172
C63	C	2.322608	0.851151	1.081506
C64	C	1.789830	0.191341	0.448373
C65	C	2.123164	0.524674	0.781706
C66	C	2.456497	0.858008	1.115039
C67	C	1.446348	0.356892	0.362295
C68	C	1.779681	0.690225	0.695628
C69	C	2.113014	1.023559	1.028961
C70	C	1.460033	0.462625	0.365701
C71	C	1.793367	0.795958	0.699034
C72	C	2.126700	1.129292	1.032368
N73	N	1.387616	0.223643	0.691702
N74	N	1.720950	0.556977	1.025035
N75	N	2.054283	0.890310	1.358368
N76	N	1.485418	0.142811	0.028034
N77	N	1.818751	0.476144	0.361367
N78	N	2.152085	0.809478	0.694700
C79	C	1.448396	0.173401	0.779139
C80	C	1.781729	0.506734	1.112472
C81	C	2.115062	0.840067	1.445806
C82	C	1.424630	0.193061	0.940598
C83	C	1.757963	0.526395	1.273931
C84	C	2.091296	0.859728	1.607265
H85	H	0.831227	0.164458	0.226237
H86	H	1.164561	0.497791	0.559570
H87	H	1.497894	0.831125	0.892903
H88	H	1.294496	-0.324419	0.324276
H89	H	1.627830	0.008914	0.657609
H90	H	1.961163	0.342248	0.990943
H91	H	1.555048	0.085234	0.983366
H92	H	1.888382	0.418567	1.316700
H93	H	2.221715	0.751900	1.650033
H94	H	1.578528	-0.309116	0.395451
H95	H	1.911861	0.024217	0.728784
H96	H	2.245194	0.357550	1.062117
H97	H	0.825924	0.206563	0.564657
H98	H	1.159258	0.539896	0.897990
H99	H	1.492591	0.873229	1.231324
H100	H	1.518022	0.115827	0.734467
H101	H	1.851355	0.449160	1.067800
H102	H	2.184688	0.782493	1.401134
H103	H	1.317981	0.281210	0.736373
H104	H	1.651314	0.614543	1.069707
H105	H	1.984648	0.947877	1.403040
H106	H	1.047096	0.159893	0.155072
H107	H	1.380429	0.493226	0.488406
H108	H	1.713762	0.826559	0.821739
H109	H	1.354990	0.250631	0.985263
H110	H	1.688323	0.583965	1.318596
H111	H	2.021656	0.917298	1.651929
H112	H	1.041805	0.201991	0.493461
H113	H	1.375139	0.535325	0.826795
H114	H	1.708472	0.868658	1.160128
