data_functionalizedCrystal
_audit_creation_method	'MofGen! by Chris Wilmer'
_symmetry_space_group_name_H-M	'P1'
_symmetry_Int_Tables_number	1
_symmetry_cell_setting	triclinic
loop_
_symmetry_equiv_pos_as_xyz
  x,y,z
_cell_length_a	18.050591
_cell_length_b	25.639239
_cell_length_c	18.050583
_cell_angle_alpha	89.961658
_cell_angle_beta	89.977979
_cell_angle_gamma	90.034692
loop_
_atom_site_label
_atom_site_type_symbol
_atom_site_fract_x
_atom_site_fract_y
_atom_site_fract_z
Zn1	Zn	1.135247	-0.208169	-0.420021
Zn2	Zn	1.135132	-0.295618	-0.295826
Zn3	Zn	1.011063	-0.208192	-0.295832
Zn4	Zn	1.010991	-0.295569	-0.419962
O5	O	1.073108	-0.251887	-0.357910
O6	O	1.239156	-0.219780	-0.403568
O7	O	1.118657	-0.284050	-0.191902
O8	O	1.027615	-0.135024	-0.312333
O9	O	1.239072	-0.284028	-0.312323
O10	O	1.118852	-0.135007	-0.403574
O11	O	1.027504	-0.219819	-0.191906
O12	O	0.907129	-0.219772	-0.312276
O13	O	1.027491	-0.283945	-0.523894
O14	O	0.907076	-0.283968	-0.403473
O15	O	1.118781	-0.219733	-0.523938
O16	O	1.118587	-0.368776	-0.312266
O17	O	1.027381	-0.368741	-0.403468
C18	C	0.880156	-0.251867	-0.357869
C19	C	0.797610	-0.251872	-0.357869
C20	C	0.598167	-0.216922	-0.308390
C21	C	0.548735	-0.264612	-0.290112
C22	C	0.646480	-0.251888	-0.357903
C23	C	0.548831	-0.204213	-0.376179
C24	C	0.500495	-0.251899	-0.357934
C25	C	0.598135	-0.299603	-0.339589
C26	C	0.598235	-0.239172	-0.425688
C27	C	0.548825	-0.286896	-0.407435
C28	C	0.730578	-0.251880	-0.357883
C29	C	0.416398	-0.251911	-0.357954
C30	C	1.072983	-0.387730	-0.357876
C31	C	1.072998	-0.445844	-0.357886
C32	C	1.120723	-0.806213	-0.310502
C33	C	1.120752	-0.860817	-0.310512
O34	O	1.161200	-0.889059	-0.270187
N35	N	1.073239	-0.888126	-0.357959
C36	C	1.025699	-0.860828	-0.405405
O37	O	0.985289	-0.889070	-0.445764
C38	C	1.025675	-0.806225	-0.405398
C39	C	1.073186	-0.778918	-0.357943
C40	C	1.168231	-0.778906	-0.263051
C41	C	1.168201	-0.724306	-0.263040
C42	C	1.120663	-0.697011	-0.310481
C43	C	1.073156	-0.724318	-0.357932
C44	C	0.978139	-0.778928	-0.452847
C45	C	0.978119	-0.724321	-0.452837
C46	C	1.025630	-0.697014	-0.405381
C47	C	1.025588	-0.642423	-0.405362
N48	N	1.073101	-0.615114	-0.357914
C49	C	1.120639	-0.642408	-0.310474
C50	C	1.025755	-0.975499	-0.405416
C51	C	1.025775	-1.030101	-0.405420
C52	C	1.120829	-1.030086	-0.310528
C53	C	1.120805	-0.975483	-0.310521
C54	C	1.073268	-0.948189	-0.357969
C55	C	1.120572	-0.527743	-0.310455
C56	C	1.120536	-0.473138	-0.310446
C57	C	1.025485	-0.473157	-0.405340
C58	C	1.025518	-0.527758	-0.405347
C59	C	1.073068	-0.555049	-0.357901
O60	O	0.985163	-0.614147	-0.445668
O61	O	1.161049	-0.614159	-0.270129
C62	C	1.266814	-0.251907	-0.357952
C63	C	1.349360	-0.251915	-0.357970
C64	C	1.073141	-0.251831	-0.551616
C65	C	1.073155	-0.251807	-0.634162
C66	C	1.073254	-0.115514	-0.357961
C67	C	1.073316	-0.057400	-0.357982
C68	C	1.122848	-0.216872	-0.833636
C69	C	1.055118	-0.204072	-0.883024
C70	C	1.073185	-0.251798	-0.785292
C71	C	1.140943	-0.264565	-0.882986
C72	C	1.073220	-0.251789	-0.931277
C73	C	1.005419	-0.238974	-0.833593
C74	C	1.091289	-0.299489	-0.833550
C75	C	1.023512	-0.286708	-0.882916
C76	C	1.073166	-0.251803	-0.701194
C77	C	1.073231	-0.251785	-1.015374
C78	C	1.073118	-0.251905	-0.164958
C79	C	1.073248	-0.251781	-0.082413
H80	H	1.159224	-0.450907	-0.271799
H81	H	0.527134	-0.163897	-0.391599
H82	H	0.619832	-0.187384	-0.266473
H83	H	0.939410	-0.702101	-0.491477
H84	H	0.619995	-0.228395	-0.482982
H85	H	1.159293	-0.549957	-0.271822
O86	O	1.214431	-0.697865	-0.216926
C87	C	1.256379	-0.733674	-0.175052
H88	H	1.258936	-0.772577	-0.205483
H89	H	1.229228	-0.739530	-0.118618
C90	C	1.332282	-0.664545	-0.127057
C91	C	1.335428	-0.712326	-0.164437
H92	H	1.381042	-0.651376	-0.120506
H93	H	1.304020	-0.640419	-0.155267
H94	H	1.309654	-0.669431	-0.080034
H95	H	1.358048	-0.707438	-0.211463
H96	H	1.363696	-0.736450	-0.136236
H97	H	1.206946	-0.801123	-0.224419
H98	H	1.159493	-0.953253	-0.271879
H99	H	1.039816	-0.163737	-0.904756
H100	H	1.159540	-1.052319	-0.271902
O101	O	0.973420	-0.322003	-0.908493
C102	C	0.992000	-0.372106	-0.882191
H103	H	1.027015	-0.368336	-0.829919
H104	H	1.024820	-0.393827	-0.926440
C105	C	0.877655	-0.407217	-0.928496
C106	C	0.920656	-0.402587	-0.864292
H107	H	0.833648	-0.426021	-0.917458
H108	H	0.865138	-0.373462	-0.946219
H109	H	0.905013	-0.425317	-0.965364
H110	H	0.893301	-0.384483	-0.827428
H111	H	0.933167	-0.436340	-0.846562
H112	H	0.986833	-0.549992	-0.443991
O113	O	0.623821	-0.347754	-0.321202
C114	C	0.598077	-0.384585	-0.373151
H115	H	0.583967	-0.363948	-0.427292
H116	H	0.546436	-0.404666	-0.350521
C117	C	0.676103	-0.450911	-0.320833
C118	C	0.658779	-0.425566	-0.387333
H119	H	0.713545	-0.476192	-0.329579
H120	H	0.693446	-0.426099	-0.285832
H121	H	0.633064	-0.467641	-0.301981
H122	H	0.701816	-0.408831	-0.406178
H123	H	0.641445	-0.450376	-0.422337
O124	O	1.209340	-0.277395	-0.908781
C125	C	1.261497	-0.240464	-0.883689
H126	H	1.239503	-0.220549	-0.831700
H127	H	1.271252	-0.210011	-0.928703
C128	C	1.362019	-0.292619	-0.929554
C129	C	1.335008	-0.268163	-0.865697
H130	H	1.407366	-0.309704	-0.918458
H131	H	1.326880	-0.317499	-0.946462
H132	H	1.370142	-0.267237	-0.967059
H133	H	1.326877	-0.293545	-0.828196
H134	H	1.370147	-0.243287	-0.848782
O135	O	1.109695	-0.347579	-0.807634
C136	C	1.181183	-0.360900	-0.832771
H137	H	1.213266	-0.323852	-0.846678
H138	H	1.176481	-0.386261	-0.884411
C139	C	1.182879	-0.436740	-0.754605
C140	C	1.222286	-0.391237	-0.771680
H141	H	1.208233	-0.455456	-0.716923
H142	H	1.134715	-0.427767	-0.737671
H143	H	1.178963	-0.457868	-0.797643
H144	H	1.226193	-0.370107	-0.728644
H145	H	1.270452	-0.400208	-0.788605
H146	H	0.939447	-0.801151	-0.491487
O147	O	0.979498	-0.949069	-0.451528
C148	C	0.937585	-0.984886	-0.493415
H149	H	0.935059	-1.023826	-0.462993
H150	H	0.964746	-0.990647	-0.549847
C151	C	0.861628	-0.915803	-0.541400
C152	C	0.858519	-0.963628	-0.504032
H153	H	0.812857	-0.902690	-0.547953
H154	H	0.889866	-0.891672	-0.513182
H155	H	0.884265	-0.920611	-0.588423
H156	H	0.835891	-0.958819	-0.457008
H157	H	0.830275	-0.987758	-0.532243
O158	O	0.979721	-1.056680	-0.451550
C159	C	1.021987	-1.088197	-0.499583
H160	H	1.078287	-1.096359	-0.473450
H161	H	1.030103	-1.067113	-0.554619
C162	C	0.911989	-1.130058	-0.545103
C163	C	0.981136	-1.140086	-0.513004
H164	H	0.886790	-1.162064	-0.553385
H165	H	0.883514	-1.108823	-0.512745
H166	H	0.918763	-1.112486	-0.590963
H167	H	0.974362	-1.157651	-0.467140
H168	H	1.009610	-1.161325	-0.545355
O169	O	0.523226	-0.322183	-0.457496
C170	C	0.549548	-0.309113	-0.528682
H171	H	0.601836	-0.284443	-0.523363
H172	H	0.505321	-0.286031	-0.559609
C173	C	0.503193	-0.389644	-0.578384
C174	C	0.567418	-0.359347	-0.571851
H175	H	0.514212	-0.420630	-0.605014
H176	H	0.485456	-0.398449	-0.530425
H177	H	0.466342	-0.370403	-0.604154
H178	H	0.604263	-0.378586	-0.546073
H179	H	0.585161	-0.350547	-0.619807
H180	H	1.164778	-0.187317	-0.811995
O181	O	0.522825	-0.277367	-0.221697
C182	C	0.547975	-0.240408	-0.169643
H183	H	0.561880	-0.202360	-0.199271
H184	H	0.599619	-0.255930	-0.140762
C185	C	0.469823	-0.277195	-0.075379
C186	C	0.486895	-0.230462	-0.111769
H187	H	0.432148	-0.271061	-0.039678
H188	H	0.452881	-0.302096	-0.110448
H189	H	0.512865	-0.290125	-0.051319
H190	H	0.443856	-0.217536	-0.135836
H191	H	0.503829	-0.205558	-0.076703
H192	H	0.986778	-0.450926	-0.443964
O193	O	0.937107	-0.226015	-0.807701
C194	C	0.937917	-0.226169	-0.729596
H195	H	0.997098	-0.220360	-0.709164
H196	H	0.915814	-0.265083	-0.708415
C197	C	0.816025	-0.188749	-0.725582
C198	C	0.888713	-0.181611	-0.700488
H199	H	0.785671	-0.161266	-0.707625
H200	H	0.815478	-0.188648	-0.778203
H201	H	0.797616	-0.221179	-0.707930
H202	H	0.907123	-0.149185	-0.718147
H203	H	0.889261	-0.181707	-0.647868
