data_functionalizedCrystal
_audit_creation_method	'MofGen! by Chris Wilmer'
_symmetry_space_group_name_H-M	'P1'
_symmetry_Int_Tables_number	1
_symmetry_cell_setting	triclinic
loop_
_symmetry_equiv_pos_as_xyz
  x,y,z
_cell_length_a	10.489711
_cell_length_b	10.489741
_cell_length_c	7.540329
_cell_angle_alpha	89.996684
_cell_angle_beta	89.995502
_cell_angle_gamma	84.533091
loop_
_atom_site_label
_atom_site_type_symbol
_atom_site_fract_x
_atom_site_fract_y
_atom_site_fract_z
O1	O	1.694073	0.179785	-0.147546
O2	O	1.322873	0.196718	-0.147535
O3	O	1.516919	0.002653	-0.147530
O4	O	1.500026	0.373850	-0.147551
O5	O	1.516908	0.002650	0.147435
O6	O	1.322861	0.196715	0.147430
O7	O	1.694061	0.179783	0.147419
Cu8	Cu	1.508460	0.188249	0.174357
Cu9	Cu	1.508474	0.188252	-0.174473
O10	O	1.500015	0.373848	0.147414
C11	C	1.275334	0.195446	-0.000051
C12	C	1.133703	0.191644	-0.000047
C13	C	0.951317	0.308348	-0.000074
C14	C	1.043468	0.250054	-0.145501
C15	C	1.043429	0.250020	0.145312
C16	C	0.973517	0.126511	-0.145632
C17	C	0.973469	0.126495	0.145311
C18	C	1.065593	0.068111	-0.000151
C19	C	1.515638	-0.044880	-0.000048
C20	C	1.511820	-0.186509	-0.000052
C21	C	1.388354	-0.254636	-0.000061
C22	C	1.446673	-0.346766	0.145370
C23	C	1.446713	-0.346738	-0.145442
C24	C	1.570190	-0.276774	0.145500
C25	C	1.570213	-0.276736	-0.145443
C26	C	1.628622	-0.368839	0.000024
C27	C	1.741600	0.181055	-0.000068
C28	C	1.883231	0.184857	-0.000084
C29	C	1.501296	0.421381	-0.000071
C30	C	1.505114	0.563010	-0.000080
N31	N	1.508460	0.188246	0.419706
N32	N	1.508484	0.188245	-0.419821
H33	H	1.074467	0.302311	-0.268450
H34	H	1.730226	-0.418274	0.000102
H35	H	0.942441	0.074285	0.268272
O36	O	0.936556	0.064318	-0.292430
C37	C	0.760781	-0.009164	-0.457084
C38	C	0.802464	0.061313	-0.290783
H39	H	0.652369	-0.011640	-0.455789
H40	H	0.790110	0.043132	-0.580931
H41	H	0.809032	-0.111250	-0.457587
H42	H	0.754234	0.163402	-0.290108
H43	H	0.773158	0.008919	-0.167012
H44	H	1.622381	-0.245948	0.268589
O45	O	1.124556	-0.053106	-0.000543
C46	C	1.155715	-0.255100	-0.154168
C47	C	1.088882	-0.117851	-0.153958
H48	H	1.126877	-0.307495	-0.278172
H49	H	1.263974	-0.251355	-0.153099
H50	H	1.125704	-0.308089	-0.031300
H51	H	1.118789	-0.064782	-0.276806
H52	H	0.980636	-0.121688	-0.154935
H53	H	1.074380	0.302293	0.268261
H54	H	1.394426	-0.377773	0.268325
H55	H	1.394461	-0.377695	-0.268404
H56	H	0.901626	0.409850	-0.000224
H57	H	1.286841	-0.204974	0.000088
H58	H	1.622415	-0.245696	-0.268404
