data_functionalizedCrystal
_audit_creation_method	'MofGen! by Chris Wilmer'
_symmetry_space_group_name_H-M	'P1'
_symmetry_Int_Tables_number	1
_symmetry_cell_setting	triclinic
loop_
_symmetry_equiv_pos_as_xyz
  x,y,z
_cell_length_a	19.077105
_cell_length_b	29.839131
_cell_length_c	19.076919
_cell_angle_alpha	92.267459
_cell_angle_beta	90.076224
_cell_angle_gamma	87.737628
loop_
_atom_site_label
_atom_site_type_symbol
_atom_site_fract_x
_atom_site_fract_y
_atom_site_fract_z
Zn1	Zn	1.058171	-0.217337	-0.440392
Zn2	Zn	1.558171	0.282663	0.059608
Zn3	Zn	1.062777	-0.289569	-0.322877
Zn4	Zn	1.562777	0.210431	0.177123
Zn5	Zn	0.945391	-0.211319	-0.318186
Zn6	Zn	1.445391	0.288681	0.181814
Zn7	Zn	0.940599	-0.289298	-0.435629
Zn8	Zn	1.440599	0.210702	0.064371
O9	O	1.001735	-0.251881	-0.379271
O10	O	1.501735	0.248119	0.120729
O11	O	1.157112	-0.229551	-0.428760
O12	O	1.657112	0.270449	0.071240
O13	O	1.051139	-0.276784	-0.223924
O14	O	1.551139	0.223216	0.276076
O15	O	0.960429	-0.149253	-0.334427
O16	O	1.460429	0.350747	0.165573
O17	O	1.160497	-0.282620	-0.342422
O18	O	1.660497	0.217380	0.157578
O19	O	1.043288	-0.153674	-0.424211
O20	O	1.543288	0.346326	0.075789
O21	O	0.964896	-0.219294	-0.220477
O22	O	1.464896	0.280706	0.279523
O23	O	0.846425	-0.219031	-0.329809
O24	O	1.346425	0.280969	0.170191
O25	O	0.952262	-0.282158	-0.534592
O26	O	1.452262	0.217842	-0.034592
O27	O	0.842904	-0.276322	-0.416094
O28	O	1.342904	0.223678	0.083906
O29	O	1.038641	-0.229288	-0.538091
O30	O	1.538641	0.270712	-0.038091
O31	O	1.046493	-0.352398	-0.337803
O32	O	1.546493	0.147602	0.162197
O33	O	0.956729	-0.352199	-0.420642
O34	O	1.456729	0.147801	0.079358
C35	C	0.819169	-0.246995	-0.371926
C36	C	1.319169	0.253005	0.128074
C37	C	0.741065	-0.244915	-0.368801
C38	C	1.241065	0.255085	0.131199
C39	C	1.001609	-0.368599	-0.379231
C40	C	1.501609	0.131401	0.120769
C41	C	1.001619	-0.418534	-0.379240
C42	C	1.501619	0.081466	0.120760
C43	C	0.702560	-0.273809	-0.412186
C44	C	1.202560	0.226191	0.087814
C45	C	0.629174	-0.271849	-0.409252
C46	C	1.129174	0.228151	0.090748
C47	C	0.594294	-0.240998	-0.362930
C48	C	1.094294	0.259002	0.137070
C49	C	0.632804	-0.212102	-0.319543
C50	C	1.132804	0.287898	0.180457
C51	C	0.706189	-0.214059	-0.322481
C52	C	1.206189	0.285941	0.177519
C53	C	0.375011	-0.231938	-0.349338
C54	C	0.875011	0.268062	0.150662
C55	C	0.301621	-0.229984	-0.346403
C56	C	0.801621	0.270016	0.153597
C57	C	0.297996	-0.289731	-0.436113
C58	C	0.797996	0.210269	0.063887
C59	C	0.371382	-0.291688	-0.439043
C60	C	0.871382	0.208312	0.060957
C61	C	0.409886	-0.262790	-0.395659
C62	C	0.909886	0.237210	0.104341
N63	N	0.519281	-0.238996	-0.359929
N64	N	1.019281	0.261004	0.140071
N65	N	0.484897	-0.264790	-0.398664
N66	N	0.984897	0.235210	0.101336
C67	C	1.048554	-0.728276	-0.336206
C68	C	1.548554	-0.228276	0.163794
C69	C	1.048639	-0.915952	-0.336237
C70	C	1.548639	-0.415952	0.163763
O71	O	1.088445	-0.940297	-0.299616
O72	O	1.588445	-0.440297	0.200384
N73	N	1.001878	-0.939328	-0.379330
N74	N	1.501878	-0.439328	0.120670
C75	C	0.955095	-0.915782	-0.422422
C76	C	1.455095	-0.415782	0.077578
O77	O	0.915329	-0.939972	-0.459082
O78	O	1.415329	-0.439972	0.040918
C79	C	0.955014	-0.728107	-0.422395
C80	C	1.455014	-0.228107	0.077605
C81	C	1.001773	-0.704734	-0.379293
C82	C	1.501773	-0.204734	0.120707
C83	C	1.095310	-0.704902	-0.293109
C84	C	1.595310	-0.204902	0.206891
C85	C	1.095285	-0.657986	-0.293099
C86	C	1.595285	-0.157986	0.206901
C87	C	1.048505	-0.634443	-0.336186
C88	C	1.548505	-0.134443	0.163814
C89	C	1.001749	-0.657817	-0.379283
C90	C	1.501749	-0.157817	0.120717
C91	C	0.908235	-0.704563	-0.465490
C92	C	1.408235	-0.204563	0.034510
C93	C	0.908220	-0.657641	-0.465480
C94	C	1.408220	-0.157641	0.034520
C95	C	0.954979	-0.634267	-0.422379
C96	C	1.454979	-0.134267	0.077621
C97	C	0.954944	-0.587358	-0.422360
C98	C	1.454944	-0.087358	0.077640
N99	N	1.001705	-0.563982	-0.379267
N100	N	1.501705	-0.063982	0.120733
C101	C	1.048485	-0.587525	-0.336180
C102	C	1.548485	-0.087525	0.163820
C103	C	0.955141	-1.014314	-0.422432
C104	C	1.455141	-0.514314	0.077568
C105	C	0.955160	-1.061233	-0.422439
C106	C	1.455160	-0.561233	0.077561
C107	C	1.048705	-1.061399	-0.336254
C108	C	1.548705	-0.561399	0.163746
C109	C	1.048682	-1.014480	-0.336245
C110	C	1.548682	-0.514480	0.163755
C111	C	1.001902	-0.990938	-0.379339
C112	C	1.501902	-0.490938	0.120661
C113	C	1.048430	-0.488997	-0.336161
C114	C	1.548430	0.011003	0.163839
C115	C	1.048399	-0.442077	-0.336153
C116	C	1.548399	0.057923	0.163847
C117	C	0.954857	-0.441914	-0.422340
C118	C	1.454857	0.058086	0.077660
C119	C	0.954885	-0.488831	-0.422346
C120	C	1.454885	0.011169	0.077654
C121	C	1.001677	-0.512371	-0.379255
C122	C	1.501677	-0.012371	0.120745
O123	O	0.915164	-0.562985	-0.458967
O124	O	1.415164	-0.062985	0.041033
O125	O	1.088256	-0.563328	-0.299537
O126	O	1.588256	-0.063328	0.200463
C127	C	1.048578	-0.775192	-0.336216
C128	C	1.548578	-0.275192	0.163784
C129	C	1.001822	-0.798566	-0.379313
C130	C	1.501822	-0.298566	0.120687
C131	C	0.955041	-0.775024	-0.422401
C132	C	1.455041	-0.275024	0.077599
C133	C	1.001841	-0.845485	-0.379319
C134	C	1.501841	-0.345485	0.120681
C135	C	1.048622	-0.869027	-0.336232
C136	C	1.548622	-0.369027	0.163768
C137	C	1.095383	-0.845651	-0.293139
C138	C	1.595383	-0.345651	0.206861
C139	C	1.095359	-0.798735	-0.293129
C140	C	1.595359	-0.298735	0.206871
C141	C	0.908280	-0.798400	-0.465494
C142	C	1.408280	-0.298400	0.034506
C143	C	0.908308	-0.845316	-0.465500
C144	C	1.408308	-0.345316	0.034500
C145	C	0.955089	-0.868859	-0.422413
C146	C	1.455089	-0.368859	0.077587
C147	C	1.185013	-0.256787	-0.386645
C148	C	1.685013	0.243213	0.113355
C149	C	1.263116	-0.258877	-0.389788
C150	C	1.763116	0.241123	0.110212
C151	C	0.994403	-0.256364	-0.562551
C152	C	1.494403	0.243636	-0.062551
C153	C	0.991279	-0.258274	-0.640654
C154	C	1.491279	0.241726	-0.140654
C155	C	1.001879	-0.134708	-0.379327
C156	C	1.501879	0.365292	0.120673
C157	C	1.001941	-0.084775	-0.379351
C158	C	1.501941	0.415225	0.120649
C159	C	1.034782	-0.231647	-0.679169
C160	C	1.534782	0.268353	-0.179169
C161	C	1.031838	-0.233440	-0.752555
C162	C	1.531838	0.266560	-0.252555
C163	C	0.985394	-0.261863	-0.787424
C164	C	1.485394	0.238137	-0.287424
C165	C	0.941886	-0.288492	-0.748903
C166	C	1.441886	0.211508	-0.248903
C167	C	0.944827	-0.286696	-0.675518
C168	C	1.444827	0.213304	-0.175518
C169	C	0.971772	-0.270184	-1.006704
C170	C	1.471772	0.229816	-0.506704
C171	C	0.968835	-0.271978	-1.080093
C172	C	1.468835	0.228022	-0.580093
C173	C	1.058787	-0.216925	-1.083741
C174	C	1.558787	0.283075	-0.583741
C175	C	1.061727	-0.215134	-1.010355
C176	C	1.561727	0.284866	-0.510355
C177	C	1.018216	-0.241761	-0.971840
C178	C	1.518216	0.258239	-0.471840
N179	N	0.982385	-0.263698	-0.862436
N180	N	1.482385	0.236302	-0.362436
N181	N	1.021222	-0.239924	-0.896830
N182	N	1.521222	0.260076	-0.396830
C183	C	1.009078	-0.247384	-0.196706
C184	C	1.509078	0.252616	0.303294
C185	C	1.012338	-0.245351	-0.118609
C186	C	1.512338	0.254649	0.381391
H187	H	0.730954	-0.298932	-0.449904
H188	H	1.230954	0.201068	0.050096
H189	H	1.133472	-0.864828	-0.258053
H190	H	1.633472	-0.364828	0.241947
H191	H	0.917045	-0.995150	-0.457526
H192	H	1.417045	-0.495150	0.042474
C193	C	1.100169	-1.087301	-0.288861
C194	C	1.600169	-0.587301	0.211139
C195	C	1.071994	-1.117430	-0.232452
C196	C	1.571994	-0.617430	0.267548
C197	C	1.123459	-1.143334	-0.185066
C198	C	1.623459	-0.643334	0.314934
C199	C	1.203100	-1.139109	-0.194089
C200	C	1.703100	-0.639109	0.305911
C201	C	1.231280	-1.108979	-0.250500
C202	C	1.731280	-0.608979	0.249500
C203	C	1.179814	-1.083075	-0.297886
C204	C	1.679814	-0.583075	0.202114
H205	H	1.013035	-1.120559	-0.225771
H206	H	1.513035	-0.620559	0.274229
H207	H	1.102598	-1.165638	-0.143307
H208	H	1.602598	-0.665638	0.356693
H209	H	1.241198	-1.158285	-0.159011
H210	H	1.741198	-0.658285	0.340989
H211	H	1.290238	-1.105850	-0.257181
H212	H	1.790238	-0.605850	0.242819
H213	H	1.200675	-1.060770	-0.339645
H214	H	1.700675	-0.560770	0.160355
H215	H	0.936353	-0.291872	-0.975354
H216	H	1.436353	0.208128	-0.475354
H217	H	0.870155	-0.723586	-0.500584
H218	H	1.370155	-0.223586	-0.000584
H219	H	0.597826	-0.295378	-0.444580
H220	H	1.097826	0.204622	0.055420
C221	C	0.409748	-0.325621	-0.490005
C222	C	0.909748	0.174379	0.009995
C223	C	0.367394	-0.357401	-0.537733
C224	C	0.867394	0.142599	-0.037733
C225	C	0.405760	-0.391335	-0.588695
C226	C	0.905760	0.108665	-0.088695
C227	C	0.486480	-0.393488	-0.591928
C228	C	0.986480	0.106512	-0.091928
C229	C	0.528839	-0.361707	-0.544197
C230	C	1.028839	0.138293	-0.044197
C231	C	0.490473	-0.327773	-0.493236
C232	C	0.990473	0.172227	0.006764
H233	H	0.307635	-0.355808	-0.535342
H234	H	0.807635	0.144192	-0.035342
H235	H	0.374402	-0.414862	-0.624028
H236	H	0.874402	0.085138	-0.124028
H237	H	0.514881	-0.418608	-0.629652
H238	H	1.014881	0.081392	-0.129652
H239	H	0.588597	-0.363300	-0.546589
H240	H	1.088597	0.136700	-0.046589
H241	H	0.521831	-0.304246	-0.457903
H242	H	1.021831	0.195754	0.042097
C243	C	1.085871	-0.200380	-0.640817
C244	C	1.585871	0.299620	-0.140817
C245	C	1.079793	-0.149404	-0.650701
C246	C	1.579793	0.350596	-0.150701
C247	C	1.130882	-0.118135	-0.612351
C248	C	1.630882	0.381865	-0.112351
C249	C	1.188050	-0.137842	-0.564116
C250	C	1.688050	0.362158	-0.064116
C251	C	1.194130	-0.188821	-0.554230
C252	C	1.694130	0.311179	-0.054230
C253	C	1.143041	-0.220090	-0.592580
C254	C	1.643041	0.279910	-0.092580
H255	H	1.037472	-0.134813	-0.686409
H256	H	1.537472	0.365187	-0.186409
H257	H	1.126381	-0.080397	-0.619669
H258	H	1.626381	0.419603	-0.119669
H259	H	1.225869	-0.114695	-0.535727
H260	H	1.725869	0.385305	-0.035727
H261	H	1.236451	-0.203411	-0.518522
H262	H	1.736451	0.296589	-0.018522
H263	H	1.147543	-0.257827	-0.585261
H264	H	1.647543	0.242173	-0.085261
C265	C	1.079696	-0.204150	-0.794919
C266	C	1.579696	0.295850	-0.294919
C267	C	1.132816	-0.226327	-0.847584
C268	C	1.632816	0.273673	-0.347584
C269	C	1.180677	-0.197035	-0.889947
C270	C	1.680677	0.302965	-0.389947
C271	C	1.175419	-0.145566	-0.879644
C272	C	1.675419	0.354434	-0.379644
C273	C	1.122297	-0.123386	-0.826976
C274	C	1.622297	0.376614	-0.326976
C275	C	1.074436	-0.152678	-0.784614
C276	C	1.574436	0.347322	-0.284614
H277	H	1.136710	-0.264430	-0.855213
H278	H	1.636710	0.235570	-0.355213
H279	H	1.220002	-0.213455	-0.928935
H280	H	1.720002	0.286545	-0.428935
H281	H	1.210849	-0.123882	-0.911003
H282	H	1.710849	0.376118	-0.411003
H283	H	1.118403	-0.085282	-0.819348
H284	H	1.618403	0.414718	-0.319348
H285	H	1.035112	-0.136258	-0.745626
H286	H	1.535112	0.363742	-0.245626
H287	H	0.904068	-0.311633	-0.777298
H288	H	1.404068	0.188367	-0.277298
H289	H	0.917078	-1.080260	-0.457529
H290	H	1.417078	-0.580260	0.042471
C291	C	0.917766	-0.303261	-1.118452
C292	C	1.417766	0.196739	-0.618452
C293	C	0.869922	-0.332561	-1.076090
C294	C	1.369922	0.167439	-0.576090
C295	C	0.818869	-0.363850	-1.114449
C296	C	1.318869	0.136150	-0.614449
C297	C	0.815658	-0.365839	-1.195170
C298	C	1.315658	0.134161	-0.695170
C299	C	0.863503	-0.336538	-1.237536
C300	C	1.363503	0.163462	-0.737536
C301	C	0.914557	-0.305248	-1.199177
C302	C	1.414557	0.194752	-0.699177
H303	H	0.872297	-0.331090	-1.016331
H304	H	1.372297	0.168910	-0.516331
H305	H	0.783450	-0.385541	-1.083086
H306	H	1.283450	0.114459	-0.583086
H307	H	0.777865	-0.389001	-1.223566
H308	H	1.277865	0.110999	-0.723566
H309	H	0.861128	-0.338009	-1.297295
H310	H	1.361128	0.161991	-0.797295
H311	H	0.949975	-0.283558	-1.230540
H312	H	1.449975	0.216442	-0.730540
C313	C	0.856757	-0.631746	-0.512883
C314	C	1.356757	-0.131746	-0.012883
C315	C	0.777116	-0.635977	-0.503872
C316	C	1.277116	-0.135977	-0.003872
C317	C	0.725652	-0.610083	-0.551272
C318	C	1.225652	-0.110083	-0.051272
C319	C	0.753830	-0.579956	-0.607683
C320	C	1.253830	-0.079956	-0.107683
C321	C	0.833475	-0.575723	-0.616696
C322	C	1.333475	-0.075723	-0.116696
C323	C	0.884939	-0.601618	-0.569296
C324	C	1.384939	-0.101618	-0.069296
H325	H	0.756254	-0.658280	-0.462111
H326	H	1.256254	-0.158280	0.037889
H327	H	0.666694	-0.613217	-0.544599
H328	H	1.166694	-0.113217	-0.044599
H329	H	0.715733	-0.560787	-0.642771
H330	H	1.215733	-0.060787	-0.142771
H331	H	0.854337	-0.553420	-0.658457
H332	H	1.354337	-0.053420	-0.158457
H333	H	0.943897	-0.598484	-0.575969
H334	H	1.443897	-0.098484	-0.075969
H335	H	0.909395	-0.308375	-0.644159
H336	H	1.409395	0.191625	-0.144159
H337	H	0.916812	-0.507863	-0.457445
H338	H	1.416812	-0.007863	0.042555
H339	H	1.099548	-0.191990	-0.981970
H340	H	1.599548	0.308010	-0.481970
H341	H	1.133408	-0.724066	-0.258022
H342	H	1.633408	-0.224066	0.241978
H343	H	0.266638	-0.313257	-0.471435
H344	H	0.766638	0.186743	0.028565
C345	C	0.417351	-0.200159	-0.301597
C346	C	0.917351	0.299841	0.198403
C347	C	0.407074	-0.148968	-0.307053
C348	C	0.907074	0.351032	0.192947
C349	C	0.449415	-0.117190	-0.259301
C350	C	0.949415	0.382810	0.240699
C351	C	0.502032	-0.136603	-0.206092
C352	C	1.002032	0.363397	0.293908
C353	C	0.512311	-0.187796	-0.200633
C354	C	1.012311	0.312204	0.299367
C355	C	0.469971	-0.219574	-0.248385
C356	C	0.969971	0.280426	0.251615
H357	H	0.368122	-0.134595	-0.346444
H358	H	0.868122	0.365405	0.153556
H359	H	0.441805	-0.079293	-0.263342
H360	H	0.941805	0.420707	0.236658
H361	H	0.533375	-0.113078	-0.170743
H362	H	1.033375	0.386922	0.329257
H363	H	0.551264	-0.202169	-0.161243
H364	H	1.051264	0.297831	0.338757
H365	H	0.477581	-0.257471	-0.244344
H366	H	0.977581	0.242529	0.255656
H367	H	0.604399	-0.186981	-0.281829
H368	H	1.104399	0.313019	0.218171
C369	C	0.903399	-0.416013	-0.469735
C370	C	1.403399	0.083987	0.030265
C371	C	0.905879	-0.424545	-0.549851
C372	C	1.405879	0.075455	-0.049851
C373	C	0.854424	-0.398643	-0.597250
C374	C	1.354424	0.101357	-0.097250
C375	C	0.800488	-0.364210	-0.564534
C376	C	1.300488	0.135790	-0.064534
C377	C	0.798006	-0.355677	-0.484414
C378	C	1.298006	0.144323	0.015586
C379	C	0.849462	-0.381579	-0.437014
C380	C	1.349462	0.118421	0.062986
H381	H	0.945807	-0.450035	-0.574073
H382	H	1.445807	0.049965	-0.074073
H383	H	0.856261	-0.404960	-0.656560
H384	H	1.356261	0.095040	-0.156560
H385	H	0.762398	-0.345036	-0.599622
H386	H	1.262398	0.154964	-0.099622
H387	H	0.758078	-0.330186	-0.460191
H388	H	1.258078	0.169814	0.039809
H389	H	0.847624	-0.375262	-0.377704
H390	H	1.347624	0.124738	0.122296
H391	H	0.273224	-0.204856	-0.308686
H392	H	0.773224	0.295144	0.191314
H393	H	1.133435	-0.779707	-0.258032
H394	H	1.633435	-0.279707	0.241968
H395	H	0.737539	-0.190529	-0.287155
H396	H	1.237539	0.309471	0.212845
H397	H	1.086476	-0.423047	-0.301052
H398	H	1.586476	0.076953	0.198948
H399	H	0.870225	-0.864343	-0.500597
H400	H	1.370225	-0.364343	-0.000597
H401	H	1.086534	-0.508158	-0.301074
H402	H	1.586534	-0.008158	0.198926
H403	H	1.133363	-0.638958	-0.258004
H404	H	1.633363	-0.138958	0.241996
C405	C	0.856816	-0.772509	-0.512893
C406	C	1.356816	-0.272509	-0.012893
C407	C	0.777176	-0.776746	-0.503876
C408	C	1.277176	-0.276746	-0.003876
C409	C	0.725705	-0.750857	-0.551276
C410	C	1.225705	-0.250857	-0.051276
C411	C	0.753873	-0.720732	-0.607693
C412	C	1.253873	-0.220732	-0.107693
C413	C	0.833516	-0.716494	-0.616713
C414	C	1.333516	-0.216494	-0.116713
C415	C	0.884988	-0.742382	-0.569313
C416	C	1.384988	-0.242382	-0.069313
H417	H	0.756321	-0.799047	-0.462110
H418	H	1.256321	-0.299047	0.037890
H419	H	0.666748	-0.753995	-0.544599
H420	H	1.166748	-0.253995	-0.044599
H421	H	0.715771	-0.701568	-0.642782
H422	H	1.215771	-0.201568	-0.142782
H423	H	0.854372	-0.694192	-0.658479
H424	H	1.354372	-0.194192	-0.158479
H425	H	0.943945	-0.739245	-0.575990
H426	H	1.443945	-0.239245	-0.075990
H427	H	1.086757	-0.995452	-0.301148
H428	H	1.586757	-0.495452	0.198852
H429	H	1.094209	-0.195246	-1.115107
H430	H	1.594209	0.304754	-0.615107
