data_functionalizedCrystal
_audit_creation_method	'MofGen! by Chris Wilmer'
_symmetry_space_group_name_H-M	'P1'
_symmetry_Int_Tables_number	1
_symmetry_cell_setting	triclinic
loop_
_symmetry_equiv_pos_as_xyz
  x,y,z
_cell_length_a	17.077404
_cell_length_b	13.897448
_cell_length_c	17.077396
_cell_angle_alpha	89.971798
_cell_angle_beta	89.982756
_cell_angle_gamma	90.017917
loop_
_atom_site_label
_atom_site_type_symbol
_atom_site_fract_x
_atom_site_fract_y
_atom_site_fract_z
Zn1	Zn	1.200065	-0.384001	-0.443849
Zn2	Zn	1.199990	-0.545316	-0.312585
Zn3	Zn	1.068802	-0.384037	-0.312597
Zn4	Zn	1.068777	-0.545257	-0.443809
O5	O	1.134409	-0.464653	-0.378210
O6	O	1.309902	-0.405410	-0.426448
O7	O	1.182566	-0.523962	-0.202740
O8	O	1.086257	-0.249051	-0.330029
O9	O	1.309847	-0.523927	-0.330010
O10	O	1.182695	-0.249024	-0.426459
O11	O	1.086184	-0.405471	-0.202748
O12	O	0.958952	-0.405414	-0.329990
O13	O	1.086214	-0.523826	-0.553661
O14	O	0.958934	-0.523861	-0.426391
O15	O	1.182671	-0.405352	-0.553690
O16	O	1.182542	-0.680290	-0.329971
O17	O	1.086140	-0.680246	-0.426380
C18	C	0.930461	-0.464635	-0.378188
C19	C	0.843211	-0.464651	-0.378198
C20	C	1.134351	-0.715267	-0.378187
C21	C	1.134399	-0.822481	-0.378204
C22	C	0.802232	-0.526419	-0.428313
C23	C	0.720251	-0.526422	-0.428326
C24	C	0.679252	-0.464659	-0.378218
C25	C	0.720237	-0.402884	-0.328100
C26	C	0.802216	-0.402878	-0.328092
C27	C	0.549367	-0.402903	-0.328119
C28	C	0.467382	-0.402910	-0.328126
C29	C	0.467402	-0.526447	-0.428353
C30	C	0.549381	-0.526441	-0.428345
C31	C	0.590361	-0.464666	-0.378226
C32	C	1.134481	-1.018776	-0.378253
C33	C	1.134433	-0.909544	-0.378228
C34	C	1.339153	-0.464671	-0.378232
C35	C	1.426403	-0.464679	-0.378242
C36	C	1.134448	-0.464578	-0.582954
C37	C	1.134465	-0.464546	-0.670204
C38	C	1.134488	-0.213060	-0.378250
C39	C	1.134521	-0.105846	-0.378267
C40	C	1.084294	-0.402841	-0.711198
C41	C	1.084307	-0.402819	-0.793179
C42	C	1.134495	-0.464498	-0.834164
C43	C	1.184668	-0.526211	-0.793164
C44	C	1.184651	-0.526237	-0.711185
C45	C	1.184702	-0.526150	-0.964034
C46	C	1.184721	-0.526123	-1.046019
C47	C	1.084358	-0.402732	-1.046028
C48	C	1.084341	-0.402758	-0.964049
C49	C	1.134515	-0.464470	-0.923055
C50	C	1.134415	-0.464658	-0.174262
C51	C	1.134550	-0.464418	-0.087013
H52	H	0.835608	-0.576717	-0.469114
H53	H	1.043449	-0.352576	-0.826552
O54	O	1.035517	-0.342811	-0.924356
C55	C	0.991248	-0.288320	-0.978115
H56	H	0.988525	-0.327807	-1.036546
H57	H	0.929401	-0.278031	-0.954420
H58	H	1.020021	-0.215062	-0.986849
O59	O	0.680566	-0.586526	-0.477024
C60	C	0.734332	-0.641029	-0.521254
H61	H	0.792757	-0.644301	-0.489092
H62	H	0.710637	-0.717047	-0.529506
H63	H	0.743079	-0.605814	-0.580927
O64	O	1.035521	-0.342932	-1.085875
C65	C	0.984822	-0.397835	-1.133284
H66	H	0.979956	-0.473814	-1.108564
H67	H	0.924421	-0.362950	-1.134204
H68	H	1.009093	-0.401137	-1.195421
H69	H	0.835580	-0.352575	-0.287287
H70	H	0.582761	-0.576738	-0.469142
H71	H	1.225589	-0.576348	-1.079387
H72	H	0.686848	-0.352592	-0.287305
O73	O	0.427478	-0.586360	-0.477018
C74	C	0.346330	-0.573138	-0.466273
H75	H	0.335138	-0.498657	-0.440674
H76	H	0.315199	-0.579776	-0.525066
H77	H	0.323034	-0.630287	-0.424391
H78	H	0.582729	-0.352591	-0.287314
O79	O	1.233512	-0.586131	-0.924333
C80	C	1.277800	-0.640584	-0.978084
H81	H	1.280547	-0.601055	-1.036529
H82	H	1.339638	-0.650892	-0.954399
H83	H	1.249030	-0.713834	-0.986789
O84	O	0.427480	-0.342834	-0.279579
C85	C	0.380122	-0.280603	-0.324394
H86	H	0.367850	-0.314753	-0.383819
H87	H	0.322467	-0.267587	-0.292452
H88	H	0.411753	-0.209150	-0.333151
O89	O	1.035464	-0.342895	-0.671510
C90	C	0.991198	-0.288413	-0.725276
H91	H	0.988483	-0.327904	-0.783706
H92	H	0.929347	-0.278129	-0.701588
H93	H	1.019965	-0.215153	-0.734011
H94	H	1.225529	-0.576436	-0.826541
O95	O	1.233315	-0.586144	-0.671240
C96	C	1.222551	-0.572927	-0.590095
H97	H	1.161981	-0.541332	-0.578900
H98	H	1.227844	-0.645190	-0.558926
H99	H	1.269124	-0.521574	-0.566843
