data_functionalizedCrystal
_audit_creation_method	'MofGen! by Chris Wilmer'
_symmetry_space_group_name_H-M	'P1'
_symmetry_Int_Tables_number	1
_symmetry_cell_setting	triclinic
loop_
_symmetry_equiv_pos_as_xyz
  x,y,z
_cell_length_a	10.723024
_cell_length_b	17.038272
_cell_length_c	9.198806
_cell_angle_alpha	89.996565
_cell_angle_beta	89.996352
_cell_angle_gamma	87.789713
loop_
_atom_site_label
_atom_site_type_symbol
_atom_site_fract_x
_atom_site_fract_y
_atom_site_fract_z
O1	O	1.667337	0.109720	-0.120885
O2	O	1.305156	0.120222	-0.120890
O3	O	1.484094	0.001144	-0.120876
O4	O	1.488399	0.228799	-0.120899
O5	O	1.484079	0.001144	0.120909
O6	O	1.305141	0.120222	0.120895
O7	O	1.667322	0.109720	0.120900
Cu8	Cu	1.486230	0.114971	0.142975
Cu9	Cu	1.486248	0.114971	-0.142964
O10	O	1.488384	0.228798	0.120886
C11	C	1.258578	0.119458	0.000002
C12	C	1.119813	0.117171	0.000000
C13	C	1.050993	0.183801	-0.000007
C14	C	0.907571	0.181440	-0.000009
C15	C	1.480171	-0.028006	0.000016
C16	C	1.468489	-0.114864	0.000016
C17	C	1.575744	-0.164385	0.000019
C18	C	1.564760	-0.245996	0.000005
C19	C	1.446520	-0.278084	-0.000002
C20	C	1.339256	-0.228557	-0.000009
C21	C	1.350241	-0.146947	-0.000006
C22	C	1.407711	-0.524057	-0.000022
C23	C	1.396734	-0.605673	-0.000021
C24	C	1.622239	-0.623107	-0.000010
C25	C	1.633214	-0.541495	0.000002
C26	C	1.525950	-0.491974	-0.000013
C27	C	1.435289	-0.361504	-0.000011
C28	C	1.537182	-0.408556	-0.000014
C29	C	1.713900	0.110484	0.000005
C30	C	1.852666	0.112771	-0.000003
C31	C	1.492307	0.257948	-0.000009
C32	C	1.503989	0.344806	-0.000018
N33	N	1.486226	0.114970	0.344089
N34	N	1.486261	0.114966	-0.344078
C35	C	1.561337	0.064752	0.416291
C36	C	1.561356	0.064749	0.583704
H37	H	0.911814	0.055727	-0.000005
H38	H	1.098254	0.242594	-0.000005
O39	O	0.836823	0.249419	0.000044
C40	C	0.709375	0.231927	0.000003
H41	H	0.697975	0.170443	0.045785
H42	H	0.655056	0.276534	0.070191
H43	H	0.672036	0.234662	-0.115996
H44	H	1.072552	0.058378	-0.000031
O45	O	1.690700	-0.133347	-0.000043
C46	C	1.783009	-0.194560	-0.000012
H47	H	1.742123	-0.250176	-0.045785
H48	H	1.865042	-0.177078	-0.070212
H49	H	1.816506	-0.205925	0.115983
H50	H	1.652100	-0.286314	0.000011
O51	O	1.409585	0.166368	0.418027
C52	C	1.438428	0.243889	0.380961
H53	H	1.486455	0.244044	0.270402
H54	H	1.348821	0.282033	0.375924
H55	H	1.503329	0.268275	0.466581
O56	O	1.224370	-0.259689	-0.000277
C57	C	1.158461	-0.234424	-0.125485
H58	H	1.227460	-0.217087	-0.213005
H59	H	1.100099	-0.284138	-0.167521
H60	H	1.094530	-0.181618	-0.097177
H61	H	1.729498	-0.515375	0.000008
O62	O	1.281773	-0.636715	-0.000108
C63	C	1.189453	-0.575508	-0.000091
H64	H	1.230339	-0.519886	-0.045858
H65	H	1.107439	-0.592992	-0.070304
H66	H	1.155928	-0.564153	0.115899
H67	H	1.625666	0.021758	0.645795
H68	H	1.421957	0.157965	0.593840
H69	H	1.709567	-0.663435	-0.000001
H70	H	1.262902	-0.106627	-0.000008
H71	H	1.320369	-0.483747	-0.000034
O72	O	1.652064	-0.377426	-0.000267
C73	C	1.718004	-0.402679	-0.125464
H74	H	1.649028	-0.420016	-0.212994
H75	H	1.776365	-0.352958	-0.167492
H76	H	1.781939	-0.455482	-0.097146
H77	H	1.339017	-0.387640	-0.000014
H78	H	1.625624	0.021757	0.354170
