data_functionalizedCrystal
_audit_creation_method	'MofGen! by Chris Wilmer'
_symmetry_space_group_name_H-M	'P1'
_symmetry_Int_Tables_number	1
_symmetry_cell_setting	triclinic
loop_
_symmetry_equiv_pos_as_xyz
  x,y,z
_cell_length_a	12.759401
_cell_length_b	12.759400
_cell_length_c	12.759393
_cell_angle_alpha	90.030452
_cell_angle_beta	89.979888
_cell_angle_gamma	89.986894
loop_
_atom_site_label
_atom_site_type_symbol
_atom_site_fract_x
_atom_site_fract_y
_atom_site_fract_z
Zn1	Zn	-1.606267	-0.418257	0.593997
Zn2	Zn	-1.606159	-0.593972	0.418317
Zn3	Zn	-1.430566	-0.418303	0.418335
Zn4	Zn	-1.430558	-0.593890	0.593957
O5	O	-1.518388	-0.506105	0.506152
O6	O	-1.753274	-0.441581	0.570702
O7	O	-1.582824	-0.570723	0.271299
O8	O	-1.453922	-0.271276	0.441661
O9	O	-1.753194	-0.570678	0.441631
O10	O	-1.583009	-0.271242	0.570719
O11	O	-1.453817	-0.441660	0.271311
O12	O	-1.283544	-0.441580	0.441622
O13	O	-1.453909	-0.570537	0.740984
O14	O	-1.283538	-0.570583	0.570651
O15	O	-1.583001	-0.441501	0.741013
O16	O	-1.582816	-0.740982	0.441592
O17	O	-1.453803	-0.740922	0.570634
C18	C	-1.245420	-0.506078	0.506135
C19	C	-1.128644	-0.506092	0.506153
C20	C	-0.964075	-0.573377	0.573238
C21	C	-1.073799	-0.573368	0.573228
C22	C	-1.073758	-0.438827	0.439075
C23	C	-0.964036	-0.438842	0.439080
C24	C	-1.518326	-0.779073	0.506130
C25	C	-1.518395	-0.895849	0.506156
C26	C	-0.792421	-0.506126	0.506167
C27	C	-0.909197	-0.506115	0.506168
C28	C	-1.585711	-1.060439	0.439072
C29	C	-1.585648	-0.950715	0.439039
C30	C	-1.451194	-0.950713	0.573303
C31	C	-1.451252	-1.060435	0.573330
C32	C	-1.518466	-0.506005	0.780185
C33	C	-1.518500	-0.505962	0.896962
C34	C	-1.518478	-0.232072	0.506197
C35	C	-1.518517	-0.115295	0.506216
C36	C	-1.518370	-0.506130	0.233184
C37	C	-1.518540	-0.505877	0.116408
C38	C	-1.585723	-0.438761	0.951841
C39	C	-1.585741	-0.438716	1.061565
C40	C	-1.451309	-0.573080	1.061522
C41	C	-1.451287	-0.573119	0.951799
H42	H	-0.919354	-0.384067	0.384459
H43	H	-1.396530	-1.105101	0.628009
O44	O	-1.385772	-0.897583	0.638542
C45	C	-1.326499	-0.969533	0.697833
H46	H	-1.322912	-1.047779	0.654810
H47	H	-1.364949	-0.981120	0.777655
C48	C	-1.219062	-0.830674	0.765731
C49	C	-1.214649	-0.926775	0.712885
H50	H	-1.150069	-0.804298	0.775021
H51	H	-1.258997	-0.782198	0.725789
H52	H	-1.251108	-0.840343	0.832244
H53	H	-1.182615	-0.917102	0.646369
H54	H	-1.174705	-0.975248	0.752817
H55	H	-1.640450	-0.384074	0.907195
H56	H	-1.640479	-0.383993	1.106243
H57	H	-1.118421	-0.384054	0.384456
O58	O	-1.651076	-1.113569	0.373774
C59	C	-1.710386	-1.041617	0.314522
H60	H	-1.667312	-0.963439	0.310831
H61	H	-1.790154	-1.029856	0.353060
C62	C	-1.778512	-1.180530	0.207262
C63	C	-1.725602	-1.084514	0.202720
H64	H	-1.787903	-1.206993	0.138298
H65	H	-1.738557	-1.229007	0.247183
H66	H	-1.844979	-1.170717	0.239381
H67	H	-1.659132	-1.094332	0.170613
H68	H	-1.765547	-1.036040	0.162791
H69	H	-1.640362	-0.906054	0.384363
O70	O	-1.386125	-0.638285	1.114955
C71	C	-1.400541	-0.623825	1.223568
H72	H	-1.481636	-0.589423	1.238572
H73	H	-1.338250	-0.567857	1.254706
C74	C	-1.291283	-0.772361	1.261451
C75	C	-1.390889	-0.730115	1.279880
H76	H	-1.285325	-0.837923	1.296189
H77	H	-1.281567	-0.782101	1.188277
H78	H	-1.239385	-0.725710	1.287400
H79	H	-1.442784	-0.776758	1.253919
H80	H	-1.400614	-0.720385	1.353051
H81	H	-0.919429	-0.628155	0.627864
H82	H	-1.396538	-0.627841	0.907116
H83	H	-1.118476	-0.628141	0.627842
