data_functionalizedCrystal
_audit_creation_method	'MofGen! by Chris Wilmer'
_symmetry_space_group_name_H-M	'P1'
_symmetry_Int_Tables_number	1
_symmetry_cell_setting	triclinic
loop_
_symmetry_equiv_pos_as_xyz
  x,y,z
_cell_length_a	16.120847
_cell_length_b	16.120490
_cell_length_c	16.959447
_cell_angle_alpha	87.085840
_cell_angle_beta	92.917540
_cell_angle_gamma	90.153754
loop_
_atom_site_label
_atom_site_type_symbol
_atom_site_fract_x
_atom_site_fract_y
_atom_site_fract_z
Zn1	Zn	0.395695	1.254627	-0.488172
Zn2	Zn	0.534755	1.247531	-0.348984
Zn3	Zn	0.388651	1.115567	-0.349670
Zn4	Zn	0.527643	1.108534	-0.474790
O5	O	0.461686	1.181565	-0.415404
O6	O	0.420066	1.370054	-0.475021
O7	O	0.515402	1.229999	-0.238462
O8	O	0.273221	1.139927	-0.373930
O9	O	0.522232	1.364841	-0.372761
O10	O	0.278396	1.242094	-0.475687
O11	O	0.408061	1.133046	-0.238966
O12	O	0.401165	0.998266	-0.360955
O13	O	0.510111	1.127940	-0.587179
O14	O	0.503281	0.993099	-0.452880
O15	O	0.413170	1.235274	-0.597010
O16	O	0.650176	1.223180	-0.359785
O17	O	0.644951	1.121059	-0.452214
C18	C	0.450688	0.965510	-0.405540
C19	C	0.446002	0.873079	-0.401338
C20	C	0.485982	0.660125	-0.437203
C21	C	0.437456	0.703853	-0.393664
C22	C	0.442213	0.798019	-0.397935
C23	C	0.481227	0.565950	-0.432933
C24	C	0.244792	1.192586	-0.426378
C25	C	0.152365	1.197283	-0.431054
C26	C	-0.016860	1.205873	-0.439590
C27	C	-0.060612	1.157411	-0.391319
C28	C	-0.154774	1.162190	-0.396069
C29	C	0.077311	1.201094	-0.434842
C30	C	0.677737	1.170609	-0.404491
C31	C	0.770169	1.165998	-0.399853
C32	C	0.461633	1.181614	-0.621577
C33	C	0.461610	1.181635	-0.709436
C34	C	0.472728	1.398464	-0.425307
C35	C	0.477433	1.490893	-0.429527
C36	C	0.512074	1.125762	-0.745594
C37	C	0.411121	1.237524	-0.755834
C38	C	0.411094	1.237542	-0.838382
C39	C	0.461557	1.181669	-0.874540
C40	C	0.512047	1.125778	-0.828149
C41	C	0.360599	1.293427	-0.884779
C42	C	0.360570	1.293448	-0.967332
C43	C	0.411038	1.237578	-1.003491
C44	C	0.461531	1.181685	-0.957095
C45	C	0.511994	1.125812	-0.993253
C46	C	0.562491	1.069922	-0.946859
C47	C	0.562515	1.069908	-0.864309
C48	C	0.411015	1.237592	-1.086041
C49	C	0.511967	1.125827	-1.075809
C50	C	0.461681	1.181567	-0.210038
C51	C	0.461478	1.181719	-0.122199
H52	H	0.531096	0.693408	-0.477682
C53	C	0.618002	1.008467	-0.986641
C54	C	0.712885	1.010460	-0.970836
C55	C	0.768395	0.949010	-1.010623
C56	C	0.729023	0.885566	-1.066214
C57	C	0.634135	0.883570	-1.082021
C58	C	0.578625	0.945020	-1.042234
H59	H	0.742035	1.057428	-0.929682
H60	H	0.838637	0.950488	-0.998921
H61	H	0.770114	0.840076	-1.095666
H62	H	0.604985	0.836602	-1.123175
H63	H	0.508382	0.943542	-1.053936
C64	C	0.567479	1.064364	-1.115579
C65	C	0.528109	1.000913	-1.171165
C66	C	0.583620	0.939451	-1.210935
C67	C	0.678501	0.941439	-1.195120
C68	C	0.717876	1.004892	-1.139532
C69	C	0.662365	1.066355	-1.099762
H70	H	0.457867	0.999439	-1.182874
H71	H	0.554471	0.892479	-1.252085
H72	H	0.719594	0.895941	-1.224561
H73	H	0.788118	1.006366	-1.127823
H74	H	0.691514	1.113327	-1.058612
H75	H	0.603627	1.024405	-0.826527
C76	C	-0.015684	1.096517	-0.330663
C77	C	0.079845	1.091766	-0.325932
C78	C	0.124777	1.030878	-0.265275
C79	C	0.074178	0.974742	-0.209350
C80	C	-0.021357	0.979491	-0.214079
C81	C	-0.066288	1.040379	-0.274735
H82	H	0.117306	1.133323	-0.367333
H83	H	0.195498	1.027363	-0.261775
H84	H	0.107439	0.929669	-0.164448
H85	H	-0.058818	0.937934	-0.172677
H86	H	-0.137010	1.043894	-0.278235
H87	H	-0.050117	1.250949	-0.484481
H88	H	0.553190	1.080260	-0.707816
H89	H	0.370032	1.283009	-0.726389
C90	C	0.305097	1.354885	-0.845002
C91	C	0.238008	1.322154	-0.789890
C92	C	0.182508	1.383616	-0.750107
C93	C	0.194096	1.477809	-0.765435
C94	C	0.261188	1.510544	-0.820549
C95	C	0.316689	1.449082	-0.860333
H96	H	0.229427	1.252423	-0.778541
H97	H	0.132842	1.359383	-0.709308
H98	H	0.153011	1.523307	-0.735986
H99	H	0.269769	1.580275	-0.831899
H100	H	0.366355	1.473315	-0.901132
H101	H	0.319454	1.338958	-1.005100
C102	C	0.355475	1.299063	-1.137076
C103	C	0.367066	1.393252	-1.129704
C104	C	0.311525	1.454728	-1.180738
C105	C	0.244393	1.422016	-1.239145
C106	C	0.232800	1.327823	-1.246519
C107	C	0.288340	1.266346	-1.195485
H108	H	0.416764	1.417472	-1.086465
H109	H	0.320108	1.524457	-1.175279
H110	H	0.203279	1.467525	-1.276923
H111	H	0.183102	1.303603	-1.289757
H112	H	0.279757	1.196618	-1.200944
H113	H	0.392339	0.670567	-0.353182
