data_functionalizedCrystal
_audit_creation_method	'MofGen! by Chris Wilmer'
_symmetry_space_group_name_H-M	'P1'
_symmetry_Int_Tables_number	1
_symmetry_cell_setting	triclinic
loop_
_symmetry_equiv_pos_as_xyz
  x,y,z
_cell_length_a	16.974800
_cell_length_b	19.188930
_cell_length_c	15.455450
_cell_angle_alpha	87.006217
_cell_angle_beta	83.360050
_cell_angle_gamma	83.267966
loop_
_atom_site_label
_atom_site_type_symbol
_atom_site_fract_x
_atom_site_fract_y
_atom_site_fract_z
O1	O	1.048905	0.088996	-0.001517
O2	O	0.817969	0.099728	0.014703
O3	O	0.940102	-0.007264	0.006108
O4	O	0.926772	0.195988	0.007078
O5	O	0.946254	-0.001800	-0.138582
O6	O	0.824120	0.105192	-0.129987
O7	O	1.055057	0.094460	-0.146207
Cu8	Cu	0.940150	0.100325	-0.151308
Cu9	Cu	0.932875	0.093863	0.019804
O10	O	0.932923	0.201452	-0.137612
C11	C	0.791499	0.101952	-0.055567
C12	C	0.703463	0.100430	-0.049385
C13	C	0.665462	0.102691	-0.125353
C14	C	0.582745	0.101250	-0.119546
C15	C	0.538030	0.097552	-0.037771
C16	C	0.576037	0.095288	0.038203
C17	C	0.658753	0.096724	0.032395
C18	C	0.290285	0.092931	-0.011945
C19	C	0.207563	0.091496	-0.006144
C20	C	0.214277	0.097457	-0.163893
C21	C	0.296994	0.098898	-0.169693
C22	C	0.334994	0.096630	-0.093720
N23	N	0.453480	0.096080	-0.031834
N24	N	0.419544	0.098097	-0.099658
C25	C	0.942746	-0.030545	-0.066209
C26	C	0.941451	-0.108055	-0.066126
C27	C	1.013115	-0.152668	-0.071163
C28	C	1.011897	-0.225497	-0.071064
C29	C	0.939012	-0.253710	-0.065944
C30	C	0.867339	-0.209087	-0.060901
C31	C	0.868558	-0.136260	-0.060992
N32	N	0.885394	-0.360097	-0.111272
N33	N	0.884240	-0.429281	-0.111188
C34	C	0.935333	-0.473135	-0.065668
N35	N	0.987636	-0.445193	-0.020247
N36	N	0.988792	-0.376003	-0.020336
C37	C	0.937681	-0.332679	-0.065844
C38	C	1.005681	-0.596719	-0.070597
C39	C	1.004460	-0.669550	-0.070492
C40	C	0.859900	-0.653138	-0.060338
C41	C	0.861123	-0.580309	-0.060434
C42	C	0.934016	-0.552104	-0.065568
C43	C	1.081526	0.092236	-0.075935
C44	C	1.169562	0.093758	-0.082111
C45	C	0.930279	0.224733	-0.065293
C46	C	0.931574	0.302242	-0.065371
N47	N	0.945273	0.104870	-0.271660
C48	C	0.899276	0.064140	-0.313856
C49	C	0.903170	0.067585	-0.404934
C50	C	0.953064	0.111756	-0.453816
C51	C	0.999062	0.152491	-0.411614
C52	C	0.995164	0.149049	-0.320537
C53	C	0.969859	0.126605	-0.726565
C54	C	0.973755	0.130042	-0.817649
C55	C	0.877862	0.045138	-0.810963
C56	C	0.873972	0.041697	-0.719884
C57	C	0.919966	0.082433	-0.677690
N58	N	0.957046	0.115277	-0.546913
N59	N	0.915979	0.078916	-0.584594
N60	N	0.927759	0.089313	0.140156
H61	H	0.171158	0.088487	0.060451
H62	H	1.039684	0.188459	-0.451420
H63	H	0.701863	0.105709	-0.191943
H64	H	0.858650	0.028169	-0.274063
H65	H	0.807995	-0.232063	-0.056731
H66	H	0.810199	-0.099935	-0.056890
H67	H	1.032617	0.182217	-0.286182
H68	H	0.539624	0.092272	0.104786
H69	H	1.062819	-0.705874	-0.074589
H70	H	0.183328	0.099302	-0.225746
H71	H	0.551810	0.103080	-0.181408
H72	H	0.865715	0.034418	-0.439286
H73	H	0.333396	0.101906	-0.236283
H74	H	1.065035	-0.573754	-0.074773
H75	H	0.800556	-0.676108	-0.056165
H76	H	0.321215	0.091082	0.049918
H77	H	0.689693	0.094884	0.094257
H78	H	0.802767	-0.543984	-0.056337
H79	H	0.840414	0.011973	-0.845327
H80	H	1.072469	-0.129708	-0.075341
H81	H	0.833345	0.005726	-0.680091
H82	H	1.070256	-0.261828	-0.075162
H83	H	1.014386	0.166015	-0.857446
H84	H	1.007315	0.159773	-0.692222
