data_functionalizedCrystal
_audit_creation_method	'MofGen! by Chris Wilmer'
_symmetry_space_group_name_H-M	'P1'
_symmetry_Int_Tables_number	1
_symmetry_cell_setting	triclinic
loop_
_symmetry_equiv_pos_as_xyz
  x,y,z
_cell_length_a	14.971486
_cell_length_b	14.519709
_cell_length_c	14.048226
_cell_angle_alpha	89.992623
_cell_angle_beta	89.998499
_cell_angle_gamma	83.647137
loop_
_atom_site_label
_atom_site_type_symbol
_atom_site_fract_x
_atom_site_fract_y
_atom_site_fract_z
O1	O	1.187015	0.120184	-0.079053
O2	O	0.926623	0.134576	-0.079079
O3	O	1.063722	-0.006863	-0.079057
O4	O	1.049915	0.261622	-0.079076
O5	O	1.063706	-0.006871	0.079264
O6	O	0.926606	0.134568	0.079242
O7	O	1.186998	0.120175	0.079268
Zn8	Zn	1.056799	0.127370	0.104392
Zn9	Zn	1.056821	0.127381	-0.104203
O10	O	1.049898	0.261614	0.079246
C11	C	0.893289	0.133928	0.000078
C12	C	0.793991	0.131999	0.000068
C13	C	0.736812	0.215091	0.000064
C14	C	0.643512	0.213273	0.000078
C15	C	0.607392	0.128363	0.000090
C16	C	0.664578	0.045265	0.000097
C17	C	0.757876	0.047084	0.000090
C18	C	0.470113	0.041480	0.000111
C19	C	0.376808	0.039661	0.000116
C20	C	0.355749	0.207669	0.000099
C21	C	0.449047	0.209488	0.000092
C22	C	0.506227	0.126390	0.000097
C23	C	1.063071	-0.041226	0.000104
C24	C	1.061142	-0.143606	0.000104
C25	C	1.054043	-0.518498	0.000079
C26	C	1.056015	-0.414191	0.000086
C27	C	1.057593	-0.331055	0.000092
C28	C	1.059564	-0.226742	0.000098
C29	C	1.220331	0.120823	0.000109
C30	C	1.319630	0.122752	0.000112
C31	C	1.050550	0.295978	0.000083
C32	C	1.052478	0.398358	0.000076
N33	N	1.056791	0.127362	0.246753
N34	N	1.056837	0.127382	-0.246564
C35	C	1.117518	0.064759	0.296581
C36	C	1.117524	0.064758	0.396238
C37	C	1.056807	0.127366	0.446066
C38	C	0.996073	0.189972	0.396231
C39	C	0.996064	0.189968	0.296575
C40	C	0.996099	0.189979	0.603945
C41	C	0.996110	0.189985	0.703608
C42	C	1.117560	0.064770	0.703608
C43	C	1.117550	0.064765	0.603952
C44	C	1.056817	0.127373	0.554124
H45	H	0.309188	0.275331	0.000099
H46	H	1.166972	0.013782	0.436808
H47	H	0.946613	0.240944	0.256006
C48	C	0.337068	-0.053737	0.000147
C49	C	0.358576	-0.122776	0.082380
C50	C	0.318833	-0.216172	0.082414
C51	C	0.257581	-0.240530	0.000216
C52	C	0.236070	-0.171490	-0.082023
C53	C	0.275813	-0.078093	-0.082058
H54	H	0.403921	-0.104746	0.143234
H55	H	0.334758	-0.267280	0.143294
H56	H	0.228161	-0.309668	0.000242
H57	H	0.190725	-0.189519	-0.142877
H58	H	0.259889	-0.026985	-0.142938
H59	H	0.766213	0.284234	0.000054
H60	H	1.166965	0.013780	0.256017
H61	H	0.946641	0.240958	0.563379
C62	C	0.929313	0.258849	0.758416
C63	C	0.862504	0.327703	0.703604
C64	C	0.795706	0.396568	0.758410
C65	C	0.795716	0.396580	0.868028
C66	C	0.862527	0.327723	0.922846
C67	C	0.929326	0.258858	0.868040
H68	H	0.862495	0.327697	0.622453
H69	H	0.746248	0.447540	0.717830
H70	H	0.746267	0.447558	0.908598
H71	H	0.862537	0.327729	1.003997
H72	H	0.978784	0.207886	0.908620
H73	H	0.516667	-0.026188	0.000117
C74	C	0.580619	0.304678	0.000068
C75	C	0.513576	0.326534	-0.082140
C76	C	0.450685	0.417944	-0.082150
C77	C	0.454837	0.487499	0.000048
C78	C	0.521883	0.465645	0.082262
C79	C	0.584774	0.374234	0.082271
H80	H	0.510500	0.275044	-0.142993
H81	H	0.401053	0.434122	-0.143010
H82	H	0.408282	0.555167	0.000041
H83	H	0.524959	0.517135	0.143115
H84	H	0.634406	0.358057	0.143132
C85	C	0.624847	-0.048138	0.000110
C86	C	0.563602	-0.072493	0.082326
C87	C	0.523873	-0.165897	0.082335
C88	C	0.545389	-0.234946	0.000129
C89	C	0.606637	-0.210592	-0.082092
C90	C	0.646366	-0.117188	-0.082102
H91	H	0.547672	-0.021377	0.143185
H92	H	0.478533	-0.183925	0.143201
H93	H	0.515979	-0.304090	0.000136
H94	H	0.622567	-0.261708	-0.142951
H95	H	0.691706	-0.099160	-0.142968
C96	C	1.184338	-0.004101	0.549137
C97	C	1.182679	-0.109124	0.562849
C98	C	1.249465	-0.177992	0.508032
C99	C	1.317911	-0.141837	0.439502
C100	C	1.319574	-0.036808	0.425786
C101	C	1.252787	0.032060	0.480604
H102	H	1.132008	-0.135894	0.613582
H103	H	1.248234	-0.255742	0.518185
H104	H	1.367351	-0.192817	0.398923
H105	H	1.370244	-0.010039	0.375054
H106	H	1.254018	0.109809	0.470450
H107	H	0.804431	-0.020578	0.000093
H108	H	0.478453	0.278629	0.000073
H109	H	1.167010	0.013793	0.744184
H110	H	0.946632	0.240946	0.436807
