data_functionalizedCrystal
_audit_creation_method	'MofGen! by Chris Wilmer'
_symmetry_space_group_name_H-M	'P1'
_symmetry_Int_Tables_number	1
_symmetry_cell_setting	triclinic
loop_
_symmetry_equiv_pos_as_xyz
  x,y,z
_cell_length_a	12.759401
_cell_length_b	13.897448
_cell_length_c	12.759393
_cell_angle_alpha	90.033346
_cell_angle_beta	90.019684
_cell_angle_gamma	90.016807
loop_
_atom_site_label
_atom_site_type_symbol
_atom_site_fract_x
_atom_site_fract_y
_atom_site_fract_z
Zn1	Zn	1.606234	-0.383981	0.594002
Zn2	Zn	1.606119	-0.545310	0.418316
Zn3	Zn	1.430536	-0.384028	0.418337
Zn4	Zn	1.430515	-0.545233	0.593954
O5	O	1.518351	-0.464638	0.506152
O6	O	1.753239	-0.405394	0.570708
O7	O	1.582788	-0.523968	0.271298
O8	O	1.453899	-0.249040	0.441668
O9	O	1.753155	-0.523922	0.441632
O10	O	1.582983	-0.249005	0.570728
O11	O	1.453788	-0.405475	0.271313
O12	O	1.283512	-0.405400	0.441622
O13	O	1.453864	-0.523790	0.740982
O14	O	1.283497	-0.523836	0.570647
O15	O	1.582964	-0.405319	0.741016
O16	O	1.582768	-0.680282	0.441586
O17	O	1.453753	-0.680225	0.570627
C18	C	1.245383	-0.464616	0.506132
C19	C	1.128607	-0.464629	0.506149
C20	C	1.073722	-0.402878	0.439089
C21	C	0.963998	-0.402901	0.439103
C22	C	0.964053	-0.526429	0.573244
C23	C	1.073775	-0.526410	0.573225
C24	C	1.073689	-0.331558	0.361647
C25	C	0.963965	-0.331581	0.361660
C26	C	1.518274	-0.715252	0.506122
C27	C	1.518337	-0.822466	0.506144
C28	C	1.518448	-1.018761	0.506210
C29	C	1.518383	-0.909529	0.506176
C30	C	1.792384	-0.464661	0.506173
C31	C	1.909161	-0.464671	0.506182
C32	C	1.518424	-0.464541	0.780186
C33	C	1.518456	-0.464499	0.896963
C34	C	1.518456	-0.213045	0.506206
C35	C	1.518501	-0.105831	0.506229
C36	C	1.518338	-0.464665	0.233185
C37	C	1.518510	-0.464435	0.116409
C38	C	1.585687	-0.402805	0.951844
C39	C	1.585712	-0.402771	1.061569
C40	C	1.451271	-0.526132	1.061519
C41	C	1.451242	-0.526161	0.951797
C42	C	1.663309	-0.331587	0.951874
C43	C	1.663334	-0.331552	1.061598
H44	H	0.929892	-0.358258	0.284315
C45	C	1.133177	-0.593500	0.646139
C46	C	1.061670	-0.647588	0.704901
C47	C	1.116351	-0.709395	0.772091
H48	H	1.175956	-0.635558	0.605971
H49	H	1.175986	-0.556672	0.692041
H50	H	1.018879	-0.684413	0.659005
H51	H	1.018888	-0.605555	0.745090
H52	H	1.159161	-0.672567	0.817993
H53	H	1.159129	-0.751447	0.731915
H54	H	1.067843	-0.746095	0.811976
H55	H	1.107745	-0.260621	0.390927
C56	C	0.924479	-0.231962	0.390998
C57	C	1.010019	-0.171003	0.408930
C58	C	0.973686	-0.079237	0.435973
H59	H	0.883118	-0.206957	0.335420
H60	H	0.883178	-0.236066	0.452776
H61	H	1.051302	-0.166895	0.347159
H62	H	1.051388	-0.195977	0.464513
H63	H	0.932385	-0.083341	0.497751
H64	H	0.932325	-0.054242	0.380391
H65	H	1.031718	-0.037868	0.448152
C66	C	1.378404	-0.593193	0.892082
C67	C	1.437830	-0.655035	0.829052
C68	C	1.370762	-0.716791	0.774020
H69	H	1.338360	-0.629999	0.940340
H70	H	1.332651	-0.556322	0.849229
H71	H	1.483564	-0.691903	0.871901
H72	H	1.477872	-0.618255	0.780774
H73	H	1.325009	-0.679920	0.731167
H74	H	1.330721	-0.753590	0.822286
H75	H	1.411071	-0.758752	0.731241
H76	H	0.919396	-0.576729	0.627855
H77	H	1.103420	-0.351470	0.280232
H78	H	1.740579	-0.358368	0.917839
H79	H	1.634224	-0.260573	1.095648
H80	H	1.396546	-0.576332	1.106179
C81	C	1.771879	-0.358304	1.101111
C82	C	1.838250	-0.374703	1.015586
C83	C	1.938240	-0.399362	1.051944
H84	H	1.799088	-0.307217	1.142463
H85	H	1.767476	-0.415012	1.142425
H86	H	1.842656	-0.318002	0.974289
H87	H	1.811074	-0.425794	0.974225
H88	H	1.933837	-0.456070	1.093259
H89	H	1.965438	-0.348271	1.093297
H90	H	1.983281	-0.410500	0.993922
H91	H	1.641544	-0.256885	0.922120
