data_functionalizedCrystal
_audit_creation_method	'MofGen! by Chris Wilmer'
_symmetry_space_group_name_H-M	'P1'
_symmetry_Int_Tables_number	1
_symmetry_cell_setting	triclinic
loop_
_symmetry_equiv_pos_as_xyz
  x,y,z
_cell_length_a	13.032831
_cell_length_b	21.295417
_cell_length_c	13.032268
_cell_angle_alpha	82.858212
_cell_angle_beta	89.113023
_cell_angle_gamma	82.833712
loop_
_atom_site_label
_atom_site_type_symbol
_atom_site_fract_x
_atom_site_fract_y
_atom_site_fract_z
Zn1	Zn	1.498345	-0.425104	0.780742
Zn2	Zn	1.998345	0.074896	1.280742
Zn3	Zn	1.520057	-0.518889	0.608741
Zn4	Zn	2.020057	-0.018889	1.108741
Zn5	Zn	1.348211	-0.398808	0.586989
Zn6	Zn	1.848211	0.101192	1.086989
Zn7	Zn	1.326306	-0.515485	0.758867
Zn8	Zn	1.826306	-0.015485	1.258867
O9	O	1.423230	-0.464571	0.683835
O10	O	1.923230	0.035429	1.183835
O11	O	1.645141	-0.449974	0.776184
O12	O	2.145141	0.050026	1.276184
O13	O	1.515515	-0.493379	0.461941
O14	O	2.015515	0.006621	0.961941
O15	O	1.368207	-0.314217	0.612741
O16	O	1.868207	0.185783	1.112741
O17	O	1.661094	-0.518877	0.649816
O18	O	2.161094	-0.018877	1.149816
O19	O	1.478510	-0.333536	0.755091
O20	O	1.978510	0.166464	1.255091
O21	O	1.389261	-0.405156	0.445960
O22	O	1.889261	0.094844	0.945960
O23	O	1.201389	-0.401856	0.591531
O24	O	1.701389	0.098144	1.091531
O25	O	1.330873	-0.513077	0.905684
O26	O	1.830873	-0.013077	1.405684
O27	O	1.185295	-0.487579	0.717809
O28	O	1.685295	0.012421	1.217809
O29	O	1.457269	-0.446673	0.921755
O30	O	1.957269	0.053327	1.421755
O31	O	1.494275	-0.606517	0.628605
O32	O	1.994275	-0.106517	1.128605
O33	O	1.351927	-0.604016	0.738902
O34	O	1.851927	-0.104016	1.238902
C35	C	1.156026	-0.441495	0.649936
C36	C	1.656026	0.058505	1.149936
C37	C	1.041712	-0.431640	0.635459
C38	C	1.541712	0.068360	1.135459
C39	C	0.982824	-0.469715	0.691391
C40	C	1.482824	0.030285	1.191391
C41	C	0.864674	-0.459530	0.676429
C42	C	1.364674	0.040470	1.176429
C43	C	1.423105	-0.628108	0.683766
C44	C	1.923105	-0.128108	1.183766
C45	C	1.423142	-0.698080	0.683783
C46	C	1.923142	-0.198080	1.183783
C47	C	1.480533	-0.740949	0.757947
C48	C	1.980533	-0.240949	1.257947
C49	C	1.480566	-0.806697	0.757977
C50	C	1.980566	-0.306697	1.257977
C51	C	1.423221	-0.829572	0.683826
C52	C	1.923221	-0.329572	1.183826
C53	C	1.365818	-0.786694	0.609656
C54	C	1.865818	-0.286694	1.109656
C55	C	1.365778	-0.720948	0.609635
C56	C	1.865778	-0.220948	1.109635
N57	N	1.426890	-0.926160	0.592840
N58	N	1.926890	-0.426160	1.092840
N59	N	1.426933	-0.988616	0.592864
N60	N	1.926933	-0.488616	1.092864
C61	C	1.423335	-1.027660	0.683888
C62	C	1.923335	-0.527660	1.183888
N63	N	1.419712	-1.001890	0.774891
N64	N	1.919712	-0.501890	1.274891
N65	N	1.419674	-0.939428	0.774866
N66	N	1.919674	-0.439428	1.274866
C67	C	1.423257	-0.900862	0.683842
C68	C	1.923257	-0.400862	1.183842
C69	C	1.480765	-1.141821	0.758090
C70	C	1.980765	-0.641821	1.258090
C71	C	1.480790	-1.207569	0.758121
C72	C	1.980790	-0.707569	1.258121
C73	C	1.366049	-1.187565	0.609792
C74	C	1.866049	-0.687565	1.109792
C75	C	1.366017	-1.121818	0.609769
C76	C	1.866017	-0.621818	1.109769
C77	C	1.423381	-1.098950	0.683918
C78	C	1.923381	-0.598950	1.183918
C79	C	1.691477	-0.487738	0.717866
C80	C	2.191477	0.012262	1.217866
C81	C	1.805788	-0.497610	0.732369
C82	C	2.305788	0.002390	1.232369
C83	C	1.389206	-0.482429	0.952078
C84	C	1.889206	0.017571	1.452078
C85	C	1.374707	-0.490038	1.066387
C86	C	1.874707	0.009962	1.566387
C87	C	1.423380	-0.300400	0.683930
C88	C	1.923380	0.199600	1.183930
C89	C	1.423444	-0.230440	0.683970
C90	C	1.923444	0.269560	1.183970
C91	C	1.457181	-0.446743	0.416643
C92	C	1.957181	0.053257	0.916643
C93	C	1.471879	-0.438974	0.302359
C94	C	1.971879	0.061026	0.802359
C95	C	1.430781	-0.460576	1.125302
C96	C	1.930781	0.039424	1.625302
C97	C	1.415797	-0.468440	1.243447
C98	C	1.915797	0.031560	1.743447
H99	H	1.527238	-0.722333	0.818325
H100	H	2.027238	-0.222333	1.318325
C101	C	1.551045	-0.397360	1.145022
C102	C	2.051045	0.102640	1.645022
C103	C	1.551651	-0.397045	1.252389
C104	C	2.051651	0.102955	1.752389
H105	H	1.600290	-0.371474	1.114175
H106	H	2.100290	0.128526	1.614175
H107	H	1.484163	-0.381031	1.118724
H108	H	1.984163	0.118969	1.618724
H109	H	1.568288	-0.439789	1.129354
H110	H	2.068288	0.060211	1.629354
H111	H	1.534399	-0.354616	1.268059
H112	H	2.034399	0.145384	1.768059
H113	H	1.618547	-0.413371	1.278697
H114	H	2.118547	0.086629	1.778697
C115	C	1.295530	-0.531636	1.223729
C116	C	1.795530	-0.031636	1.723729
C117	C	1.294927	-0.531955	1.116363
C118	C	1.794927	-0.031955	1.616363
H119	H	1.246282	-0.557519	1.254577
H120	H	1.746282	-0.057519	1.754577
H121	H	1.278299	-0.489211	1.239392
H122	H	1.778299	0.010789	1.739392
H123	H	1.362419	-0.547972	1.250032
H124	H	1.862419	-0.047972	1.750032
H125	H	1.228040	-0.515615	1.090058
H126	H	1.728040	-0.015615	1.590058
H127	H	1.312152	-0.574389	1.100691
H128	H	1.812152	-0.074389	1.600691
H129	H	1.019877	-0.509851	0.750356
H130	H	1.519877	-0.009851	1.250356
H131	H	0.827625	-0.419387	0.617467
H132	H	1.327625	0.080613	1.117467
C133	C	0.963154	-0.551402	0.811392
C134	C	1.463154	-0.051402	1.311392
C135	C	0.855790	-0.551800	0.811975
C136	C	1.355790	-0.051800	1.311975
H137	H	0.994022	-0.584858	0.860534
H138	H	1.494022	-0.084858	1.360534
H139	H	0.978806	-0.511641	0.828781
H140	H	1.478806	-0.011641	1.328781
H141	H	0.989450	-0.557449	0.744468
H142	H	1.489450	-0.057449	1.244468
H143	H	0.829494	-0.545747	0.878899
H144	H	1.329494	-0.045747	1.378899
H145	H	0.840131	-0.591571	0.794593
H146	H	1.340131	-0.091571	1.294593
H147	H	1.004658	-0.391500	0.576501
H148	H	1.504658	0.108500	1.076501
C149	C	1.593975	-0.819873	0.904594
C150	C	2.093975	-0.319873	1.404594
C151	C	1.543643	-0.853829	0.839512
C152	C	2.043643	-0.353829	1.339512
H153	H	1.632916	-0.848970	0.954928
H154	H	2.132916	-0.348970	1.454928
H155	H	1.544136	-0.792988	0.938192
H156	H	2.044136	-0.292988	1.438192
H157	H	1.639023	-0.794639	0.864798
H158	H	2.139023	-0.294639	1.364798
H159	H	1.498590	-0.879059	0.879306
H160	H	1.998590	-0.379059	1.379306
H161	H	1.593488	-0.880725	0.805912
H162	H	2.093488	-0.380725	1.305912
H163	H	1.319125	-0.805323	0.549284
H164	H	1.819125	-0.305323	1.049284
H165	H	1.319043	-0.686042	0.549241
H166	H	1.819043	-0.186042	1.049241
C167	C	1.594161	-1.168195	0.904725
C168	C	2.094161	-0.668195	1.404725
C169	C	1.543795	-1.116679	0.839608
C170	C	2.043795	-0.616679	1.339608
H171	H	1.633064	-1.152673	0.955056
H172	H	2.133064	-0.652673	1.455056
H173	H	1.639237	-1.194244	0.864961
H174	H	2.139237	-0.694244	1.364961
H175	H	1.544335	-1.192598	0.938334
H176	H	2.044335	-0.692598	1.438334
H177	H	1.593621	-1.092278	0.805993
H178	H	2.093621	-0.592278	1.305993
H179	H	1.498715	-1.090618	0.879378
H180	H	1.998715	-0.590618	1.379378
C181	C	1.477475	-1.291887	0.898305
C182	C	1.977475	-0.791887	1.398305
C183	C	1.543879	-1.254692	0.839652
C184	C	2.043879	-0.754692	1.339652
H185	H	1.516427	-1.320976	0.948643
H186	H	2.016427	-0.820976	1.448643
H187	H	1.443332	-1.314919	0.854155
H188	H	1.943332	-0.814919	1.354155
H189	H	1.427643	-1.264991	0.931909
H190	H	1.927643	-0.764991	1.431909
H191	H	1.593708	-1.281588	0.806042
H192	H	2.093708	-0.781588	1.306042
H193	H	1.578040	-1.231659	0.883807
H194	H	2.078040	-0.731659	1.383807
C195	C	1.315155	-1.279462	0.543970
C196	C	1.815155	-0.779462	1.043970
C197	C	1.303006	-1.212702	0.528288
C198	C	1.803006	-0.712702	1.028288
H199	H	1.276233	-1.294981	0.493650
H200	H	1.776233	-0.794981	0.993650
H201	H	1.291295	-1.293516	0.611138
H202	H	1.791295	-0.793516	1.111138
H203	H	1.386177	-1.295166	0.537739
H204	H	1.886177	-0.795166	1.037739
H205	H	1.231985	-1.196997	0.534527
H206	H	1.731985	-0.696997	1.034527
H207	H	1.326861	-1.198642	0.461103
H208	H	1.826861	-0.698642	0.961103
H209	H	1.319289	-1.086912	0.549374
H210	H	1.819289	-0.586912	1.049374
H211	H	1.489877	-0.429527	1.088274
H212	H	1.989877	0.070473	1.588274
H213	H	1.356686	-0.499483	1.280469
H214	H	1.856686	0.000517	1.780469
