data_functionalizedCrystal
_audit_creation_method	'MofGen! by Chris Wilmer'
_symmetry_space_group_name_H-M	'P1'
_symmetry_Int_Tables_number	1
_symmetry_cell_setting	triclinic
loop_
_symmetry_equiv_pos_as_xyz
  x,y,z
_cell_length_a	17.000371
_cell_length_b	17.038272
_cell_length_c	10.268362
_cell_angle_alpha	89.994496
_cell_angle_beta	89.994912
_cell_angle_gamma	83.355402
loop_
_atom_site_label
_atom_site_type_symbol
_atom_site_fract_x
_atom_site_fract_y
_atom_site_fract_z
O1	O	1.058002	0.028043	-0.108306
O2	O	0.828181	0.056288	-0.108308
O3	O	0.941726	-0.071556	-0.108297
O4	O	0.944457	0.155887	-0.108317
O5	O	0.941715	-0.071560	0.108304
O6	O	0.828170	0.056284	0.108293
O7	O	1.057991	0.028039	0.108295
Cu8	Cu	0.943080	0.042161	0.128071
Cu9	Cu	0.943092	0.042166	-0.128084
O10	O	0.944446	0.155883	0.108283
C11	C	0.798625	0.057803	-0.000008
C12	C	0.710572	0.062314	-0.000008
C13	C	0.673845	-0.007108	0.000000
C14	C	0.591110	-0.002864	-0.000009
C15	C	0.545102	0.070802	-0.000018
C16	C	0.581834	0.140229	-0.000031
C17	C	0.664568	0.135985	-0.000030
C18	C	0.295066	0.087196	-0.000029
C19	C	0.212327	0.091434	-0.000025
C20	C	0.221608	-0.051659	-0.000006
C21	C	0.304344	-0.055897	0.000002
C22	C	0.341068	0.013530	-0.000017
C23	C	0.460533	0.075141	-0.000024
C24	C	0.425636	0.009190	-0.000021
C25	C	0.939235	-0.100516	0.000003
C26	C	0.931823	-0.186802	0.000003
C27	C	0.999881	-0.241577	0.000005
C28	C	0.992911	-0.322650	-0.000008
C29	C	0.917882	-0.348946	-0.000013
C30	C	0.849819	-0.294164	-0.000018
C31	C	0.856789	-0.213093	-0.000015
C32	C	0.893256	-0.593018	-0.000031
C33	C	0.886291	-0.674096	-0.000030
C34	C	1.029384	-0.702577	-0.000021
C35	C	1.036348	-0.621502	-0.000010
C36	C	0.968285	-0.566727	-0.000023
C37	C	0.910756	-0.431816	-0.000021
C38	C	0.975411	-0.483859	-0.000024
C39	C	1.087547	0.026524	-0.000009
C40	C	1.175600	0.022013	-0.000017
C41	C	0.946936	0.184843	-0.000020
C42	C	0.954349	0.271129	-0.000028
N43	N	0.943076	0.042157	0.308237
N44	N	0.943102	0.042164	-0.308250
C45	C	0.943088	0.042165	0.573907
C46	C	0.943079	0.042163	0.426069
H47	H	0.463099	-0.050788	-0.000021
H48	H	0.341798	-0.115883	0.000015
H49	H	0.849667	-0.453235	-0.000022
Cl50	Cl	0.175435	-0.138933	0.000011
Cl51	Cl	0.710738	0.223261	-0.000047
H52	H	1.048332	-0.367246	-0.000003
H53	H	1.036500	-0.462446	-0.000049
Cl54	Cl	0.731676	-0.099721	0.000020
Cl55	Cl	0.544943	-0.090142	-0.000036
Cl56	Cl	1.094208	-0.208528	0.000025
H57	H	1.097445	-0.600099	-0.000006
Cl58	Cl	0.154489	0.184050	-0.000024
H59	H	1.084797	-0.747183	-0.000014
Cl60	Cl	0.791962	-0.707152	-0.000028
H61	H	0.423064	0.135120	-0.000030
H62	H	0.544368	0.200209	-0.000047
H63	H	0.324957	0.143728	-0.000053
H64	H	0.837834	-0.548429	-0.000040
Cl65	Cl	0.755496	-0.327222	-0.000041
H66	H	0.801369	-0.168494	-0.000017
