data_functionalizedCrystal
_audit_creation_method	'MofGen! by Chris Wilmer'
_symmetry_space_group_name_H-M	'P1'
_symmetry_Int_Tables_number	1
_symmetry_cell_setting	triclinic
loop_
_symmetry_equiv_pos_as_xyz
  x,y,z
_cell_length_a	19.377372
_cell_length_b	14.809374
_cell_length_c	14.809374
_cell_angle_alpha	60.797835
_cell_angle_beta	87.767910
_cell_angle_gamma	78.646145
loop_
_atom_site_label
_atom_site_type_symbol
_atom_site_fract_x
_atom_site_fract_y
_atom_site_fract_z
Zr1	Zr	0.699833	1.243940	-0.380211
O2	O	0.622221	1.369839	-0.507792
O3	O	0.712638	1.071456	-0.325364
O4	O	0.738555	1.231296	-0.518442
O5	O	0.588359	1.236216	-0.180312
O6	O	0.842820	1.274314	-0.544743
O7	O	0.596304	1.209999	-0.314714
O8	O	0.796460	0.988389	-0.199363
O9	O	0.634720	1.522142	-0.525693
O10	O	0.809186	1.191758	-0.340613
O11	O	0.725445	1.179221	-0.220682
O12	O	0.755959	1.367412	-0.448006
O13	O	0.672218	1.354874	-0.328075
Zr14	Zr	0.853454	1.354363	-0.207803
Zr15	Zr	0.866125	1.312548	-0.422159
Zr16	Zr	0.687163	1.285754	-0.165855
Zr17	Zr	0.719768	1.486845	-0.408761
Zr18	Zr	0.833519	1.111457	-0.179253
O19	O	0.840649	1.526847	-0.262650
O20	O	0.858666	1.467392	-0.567436
O21	O	0.604205	1.429294	-0.203005
O22	O	0.931066	1.228464	-0.080222
O23	O	0.949083	1.169009	-0.385009
O24	O	0.694622	1.130911	-0.020577
O25	O	0.964928	1.362086	-0.407702
O26	O	0.814732	1.367006	-0.069572
O27	O	0.710467	1.323988	-0.043271
O28	O	0.956983	1.388304	-0.273300
O29	O	0.766899	1.576677	-0.559036
O30	O	0.786388	1.021626	-0.028978
O31	O	0.918567	1.076161	-0.062321
O32	O	0.928639	1.042924	-0.232706
O33	O	0.624649	1.555379	-0.355308
O34	O	0.756828	1.609914	-0.388651
O35	O	0.797328	1.230890	-0.140008
O36	O	0.881069	1.243428	-0.259939
O37	O	0.827842	1.419082	-0.367332
O38	O	0.744101	1.406544	-0.247400
C39	C	0.751709	0.995314	-0.258296
C40	C	0.743246	0.892194	-0.246175
C41	C	0.781014	0.852439	-0.300266
C42	C	0.772268	0.745860	-0.287741
C43	C	0.568639	1.213332	-0.241536
C44	C	0.498044	1.184206	-0.223728
C45	C	0.126949	1.546849	-0.445449
C46	C	0.060622	1.519457	-0.428700
C47	C	0.116197	1.336087	-0.316590
C48	C	0.182530	1.363465	-0.333326
C49	C	0.187900	1.468848	-0.397757
C50	C	0.243480	1.285464	-0.285634
C51	C	0.309808	1.312839	-0.302373
C52	C	0.315185	1.418216	-0.366804
C53	C	0.254228	1.496223	-0.414496
C54	C	0.238109	1.180081	-0.221209
C55	C	0.299060	1.102080	-0.173517
C56	C	0.365389	1.129455	-0.190250
C57	C	0.370766	1.234832	-0.254681
C58	C	0.426346	1.051448	-0.142558
C59	C	0.492674	1.078824	-0.159297
C60	C	0.437093	1.262207	-0.271420
C61	C	0.984649	1.384970	-0.346478
C62	C	1.055244	1.414096	-0.364286
C63	C	0.792493	1.246848	-0.562134
C64	C	0.797872	1.229096	-0.653133
C65	C	0.801579	1.602989	-0.329718
C66	C	0.810042	1.706109	-0.341838
C67	C	0.773866	1.308318	-0.746978
C68	C	0.779425	1.289973	-0.841032
C69	C	0.760794	1.351455	-0.025880
C70	C	0.755415	1.369206	0.065119
C71	C	0.959713	1.081133	-0.310766
C72	C	1.021846	1.007139	-0.316454
C73	C	0.735859	1.047617	0.009831
C74	C	0.722017	0.962249	0.112951
C75	C	0.943864	1.133436	-0.042640
C76	C	1.000617	1.077194	0.042672
C77	C	0.609423	1.464866	-0.545374
C78	C	0.552670	1.521108	-0.630686
C79	C	0.593574	1.517170	-0.277248
C80	C	0.531442	1.591163	-0.271560
C81	C	0.817428	1.550685	-0.597845
C82	C	0.831270	1.636054	-0.700965
C83	C	1.013502	0.945418	-0.361245
C84	C	1.071878	0.875900	-0.366610
C85	C	1.138596	0.868099	-0.327176
C86	C	1.146938	0.929830	-0.282384
C87	C	1.088564	0.999352	-0.277026
C88	C	0.753039	0.949132	0.203497
C89	C	0.740031	0.868933	0.300397
C90	C	0.696005	0.801848	0.306747
C91	C	0.664980	0.814970	0.216191
C92	C	0.677984	0.895173	0.119294
C93	C	1.070988	1.057330	0.020131
C94	C	1.124322	1.004499	0.100279
C95	C	1.107282	0.971526	0.202968
C96	C	1.036905	0.991397	0.225509
C97	C	0.983573	1.044234	0.145361
C98	C	0.482300	1.540985	-0.608146
C99	C	0.428969	1.593846	-0.688298
C100	C	0.446009	1.626823	-0.790988
C101	C	0.516386	1.606946	-0.813527
C102	C	0.569716	1.554093	-0.733377
C103	C	0.539787	1.652893	-0.226779
C104	C	0.481415	1.722433	-0.221441
C105	C	0.414697	1.730236	-0.260879
C106	C	0.406354	1.668502	-0.305666
C107	C	0.464726	1.598969	-0.311010
C108	C	0.875299	1.703118	-0.707282
C109	C	0.888319	1.783325	-0.804168
C110	C	0.857304	1.796472	-0.894735
C111	C	0.813273	1.729398	-0.888415
C112	C	0.800258	1.649187	-0.791531
H113	H	0.848857	0.750971	-0.397420
H114	H	0.542302	1.015310	-0.120445
H115	H	1.084875	1.084168	-0.063478
H116	H	1.186122	0.811485	-0.331543
H117	H	0.421963	0.965646	-0.090106
H118	H	0.627014	1.537909	-0.751742
H119	H	1.181622	0.988325	0.081908
H120	H	0.441463	1.348026	-0.323857
H121	H	0.530252	1.633803	-0.897147
H122	H	1.201268	0.923468	-0.250279
H123	H	0.959183	0.951766	-0.393371
H124	H	0.367173	1.786859	-0.256521
H125	H	0.594106	1.646548	-0.194656
H126	H	0.184100	1.157795	-0.207590
H127	H	1.150715	0.928504	0.268221
H128	H	1.095367	1.049599	-0.240547
H129	H	0.685422	0.736546	0.385653
H130	H	0.822542	1.147691	-0.642421
H131	H	0.749202	1.389726	-0.757691
H132	H	1.023041	0.964544	0.309129
H133	H	0.926275	1.060397	0.163730
H134	H	1.065071	0.825644	-0.403083
H135	H	0.468412	1.514133	-0.524536
H136	H	0.704438	0.847324	-0.190591
H137	H	0.488221	1.772689	-0.184967
H138	H	0.131319	1.632668	-0.497886
H139	H	0.352025	1.674868	-0.337774
H140	H	0.629133	0.760338	0.221377
H141	H	0.258597	1.582042	-0.466934
H142	H	0.294677	1.016277	-0.121060
H143	H	0.788888	1.003748	0.198346
H144	H	0.457921	1.548707	-0.347471
H145	H	0.804097	1.208562	-0.830313
H146	H	0.371669	1.610018	-0.669925
H147	H	0.900557	1.692430	-0.633547
H148	H	0.924171	1.837932	-0.809294
H149	H	0.402577	1.669858	-0.856242
H150	H	0.730747	1.450620	-0.945602
H151	H	0.765300	0.858263	0.374120
H152	H	0.867907	1.861789	-0.973618
H153	H	0.652723	0.905839	0.045572
H154	H	0.788024	1.740115	-0.962169
H155	H	0.764403	1.594588	-0.786401
H156	H	0.010994	1.582982	-0.467543
H157	H	0.819827	0.897303	-0.355844
H158	H	0.733457	0.700993	-0.232153
H159	H	0.111814	1.250285	-0.264133
H160	H	0.369195	1.440502	-0.380434
