data_functionalizedCrystal
_audit_creation_method	'MofGen! by Chris Wilmer'
_symmetry_space_group_name_H-M	'P1'
_symmetry_Int_Tables_number	1
_symmetry_cell_setting	triclinic
loop_
_symmetry_equiv_pos_as_xyz
  x,y,z
_cell_length_a	6.394989
_cell_length_b	10.654550
_cell_length_c	9.730223
_cell_angle_alpha	89.999957
_cell_angle_beta	90.001437
_cell_angle_gamma	94.508679
loop_
_atom_site_label
_atom_site_type_symbol
_atom_site_fract_x
_atom_site_fract_y
_atom_site_fract_z
O1	O	-0.293441	1.670947	-0.114177
O2	O	-0.321399	1.305765	-0.114202
O3	O	-0.003431	1.493539	-0.114190
O4	O	-0.611409	1.483172	-0.114189
O5	O	-0.003422	1.493527	0.114390
O6	O	-0.321390	1.305752	0.114378
O7	O	-0.293433	1.670934	0.114403
Zn8	Zn	-0.307410	1.488341	0.150682
Zn9	Zn	-0.307421	1.488358	-0.150482
O10	O	-0.611400	1.483160	0.114391
C11	C	-0.319341	1.258939	0.000085
C12	C	-0.313200	1.119430	0.000075
C13	C	-0.500414	1.041927	0.000080
C14	C	-0.494631	0.910845	0.000104
C15	C	-0.114403	0.934782	0.000113
C16	C	-0.120188	1.065861	0.000099
C17	C	0.074425	1.491483	0.000094
C18	C	0.310750	1.485219	0.000093
C19	C	-0.295490	1.717760	0.000113
C20	C	-0.301631	1.857269	0.000113
N21	N	-0.307401	1.488339	0.356219
N22	N	-0.307414	1.488369	-0.356018
C23	C	-0.166665	1.571516	0.428150
C24	C	-0.166665	1.571528	0.572033
C25	C	-0.448157	1.405184	0.572041
C26	C	-0.448144	1.405166	0.428161
H27	H	-0.647080	0.847747	0.000110
C28	C	-0.014132	1.661894	0.349931
C29	C	-0.126525	1.740561	0.267293
C30	C	0.013948	1.823817	0.195221
H31	H	0.073539	1.615416	0.293728
H32	H	0.069708	1.711506	0.413309
H33	H	-0.210330	1.690955	0.203922
H34	H	-0.214189	1.787068	0.323461
H35	H	0.097788	1.873429	0.258599
H36	H	0.101611	1.777328	0.139026
H37	H	-0.062290	1.877209	0.139153
C38	C	-0.600622	1.314711	0.349978
C39	C	-0.488125	1.236036	0.267421
C40	C	-0.628504	1.152685	0.195392
H41	H	-0.688334	1.361117	0.293725
H42	H	-0.684429	1.265111	0.413382
H43	H	-0.404355	1.285630	0.204023
H44	H	-0.400421	1.189601	0.323640
H45	H	-0.712310	1.103085	0.258796
H46	H	-0.716208	1.199103	0.139146
H47	H	-0.552195	1.099287	0.139378
H48	H	-0.562750	1.337468	0.630630
C49	C	-0.013777	1.661978	0.649881
C50	C	0.109439	1.734828	0.556076
C51	C	0.250291	1.818177	0.627738
H52	H	0.074094	1.615574	0.706023
H53	H	-0.089699	1.715523	0.705969
H54	H	0.185355	1.681289	0.500011
H55	H	0.021625	1.781258	0.499931
H56	H	0.174370	1.871722	0.683826
H57	H	0.338148	1.771763	0.683877
H58	H	0.333897	1.867624	0.564102
H59	H	-0.657577	1.085539	0.000071
H60	H	0.032274	1.128967	0.000099
C61	C	0.094936	0.876377	0.000056
C62	C	0.059938	0.744994	0.000029
C63	C	0.252734	0.691153	-0.000047
H64	H	0.172265	0.902640	0.079744
H65	H	0.172119	0.902700	-0.079688
H66	H	-0.017213	0.718681	0.079765
H67	H	-0.017359	0.718696	-0.079653
H68	H	0.329918	0.717477	-0.079791
H69	H	0.330049	0.717425	0.079643
H70	H	0.229015	0.602005	-0.000078
