data_functionalizedCrystal
_audit_creation_method	'MofGen! by Chris Wilmer'
_symmetry_space_group_name_H-M	'P1'
_symmetry_Int_Tables_number	1
_symmetry_cell_setting	triclinic
loop_
_symmetry_equiv_pos_as_xyz
  x,y,z
_cell_length_a	10.654541
_cell_length_b	10.868271
_cell_length_c	11.792241
_cell_angle_alpha	90.001559
_cell_angle_beta	84.338672
_cell_angle_gamma	90.003021
loop_
_atom_site_label
_atom_site_type_symbol
_atom_site_fract_x
_atom_site_fract_y
_atom_site_fract_z
O1	O	1.667393	0.102285	0.159401
O2	O	1.301871	0.102296	0.174593
O3	O	1.493503	0.102282	0.001847
O4	O	1.475762	0.102299	0.332147
O5	O	1.493485	-0.102363	0.001852
O6	O	1.301854	-0.102349	0.174598
O7	O	1.667376	-0.102360	0.159407
Zn8	Zn	1.484612	-0.134846	0.167003
Zn9	Zn	1.484635	0.134782	0.166996
O10	O	1.475745	-0.102345	0.332153
C11	C	1.255068	-0.000025	0.173481
C12	C	1.115634	-0.000021	0.170145
N13	N	1.484606	-0.318860	0.167008
C14	C	1.087078	0.000005	0.376710
C15	C	1.007297	0.000023	0.478420
C16	C	0.876287	0.000024	0.475279
C17	C	0.825059	0.000004	0.370416
C18	C	0.904841	-0.000015	0.268706
C19	C	1.035851	-0.000012	0.271858
C20	C	0.933396	-0.000050	0.062144
C21	C	1.064405	-0.000042	0.065282
C22	C	0.882167	-0.000071	-0.042719
C23	C	0.961949	-0.000080	-0.144432
C24	C	1.092966	-0.000080	-0.141286
C25	C	1.144187	-0.000060	-0.036428
C26	C	1.484615	-0.430198	0.167008
C27	C	1.484632	-0.569875	0.166998
C28	C	1.714180	-0.000036	0.160519
C29	C	1.853614	-0.000032	0.163854
C30	C	1.492380	-0.000040	-0.040444
C31	C	1.489044	-0.000039	-0.166465
N32	N	1.484652	0.318796	0.166983
C33	C	1.482911	-0.000018	-0.397192
C34	C	1.486319	-0.000030	-0.268799
C35	C	1.476868	-0.000021	0.374443
C36	C	1.480203	-0.000014	0.500465
H37	H	1.193752	0.000032	0.379277
N38	N	1.278008	-0.000088	-0.033213
N39	N	1.342843	-0.086369	-0.077902
H40	H	1.437356	-0.086395	-0.075628
N41	N	0.691237	-0.000031	0.367207
N42	N	0.626393	-0.086297	0.411919
H43	H	0.531880	-0.086325	0.409651
N44	N	0.794787	0.000069	0.579171
N45	N	0.718508	0.086341	0.600445
H46	H	0.660948	0.086375	0.673819
H47	H	1.157918	-0.000099	-0.224112
H48	H	0.775491	-0.000077	-0.045269
H49	H	0.920227	-0.000096	-0.229803
N50	N	1.059647	0.000035	0.585521
N51	N	1.176619	0.000033	0.588317
H52	H	1.213590	0.000038	0.663957
