data_functionalizedCrystal
_audit_creation_method	'MofGen! by Chris Wilmer'
_symmetry_space_group_name_H-M	'P1'
_symmetry_Int_Tables_number	1
_symmetry_cell_setting	triclinic
loop_
_symmetry_equiv_pos_as_xyz
  x,y,z
_cell_length_a	9.016244
_cell_length_b	11.792241
_cell_length_c	11.792241
_cell_angle_alpha	95.806584
_cell_angle_beta	89.991995
_cell_angle_gamma	89.992774
loop_
_atom_site_label
_atom_site_type_symbol
_atom_site_fract_x
_atom_site_fract_y
_atom_site_fract_z
O1	O	-0.123197	-1.506896	0.155574
O2	O	-0.123231	-1.176555	0.171607
O3	O	-0.123203	-1.349742	-0.001580
O4	O	-0.123225	-1.333709	0.328761
O5	O	0.123478	-1.349753	-0.001598
O6	O	0.123449	-1.176566	0.171589
O7	O	0.123484	-1.506907	0.155556
Cu8	Cu	0.145990	-1.341737	0.163571
Cu9	Cu	-0.145738	-1.341724	0.163592
O10	O	0.123455	-1.333720	0.328743
C11	C	0.000105	-1.134269	0.170591
C12	C	0.000092	-1.008255	0.167576
N13	N	-0.350924	-1.341716	0.163599
C14	C	0.000137	-1.348740	-0.043880
C15	C	0.000135	-1.345726	-0.169894
C16	C	-0.585972	-1.249185	0.256331
C17	C	-0.414081	-1.248830	0.256114
C18	C	-0.413284	-1.315430	0.044915
C19	C	-0.585229	-1.314787	0.045433
C20	C	-0.585431	-1.460875	0.188409
C21	C	-0.413477	-1.460076	0.191121
N22	N	0.351177	-1.341755	0.163555
C23	C	0.000145	-1.549192	0.156572
C24	C	0.000148	-1.675206	0.159587
C25	C	0.000135	-0.777543	0.162034
C26	C	0.000111	-0.905928	0.165113
C27	C	0.000110	-1.340183	-0.400606
C28	C	0.000124	-1.343262	-0.272221
C29	C	0.000112	-1.334721	0.371043
C30	C	0.000104	-1.337736	0.497057
H31	H	-0.371922	-1.264549	0.344303
H32	H	-0.370482	-1.532215	0.128020
Br33	Br	-0.345564	-1.493308	0.336652
Br34	Br	-0.654530	-1.422847	-0.073175
H35	H	-0.626079	-1.529768	0.120768
Br36	Br	-0.654948	-1.274972	0.403792
H37	H	-0.625345	-1.227899	0.023689
Br38	Br	-0.658013	-1.102692	0.230070
H39	H	-0.372961	-1.160433	0.240140
Br40	Br	-0.345099	-1.424771	-0.072978
H41	H	-0.370221	-1.229528	0.022672
H42	H	-0.628826	-1.486037	0.273146
