data_functionalizedCrystal
_audit_creation_method	'MofGen! by Chris Wilmer'
_symmetry_space_group_name_H-M	'P1'
_symmetry_Int_Tables_number	1
_symmetry_cell_setting	triclinic
loop_
_symmetry_equiv_pos_as_xyz
  x,y,z
_cell_length_a	16.109317
_cell_length_b	14.586319
_cell_length_c	16.109301
_cell_angle_alpha	89.994786
_cell_angle_beta	83.464848
_cell_angle_gamma	90.001084
loop_
_atom_site_label
_atom_site_type_symbol
_atom_site_fract_x
_atom_site_fract_y
_atom_site_fract_z
O1	O	-1.103122	0.076146	-0.106931
O2	O	-0.861062	0.076169	-0.120216
O3	O	-0.988742	0.076147	0.007457
O4	O	-0.975443	0.076167	-0.234604
O5	O	-0.988733	-0.076333	0.007459
O6	O	-0.861053	-0.076312	-0.120214
O7	O	-1.103113	-0.076335	-0.106929
Cu8	Cu	-0.982083	-0.090246	-0.113572
Cu9	Cu	-0.982093	0.090080	-0.113574
O10	O	-0.975434	-0.076313	-0.234603
C11	C	-0.830083	-0.000068	-0.119675
C12	C	-0.737788	-0.000060	-0.118054
N13	N	-0.982081	-0.217078	-0.113570
C14	C	-0.438719	0.083047	-0.112821
C15	C	-0.525441	0.083051	-0.114338
C16	C	-0.525450	-0.083192	-0.114325
C17	C	-0.438731	-0.083195	-0.112802
C18	C	-0.395367	-0.000073	-0.112054
C19	C	-0.568808	-0.000066	-0.115095
C20	C	-0.662835	-0.000062	-0.116740
C21	C	-0.301335	-0.000076	-0.110408
C22	C	-1.038636	-0.452094	-0.057055
C23	C	-1.038639	-0.548075	-0.057053
C24	C	-0.925540	-0.548065	-0.170087
C25	C	-0.925534	-0.452086	-0.170084
C26	C	-0.982087	-0.404103	-0.113569
C27	C	-0.982095	-0.596063	-0.113570
C28	C	-0.982097	-0.700131	-0.113568
C29	C	-0.982084	-0.300029	-0.113570
C30	C	-0.134092	-0.000091	-0.107472
C31	C	-0.226387	-0.000079	-0.109095
C32	C	-0.988199	-0.000093	0.038433
C33	C	-0.986584	-0.000095	0.130728
N34	N	-0.982101	0.216912	-0.113570
C35	C	-0.975977	-0.000071	-0.265578
C36	C	-0.977592	-0.000063	-0.357874
C37	C	-1.058591	-0.000087	0.352996
C38	C	-1.057067	-0.000079	0.439717
C39	C	-0.905579	-0.000068	0.419851
C40	C	-0.907104	-0.000069	0.333132
C41	C	-0.983612	-0.000083	0.299707
C42	C	-0.980563	-0.000075	0.473147
C43	C	-0.978910	-0.000066	0.567173
C44	C	-0.985266	-0.000090	0.205675
H45	H	-0.560734	0.150736	-0.114962
H46	H	-0.403416	0.150730	-0.112211
O47	O	-1.129845	-0.000206	0.491566
C48	C	-1.216062	-0.079228	0.600979
C49	C	-1.133597	-0.079191	0.542321
H50	H	-1.219130	-0.143090	0.642016
H51	H	-1.219149	-0.015455	0.642123
H52	H	-1.270989	-0.079192	0.562173
H53	H	-1.078624	-0.079259	0.581060
H54	H	-1.130584	-0.142958	0.501173
H55	H	-0.846044	-0.000064	0.289742
H56	H	-0.560767	-0.150867	-0.114935
H57	H	-0.403433	-0.150885	-0.112177
H58	H	-1.084684	-0.413028	-0.011036
H59	H	-1.120889	-0.000097	0.325785
H60	H	-1.084685	-0.587147	-0.011033
O61	O	-0.870578	-0.594782	-0.224873
C62	C	-0.757011	-0.703112	-0.242535
C63	C	-0.819220	-0.650282	-0.180397
H64	H	-0.715460	-0.747982	-0.206601
H65	H	-0.792853	-0.748100	-0.284071
H66	H	-0.716627	-0.652307	-0.282944
H67	H	-0.859619	-0.701021	-0.139933
H68	H	-0.783327	-0.605280	-0.138919
O69	O	-0.870568	-0.405603	-0.225067
C70	C	-0.758355	-0.415714	-0.337147
C71	C	-0.820570	-0.468469	-0.274945
H72	H	-0.717903	-0.466518	-0.377478
H73	H	-0.794190	-0.370794	-0.378749
H74	H	-0.716871	-0.370762	-0.301216
H75	H	-0.862070	-0.513471	-0.310808
H76	H	-0.784683	-0.513331	-0.233344
O77	O	-0.831335	-0.000104	0.452461
C78	C	-0.761847	-0.000050	0.577251
C79	C	-0.845988	-0.000027	0.540435
H80	H	-0.773665	0.000032	0.648383
H81	H	-0.724783	-0.063876	0.555366
H82	H	-0.724797	0.063750	0.555249
H83	H	-0.883105	-0.063783	0.562421
H84	H	-0.882988	0.063842	0.562315
