data_functionalizedCrystal
_audit_creation_method	'MofGen! by Chris Wilmer'
_symmetry_space_group_name_H-M	'P1'
_symmetry_Int_Tables_number	1
_symmetry_cell_setting	triclinic
loop_
_symmetry_equiv_pos_as_xyz
  x,y,z
_cell_length_a	15.298068
_cell_length_b	12.645330
_cell_length_c	15.296720
_cell_angle_alpha	80.351902
_cell_angle_beta	91.645182
_cell_angle_gamma	99.672781
loop_
_atom_site_label
_atom_site_type_symbol
_atom_site_fract_x
_atom_site_fract_y
_atom_site_fract_z
Zn1	Zn	1.253422	-0.315356	0.727377
Zn2	Zn	1.278703	-0.457728	0.580914
Zn3	Zn	1.132300	-0.305056	0.555544
Zn4	Zn	1.106940	-0.517157	0.701940
O5	O	1.192841	-0.398824	0.641444
O6	O	1.379348	-0.313682	0.729212
O7	O	1.280476	-0.408294	0.454986
O8	O	1.148400	-0.158074	0.578366
O9	O	1.397922	-0.418282	0.621606
O10	O	1.237387	-0.165642	0.704611
O11	O	1.172914	-0.296126	0.436346
O12	O	1.006363	-0.353752	0.553700
O13	O	1.105178	-0.519570	0.827877
O14	O	0.987731	-0.509582	0.661257
O15	O	1.212797	-0.371308	0.846566
O16	O	1.255886	-0.613960	0.596941
O17	O	1.129692	-0.657622	0.685858
C18	C	0.965265	-0.436999	0.601966
C19	C	0.867904	-0.453360	0.585098
C20	C	0.554716	-0.282152	0.762004
C21	C	0.646191	-0.266783	0.777858
C22	C	0.701624	-0.313426	0.729669
C23	C	0.665572	-0.375440	0.665625
C24	C	0.574087	-0.390817	0.649774
C25	C	0.720995	-0.422091	0.617439
C26	C	0.684943	-0.484106	0.553395
C27	C	0.593467	-0.499479	0.537547
C28	C	0.538035	-0.452837	0.585736
C29	C	0.812480	-0.406714	0.633289
C30	C	0.831851	-0.515380	0.521059
C31	C	0.740376	-0.530748	0.505206
C32	C	1.192801	-0.674256	0.641416
C33	C	1.192859	-0.792081	0.641447
C34	C	1.272162	-0.932119	0.585353
C35	C	1.272353	-0.809561	0.585557
C36	C	1.201905	-0.854280	0.738105
C37	C	1.202503	-0.976702	0.737838
C38	C	1.104326	-0.969326	0.601788
C39	C	1.105128	-0.846153	0.599795
C40	C	1.421306	-0.360502	0.681077
C41	C	1.518664	-0.344171	0.697966
C42	C	1.153339	-0.453217	0.869889
C43	C	1.136505	-0.476395	0.967239
C44	C	1.192902	-0.122317	0.641496
C45	C	1.192928	-0.004486	0.641518
C46	C	1.232241	-0.344559	0.413896
C47	C	1.249244	-0.321053	0.316576
C48	C	1.313187	-0.232971	1.280574
C49	C	1.329008	-0.211194	1.189110
C50	C	1.280884	-0.277492	1.133638
C51	C	1.216935	-0.365571	1.169639
C52	C	1.201117	-0.387355	1.261113
C53	C	1.168814	-0.431877	1.114177
C54	C	1.104865	-0.519956	1.150177
C55	C	1.089049	-0.541736	1.241642
C56	C	1.137174	-0.475438	1.297114
C57	C	1.184632	-0.410093	1.022703
C58	C	1.072562	-0.564478	1.003241
C59	C	1.056740	-0.586254	1.094705
H60	H	1.268546	-0.765860	0.514389
Br61	Br	0.825771	-0.292567	0.751185
H62	H	1.268585	-0.947893	0.514019
Br63	Br	1.006256	-1.051389	0.669640
H64	H	1.337774	-0.955076	0.612665
H65	H	0.564116	-0.549985	0.485404
Br66	Br	0.695112	-0.182633	0.864777
H67	H	0.711009	-0.581242	0.453061
Br68	Br	1.271418	-0.290562	0.973856
H69	H	1.352368	-0.179006	1.325748
H70	H	1.338303	-0.772361	0.613109
H71	H	1.265370	-0.817106	0.770093
H72	H	1.093016	-0.988380	0.531696
H73	H	0.509575	-0.244189	0.801238
H74	H	0.463546	-0.465355	0.572837
H75	H	1.036985	-0.613463	1.270952
Br76	Br	0.907072	-0.578694	0.455662
Br77	Br	1.415794	-0.091666	1.140258
H78	H	1.266791	-0.998621	0.769625
Br79	Br	1.109040	-1.060095	0.811389
Br80	Br	1.107485	-0.839696	0.810871
Br81	Br	1.093269	-0.776094	0.481106
Br82	Br	1.003580	-0.828164	0.660824
Br83	Br	1.115707	-0.504993	1.421251
H84	H	1.293770	-0.259756	1.059164
Br85	Br	0.969955	-0.705786	1.143574
H86	H	0.841824	-0.356220	0.685434
Br87	Br	1.007253	-0.654467	0.927966
