data_functionalizedCrystal
_audit_creation_method	'MofGen! by Chris Wilmer'
_symmetry_space_group_name_H-M	'P1'
_symmetry_Int_Tables_number	1
_symmetry_cell_setting	triclinic
loop_
_symmetry_equiv_pos_as_xyz
  x,y,z
_cell_length_a	23.532355
_cell_length_b	23.532407
_cell_length_c	11.295483
_cell_angle_alpha	94.064566
_cell_angle_beta	85.927191
_cell_angle_gamma	82.838088
loop_
_atom_site_label
_atom_site_type_symbol
_atom_site_fract_x
_atom_site_fract_y
_atom_site_fract_z
O1	O	0.759131	0.065142	-0.098873
O2	O	1.259131	0.565142	0.401127
O3	O	0.593265	0.075175	-0.098913
O4	O	1.093265	0.575175	0.401087
O5	O	0.681199	-0.012773	-0.098870
O6	O	1.181199	0.487227	0.401130
O7	O	0.671197	0.153090	-0.098916
O8	O	1.171197	0.653090	0.401084
O9	O	0.673475	-0.005060	0.099177
O10	O	1.173475	0.494940	0.599177
O11	O	0.585541	0.082888	0.099134
O12	O	1.085541	0.582888	0.599134
O13	O	0.751407	0.072855	0.099174
O14	O	1.251407	0.572855	0.599174
Cu15	Cu	0.667769	0.078576	0.117237
Cu16	Cu	1.167769	0.578576	0.617237
Cu17	Cu	0.676903	0.069454	-0.116977
Cu18	Cu	1.176903	0.569454	0.383023
O19	O	0.663474	0.160803	0.099131
O20	O	1.163474	0.660803	0.599131
C21	C	0.568187	0.078780	0.000106
C22	C	1.068187	0.578780	0.500106
C23	C	0.504969	0.078026	0.000092
C24	C	1.004969	0.578026	0.500092
C25	C	0.108743	0.077494	0.108098
C26	C	0.608743	0.577494	0.608098
C27	C	0.049343	0.076776	0.108103
C28	C	0.549343	0.576776	0.608103
O29	O	0.015044	0.079962	0.199914
O30	O	0.515044	0.579962	0.699914
N31	N	0.023845	0.072216	0.000148
N32	N	0.523845	0.572216	0.500148
C33	C	0.057750	0.068368	-0.107819
C34	C	0.557750	0.568368	0.392181
O35	O	0.030607	0.064423	-0.199642
O36	O	0.530607	0.564423	0.300358
C37	C	0.117149	0.069081	-0.107822
C38	C	0.617149	0.569081	0.392178
C39	C	0.142643	0.073647	0.000140
C40	C	0.642643	0.573647	0.500140
C41	C	0.134238	0.082059	0.216051
C42	C	0.634238	0.582059	0.716051
C43	C	0.193633	0.082777	0.216046
C44	C	0.693633	0.582777	0.716046
C45	C	0.227533	0.078930	0.108088
C46	C	0.727533	0.578930	0.608088
C47	C	0.202039	0.074365	0.000134
C48	C	0.702039	0.574365	0.500134
C49	C	0.151054	0.065228	-0.215788
C50	C	0.651054	0.565228	0.284212
C51	C	0.210456	0.065941	-0.215782
C52	C	0.710456	0.565941	0.284218
C53	C	0.235951	0.070507	-0.107820
C54	C	0.735951	0.570507	0.392180
C55	C	0.295335	0.071237	-0.107829
C56	C	0.795335	0.571237	0.392171
N57	N	0.320833	0.075797	0.000126
N58	N	0.820833	0.575797	0.500126
C59	C	0.286933	0.079643	0.108084
C60	C	0.786933	0.579643	0.608084
C61	C	-0.066992	0.066869	-0.107803
C62	C	0.433008	0.566869	0.392197
C63	C	-0.126391	0.066160	-0.107801
C64	C	0.373609	0.566160	0.392199
C65	C	-0.134793	0.074568	0.108121
C66	C	0.365207	0.574568	0.608121
C67	C	-0.075394	0.075281	0.108118
C68	C	0.424606	0.575281	0.608118
C69	C	-0.041494	0.071429	0.000152
C70	C	0.458506	0.571429	0.500152
C71	C	0.411667	0.081152	0.108065
C72	C	0.911667	0.581152	0.608065
C73	C	0.471068	0.081872	0.108050
C74	C	0.971068	0.581872	0.608050
C75	C	0.479466	0.073462	-0.107871
C76	C	0.979466	0.573462	0.392129
C77	C	0.420070	0.072744	-0.107857
C78	C	0.920070	0.572744	0.392143
C79	C	0.386172	0.076588	0.000120
C80	C	0.886172	0.576588	0.500120
O81	O	0.329670	0.068051	-0.199593
O82	O	0.829670	0.568051	0.300407
O83	O	0.314084	0.083580	0.199892
O84	O	0.814084	0.583580	0.699892
C85	C	0.677082	-0.030133	0.000156
C86	C	1.177082	0.469867	0.500156
C87	C	0.676316	-0.093349	0.000165
C88	C	1.176316	0.406651	0.500165
C89	C	0.723553	-0.492463	0.000111
C90	C	1.223553	0.007537	0.500111
C91	C	0.722841	-0.551864	0.000102
C92	C	1.222841	-0.051864	0.500102
O93	O	0.766630	-0.588618	0.000068
O94	O	1.266630	-0.088618	0.500068
N95	N	0.670564	-0.574481	0.000090
N96	N	1.170564	-0.074481	0.500090
C97	C	0.618995	-0.537694	0.000076
C98	C	1.118995	-0.037694	0.500076
O99	O	0.574464	-0.562386	0.000064
O100	O	1.074464	-0.062386	0.500064
C101	C	0.619707	-0.478295	0.000077
C102	C	1.119707	0.021705	0.500077
C103	C	0.671987	-0.455681	0.000100
C104	C	1.171987	0.044319	0.500100
C105	C	0.775828	-0.469849	0.000134
C106	C	1.275828	0.030151	0.500134
C107	C	0.776539	-0.410452	0.000145
C108	C	1.276539	0.089548	0.500145
C109	C	0.724974	-0.373670	0.000134
C110	C	1.224974	0.126330	0.500134
C111	C	0.672698	-0.396285	0.000112
C112	C	1.172698	0.103715	0.500112
C113	C	0.568139	-0.441510	0.000054
C114	C	1.068139	0.058490	0.500054
C115	C	0.568856	-0.382107	0.000053
C116	C	1.068856	0.117893	0.500053
C117	C	0.621136	-0.359494	0.000077
C118	C	1.121136	0.140506	0.500077
C119	C	0.621844	-0.300106	0.000112
C120	C	1.121844	0.199894	0.500112
N121	N	0.674121	-0.277489	0.000124
N122	N	1.174121	0.222511	0.500124
C123	C	0.725686	-0.314271	0.000135
C124	C	1.225686	0.185729	0.500135
C125	C	0.617504	-0.662436	0.000072
C126	C	1.117504	-0.162436	0.500072
C127	C	0.616791	-0.721834	0.000080
C128	C	1.116791	-0.221834	0.500080
C129	C	0.720638	-0.736000	0.000104
C130	C	1.220638	-0.236000	0.500104
C131	C	0.721350	-0.676601	0.000105
C132	C	1.221350	-0.176601	0.500105
C133	C	0.669781	-0.639819	0.000084
C134	C	1.169781	-0.139819	0.500084
C135	C	0.727175	-0.189534	0.000160
C136	C	1.227175	0.310466	0.500160
C137	C	0.727881	-0.130131	0.000176
C138	C	1.227881	0.369869	0.500176
C139	C	0.624035	-0.115971	0.000146
C140	C	1.124035	0.384029	0.500146
C141	C	0.623328	-0.175368	0.000136
C142	C	1.123328	0.324632	0.500136
C143	C	0.674903	-0.212149	0.000139
C144	C	1.174903	0.287851	0.500139
O145	O	0.578079	-0.263318	0.000141
O146	O	1.078079	0.236682	0.500141
O147	O	0.770211	-0.289572	0.000131
O148	O	1.270211	0.210428	0.500131
C149	C	0.776486	0.069249	0.000152
C150	C	1.276486	0.569249	0.500152
C151	C	0.839704	0.070004	0.000158
C152	C	1.339704	0.570004	0.500158
C153	C	0.667590	0.178162	0.000102
C154	C	1.167590	0.678162	0.500102
C155	C	0.668357	0.241379	0.000085
C156	C	1.168357	0.741379	0.500085
N157	N	0.661349	0.084991	0.281970
N158	N	1.161349	0.584991	0.781970
N159	N	0.683327	0.063035	-0.281710
N160	N	1.183327	0.563035	0.218290
C161	C	0.729543	0.016824	0.531293
C162	C	1.229543	0.516824	1.031293
C163	C	0.724695	0.021675	0.655954
C164	C	1.224695	0.521675	1.155954
C165	C	0.646804	0.099543	0.655956
C166	C	1.146804	0.599543	1.155956
C167	C	0.651651	0.094691	0.531295
C168	C	1.151651	0.594691	1.031295
C169	C	0.693023	0.053331	0.468968
C170	C	1.193023	0.553331	0.968968
C171	C	0.697873	0.048482	0.344304
C172	C	1.197873	0.548482	0.844304
C173	C	0.619979	0.126347	0.344309
C174	C	1.119979	0.626347	0.844309
C175	C	0.615132	0.131199	0.468970
C176	C	1.115132	0.631199	0.968970
H177	H	0.130307	0.061509	-0.303702
H178	H	0.630307	0.561509	0.196298
H179	H	0.754432	-0.008053	0.706696
H180	H	1.254432	0.491947	1.206696
N181	N	-0.152419	0.061496	-0.218093
N182	N	0.347581	0.561496	0.281907
N183	N	-0.137481	0.018611	-0.290365
N184	N	0.362519	0.518611	0.209635
H185	H	-0.155861	0.015313	-0.368264
H186	H	0.344139	0.515313	0.131736
N187	N	0.582682	0.163642	0.280626
N188	N	1.082682	0.663642	0.780626
N189	N	0.587020	0.159311	0.169322
N190	N	1.087020	0.659311	0.669322
H191	H	0.560682	0.185652	0.124344
H192	H	1.060682	0.685652	0.624344
H193	H	0.384074	0.084287	0.195991
H194	H	0.884074	0.584287	0.695991
N195	N	0.569927	-0.198473	0.000156
N196	N	1.069927	0.301527	0.500156
N197	N	0.531990	-0.183856	0.083641
N198	N	1.031990	0.316144	0.583641
H199	H	0.494274	-0.200172	0.083652
H200	H	0.994274	0.299828	0.583652
H201	H	0.507078	0.070332	-0.195768
H202	H	1.007078	0.570332	0.304232
H203	H	0.525568	-0.459911	0.000027
H204	H	1.025568	0.040089	0.500027
H205	H	0.491822	0.085593	0.195969
H206	H	0.991822	0.585593	0.695969
H207	H	0.613116	0.133215	0.706720
H208	H	1.113116	0.633215	1.206720
H209	H	0.581446	0.164872	0.519731
H210	H	1.081446	0.664872	1.019731
N211	N	-0.169428	0.078507	0.218405
N212	N	0.330572	0.578507	0.718405
N213	N	-0.208990	0.119198	0.242477
N214	N	0.291010	0.619198	0.742477
H215	H	-0.233452	0.121983	0.320361
H216	H	0.266548	0.621983	0.820361
H217	H	0.574219	-0.740239	0.000081
H218	H	1.074219	-0.240239	0.500081
H219	H	0.238056	0.062805	-0.303703
H220	H	0.738056	0.562805	0.196297
H221	H	0.526862	-0.352162	0.000035
H222	H	1.026862	0.147838	0.500035
H223	H	0.763233	-0.016850	0.480545
H224	H	1.263233	0.483150	0.980545
H225	H	0.214385	0.086492	0.303960
H226	H	0.714385	0.586492	0.803960
N227	N	-0.032375	0.062937	-0.218106
N228	N	0.467625	0.562937	0.281894
N229	N	-0.055154	0.058865	-0.314479
N230	N	0.444846	0.558865	0.185521
H231	H	-0.030708	0.056086	-0.392382
H232	H	0.469292	0.556086	0.107618
H233	H	0.582052	-0.086012	0.000141
H234	H	1.082052	0.413988	0.500141
N235	N	0.773318	-0.773571	0.000090
N236	N	1.273318	-0.273571	0.500090
N237	N	0.819994	-0.753379	0.000095
N238	N	1.319994	-0.253379	0.500095
H239	H	0.857198	-0.779914	0.000084
H240	H	1.357198	-0.279914	0.500084
N241	N	0.828511	-0.507408	0.000137
N242	N	1.328511	-0.007408	0.500137
N243	N	0.875178	-0.487197	0.000152
N244	N	1.375178	0.012803	0.500152
H245	H	0.912389	-0.513719	0.000161
H246	H	1.412389	-0.013719	0.500161
H247	H	0.106642	0.085190	0.303969
H248	H	0.606642	0.585190	0.803969
N249	N	-0.049365	0.079953	0.218408
N250	N	0.450635	0.579953	0.718408
N251	N	-0.079648	0.083395	0.314786
N252	N	0.420352	0.583395	0.814786
H253	H	-0.061269	0.086696	0.392684
H254	H	0.438731	0.586696	0.892684
H255	H	0.399310	0.069036	-0.195769
H256	H	0.899310	0.569036	0.304231
N257	N	0.829939	-0.387349	0.000146
N258	N	1.329939	0.112651	0.500146
N259	N	0.830577	-0.334315	0.000145
N260	N	1.330577	0.165685	0.500145
H261	H	0.868293	-0.318001	0.000143
H262	H	1.368293	0.181999	0.500143
H263	H	0.731561	0.014806	0.293558
H264	H	1.231561	0.514806	0.793558
H265	H	0.770455	-0.111723	0.000199
H266	H	1.270455	0.388277	0.500199
H267	H	0.769172	-0.219475	0.000158
H268	H	1.269172	0.280525	0.500158
N269	N	0.774751	-0.653502	0.000146
N270	N	1.274751	-0.153502	0.500146
N271	N	0.806178	-0.661636	0.083643
N272	N	1.306178	-0.161636	0.583643
H273	H	0.843895	-0.645325	0.083673
H274	H	1.343895	-0.145325	0.583673
N275	N	0.564819	-0.624875	0.000055
N276	N	1.064819	-0.124875	0.500055
N277	N	0.518150	-0.645082	0.000043
N278	N	1.018150	-0.145082	0.500043
H279	H	0.480941	-0.618558	0.000028
H280	H	0.980941	-0.118558	0.500028
