data_functionalizedCrystal
_audit_creation_method	'MofGen! by Chris Wilmer'
_symmetry_space_group_name_H-M	'P1'
_symmetry_Int_Tables_number	1
_symmetry_cell_setting	triclinic
loop_
_symmetry_equiv_pos_as_xyz
  x,y,z
_cell_length_a	18.050591
_cell_length_b	21.295417
_cell_length_c	18.050583
_cell_angle_alpha	89.959541
_cell_angle_beta	89.977979
_cell_angle_gamma	90.026512
loop_
_atom_site_label
_atom_site_type_symbol
_atom_site_fract_x
_atom_site_fract_y
_atom_site_fract_z
Zn1	Zn	1.135289	-0.250631	-0.420010
Zn2	Zn	1.635289	0.249369	0.079990
Zn3	Zn	1.135192	-0.355917	-0.295811
Zn4	Zn	1.635192	0.144083	0.204189
Zn5	Zn	1.011106	-0.250659	-0.295821
Zn6	Zn	1.511106	0.249341	0.204179
Zn7	Zn	1.011051	-0.355859	-0.419946
Zn8	Zn	1.511051	0.144141	0.080054
O9	O	1.073159	-0.303267	-0.357897
O10	O	1.573159	0.196733	0.142103
O11	O	1.239201	-0.264610	-0.403557
O12	O	1.739201	0.235390	0.096443
O13	O	1.118714	-0.341991	-0.191887
O14	O	1.618714	0.158009	0.308113
O15	O	1.027642	-0.162566	-0.312326
O16	O	1.527642	0.337434	0.187674
O17	O	1.239130	-0.341964	-0.312308
O18	O	1.739130	0.158036	0.187692
O19	O	1.118879	-0.162545	-0.403567
O20	O	1.618879	0.337455	0.096433
O21	O	1.027548	-0.264658	-0.191895
O22	O	1.527548	0.235342	0.308105
O23	O	0.907174	-0.264601	-0.312264
O24	O	1.407174	0.235399	0.187736
O25	O	1.027549	-0.341864	-0.523879
O26	O	1.527549	0.158136	-0.023879
O27	O	0.907134	-0.341891	-0.403458
O28	O	1.407134	0.158109	0.096542
O29	O	1.118826	-0.264554	-0.523926
O30	O	1.618826	0.235446	-0.023926
O31	O	1.118661	-0.443999	-0.312247
O32	O	1.618661	0.056001	0.187753
O33	O	1.027455	-0.443956	-0.403449
O34	O	1.527455	0.056044	0.096551
C35	C	0.880207	-0.303243	-0.357856
C36	C	1.380207	0.196757	0.142144
C37	C	0.797662	-0.303248	-0.357856
C38	C	1.297662	0.196752	0.142144
C39	C	0.598211	-0.261169	-0.308379
C40	C	1.098211	0.238831	0.191621
C41	C	0.548788	-0.318588	-0.290098
C42	C	1.048788	0.181412	0.209902
C43	C	0.646531	-0.303267	-0.357889
C44	C	1.146531	0.196733	0.142111
C45	C	0.548872	-0.245869	-0.376169
C46	C	1.048872	0.254131	0.123831
C47	C	0.500546	-0.303281	-0.357921
C48	C	1.000546	0.196719	0.142079
C49	C	0.598196	-0.360716	-0.339573
C50	C	1.098196	0.139284	0.160427
C51	C	0.598284	-0.287959	-0.425676
C52	C	1.098284	0.212041	0.074324
C53	C	0.548883	-0.345417	-0.407420
C54	C	1.048883	0.154583	0.092580
C55	C	0.730629	-0.303259	-0.357870
C56	C	1.230629	0.196741	0.142130
C57	C	0.416450	-0.303296	-0.357940
C58	C	0.916450	0.196704	0.142060
C59	C	1.073062	-0.466818	-0.357856
C60	C	1.573062	0.033182	0.142144
C61	C	1.073088	-0.536786	-0.357863
C62	C	1.573088	-0.036786	0.142137
C63	C	1.120621	-0.569654	-0.310423
C64	C	1.620621	-0.069654	0.189577
C65	C	1.120656	-0.635397	-0.310440
C66	C	1.620656	-0.135397	0.189560
C67	C	1.073145	-0.668269	-0.357889
C68	C	1.573145	-0.168269	0.142111
C69	C	1.025608	-0.635393	-0.405338
C70	C	1.525608	-0.135393	0.094662
C71	C	1.025580	-0.569652	-0.405325
C72	C	1.525580	-0.069652	0.094675
N73	N	1.008178	-0.771530	-0.363536
N74	N	1.508178	-0.271530	0.136464
N75	N	1.008207	-0.833981	-0.363544
N76	N	1.508207	-0.333981	0.136456
C77	C	1.073228	-0.866344	-0.357931
C78	C	1.573228	-0.366344	0.142069
N79	N	1.138221	-0.833895	-0.352296
N80	N	1.638221	-0.333895	0.147704
N81	N	1.138191	-0.771438	-0.352284
N82	N	1.638191	-0.271438	0.147716
C83	C	1.073170	-0.739554	-0.357908
C84	C	1.573170	-0.239554	0.142092
C85	C	1.120803	-0.970497	-0.310507
C86	C	1.620803	-0.470497	0.189493
C87	C	1.120839	-1.036241	-0.310529
C88	C	1.620839	-0.536241	0.189471
C89	C	1.025784	-1.036235	-0.405423
C90	C	1.525784	-0.536235	0.094577
C91	C	1.025755	-0.970493	-0.405405
C92	C	1.525755	-0.470493	0.094595
C93	C	1.073263	-0.937628	-0.357943
C94	C	1.573263	-0.437628	0.142057
C95	C	1.266865	-0.303291	-0.357939
C96	C	1.766865	0.196709	0.142061
C97	C	1.349411	-0.303301	-0.357956
C98	C	1.849411	0.196699	0.142044
C99	C	1.073192	-0.303199	-0.551603
C100	C	1.573192	0.196801	-0.051603
C101	C	1.073206	-0.303171	-0.634148
C102	C	1.573206	0.196829	-0.134148
C103	C	1.073277	-0.139076	-0.357955
C104	C	1.573277	0.360924	0.142045
C105	C	1.073328	-0.069108	-0.357979
C106	C	1.573328	0.430892	0.142021
C107	C	1.122892	-0.261109	-0.833625
C108	C	1.622892	0.238891	-0.333625
C109	C	1.055159	-0.245698	-0.883014
C110	C	1.555159	0.254302	-0.383014
C111	C	1.073236	-0.303160	-0.785279
C112	C	1.573236	0.196840	-0.285279
C113	C	1.140996	-0.318531	-0.882972
C114	C	1.640996	0.181469	-0.382972
C115	C	1.073271	-0.303148	-0.931264
C116	C	1.573271	0.196852	-0.431264
C117	C	1.005467	-0.287720	-0.833581
C118	C	1.505467	0.212280	-0.333581
C119	C	1.091350	-0.360579	-0.833534
C120	C	1.591350	0.139421	-0.333534
C121	C	1.023570	-0.345190	-0.882901
C122	C	1.523570	0.154810	-0.382901
C123	C	1.073217	-0.303165	-0.701181
C124	C	1.573217	0.196835	-0.201181
C125	C	1.073282	-0.303143	-1.015361
C126	C	1.573282	0.196857	-0.515361
C127	C	1.073169	-0.303288	-0.164945
C128	C	1.573169	0.196712	0.335055
C129	C	1.073299	-0.303139	-0.082399
C130	C	1.573299	0.196861	0.417601
H131	H	0.619870	-0.225606	-0.266464
H132	H	1.119870	0.274394	0.233536
C133	C	0.966800	-0.393221	-0.911956
C134	C	1.466800	0.106779	-0.411956
H135	H	0.918722	-0.382194	-0.894952
H136	H	1.418722	0.117806	-0.394952
H137	H	0.979244	-0.433890	-0.894265
H138	H	1.479244	0.066110	-0.394265
H139	H	0.967402	-0.393197	-0.964582
H140	H	1.467402	0.106803	-0.464582
C141	C	0.627337	-0.426317	-0.318612
C142	C	1.127337	0.073683	0.181388
H143	H	0.679966	-0.425906	-0.318703
H144	H	1.179966	0.074094	0.181297
H145	H	0.610052	-0.456248	-0.353572
H146	H	1.110052	0.043752	0.146428
H147	H	0.609978	-0.437261	-0.270616
H148	H	1.109978	0.062739	0.229384
H149	H	1.159366	-0.662163	-0.271808
H150	H	1.659366	-0.162163	0.228192
C151	C	0.519606	-0.180288	-0.397043
C152	C	1.019606	0.319712	0.102957
H153	H	0.536505	-0.150426	-0.361805
H154	H	1.036505	0.349574	0.138195
H155	H	0.466985	-0.180854	-0.397350
H156	H	0.966985	0.319146	0.102650
H157	H	0.537289	-0.169120	-0.444849
H158	H	1.037289	0.330880	0.055151
H159	H	1.106680	-0.409128	-0.811786
H160	H	1.606680	0.090872	-0.311786
C161	C	1.218387	-0.336106	-0.912276
C162	C	1.718387	0.163894	-0.412276
H163	H	1.253592	-0.306191	-0.895394
H164	H	1.753592	0.193809	-0.395394
H165	H	1.217739	-0.336354	-0.964896
H166	H	1.717739	0.163646	-0.464896
H167	H	1.231581	-0.376613	-0.894598
H168	H	1.731581	0.123387	-0.394598
C169	C	0.973347	-0.671546	-0.457533
C170	C	1.473347	-0.171546	0.042467
H171	H	0.945036	-0.642553	-0.485790
H172	H	1.445036	-0.142553	0.014210
H173	H	0.941016	-0.697236	-0.429099
H174	H	1.441016	-0.197236	0.070901
H175	H	1.001752	-0.697147	-0.489926
H176	H	1.501752	-0.197147	0.010074
C177	C	0.519413	-0.336093	-0.212679
C178	C	1.019413	0.163907	0.287321
H179	H	0.536297	-0.306136	-0.177545
H180	H	1.036297	0.193864	0.322455
H181	H	0.537026	-0.376583	-0.199362
H182	H	1.037026	0.123417	0.300638
H183	H	0.466788	-0.336343	-0.213364
H184	H	0.966788	0.163657	0.286636
C185	C	0.519799	-0.393570	-0.463997
C186	C	1.019799	0.106430	0.036003
H187	H	0.536779	-0.434312	-0.450902
H188	H	1.036779	0.065688	0.049098
H189	H	0.537495	-0.383039	-0.511994
H190	H	1.037495	0.116961	-0.011994
H191	H	0.467173	-0.393076	-0.463986
H192	H	0.967173	0.106924	0.036014
C193	C	0.627683	-0.270430	-0.503073
C194	C	1.127683	0.229570	-0.003073
H195	H	0.610827	-0.229608	-0.515978
H196	H	1.110827	0.270392	-0.015978
H197	H	0.610060	-0.299922	-0.538382
H198	H	1.110060	0.200078	-0.038382
H199	H	0.680307	-0.270930	-0.502604
H200	H	1.180307	0.229070	-0.002604
H201	H	0.986872	-0.542890	-0.443958
H202	H	1.486872	-0.042890	0.056042
H203	H	0.948161	-0.274658	-0.811976
H204	H	1.448161	0.225342	-0.311976
C205	C	1.034477	-0.180098	-0.912380
C206	C	1.534477	0.319902	-0.412380
H207	H	1.069793	-0.150271	-0.895514
H208	H	1.569793	0.349729	-0.395514
H209	H	0.986694	-0.168884	-0.894743
H210	H	1.486694	0.331116	-0.394743
H211	H	1.034200	-0.180666	-0.965004
H212	H	1.534200	0.319334	-0.465004
C213	C	1.172861	-0.533503	-0.258203
C214	C	1.672861	-0.033503	0.241797
H215	H	1.166029	-0.489642	-0.264978
H216	H	1.666029	0.010358	0.235022
H217	H	1.222764	-0.544227	-0.269102
H218	H	1.722764	-0.044227	0.230898
H219	H	1.162002	-0.544331	-0.208300
H220	H	1.662002	-0.044331	0.291700
C221	C	1.173066	-0.934343	-0.258310
C222	C	1.673066	-0.434343	0.241690
H223	H	1.201390	-0.963336	-0.230066
H224	H	1.701390	-0.463336	0.269934
H225	H	1.144669	-0.908742	-0.225915
H226	H	1.644669	-0.408742	0.274085
H227	H	1.205396	-0.908653	-0.286753
H228	H	1.705396	-0.408653	0.213247
C229	C	1.179533	-0.213044	-0.804395
C230	C	1.679533	0.286956	-0.304395
H231	H	1.166552	-0.172263	-0.821341
H232	H	1.666552	0.327737	-0.321341
H233	H	1.227531	-0.223571	-0.822036
H234	H	1.727531	0.276429	-0.322036
H235	H	1.179446	-0.213639	-0.751769
H236	H	1.679446	0.286361	-0.251769
H237	H	1.159551	-1.063001	-0.271899
H238	H	1.659551	-0.563001	0.228101
H239	H	0.987103	-1.062999	-0.444060
H240	H	1.487103	-0.562999	0.055940
H241	H	0.987046	-0.943730	-0.444032
H242	H	1.487046	-0.443730	0.055968
