data_functionalizedCrystal
_audit_creation_method	'MofGen! by Chris Wilmer'
_symmetry_space_group_name_H-M	'P1'
_symmetry_Int_Tables_number	1
_symmetry_cell_setting	triclinic
loop_
_symmetry_equiv_pos_as_xyz
  x,y,z
_cell_length_a	19.121063
_cell_length_b	17.638336
_cell_length_c	17.640968
_cell_angle_alpha	65.689241
_cell_angle_beta	81.648500
_cell_angle_gamma	81.674337
loop_
_atom_site_label
_atom_site_type_symbol
_atom_site_fract_x
_atom_site_fract_y
_atom_site_fract_z
Zn1	Zn	-0.388313	1.338582	-0.735764
Zn2	Zn	-0.523556	1.305199	-0.603323
Zn3	Zn	-0.388276	1.172903	-0.570148
Zn4	Zn	-0.484544	1.196871	-0.711728
O5	O	-0.446172	1.253389	-0.655241
O6	O	-0.422595	1.448827	-0.742138
O7	O	-0.521922	1.263648	-0.484243
O8	O	-0.291393	1.198821	-0.588292
O9	O	-0.521958	1.424300	-0.644834
O10	O	-0.291420	1.320545	-0.709970
O11	O	-0.422533	1.166450	-0.459869
O12	O	-0.384704	1.061409	-0.564986
O13	O	-0.455468	1.239672	-0.829596
O14	O	-0.455432	1.079019	-0.669005
O15	O	-0.384767	1.343786	-0.847255
O16	O	-0.615270	1.286889	-0.621528
O17	O	-0.586608	1.207301	-0.701173
C18	C	-0.415831	1.040481	-0.610788
C19	C	-0.402865	0.949401	-0.591791
C20	C	-0.347687	0.811857	-0.510936
C21	C	-0.359875	0.897441	-0.528794
C22	C	-0.433689	0.915790	-0.636953
C23	C	-0.421510	0.830205	-0.619102
C24	C	-0.378508	0.778245	-0.556094
C25	C	-0.452331	0.796594	-0.664259
C26	C	-0.440151	0.711017	-0.646413
C27	C	-0.397149	0.659051	-0.583409
C28	C	-0.366327	0.692668	-0.538247
C29	C	-0.495329	0.848556	-0.727272
C30	C	-0.526151	0.814944	-0.772429
C31	C	-0.513974	0.729365	-0.754578
C32	C	-0.470972	0.677400	-0.691575
C33	C	-0.544795	0.695748	-0.799740
C34	C	-0.532615	0.610172	-0.781894
C35	C	-0.458791	0.591823	-0.673728
C36	C	-0.626061	1.246099	-0.662365
C37	C	-0.703025	1.243062	-0.665455
C38	C	-0.754082	1.283122	-0.625492
C39	C	-0.826397	1.280270	-0.628405
C40	C	-0.847654	1.237354	-0.671276
C41	C	-0.796591	1.197293	-0.711244
C42	C	-0.724277	1.200150	-0.708336
C43	C	-1.065248	1.226658	-0.682133
C44	C	-1.137568	1.223803	-0.685036
C45	C	-1.167369	1.306781	-0.602198
C46	C	-1.095053	1.309630	-0.599289
C47	C	-1.043996	1.269573	-0.639261
C48	C	-0.921571	1.234437	-0.674252
C49	C	-0.970081	1.272496	-0.636290
C50	C	-0.265582	1.260733	-0.648111
C51	C	-0.188625	1.263862	-0.645073
C52	C	-0.415770	1.298126	-0.868992
C53	C	-0.402814	1.317191	-0.960080
C54	C	-0.476632	1.467128	-0.699868
C55	C	-0.489612	1.558211	-0.718885
C56	C	-0.544265	1.108888	-1.213694
C57	C	-0.532084	1.126820	-1.299288
C58	C	-0.458470	1.235225	-1.317664
C59	C	-0.470641	1.217300	-1.232069
C60	C	-0.513540	1.154131	-1.180090
C61	C	-0.439916	1.262543	-1.198466
C62	C	-0.452090	1.244621	-1.112879
C63	C	-0.494988	1.181458	-1.060895
C64	C	-0.525714	1.136210	-1.094503
C65	C	-0.397022	1.325715	-1.250447
C66	C	-0.366297	1.370958	-1.216843
C67	C	-0.378466	1.353033	-1.131254
C68	C	-0.421365	1.289869	-1.079270
C69	C	-0.347741	1.398280	-1.097646
C70	C	-0.359915	1.380359	-1.012059
C71	C	-0.433539	1.271948	-0.993683
C72	C	-0.476414	1.208875	-0.442329
C73	C	-0.489197	1.189977	-0.351267
H74	H	-0.423774	0.549514	-0.622420
Cl75	Cl	-0.948300	1.180485	-0.728145
Cl76	Cl	-0.890581	1.330637	-0.578166
Cl77	Cl	-1.068337	1.363598	-0.545406
H78	H	-0.468699	0.958108	-0.688256
Cl79	Cl	-1.231558	1.357142	-0.551958
Cl80	Cl	-1.001072	1.176298	-0.732382
Cl81	Cl	-1.164288	1.169834	-0.738923
Cl82	Cl	-0.823313	1.143347	-0.765146
H83	H	-0.952772	1.307442	-0.601388
H84	H	-0.682706	1.167530	-0.740880
H85	H	-0.504903	1.166871	-0.991206
Cl86	Cl	-0.404544	1.314636	-1.383016
H87	H	-0.387228	0.589371	-0.568883
H88	H	-0.334766	0.924805	-0.492023
Cl89	Cl	-0.312371	1.450368	-1.282195
Cl90	Cl	-0.510645	0.956140	-0.749705
Cl91	Cl	-0.312278	0.627337	-0.459023
H92	H	-0.468452	1.220491	-0.951354
Cl93	Cl	-0.580214	0.880271	-0.851631
H94	H	-0.312670	0.769547	-0.459628
H95	H	-0.579802	0.738068	-0.851047
Cl96	Cl	-0.381721	1.348247	-1.358044
H97	H	-0.557710	0.582805	-0.818668
H98	H	-0.736782	1.318064	-0.590578
Cl99	Cl	-0.570713	1.069933	-1.341528
Cl100	Cl	-0.579637	1.056790	-1.029150
H101	H	-0.579178	1.057431	-1.171365
H102	H	-0.312819	1.449717	-1.139980
Cl103	Cl	-0.321292	1.437239	-0.969811
