data_functionalizedCrystal
_audit_creation_method	'MofGen! by Chris Wilmer'
_symmetry_space_group_name_H-M	'P1'
_symmetry_Int_Tables_number	1
_symmetry_cell_setting	triclinic
loop_
_symmetry_equiv_pos_as_xyz
  x,y,z
_cell_length_a	12.645331
_cell_length_b	12.645330
_cell_length_c	12.759387
_cell_angle_alpha	89.970586
_cell_angle_beta	89.981578
_cell_angle_gamma	90.018103
loop_
_atom_site_label
_atom_site_type_symbol
_atom_site_fract_x
_atom_site_fract_y
_atom_site_fract_z
Zn1	Zn	1.620736	-0.421972	-0.593957
Zn2	Zn	2.120736	0.078028	-0.093957
Zn3	Zn	1.620616	-0.599274	-0.418281
Zn4	Zn	2.120616	-0.099274	0.081719
Zn5	Zn	1.443449	-0.422026	-0.418300
Zn6	Zn	1.943449	0.077974	0.081700
Zn7	Zn	1.443432	-0.599195	-0.593927
Zn8	Zn	1.943432	-0.099195	-0.093927
O9	O	1.532058	-0.510617	-0.506116
O10	O	2.032058	-0.010617	-0.006116
O11	O	1.769067	-0.445502	-0.570658
O12	O	2.269067	0.054498	-0.070658
O13	O	1.597071	-0.575817	-0.271263
O14	O	2.097071	-0.075817	0.228737
O15	O	1.467023	-0.273672	-0.441621
O16	O	1.967023	0.226328	0.058379
O17	O	1.768979	-0.575765	-0.441590
O18	O	2.268979	-0.075765	0.058410
O19	O	1.597275	-0.273632	-0.570676
O20	O	2.097275	0.226368	-0.070676
O21	O	1.466907	-0.445594	-0.271276
O22	O	1.966907	0.054406	0.228724
O23	O	1.295099	-0.445518	-0.441593
O24	O	1.795099	0.054482	0.058407
O25	O	1.466995	-0.575630	-0.740952
O26	O	1.966995	-0.075630	-0.240952
O27	O	1.295087	-0.575683	-0.570625
O28	O	1.795087	-0.075683	-0.070625
O29	O	1.597259	-0.445425	-0.740974
O30	O	2.097259	0.054575	-0.240974
O31	O	1.597055	-0.747611	-0.441561
O32	O	2.097055	-0.247611	0.058439
O33	O	1.466879	-0.747553	-0.570607
O34	O	1.966879	-0.247553	-0.070607
C35	C	1.256628	-0.510598	-0.506108
C36	C	1.756628	-0.010598	-0.006108
C37	C	1.138798	-0.510616	-0.506130
C38	C	1.638798	-0.010616	-0.006130
C39	C	1.093944	-0.592643	-0.587185
C40	C	1.593944	-0.092643	-0.087185
C41	C	0.971384	-0.592980	-0.586944
C42	C	1.471384	-0.092980	-0.086944
C43	C	0.970844	-0.540464	-0.395273
C44	C	1.470844	-0.040464	0.104727
C45	C	1.093442	-0.541043	-0.395742
C46	C	1.593442	-0.041043	0.104258
C47	C	1.093652	-0.398568	-0.534962
C48	C	1.593652	0.101432	-0.034962
C49	C	0.971047	-0.399187	-0.537403
C50	C	1.471047	0.100813	-0.037403
C51	C	1.531981	-0.786046	-0.506102
C52	C	2.031981	-0.286046	-0.006102
C53	C	1.532045	-0.903877	-0.506130
C54	C	2.032045	-0.403877	-0.006130
C55	C	1.450488	-1.071448	-0.587563
C56	C	1.950488	-0.571448	-0.087563
C57	C	1.450071	-0.948889	-0.587302
C58	C	1.950071	-0.448889	-0.087302
C59	C	1.501798	-0.948480	-0.395410
C60	C	2.001798	-0.448480	0.104590
C61	C	1.501301	-1.071078	-0.395904
C62	C	2.001301	-0.571078	0.104096
C63	C	1.644346	-1.070963	-0.534520
C64	C	2.144346	-0.570963	-0.034520
C65	C	1.643658	-0.948356	-0.536941
C66	C	2.143658	-0.448356	-0.036941
C67	C	1.808563	-0.510636	-0.506125
C68	C	2.308563	-0.010636	-0.006125
C69	C	1.926393	-0.510644	-0.506129
C70	C	2.426393	-0.010644	-0.006129
C71	C	1.532138	-0.510513	-0.780150
C72	C	2.032138	-0.010513	-0.280150
C73	C	1.532172	-0.510469	-0.896927
C74	C	2.032172	-0.010469	-0.396927
C75	C	1.532165	-0.234111	-0.506154
C76	C	2.032165	0.265889	-0.006154
C77	C	1.532210	-0.116281	-0.506170
C78	C	2.032210	0.383719	-0.006170
C79	C	1.667826	-0.374895	-0.896969
C80	C	2.167826	0.125105	-0.396969
C81	C	1.735667	-0.307092	-0.951851
C82	C	2.235667	0.192908	-0.451851
C83	C	1.735693	-0.307054	-1.061573
C84	C	2.235693	0.192946	-0.561573
C85	C	1.667868	-0.374823	-1.116415
C86	C	2.167868	0.125177	-0.616415
C87	C	1.600026	-0.442625	-1.061533
C88	C	2.100026	0.057375	-0.561533
C89	C	1.600010	-0.442659	-0.951809
C90	C	2.100010	0.057341	-0.451809
C91	C	1.464369	-0.578192	-1.061490
C92	C	1.964369	-0.078192	-0.561490
C93	C	1.464347	-0.578238	-0.951769
C94	C	1.964347	-0.078238	-0.451769
C95	C	1.396544	-0.645961	-1.116332
C96	C	1.896544	-0.145961	-0.616332
C97	C	1.328706	-0.713771	-1.061450
C98	C	1.828706	-0.213771	-0.561450
C99	C	1.328684	-0.713807	-0.951722
C100	C	1.828684	-0.213807	-0.451722
C101	C	1.396506	-0.646040	-0.896887
C102	C	1.896506	-0.146040	-0.396887
C103	C	1.532039	-0.510644	-0.233149
C104	C	2.032039	-0.010644	0.266851
C105	C	1.532211	-0.510389	-0.116373
C106	C	2.032211	-0.010389	0.383627
H107	H	0.941999	-0.376692	-0.618987
H108	H	1.441999	0.123308	-0.118987
H109	H	0.941701	-0.482554	-0.333222
H110	H	1.441701	0.017446	0.166778
H111	H	1.367876	-1.102351	-0.569022
H112	H	1.867876	-0.602351	-0.069022
H113	H	1.123112	-0.483852	-0.333278
H114	H	1.623112	0.016148	0.166722
H115	H	1.707751	-0.917709	-0.481975
H116	H	2.207751	-0.417709	0.018025
H117	H	1.396499	-0.646068	-0.807545
H118	H	1.896499	-0.146068	-0.307545
H119	H	1.671936	-1.101800	-0.613885
H120	H	2.171936	-0.601800	-0.113885
H121	H	1.559433	-0.919326	-0.333108
H122	H	2.059433	-0.419326	0.166892
H123	H	1.468995	-0.918728	-0.669401
H124	H	1.968995	-0.418728	-0.169401
H125	H	1.469239	-1.100853	-0.669932
H126	H	1.969239	-0.600853	-0.169932
H127	H	0.940114	-0.621465	-0.370489
H128	H	1.440114	-0.121465	0.129511
H129	H	1.558240	-1.100740	-0.333192
H130	H	2.058240	-0.600740	0.166808
H131	H	1.396566	-0.645921	-1.205674
H132	H	1.896566	-0.145921	-0.705674
H133	H	0.940422	-0.334848	-0.482717
H134	H	1.440422	0.165152	0.017283
H135	H	1.790887	-0.251914	-0.907187
H136	H	2.290887	0.248086	-0.407187
H137	H	1.366939	-0.919656	-0.568520
H138	H	1.866939	-0.419656	-0.068520
H139	H	0.942026	-0.676015	-0.567816
H140	H	1.442026	-0.176015	-0.067816
H141	H	1.124608	-0.371323	-0.614436
H142	H	1.624608	0.128677	-0.114436
H143	H	1.273483	-0.768937	-1.106111
H144	H	1.773483	-0.268937	-0.606111
H145	H	1.667886	-0.374776	-1.205756
H146	H	2.167886	0.125224	-0.705756
H147	H	1.124721	-0.675199	-0.568288
H148	H	1.624721	-0.175199	-0.068288
H149	H	1.419328	-1.099772	-0.371887
H150	H	1.919328	-0.599772	0.128113
H151	H	1.122660	-0.337460	-0.475931
H152	H	1.622660	0.162540	0.024069
H153	H	1.420681	-0.917871	-0.370958
H154	H	1.920681	-0.417871	0.129042
H155	H	1.666467	-0.919198	-0.618426
H156	H	2.166467	-0.419198	-0.118426
H157	H	1.705230	-1.099955	-0.475238
H158	H	2.205230	-0.599955	0.024762
H159	H	1.273428	-0.769009	-0.907043
H160	H	1.773428	-0.269009	-0.407043
H161	H	1.790929	-0.251836	-1.106258
H162	H	2.290929	0.248164	-0.606258
H163	H	1.667821	-0.374930	-0.807628
H164	H	2.167821	0.125070	-0.307628
H165	H	0.941332	-0.574377	-0.669129
H166	H	1.441332	-0.074377	-0.169129
H167	H	1.123463	-0.574254	-0.669625
H168	H	1.623463	-0.074254	-0.169625
H169	H	1.122006	-0.622934	-0.371373
H170	H	1.622006	-0.122934	0.128627
