data_functionalizedCrystal
_audit_creation_method	'MofGen! by Chris Wilmer'
_symmetry_space_group_name_H-M	'P1'
_symmetry_Int_Tables_number	1
_symmetry_cell_setting	triclinic
loop_
_symmetry_equiv_pos_as_xyz
  x,y,z
_cell_length_a	9.065218
_cell_length_b	14.750522
_cell_length_c	9.065215
_cell_angle_alpha	104.025325
_cell_angle_beta	85.015291
_cell_angle_gamma	104.026786
loop_
_atom_site_label
_atom_site_type_symbol
_atom_site_fract_x
_atom_site_fract_y
_atom_site_fract_z
O1	O	1.989357	0.079830	0.245313
O2	O	1.560072	0.079831	0.263060
O3	O	1.783589	0.079826	0.039542
O4	O	1.765841	0.079834	0.468831
O5	O	1.725654	-0.079833	-0.018377
O6	O	1.502138	-0.079828	0.205141
O7	O	1.931422	-0.079829	0.187394
Zn8	Zn	1.707581	-0.105178	0.187072
Zn9	Zn	1.783913	0.105179	0.263382
O10	O	1.707906	-0.079824	0.410912
C11	C	1.476118	0.000002	0.232395
C12	C	1.312276	0.000002	0.227295
N13	N	1.655498	-0.248741	0.134991
C14	C	1.981348	-0.600512	0.460945
C15	C	1.944886	-0.701016	0.424428
C16	C	1.763543	-0.701005	0.242956
C17	C	1.799985	-0.600499	0.279463
C18	C	1.908890	-0.550260	0.388457
C19	C	1.727526	-0.550247	0.206975
C20	C	1.763971	-0.449749	0.243475
C21	C	1.872875	-0.399504	0.352461
C22	C	1.945335	-0.449763	0.424957
C23	C	1.618630	-0.600488	0.097974
C24	C	1.546171	-0.550236	0.025486
C25	C	1.582608	-0.449736	0.061992
C26	C	1.691512	-0.399490	0.170979
C27	C	1.510148	-0.399477	-0.010503
C28	C	1.546593	-0.298980	0.025996
C29	C	1.727957	-0.298993	0.207478
C30	C	2.015377	0.000002	0.218060
C31	C	2.179222	0.000008	0.223162
C32	C	1.752917	-0.000002	-0.044403
C33	C	1.747820	0.000001	-0.208245
N34	N	1.836008	0.248743	0.315452
C35	C	1.738579	0.000006	0.494858
C36	C	1.743678	0.000009	0.658703
H37	H	1.816622	-0.258086	0.296248
H38	H	1.674877	-0.741923	0.154207
H39	H	1.421489	-0.440397	-0.099258
O40	O	1.908037	-0.301880	0.388066
C41	C	1.816476	-0.157677	0.484605
C42	C	1.776456	-0.268234	0.444378
H43	H	1.710111	-0.130441	0.530112
H44	H	1.906687	-0.130351	0.575027
H45	H	1.862253	-0.130393	0.378340
H46	H	1.730616	-0.295600	0.550553
H47	H	1.686303	-0.295495	0.353900
H48	H	1.588969	-0.682319	0.068250
O49	O	2.087214	-0.551850	0.566821
C50	C	2.263172	-0.562456	0.743069
C51	C	2.143343	-0.617685	0.623176
H52	H	2.308563	-0.615659	0.788691
H53	H	2.360856	-0.515414	0.688789
H54	H	2.208720	-0.515397	0.840572
H55	H	2.197658	-0.664796	0.525639
H56	H	2.045672	-0.664666	0.677571
H57	H	1.457505	-0.591154	-0.063263
O58	O	2.050919	-0.400907	0.531021
C59	C	2.103239	-0.287411	0.771522
C60	C	1.983513	-0.342699	0.651554
H61	H	2.048795	-0.240321	0.868986
H62	H	2.148756	-0.340542	0.817202
H63	H	2.200846	-0.240389	0.717125
H64	H	1.885820	-0.389723	0.705840
H65	H	1.938119	-0.289516	0.605883
H66	H	2.003898	-0.741928	0.483466
O67	O	1.476015	-0.250307	-0.044505
C68	C	1.292348	-0.260891	-0.228423
C69	C	1.372131	-0.316132	-0.148663
H70	H	1.208363	-0.314086	-0.312675
H71	H	1.228777	-0.213883	-0.139976
H72	H	1.380933	-0.213797	-0.291741
H73	H	1.283645	-0.363278	-0.085349
H74	H	1.435731	-0.363079	-0.237181
