data_functionalizedCrystal
_audit_creation_method	'MofGen! by Chris Wilmer'
_symmetry_space_group_name_H-M	'P1'
_symmetry_Int_Tables_number	1
_symmetry_cell_setting	triclinic
loop_
_symmetry_equiv_pos_as_xyz
  x,y,z
_cell_length_a	6.817900
_cell_length_b	13.167930
_cell_length_c	13.212919
_cell_angle_alpha	93.770867
_cell_angle_beta	106.298290
_cell_angle_gamma	105.754568
loop_
_atom_site_label
_atom_site_type_symbol
_atom_site_fract_x
_atom_site_fract_y
_atom_site_fract_z
V1	V	-4.058356	-0.116124	-0.336776
O2	O	-4.024815	0.037871	-0.315661
O3	O	-4.029327	-0.261310	-0.348616
O4	O	-4.014760	-0.100169	-0.477204
O5	O	-4.039483	-0.124385	-0.186182
V6	V	-4.538851	-0.099378	-0.317046
O7	O	-4.326255	-0.152856	-0.380056
O8	O	-4.721148	-0.062646	-0.273766
O9	O	-4.344673	0.045808	-0.305207
O10	O	-4.689788	-0.253373	-0.338162
O11	O	-4.675120	-0.091117	-0.467640
O12	O	-4.359240	-0.115333	-0.176619
C13	C	-3.878885	-0.297145	-0.346952
C14	C	-3.936469	-0.415746	-0.357568
C15	C	-3.953226	-0.626595	-0.185110
C16	C	-4.007330	-0.738030	-0.195079
C17	C	-4.098795	-0.750053	-0.387476
C18	C	-4.044692	-0.638618	-0.377507
C19	C	-3.971904	-0.576892	-0.276320
C20	C	-3.917786	-0.465455	-0.266351
C21	C	-4.009266	-0.477481	-0.458747
C22	C	-4.063370	-0.588916	-0.468717
C23	C	-3.860302	-0.091593	-0.510978
C24	C	-3.906069	-0.079509	-0.625871
C25	C	-4.099909	-0.249211	-0.890238
C26	C	-4.142914	-0.237862	-0.998192
C27	C	-4.035101	-0.045464	-0.949735
C28	C	-3.992096	-0.056813	-0.841781
C29	C	-4.024500	-0.158689	-0.812037
C30	C	-3.981479	-0.170037	-0.704081
C31	C	-3.873682	0.022360	-0.655627
C32	C	-3.916687	0.033709	-0.763581
C33	C	-4.158458	0.081638	-0.306868
C34	C	-4.080112	0.200237	-0.296259
C35	C	-4.177040	-0.123913	-0.142840
C36	C	-4.110511	-0.135991	-0.027945
H37	H	-3.992118	-0.778493	-0.120806
H38	H	-4.204316	-0.311574	-1.061861
N39	N	-3.881718	0.143584	-0.795669
H40	H	-3.827412	0.199207	-0.729744
H41	H	-4.021675	0.149224	-0.843334
N42	N	-4.000183	0.064409	-0.981827
H43	H	-4.038881	0.057857	-1.062083
H44	H	-3.844660	0.107704	-0.948454
H45	H	-4.024465	-0.437002	-0.533017
N46	N	-4.016453	-0.279915	-0.671999
H47	H	-3.977767	-0.273372	-0.591745
H48	H	-3.923053	-0.316679	-0.697519
N49	N	-4.134822	-0.359083	-0.858145
H50	H	-4.189111	-0.414708	-0.924068
H51	H	-4.243795	-0.371254	-0.818342
N52	N	-3.792337	0.119999	-0.571276
H53	H	-3.896549	0.116315	-0.529334
H54	H	-3.778320	0.186204	-0.606581
N55	N	-3.839241	-0.398874	-0.157219
H56	H	-3.835617	-0.447274	-0.100952
H57	H	-3.939260	-0.355719	-0.152753
H58	H	-4.158095	-0.800330	-0.469858
N59	N	-3.874683	-0.560010	-0.075980
H60	H	-3.871047	-0.608406	-0.019709
H61	H	-3.974712	-0.516860	-0.071516
H62	H	-4.122647	-0.639188	-0.551100
