data_functionalizedCrystal
_audit_creation_method	'MofGen! by Chris Wilmer'
_symmetry_space_group_name_H-M	'P1'
_symmetry_Int_Tables_number	1
_symmetry_cell_setting	triclinic
loop_
_symmetry_equiv_pos_as_xyz
  x,y,z
_cell_length_a	12.759394
_cell_length_b	12.759395
_cell_length_c	12.759395
_cell_angle_alpha	89.994713
_cell_angle_beta	90.009987
_cell_angle_gamma	89.987686
loop_
_atom_site_label
_atom_site_type_symbol
_atom_site_fract_x
_atom_site_fract_y
_atom_site_fract_z
Zn1	Zn	-0.418507	-1.606108	0.594003
Zn2	Zn	-0.594157	-1.606045	0.418321
Zn3	Zn	-0.418485	-1.430453	0.418339
Zn4	Zn	-0.594136	-1.430398	0.593959
O5	O	-0.506321	-1.518251	0.506156
O6	O	-0.441825	-1.753121	0.570709
O7	O	-0.570853	-1.582750	0.271302
O8	O	-0.271467	-1.453804	0.441668
O9	O	-0.570874	-1.753075	0.441636
O10	O	-0.271483	-1.582856	0.570727
O11	O	-0.441788	-1.453743	0.271316
O12	O	-0.441768	-1.283425	0.441625
O13	O	-0.570839	-1.453710	0.740986
O14	O	-0.570818	-1.283384	0.570652
O15	O	-0.441805	-1.582803	0.741018
O16	O	-0.741175	-1.582696	0.441594
O17	O	-0.741160	-1.453649	0.570634
C18	C	-0.506289	-1.245284	0.506137
C19	C	-0.506301	-1.128507	0.506154
C20	C	-0.372139	-1.128536	0.640774
C21	C	-0.305068	-1.073689	0.708092
C22	C	-0.305082	-0.963968	0.708103
C23	C	-0.372172	-0.909090	0.640786
C24	C	-0.439242	-0.963936	0.573469
C25	C	-0.439223	-1.073661	0.573468
C26	C	-0.573398	-0.963908	0.438844
C27	C	-0.573390	-1.073630	0.438837
C28	C	-0.640487	-0.909030	0.371528
C29	C	-0.707565	-0.963877	0.304214
C30	C	-0.707549	-1.073605	0.304207
C31	C	-0.640461	-1.128476	0.371520
C32	C	-0.779289	-1.518188	0.506130
C33	C	-0.896065	-1.518257	0.506154
C34	C	-0.896028	-1.652735	0.371885
C35	C	-0.950870	-1.720001	0.304763
C36	C	-1.060592	-1.720063	0.304791
C37	C	-1.115474	-1.652853	0.371951
C38	C	-1.060632	-1.585587	0.439074
C39	C	-0.950908	-1.585531	0.439036
C40	C	-1.060669	-1.451116	0.573347
C41	C	-0.950947	-1.451048	0.573315
C42	C	-1.115551	-1.383906	0.640508
C43	C	-1.060709	-1.316633	0.707626
C44	C	-0.950981	-1.316574	0.707594
C45	C	-0.896105	-1.383781	0.640437
C46	C	-0.232288	-1.518343	0.506204
C47	C	-0.115511	-1.518382	0.506225
C48	C	-0.506322	-1.518257	0.780189
C49	C	-0.506322	-1.518259	0.896966
C50	C	-0.506344	-0.792285	0.506170
C51	C	-0.506327	-0.909061	0.506162
C52	C	-0.371967	-1.652693	0.897019
C53	C	-0.304795	-1.719910	0.951906
C54	C	-0.304798	-1.719906	1.061628
C55	C	-0.371979	-1.652676	1.116465
C56	C	-0.439151	-1.585459	1.061577
C57	C	-0.439143	-1.585473	0.951853
C58	C	-0.573499	-1.451022	1.061524
C59	C	-0.573503	-1.451029	0.951802
C60	C	-0.640680	-1.383791	1.116361
C61	C	-0.707859	-1.316578	1.061473
C62	C	-0.707854	-1.316586	0.951745
C63	C	-0.640675	-1.383812	0.896915
C64	C	-0.506340	-1.518239	1.233188
C65	C	-0.506327	-1.518238	1.116411
H66	H	-0.762179	-0.919187	0.249406
N67	N	-0.232734	-0.904813	0.780703
H68	H	-0.249169	-0.923916	0.855740
H69	H	-0.242957	-0.826997	0.770404
H70	H	-0.762162	-1.118255	0.249385
N71	N	-0.372170	-0.790748	0.640776
H72	H	-0.319495	-0.764330	0.693628
H73	H	-0.444309	-0.764386	0.659924
N74	N	-1.119750	-1.792618	0.232404
H75	H	-1.068339	-1.835188	0.189856
H76	H	-1.165330	-1.749908	0.183765
N77	N	-0.640465	-1.246818	0.371532
H78	H	-0.587793	-1.273256	0.424394
H79	H	-0.621064	-1.273173	0.299464
N80	N	-0.780316	-1.244069	1.120604
H81	H	-0.763980	-1.169013	1.101491
H82	H	-0.770094	-1.254341	1.198423
N83	N	-0.640489	-0.790689	0.371535
H84	H	-0.659925	-0.764267	0.443572
H85	H	-0.693152	-0.764327	0.318630
H86	H	-0.250094	-1.774634	1.106317
H87	H	-0.640674	-1.383789	1.205702
H88	H	-0.371968	-1.652713	0.807678
N89	N	-0.232718	-1.132873	0.780707
H90	H	-0.249174	-1.113775	0.855739
H91	H	-0.157655	-1.113756	0.764446
H92	H	-0.371967	-1.652670	1.205806
H93	H	-1.105403	-1.261922	0.762308
N94	N	-1.233893	-1.383960	0.640540
H95	H	-1.260278	-1.403237	0.712633
H96	H	-1.260227	-1.436757	0.587779
H97	H	-0.806687	-1.652678	0.371841
N98	N	-1.233815	-1.652928	0.371996
H99	H	-1.260230	-1.705743	0.319289
H100	H	-1.260230	-1.580851	0.352667
H101	H	-0.762543	-1.261838	0.907062
N102	N	-0.891832	-1.244027	0.779997
H103	H	-0.943252	-1.201465	0.822543
H104	H	-0.846367	-1.195407	0.737182
N105	N	-0.777764	-1.383716	0.640393
H106	H	-0.751272	-1.455762	0.659750
H107	H	-0.751429	-1.330860	0.693095
H108	H	-0.250096	-1.774646	0.907246
H109	H	-0.906176	-1.774725	0.250083
H110	H	-0.640669	-1.383829	0.807574
H111	H	-0.372116	-1.217877	0.640768
