data_functionalizedCrystal
_audit_creation_method	'MofGen! by Chris Wilmer'
_symmetry_space_group_name_H-M	'P1'
_symmetry_Int_Tables_number	1
_symmetry_cell_setting	triclinic
loop_
_symmetry_equiv_pos_as_xyz
  x,y,z
_cell_length_a	10.540510
_cell_length_b	10.540539
_cell_length_c	16.176319
_cell_angle_alpha	90.001289
_cell_angle_beta	90.006236
_cell_angle_gamma	84.519401
loop_
_atom_site_label
_atom_site_type_symbol
_atom_site_fract_x
_atom_site_fract_y
_atom_site_fract_z
O1	O	1.685912	0.178718	0.068747
O2	O	2.185912	0.678718	0.568747
O3	O	1.316494	0.195613	0.068748
O4	O	1.816494	0.695613	0.568748
O5	O	1.509631	0.002458	0.068747
O6	O	2.009631	0.502458	0.568747
O7	O	1.492775	0.371873	0.068749
O8	O	1.992775	0.871873	0.568749
O9	O	1.509608	0.002457	-0.068747
O10	O	2.009608	0.502457	0.431253
O11	O	1.316471	0.195612	-0.068746
O12	O	1.816471	0.695612	0.431254
O13	O	1.685889	0.178717	-0.068746
O14	O	2.185889	0.678717	0.431254
Cu15	Cu	1.501178	0.187165	-0.081300
Cu16	Cu	2.001178	0.687165	0.418700
Cu17	Cu	1.501205	0.187165	0.081302
Cu18	Cu	2.001205	0.687165	0.581302
O19	O	1.492752	0.371872	-0.068745
O20	O	1.992752	0.871872	0.431255
C21	C	1.269179	0.194354	0.000001
C22	C	1.769179	0.694354	0.500001
C23	C	1.128229	0.190587	0.000001
C24	C	1.628229	0.690587	0.500001
C25	C	0.910774	0.324771	0.000318
C26	C	1.410774	0.824771	0.500318
C27	C	1.057370	0.328789	0.000003
C28	C	1.557370	0.828789	0.500003
C29	C	1.083457	0.119840	-0.078513
C30	C	1.583457	0.619840	0.421487
C31	C	0.936696	0.116801	-0.078573
C32	C	1.436696	0.616801	0.421427
C33	C	0.936915	0.113924	0.077782
C34	C	1.436915	0.613924	0.577782
C35	C	1.083257	0.120479	0.078815
C36	C	1.583257	0.620479	0.578815
C37	C	1.508356	-0.044845	0.000001
C38	C	2.008356	0.455155	0.500001
C39	C	1.504574	-0.185793	0.000006
C40	C	2.004574	0.314207	0.500006
C41	C	1.359655	-0.369204	0.000314
C42	C	1.859655	0.130796	0.500314
C43	C	1.363489	-0.222587	0.000005
C44	C	1.863489	0.277413	0.500005
C45	C	1.572457	-0.247458	-0.078510
C46	C	2.072457	0.252542	0.421490
C47	C	1.567642	-0.394002	-0.078576
C48	C	2.067642	0.105998	0.421424
C49	C	1.570538	-0.394520	0.077780
C50	C	2.070538	0.105480	0.577780
C51	C	1.571837	-0.247538	0.078818
C52	C	2.071837	0.252462	0.578818
C53	C	1.733204	0.179976	0.000003
C54	C	2.233204	0.679976	0.500003
C55	C	1.874154	0.183743	0.000008
C56	C	2.374154	0.683743	0.500008
C57	C	1.494028	0.419175	0.000002
C58	C	1.994028	0.919175	0.500002
C59	C	1.497810	0.560123	0.000003
C60	C	1.997810	1.060123	0.500003
N61	N	1.501169	0.187163	-0.195665
N62	N	2.001169	0.687163	0.304335
C63	C	1.578853	0.264895	-0.238925
C64	C	2.078853	0.764895	0.261075
C65	C	1.578867	0.264890	-0.325472
C66	C	2.078867	0.764890	0.174528
C67	C	1.501188	0.187160	-0.368758
C68	C	2.001188	0.687160	0.131242
C69	C	1.423500	0.109419	-0.325491
C70	C	1.923500	0.609419	0.174509
C71	C	1.423494	0.109418	-0.238946
C72	C	1.923494	0.609418	0.261054
C73	C	1.423524	0.109421	-0.674520
C74	C	1.923524	0.609421	-0.174520
C75	C	1.423533	0.109431	-0.761071
C76	C	1.923533	0.609431	-0.261071
C77	C	1.578896	0.264893	-0.761046
C78	C	2.078896	0.764893	-0.261046
C79	C	1.578890	0.264892	-0.674501
C80	C	2.078890	0.764892	-0.174501
C81	C	1.501208	0.187147	-0.631242
C82	C	2.001208	0.687147	-0.131242
C83	C	1.501196	0.187151	-0.537398
C84	C	2.001196	0.687151	-0.037398
C85	C	1.501192	0.187161	-0.462600
C86	C	2.001192	0.687161	0.037400
N87	N	1.501225	0.187157	0.195667
N88	N	2.001225	0.687157	0.695667
H89	H	0.867258	0.378303	-0.055669
H90	H	1.367258	0.878303	0.444331
H91	H	1.085764	0.384471	-0.056373
H92	H	1.585764	0.884471	0.443627
H93	H	1.360270	0.046116	-0.639309
H94	H	1.860270	0.546116	-0.139309
H95	H	1.309680	-0.180825	-0.056372
H96	H	1.809680	0.319175	0.443628
H97	H	1.525283	-0.204854	-0.136938
H98	H	2.025283	0.295146	0.363062
H99	H	1.642101	0.328200	-0.203689
H100	H	2.142101	0.828200	0.296311
F101	F	1.340853	0.026694	-0.807137
F102	F	1.840853	0.526694	-0.307137
H103	H	0.894377	0.157507	0.137292
H104	H	1.394377	0.657507	0.637292
F105	F	1.340831	0.026689	-0.371561
F106	F	1.840831	0.526689	0.128439
F107	F	1.340822	0.026675	-0.192906
F108	F	1.840822	0.526675	0.307094
H109	H	1.304140	-0.399406	-0.055675
H110	H	1.804140	0.100594	0.444325
F111	F	0.906633	-0.018300	-0.083273
F112	F	1.406633	0.481700	0.416727
F113	F	1.120719	0.187728	0.154738
F114	F	1.620719	0.687728	0.654738
H115	H	1.642128	0.328185	-0.360691
H116	H	2.142128	0.828185	0.139309
F117	F	1.507425	-0.193532	0.154749
F118	F	2.007425	0.306468	0.654749
H119	H	0.896469	0.165149	-0.137263
H120	H	1.396469	0.665149	0.362737
F121	F	1.502038	-0.430858	-0.155288
F122	F	2.002038	0.069142	0.344712
H123	H	1.674700	-0.223328	0.083559
H124	H	2.174700	0.276672	0.583559
H125	H	0.868830	0.378613	0.056625
H126	H	1.368830	0.878613	0.556625
H127	H	1.524885	-0.426068	0.137289
H128	H	2.024885	0.073932	0.637289
H129	H	1.676066	-0.225115	-0.081429
H130	H	2.176066	0.274885	0.418571
F131	F	1.700262	-0.456718	-0.083240
F132	F	2.200262	0.043282	0.416760
H133	H	1.642140	0.328193	-0.639262
H134	H	2.142140	0.828193	-0.139262
H135	H	1.642153	0.328194	-0.796278
H136	H	2.142153	0.828194	-0.296278
H137	H	1.672443	-0.441757	0.078308
H138	H	2.172443	0.058243	0.578308
F139	F	1.095742	0.401137	0.073568
F140	F	1.595742	0.901137	0.573568
H141	H	1.130846	0.018099	-0.081433
H142	H	1.630846	0.518099	0.418567
H143	H	1.114301	0.168972	-0.136942
H144	H	1.614301	0.668972	0.363058
H145	H	1.132325	0.019581	0.083556
H146	H	1.632325	0.519581	0.583556
F147	F	0.907966	-0.021702	0.078474
F148	F	1.407966	0.478298	0.578474
H149	H	1.303932	-0.397798	0.056619
H150	H	1.803932	0.102202	0.556619
F151	F	1.293671	-0.166889	0.073571
F152	F	1.793671	0.333111	0.573571
