data_functionalizedCrystal
_audit_creation_method	'MofGen! by Chris Wilmer'
_symmetry_space_group_name_H-M	'P1'
_symmetry_Int_Tables_number	1
_symmetry_cell_setting	triclinic
loop_
_symmetry_equiv_pos_as_xyz
  x,y,z
_cell_length_a	12.759394
_cell_length_b	17.077404
_cell_length_c	17.077396
_cell_angle_alpha	89.981638
_cell_angle_beta	89.973684
_cell_angle_gamma	90.012807
loop_
_atom_site_label
_atom_site_type_symbol
_atom_site_fract_x
_atom_site_fract_y
_atom_site_fract_z
Zn1	Zn	-0.418323	1.200099	-0.443831
Zn2	Zn	-0.594024	1.200024	-0.312570
Zn3	Zn	-0.418353	1.068830	-0.312581
Zn4	Zn	-0.593955	1.068817	-0.443796
O5	O	-0.506164	1.134442	-0.378194
O6	O	-0.441647	1.309936	-0.426428
O7	O	-0.570762	1.182595	-0.202724
O8	O	-0.271328	1.086280	-0.330011
O9	O	-0.570733	1.309881	-0.329991
O10	O	-0.271306	1.182722	-0.426440
O11	O	-0.441698	1.086208	-0.202733
O12	O	-0.441631	0.958982	-0.329977
O13	O	-0.570615	1.086257	-0.553647
O14	O	-0.570644	0.958972	-0.426380
O15	O	-0.441580	1.182709	-0.553673
O16	O	-0.741036	1.182582	-0.329958
O17	O	-0.740985	1.086185	-0.426369
C18	C	-0.506134	0.930495	-0.378177
C19	C	-0.506147	0.843245	-0.378188
C20	C	-0.439051	0.802284	-0.428479
C21	C	-0.439058	0.720303	-0.428483
C22	C	-0.506166	0.679285	-0.378198
C23	C	-0.573265	0.720252	-0.327902
C24	C	-0.573252	0.802231	-0.327895
C25	C	-0.573289	0.549382	-0.327921
C26	C	-0.573303	0.467397	-0.327929
C27	C	-0.439094	0.467454	-0.428509
C28	C	-0.439081	0.549433	-0.428502
C29	C	-0.506182	0.590394	-0.378206
C30	C	-0.779131	1.134395	-0.378175
C31	C	-0.895908	1.134447	-0.378193
C32	C	-0.895908	1.234901	-0.277876
C33	C	-0.950768	1.285148	-0.227726
C34	C	-1.060490	1.285194	-0.227747
C35	C	-1.115353	1.234989	-0.277925
C36	C	-1.060493	1.184742	-0.328075
C37	C	-0.950769	1.184700	-0.328047
C38	C	-1.060493	1.084293	-0.428396
C39	C	-0.950772	1.084242	-0.428372
C40	C	-1.115357	1.034088	-0.478574
C41	C	-1.060496	0.983835	-0.528721
C42	C	-0.950768	0.983791	-0.528697
C43	C	-0.895911	1.033994	-0.478521
C44	C	-0.232130	1.134511	-0.378231
C45	C	-0.115354	1.134540	-0.378246
C46	C	-0.506086	1.134490	-0.582939
C47	C	-0.506054	1.134510	-0.670189
C48	C	-0.506195	1.339187	-0.378212
C49	C	-0.506208	1.426436	-0.378220
C50	C	-0.438859	1.184735	-0.711193
C51	C	-0.438824	1.184744	-0.793174
C52	C	-0.505990	1.134532	-0.834148
C53	C	-0.573187	1.084302	-0.793138
C54	C	-0.573216	1.084290	-0.711159
C55	C	-0.573124	1.084334	-0.964008
C56	C	-0.573097	1.084348	-1.045992
C57	C	-0.438732	1.184788	-1.046023
C58	C	-0.438761	1.184776	-0.964044
C59	C	-0.505960	1.134546	-0.923039
C60	C	-0.506165	1.134440	-0.174246
C61	C	-0.505902	1.134572	-0.086997
H62	H	-0.384423	0.686957	-0.469437
Br63	Br	-0.876323	0.915600	-0.596768
Br64	Br	-0.664360	0.604972	-0.259666
H65	H	-0.384442	0.582828	-0.469453
H66	H	-0.627901	0.686849	-0.286955
Br67	Br	-0.664240	1.016195	-1.101600
Br68	Br	-0.347977	0.857943	-0.496732
Br69	Br	-0.664411	0.411730	-0.259708
Br70	Br	-0.664335	1.016152	-0.848744
Br71	Br	-1.134948	1.353393	-0.159693
H72	H	-0.627828	1.043420	-0.930624
H73	H	-1.204694	1.235038	-0.277945
Br74	Br	-0.347616	1.252928	-0.908436
Br75	Br	-0.664313	0.857822	-0.259638
H76	H	-0.384110	1.225644	-0.826556
Br77	Br	-0.348029	0.411866	-0.496768
Br78	Br	-0.746999	1.235085	-0.278086
H79	H	-0.906089	1.326027	-0.186873
H80	H	-1.204698	1.034132	-0.478591
H81	H	-0.627922	1.043384	-0.677774
H82	H	-1.105174	0.942966	-0.569575
Br83	Br	-0.747002	1.034190	-0.478737
Br84	Br	-0.347537	1.252960	-1.101671
Br85	Br	-0.347709	1.252889	-0.655593
