data_functionalizedCrystal
_audit_creation_method	'MofGen! by Chris Wilmer'
_symmetry_space_group_name_H-M	'P1'
_symmetry_Int_Tables_number	1
_symmetry_cell_setting	triclinic
loop_
_symmetry_equiv_pos_as_xyz
  x,y,z
_cell_length_a	12.759401
_cell_length_b	18.215405
_cell_length_c	12.759393
_cell_angle_alpha	89.962381
_cell_angle_beta	89.980163
_cell_angle_gamma	90.026410
loop_
_atom_site_label
_atom_site_type_symbol
_atom_site_fract_x
_atom_site_fract_y
_atom_site_fract_z
Zn1	Zn	1.606181	-0.292911	-0.593976
Zn2	Zn	1.606044	-0.415997	-0.418278
Zn3	Zn	1.430483	-0.292952	-0.418311
Zn4	Zn	1.430440	-0.415943	-0.593915
O5	O	1.518287	-0.354451	-0.506120
O6	O	1.753183	-0.309243	-0.570681
O7	O	1.582716	-0.399715	-0.271261
O8	O	1.453865	-0.189962	-0.441653
O9	O	1.753083	-0.399674	-0.441596
O10	O	1.582949	-0.189932	-0.570714
O11	O	1.453732	-0.309314	-0.271286
O12	O	1.283456	-0.309262	-0.441594
O13	O	1.453792	-0.399583	-0.740944
O14	O	1.283425	-0.399623	-0.570609
O15	O	1.582908	-0.309191	-0.740989
O16	O	1.582674	-0.518974	-0.441537
O17	O	1.453659	-0.518935	-0.570577
C18	C	1.245319	-0.354442	-0.506099
C19	C	1.128543	-0.354456	-0.506115
C20	C	1.073692	-0.401578	-0.573188
C21	C	0.963968	-0.401581	-0.573209
C22	C	0.963955	-0.307337	-0.439076
C23	C	1.073677	-0.307331	-0.439061
C24	C	1.518176	-0.545657	-0.506070
C25	C	1.518224	-0.627456	-0.506083
C26	C	1.585561	-0.815646	-0.439016
C27	C	1.585608	-0.892505	-0.439041
C28	C	1.451147	-0.892503	-0.573300
C29	C	1.451107	-0.815646	-0.573279
C30	C	1.518312	-0.777219	-0.506131
C31	C	1.518399	-0.930935	-0.506178
C32	C	1.518450	-1.014269	-0.506206
C33	C	1.518263	-0.693880	-0.506104
C34	C	1.792320	-0.354460	-0.506142
C35	C	1.909097	-0.354464	-0.506151
C36	C	1.518360	-0.354376	-0.780154
C37	C	1.518391	-0.354345	-0.896930
C38	C	1.518427	-0.162498	-0.506194
C39	C	1.518486	-0.080699	-0.506225
C40	C	1.451254	-0.307264	-0.951805
C41	C	1.451278	-0.307242	-1.061529
C42	C	1.585587	-0.401382	-1.061495
C43	C	1.585557	-0.401407	-0.951773
C44	C	1.518274	-0.354472	-0.233153
C45	C	1.518446	-0.354296	-0.116377
H46	H	0.919313	-0.439952	-0.627827
H47	H	1.396563	-0.268943	-0.907156
H48	H	1.118338	-0.268953	-0.384442
H49	H	1.396607	-0.268905	-1.106203
H50	H	1.640284	-0.784361	-0.384341
H51	H	1.118360	-0.439949	-0.627791
H52	H	0.919270	-0.268970	-0.384480
O53	O	1.385894	-0.929947	-0.638418
C54	C	1.400365	-1.006023	-0.624063
H55	H	1.434829	-1.016548	-0.543019
H56	H	1.456286	-1.027766	-0.686440
C57	C	1.251747	-1.032611	-0.733138
C58	C	1.294068	-1.045538	-0.633594
H59	H	1.186180	-1.056986	-0.739021
H60	H	1.242000	-0.981357	-0.742813
H61	H	1.298358	-1.050730	-0.785107
H62	H	1.247464	-1.027410	-0.581627
H63	H	1.303805	-1.096790	-0.623910
O64	O	1.650964	-0.929718	-0.373744
C65	C	1.710288	-0.879318	-0.314497
H66	H	1.667224	-0.824560	-0.310805
H67	H	1.790055	-0.871071	-0.353040
C68	C	1.778402	-0.976626	-0.207237
C69	C	1.725506	-0.909373	-0.202695
H70	H	1.787794	-0.995166	-0.138273
H71	H	1.738438	-1.010582	-0.247154
H72	H	1.844869	-0.969744	-0.239360
H73	H	1.659036	-0.916257	-0.170584
H74	H	1.765459	-0.875418	-0.162769
H75	H	1.396344	-0.784357	-0.627938
O76	O	1.650945	-0.446986	-1.114819
C77	C	1.718835	-0.405076	-1.178329
H78	H	1.725361	-0.347123	-1.145288
H79	H	1.686376	-0.402518	-1.261484
C80	C	1.820012	-0.512214	-1.220588
C81	C	1.828034	-0.441037	-1.180001
H82	H	1.887370	-0.534398	-1.221625
H83	H	1.774272	-0.540451	-1.177804
H84	H	1.792959	-0.510073	-1.289880
H85	H	1.855074	-0.443180	-1.110706
H86	H	1.873782	-0.412801	-1.222774
H87	H	1.640231	-0.439748	-0.907093
