data_functionalizedCrystal
_audit_creation_method	'MofGen! by Chris Wilmer'
_symmetry_space_group_name_H-M	'P1'
_symmetry_Int_Tables_number	1
_symmetry_cell_setting	triclinic
loop_
_symmetry_equiv_pos_as_xyz
  x,y,z
_cell_length_a	18.215407
_cell_length_b	13.032721
_cell_length_c	18.215399
_cell_angle_alpha	97.154738
_cell_angle_beta	89.982632
_cell_angle_gamma	97.201717
loop_
_atom_site_label
_atom_site_type_symbol
_atom_site_fract_x
_atom_site_fract_y
_atom_site_fract_z
Zn1	Zn	1.087874	-0.416122	-0.453281
Zn2	Zn	1.421207	-0.082789	-0.119947
Zn3	Zn	1.754540	0.250545	0.213386
Zn4	Zn	1.072159	-0.590884	-0.345843
Zn5	Zn	1.405493	-0.257551	-0.012510
Zn6	Zn	1.738826	0.075782	0.320823
Zn7	Zn	0.964804	-0.416147	-0.330236
Zn8	Zn	1.298137	-0.082814	0.003098
Zn9	Zn	1.631471	0.250520	0.336431
Zn10	Zn	0.949156	-0.590817	-0.468867
Zn11	Zn	1.282489	-0.257484	-0.135534
Zn12	Zn	1.615822	0.075850	0.197799
O13	O	1.018498	-0.503493	-0.399557
O14	O	1.351831	-0.170159	-0.066223
O15	O	1.685165	0.163174	0.267110
O16	O	1.188772	-0.439322	-0.439038
O17	O	1.522105	-0.105989	-0.105704
O18	O	1.855438	0.227344	0.227629
O19	O	1.057891	-0.567744	-0.240792
O20	O	1.391224	-0.234410	0.092541
O21	O	1.724558	0.098923	0.425875
O22	O	0.994255	-0.269905	-0.333503
O23	O	1.327588	0.063428	-0.000170
O24	O	1.660921	0.396761	0.333164
O25	O	1.177227	-0.567719	-0.360104
O26	O	1.510560	-0.234386	-0.026770
O27	O	1.843893	0.098947	0.306563
O28	O	1.084673	-0.269887	-0.423904
O29	O	1.418007	0.063446	-0.090570
O30	O	1.751340	0.396780	0.242763
O31	O	0.979017	-0.439365	-0.229325
O32	O	1.312351	-0.106032	0.104008
O33	O	1.645684	0.227302	0.437341
O34	O	0.859745	-0.439300	-0.348617
O35	O	1.193079	-0.105966	-0.015283
O36	O	1.526412	0.227367	0.318050
O37	O	0.967584	-0.567605	-0.569781
O38	O	1.300918	-0.234271	-0.236447
O39	O	1.634251	0.099062	0.096886
O40	O	0.848249	-0.567629	-0.450469
O41	O	1.181582	-0.234296	-0.117136
O42	O	1.514915	0.099038	0.216198
O43	O	1.069500	-0.439257	-0.558329
O44	O	1.402833	-0.105924	-0.224996
O45	O	1.736166	0.227410	0.108337
O46	O	1.042717	-0.737114	-0.375218
O47	O	1.376051	-0.403781	-0.041884
O48	O	1.709384	-0.070447	0.291449
O49	O	0.952347	-0.737064	-0.465603
O50	O	1.285680	-0.403731	-0.132270
O51	O	1.619014	-0.070398	0.201064
C52	C	0.827295	-0.503460	-0.399541
C53	C	1.160628	-0.170127	-0.066208
C54	C	1.493961	0.163206	0.267126
C55	C	0.745495	-0.503472	-0.399554
C56	C	1.078828	-0.170139	-0.066221
C57	C	1.412161	0.163195	0.267113
C58	C	0.563299	-0.436753	-0.440742
C59	C	0.896632	-0.103420	-0.107408
C60	C	1.229966	0.229913	0.225925
C61	C	0.486440	-0.436762	-0.440745
C62	C	0.819773	-0.103429	-0.107411
C63	C	1.153106	0.229905	0.225922
C64	C	0.474447	-0.570261	-0.358388
C65	C	0.807780	-0.236928	-0.025054
C66	C	1.141113	0.096405	0.308279
C67	C	0.551305	-0.570246	-0.358381
C68	C	0.884639	-0.236913	-0.025047
C69	C	1.217972	0.096420	0.308286
C70	C	0.595729	-0.503494	-0.399562
C71	C	0.929063	-0.170160	-0.066229
C72	C	1.262396	0.163173	0.267105
C73	C	0.442011	-0.503518	-0.399572
C74	C	0.775344	-0.170184	-0.066239
C75	C	1.108678	0.163149	0.267095
C76	C	0.358677	-0.503528	-0.399575
C77	C	0.692010	-0.170195	-0.066242
C78	C	1.025343	0.163139	0.267091
C79	C	0.679069	-0.503482	-0.399558
C80	C	1.012403	-0.170149	-0.066224
C81	C	1.345736	0.163185	0.267109
C82	C	0.994149	-0.775007	-0.423811
C83	C	1.327482	-0.441674	-0.090478
C84	C	1.660816	-0.108340	0.242855
C85	C	0.983800	-0.891162	-0.434212
C86	C	1.317133	-0.557829	-0.100879
C87	C	1.650466	-0.224495	0.232455
C88	C	1.023939	-0.942938	-0.394162
C89	C	1.357272	-0.609604	-0.060828
C90	C	1.690605	-0.276271	0.272505
C91	C	1.013243	-1.062990	-0.404910
C92	C	1.346576	-0.729657	-0.071577
C93	C	1.679910	-0.396323	0.261756
C94	C	1.210448	-0.503526	-0.399573
C95	C	1.543781	-0.170192	-0.066240
C96	C	1.877115	0.163141	0.267094
C97	C	1.292246	-0.503540	-0.399580
C98	C	1.625579	-0.170206	-0.066247
C99	C	1.958912	0.163127	0.267087
C100	C	1.018549	-0.503421	-0.591503
C101	C	1.351883	-0.170087	-0.258170
C102	C	1.685216	0.163246	0.075163
C103	C	1.018571	-0.503390	-0.673300
C104	C	1.351905	-0.170057	-0.339966
C105	C	1.685238	0.163277	-0.006633
C106	C	1.042962	-0.230918	-0.375224
C107	C	1.376296	0.102415	-0.041890
C108	C	1.709629	0.435749	0.291443
C109	C	1.053388	-0.114763	-0.364854
C110	C	1.386721	0.218571	-0.031521
C111	C	1.720054	0.551904	0.301812
C112	C	1.071661	-0.436497	-0.855526
C113	C	1.404995	-0.103163	-0.522193
C114	C	1.738328	0.230170	-0.188860
C115	C	1.071673	-0.436466	-0.932382
C116	C	1.405006	-0.103133	-0.599049
C117	C	1.738339	0.230200	-0.265716
C118	C	0.965548	-0.570121	-0.944296
C119	C	1.298881	-0.236788	-0.610963
C120	C	1.632214	0.096545	-0.277630
C121	C	0.965534	-0.570146	-0.867441
C122	C	1.298867	-0.236812	-0.534108
C123	C	1.632200	0.096521	-0.200774
C124	C	1.018594	-0.503335	-0.823058
C125	C	1.351928	-0.170002	-0.489725
C126	C	1.685261	0.163332	-0.156392
C127	C	1.018620	-0.503280	-0.976769
C128	C	1.351953	-0.169947	-0.643436
C129	C	1.685287	0.163387	-0.310103
C130	C	1.018632	-0.503248	-1.060100
C131	C	1.351965	-0.169914	-0.726767
C132	C	1.685299	0.163419	-0.393434
C133	C	1.018582	-0.503366	-0.739722
C134	C	1.351915	-0.170033	-0.406389
C135	C	1.685248	0.163301	-0.073055
C136	C	1.018496	-0.503489	-0.208350
C137	C	1.351829	-0.170156	0.124983
C138	C	1.685163	0.163178	0.458316
C139	C	1.018643	-0.503225	-0.126528
C140	C	1.351977	-0.169892	0.206805
C141	C	1.685310	0.163441	0.540139
H142	H	0.460039	-0.382414	-0.474276
H143	H	0.793372	-0.049080	-0.140943
H144	H	1.126706	0.284253	0.192391
N145	N	1.128892	-0.364443	-0.807658
N146	N	1.462225	-0.031110	-0.474325
N147	N	1.795558	0.302224	-0.140991
H148	H	1.120837	-0.374605	-0.754044
H149	H	1.454170	-0.041272	-0.420710
H150	H	1.787503	0.292061	-0.087377
H151	H	1.179988	-0.380725	-0.822561
H152	H	1.513321	-0.047392	-0.489228
H153	H	1.846655	0.285942	-0.155894
N154	N	0.611214	-0.364761	-0.485158
N155	N	0.944547	-0.031428	-0.151825
N156	N	1.277881	0.301905	0.181509
H157	H	0.647439	-0.316275	-0.450977
H158	H	0.980773	0.017059	-0.117643
H159	H	1.314106	0.350392	0.215690
H160	H	0.639251	-0.407370	-0.523007
H161	H	0.972584	-0.074036	-0.189673
H162	H	1.305918	0.259297	0.143660
N163	N	0.908321	-0.642193	-0.992158
N164	N	1.241655	-0.308859	-0.658825
N165	N	1.574988	0.024474	-0.325491
H166	H	0.857196	-0.625955	-0.977322
H167	H	1.190529	-0.292622	-0.643988
H168	H	1.523863	0.040711	-0.310655
H169	H	0.916441	-0.632015	-1.045759
H170	H	1.249774	-0.298682	-0.712426
H171	H	1.583107	0.034652	-0.379092
H172	H	0.438267	-0.624610	-0.324860
H173	H	0.771600	-0.291277	0.008473
H174	H	1.104934	0.042057	0.341807
N175	N	1.079946	-0.883927	-0.338200
N176	N	1.413279	-0.550594	-0.004867
N177	N	1.746613	-0.217261	0.328466
H178	H	1.066866	-0.902927	-0.287297
H179	H	1.400199	-0.569593	0.046037
H180	H	1.733533	-0.236260	0.379370
H181	H	1.130831	-0.902817	-0.351417
H182	H	1.464164	-0.569484	-0.018084
H183	H	1.797498	-0.236150	0.315250
H184	H	0.577710	-0.624596	-0.324843
H185	H	0.911043	-0.291262	0.008490
H186	H	1.244377	0.042071	0.341823
H187	H	0.970960	-1.107537	-0.447162
H188	H	1.304294	-0.774204	-0.113829
H189	H	1.637627	-0.440871	0.219504
N190	N	1.109406	-1.055769	-0.308893
N191	N	1.442740	-0.722436	0.024440
N192	N	1.776073	-0.389103	0.357773
H193	H	1.109110	-0.978371	-0.309147
H194	H	1.442443	-0.645037	0.024187
H195	H	1.775776	-0.311704	0.357520
H196	H	1.096295	-1.074853	-0.258020
H197	H	1.429628	-0.741520	0.075313
H198	H	1.762962	-0.408187	0.408647
N199	N	0.927793	-0.950162	-0.490178
N200	N	1.261126	-0.616828	-0.156845
N201	N	1.594459	-0.283495	0.176489
H202	H	0.928092	-1.027560	-0.489924
H203	H	1.261425	-0.694227	-0.156591
H204	H	1.594758	-0.360893	0.176742
H205	H	0.876916	-0.931210	-0.476992
H206	H	1.210249	-0.597877	-0.143659
H207	H	1.543583	-0.264544	0.189675
H208	H	1.114884	-0.382038	-0.958814
H209	H	1.448217	-0.048705	-0.625481
H210	H	1.781551	0.284628	-0.292147
N211	N	0.908282	-0.642218	-0.832413
N212	N	1.241615	-0.308884	-0.499080
N213	N	1.574948	0.024449	-0.165747
H214	H	0.874670	-0.684538	-0.872190
H215	H	1.208003	-0.351205	-0.538857
H216	H	1.541337	-0.017871	-0.205524
H217	H	0.933880	-0.690597	-0.804838
H218	H	1.267213	-0.357264	-0.471505
H219	H	1.600547	-0.023930	-0.138172
