data_functionalizedCrystal
_audit_creation_method	'MofGen! by Chris Wilmer'
_symmetry_space_group_name_H-M	'P1'
_symmetry_Int_Tables_number	1
_symmetry_cell_setting	triclinic
loop_
_symmetry_equiv_pos_as_xyz
  x,y,z
_cell_length_a	10.685980
_cell_length_b	21.295417
_cell_length_c	10.686551
_cell_angle_alpha	85.587790
_cell_angle_beta	81.591741
_cell_angle_gamma	94.396638
loop_
_atom_site_label
_atom_site_type_symbol
_atom_site_fract_x
_atom_site_fract_y
_atom_site_fract_z
Zn1	Zn	1.995708	-0.141098	-0.866660
Zn2	Zn	1.979220	-0.255141	-0.654362
Zn3	Zn	1.767125	-0.158619	-0.638119
Zn4	Zn	1.783344	-0.255080	-0.850272
O5	O	1.881349	-0.202485	-0.752353
O6	O	2.171158	-0.148919	-0.852155
O7	O	1.937398	-0.249695	-0.474573
O8	O	1.797559	-0.068199	-0.668497
O9	O	2.159045	-0.232706	-0.696180
O10	O	1.965498	-0.055327	-0.836405
O11	O	1.781572	-0.178781	-0.462640
O12	O	1.591639	-0.178722	-0.652606
O13	O	1.825203	-0.232602	-1.030080
O14	O	1.603555	-0.249591	-0.808474
O15	O	1.981225	-0.148860	-1.042121
O16	O	1.953125	-0.343229	-0.680289
O17	O	1.809215	-0.343184	-0.824223
C18	C	1.551538	-0.216051	-0.727000
C19	C	1.410445	-0.221869	-0.716183
C20	C	1.881178	-0.366046	-0.752270
C21	C	1.881223	-0.436012	-0.752286
C22	C	1.956236	-0.468874	-0.677428
C23	C	1.956297	-0.534613	-0.677461
C24	C	1.881323	-0.567488	-0.752337
C25	C	1.806307	-0.534617	-0.827211
C26	C	1.806257	-0.468879	-0.827185
N27	N	1.771020	-0.674927	-0.753478
N28	N	1.771070	-0.737375	-0.753495
C29	C	1.881471	-0.765554	-0.752421
N30	N	1.991820	-0.728926	-0.751305
N31	N	1.991768	-0.666472	-0.751281
C32	C	1.881369	-0.638771	-0.752374
C33	C	1.956557	-0.869698	-0.677595
C34	C	1.956621	-0.935438	-0.677637
C35	C	1.806618	-0.935442	-0.827379
C36	C	1.806566	-0.869702	-0.827345
C37	C	1.881533	-0.836835	-0.752446
C38	C	2.212449	-0.188865	-0.777807
C39	C	2.353544	-0.183061	-0.788654
C40	C	1.881559	-0.038282	-0.752467
C41	C	1.881648	0.031692	-0.752516
C42	C	1.906862	-0.188770	-1.083447
C43	C	1.917734	-0.182925	-1.224539
C44	C	1.856009	-0.216098	-0.422554
C45	C	1.845383	-0.221755	-0.281481
H46	H	1.412769	-0.145382	-0.858972
O47	O	1.761727	-0.266779	-1.210748
C48	C	1.828115	-0.307614	-1.139615
H49	H	1.922841	-0.282260	-1.127300
H50	H	1.769299	-0.321996	-1.042354
H51	H	1.845887	-0.351606	-1.191669
H52	H	1.988005	-0.145210	-1.283736
O53	O	2.029377	-0.967464	-0.604949
C54	C	1.950965	-1.011941	-0.517358
H55	H	1.858123	-1.023912	-0.554566
H56	H	2.001440	-1.056725	-0.504544
H57	H	1.929927	-0.991151	-0.422136
H58	H	2.017604	-0.842936	-0.616612
O59	O	1.339751	-0.266885	-0.632458
C60	C	1.268579	-0.307728	-0.698759
H61	H	1.316325	-0.305919	-0.801758
H62	H	1.263353	-0.358115	-0.652543
H63	H	1.168510	-0.292179	-0.695588
H64	H	1.745579	-0.962207	-0.888351
O65	O	2.029186	-0.437041	-0.604657
C66	C	2.095387	-0.480151	-0.538570
H67	H	2.103773	-0.524666	-0.590917
H68	H	2.194365	-0.457558	-0.532798
H69	H	2.041556	-0.493088	-0.438558
O70	O	2.029284	-0.566569	-0.604911
C71	C	2.116798	-0.598200	-0.683524
H72	H	2.132305	-0.573899	-0.784095
H73	H	2.210971	-0.596808	-0.645160
H74	H	2.077886	-0.649468	-0.684884
O75	O	1.733457	-0.437012	-0.900081
C76	C	1.770883	-0.446638	-1.028756
H77	H	1.819923	-0.492225	-1.035202
H78	H	1.683606	-0.450332	-1.078557
H79	H	1.839382	-0.405140	-1.076557
O80	O	1.733656	-0.566609	-0.900020
C81	C	1.812216	-0.598201	-0.987648
H82	H	1.905014	-0.605906	-0.950355
H83	H	1.761838	-0.645874	-1.000658
H84	H	1.833320	-0.568372	-1.082787
H85	H	1.745478	-0.842944	-0.888295
