data_functionalizedCrystal
_audit_creation_method	'MofGen! by Chris Wilmer'
_symmetry_space_group_name_H-M	'P1'
_symmetry_Int_Tables_number	1
_symmetry_cell_setting	triclinic
loop_
_symmetry_equiv_pos_as_xyz
  x,y,z
_cell_length_a	23.096457
_cell_length_b	23.096457
_cell_length_c	18.760492
_cell_angle_alpha	60.000313
_cell_angle_beta	89.995950
_cell_angle_gamma	60.000185
loop_
_atom_site_label
_atom_site_type_symbol
_atom_site_fract_x
_atom_site_fract_y
_atom_site_fract_z
Zr1	Zr	0.557784	0.633738	-0.093534
O2	O	0.465343	0.754523	-0.207340
O3	O	0.586120	0.512953	-0.058651
O4	O	0.586128	0.633739	-0.207352
O5	O	0.465330	0.633737	0.058663
O6	O	0.681409	0.633740	-0.207356
O7	O	0.465334	0.633737	-0.058639
O8	O	0.681394	0.417677	0.058642
O9	O	0.465345	0.849801	-0.207335
O10	O	0.669314	0.562636	-0.043772
O11	O	0.598205	0.562634	0.043773
O12	O	0.598214	0.704844	-0.131303
O13	O	0.527105	0.704843	-0.043758
Zr14	Zr	0.709739	0.633741	0.093543
Zr15	Zr	0.709745	0.633741	-0.093541
Zr16	Zr	0.557777	0.633739	0.093550
Zr17	Zr	0.557788	0.785696	-0.093526
Zr18	Zr	0.709735	0.481784	0.093535
O19	O	0.681403	0.754527	0.058660
O20	O	0.681412	0.754526	-0.207350
O21	O	0.465333	0.754523	0.058670
O22	O	0.802180	0.512957	0.207349
O23	O	0.802189	0.512957	-0.058661
O24	O	0.586111	0.512953	0.207359
O25	O	0.802192	0.633743	-0.058655
O26	O	0.681394	0.633741	0.207361
O27	O	0.586114	0.633739	0.207365
O28	O	0.802188	0.633743	0.058648
O29	O	0.586134	0.849803	-0.207341
O30	O	0.681389	0.417677	0.207349
O31	O	0.802178	0.417679	0.207344
O32	O	0.802183	0.417679	0.058637
O33	O	0.465340	0.849801	-0.058628
O34	O	0.586129	0.849803	-0.058634
O35	O	0.669308	0.562636	0.131312
O36	O	0.740418	0.562637	0.043767
O37	O	0.669318	0.704845	-0.043764
O38	O	0.598208	0.704844	0.043781
C39	C	0.633757	0.443664	-0.000006
C40	C	0.633755	0.379154	-0.000009
C41	C	0.670869	0.348854	-0.045710
C42	C	0.670876	0.288232	-0.045702
C43	C	0.633755	0.257924	-0.000006
C44	C	0.596640	0.288228	0.045704
C45	C	0.596640	0.348844	0.045703
N46	N	0.573351	0.195527	-0.006340
N47	N	0.573352	0.137946	-0.006344
C48	C	0.633754	0.075292	0.000002
N49	N	0.694154	0.072401	0.006334
N50	N	0.694151	0.129989	0.006333
C51	C	0.633751	0.192196	0.000000
C52	C	0.670879	-0.020743	-0.045694
C53	C	0.670888	-0.081370	-0.045680
C54	C	0.596645	-0.081367	0.045721
C55	C	0.596643	-0.020747	0.045713
C56	C	0.633758	0.009564	0.000001
C57	C	0.443681	0.633737	0.000013
C58	C	0.379170	0.633736	0.000016
C59	C	0.385977	0.559506	0.045698
C60	C	0.325362	0.559505	0.045702
C61	C	0.257939	0.633737	0.000006
C62	C	0.251134	0.707976	-0.045678
C63	C	0.311749	0.707975	-0.045673
N64	N	0.135147	0.688992	-0.074364
N65	N	0.077568	0.688988	-0.074367
C66	C	0.075306	0.633745	-0.000009
N67	N	0.132806	0.578493	0.074350
N68	N	0.190392	0.578495	0.074351
C69	C	0.192208	0.633747	-0.000003
C70	C	0.016390	0.559509	0.045681
C71	C	-0.044228	0.559511	0.045687
C72	C	-0.118456	0.707984	-0.045700
C73	C	-0.057838	0.707980	-0.045698
C74	C	0.009583	0.633741	-0.000009
C75	C	0.823842	0.633743	-0.000004
C76	C	0.888353	0.633744	-0.000007
C77	C	0.633770	0.633740	-0.234010
C78	C	0.633772	0.633740	-0.313432
C79	C	0.633766	0.823815	0.000014
C80	C	0.633768	0.888325	0.000018
C81	C	0.670867	0.559506	-0.603555
C82	C	0.596638	0.707974	-0.694935
C83	C	0.596642	0.707975	-0.620314
C84	C	0.633759	0.633740	-0.537310
C85	C	0.670871	0.559504	-0.528926
C86	C	0.559525	0.782209	-0.628692
C87	C	0.559527	0.782214	-0.554068
C88	C	0.596649	0.707978	-0.471062
C89	C	0.633763	0.633739	-0.462681
C90	C	0.670880	0.559505	-0.379677
C91	C	0.707999	0.485265	-0.371294
C92	C	0.707993	0.485269	-0.445920
C93	C	0.596655	0.707974	-0.396436
C94	C	0.670885	0.559504	-0.305048
C95	C	0.633753	0.633740	0.234018
C96	C	0.633750	0.633740	0.313440
C97	C	0.823837	0.443668	-0.000014
C98	C	0.888347	0.379159	-0.000020
C99	C	0.633748	0.443665	0.234008
C100	C	0.633744	0.379155	0.313427
C101	C	0.823829	0.443668	0.234000
C102	C	0.888336	0.379159	0.313416
C103	C	0.443694	0.823812	-0.233991
C104	C	0.379187	0.888321	-0.313407
C105	C	0.443686	0.823812	0.000023
C106	C	0.379176	0.888321	0.000029
C107	C	0.633774	0.823815	-0.234000
C108	C	0.633779	0.888325	-0.313418
C109	C	0.881526	0.348864	-0.045725
C110	C	0.942134	0.288260	-0.045749
C111	C	1.009562	0.257947	-0.000061
C112	C	1.016382	0.288247	0.045645
C113	C	0.955774	0.348855	0.045663
C114	C	0.670857	0.348861	0.396425
C115	C	0.670850	0.288256	0.471055
C116	C	0.633734	0.257941	0.462684
C117	C	0.596616	0.288241	0.379678
C118	C	0.596619	0.348849	0.305050
C119	C	0.955754	0.348866	0.305013
C120	C	1.016371	0.288261	0.379625
C121	C	1.009568	0.257947	0.462640
C122	C	0.942143	0.288247	0.471041
C123	C	0.881528	0.348854	0.396430
C124	C	0.311769	0.918621	-0.305004
C125	C	0.251152	0.979245	-0.379617
C126	C	0.257954	1.009562	-0.462631
C127	C	0.325380	0.979258	-0.471032
C128	C	0.385995	0.918640	-0.396421
C129	C	0.385997	0.918622	0.045726
C130	C	0.325389	0.979243	0.045729
C131	C	0.257960	1.009558	0.000039
C132	C	0.251141	0.979255	-0.045664
C133	C	0.311748	0.918639	-0.045671
C134	C	0.670902	0.918620	-0.305020
C135	C	0.670920	0.979226	-0.379635
C136	C	0.633810	1.009539	-0.462648
C137	C	0.596685	0.979238	-0.471045
C138	C	0.596672	0.918629	-0.396430
H139	H	0.701099	0.263556	-0.082919
Cl140	Cl	0.166398	1.017324	-0.369035
H141	H	-0.173352	0.768426	-0.082907
Cl142	Cl	0.181744	1.085767	-0.556422
H143	H	0.566415	0.373515	0.082918
H144	H	0.306185	0.893969	-0.082881
Cl145	Cl	0.717553	0.466174	-0.200702
Cl146	Cl	0.333919	1.017377	-0.575401
Cl147	Cl	0.550028	1.017363	-0.575411
Cl148	Cl	0.633739	0.181745	0.556512
H149	H	0.566397	0.263550	0.372875
H150	H	0.306200	0.768424	-0.082871
H151	H	0.566421	-0.106043	0.082928
Cl152	Cl	0.512856	0.875542	-0.564612
H153	H	0.566428	0.768419	-0.403264
Cl154	Cl	0.333978	1.017323	0.103193
H155	H	0.071288	0.499059	0.082902
H156	H	0.738213	0.424827	-0.439104
Cl157	Cl	0.796766	0.386962	-0.103172
Cl158	Cl	0.166368	1.017370	-0.103094
Cl159	Cl	0.717562	0.880523	-0.200670
Cl160	Cl	0.933603	0.250128	0.575410
Cl161	Cl	0.964362	0.386927	0.103133
H162	H	0.566438	0.893970	-0.403281
H163	H	1.071266	0.263598	0.372769
H164	H	0.701082	0.373536	0.403257
Cl165	Cl	0.717543	0.017359	-0.103151
Cl166	Cl	0.717590	1.017311	-0.369060
H167	H	0.440888	0.893970	-0.403273
Cl168	Cl	0.633832	1.085737	-0.556442
Cl169	Cl	0.549980	0.250122	0.103159
H170	H	0.701091	0.499061	-0.596734
Cl171	Cl	0.933545	0.250176	-0.103208
Cl172	Cl	0.470756	0.880528	0.103167
Cl173	Cl	0.181774	1.085760	0.000059
H174	H	1.058907	0.208596	-0.000082
H175	H	-0.038678	0.499062	0.082893
H176	H	0.701092	0.373529	-0.082928
H177	H	-0.063384	0.768426	-0.082904
Cl178	Cl	0.717519	0.250174	0.575395
H179	H	1.071290	0.263558	0.082842
Cl180	Cl	0.549969	0.801292	-0.799280
Cl181	Cl	0.717546	-0.119459	-0.103142
H182	H	0.566399	0.373507	0.237472
Cl183	Cl	0.549981	0.017350	0.103167
H184	H	0.440870	0.499054	0.082896
Cl185	Cl	0.796776	0.386925	0.407009
Cl186	Cl	0.964324	0.386968	0.200660
Cl187	Cl	1.085779	0.181753	0.556430
Cl188	Cl	0.333916	0.466181	0.103130
Cl189	Cl	0.303198	0.880521	-0.200652
H190	H	0.196234	0.768417	-0.082882
H191	H	0.738216	0.424823	-0.303702
H192	H	0.529305	0.842647	-0.696277
