data_functionalizedCrystal
_audit_creation_method	'MofGen! by Chris Wilmer'
_symmetry_space_group_name_H-M	'P1'
_symmetry_Int_Tables_number	1
_symmetry_cell_setting	triclinic
loop_
_symmetry_equiv_pos_as_xyz
  x,y,z
_cell_length_a	15.944545
_cell_length_b	27.731996
_cell_length_c	15.021413
_cell_angle_alpha	89.998029
_cell_angle_beta	89.995468
_cell_angle_gamma	83.058780
loop_
_atom_site_label
_atom_site_type_symbol
_atom_site_fract_x
_atom_site_fract_y
_atom_site_fract_z
O1	O	1.113697	0.062321	-0.073986
O2	O	0.869043	0.070010	-0.074002
O3	O	0.998991	-0.004200	-0.073975
O4	O	0.983749	0.136531	-0.074014
O5	O	0.998971	-0.004189	0.074090
O6	O	0.869023	0.070021	0.074062
O7	O	1.113676	0.062332	0.074078
Zn8	Zn	0.991346	0.066178	0.097578
Zn9	Zn	0.991373	0.066164	-0.097503
O10	O	0.983728	0.136542	0.074050
C11	C	0.837743	0.069697	0.000028
C12	C	0.744510	0.068742	0.000023
C13	C	0.474532	0.019888	0.000046
C14	C	0.524788	0.043446	0.073045
C15	C	0.408912	0.065334	0.000039
C16	C	0.524788	0.043448	-0.072935
C17	C	0.573803	0.067006	0.000030
C18	C	0.457939	0.088881	0.073098
C19	C	0.457937	0.088876	-0.072947
C20	C	0.508159	0.112468	0.000070
C21	C	0.313922	0.064370	0.000045
C22	C	0.668789	0.067974	0.000030
C23	C	0.998668	-0.022203	0.000061
C24	C	0.997725	-0.075864	0.000070
C25	C	0.991802	-0.408611	-0.080684
C26	C	0.988221	-0.610285	-0.080700
O27	O	0.987732	-0.636363	-0.149341
N28	N	0.987765	-0.635498	0.000009
C29	C	0.988199	-0.610290	0.080728
O30	O	0.987720	-0.636362	0.149375
C31	C	0.991774	-0.408617	0.080743
C32	C	0.992239	-0.383407	0.000028
C33	C	0.992266	-0.383401	-0.161392
C34	C	0.993166	-0.332986	-0.161387
C35	C	0.993602	-0.307781	-0.080675
C36	C	0.993139	-0.332991	0.000033
C37	C	0.992202	-0.383408	0.161460
C38	C	0.993094	-0.332987	0.161457
C39	C	0.993558	-0.307777	0.080743
C40	C	0.994475	-0.257371	0.080750
N41	N	0.994931	-0.232158	0.000041
C42	C	0.994495	-0.257363	-0.080671
C43	C	0.986323	-0.716171	0.080714
C44	C	0.985431	-0.766589	0.080711
C45	C	0.985452	-0.766581	-0.080717
C46	C	0.986350	-0.716163	-0.080713
C47	C	0.986779	-0.690958	0.000005
C48	C	0.996385	-0.151488	-0.080655
C49	C	0.997289	-0.101069	-0.080643
C50	C	0.997263	-0.101081	0.080785
C51	C	0.996364	-0.151496	0.080773
C52	C	0.995922	-0.176698	0.000046
O53	O	0.994955	-0.231262	0.149356
O54	O	0.994955	-0.231281	-0.149308
C55	C	0.990903	-0.459027	-0.080689
C56	C	0.990439	-0.484237	0.000019
C57	C	0.990875	-0.459032	0.080731
C58	C	0.989547	-0.534655	0.000015
C59	C	0.989110	-0.559860	-0.080697
C60	C	0.989566	-0.534646	-0.161406
C61	C	0.990466	-0.484231	-0.161401
C62	C	0.990419	-0.484245	0.161440
C63	C	0.989520	-0.534660	0.161429
C64	C	0.989084	-0.559865	0.080716
C65	C	1.144976	0.062645	0.000045
C66	C	1.238210	0.063600	0.000045
C67	C	0.984052	0.154545	0.000013
C68	C	0.984995	0.208206	-0.000002
N69	N	0.991334	0.066187	0.230716
N70	N	0.991393	0.066151	-0.230640
C71	C	0.931237	0.100486	0.470386
C72	C	1.007012	0.109869	0.529723
C73	C	0.991355	0.066175	0.412323
C74	C	0.915601	0.056803	0.529728
C75	C	0.991369	0.066165	0.587747
C76	C	1.067168	0.075580	0.470353
C77	C	0.975708	0.022495	0.470353
C78	C	1.051538	0.031859	0.529662
C79	C	0.991346	0.066182	0.311265
C80	C	0.991388	0.066157	0.688802
H81	H	0.553972	0.024243	-0.134646
H82	H	0.997669	-0.080545	-0.146373
H83	H	0.985066	-0.787112	0.146436
H84	H	0.523126	0.151637	0.000102
Br85	Br	0.991098	-0.450026	-0.270948
H86	H	1.102439	0.002838	0.555526
H87	H	0.962436	-0.014429	0.444255
Br88	Br	0.846584	0.148883	0.427001
H89	H	0.428742	0.108048	-0.134675
Br90	Br	0.993790	-0.298780	-0.270934
H91	H	0.851531	0.048880	0.555812
Br92	Br	1.173982	0.088856	0.427072
H93	H	0.459403	-0.019251	0.000128
H94	H	0.997622	-0.080550	0.146499
Br95	Br	1.029096	0.171429	0.573187
H96	H	0.996021	-0.172001	-0.146390
H97	H	0.553967	0.024257	0.134771
Br98	Br	0.409486	0.120855	0.176072
H99	H	0.995994	-0.172024	0.146497
Br100	Br	0.986980	-0.681954	-0.190257
H101	H	0.989148	-0.555182	0.227161
Br102	Br	0.986899	-0.681972	0.190271
Br103	Br	0.984857	-0.800797	-0.190256
H104	H	0.991908	-0.403918	-0.227121
H105	H	0.993431	-0.312467	0.227189
Br106	Br	0.991568	-0.417609	0.271009
H107	H	0.990776	-0.463728	0.227168
Br108	Br	0.988981	-0.568864	-0.270944
