data_functionalizedCrystal
_audit_creation_method	'MofGen! by Chris Wilmer'
_symmetry_space_group_name_H-M	'P1'
_symmetry_Int_Tables_number	1
_symmetry_cell_setting	triclinic
loop_
_symmetry_equiv_pos_as_xyz
  x,y,z
_cell_length_a	16.109301
_cell_length_b	16.176319
_cell_length_c	16.109301
_cell_angle_alpha	89.991775
_cell_angle_beta	96.538519
_cell_angle_gamma	90.004696
loop_
_atom_site_label
_atom_site_type_symbol
_atom_site_fract_x
_atom_site_fract_y
_atom_site_fract_z
O1	O	1.103135	0.068697	-0.106869
O2	O	0.861073	0.068710	-0.120169
O3	O	0.988754	0.068695	0.007512
O4	O	0.975454	0.068712	-0.234550
O5	O	0.988736	-0.068798	0.007520
O6	O	0.861056	-0.068783	-0.120160
O7	O	1.103118	-0.068796	-0.106861
Cu8	Cu	0.982085	-0.081344	-0.113510
Cu9	Cu	0.982106	0.081258	-0.113520
O10	O	0.975437	-0.068781	-0.234542
C11	C	0.830090	-0.000035	-0.119626
C12	C	0.737794	-0.000030	-0.118011
N13	N	0.982076	-0.195709	-0.113503
C14	C	0.515522	-0.000034	-0.190018
C15	C	0.428801	-0.000039	-0.188494
C16	C	0.448676	-0.000047	-0.037006
C17	C	0.535394	-0.000048	-0.038530
C18	C	0.568815	-0.000037	-0.115039
C19	C	0.395376	-0.000042	-0.111990
C20	C	0.301350	-0.000048	-0.110337
C21	C	0.662847	-0.000033	-0.116693
C22	C	1.038630	-0.238980	-0.056989
C23	C	1.038635	-0.325527	-0.056988
C24	C	0.982088	-0.368802	-0.113506
C25	C	0.925528	-0.325524	-0.170022
C26	C	0.925521	-0.238979	-0.170018
C27	C	0.925557	-0.674553	-0.170038
C28	C	0.925570	-0.761104	-0.170039
C29	C	1.038671	-0.761101	-0.057007
C30	C	1.038663	-0.674555	-0.057004
C31	C	0.982101	-0.631286	-0.113517
C32	C	0.982096	-0.537442	-0.113516
C33	C	0.982096	-0.462644	-0.113511
C34	C	1.134101	-0.000049	-0.107404
C35	C	1.226397	-0.000049	-0.109019
C36	C	0.988206	-0.000052	0.038491
C37	C	0.986591	-0.000053	0.130786
N38	N	0.982121	0.195623	-0.113520
C39	C	0.975984	-0.000032	-0.265521
C40	C	0.977600	-0.000025	-0.357816
C41	C	1.058599	-0.000044	0.353059
C42	C	1.057075	-0.000037	0.439779
C43	C	0.905586	-0.000032	0.419905
C44	C	0.907111	-0.000033	0.333186
C45	C	0.983620	-0.000043	0.299766
C46	C	0.980571	-0.000035	0.473205
C47	C	0.978918	-0.000028	0.567231
C48	C	0.985273	-0.000049	0.205734
H49	H	0.385413	-0.000039	-0.249550
H50	H	1.084711	-0.639324	-0.010985
C51	C	1.100841	-0.373126	0.005177
H52	H	1.092742	-0.430867	-0.002911
H53	H	1.156323	-0.358934	-0.003870
H54	H	1.091824	-0.358950	0.060671
C55	C	1.100881	-0.808700	0.005166
H56	H	1.092784	-0.866441	-0.002921
H57	H	1.156361	-0.794506	-0.003881
H58	H	1.091864	-0.794524	0.060660
H59	H	0.879520	-0.796337	-0.216064
C60	C	0.863348	-0.626967	-0.232207
H61	H	0.829681	-0.665137	-0.265872
H62	H	0.828744	-0.593217	-0.202290
H63	H	0.893245	-0.593195	-0.266828
H64	H	0.421454	-0.000061	0.025285
C65	C	0.824632	-0.000028	0.274556
H66	H	0.836500	-0.000020	0.218124
H67	H	0.793250	-0.047971	0.284686
H68	H	0.793271	0.047928	0.284680
H69	H	1.118130	-0.000036	0.483168
H70	H	0.879483	-0.360763	-0.216037
C71	C	0.863315	-0.191381	-0.232187
H72	H	0.829644	-0.229547	-0.265853
H73	H	0.828715	-0.157630	-0.202267
H74	H	0.893212	-0.157609	-0.266807
H75	H	1.120897	-0.000051	0.325851
H76	H	0.578788	-0.000052	0.022530
H77	H	0.843295	-0.000025	0.447127
H78	H	0.542730	-0.000032	-0.252317
C79	C	1.100831	-0.191386	0.005183
H80	H	1.134507	-0.229555	0.038845
H81	H	1.135427	-0.157611	-0.024732
H82	H	1.070927	-0.157638	0.039806
