data_functionalizedCrystal
_audit_creation_method	'MofGen! by Chris Wilmer'
_symmetry_space_group_name_H-M	'P1'
_symmetry_Int_Tables_number	1
_symmetry_cell_setting	triclinic
loop_
_symmetry_equiv_pos_as_xyz
  x,y,z
_cell_length_a	6.817900
_cell_length_b	14.858329
_cell_length_c	17.110486
_cell_angle_alpha	96.088146
_cell_angle_beta	99.060439
_cell_angle_gamma	104.519616
loop_
_atom_site_label
_atom_site_type_symbol
_atom_site_fract_x
_atom_site_fract_y
_atom_site_fract_z
V1	V	-3.982044	-0.128393	-0.246945
O2	O	-3.965115	0.006455	-0.242012
O3	O	-3.938958	-0.254856	-0.245479
O4	O	-3.911817	-0.126293	-0.354545
O5	O	-3.992443	-0.122998	-0.132192
V6	V	-4.467811	-0.112279	-0.233193
O7	O	-4.238379	-0.163742	-0.277112
O8	O	-4.661674	-0.076930	-0.203025
O9	O	-4.287691	0.014184	-0.234658
O10	O	-4.602137	-0.247127	-0.238126
O11	O	-4.574809	-0.117674	-0.347946
O12	O	-4.314831	-0.114379	-0.125593
C13	C	-3.785958	-0.285689	-0.241641
C14	C	-3.831871	-0.389073	-0.241160
C15	C	-3.869154	-0.473032	-0.240762
C16	C	-3.915945	-0.578362	-0.240266
C17	C	-3.953254	-0.662315	-0.239872
C18	C	-4.000048	-0.767651	-0.239375
C19	C	-3.751337	-0.121693	-0.380764
C20	C	-3.775237	-0.120813	-0.468729
C21	C	-3.967948	-0.125041	-0.514094
C22	C	-3.990393	-0.124213	-0.596746
C23	C	-3.820129	-0.119164	-0.634031
C24	C	-3.627401	-0.114933	-0.588660
C25	C	-3.604955	-0.115754	-0.506009
C26	C	-3.878819	-0.116447	-0.883382
C27	C	-3.901282	-0.115629	-0.966039
C28	C	-4.264273	-0.124908	-0.974119
C29	C	-4.241812	-0.125734	-0.891467
C30	C	-4.049085	-0.121498	-0.846102
C31	C	-3.843069	-0.118321	-0.718515
C32	C	-4.026145	-0.122334	-0.761619
C33	C	-4.104034	0.045012	-0.238494
C34	C	-4.037357	0.148396	-0.238981
C35	C	-4.138655	-0.118982	-0.099370
C36	C	-4.093993	-0.119857	-0.011404
H37	H	-4.106603	-0.129158	-0.483743
H38	H	-4.147313	-0.127651	-0.633678
H39	H	-4.380463	-0.129844	-0.861115
F40	F	-3.673715	-0.111958	-0.835114
H41	H	-3.762620	-0.111515	-0.996394
F42	F	-3.399844	-0.111247	-0.457727
H43	H	-4.164770	-0.126442	-0.731256
F44	F	-4.469374	-0.129413	-1.022405
H45	H	-3.488768	-0.110817	-0.619024
H46	H	-3.704444	-0.114214	-0.748883
