data_functionalizedCrystal
_audit_creation_method	'MofGen! by Chris Wilmer'
_symmetry_space_group_name_H-M	'P1'
_symmetry_Int_Tables_number	1
_symmetry_cell_setting	triclinic
loop_
_symmetry_equiv_pos_as_xyz
  x,y,z
_cell_length_a	17.077404
_cell_length_b	13.032268
_cell_length_c	17.077402
_cell_angle_alpha	97.144989
_cell_angle_beta	90.023108
_cell_angle_gamma	97.162375
loop_
_atom_site_label
_atom_site_type_symbol
_atom_site_fract_x
_atom_site_fract_y
_atom_site_fract_z
Zn1	Zn	1.143664	-0.590838	-0.368838
Zn2	Zn	1.160249	-0.416091	-0.483452
Zn3	Zn	1.029072	-0.416114	-0.352206
Zn4	Zn	1.012369	-0.590777	-0.500061
O5	O	1.086338	-0.503455	-0.426139
O6	O	1.255709	-0.567673	-0.384051
O7	O	1.156779	-0.269865	-0.452130
O8	O	1.044321	-0.439326	-0.244569
O9	O	1.267894	-0.439288	-0.468257
O10	O	1.128512	-0.567695	-0.256788
O11	O	1.060403	-0.269882	-0.355705
O12	O	0.917011	-0.439268	-0.371810
O13	O	1.015855	-0.737015	-0.496565
O14	O	0.904739	-0.567592	-0.480438
O15	O	1.112316	-0.737059	-0.400157
O16	O	1.140583	-0.439229	-0.595498
O17	O	1.031937	-0.567570	-0.607701
C18	C	0.882393	-0.503426	-0.426122
C19	C	0.795142	-0.503439	-0.426136
C20	C	1.060372	-0.776013	-0.452069
C21	C	1.049307	-0.892160	-0.463119
C22	C	0.747793	-0.570150	-0.482764
C23	C	0.665811	-0.570167	-0.482768
C24	C	0.631180	-0.503466	-0.426146
C25	C	0.678535	-0.436752	-0.369512
C26	C	0.760515	-0.436741	-0.369506
C27	C	0.507663	-0.436777	-0.369530
C28	C	0.425677	-0.436786	-0.369536
C29	C	0.412959	-0.570203	-0.482792
C30	C	0.494939	-0.570192	-0.482786
C31	C	0.542288	-0.503476	-0.426152
C32	C	1.092101	-0.943965	-0.420344
C33	C	1.080666	-1.064009	-0.431764
C34	C	1.291080	-0.503485	-0.426157
C35	C	1.378328	-0.503497	-0.426164
C36	C	1.086267	-0.503413	-0.630083
C37	C	1.086304	-0.503430	-0.717335
C38	C	1.112249	-0.231958	-0.400254
C39	C	1.123466	-0.115811	-0.388983
C40	C	1.142921	-0.436675	-0.751952
C41	C	1.142957	-0.436702	-0.833935
C42	C	1.086372	-0.503479	-0.881299
C43	C	1.029752	-0.570242	-0.846677
C44	C	1.029721	-0.570220	-0.764696
C45	C	1.029821	-0.570282	-1.017550
C46	C	1.029852	-0.570303	-1.099537
C47	C	1.143058	-0.436764	-1.086789
C48	C	1.143026	-0.436741	-1.004808
C49	C	1.086405	-0.503503	-0.970192
C50	C	1.086430	-0.503520	-0.221401
C51	C	1.086469	-0.503547	-0.134154
H52	H	0.627263	-0.624489	-0.528881
C53	C	0.989222	-0.951377	-0.523340
C54	C	1.008775	-0.924862	-0.598502
C55	C	0.953436	-0.979377	-0.653997
H56	H	0.989477	-1.024189	-0.523137
H57	H	0.938162	-0.933514	-0.510209
H58	H	1.059822	-0.942732	-0.611629
H59	H	1.008515	-0.852060	-0.598731
H60	H	0.902376	-0.961514	-0.640866
H61	H	0.953695	-1.052185	-0.653787
H62	H	0.966691	-0.961387	-0.704999
H63	H	0.546212	-0.382459	-0.323407
C64	C	0.640907	-0.364208	-0.308152
C65	C	0.600224	-0.297112	-0.346138
C66	C	0.565561	-0.230260	-0.289638
H67	H	0.605075	-0.404150	-0.277785
H68	H	0.680829	-0.324415	-0.274430
H69	H	0.560307	-0.336900	-0.379846
H70	H	0.636038	-0.257147	-0.376500
H71	H	0.605483	-0.190467	-0.255916
H72	H	0.529733	-0.270210	-0.259274
H73	H	0.537960	-0.184721	-0.315403
H74	H	1.188996	-0.382293	-0.713392
C75	C	0.968506	-0.642986	-1.150943
C76	C	0.975702	-0.746392	-1.140813
C77	C	0.919212	-0.813378	-1.188164
H78	H	0.917185	-0.627778	-1.136148
H79	H	0.976639	-0.633500	-1.204738
H80	H	0.967563	-0.755873	-1.087030
H81	H	1.027011	-0.761632	-1.155613
H82	H	0.927345	-0.803892	-1.241959
H83	H	0.867895	-0.798161	-1.173365
H84	H	0.924092	-0.883546	-1.181303
C85	C	1.152132	-0.884476	-0.360184
C86	C	1.113640	-0.821805	-0.303961
C87	C	1.168918	-0.766981	-0.248536
H88	H	1.177529	-0.932422	-0.334742
H89	H	1.190338	-0.841835	-0.386169
H90	H	1.075448	-0.864442	-0.277979
H91	H	1.088246	-0.773839	-0.329380
H92	H	1.207124	-0.724339	-0.274521
H93	H	1.194313	-0.814934	-0.223100
H94	H	1.142811	-0.724445	-0.210387
C95	C	1.020591	-1.123546	-0.491863
C96	C	1.021213	-1.230776	-0.491263
C97	C	0.965893	-1.285654	-0.546623
H98	H	0.969496	-1.105835	-0.478753
H99	H	1.033749	-1.105755	-0.542942
H100	H	1.008050	-1.248559	-0.440196
H101	H	1.072294	-1.248518	-0.504382
H102	H	0.979051	-1.267863	-0.597702
H103	H	0.914802	-1.267935	-0.533508
H104	H	0.966312	-1.358415	-0.546229
C105	C	1.204577	-0.364168	-1.124217
C106	C	1.254108	-0.305658	-1.065188
C107	C	1.310777	-0.238762	-1.099639
H108	H	1.235039	-0.404073	-1.159953
H109	H	1.178952	-0.318556	-1.151882
H110	H	1.279731	-0.351265	-1.037536
H111	H	1.223668	-0.265732	-1.029448
H112	H	1.285152	-0.193150	-1.127304
H113	H	1.341233	-0.278675	-1.135374
H114	H	1.344386	-0.199049	-1.059593
C115	C	0.532633	-0.642673	-0.544139
C116	C	0.573348	-0.709728	-0.506143
C117	C	0.608088	-0.776506	-0.562634
H118	H	0.492772	-0.682509	-0.577893
H119	H	0.568455	-0.602643	-0.574471
H120	H	0.537528	-0.749754	-0.475824
H121	H	0.613220	-0.669921	-0.472393
H122	H	0.643911	-0.736476	-0.592967
H123	H	0.568223	-0.816335	-0.596386
H124	H	0.635723	-0.822004	-0.536863
C125	C	1.204466	-0.364105	-0.871366
C126	C	1.253997	-0.305595	-0.812337
C127	C	1.310664	-0.238696	-0.846787
H128	H	1.234928	-0.404008	-0.907102
H129	H	1.178840	-0.318494	-0.899030
H130	H	1.279621	-0.351201	-0.784686
H131	H	1.223556	-0.265670	-0.776597
H132	H	1.285038	-0.193085	-0.874452
H133	H	1.341121	-0.278608	-0.882524
H134	H	1.344273	-0.198983	-0.806742
H135	H	1.168568	-1.071295	-0.343900
H136	H	0.374402	-0.624528	-0.528903
C137	C	0.968467	-0.642893	-0.979932
C138	C	1.006469	-0.709928	-0.939202
C139	C	0.949976	-0.776834	-0.904545
H140	H	0.938064	-0.602988	-0.944133
H141	H	0.934776	-0.682729	-1.019859
H142	H	1.040147	-0.670097	-0.899280
H143	H	1.036867	-0.749856	-0.974985
H144	H	0.916284	-0.816670	-0.944472
H145	H	0.919576	-0.736921	-0.868749
H146	H	0.975751	-0.822331	-0.876912
H147	H	1.189098	-0.382361	-0.966244
H148	H	0.775984	-0.624462	-0.528875
C149	C	0.968338	-0.642656	-0.726963
C150	C	0.980434	-0.628367	-0.645033
C151	C	0.923912	-0.695093	-0.610250
H152	H	0.917034	-0.627371	-0.738895
H153	H	0.973106	-0.712907	-0.747005
H154	H	0.975660	-0.558133	-0.624998
H155	H	1.031727	-0.643660	-0.633077
H156	H	0.928680	-0.765343	-0.630292
H157	H	0.872612	-0.679802	-0.622188
H158	H	0.932116	-0.685413	-0.554658
C159	C	0.388174	-0.364224	-0.308087
C160	C	0.417943	-0.260777	-0.315176
C161	C	0.383414	-0.193914	-0.258576
H162	H	0.332572	-0.373662	-0.316153
H163	H	0.400174	-0.379593	-0.256811
H164	H	0.405938	-0.245414	-0.366440
H165	H	0.473542	-0.251307	-0.307102
H166	H	0.395413	-0.209283	-0.207300
H167	H	0.327812	-0.203361	-0.266647
H168	H	0.403612	-0.123719	-0.263373
C169	C	0.811796	-0.364189	-0.307987
C170	C	0.763925	-0.305754	-0.258415
C171	C	0.811137	-0.238899	-0.201739
H172	H	0.839994	-0.404120	-0.277557
H173	H	0.848091	-0.318529	-0.333601
H174	H	0.727645	-0.351409	-0.232802
H175	H	0.735728	-0.265802	-0.288821
H176	H	0.847432	-0.193238	-0.227353
H177	H	0.839333	-0.278838	-0.171315
H178	H	0.778665	-0.199236	-0.168102
H179	H	0.983683	-0.624618	-0.885248
