data_functionalizedCrystal
_audit_creation_method	'MofGen! by Chris Wilmer'
_symmetry_space_group_name_H-M	'P1'
_symmetry_Int_Tables_number	1
_symmetry_cell_setting	triclinic
loop_
_symmetry_equiv_pos_as_xyz
  x,y,z
_cell_length_a	14.519709
_cell_length_b	23.532409
_cell_length_c	12.996460
_cell_angle_alpha	89.996917
_cell_angle_beta	90.000034
_cell_angle_gamma	83.264852
loop_
_atom_site_label
_atom_site_type_symbol
_atom_site_fract_x
_atom_site_fract_y
_atom_site_fract_z
O1	O	1.222986	0.074654	-0.085426
O2	O	0.954406	0.083445	-0.085456
O3	O	1.096794	-0.003845	-0.085441
O4	O	1.080598	0.161945	-0.085441
O5	O	1.096779	-0.003850	0.085692
O6	O	0.954391	0.083440	0.085678
O7	O	1.222972	0.074649	0.085708
Cu8	Cu	1.088680	0.079044	0.101319
Cu9	Cu	1.088697	0.079050	-0.101067
O10	O	1.080583	0.161940	0.085693
C11	C	0.920043	0.083033	0.000107
C12	C	0.817677	0.081805	0.000095
C13	C	0.442834	0.077285	0.000141
C14	C	0.547127	0.078541	0.000128
C15	C	0.630252	0.079545	0.000117
C16	C	0.734552	0.080801	0.000106
C17	C	1.096374	-0.025066	0.000123
C18	C	1.095133	-0.088288	0.000115
C19	C	1.089864	-0.361555	-0.093175
C20	C	1.091016	-0.302149	-0.093175
O21	O	1.091651	-0.271419	-0.172507
N22	N	1.091579	-0.272447	0.000112
C23	C	1.090998	-0.302154	0.093405
O24	O	1.091583	-0.271436	0.172752
C25	C	1.089852	-0.361559	0.093404
C26	C	1.089280	-0.391257	0.000111
C27	C	1.089293	-0.391253	-0.186460
C28	C	1.088139	-0.450654	-0.186460
C29	C	1.087556	-0.480357	-0.093174
C30	C	1.088126	-0.450659	0.000111
C31	C	1.089278	-0.391266	0.186695
C32	C	1.088133	-0.450675	0.186686
C33	C	1.087561	-0.480373	0.093394
C34	C	1.086389	-0.539762	0.093397
N35	N	1.085827	-0.569465	0.000111
C36	C	1.086410	-0.539762	-0.093175
C37	C	1.093406	-0.177400	0.093400
C38	C	1.094545	-0.117996	0.093402
C39	C	1.094565	-0.117995	-0.093178
C40	C	1.093419	-0.177400	-0.093179
C41	C	1.092843	-0.207102	0.000113
C42	C	1.083986	-0.664508	-0.093167
C43	C	1.082828	-0.723915	-0.093158
C44	C	1.082813	-0.723911	0.093421
C45	C	1.083966	-0.664509	0.093413
C46	C	1.084555	-0.634810	0.000111
O47	O	1.085757	-0.570530	0.172689
O48	O	1.085837	-0.570489	-0.172509
C49	C	1.257334	0.075061	0.000143
C50	C	1.359701	0.076289	0.000148
C51	C	1.081003	0.183160	0.000127
C52	C	1.082244	0.246383	0.000128
N53	N	1.088674	0.079040	0.243666
N54	N	1.088710	0.079050	-0.243414
C55	C	1.088696	0.079051	0.663480
C56	C	1.088687	0.079050	0.546675
C57	C	1.088686	0.079046	0.453577
C58	C	1.088676	0.079044	0.336764
H59	H	1.082359	-0.748092	-0.169132
H60	H	1.087680	-0.474830	-0.262428
C61	C	1.092815	-0.210065	-0.195800
H62	H	1.093336	-0.183862	-0.251352
H63	H	1.038591	-0.228964	-0.199703
H64	H	1.146167	-0.237514	-0.199664
H65	H	1.087665	-0.474855	0.262658
H66	H	1.094993	-0.093819	0.169370
H67	H	1.089753	-0.367096	0.262664
H68	H	1.095037	-0.093800	-0.169137
C69	C	1.084584	-0.631839	0.196031
H70	H	1.084073	-0.658040	0.251588
H71	H	1.031253	-0.604379	0.199905
H72	H	1.138829	-0.612954	0.199918
C73	C	1.082171	-0.756589	0.196030
H74	H	1.082669	-0.730396	0.251595
H75	H	1.135506	-0.784046	0.199906
H76	H	1.027930	-0.775479	0.199898
H77	H	1.084467	-0.640334	-0.169142
C78	C	1.092753	-0.210066	0.196027
H79	H	1.093243	-0.183864	0.251579
H80	H	1.146087	-0.237523	0.199926
H81	H	1.038511	-0.228955	0.199898
H82	H	1.089771	-0.367075	-0.262429
