data_functionalizedCrystal
_audit_creation_method	'MofGen! by Chris Wilmer'
_symmetry_space_group_name_H-M	'P1'
_symmetry_Int_Tables_number	1
_symmetry_cell_setting	triclinic
loop_
_symmetry_equiv_pos_as_xyz
  x,y,z
_cell_length_a	10.967926
_cell_length_b	14.853569
_cell_length_c	9.482900
_cell_angle_alpha	99.346518
_cell_angle_beta	92.549900
_cell_angle_gamma	84.185607
loop_
_atom_site_label
_atom_site_type_symbol
_atom_site_fract_x
_atom_site_fract_y
_atom_site_fract_z
O1	O	1.610475	0.159150	0.282576
O2	O	1.261265	0.161127	0.195084
O3	O	1.445195	0.029232	0.241180
O4	O	1.426545	0.291045	0.236480
O5	O	1.407835	0.056135	0.473610
O6	O	1.223905	0.188030	0.427514
O7	O	1.573115	0.186053	0.515005
Cu8	Cu	1.395098	0.189498	0.492482
Cu9	Cu	1.439281	0.157682	0.217607
O10	O	1.389185	0.317948	0.468909
C11	C	1.197894	0.172402	0.300102
C12	C	1.064730	0.165905	0.266740
C13	C	0.986007	0.176945	0.372271
C14	C	0.848374	0.170231	0.337791
C15	C	1.425669	0.009066	0.357184
C16	C	1.423135	-0.091105	0.356550
C17	C	1.312686	-0.131291	0.328881
C18	C	1.531205	-0.145045	0.383613
C19	C	1.528829	-0.239162	0.383011
C20	C	1.418380	-0.279348	0.355342
C21	C	1.310307	-0.225417	0.328274
C22	C	1.636902	-0.293102	0.410065
C23	C	1.634531	-0.387225	0.409462
C24	C	1.524079	-0.427411	0.381803
C25	C	1.416001	-0.373474	0.354735
C26	C	1.305553	-0.413659	0.327066
C27	C	1.197472	-0.359722	0.300008
C28	C	1.199856	-0.265603	0.300614
C29	C	1.521695	-0.521531	0.381197
C30	C	1.303174	-0.507785	0.326459
C31	C	1.636486	0.174778	0.409984
C32	C	1.769652	0.181273	0.443338
C33	C	1.408711	0.338114	0.352903
C34	C	1.411247	0.438284	0.353527
N35	N	1.364032	0.211876	0.685816
N36	N	1.470358	0.135297	0.024276
C37	C	1.430109	0.164277	0.774576
C38	C	1.404270	0.182903	0.935517
H39	H	1.107546	-0.392455	0.277471
H40	H	1.546060	0.080749	0.981123
N41	N	1.083287	-0.207427	0.271466
H42	H	1.101556	-0.141704	0.276054
H43	H	1.048982	-0.230832	0.173251
H44	H	1.505807	0.109732	0.731419
N45	N	1.019041	0.146800	0.113249
H46	H	1.040032	0.196952	0.060843
H47	H	1.059307	0.085912	0.065802
H48	H	1.288326	0.266414	0.728973
N49	N	0.802705	0.151115	0.184289
H50	H	0.710859	0.149025	0.181416
H51	H	0.823781	0.201281	0.131968
H52	H	0.804141	0.195694	0.559221
N53	N	1.196112	-0.073121	0.299733
H54	H	1.214369	-0.007395	0.304328
H55	H	1.161812	-0.096526	0.201516
N56	N	1.303979	0.255148	0.992658
H57	H	1.299733	0.258212	1.099529
H58	H	1.322253	0.316628	0.970701
N59	N	1.650322	-0.101703	0.413472
H60	H	1.670032	-0.072919	0.328789
H61	H	1.642230	-0.053035	0.501146
N62	N	1.031684	0.196048	0.525766
H63	H	1.123530	0.198137	0.528639
H64	H	0.991347	0.256904	0.573241
N65	N	1.184050	-0.551132	0.296610
H66	H	1.164351	-0.579914	0.381300
H67	H	1.116024	-0.502638	0.279527
H68	H	1.726810	-0.260365	0.432678
H69	H	1.722536	-0.431133	0.431497
N70	N	1.638253	-0.579707	0.410362
H71	H	1.708584	-0.539969	0.427974
H72	H	1.628188	-0.609091	0.497471
