data_functionalizedCrystal
_audit_creation_method	'MofGen! by Chris Wilmer'
_symmetry_space_group_name_H-M	'P1'
_symmetry_Int_Tables_number	1
_symmetry_cell_setting	triclinic
loop_
_symmetry_equiv_pos_as_xyz
  x,y,z
_cell_length_a	19.188930
_cell_length_b	16.992694
_cell_length_c	15.455341
_cell_angle_alpha	92.828636
_cell_angle_beta	87.005924
_cell_angle_gamma	93.093497
loop_
_atom_site_label
_atom_site_type_symbol
_atom_site_fract_x
_atom_site_fract_y
_atom_site_fract_z
O1	O	0.145124	-1.036828	0.072038
O2	O	0.143499	-0.808547	0.072064
O3	O	0.043042	-0.929276	0.072033
O4	O	0.245580	-0.916099	0.072069
O5	O	0.048834	-0.935385	-0.072227
O6	O	0.149291	-0.814656	-0.072197
O7	O	0.150916	-1.042937	-0.072223
Cu8	Cu	0.150633	-0.929354	-0.085382
Cu9	Cu	0.143782	-0.922130	0.085223
O10	O	0.251373	-0.922208	-0.072192
C11	C	0.019902	-0.931904	-0.000099
C12	C	-0.057677	-0.930623	-0.000107
C13	C	0.144306	-0.782396	-0.000064
C14	C	0.138072	-0.695373	-0.000055
C15	C	0.150109	-1.069088	-0.000093
C16	C	0.156342	-1.156111	-0.000096
C17	C	-0.098455	-1.001463	-0.000119
C18	C	-0.171350	-1.000259	-0.000105
C19	C	-0.203463	-0.928212	-0.000096
C20	C	-0.162676	-0.857363	-0.000079
C21	C	-0.089783	-0.858569	-0.000085
N22	N	-0.312719	-0.875220	-0.049185
N23	N	-0.381965	-0.874080	-0.049182
C24	C	-0.423085	-0.924576	-0.000078
N25	N	-0.392344	-0.976267	0.049011
N26	N	-0.323092	-0.977410	0.049004
C27	C	-0.282503	-0.926897	-0.000090
C28	C	-0.542904	-0.994115	-0.000074
C29	C	-0.615801	-0.992908	-0.000054
C30	C	-0.607124	-0.850010	-0.000038
C31	C	-0.534230	-0.851219	-0.000048
C32	C	-0.502124	-0.923274	-0.000070
C33	C	0.274513	-0.919580	-0.000057
C34	C	0.352092	-0.920860	-0.000044
N35	N	0.155451	-0.934441	-0.205377
C36	C	0.198212	-0.644926	-0.000045
C37	C	0.192351	-0.563160	-0.000058
C38	C	0.126351	-0.531842	-0.000075
C39	C	0.066208	-0.582296	-0.000087
C40	C	0.072069	-0.664061	-0.000080
C41	C	0.102060	-0.288329	-0.000102
C42	C	0.096203	-0.206558	-0.000106
C43	C	0.222347	-0.187427	-0.000079
C44	C	0.228202	-0.269194	-0.000067
C45	C	0.168059	-0.319641	-0.000084
N46	N	0.120360	-0.448264	-0.000085
N47	N	0.174052	-0.403217	-0.000079
C48	C	0.182150	-0.962523	-0.749379
C49	C	0.178502	-0.958681	-0.658572
C50	C	0.131658	-0.909368	-0.613169
C51	C	0.088464	-0.863889	-0.658578
C52	C	0.092117	-0.867727	-0.749384
C53	C	0.115910	-0.892801	-0.341591
C54	C	0.112259	-0.888967	-0.250779
C55	C	0.202298	-0.983758	-0.250779
C56	C	0.205943	-0.987596	-0.341587
C57	C	0.162753	-0.942114	-0.386988
N58	N	0.127926	-0.905441	-0.520350
N59	N	0.166489	-0.946038	-0.479806
N60	N	0.138959	-0.917049	0.205218
H61	H	-0.204558	-1.057947	-0.000111
H62	H	-0.501027	-0.793534	-0.000043
H63	H	0.053086	-0.329394	-0.000117
O64	O	-0.063831	-1.079178	-0.000136
H65	H	-0.006292	-1.068119	-0.000144
H66	H	0.074113	-0.848806	-0.213815
O67	O	0.025013	-0.172780	-0.000138
H68	H	0.016957	-0.133493	0.058660
H69	H	-0.188827	-0.798702	-0.000070
H70	H	0.012469	-0.556792	-0.000113
O71	O	0.287215	-0.133020	-0.000079
H72	H	0.272056	-0.070903	-0.000096
H73	H	0.213672	-0.995712	-0.621609
O74	O	-0.045797	-0.782159	-0.000088
H75	H	-0.060058	-0.745172	0.058711
H76	H	0.050326	-0.823733	-0.621604
H77	H	-0.516763	-1.052786	-0.000088
H78	H	-0.649002	-1.050596	-0.000059
O79	O	0.299394	-0.302960	-0.000057
H80	H	0.302727	-0.337249	0.058749
O81	O	0.069304	-0.843753	-0.390527
H82	H	0.102038	-0.803230	-0.431878
H83	H	0.220293	-1.002682	-0.786340
O84	O	0.007206	-0.718478	-0.000088
H85	H	-0.039674	-0.682966	-0.000093
H86	H	-0.633270	-0.791348	-0.000026
H87	H	0.251956	-0.670417	-0.000031
O88	O	0.256470	-1.040781	-0.390558
H89	H	0.285895	-1.071753	-0.343730
O90	O	0.257215	-0.508746	-0.000048
H91	H	0.304093	-0.544259	-0.000025
O92	O	0.248891	-1.032802	-0.201814
H93	H	0.238489	-1.021844	-0.131043
H94	H	0.056947	-0.830696	-0.786350
