data_functionalizedCrystal
_audit_creation_method	'MofGen! by Chris Wilmer'
_symmetry_space_group_name_H-M	'P1'
_symmetry_Int_Tables_number	1
_symmetry_cell_setting	triclinic
loop_
_symmetry_equiv_pos_as_xyz
  x,y,z
_cell_length_a	16.959455
_cell_length_b	18.050589
_cell_length_c	16.959447
_cell_angle_alpha	89.973357
_cell_angle_beta	89.979626
_cell_angle_gamma	90.025241
loop_
_atom_site_label
_atom_site_type_symbol
_atom_site_fract_x
_atom_site_fract_y
_atom_site_fract_z
Zn1	Zn	1.208339	-0.295704	-0.447057
Zn2	Zn	1.208243	-0.419905	-0.314886
Zn3	Zn	1.076168	-0.295727	-0.314880
Zn4	Zn	1.076113	-0.419850	-0.447011
O5	O	1.142216	-0.357797	-0.380959
O6	O	1.318937	-0.312193	-0.429546
O7	O	1.190705	-0.403466	-0.204275
O8	O	1.093763	-0.191800	-0.332430
O9	O	1.318866	-0.403443	-0.332441
O10	O	1.190869	-0.191782	-0.429539
O11	O	1.093670	-0.312233	-0.204270
O12	O	0.965549	-0.312179	-0.332386
O13	O	1.093671	-0.403349	-0.557628
O14	O	0.965510	-0.403372	-0.429462
O15	O	1.190817	-0.312139	-0.557661
O16	O	1.190653	-0.523823	-0.332397
O17	O	1.093578	-0.523782	-0.429468
C18	C	0.936849	-0.357772	-0.380919
C19	C	0.848993	-0.357780	-0.380920
C20	C	0.477470	-0.405264	-0.330370
C21	C	0.477565	-0.310391	-0.431643
C22	C	0.560111	-0.310379	-0.431624
C23	C	0.601340	-0.357811	-0.380978
C24	C	0.560023	-0.405254	-0.330351
C25	C	0.601433	-0.262941	-0.482255
C26	C	0.683984	-0.262928	-0.482239
C27	C	0.725215	-0.310356	-0.431588
C28	C	0.683893	-0.357801	-0.380959
C29	C	0.725123	-0.405233	-0.330313
C30	C	0.683803	-0.452675	-0.279679
C31	C	0.601254	-0.452683	-0.279701
C32	C	0.807764	-0.310348	-0.431566
C33	C	0.807676	-0.405224	-0.330294
C34	C	1.142120	-0.550749	-0.380945
C35	C	1.142152	-0.633295	-0.380966
C36	C	1.089414	-0.832750	-0.433735
C37	C	1.070151	-0.882193	-0.361606
C38	C	1.142229	-0.784425	-0.380977
C39	C	1.161531	-0.882064	-0.453114
C40	C	1.142303	-0.930410	-0.380993
C41	C	1.122929	-0.832781	-0.308809
C42	C	1.214342	-0.832647	-0.400366
C43	C	1.195106	-0.882068	-0.328187
C44	C	1.142185	-0.700327	-0.380968
C45	C	1.142347	-1.014506	-0.380993
C46	C	1.348384	-0.357821	-0.380999
C47	C	1.436240	-0.357832	-0.381016
C48	C	1.142249	-0.357735	-0.587127
C49	C	1.142263	-0.357709	-0.674983
C50	C	1.142333	-0.164091	-0.380989
C51	C	1.142383	-0.081545	-0.381002
C52	C	1.091778	-0.405119	-1.046444
C53	C	1.192936	-0.310142	-1.046474
C54	C	1.192915	-0.310158	-0.963928
C55	C	1.142326	-0.357656	-0.922637
C56	C	1.091757	-0.405138	-0.963891
C57	C	1.243489	-0.262682	-0.922668
C58	C	1.243470	-0.262696	-0.840117
C59	C	1.192876	-0.310191	-0.798824
C60	C	1.142305	-0.357674	-0.840083
C61	C	1.091715	-0.405173	-0.798791
C62	C	1.041139	-0.452653	-0.840049
C63	C	1.041162	-0.452633	-0.922598
C64	C	1.192852	-0.310211	-0.716275
C65	C	1.091694	-0.405191	-0.716238
C66	C	1.142228	-0.357804	-0.175592
C67	C	1.142368	-0.357621	-0.087736
H68	H	0.443823	-0.443888	-0.289143
H69	H	0.717382	-0.491298	-0.238447
F70	F	1.037844	-0.455743	-0.672298
F71	F	0.433684	-0.259921	-0.485548
H72	H	0.567604	-0.491307	-0.238477
F73	F	0.987344	-0.503163	-0.966512
H74	H	0.999952	-0.491329	-0.806419
F75	F	0.851549	-0.455704	-0.276384
H76	H	0.841403	-0.271723	-0.472793
F77	F	0.990483	-0.910637	-0.340172
H78	H	1.106562	-0.811222	-0.247793
F79	F	1.253529	-0.910194	-0.269815
F80	F	1.182831	-0.910362	-0.532843
F81	F	0.557551	-0.212474	-0.536161
F82	F	1.297295	-0.212162	-0.796215
F83	F	1.293989	-0.804180	-0.421826
H84	H	1.284681	-0.224016	-0.956294
F85	F	1.037952	-0.455647	-1.090353
H86	H	0.717620	-0.224297	-0.523467
F87	F	1.030952	-0.804443	-0.491970
F88	F	1.246780	-0.259599	-1.090422
H89	H	1.234033	-0.271555	-0.682687
