data_functionalizedCrystal
_audit_creation_method	'MofGen! by Chris Wilmer'
_symmetry_space_group_name_H-M	'P1'
_symmetry_Int_Tables_number	1
_symmetry_cell_setting	triclinic
loop_
_symmetry_equiv_pos_as_xyz
  x,y,z
_cell_length_a	13.262390
_cell_length_b	10.540510
_cell_length_c	12.376457
_cell_angle_alpha	101.392640
_cell_angle_beta	63.168449
_cell_angle_gamma	84.472352
loop_
_atom_site_label
_atom_site_type_symbol
_atom_site_fract_x
_atom_site_fract_y
_atom_site_fract_z
O1	O	1.512615	0.026915	-0.559072
O2	O	1.185841	0.071396	-0.458602
O3	O	1.356700	-0.136185	-0.511134
O4	O	1.341755	0.234496	-0.506540
O5	O	1.314000	-0.084357	-0.309994
O6	O	1.143141	0.123224	-0.257462
O7	O	1.469915	0.078743	-0.357931
Zn8	Zn	1.299748	0.109212	-0.275761
Zn9	Zn	1.356007	0.040927	-0.540772
O10	O	1.299055	0.286324	-0.305399
C11	C	1.122648	0.099584	-0.345167
C12	C	0.997970	0.106342	-0.306834
C13	C	0.739638	0.012365	-0.637365
C14	C	0.856780	0.006008	-0.673383
C15	C	0.892084	0.031091	-0.581749
C16	C	0.810232	0.062531	-0.454091
C17	C	0.693079	0.068878	-0.418070
C18	C	0.845525	0.087605	-0.362453
C19	C	0.763674	0.119045	-0.234795
C20	C	0.646533	0.125392	-0.198780
C21	C	0.611230	0.100308	-0.290414
C22	C	0.962678	0.081258	-0.398475
C23	C	0.916120	0.137772	-0.179179
C24	C	0.798977	0.144128	-0.143161
C25	C	1.334237	-0.157481	-0.410224
C26	C	1.330906	-0.298151	-0.409207
C27	C	1.449504	-0.525522	-0.445240
C28	C	1.453156	-0.379346	-0.446792
C29	C	1.292710	-0.367215	-0.504825
C30	C	1.290040	-0.513772	-0.504088
C31	C	1.238937	-0.454427	-0.274571
C32	C	1.244414	-0.308187	-0.274842
C33	C	1.533108	0.050555	-0.471369
C34	C	1.657788	0.043795	-0.509710
C35	C	1.321519	0.307620	-0.406312
C36	C	1.324851	0.448288	-0.407337
N37	N	1.261361	0.155814	-0.094900
N38	N	1.394403	-0.005685	-0.721636
C39	C	1.483512	-0.113888	0.191783
C40	C	1.510373	-0.146504	0.065185
C41	C	1.448122	-0.070927	0.025157
C42	C	1.359006	0.037271	0.111740
C43	C	1.332148	0.069897	0.238349
C44	C	1.296758	0.112857	0.071723
C45	C	1.207642	0.221056	0.158307
C46	C	1.180788	0.253676	0.284903
C47	C	1.243040	0.178099	0.324931
C48	C	1.323616	0.080231	-0.054886
C49	C	1.172252	0.264016	-0.008319
C50	C	1.145391	0.296632	0.118279
H51	H	0.515844	0.105487	-0.261095
Cl52	Cl	1.065562	0.041737	-0.558953
H53	H	1.271911	-0.261530	-0.203871
H54	H	1.469996	-0.097489	-0.077926
Cl55	Cl	0.543638	0.164910	-0.038296
H56	H	0.732318	0.169726	-0.039220
Cl57	Cl	1.068770	0.389709	0.393748
H58	H	1.121564	0.325560	-0.040908
H59	H	0.987467	0.025915	-0.611083
H60	H	0.944862	0.158195	-0.104563
H61	H	1.221167	0.204651	0.428018
Cl62	Cl	1.561771	-0.208877	0.242104
H63	H	1.396175	-0.007864	-0.125372
H64	H	0.710882	-0.008067	-0.711960
Cl65	Cl	0.959670	-0.033519	-0.833860
H66	H	1.484642	-0.332926	-0.379513
H67	H	1.582931	-0.234597	-0.005307
H68	H	1.072831	0.384731	0.188791
H69	H	1.479645	-0.550279	-0.377512
Cl70	Cl	1.549463	-0.631451	-0.594174
Cl71	Cl	1.556221	-0.374720	-0.597511
H72	H	1.351035	-0.579726	-0.603096
H73	H	1.203618	-0.313318	-0.481425
Cl74	Cl	1.150587	-0.539424	-0.468744
Cl75	Cl	1.387826	-0.359264	-0.657430
Cl76	Cl	1.096974	-0.476338	-0.229803
Cl77	Cl	1.269979	-0.490451	-0.158477
H78	H	1.153690	-0.249787	-0.240465
