data_functionalizedCrystal
_audit_creation_method	'MofGen! by Chris Wilmer'
_symmetry_space_group_name_H-M	'P1'
_symmetry_Int_Tables_number	1
_symmetry_cell_setting	triclinic
loop_
_symmetry_equiv_pos_as_xyz
  x,y,z
_cell_length_a	21.295418
_cell_length_b	29.839131
_cell_length_c	21.295411
_cell_angle_alpha	89.979636
_cell_angle_beta	89.956262
_cell_angle_gamma	90.057233
loop_
_atom_site_label
_atom_site_type_symbol
_atom_site_fract_x
_atom_site_fract_y
_atom_site_fract_z
Zn1	Zn	0.962308	-0.178715	-0.356239
Zn2	Zn	0.962190	-0.253830	-0.250967
Zn3	Zn	0.857031	-0.178736	-0.250949
Zn4	Zn	0.856981	-0.253839	-0.356163
O5	O	0.909628	-0.216280	-0.303580
O6	O	1.050382	-0.188667	-0.342314
O7	O	0.948213	-0.243874	-0.162875
O8	O	0.871067	-0.115866	-0.264940
O9	O	1.050295	-0.243854	-0.264971
O10	O	0.948413	-0.115851	-0.342296
O11	O	0.870953	-0.188703	-0.162862
O12	O	0.768935	-0.188711	-0.264867
O13	O	0.870981	-0.243869	-0.444263
O14	O	0.768898	-0.243889	-0.342167
O15	O	0.948364	-0.188675	-0.444319
O16	O	0.948164	-0.316699	-0.264897
O17	O	0.870866	-0.316705	-0.342185
C18	C	0.746076	-0.216304	-0.303507
C19	C	0.676108	-0.216325	-0.303491
C20	C	0.643238	-0.245094	-0.343681
C21	C	0.577496	-0.245083	-0.343710
C22	C	0.544625	-0.216307	-0.303536
C23	C	0.577503	-0.187532	-0.263343
C24	C	0.643244	-0.187541	-0.263321
N25	N	0.441350	-0.212791	-0.248479
N26	N	0.378899	-0.212785	-0.248502
C27	C	0.346551	-0.216279	-0.303603
N28	N	0.379013	-0.219787	-0.358681
N29	N	0.441470	-0.219795	-0.358657
C30	C	0.473340	-0.216294	-0.303557
C31	C	0.242396	-0.245037	-0.343827
C32	C	0.176652	-0.245023	-0.343857
C33	C	0.176660	-0.187475	-0.263485
C34	C	0.242403	-0.187487	-0.263461
C35	C	0.275266	-0.216271	-0.303632
C36	C	0.909514	-0.333003	-0.303548
C37	C	0.909523	-0.382937	-0.303556
C38	C	0.949949	-0.692564	-0.263395
C39	C	0.950027	-0.880238	-0.263419
O40	O	0.984309	-0.904489	-0.229249
N41	N	0.909758	-0.903722	-0.303627
C42	C	0.869470	-0.880286	-0.343835
O43	O	0.835225	-0.904567	-0.378039
C44	C	0.869396	-0.692614	-0.343813
C45	C	0.909663	-0.669131	-0.303598
C46	C	0.990214	-0.669082	-0.223184
C47	C	0.990192	-0.622167	-0.223176
C48	C	0.949905	-0.598734	-0.263379
C49	C	0.909641	-0.622216	-0.303590
C50	C	0.829111	-0.669178	-0.384023
C51	C	0.829097	-0.622257	-0.384015
C52	C	0.869364	-0.598775	-0.343800
C53	C	0.869332	-0.551867	-0.343785
N54	N	0.909601	-0.528383	-0.303577
C55	C	0.949887	-0.551816	-0.263374
C56	C	0.869511	-0.978816	-0.343842
C57	C	0.869528	-1.025734	-0.343847
C58	C	0.950087	-1.025683	-0.263432
C59	C	0.950065	-0.978764	-0.263425
C60	C	0.909780	-0.955332	-0.303634
C61	C	0.949837	-0.453290	-0.263359
C62	C	0.949810	-0.406370	-0.263353
C63	C	0.869254	-0.406426	-0.343770
C64	C	0.869279	-0.453341	-0.343774
C65	C	0.909576	-0.476772	-0.303567
O66	O	0.835073	-0.527587	-0.377942
O67	O	0.984137	-0.527526	-0.229185
C68	C	0.949972	-0.739480	-0.263403
C69	C	0.909707	-0.762962	-0.303614
C70	C	0.869421	-0.739529	-0.343817
C71	C	0.909725	-0.809880	-0.303619
C72	C	0.950012	-0.833313	-0.263416
C73	C	0.990281	-0.809829	-0.223208
C74	C	0.990258	-0.762913	-0.223200
C75	C	0.829152	-0.763014	-0.384025
C76	C	0.829177	-0.809929	-0.384029
C77	C	0.869463	-0.833362	-0.343826
C78	C	1.073818	-0.216257	-0.303653
C79	C	1.143786	-0.216247	-0.303684
C80	C	0.909680	-0.216271	-0.467770
C81	C	0.909702	-0.216267	-0.537738
C82	C	0.909759	-0.099102	-0.303625
C83	C	0.909815	-0.049167	-0.303644
C84	C	0.949994	-0.187526	-0.570635
C85	C	0.949993	-0.187507	-0.636377
C86	C	0.909707	-0.216236	-0.669221
C87	C	0.869407	-0.244978	-0.636316
C88	C	0.869405	-0.244994	-0.570575
N89	N	0.904840	-0.255537	-0.772436
N90	N	0.904846	-0.255521	-0.834887
C91	C	0.909711	-0.216190	-0.867295
N92	N	0.914582	-0.176875	-0.834893
N93	N	0.914580	-0.176891	-0.772436
C94	C	0.909705	-0.216222	-0.740506
C95	C	0.950004	-0.187426	-0.971478
C96	C	0.949999	-0.187406	-1.037221
C97	C	0.869416	-0.244882	-1.037159
C98	C	0.869418	-0.244898	-0.971417
C99	C	0.909716	-0.216171	-0.938580
C100	C	0.909612	-0.216257	-0.140028
C101	C	0.909712	-0.216135	-0.070060
H102	H	0.669992	-0.268531	-0.376392
H103	H	0.982807	-0.164134	-0.543903
H104	H	0.550728	-0.268510	-0.376440
C105	C	0.140514	-0.155820	-0.219292
C106	C	0.095408	-0.120570	-0.246672
C107	C	0.059260	-0.088913	-0.202479
C108	C	0.068217	-0.092505	-0.130905
C109	C	0.113324	-0.127756	-0.103521
C110	C	0.149473	-0.159414	-0.147715
H111	H	0.088776	-0.117910	-0.299658
H112	H	0.025868	-0.062817	-0.222750
H113	H	0.041458	-0.069070	-0.098191
H114	H	0.119957	-0.130417	-0.050535
H115	H	0.182864	-0.185509	-0.127443
H116	H	0.982802	-0.164100	-0.663167
H117	H	0.550736	-0.164102	-0.230635
H118	H	0.670006	-0.164112	-0.230593
C119	C	0.824939	-0.380645	-0.387992
C120	C	0.830046	-0.387066	-0.459561
C121	C	0.785734	-0.361284	-0.503787
C122	C	0.736314	-0.329082	-0.476444
C123	C	0.731205	-0.322660	-0.404872
C124	C	0.775517	-0.348442	-0.360645
H125	H	0.866631	-0.410905	-0.479805
H126	H	0.789516	-0.366038	-0.556770
H127	H	0.703512	-0.309997	-0.509183
H128	H	0.694620	-0.298821	-0.384627
H129	H	0.771735	-0.343687	-0.307662
H130	H	0.982808	-0.163999	-1.064005
C131	C	0.784778	-0.596483	-0.428246
C132	C	0.812015	-0.564187	-0.477699
C133	C	0.767695	-0.538414	-0.521928
C134	C	0.696139	-0.544937	-0.516703
C135	C	0.668900	-0.577234	-0.467248
C136	C	0.713219	-0.603007	-0.423019
H137	H	0.864988	-0.559357	-0.481568
H138	H	0.787860	-0.514505	-0.558538
H139	H	0.663332	-0.525858	-0.549444
H140	H	0.615926	-0.582064	-0.463379
H141	H	0.693054	-0.626915	-0.386409
C142	C	0.994325	-0.155824	-0.935354
C143	C	1.043728	-0.175295	-0.890199
C144	C	1.088049	-0.143692	-0.854078
C145	C	1.082968	-0.092619	-0.863111
C146	C	1.033563	-0.073146	-0.908268
C147	C	0.989242	-0.104748	-0.944389
H148	H	1.047491	-0.213105	-0.883510
H149	H	1.124622	-0.158108	-0.820650
H150	H	1.115777	-0.069225	-0.836372
H151	H	1.029800	-0.035336	-0.914957
H152	H	0.952669	-0.090332	-0.977817
C153	C	0.278551	-0.276692	-0.388020
C154	C	0.350864	-0.276706	-0.387995
C155	C	0.387017	-0.308360	-0.432190
C156	C	0.350858	-0.340001	-0.476409
C157	C	0.278541	-0.339989	-0.476436
C158	C	0.242387	-0.308335	-0.432242
H159	H	0.377635	-0.253282	-0.355260
H160	H	0.440551	-0.308368	-0.432169
H161	H	0.377620	-0.363433	-0.509124
H162	H	0.251770	-0.363412	-0.509172
H163	H	0.188854	-0.308326	-0.432262
C164	C	0.825093	-0.276582	-0.672441
C165	C	0.825096	-0.276568	-0.744753
C166	C	0.780777	-0.308171	-0.780877
C167	C	0.736455	-0.339787	-0.744688
C168	C	0.736450	-0.339802	-0.672371
C169	C	0.780769	-0.308199	-0.636247
H170	H	0.857908	-0.253163	-0.771546
H171	H	0.780781	-0.308160	-0.834411
H172	H	0.703648	-0.363181	-0.771429
H173	H	0.703638	-0.363207	-0.645578
H174	H	0.780765	-0.308210	-0.582713
H175	H	0.836492	-0.472462	-0.376522
H176	H	0.149891	-0.268450	-0.376588
C177	C	0.825228	-1.051561	-0.388079
C178	C	0.753667	-1.045172	-0.382853
C179	C	0.709368	-1.070997	-0.427090
C180	C	0.736630	-1.103210	-0.476553
C181	C	0.808195	-1.109601	-0.481781
C182	C	0.852494	-1.083776	-0.437544
H183	H	0.733483	-1.021324	-0.346236
H184	H	0.656391	-1.066266	-0.423220
H185	H	0.703837	-1.122327	-0.509300
H186	H	0.828379	-1.133448	-0.518398
H187	H	0.905471	-1.088507	-0.441414
C188	C	1.034557	-0.737087	-0.178966
C189	C	1.029461	-0.743573	-0.107400
C190	C	1.073763	-0.717751	-0.063164
C191	C	1.123163	-0.685443	-0.090493
C192	C	1.128262	-0.678956	-0.162063
C193	C	1.083959	-0.704778	-0.206299
H194	H	0.992890	-0.767490	-0.087165
H195	H	1.069989	-0.722553	-0.010183
H196	H	1.155959	-0.666329	-0.057747
H197	H	1.164832	-0.655039	-0.182298
H198	H	1.087734	-0.699976	-0.259280
C199	C	1.034598	-0.835611	-0.178985
C200	C	1.007358	-0.867912	-0.129540
C201	C	1.051676	-0.893697	-0.085323
C202	C	1.123232	-0.887181	-0.090551
C203	C	1.150476	-0.854879	-0.139998
C204	C	1.106158	-0.829094	-0.184215
H205	H	0.954384	-0.872736	-0.125668
H206	H	1.031508	-0.917609	-0.048719
H207	H	1.156039	-0.906269	-0.057819
H208	H	1.203449	-0.850055	-0.143870
H209	H	1.126326	-0.805182	-0.220820
H210	H	0.269165	-0.164062	-0.230731
H211	H	0.982600	-0.387253	-0.230603
C212	C	0.825097	-0.276511	-0.935220
C213	C	0.852325	-0.311786	-0.890035
C214	C	0.807998	-0.343396	-0.853836
C215	C	0.736441	-0.339732	-0.862823
C216	C	0.709209	-0.304455	-0.908010
C217	C	0.753536	-0.272845	-0.944209
H218	H	0.905299	-0.314500	-0.883381
H219	H	0.828157	-0.369510	-0.820386
H220	H	0.703627	-0.363132	-0.836027
H221	H	0.656235	-0.301741	-0.914664
H222	H	0.733377	-0.246731	-0.977660
C223	C	0.825189	-0.953046	-0.388075
C224	C	0.753634	-0.959570	-0.382844
C225	C	0.709311	-0.933802	-0.427076
C226	C	0.736543	-0.901511	-0.476538
C227	C	0.808101	-0.894986	-0.481770
C228	C	0.852425	-0.920753	-0.437539
H229	H	0.733472	-0.983475	-0.346228
H230	H	0.656338	-0.938633	-0.423202
H231	H	0.703732	-0.882437	-0.509280
H232	H	0.828263	-0.871081	-0.518387
H233	H	0.905397	-0.915923	-0.441412
H234	H	0.796346	-0.743938	-0.416764
C235	C	0.784818	-0.694998	-0.428266
C236	C	0.713257	-0.688607	-0.423048
C237	C	0.668961	-0.714425	-0.467296
C238	C	0.696227	-0.746634	-0.516761
C239	C	0.767792	-0.753027	-0.521982
C240	C	0.812087	-0.727209	-0.477734
H241	H	0.693070	-0.664762	-0.386428
H242	H	0.615984	-0.709693	-0.463431
H243	H	0.663437	-0.765747	-0.549516
H244	H	0.787979	-0.776872	-0.558601
H245	H	0.865064	-0.731941	-0.481598
C246	C	0.825099	-0.276484	-1.073278
C247	C	0.825098	-0.276468	-1.145591
C248	C	0.780778	-0.308070	-1.181714
C249	C	0.736458	-0.339688	-1.145524
C250	C	0.736457	-0.339705	-1.073207
C251	C	0.780778	-0.308103	-1.037084
H252	H	0.857908	-0.253062	-1.172385
H253	H	0.780778	-0.308058	-1.235248
H254	H	0.703649	-0.363081	-1.172264
H255	H	0.703648	-0.363111	-1.046413
H256	H	0.780777	-0.308115	-0.983550
C257	C	0.994159	-0.479060	-0.219128
C258	C	0.989046	-0.472631	-0.147561
C259	C	1.033363	-0.498401	-0.103326
C260	C	1.082794	-0.530599	-0.130659
C261	C	1.087909	-0.537029	-0.202230
C262	C	1.043592	-0.511259	-0.246464
H263	H	0.952453	-0.448795	-0.127324
H264	H	1.029577	-0.493641	-0.050344
H265	H	1.115600	-0.549675	-0.097914
H266	H	1.124502	-0.560865	-0.222466
H267	H	1.047379	-0.516019	-0.299446
H268	H	0.836591	-0.268397	-0.543791
H269	H	1.022982	-0.603050	-0.190431
H270	H	1.023023	-0.688157	-0.190445
H271	H	0.982855	-0.959647	-0.230679
H272	H	0.982890	-1.044770	-0.230698
H273	H	0.796381	-0.829044	-0.416777
