data_functionalizedCrystal
_audit_creation_method	'MofGen! by Chris Wilmer'
_symmetry_space_group_name_H-M	'P1'
_symmetry_Int_Tables_number	1
_symmetry_cell_setting	triclinic
loop_
_symmetry_equiv_pos_as_xyz
  x,y,z
_cell_length_a	10.967926
_cell_length_b	10.967829
_cell_length_c	13.448316
_cell_angle_alpha	77.865540
_cell_angle_beta	102.122502
_cell_angle_gamma	87.248880
loop_
_atom_site_label
_atom_site_type_symbol
_atom_site_fract_x
_atom_site_fract_y
_atom_site_fract_z
O1	O	1.657148	0.175008	0.171296
O2	O	1.990481	0.508342	0.504629
O3	O	2.323815	0.841675	0.837963
O4	O	1.294007	0.191768	0.106193
O5	O	1.627340	0.525101	0.439527
O6	O	1.960673	0.858434	0.772860
O7	O	1.483950	0.001808	0.171299
O8	O	1.817283	0.335141	0.504632
O9	O	2.150616	0.668475	0.837965
O10	O	1.467205	0.364968	0.106191
O11	O	1.800538	0.698302	0.439524
O12	O	2.133872	1.031635	0.772858
O13	O	1.483926	0.001796	0.336680
O14	O	1.817259	0.335129	0.670014
O15	O	2.150592	0.668463	1.003347
O16	O	1.293983	0.191756	0.271575
O17	O	1.627316	0.525089	0.604908
O18	O	1.960649	0.858422	0.938242
O19	O	1.657124	0.174996	0.336678
O20	O	1.990457	0.508330	0.670011
O21	O	2.323791	0.841663	1.003345
Cu22	Cu	1.475551	0.183375	0.319227
Cu23	Cu	1.808884	0.516708	0.652560
Cu24	Cu	2.142218	0.850042	0.985894
Cu25	Cu	1.475580	0.183389	0.123644
Cu26	Cu	1.808913	0.516722	0.456977
Cu27	Cu	2.142246	0.850056	0.790311
O28	O	1.467181	0.364956	0.271573
O29	O	1.800514	0.698290	0.604906
O30	O	2.133848	1.031623	0.938239
C31	C	1.247496	0.190543	0.181125
C32	C	1.580830	0.523877	0.514458
C33	C	1.914163	0.857210	0.847791
C34	C	1.108946	0.186898	0.158006
C35	C	1.442279	0.520231	0.491340
C36	C	1.775613	0.853564	0.824673
C37	C	1.047163	0.185266	0.233372
C38	C	1.380497	0.518599	0.566705
C39	C	1.713830	0.851933	0.900039
C40	C	0.903964	0.181498	0.209480
C41	C	1.237298	0.514831	0.542813
C42	C	1.570631	0.848165	0.876146
C43	C	1.482717	-0.044699	0.261748
C44	C	1.816051	0.288635	0.595081
C45	C	2.149384	0.621968	0.928414
C46	C	1.479067	-0.183256	0.284862
C47	C	1.812400	0.150078	0.618195
C48	C	2.145733	0.483411	0.951528
C49	C	1.477452	-0.245017	0.209493
C50	C	1.810785	0.088317	0.542826
C51	C	2.144119	0.421650	0.876160
C52	C	1.473679	-0.388223	0.233380
C53	C	1.807012	-0.054889	0.566714
C54	C	2.140345	0.278444	0.900047
C55	C	1.703634	0.176221	0.261744
C56	C	2.036968	0.509554	0.595078
C57	C	2.370301	0.842888	0.928411
C58	C	1.842185	0.179867	0.284856
C59	C	2.175518	0.513200	0.618190
C60	C	2.508851	0.846533	0.951523
C61	C	1.468413	0.411463	0.181121
C62	C	1.801746	0.744796	0.514455
C63	C	2.135080	1.078129	0.847788
C64	C	1.472064	0.550020	0.158001
C65	C	1.805397	0.883353	0.491334
C66	C	2.138731	1.216687	0.824668
N67	N	1.475540	0.183364	0.456791
N68	N	1.808873	0.516698	0.790125
N69	N	2.142207	0.850031	1.123458
N70	N	1.475600	0.183390	-0.013917
N71	N	1.808934	0.516723	0.319417
N72	N	2.142267	0.850057	0.652750
C73	C	1.559673	0.099285	0.537659
C74	C	1.893007	0.432619	0.870992
C75	C	2.226340	0.765952	1.204326
C76	C	1.559681	0.099284	0.641764
C77	C	1.893015	0.432618	0.975097
C78	C	2.226348	0.765951	1.308430
C79	C	1.475561	0.183369	0.664999
C80	C	1.808894	0.516703	0.998332
C81	C	2.142227	0.850036	1.331665
C82	C	1.391418	0.267452	0.584122
C83	C	1.724752	0.600786	0.917455
C84	C	2.058085	0.934119	1.250788
C85	C	1.391405	0.267446	0.480019
C86	C	1.724739	0.600780	0.813352
C87	C	2.058072	0.934113	1.146686
C88	C	1.391453	0.267461	0.801106
C89	C	1.724786	0.600794	1.134439
C90	C	2.058120	0.934128	1.467773
C91	C	1.391467	0.267469	0.905216
C92	C	1.724800	0.600802	1.238549
C93	C	2.058134	0.934136	1.571882
C94	C	1.559729	0.099299	0.962851
C95	C	1.893062	0.432632	1.296184
C96	C	2.226395	0.765966	1.629517
C97	C	1.559716	0.099293	0.858748
C98	C	1.893049	0.432626	1.192082
C99	C	2.226383	0.765960	1.525415
C100	C	1.475575	0.183378	0.777878
C101	C	1.808908	0.516711	1.111212
C102	C	2.142241	0.850045	1.444545
H103	H	1.478857	-0.191872	0.127281
H104	H	1.812190	0.141461	0.460615
H105	H	2.145524	0.474795	0.793948
F106	F	1.649224	0.009797	0.727830
F107	F	1.982557	0.343130	1.061164
F108	F	2.315890	0.676463	1.394497
F109	F	0.911604	0.181672	0.392324
F110	F	1.244937	0.515006	0.725657
F111	F	1.578271	0.848339	1.058991
H112	H	1.472260	-0.441361	0.315595
H113	H	1.805593	-0.108027	0.648928
H114	H	2.138927	0.225306	0.982262
H115	H	1.473460	-0.396841	0.075782
H116	H	1.806793	-0.063508	0.409115
H117	H	2.140126	0.269826	0.742448
F118	F	1.477214	-0.252711	0.392317
F119	F	1.810547	0.080622	0.725651
F120	F	2.143881	0.413956	1.058984
H121	H	1.055827	0.185502	0.075796
H122	H	1.389160	0.518835	0.409129
H123	H	1.722493	0.852168	0.742462
F124	F	1.649252	0.009809	0.834020
F125	F	1.982586	0.343142	1.167353
F126	F	2.315919	0.676475	1.500687
H127	H	1.322919	0.335912	0.603045
H128	H	1.656253	0.669245	0.936378
H129	H	1.989586	1.002579	1.269711
F130	F	1.649214	0.009794	0.512943
F131	F	1.982547	0.343128	0.846276
F132	F	2.315881	0.676461	1.179609
H133	H	1.628239	0.030834	1.028702
H134	H	1.961572	0.364168	1.362035
H135	H	2.294905	0.697501	1.695369
H136	H	1.322966	0.335939	0.924125
H137	H	1.656299	0.669272	1.257459
H138	H	1.989633	1.002605	1.590792
F139	F	0.834545	0.179669	0.102017
F140	F	1.167879	0.513002	0.435351
F141	F	1.501212	0.846336	0.768684
H142	H	1.322894	0.335911	0.414175
H143	H	1.656227	0.669244	0.747508
H144	H	1.989561	1.002577	1.080841
F145	F	1.116589	0.187082	0.340831
F146	F	1.449922	0.520416	0.674165
F147	F	1.783255	0.853749	1.007498
F148	F	1.301895	0.356952	0.715041
F149	F	1.635228	0.690285	1.048374
F150	F	1.968562	1.023618	1.381708
