data_functionalizedCrystal
_audit_creation_method	'MofGen! by Chris Wilmer'
_symmetry_space_group_name_H-M	'P1'
_symmetry_Int_Tables_number	1
_symmetry_cell_setting	triclinic
loop_
_symmetry_equiv_pos_as_xyz
  x,y,z
_cell_length_a	15.625110
_cell_length_b	14.048226
_cell_length_c	14.971486
_cell_angle_alpha	89.998099
_cell_angle_beta	96.059020
_cell_angle_gamma	108.078729
loop_
_atom_site_label
_atom_site_type_symbol
_atom_site_fract_x
_atom_site_fract_y
_atom_site_fract_z
O1	O	-1.196329	-0.333880	0.116802
O2	O	-0.696329	0.166120	0.616802
O3	O	-0.933871	-0.243266	0.130708
O4	O	-0.433871	0.256734	0.630708
O5	O	-1.072135	-0.290994	-0.006444
O6	O	-0.572135	0.209006	0.493556
O7	O	-1.058065	-0.286151	0.253953
O8	O	-0.558065	0.213849	0.753953
O9	O	-1.072121	-0.449311	-0.006445
O10	O	-0.572121	0.050689	0.493555
O11	O	-0.933857	-0.401583	0.130707
O12	O	-0.433857	0.098417	0.630707
O13	O	-1.196316	-0.492196	0.116801
O14	O	-0.696316	0.007804	0.616801
Zn15	Zn	-1.065085	-0.472026	0.123753
Zn16	Zn	-0.565085	0.027974	0.623753
Zn17	Zn	-1.065102	-0.263437	0.123755
Zn18	Zn	-0.565102	0.236563	0.623755
O19	O	-1.058052	-0.444468	0.253952
O20	O	-0.558052	0.055532	0.753952
C21	C	-0.900276	-0.310828	0.130076
C22	C	-0.400276	0.189172	0.630076
C23	C	-0.800194	-0.276274	0.128185
C24	C	-0.300194	0.223726	0.628185
C25	C	-1.229911	-0.424632	0.117432
C26	C	-0.729911	0.075368	0.617432
C27	C	-1.329993	-0.459180	0.119323
C28	C	-0.829993	0.040820	0.619323
N29	N	-1.065079	-0.614385	0.123752
N30	N	-0.565079	-0.114385	0.623752
C31	C	-0.659138	-0.141280	0.125522
C32	C	-0.159138	0.358720	0.625522
C33	C	-0.753181	-0.173759	0.127298
C34	C	-0.253181	0.326241	0.627298
C35	C	-0.753174	-0.346352	0.127301
C36	C	-0.253174	0.153648	0.627301
C37	C	-0.659129	-0.313888	0.125529
C38	C	-0.159129	0.186112	0.625529
C39	C	-0.612119	-0.211351	0.124639
C40	C	-0.112119	0.288649	0.624639
C41	C	-0.612110	-0.383958	0.124646
C42	C	-0.112110	0.116042	0.624646
C43	C	-0.518074	-0.351496	0.122869
C44	C	-0.018074	0.148504	0.622869
C45	C	-0.471057	-0.248964	0.121976
C46	C	0.028943	0.251036	0.621976
C47	C	-0.518083	-0.178889	0.122862
C48	C	-0.018083	0.321111	0.622862
C49	C	-0.659123	-0.486495	0.125530
C50	C	-0.159123	0.013505	0.625530
C51	C	-0.612104	-0.556566	0.124646
C52	C	-0.112104	-0.056566	0.624646
C53	C	-0.518065	-0.524104	0.122876
C54	C	-0.018065	-0.024104	0.622876
C55	C	-0.471049	-0.421571	0.121983
C56	C	0.028951	0.078429	0.621983
C57	C	-0.471040	-0.594179	0.121990
C58	C	0.028960	-0.094179	0.621990
C59	C	-0.377004	-0.561717	0.120213
C60	C	0.122996	-0.061717	0.620213
C61	C	-0.377012	-0.389109	0.120206
C62	C	0.122988	0.110891	0.620206
C63	C	-1.119811	-0.683098	0.178104
C64	C	-0.619811	-0.183098	0.678104
C65	C	-1.119823	-0.782759	0.178100
C66	C	-0.619823	-0.282759	0.678100
C67	C	-1.065097	-0.813704	0.123748
C68	C	-0.565097	-0.313704	0.623748
C69	C	-1.010363	-0.744983	0.069390
C70	C	-0.510363	-0.244983	0.569390
C71	C	-1.010357	-0.645326	0.069390
C72	C	-0.510357	-0.145326	0.569390
C73	C	-1.010378	-0.952703	0.069396
C74	C	-0.510378	-0.452703	0.569396
C75	C	-1.010383	-1.052367	0.069397
C76	C	-0.510383	-0.552367	0.569397
C77	C	-1.119844	-1.090137	0.178106
C78	C	-0.619844	-0.590137	0.678106
C79	C	-1.119838	-0.990479	0.178106
C80	C	-0.619838	-0.490479	0.678106
C81	C	-1.065102	-0.921764	0.123749
C82	C	-0.565102	-0.421764	0.623749
C83	C	-1.071499	-0.369932	-0.039769
C84	C	-0.571499	0.130068	0.460231
C85	C	-1.069613	-0.369269	-0.139067
C86	C	-0.569613	0.130731	0.360933
N87	N	-1.065115	-0.121080	0.123749
N88	N	-0.565115	0.378920	0.623749
C89	C	-1.058688	-0.365529	0.287278
C90	C	-0.558688	0.134471	0.787278
C91	C	-1.060573	-0.366185	0.386575
C92	C	-0.560573	0.133815	0.886575
C93	C	-0.979347	-0.338141	0.443784
C94	C	-0.479347	0.161859	0.943784
C95	C	-0.981124	-0.338741	0.537084
C96	C	-0.481124	0.161259	1.037084
C97	C	-1.064129	-0.367393	0.573173
C98	C	-0.564129	0.132607	1.073173
C99	C	-1.145361	-0.395437	0.515957
C100	C	-0.645361	0.104563	1.015957
C101	C	-1.143583	-0.394829	0.422659
C102	C	-0.643583	0.105171	0.922659
C103	C	-1.149061	-0.396704	0.710420
C104	C	-0.649061	0.103296	1.210420
C105	C	-1.150840	-0.397314	0.803724
C106	C	-0.650840	0.102686	1.303724
C107	C	-0.986602	-0.340616	0.824845
C108	C	-0.486602	0.159384	1.324845
C109	C	-0.984824	-0.340008	0.731547
C110	C	-0.484824	0.159992	1.231547
C111	C	-1.066057	-0.368054	0.674337
C112	C	-0.566057	0.131946	1.174337
H113	H	-0.338732	-0.305613	0.119492
H114	H	0.161268	0.194387	0.619492
H115	H	-1.164370	-0.657910	0.222369
H116	H	-0.664370	-0.157910	0.722369
Br117	Br	-1.258012	-0.434311	0.564933
Br118	Br	-0.758012	0.065689	1.064933
H119	H	-0.914981	-0.315902	0.583660
H120	H	-0.414981	0.184098	1.083660
Br121	Br	-0.313188	-0.656813	0.118996
Br122	Br	0.186812	-0.156813	0.618996
Br123	Br	-0.786747	-0.530552	0.127927
Br124	Br	-0.286747	-0.030552	0.627927
Br125	Br	-0.534852	-0.733332	0.123185
Br126	Br	-0.034852	-0.233332	0.623185
Br127	Br	-0.816991	-0.078651	0.128493
Br128	Br	-0.316991	0.421349	0.628493
Br129	Br	-1.263489	-0.436230	0.852702
Br130	Br	-0.763489	0.063770	1.352702
Br131	Br	-1.259307	-0.434757	0.632778
Br132	Br	-0.759307	0.065243	1.132778
Br133	Br	-1.194083	-0.948473	0.251896
Br134	Br	-0.694083	-0.448473	0.751896
Br135	Br	-1.253823	-0.432880	0.345016
Br136	Br	-0.753823	0.067120	0.845016
Br137	Br	-0.876357	-0.302565	0.902486
Br138	Br	-0.376357	0.197435	1.402486
H139	H	-0.394487	-0.222535	0.120531
H140	H	0.105513	0.277465	0.620531
H141	H	-0.911755	-0.314820	0.414408
H142	H	-0.411755	0.185180	0.914408
H143	H	-0.650393	-0.640052	0.125368
H144	H	-0.150393	-0.140052	0.625368
H145	H	-0.791464	-0.429838	0.128023
H146	H	-0.291464	0.070162	0.628023
H147	H	-0.479803	-0.095392	0.122148
H148	H	0.020197	0.404608	0.622148
H149	H	-0.917235	-0.316682	0.702167
H150	H	-0.417235	0.183318	1.202167
Br151	Br	-1.194105	-0.876011	0.251867
Br152	Br	-0.694105	-0.376011	0.751867
Br153	Br	-0.595327	-0.002120	0.124332
Br154	Br	-0.095327	0.497880	0.624332
H155	H	-1.164408	-1.146088	0.222370
H156	H	-0.664408	-0.646088	0.722370
Br157	Br	-0.936115	-1.094365	-0.004370
Br158	Br	-0.436115	-0.594365	0.495630
Br159	Br	-0.936111	-0.859454	-0.004393
Br160	Br	-0.436111	-0.359454	0.495607
Br161	Br	-0.936095	-0.786980	-0.004378
Br162	Br	-0.436095	-0.286980	0.495622
Br163	Br	-0.936088	-0.552074	-0.004390
Br164	Br	-0.436088	-0.052074	0.495610
