data_functionalizedCrystal
_audit_creation_method	'MofGen! by Chris Wilmer'
_symmetry_space_group_name_H-M	'P1'
_symmetry_Int_Tables_number	1
_symmetry_cell_setting	triclinic
loop_
_symmetry_equiv_pos_as_xyz
  x,y,z
_cell_length_a	12.594517
_cell_length_b	29.839131
_cell_length_c	12.594509
_cell_angle_alpha	90.042620
_cell_angle_beta	90.021327
_cell_angle_gamma	90.035028
loop_
_atom_site_label
_atom_site_type_symbol
_atom_site_fract_x
_atom_site_fract_y
_atom_site_fract_z
Zn1	Zn	1.627125	-0.178842	0.601754
Zn2	Zn	1.626956	-0.253977	0.423730
Zn3	Zn	1.449129	-0.178861	0.423782
Zn4	Zn	1.449052	-0.253946	0.601660
O5	O	1.538066	-0.216407	0.512732
O6	O	1.776048	-0.188814	0.578156
O7	O	1.603329	-0.244034	0.274791
O8	O	1.472844	-0.115992	0.447452
O9	O	1.775925	-0.244015	0.447363
O10	O	1.603617	-0.115978	0.578206
O11	O	1.472680	-0.188847	0.274830
O12	O	1.300173	-0.188816	0.447361
O13	O	1.472712	-0.243962	0.750619
O14	O	1.300116	-0.243981	0.578047
O15	O	1.603542	-0.188784	0.750687
O16	O	1.603254	-0.316840	0.447272
O17	O	1.472548	-0.316817	0.577997
C18	C	1.261525	-0.216398	0.512700
C19	C	1.143219	-0.216404	0.512712
C20	C	1.537903	-0.333129	0.512642
C21	C	1.537931	-0.383064	0.512639
C22	C	1.073966	-0.186360	0.441768
C23	C	1.003123	-0.227339	0.415563
C24	C	1.003264	-0.175445	0.538935
C25	C	1.073934	-0.257405	0.486457
C26	C	1.074081	-0.205484	0.609874
C27	C	1.003270	-0.246491	0.583706
C28	C	1.606144	-0.692665	0.580913
C29	C	1.606260	-0.880338	0.580977
O30	O	1.664098	-0.904567	0.638959
N31	N	1.538246	-0.903849	0.512850
C32	C	1.470194	-0.880438	0.444707
O33	O	1.412340	-0.904742	0.386770
C34	C	1.470074	-0.692766	0.444649
C35	C	1.538100	-0.669258	0.512773
C36	C	1.674163	-0.669156	0.649032
C37	C	1.674138	-0.622241	0.649011
C38	C	1.606093	-0.598834	0.580871
C39	C	1.538074	-0.622342	0.512752
C40	C	1.402017	-0.669357	0.376513
C41	C	1.401992	-0.622436	0.376506
C42	C	1.470017	-0.598927	0.444630
C43	C	1.470004	-0.552020	0.444592
N44	N	1.538017	-0.528509	0.512719
C45	C	1.606062	-0.551916	0.580858
C46	C	1.470264	-0.978969	0.444741
C47	C	1.470295	-1.025887	0.444754
C48	C	1.606359	-1.025783	0.581025
C49	C	1.606333	-0.978864	0.581006
C50	C	1.538277	-0.955458	0.512868
C51	C	1.606004	-0.453390	0.580809
C52	C	1.605976	-0.406471	0.580779
C53	C	1.469908	-0.406578	0.444512
C54	C	1.469940	-0.453494	0.444538
C55	C	1.537991	-0.476899	0.512695
O56	O	1.412188	-0.527762	0.386649
O57	O	1.663891	-0.527604	0.638803
C58	C	1.606170	-0.739580	0.580933
C59	C	1.538151	-0.763089	0.512814
C60	C	1.470106	-0.739682	0.444675
C61	C	1.538182	-0.810006	0.512827
C62	C	1.606226	-0.833413	0.580967
C63	C	1.674240	-0.809903	0.649094
C64	C	1.674214	-0.762987	0.649073
C65	C	1.402093	-0.763192	0.376548
C66	C	1.402124	-0.810108	0.376573
C67	C	1.470169	-0.833515	0.444713
C68	C	1.815686	-0.216416	0.512764
C69	C	1.933992	-0.216420	0.512777
C70	C	1.538137	-0.216367	0.790353
C71	C	1.538167	-0.216350	0.908658
C72	C	1.538257	-0.099228	0.512845
C73	C	1.538339	-0.049294	0.512893
C74	C	1.538056	-0.216413	0.236191
C75	C	1.538232	-0.216304	0.117886
C76	C	1.467031	-0.246345	0.977874
C77	C	1.564143	-0.257322	1.048658
C78	C	1.441131	-0.205346	1.048674
C79	C	1.635330	-0.227349	0.977884
C80	C	1.512252	-0.175355	0.977893
C81	C	1.609431	-0.186316	1.048645
H82	H	1.105007	-0.160977	0.381698
H83	H	1.359042	-0.196059	1.079769
H84	H	1.105273	-0.196225	0.691989
H85	H	0.972164	-0.140805	0.561050
O86	O	1.672090	-0.383704	0.647061
C87	C	1.807092	-0.388562	0.782182
C88	C	1.732261	-0.414398	0.707191
H89	H	1.855775	-0.413366	0.830800
H90	H	1.758234	-0.366604	0.837855
H91	H	1.862720	-0.366583	0.733344
H92	H	1.676618	-0.436401	0.755942
H93	H	1.781185	-0.436327	0.651515
H94	H	1.669686	-0.160931	1.079522
O95	O	1.486154	-0.133997	0.940899
C96	C	1.530568	-0.055460	0.936408
C97	C	1.560247	-0.102270	0.978400
H98	H	1.590468	-0.029798	0.966693
H99	H	1.447771	-0.046111	0.965470
H100	H	1.531528	-0.055826	0.845900
H101	H	1.559348	-0.101940	1.068906
H102	H	1.643026	-0.111601	0.949257
H103	H	1.729648	-0.828969	0.704572
O104	O	1.671957	-0.476143	0.647124
C105	C	1.686247	-0.529070	0.790828
C106	C	1.611431	-0.503322	0.715817
H107	H	1.637343	-0.551057	0.846370
H108	H	1.734836	-0.504224	0.839585
H109	H	1.741963	-0.551014	0.742000
H110	H	1.555650	-0.481377	0.764563
H111	H	1.562916	-0.528191	0.667057
O112	O	1.733215	-0.238492	0.940775
C113	C	1.843012	-0.250992	0.786944
C114	C	1.732107	-0.238375	0.828828
H115	H	1.842160	-0.250892	0.696432
H116	H	1.865293	-0.285822	0.816647
H117	H	1.903717	-0.225570	0.816760
H118	H	1.671329	-0.263767	0.799030
H119	H	1.709917	-0.203533	0.799134
O120	O	1.740247	-0.599477	0.715293
C121	C	1.875248	-0.604344	0.850412
C122	C	1.800414	-0.630175	0.775414
H123	H	1.923929	-0.629151	0.899024
H124	H	1.826392	-0.582388	0.906091
H125	H	1.930878	-0.582364	0.801581
H126	H	1.744769	-0.652179	0.824159
H127	H	1.849337	-0.652102	0.719732
O128	O	1.590160	-0.298684	1.085701
C129	C	1.544621	-0.377088	1.091616
C130	C	1.515031	-0.330269	1.049621
H131	H	1.483907	-0.402639	1.062444
H132	H	1.545107	-0.376613	1.182128
H133	H	1.626812	-0.386677	1.061305
H134	H	1.432834	-0.320651	1.079854
H135	H	1.514617	-0.330769	0.959111
H136	H	0.971956	-0.236586	0.333424
O137	O	1.110982	-0.298717	0.459884
C138	C	1.264745	-0.345064	0.430107
C139	C	1.222930	-0.298257	0.460192
H140	H	1.355259	-0.344710	0.430368
H141	H	1.234962	-0.354451	0.347540
H142	H	1.234960	-0.370696	0.490222
H143	H	1.252698	-0.272593	0.400150
H144	H	1.252704	-0.288908	0.542786
O145	O	1.740118	-0.691909	0.715339
C146	C	1.754436	-0.744835	0.859041
C147	C	1.679607	-0.719092	0.784035
H148	H	1.705543	-0.766825	0.914586
H149	H	1.803018	-0.719986	0.907796
H150	H	1.810159	-0.766775	0.810211
H151	H	1.623819	-0.697151	0.832783
H152	H	1.631099	-0.743965	0.735277
H153	H	1.661765	-1.044849	0.636506
O154	O	0.966639	-0.276877	0.655325
C155	C	1.011569	-0.332720	0.785916
C156	C	1.053198	-0.298331	0.704835
H157	H	1.081530	-0.350069	0.825984
H158	H	0.960587	-0.358735	0.743430
H159	H	0.961758	-0.314789	0.848418
H160	H	1.103053	-0.316224	0.642312
H161	H	1.104121	-0.272319	0.747396
O162	O	1.404123	-0.956305	0.378438
C163	C	1.269138	-0.961372	0.243313
C164	C	1.343998	-0.987091	0.318334
H165	H	1.220491	-0.986252	0.194715
H166	H	1.317970	-0.939422	0.187623
H167	H	1.213477	-0.939396	0.292125
H168	H	1.399674	-1.009091	0.269607
H169	H	1.295099	-1.009013	0.374026
H170	H	1.661724	-0.959726	0.636478
H171	H	1.414913	-1.045023	0.389269
H172	H	1.346624	-0.688489	0.321039
H173	H	1.346569	-0.603381	0.321021
O174	O	1.335885	-0.832920	0.310505
C175	C	1.154860	-0.847325	0.258654
C176	C	1.229760	-0.821473	0.333546
H177	H	1.069044	-0.838072	0.277241
H178	H	1.166459	-0.884885	0.270368
H179	H	1.173642	-0.838131	0.172848
H180	H	1.211025	-0.830629	0.419380
H181	H	1.218148	-0.783919	0.321740
O182	O	1.403767	-0.476263	0.378325
C183	C	1.268847	-0.471409	0.243122
C184	C	1.343726	-0.445571	0.318061
H185	H	1.220300	-0.446606	0.194363
H186	H	1.213102	-0.493360	0.291900
H187	H	1.317767	-0.493394	0.187569
H188	H	1.294892	-0.423562	0.373629
H189	H	1.399474	-0.423649	0.269217
O190	O	1.335880	-0.740439	0.310501
C191	C	1.192187	-0.687511	0.295990
C192	C	1.267089	-0.713256	0.370921
H193	H	1.136566	-0.665520	0.344808
H194	H	1.143510	-0.712359	0.247327
H195	H	1.241095	-0.665571	0.240346
H196	H	1.218263	-0.735196	0.426629
H197	H	1.315770	-0.688384	0.419509
H198	H	1.414510	-0.387513	0.389030
H199	H	1.729607	-0.743850	0.704546
O200	O	1.395188	-0.276621	0.940921
C201	C	1.211875	-0.299724	0.936471
C202	C	1.293121	-0.265411	0.978414
H203	H	1.129333	-0.290668	0.966748
H204	H	1.234109	-0.334649	0.965576
H205	H	1.212031	-0.299241	0.845962
H206	H	1.293007	-0.265854	1.068920
H207	H	1.270858	-0.230502	0.949227
