data_functionalizedCrystal
_audit_creation_method	'MofGen! by Chris Wilmer'
_symmetry_space_group_name_H-M	'P1'
_symmetry_Int_Tables_number	1
_symmetry_cell_setting	triclinic
loop_
_symmetry_equiv_pos_as_xyz
  x,y,z
_cell_length_a	21.395364
_cell_length_b	17.640280
_cell_length_c	21.395355
_cell_angle_alpha	78.784922
_cell_angle_beta	89.975273
_cell_angle_gamma	78.798629
loop_
_atom_site_label
_atom_site_type_symbol
_atom_site_fract_x
_atom_site_fract_y
_atom_site_fract_z
Zn1	Zn	1.008380	-0.314779	-0.303890
Zn2	Zn	1.508380	0.185221	0.196110
Zn3	Zn	1.029492	-0.446928	-0.177964
Zn4	Zn	1.529492	0.053072	0.322036
Zn5	Zn	0.903594	-0.314776	-0.199127
Zn6	Zn	1.403594	0.185224	0.300873
Zn7	Zn	0.924770	-0.446904	-0.282708
Zn8	Zn	1.424770	0.053096	0.217292
O9	O	0.966559	-0.380847	-0.240922
O10	O	1.466559	0.119153	0.259078
O11	O	1.098860	-0.332321	-0.287193
O12	O	1.598860	0.167679	0.212807
O13	O	1.012765	-0.429406	-0.093092
O14	O	1.512765	0.070594	0.406908
O15	O	0.899797	-0.204175	-0.230745
O16	O	1.399797	0.295825	0.269255
O17	O	1.114371	-0.429410	-0.194676
O18	O	1.614371	0.070590	0.305324
O19	O	0.976783	-0.204178	-0.307714
O20	O	1.476783	0.295822	0.192286
O21	O	0.920268	-0.332315	-0.108640
O22	O	1.420268	0.167685	0.391360
O23	O	0.818724	-0.332291	-0.210206
O24	O	1.318724	0.167709	0.289794
O25	O	0.935887	-0.429369	-0.373197
O26	O	1.435887	0.070631	0.126803
O27	O	0.834281	-0.429365	-0.271613
O28	O	1.334281	0.070635	0.228387
O29	O	0.997315	-0.332297	-0.388759
O30	O	1.497315	0.167703	0.111241
O31	O	1.033298	-0.557525	-0.174137
O32	O	1.533298	-0.057525	0.325863
O33	O	0.956359	-0.557508	-0.251092
O34	O	1.456359	-0.057508	0.248908
C35	C	0.803768	-0.380826	-0.240907
C36	C	1.303768	0.119174	0.259093
C37	C	0.734128	-0.380836	-0.240913
C38	C	1.234128	0.119164	0.259087
C39	C	0.240466	-0.431486	-0.272843
C40	C	0.740466	0.068514	0.227157
C41	C	0.305901	-0.431486	-0.272836
C42	C	0.805901	0.068514	0.227164
C43	C	0.330495	-0.380864	-0.240939
C44	C	0.830495	0.119136	0.259061
C45	C	0.289649	-0.330252	-0.209032
C46	C	0.789649	0.169748	0.290968
C47	C	0.224216	-0.330259	-0.209035
C48	C	0.724216	0.169741	0.290965
C49	C	0.422752	-0.309636	-0.247487
C50	C	0.922752	0.190364	0.252513
C51	C	0.488183	-0.309628	-0.247489
C52	C	0.988183	0.190372	0.252511
C53	C	0.532312	-0.380843	-0.240929
C54	C	1.032312	0.119157	0.259071
C55	C	0.511001	-0.452069	-0.234379
C56	C	1.011001	0.047931	0.265621
C57	C	0.445568	-0.452076	-0.234381
C58	C	0.945568	0.047924	0.265619
C59	C	0.401445	-0.380851	-0.240933
C60	C	0.901445	0.119149	0.259067
C61	C	0.644103	-0.431456	-0.272823
C62	C	1.144103	0.068544	0.227177
C63	C	0.709540	-0.431457	-0.272811
C64	C	1.209540	0.068543	0.227189
C65	C	0.693284	-0.330217	-0.209012
C66	C	1.193284	0.169783	0.290988
C67	C	0.627850	-0.330222	-0.209019
C68	C	1.127850	0.169778	0.290981
C69	C	0.603263	-0.380841	-0.240927
C70	C	1.103263	0.119159	0.259073
C71	C	0.999434	-0.586194	-0.208034
C72	C	1.499434	-0.086194	0.291966
C73	C	1.013555	-0.674043	-0.193985
C74	C	1.513555	-0.174043	0.306015
C75	C	0.859538	-0.963056	-0.347878
C76	C	1.359538	-0.463056	0.152122
C77	C	0.872808	-1.045604	-0.334657
C78	C	1.372808	-0.545604	0.165343
C79	C	0.952975	-1.045557	-0.254605
C80	C	1.452975	-0.545557	0.245395
C81	C	0.939713	-0.963008	-0.267821
C82	C	1.439713	-0.463008	0.232179
C83	C	0.892994	-0.921764	-0.314458
C84	C	1.392994	-0.421764	0.185542
C85	C	0.973169	-0.921716	-0.234401
C86	C	1.473169	-0.421716	0.265599
C87	C	0.959906	-0.839174	-0.247615
C88	C	1.459906	-0.339174	0.252385
C89	C	0.913187	-0.797925	-0.294248
C90	C	1.413187	-0.297925	0.205752
C91	C	0.879731	-0.839223	-0.327671
C92	C	1.379731	-0.339223	0.172329
C93	C	1.019885	-0.962961	-0.187762
C94	C	1.519885	-0.462961	0.312238
C95	C	1.053341	-0.921669	-0.154342
C96	C	1.553341	-0.421669	0.345658
C97	C	1.040081	-0.839126	-0.167558
C98	C	1.540081	-0.339126	0.332442
C99	C	0.993362	-0.797876	-0.214191
C100	C	1.493362	-0.297876	0.285809
C101	C	1.073538	-0.797828	-0.134135
C102	C	1.573538	-0.297828	0.365865
C103	C	1.060275	-0.715286	-0.147348
C104	C	1.560275	-0.215286	0.352652
C105	C	0.980099	-0.715335	-0.227405
C106	C	1.480099	-0.215335	0.272595
C107	C	1.129986	-0.380868	-0.240937
C108	C	1.629986	0.119132	0.259063
C109	C	1.199628	-0.380878	-0.240943
C110	C	1.699628	0.119122	0.259057
C111	C	0.966608	-0.380831	-0.404348
C112	C	1.466608	0.119169	0.095652
C113	C	0.966630	-0.380824	-0.473990
C114	C	1.466630	0.119176	0.026010
C115	C	0.933573	-0.174697	-0.273953
C116	C	1.433573	0.325303	0.226047
C117	C	0.919516	-0.086849	-0.288028
C118	C	1.419516	0.413151	0.211972
C119	C	0.998613	-0.330277	-0.514808
C120	C	1.498613	0.169723	-0.014808
C121	C	0.998607	-0.330243	-0.580249
C122	C	1.498607	0.169757	-0.080249
C123	C	0.966626	-0.380770	-0.604867
C124	C	1.466626	0.119230	-0.104867
C125	C	0.934635	-0.431321	-0.564041
C126	C	1.434635	0.068679	-0.064041
C127	C	0.934637	-0.431348	-0.498603
C128	C	1.434637	0.068652	0.001397
C129	C	0.973071	-0.451935	-0.697144
C130	C	1.473071	0.048065	-0.197144
C131	C	0.973074	-0.451909	-0.762581
C132	C	1.473074	0.048091	-0.262581
C133	C	0.966616	-0.380687	-0.806702
C134	C	1.466616	0.119313	-0.306702
C135	C	0.960168	-0.309487	-0.785377
C136	C	1.460168	0.190513	-0.285377
C137	C	0.960170	-0.309514	-0.719938
C138	C	1.460170	0.190486	-0.219938
C139	C	0.966620	-0.380746	-0.675824
C140	C	1.466620	0.119254	-0.175824
C141	C	0.998594	-0.330098	-0.918478
C142	C	1.498594	0.169902	-0.418478
C143	C	0.998584	-0.330063	-0.983921
C144	C	1.498584	0.169937	-0.483921
C145	C	0.934616	-0.431148	-0.967711
C146	C	1.434616	0.068852	-0.467711
C147	C	0.934623	-0.431176	-0.902271
C148	C	1.434623	0.068824	-0.402271
C149	C	0.966615	-0.380652	-0.877658
C150	C	1.466615	0.119348	-0.377658
C151	C	0.966537	-0.380806	-0.078141
C152	C	1.466537	0.119194	0.421859
C153	C	0.966601	-0.380590	-0.008535
C154	C	1.466601	0.119410	0.491465
H155	H	0.386826	-0.251641	-0.252819
H156	H	0.886826	0.248359	0.247181
C157	C	0.754462	-0.487137	-0.307902
C158	C	1.254462	0.012863	0.192098
N159	N	0.788299	-0.529076	-0.334332
N160	N	1.288299	-0.029076	0.165668
C161	C	1.033780	-0.274515	-0.891404
C162	C	1.533780	0.225485	-0.391404
N163	N	1.060281	-0.232647	-0.871013
N164	N	1.560281	0.267353	-0.371013
H165	H	0.821499	-0.929474	-0.385859
H166	H	1.321499	-0.429474	0.114141
H167	H	0.902385	-0.730714	-0.305001
H168	H	1.402385	-0.230714	0.194999
C169	C	0.559539	-0.530412	-0.227161
C170	C	1.059539	-0.030412	0.272839
N171	N	0.596100	-0.589418	-0.221727
N172	N	1.096100	-0.089418	0.278273
C173	C	1.104728	-0.967046	-0.103040
C174	C	1.604728	-0.467046	0.396960
N175	N	1.143434	-1.001223	-0.064400
N176	N	1.643434	-0.501223	0.435600
H177	H	0.624083	-0.472673	-0.298804
H178	H	1.124083	0.027327	0.201196
C179	C	0.511618	-0.231279	-0.254695
C180	C	1.011618	0.268721	0.245305
N181	N	0.529268	-0.172264	-0.260121
N182	N	1.029268	0.327736	0.239879
C183	C	1.033768	-0.274452	-1.028821
C184	C	1.533768	0.225548	-0.528821
N185	N	1.060271	-0.232566	-1.062641
N186	N	1.560271	0.267434	-0.562641
H187	H	0.220452	-0.472706	-0.298823
H188	H	0.720452	0.027294	0.201177
H189	H	1.111572	-0.831421	-0.096159
H190	H	1.611572	-0.331421	0.403841
H191	H	0.309677	-0.289037	-0.183060
H192	H	0.809677	0.210963	0.316940
H193	H	0.978328	-0.509884	-0.779938
H194	H	1.478328	-0.009884	-0.279938
H195	H	0.841692	-0.805641	-0.365652
H196	H	1.341692	-0.305641	0.134348
C197	C	0.720333	-0.274534	-0.173922
C198	C	1.220333	0.225466	0.326078
N199	N	0.740710	-0.232594	-0.147490
N200	N	1.240710	0.267406	0.352510
C201	C	0.899437	-0.486729	-0.994787
C202	C	1.399437	0.013271	-0.494787
N203	N	0.872939	-0.528595	-1.015184
N204	N	1.372939	-0.028595	-0.515184
C205	C	0.928697	-0.669962	-0.278699
C206	C	1.428697	-0.169962	0.221301
N207	N	0.889978	-0.635787	-0.317327
N208	N	1.389978	-0.135787	0.182673
C209	C	0.980189	-0.530291	-0.648617
C210	C	1.480189	-0.030291	-0.148617
N211	N	0.985554	-0.589309	-0.612067
N212	N	1.485554	-0.089309	-0.112067
H213	H	1.087517	-0.681666	-0.120133
H214	H	1.587517	-0.181666	0.379867
C215	C	0.899441	-0.486786	-0.857369
C216	C	1.399441	0.013214	-0.357369
N217	N	0.872938	-0.528672	-0.823548
N218	N	1.372938	-0.028672	-0.323548
H219	H	0.845569	-1.079221	-0.361882
H220	H	1.345569	-0.579221	0.138118
C221	C	0.179291	-0.274578	-0.173947
C222	C	0.679291	0.225422	0.326053
N223	N	0.145453	-0.232636	-0.147521
N224	N	0.645453	0.267364	0.352479
H225	H	0.991012	-1.079148	-0.216631
H226	H	1.491012	-0.579148	0.283369
H227	H	0.908593	-0.472458	-0.584090
H228	H	1.408593	0.027542	-0.084090
C229	C	1.034475	-1.053760	-0.173230
C230	C	1.534475	-0.553760	0.326770
N231	N	1.045466	-1.122149	-0.162287
N232	N	1.545466	-0.622149	0.337713
C233	C	1.033796	-0.274688	-0.487740
C234	C	1.533796	0.225312	0.012260
N235	N	1.060293	-0.232815	-0.467352
N236	N	1.560293	0.267185	0.032648
H237	H	0.908589	-0.472508	-0.465368
H238	H	1.408589	0.027492	0.034632
C239	C	1.033797	-0.274640	-0.625156
C240	C	1.533797	0.225360	-0.125156
N241	N	1.060305	-0.232761	-0.658977
N242	N	1.560305	0.267239	-0.158977
H243	H	0.954918	-0.251542	-0.702579
H244	H	1.454918	0.248458	-0.202579
H245	H	0.954911	-0.251491	-0.821299
H246	H	1.454911	0.248509	-0.321299
H247	H	0.339157	-0.472697	-0.298815
H248	H	0.839157	0.027303	0.201185
H249	H	0.428220	-0.510070	-0.229046
H250	H	0.928220	-0.010070	0.270954
H251	H	0.594598	-0.289009	-0.183045
H252	H	1.094598	0.210991	0.316955
