data_functionalizedCrystal
_audit_creation_method	'MofGen! by Chris Wilmer'
_symmetry_space_group_name_H-M	'P1'
_symmetry_Int_Tables_number	1
_symmetry_cell_setting	triclinic
loop_
_symmetry_equiv_pos_as_xyz
  x,y,z
_cell_length_a	16.992694
_cell_length_b	16.109301
_cell_length_c	14.586319
_cell_angle_alpha	89.998390
_cell_angle_beta	89.999540
_cell_angle_gamma	87.064852
loop_
_atom_site_label
_atom_site_type_symbol
_atom_site_fract_x
_atom_site_fract_y
_atom_site_fract_z
O1	O	-1.040348	-0.176284	0.076131
O2	O	-0.540348	0.323716	0.576131
O3	O	-0.812064	-0.174350	0.076158
O4	O	-0.312064	0.325650	0.576158
O5	O	-0.932477	-0.054704	0.076134
O6	O	-0.432477	0.445296	0.576134
O7	O	-0.919935	-0.295929	0.076154
O8	O	-0.419935	0.204071	0.576154
O9	O	-0.932462	-0.054711	-0.076347
O10	O	-0.432462	0.445289	0.423653
O11	O	-0.812049	-0.174356	-0.076323
O12	O	-0.312049	0.325644	0.423677
O13	O	-1.040334	-0.176290	-0.076350
O14	O	-0.540334	0.323710	0.423650
Cu15	Cu	-0.926190	-0.175324	-0.090259
Cu16	Cu	-0.426190	0.324676	0.409741
Cu17	Cu	-0.926207	-0.175316	0.090067
Cu18	Cu	-0.426207	0.324684	0.590067
O19	O	-0.919920	-0.295936	-0.076327
O20	O	-0.419920	0.204064	0.423673
C21	C	-0.782844	-0.171865	-0.000080
C22	C	-0.282844	0.328135	0.499920
C23	C	-0.695802	-0.164441	-0.000070
C24	C	-0.195802	0.335559	0.499930
C25	C	-0.931962	-0.023699	-0.000107
C26	C	-0.431962	0.476301	0.499893
C27	C	-0.930439	0.068698	-0.000108
C28	C	-0.430439	0.568698	0.499892
C29	C	-1.069553	-0.178775	-0.000111
C30	C	-0.569553	0.321225	0.499889
C31	C	-1.156595	-0.186198	-0.000115
C32	C	-0.656595	0.313802	0.499885
C33	C	-0.645543	-0.236067	-0.000064
C34	C	-0.145543	0.263933	0.499936
C35	C	-0.563758	-0.229087	-0.000078
C36	C	-0.063758	0.270913	0.499922
C37	C	-0.532234	-0.150481	-0.000090
C38	C	-0.032234	0.349519	0.499910
C39	C	-0.582499	-0.078849	-0.000098
C40	C	-0.082499	0.421151	0.499902
C41	C	-0.664282	-0.085830	-0.000091
C42	C	-0.164282	0.414170	0.499909
C43	C	-0.288644	-0.121548	-0.000116
C44	C	0.211356	0.378452	0.499884
C45	C	-0.206854	-0.114572	-0.000120
C46	C	0.293146	0.385428	0.499880
C47	C	-0.188119	-0.264811	-0.000102
C48	C	0.311881	0.235189	0.499898
C49	C	-0.269904	-0.271785	-0.000090
C50	C	0.230096	0.228215	0.499910
C51	C	-0.320163	-0.200154	-0.000103
C52	C	0.179837	0.299846	0.499897
N53	N	-0.448637	-0.143344	-0.000100
N54	N	0.051363	0.356656	0.499900
N55	N	-0.403758	-0.207291	-0.000099
N56	N	0.096242	0.292709	0.499901
C57	C	-0.920435	-0.326941	-0.000084
C58	C	-0.420435	0.173059	0.499916
C59	C	-0.921959	-0.419338	-0.000077
C60	C	-0.421959	0.080662	0.499923
N61	N	-0.926183	-0.175329	-0.217091
N62	N	-0.426183	0.324671	0.282909
C63	C	-0.998348	0.286439	-0.000101
C64	C	-0.498348	0.786439	0.499899
C65	C	-0.996911	0.373256	-0.000094
C66	C	-0.496911	0.873256	0.499906
C67	C	-0.854044	0.362915	-0.000080
C68	C	-0.354044	0.862915	0.499920
C69	C	-0.855482	0.276100	-0.000082
C70	C	-0.355482	0.776100	0.499918
C71	C	-0.927636	0.237865	-0.000097
C72	C	-0.427636	0.737865	0.499903
C73	C	-0.924761	0.411496	-0.000088
C74	C	-0.424761	0.911496	0.499912
C75	C	-0.923202	0.505626	-0.000080
C76	C	-0.423202	1.005626	0.499920
C77	C	-0.929196	0.143729	-0.000103
C78	C	-0.429196	0.643729	0.499897
C79	C	-0.973736	-0.228931	-0.452099
C80	C	-0.473736	0.271069	0.047901
C81	C	-0.973745	-0.228926	-0.548080
C82	C	-0.473745	0.271074	-0.048080
C83	C	-0.878665	-0.121697	-0.548087
C84	C	-0.378665	0.378303	-0.048087
C85	C	-0.878662	-0.121698	-0.452107
C86	C	-0.378662	0.378302	0.047893
C87	C	-0.926196	-0.175320	-0.404116
C88	C	-0.426196	0.324680	0.095884
C89	C	-0.926208	-0.175313	-0.596077
C90	C	-0.426208	0.324687	-0.096077
C91	C	-0.926216	-0.175307	-0.700144
C92	C	-0.426216	0.324693	-0.200144
C93	C	-0.926189	-0.175325	-0.300042
C94	C	-0.426189	0.324675	0.199958
N95	N	-0.926220	-0.175304	0.216898
N96	N	-0.426220	0.324696	0.716898
H97	H	-0.671204	-0.300077	-0.000054
H98	H	-0.171204	0.199923	0.499946
H99	H	-0.839964	-0.078041	-0.587173
H100	H	-0.339964	0.421959	-0.087173
O101	O	-1.019869	-0.281127	-0.405581
O102	O	-0.519869	0.218873	0.094419
C103	C	-0.998112	-0.364061	-0.429019
C104	C	-0.498112	0.135939	0.070981
H105	H	-0.967704	-0.365591	-0.498708
H106	H	-0.467704	0.134409	0.001292
H107	H	-1.053000	-0.401788	-0.432302
H108	H	-0.553000	0.098212	0.067698
H109	H	-0.956042	-0.391867	-0.375003
H110	H	-0.456042	0.108133	0.124997
H111	H	-0.556826	-0.014846	-0.000120
H112	H	-0.056826	0.485154	0.499880
H113	H	-0.295565	-0.335795	-0.000070
H114	H	0.204435	0.164205	0.499930
O115	O	-0.139218	-0.334329	0.000025
O116	O	0.360782	0.165671	0.500025
C117	C	-0.091360	-0.334796	0.079003
C118	C	0.408640	0.165204	0.579003
H119	H	-0.087240	-0.268530	0.105327
H120	H	0.412760	0.231470	0.605327
H121	H	-0.029886	-0.361682	0.061238
H122	H	0.470114	0.138318	0.561238
H123	H	-0.118253	-0.374554	0.134307
H124	H	0.381747	0.125446	0.634307
O125	O	-0.832590	-0.069539	-0.405445
O126	O	-0.332590	0.430461	0.094555
C127	C	-0.880406	-0.016029	-0.349901
C128	C	-0.380406	0.483971	0.150099
H129	H	-0.942797	-0.011270	-0.378826
H130	H	-0.442797	0.488730	0.121174
H131	H	-0.855359	0.048275	-0.348801
H132	H	-0.355359	0.548275	0.151199
H133	H	-0.881726	-0.041820	-0.277164
H134	H	-0.381726	0.458180	0.222836
H135	H	-0.522840	-0.287413	-0.000072
H136	H	-0.022840	0.212587	0.499928
O137	O	-0.783889	0.399925	-0.000031
O138	O	-0.283889	0.899925	0.499969
C139	C	-0.721785	0.338432	-0.000048
C140	C	-0.221785	0.838432	0.499952
H141	H	-0.743754	0.278062	0.028818
H142	H	-0.243754	0.778062	0.528818
H143	H	-0.671414	0.359898	0.044227
H144	H	-0.171414	0.859898	0.544227
H145	H	-0.699968	0.327611	-0.073198
H146	H	-0.199968	0.827611	0.426802
O147	O	-1.065548	0.420529	-0.000222
O148	O	-0.565548	0.920529	0.499778
C149	C	-1.068994	0.471048	-0.079200
C150	C	-0.568994	0.971048	0.420800
H151	H	-1.006757	0.479567	-0.105522
H152	H	-0.506757	0.979567	0.394478
H153	H	-1.098217	0.534283	-0.061436
H154	H	-0.598217	1.034283	0.438564
H155	H	-1.104795	0.440146	-0.134505
H156	H	-0.604795	0.940146	0.365495
H157	H	-0.797897	0.236549	-0.000075
H158	H	-0.297897	0.736549	0.499925
H159	H	-1.012458	-0.272580	-0.587144
H160	H	-0.512458	0.227420	-0.087144
H161	H	-0.181191	-0.050558	-0.000129
H162	H	0.318809	0.449442	0.499871
H163	H	-0.705203	-0.027504	-0.000095
H164	H	-0.205203	0.472496	0.499905
O165	O	-0.337422	-0.051941	0.000040
O166	O	0.162578	0.448059	0.500040
C167	C	-0.323117	-0.004525	0.078994
C168	C	0.176883	0.495475	0.578994
H169	H	-0.295157	-0.046559	0.134194
H170	H	0.204843	0.453441	0.634194
H171	H	-0.381147	0.024968	0.105500
H172	H	0.118853	0.524968	0.605500
H173	H	-0.281480	0.046357	0.061134
H174	H	0.218520	0.546357	0.561134
O175	O	-1.068504	0.249430	-0.000064
O176	O	-0.568504	0.749430	0.499936
C177	C	-1.130606	0.310924	-0.000086
C178	C	-0.630606	0.810924	0.499914
H179	H	-1.108638	0.371292	0.028780
H180	H	-0.608638	0.871292	0.528780
H181	H	-1.180981	0.289458	0.044184
H182	H	-0.680981	0.789458	0.544184
H183	H	-1.152417	0.321749	-0.073239
H184	H	-0.652417	0.821749	0.426761
