data_functionalizedCrystal
_audit_creation_method	'MofGen! by Chris Wilmer'
_symmetry_space_group_name_H-M	'P1'
_symmetry_Int_Tables_number	1
_symmetry_cell_setting	triclinic
loop_
_symmetry_equiv_pos_as_xyz
  x,y,z
_cell_length_a	13.032831
_cell_length_b	21.295417
_cell_length_c	13.032268
_cell_angle_alpha	82.858212
_cell_angle_beta	89.113023
_cell_angle_gamma	82.833712
loop_
_atom_site_label
_atom_site_type_symbol
_atom_site_fract_x
_atom_site_fract_y
_atom_site_fract_z
Zn1	Zn	1.498345	-0.425104	0.780742
Zn2	Zn	1.520057	-0.518889	0.608741
Zn3	Zn	1.348211	-0.398808	0.586989
Zn4	Zn	1.326306	-0.515485	0.758867
O5	O	1.423230	-0.464571	0.683835
O6	O	1.645141	-0.449974	0.776184
O7	O	1.515515	-0.493379	0.461941
O8	O	1.368207	-0.314217	0.612741
O9	O	1.661094	-0.518877	0.649816
O10	O	1.478510	-0.333536	0.755091
O11	O	1.389261	-0.405156	0.445960
O12	O	1.201389	-0.401856	0.591531
O13	O	1.330873	-0.513077	0.905684
O14	O	1.185295	-0.487579	0.717809
O15	O	1.457269	-0.446673	0.921755
O16	O	1.494275	-0.606517	0.628605
O17	O	1.351927	-0.604016	0.738902
C18	C	1.156026	-0.441495	0.649936
C19	C	1.041712	-0.431640	0.635459
C20	C	0.982824	-0.469715	0.691391
C21	C	0.864674	-0.459530	0.676429
C22	C	1.423105	-0.628108	0.683766
C23	C	1.423142	-0.698080	0.683783
C24	C	1.480533	-0.740949	0.757947
C25	C	1.480566	-0.806697	0.757977
C26	C	1.423221	-0.829572	0.683826
C27	C	1.365818	-0.786694	0.609656
C28	C	1.365778	-0.720948	0.609635
N29	N	1.426890	-0.926160	0.592840
N30	N	1.426933	-0.988616	0.592864
C31	C	1.423335	-1.027660	0.683888
N32	N	1.419712	-1.001890	0.774891
N33	N	1.419674	-0.939428	0.774866
C34	C	1.423257	-0.900862	0.683842
C35	C	1.480765	-1.141821	0.758090
C36	C	1.480790	-1.207569	0.758121
C37	C	1.366049	-1.187565	0.609792
C38	C	1.366017	-1.121818	0.609769
C39	C	1.423381	-1.098950	0.683918
C40	C	1.691477	-0.487738	0.717866
C41	C	1.805788	-0.497610	0.732369
C42	C	1.389206	-0.482429	0.952078
C43	C	1.374707	-0.490038	1.066387
C44	C	1.423380	-0.300400	0.683930
C45	C	1.423444	-0.230440	0.683970
C46	C	1.457181	-0.446743	0.416643
C47	C	1.471879	-0.438974	0.302359
C48	C	1.430781	-0.460576	1.125302
C49	C	1.415797	-0.468440	1.243447
H50	H	1.527238	-0.722333	0.818325
C51	C	1.551045	-0.397360	1.145022
C52	C	1.551651	-0.397045	1.252389
H53	H	1.600290	-0.371474	1.114175
H54	H	1.484163	-0.381031	1.118724
H55	H	1.568288	-0.439789	1.129354
H56	H	1.534399	-0.354616	1.268059
H57	H	1.618547	-0.413371	1.278697
C58	C	1.295530	-0.531636	1.223729
C59	C	1.294927	-0.531955	1.116363
H60	H	1.246282	-0.557519	1.254577
H61	H	1.278299	-0.489211	1.239392
H62	H	1.362419	-0.547972	1.250032
H63	H	1.228040	-0.515615	1.090058
H64	H	1.312152	-0.574389	1.100691
H65	H	1.019877	-0.509851	0.750356
H66	H	0.827625	-0.419387	0.617467
C67	C	0.963154	-0.551402	0.811392
C68	C	0.855790	-0.551800	0.811975
H69	H	0.994022	-0.584858	0.860534
H70	H	0.978806	-0.511641	0.828781
H71	H	0.989450	-0.557449	0.744468
H72	H	0.829494	-0.545747	0.878899
H73	H	0.840131	-0.591571	0.794593
H74	H	1.004658	-0.391500	0.576501
C75	C	1.593975	-0.819873	0.904594
C76	C	1.543643	-0.853829	0.839512
H77	H	1.632916	-0.848970	0.954928
H78	H	1.544136	-0.792988	0.938192
H79	H	1.639023	-0.794639	0.864798
H80	H	1.498590	-0.879059	0.879306
H81	H	1.593488	-0.880725	0.805912
H82	H	1.319125	-0.805323	0.549284
H83	H	1.319043	-0.686042	0.549241
C84	C	1.594161	-1.168195	0.904725
C85	C	1.543795	-1.116679	0.839608
H86	H	1.633064	-1.152673	0.955056
H87	H	1.639237	-1.194244	0.864961
H88	H	1.544335	-1.192598	0.938334
H89	H	1.593621	-1.092278	0.805993
H90	H	1.498715	-1.090618	0.879378
C91	C	1.477475	-1.291887	0.898305
C92	C	1.543879	-1.254692	0.839652
H93	H	1.516427	-1.320976	0.948643
H94	H	1.443332	-1.314919	0.854155
H95	H	1.427643	-1.264991	0.931909
H96	H	1.593708	-1.281588	0.806042
H97	H	1.578040	-1.231659	0.883807
C98	C	1.315155	-1.279462	0.543970
C99	C	1.303006	-1.212702	0.528288
H100	H	1.276233	-1.294981	0.493650
H101	H	1.291295	-1.293516	0.611138
H102	H	1.386177	-1.295166	0.537739
H103	H	1.231985	-1.196997	0.534527
H104	H	1.326861	-1.198642	0.461103
H105	H	1.319289	-1.086912	0.549374
H106	H	1.489877	-0.429527	1.088274
H107	H	1.356686	-0.499483	1.280469
