data_functionalizedCrystal
_audit_creation_method	'MofGen! by Chris Wilmer'
_symmetry_space_group_name_H-M	'P1'
_symmetry_Int_Tables_number	1
_symmetry_cell_setting	triclinic
loop_
_symmetry_equiv_pos_as_xyz
  x,y,z
_cell_length_a	15.297475
_cell_length_b	16.959454
_cell_length_c	16.959447
_cell_angle_alpha	89.973264
_cell_angle_beta	80.319168
_cell_angle_gamma	80.323279
loop_
_atom_site_label
_atom_site_type_symbol
_atom_site_fract_x
_atom_site_fract_y
_atom_site_fract_z
Zn1	Zn	1.379200	-0.524102	-0.655726
Zn2	Zn	1.879200	-0.024102	-0.155726
Zn3	Zn	1.379111	-0.656281	-0.523543
Zn4	Zn	1.879111	-0.156281	-0.023543
Zn5	Zn	1.228345	-0.501226	-0.500726
Zn6	Zn	1.728345	-0.001226	-0.000726
Zn7	Zn	1.228304	-0.633328	-0.632850
Zn8	Zn	1.728304	-0.133328	-0.132850
O9	O	1.303740	-0.578734	-0.578211
O10	O	1.803740	-0.078734	-0.078211
O11	O	1.505435	-0.560815	-0.657314
O12	O	2.005435	-0.060815	-0.157314
O13	O	1.359092	-0.635744	-0.409902
O14	O	1.859092	-0.135744	0.090098
O15	O	1.248410	-0.393657	-0.521312
O16	O	1.748410	0.106343	-0.021312
O17	O	1.505370	-0.657926	-0.560200
O18	O	2.005370	-0.157926	-0.060200
O19	O	1.359243	-0.410464	-0.635190
O20	O	1.859243	0.089536	-0.135190
O21	O	1.248324	-0.521826	-0.393139
O22	O	1.748324	-0.021826	0.106861
O23	O	1.102093	-0.499570	-0.499130
O24	O	1.602093	0.000430	0.000870
O25	O	1.248341	-0.618807	-0.746499
O26	O	1.748341	-0.118807	-0.246499
O27	O	1.102063	-0.596625	-0.596201
O28	O	1.602063	-0.096625	-0.096201
O29	O	1.359203	-0.538559	-0.763306
O30	O	1.859203	-0.038559	-0.263306
O31	O	1.359053	-0.763839	-0.538018
O32	O	1.859053	-0.263839	-0.038018
O33	O	1.248255	-0.746975	-0.618326
O34	O	1.748255	-0.246975	-0.118326
C35	C	1.069343	-0.543125	-0.542708
C36	C	1.569343	-0.043125	-0.042708
C37	C	0.969068	-0.527910	-0.527538
C38	C	1.469068	-0.027910	-0.027538
C39	C	0.686445	-0.687481	-0.686634
C40	C	1.186445	-0.187481	-0.186634
C41	C	0.780659	-0.701782	-0.700885
C42	C	1.280659	-0.201782	-0.200885
C43	C	0.827766	-0.658315	-0.657550
C44	C	1.327766	-0.158315	-0.157550
C45	C	0.780649	-0.600545	-0.599961
C46	C	1.280649	-0.100545	-0.099961
C47	C	0.686426	-0.586247	-0.585704
C48	C	1.186426	-0.086247	-0.085704
C49	C	0.827747	-0.557082	-0.556620
C50	C	1.327747	-0.057082	-0.056620
C51	C	0.780630	-0.499312	-0.499031
C52	C	1.280630	0.000688	0.000969
C53	C	0.686416	-0.485016	-0.484778
C54	C	1.186416	0.014984	0.015222
C55	C	0.639309	-0.528483	-0.528113
C56	C	1.139309	-0.028483	-0.028113
C57	C	0.921970	-0.571379	-0.570876
C58	C	1.421970	-0.071379	-0.070876
C59	C	0.921951	-0.470146	-0.469946
C60	C	1.421951	0.029854	0.030054
C61	C	0.827737	-0.455845	-0.455696
C62	C	1.327737	0.044155	0.044304
C63	C	1.303665	-0.784089	-0.578186
C64	C	1.803665	-0.284089	-0.078186
C65	C	1.303715	-0.871953	-0.578215
C66	C	1.803715	-0.371953	-0.078215
C67	C	1.246132	-1.234694	-0.620035
C68	C	1.746132	-0.734694	-0.120035
C69	C	1.361600	-1.252208	-0.536506
C70	C	1.861600	-0.752208	-0.036506
C71	C	1.361568	-1.169658	-0.536494
C72	C	1.861568	-0.669658	-0.036494
C73	C	1.303817	-1.119621	-0.578252
C74	C	1.803817	-0.619621	-0.078252
C75	C	1.246096	-1.152136	-0.620022
C76	C	1.746096	-0.652136	-0.120022
C77	C	1.419281	-1.137136	-0.494718
C78	C	1.919281	-0.637136	0.005282
C79	C	1.419251	-1.054581	-0.494704
C80	C	1.919251	-0.554581	0.005296
C81	C	1.361503	-1.004543	-0.536467
C82	C	1.861503	-0.504543	-0.036467
C83	C	1.303781	-1.037062	-0.578239
C84	C	1.803781	-0.537062	-0.078239
C85	C	1.246030	-0.987026	-0.619997
C86	C	1.746030	-0.487026	-0.119997
C87	C	1.188312	-1.019544	-0.661775
C88	C	1.688312	-0.519544	-0.161775
C89	C	1.188349	-1.102098	-0.661785
C90	C	1.688349	-0.602098	-0.161785
C91	C	1.361466	-0.921989	-0.536457
C92	C	1.861466	-0.421989	-0.036457
C93	C	1.245995	-0.904467	-0.619985
C94	C	1.745995	-0.404467	-0.119985
C95	C	1.539052	-0.614483	-0.613854
C96	C	2.039052	-0.114483	-0.113854
C97	C	1.639328	-0.629716	-0.629043
C98	C	2.139328	-0.129716	-0.129043
C99	C	1.303778	-0.578674	-0.784385
C100	C	1.803778	-0.078674	-0.284385
C101	C	1.303794	-0.578649	-0.872244
C102	C	1.803794	-0.078649	-0.372244
C103	C	1.303841	-0.372581	-0.578257
C104	C	1.803841	0.127419	-0.078257
C105	C	1.303883	-0.284731	-0.578277
C106	C	1.803883	0.215269	-0.078277
C107	C	1.246181	-0.620363	-1.234988
C108	C	1.746181	-0.120363	-0.734988
C109	C	1.361622	-0.536800	-1.252485
C110	C	1.861622	-0.036800	-0.752485
C111	C	1.361598	-0.536813	-1.169935
C112	C	1.861598	-0.036813	-0.669935
C113	C	1.303866	-0.578603	-1.119908
C114	C	1.803866	-0.078603	-0.619908
C115	C	1.246157	-0.620380	-1.152431
C116	C	1.746157	-0.120380	-0.652431
C117	C	1.419313	-0.495044	-1.137407
C118	C	1.919313	0.004956	-0.637407
C119	C	1.419292	-0.495056	-1.054853
C120	C	1.919292	0.004944	-0.554853
C121	C	1.361554	-0.536842	-1.004824
C122	C	1.861554	-0.036842	-0.504824
C123	C	1.303842	-0.578619	-1.037351
C124	C	1.803842	-0.078619	-0.537351
C125	C	1.246109	-0.620409	-0.987324
C126	C	1.746109	-0.120409	-0.487324
C127	C	1.188391	-0.662182	-1.019850
C128	C	1.688391	-0.162182	-0.519850
C129	C	1.188418	-0.662165	-1.102402
C130	C	1.688418	-0.162165	-0.602402
C131	C	1.361527	-0.536859	-0.922271
C132	C	1.861527	-0.036859	-0.422271
C133	C	1.246085	-0.620425	-0.904767
C134	C	1.746085	-0.120425	-0.404767
C135	C	1.303755	-0.578744	-0.372847
C136	C	1.803755	-0.078744	0.127153
C137	C	1.303913	-0.578574	-0.285015
C138	C	1.803913	-0.078574	0.214985
H139	H	0.960323	-0.618416	-0.617766
H140	H	1.460323	-0.118416	-0.117766
C141	C	1.482818	-0.449083	-1.192432
C142	C	1.982818	0.050917	-0.692432
H143	H	1.517194	-0.424215	-1.161240
H144	H	2.017194	0.075785	-0.661240
H145	H	1.448335	-0.409395	-1.219421
H146	H	1.948335	0.090605	-0.719421
H147	H	1.522120	-0.485291	-1.230577
H148	H	2.022120	0.014709	-0.730577
C149	C	1.182644	-1.270459	-0.665984
C150	C	1.682644	-0.770459	-0.165984
H151	H	1.190930	-1.326791	-0.660010
H152	H	1.690930	-0.826791	-0.160010
H153	H	1.195799	-1.258887	-0.721093
H154	H	1.695799	-0.758887	-0.221093
H155	H	1.122028	-1.247771	-0.645182
H156	H	1.622028	-0.747771	-0.145182
H157	H	1.199186	-0.654372	-1.261474
H158	H	1.699186	-0.154372	-0.761474
C159	C	0.535672	-0.512750	-0.512437
C160	C	1.035672	-0.012750	-0.012437
H161	H	0.514356	-0.472118	-0.471934
H162	H	1.014356	0.027882	0.028066
H163	H	0.514333	-0.560501	-0.495456
H164	H	1.014333	-0.060501	0.004544
H165	H	0.514390	-0.495907	-0.560252
H166	H	1.014390	0.004093	-0.060252
C167	C	1.182468	-0.849433	-0.665921
C168	C	1.682468	-0.349433	-0.165921
H169	H	1.148098	-0.880625	-0.690797
H170	H	1.648098	-0.380625	-0.190797
H171	H	1.216938	-0.822421	-0.705601
H172	H	1.716938	-0.322421	-0.205601
H173	H	1.143161	-0.811307	-0.629696
H174	H	1.643161	-0.311307	-0.129696
H175	H	1.141389	-0.696212	-0.979108
H176	H	1.641389	-0.196212	-0.479108
H177	H	1.408631	-0.502782	-1.293222
H178	H	1.908631	-0.002782	-0.793222
H179	H	1.466293	-1.177881	-0.460714
H180	H	1.966293	-0.677881	0.039286
H181	H	0.648082	-0.722870	-0.721907
H182	H	1.148082	-0.222870	-0.221907
H183	H	0.904479	-0.669962	-0.669156
H184	H	1.404479	-0.169962	-0.169156
H185	H	1.141286	-0.978794	-0.695771
H186	H	1.641286	-0.478794	-0.195771
H187	H	1.141431	-0.696178	-1.128893
H188	H	1.641431	-0.196178	-0.628893
C189	C	1.425126	-1.307246	-0.490581
C190	C	1.925126	-0.807246	0.009419
H191	H	1.416885	-1.361070	-0.496576
H192	H	1.916885	-0.861070	0.003424
H193	H	1.411967	-1.291758	-0.435467
H194	H	1.911967	-0.791758	0.064533
H195	H	1.485729	-1.302876	-0.511384
H196	H	1.985729	-0.802876	-0.011384
H197	H	1.466288	-0.461041	-1.028378
H198	H	1.966288	0.038959	-0.528378
H199	H	1.141357	-1.128582	-0.695797
H200	H	1.641357	-0.628582	-0.195797
H201	H	1.408455	-0.895516	-0.502438
H202	H	1.908455	-0.395516	-0.002438
C203	C	0.832481	-0.765317	-0.764232
C204	C	1.332481	-0.265317	-0.264232
H205	H	0.790934	-0.789151	-0.788005
H206	H	1.290934	-0.289151	-0.288005
H207	H	0.869215	-0.805294	-0.739496
H208	H	1.369215	-0.305294	-0.239496
H209	H	0.869255	-0.740698	-0.804290
H210	H	1.369255	-0.240698	-0.304290
C211	C	0.973758	-0.422327	-0.422278
C212	C	1.473758	0.077673	0.077722
H213	H	1.036619	-0.439109	-0.439023
H214	H	1.536619	0.060891	0.060977
H215	H	0.958296	-0.431479	-0.366809
H216	H	1.458296	0.068521	0.133191
H217	H	0.958335	-0.366890	-0.431611
H218	H	1.458335	0.133110	0.068389
H219	H	0.648056	-0.437984	-0.437877
H220	H	1.148056	0.062016	0.062123
C221	C	1.425002	-0.490910	-0.886495
C222	C	1.925002	0.009090	-0.386495
H223	H	1.459386	-0.466016	-0.928112
H224	H	1.959386	0.033984	-0.428112
H225	H	1.464284	-0.527118	-0.860227
H226	H	1.964284	-0.027118	-0.360227
H227	H	1.390489	-0.451229	-0.849081
H228	H	1.890489	0.048771	-0.349081
H229	H	1.466249	-1.028110	-0.460687
H230	H	1.966249	-0.528110	0.039313
H231	H	0.789361	-0.408809	-0.408806
H232	H	1.289361	0.091191	0.091194
H233	H	1.199063	-0.654448	-0.864039
H234	H	1.699063	-0.154448	-0.364039
