data_functionalizedCrystal
_audit_creation_method	'MofGen! by Chris Wilmer'
_symmetry_space_group_name_H-M	'P1'
_symmetry_Int_Tables_number	1
_symmetry_cell_setting	triclinic
loop_
_symmetry_equiv_pos_as_xyz
  x,y,z
_cell_length_a	29.839135
_cell_length_b	29.839132
_cell_length_c	12.645323
_cell_angle_alpha	90.034927
_cell_angle_beta	89.974281
_cell_angle_gamma	89.952207
loop_
_atom_site_label
_atom_site_type_symbol
_atom_site_fract_x
_atom_site_fract_y
_atom_site_fract_z
Zn1	Zn	0.686753	0.178819	-0.599458
Zn2	Zn	0.686667	0.253951	-0.422167
Zn3	Zn	0.611622	0.178839	-0.422193
Zn4	Zn	0.611579	0.253926	-0.599373
O5	O	0.649155	0.216384	-0.510798
O6	O	0.749609	0.188788	-0.575965
O7	O	0.676694	0.244006	-0.273823
O8	O	0.621643	0.115970	-0.445754
O9	O	0.749545	0.243987	-0.445710
O10	O	0.676841	0.115955	-0.575990
O11	O	0.621559	0.188822	-0.273842
O12	O	0.548749	0.188798	-0.445672
O13	O	0.621568	0.243945	-0.747732
O14	O	0.548717	0.243964	-0.575845
O15	O	0.676799	0.188764	-0.747794
O16	O	0.676652	0.316815	-0.445627
O17	O	0.621485	0.316797	-0.575820
C18	C	0.532433	0.216381	-0.510753
C19	C	0.482498	0.216390	-0.510758
C20	C	0.172885	0.187686	-0.578722
C21	C	-0.014788	0.187689	-0.578752
O22	O	-0.039028	0.163273	-0.636486
N23	N	-0.038287	0.216385	-0.510837
C24	C	-0.014864	0.245080	-0.442905
O25	O	-0.039158	0.269484	-0.385132
C26	C	0.172808	0.245074	-0.442870
C27	C	0.196304	0.216379	-0.510797
C28	C	0.196381	0.158993	-0.646642
C29	C	0.243297	0.158994	-0.646638
C30	C	0.266716	0.187688	-0.578713
C31	C	0.243219	0.216381	-0.510793
C32	C	0.196229	0.273767	-0.374933
C33	C	0.243150	0.273762	-0.374929
C34	C	0.266647	0.245067	-0.442856
C35	C	0.313554	0.245076	-0.442864
N36	N	0.337053	0.216380	-0.510779
C37	C	0.313634	0.187686	-0.578703
C38	C	-0.113395	0.245081	-0.442929
C39	C	-0.160313	0.245083	-0.442939
C40	C	-0.160233	0.187692	-0.578785
C41	C	-0.113315	0.187692	-0.578780
C42	C	-0.089896	0.216385	-0.510844
C43	C	0.412159	0.187691	-0.578690
C44	C	0.459079	0.187696	-0.578683
C45	C	0.458995	0.245086	-0.442834
C46	C	0.412080	0.245083	-0.442844
C47	C	0.388663	0.216382	-0.510776
O48	O	0.337822	0.269475	-0.385151
O49	O	0.337935	0.163278	-0.636451
C50	C	0.125969	0.187684	-0.578726
C51	C	0.102473	0.216377	-0.510805
C52	C	0.125892	0.245071	-0.442880
C53	C	0.055555	0.216379	-0.510815
C54	C	0.032136	0.187685	-0.578740
C55	C	0.055635	0.158989	-0.646655
C56	C	0.102550	0.158990	-0.646650
C57	C	0.102394	0.273767	-0.374965
C58	C	0.055478	0.273763	-0.374976
C59	C	0.032059	0.245070	-0.442901
C60	C	0.649066	0.333107	-0.510735
C61	C	0.649069	0.383041	-0.510743
C62	C	0.677901	0.692681	-0.443062
C63	C	0.677944	0.880354	-0.443086
O64	O	0.702409	0.904616	-0.385523
N65	N	0.649202	0.903826	-0.510815
C66	C	0.620450	0.880377	-0.578548
O67	O	0.596008	0.904647	-0.636163
C68	C	0.620410	0.692705	-0.578528
C69	C	0.649150	0.669235	-0.510787
C70	C	0.706639	0.669212	-0.375328
C71	C	0.706626	0.622296	-0.375318
C72	C	0.677875	0.598850	-0.443044
C73	C	0.649137	0.622320	-0.510778
C74	C	0.591660	0.669256	-0.646265
C75	C	0.591653	0.622335	-0.646256
C76	C	0.620394	0.598866	-0.578516
C77	C	0.620373	0.551958	-0.578494
N78	N	0.649115	0.528487	-0.510765
C79	C	0.677866	0.551933	-0.443040
C80	C	0.620473	0.978907	-0.578552
C81	C	0.620482	1.025825	-0.578555
C82	C	0.677976	1.025800	-0.443095
C83	C	0.677964	0.978881	-0.443087
C84	C	0.649214	0.955436	-0.510823
C85	C	0.677837	0.453407	-0.443024
C86	C	0.677820	0.406487	-0.443018
C87	C	0.620328	0.406517	-0.578482
C88	C	0.620342	0.453432	-0.578485
C89	C	0.649101	0.476876	-0.510753
O90	O	0.595925	0.527667	-0.636035
O91	O	0.702312	0.527654	-0.385449
C92	C	0.677914	0.739597	-0.443072
C93	C	0.649175	0.763066	-0.510806
C94	C	0.620424	0.739620	-0.578531
C95	C	0.649185	0.809984	-0.510810
C96	C	0.677936	0.833430	-0.443085
C97	C	0.706677	0.809958	-0.375356
C98	C	0.706665	0.763043	-0.375347
C99	C	0.591683	0.763092	-0.646260
C100	C	0.591698	0.810007	-0.646263
C101	C	0.620449	0.833453	-0.578538
C102	C	0.766334	0.216388	-0.510844
C103	C	0.816268	0.216389	-0.510864
C104	C	0.649240	1.099206	-0.510862
C105	C	0.649233	1.049271	-0.510830
C106	C	0.649188	0.216349	-0.787303
C107	C	0.649202	0.216335	-0.905134
C108	C	0.614350	0.250885	-1.072658
C109	C	0.614441	0.251056	-0.950098
C110	C	0.696533	0.229181	-0.949654
C111	C	0.696341	0.229398	-1.072252
C112	C	0.637172	0.168744	-1.072350
C113	C	0.636116	0.169029	-0.949743
C114	C	0.649148	0.216386	-0.235368
C115	C	0.649221	0.216275	-0.117539
H116	H	0.121677	0.135624	-0.701963
O117	O	0.731898	0.197440	-1.111637
H118	H	0.756599	0.216074	-1.160312
H119	H	0.036559	0.135627	-0.701965
O120	O	0.589980	0.156190	-0.911203
H121	H	0.592167	0.124709	-0.864773
H122	H	0.036351	0.297134	-0.319664
H123	H	0.121457	0.297133	-0.319650
O124	O	0.708823	0.381172	-0.369960
H125	H	0.728821	0.405361	-0.322880
H126	H	0.701256	0.472489	-0.387873
H127	H	0.622393	0.286293	-0.920771
O128	O	0.737669	0.737735	-0.302290
H129	H	0.760509	0.716321	-0.349789
O130	O	0.737649	0.694497	-0.302269
H131	H	0.757624	0.670287	-0.255170
O132	O	0.484422	0.156745	-0.651949
H133	H	0.505810	0.133866	-0.604599
H134	H	0.730030	0.603190	-0.320161
H135	H	0.730086	0.829056	-0.320209
H136	H	0.393099	0.164318	-0.634004
O137	O	0.268406	0.304710	-0.301647
H138	H	0.304979	0.299890	-0.313041
O139	O	0.589318	0.381226	-0.651528
H140	H	0.609412	0.359817	-0.705505
O141	O	0.268631	0.128037	-0.719894
H142	H	0.290001	0.148165	-0.773756
O143	O	0.708967	0.953568	-0.370036
H144	H	0.728961	0.977758	-0.322953
H145	H	0.701387	1.044897	-0.387951
O146	O	0.386733	0.276032	-0.369586
H147	H	0.410902	0.295983	-0.322350
H148	H	0.568255	0.688357	-0.701422
H149	H	0.177318	0.135624	-0.701955
O150	O	0.589344	0.478751	-0.651542
H151	H	0.569351	0.454563	-0.698637
O152	O	0.560664	0.737814	-0.719307
H153	H	0.580745	0.716401	-0.773305
H154	H	-0.179440	0.268454	-0.387638
O155	O	0.667304	0.133062	-0.909218
H156	H	0.692735	0.148410	-0.856420
H157	H	-0.094187	0.164325	-0.634090
O158	O	0.560698	0.835320	-0.719332
H159	H	0.540709	0.811129	-0.766428
O160	O	0.567719	0.240338	-1.111686
H161	H	0.543741	0.265201	-1.078964
O162	O	0.567955	0.240394	-0.910209
H163	H	0.545206	0.235073	-0.978486
O164	O	0.589460	0.953620	-0.651606
H165	H	0.566613	0.932279	-0.604098
H166	H	0.568242	0.603248	-0.701419
O167	O	0.589481	1.051137	-0.651611
H168	H	0.569492	1.026947	-0.698707
H169	H	-0.179309	0.164328	-0.634093
H170	H	0.622224	0.285901	-1.103464
O171	O	0.709865	0.275422	-1.110147
H172	H	0.716478	0.297316	-1.040908
H173	H	0.723210	0.204769	-0.920532
O174	O	0.710303	0.274723	-0.908999
H175	H	0.685448	0.300146	-0.934851
O176	O	0.592249	0.153233	-1.113259
H177	H	0.578007	0.179231	-1.166263
O178	O	0.670811	0.134583	-1.110800
H179	H	0.695990	0.151346	-1.161847
H180	H	-0.094332	0.268448	-0.387605
H181	H	0.177107	0.297132	-0.319618
H182	H	0.478072	0.268449	-0.387533
