data_functionalizedCrystal
_audit_creation_method	'MofGen! by Chris Wilmer'
_symmetry_space_group_name_H-M	'P1'
_symmetry_Int_Tables_number	1
_symmetry_cell_setting	triclinic
loop_
_symmetry_equiv_pos_as_xyz
  x,y,z
_cell_length_a	17.038272
_cell_length_b	23.532357
_cell_length_c	15.500227
_cell_angle_alpha	92.804145
_cell_angle_beta	86.956295
_cell_angle_gamma	86.969924
loop_
_atom_site_label
_atom_site_type_symbol
_atom_site_fract_x
_atom_site_fract_y
_atom_site_fract_z
O1	O	1.040073	0.121161	-0.071854
O2	O	0.812458	0.119197	-0.071879
O3	O	0.933149	0.037608	-0.071848
O4	O	0.919383	0.202750	-0.071885
O5	O	0.925825	0.042538	0.072039
O6	O	0.805135	0.124127	0.072008
O7	O	1.032749	0.126091	0.072033
Cu8	Cu	0.918273	0.125559	0.085159
Cu9	Cu	0.926934	0.119729	-0.085004
O10	O	0.912059	0.207680	0.072002
C11	C	0.779682	0.119876	0.000062
C12	C	0.692930	0.114549	0.000053
C13	C	0.642443	0.163454	0.000043
C14	C	0.560930	0.158446	0.000056
C15	C	0.529907	0.104533	0.000073
C16	C	0.580401	0.055624	0.000086
C17	C	0.661912	0.060633	0.000079
C18	C	0.284283	0.086838	0.000100
C19	C	0.202765	0.081833	0.000104
C20	C	0.183300	0.184656	0.000076
C21	C	0.264814	0.189660	0.000064
C22	C	0.315300	0.140751	0.000081
C23	C	0.446588	0.099413	0.000083
C24	C	0.398617	0.145872	0.000077
C25	C	0.929143	0.018838	0.000098
C26	C	0.928107	-0.044435	0.000106
C27	C	0.925601	-0.439477	-0.078374
C28	C	0.924617	-0.498928	-0.078379
O29	O	0.927477	-0.531958	-0.145083
N30	N	0.920137	-0.525977	0.000053
C31	C	0.916633	-0.493572	0.078495
O32	O	0.912731	-0.522039	0.145206
C33	C	0.917611	-0.434121	0.078499
C34	C	0.922099	-0.407076	0.000062
C35	C	0.930088	-0.412431	-0.156804
C36	C	0.931074	-0.352983	-0.156799
C37	C	0.927572	-0.320582	-0.078363
C38	C	0.923085	-0.347628	0.000067
C39	C	0.914101	-0.401717	0.156940
C40	C	0.915079	-0.342262	0.156937
C41	C	0.919568	-0.315217	0.078500
C42	C	0.920568	-0.255780	0.078508
N43	N	0.925048	-0.228731	0.000077
C44	C	0.928550	-0.261132	-0.078359
C45	C	0.914577	-0.618422	0.078480
C46	C	0.913604	-0.677872	0.078477
C47	C	0.921587	-0.683224	-0.078397
C48	C	0.922565	-0.623773	-0.078393
C49	C	0.919057	-0.591373	0.000048
C50	C	0.930620	-0.136288	-0.078342
C51	C	0.931608	-0.076836	-0.078329
C52	C	0.923621	-0.071489	0.078544
C53	C	0.922637	-0.130936	0.078532
C54	C	0.926134	-0.163335	0.000082
O55	O	0.917708	-0.222713	0.145178
O56	O	0.932441	-0.232657	-0.145059
C57	C	1.065526	0.125411	0.000091
C58	C	1.152278	0.130738	0.000094
C59	C	0.916065	0.226450	0.000054
C60	C	0.917101	0.289722	0.000040
N61	N	0.912187	0.129660	0.204842
N62	N	0.933027	0.115624	-0.204688
C63	C	0.963346	0.095102	0.250132
C64	C	0.958750	0.098209	0.340703
C65	C	0.902999	0.135877	0.385984
C66	C	0.851836	0.170436	0.340688
C67	C	0.856428	0.167326	0.250118
C68	C	0.886455	0.147072	0.659446
C69	C	0.881868	0.150181	0.750023
C70	C	0.988782	0.077953	0.750032
C71	C	0.993373	0.074849	0.659461
C72	C	0.942207	0.109405	0.614172
C73	C	0.898302	0.139055	0.478562
C74	C	0.946901	0.106224	0.521595
H75	H	0.177510	0.037928	0.000117
C76	C	0.383480	0.035350	0.074073
C77	C	0.339774	0.033079	0.000108
H78	H	0.417737	0.002158	0.074077
H79	H	0.413619	0.068171	0.074059
H80	H	0.348722	0.037251	0.124245
H81	H	0.374532	0.031183	-0.050064
H82	H	0.309633	0.000250	0.000114
H83	H	1.000407	0.070069	0.377578
H84	H	0.933464	-0.162660	-0.142223
C85	C	0.607835	-0.045507	0.000115
C86	C	0.546304	-0.003639	0.000104
H87	H	0.586784	-0.082094	0.000129
H88	H	0.641768	-0.043134	-0.050060
H89	H	0.636674	-0.039691	0.050293
H90	H	0.517467	-0.009453	-0.050078
H91	H	0.512357	-0.006014	0.050284
H92	H	1.030439	0.049818	0.786914
C93	C	1.052121	0.035141	0.530701
C94	C	1.008181	0.064819	0.471827
H95	H	1.089951	0.009578	0.499968
H96	H	1.078250	0.061425	0.566009
H97	H	1.017961	0.014284	0.566043
H98	H	1.042340	0.085680	0.436489
H99	H	0.982051	0.038532	0.436503
H100	H	0.142185	0.224474	0.000063
C101	C	0.654687	0.250103	-0.073947
C102	C	0.676536	0.222720	0.000023
H103	H	0.675730	0.286693	-0.073952
H104	H	0.674597	0.228083	-0.124110
H105	H	0.598915	0.254113	-0.073934
H106	H	0.732308	0.218706	0.000007
H107	H	0.656630	0.244745	0.050200
H108	H	0.806438	0.201105	0.377560
C109	C	0.780323	0.218783	0.668547
C110	C	0.830220	0.185062	0.609673
H111	H	0.745608	0.242240	0.637815
H112	H	0.750614	0.194925	0.703885
H113	H	0.810909	0.242061	0.703860
H114	H	0.799634	0.161780	0.574364
H115	H	0.859931	0.208923	0.574320
C116	C	0.750295	0.239038	0.259199
C117	C	0.800197	0.205316	0.200331
H118	H	0.715582	0.262493	0.228462
H119	H	0.720585	0.215180	0.294537
H120	H	0.780878	0.262318	0.294513
H121	H	0.769614	0.182033	0.165022
H122	H	0.829910	0.229176	0.164979
C123	C	1.000817	-0.485536	-0.247816
C124	C	0.933942	-0.448041	-0.243029
H125	H	1.003197	-0.507519	-0.301050
H126	H	1.046604	-0.464366	-0.244540
H127	H	0.997997	-0.510156	-0.201110
H128	H	0.936765	-0.423418	-0.289732
H129	H	0.888144	-0.469213	-0.246314
C130	C	0.795508	0.022657	0.000086
C131	C	0.717413	0.006876	0.000090
H132	H	0.829769	-0.010532	0.000101
H133	H	0.807410	0.042876	-0.050095
H134	H	0.802309	0.046322	0.050259
H135	H	0.710610	-0.016787	-0.050087
H136	H	0.705506	-0.013352	0.050275
H137	H	0.519825	0.198270	0.000046
H138	H	0.934725	-0.330968	-0.220670
H139	H	0.290066	0.233561	0.000040
H140	H	0.926219	-0.601757	-0.142263
H141	H	1.008747	0.064432	0.213271
H142	H	0.852910	0.169726	0.515437
C143	C	0.371190	0.247007	0.000048
C144	C	0.432715	0.205134	0.000058
H145	H	0.392247	0.283592	0.000040
H146	H	0.342352	0.241196	-0.050122
H147	H	0.337253	0.244636	0.050231
H148	H	0.466649	0.207502	-0.050128
H149	H	0.461566	0.210947	0.050234
H150	H	0.421318	0.055517	0.000122
C151	C	0.923612	-0.776738	-0.148048
C152	C	0.925426	-0.718847	-0.164617
H153	H	0.925977	-0.798729	-0.201274
H154	H	0.967392	-0.787514	-0.115825
H155	H	0.876228	-0.783232	-0.115819
H156	H	0.972813	-0.712352	-0.196841
H157	H	0.881642	-0.708067	-0.196855
H158	H	0.909961	-0.699888	0.142348
H159	H	0.935265	-0.054818	-0.142205
C160	C	0.906595	-0.619113	0.233543
C161	C	0.910731	-0.582810	0.164711
H162	H	0.904224	-0.597129	0.286777
H163	H	0.860800	-0.640274	0.230270
H164	H	0.951964	-0.644551	0.230271
H165	H	0.865359	-0.557375	0.167979
H166	H	0.956531	-0.561640	0.167986
C167	C	0.906282	-0.390428	0.311996
C168	C	0.909158	-0.431434	0.243162
H169	H	0.903224	-0.408775	0.365229
H170	H	0.952413	-0.369494	0.308743
H171	H	0.861251	-0.365212	0.308707
H172	H	0.954193	-0.456648	0.246448
H173	H	0.863023	-0.452378	0.246417
C174	C	0.844348	-0.269150	0.247941
C175	C	0.911221	-0.306646	0.243162
H176	H	0.841966	-0.247165	0.301174
H177	H	0.847168	-0.244536	0.201237
H178	H	0.798555	-0.290322	0.244668
H179	H	0.957014	-0.285473	0.246429
H180	H	0.908407	-0.331263	0.289879
H181	H	0.918989	-0.152958	0.142402
H182	H	0.920774	-0.045097	0.142404
H183	H	1.038770	0.044176	0.622595
H184	H	0.836467	0.180857	0.786886
