data_functionalizedCrystal
_audit_creation_method	'MofGen! by Chris Wilmer'
_symmetry_space_group_name_H-M	'P1'
_symmetry_Int_Tables_number	1
_symmetry_cell_setting	triclinic
loop_
_symmetry_equiv_pos_as_xyz
  x,y,z
_cell_length_a	14.044191
_cell_length_b	17.019294
_cell_length_c	13.101039
_cell_angle_alpha	89.487532
_cell_angle_beta	86.337551
_cell_angle_gamma	88.281862
loop_
_atom_site_label
_atom_site_type_symbol
_atom_site_fract_x
_atom_site_fract_y
_atom_site_fract_z
O1	O	1.263670	0.185438	-0.101525
O2	O	1.763670	0.685438	0.398475
O3	O	0.987674	0.178598	-0.100934
O4	O	1.487674	0.678598	0.399066
O5	O	1.132755	0.068197	-0.091181
O6	O	1.632755	0.568197	0.408819
O7	O	1.118589	0.295839	-0.111278
O8	O	1.618589	0.795839	0.388722
O9	O	1.122346	0.076133	0.078548
O10	O	1.622346	0.576133	0.578548
O11	O	0.977265	0.186533	0.068795
O12	O	1.477265	0.686533	0.568795
O13	O	1.253261	0.193374	0.068204
O14	O	1.753261	0.693374	0.568204
Zn15	Zn	1.113610	0.191213	0.095447
Zn16	Zn	1.613610	0.691213	0.595447
Zn17	Zn	1.127325	0.180758	-0.128178
Zn18	Zn	1.627325	0.680758	0.371822
O19	O	1.108180	0.303774	0.058450
O20	O	1.608180	0.803774	0.558450
C21	C	0.947143	0.179574	-0.015807
C22	C	1.447143	0.679574	0.484193
C23	C	0.841881	0.170648	-0.015025
C24	C	1.341881	0.670648	0.484975
C25	C	0.591784	0.217630	-0.019162
C26	C	1.091784	0.717630	0.480838
C27	C	0.649157	0.154344	-0.013577
C28	C	1.149157	0.654344	0.486423
C29	C	0.756398	0.163418	-0.014383
C30	C	1.256398	0.663418	0.485617
C31	C	0.484533	0.208558	-0.018357
C32	C	0.984533	0.708558	0.481643
C33	C	1.126808	0.042856	-0.003731
C34	C	1.626808	0.542856	0.496269
C35	C	1.124585	-0.044478	0.003972
C36	C	1.624585	0.455522	0.503972
C37	C	1.129216	-0.089828	-0.084927
C38	C	1.629216	0.410172	0.415073
C39	C	1.127121	-0.171887	-0.077686
C40	C	1.627121	0.328113	0.422314
C41	C	1.120401	-0.208594	0.018456
C42	C	1.620401	0.291406	0.518456
C43	C	1.115766	-0.163237	0.107362
C44	C	1.615766	0.336763	0.607362
C45	C	1.117854	-0.081180	0.100120
C46	C	1.617854	0.418820	0.600120
C47	C	1.113804	-0.456137	0.044952
C48	C	1.613804	0.043863	0.544952
C49	C	1.111719	-0.538201	0.052188
C50	C	1.611719	-0.038201	0.552188
C51	C	1.123073	-0.546845	-0.132861
C52	C	1.623073	-0.046845	0.367139
C53	C	1.125166	-0.464786	-0.140095
C54	C	1.625166	0.035214	0.359905
C55	C	1.120526	-0.419436	-0.051189
C56	C	1.620526	0.080564	0.448811
C57	C	1.118262	-0.292471	0.025860
C58	C	1.618262	0.207529	0.525860
C59	C	1.122658	-0.335560	-0.058594
C60	C	1.622658	0.164440	0.441406
C61	C	1.293792	0.192398	-0.016925
C62	C	1.793792	0.692398	0.483075
C63	C	1.399054	0.201323	-0.017714
C64	C	1.899054	0.701323	0.482286
C65	C	1.114127	0.329116	-0.029001
C66	C	1.614127	0.829116	0.470999
C67	C	1.116351	0.416449	-0.036712
C68	C	1.616351	0.916449	0.463288
N69	N	1.104257	0.198349	0.248066
N70	N	1.604257	0.698349	0.748066
N71	N	1.136685	0.173617	-0.280795
N72	N	1.636685	0.673617	0.219205
C73	C	1.091532	0.208064	0.456250
C74	C	1.591532	0.708064	0.956250
C75	C	1.149407	0.163904	0.511027
C76	C	1.649407	0.663904	1.011027
C77	C	1.142327	0.169310	0.626868
C78	C	1.642327	0.669310	1.126868
C79	C	1.098611	0.202659	0.340398
C80	C	1.598611	0.702659	0.840398
H81	H	0.617739	0.093346	-0.008264
H82	H	1.117739	0.593346	0.491736
N83	N	1.132489	-0.425232	-0.243811
N84	N	1.632489	0.074768	0.256189
H85	H	1.192348	-0.393661	-0.250701
H86	H	1.692348	0.106339	0.249299
H87	H	1.135088	-0.466487	-0.298935
H88	H	1.635088	0.033513	0.201065
N89	N	0.633397	0.298422	-0.026302
N90	N	1.133397	0.798422	0.473698
H91	H	0.705220	0.293532	-0.025876
H92	H	1.205220	0.793532	0.474124
H93	H	0.615213	0.324941	-0.091827
H94	H	1.115213	0.824941	0.408173
H95	H	1.134694	-0.059948	-0.163216
H96	H	1.634694	0.440052	0.336784
H97	H	1.204274	0.122038	0.470923
H98	H	1.704274	0.622038	0.970923
N99	N	1.018858	0.263519	0.509360
N100	N	1.518858	0.763519	1.009360
H101	H	1.024041	0.259567	0.585783
H102	H	1.524041	0.759567	1.085783
H103	H	1.031274	0.319144	0.485763
H104	H	1.531274	0.819144	0.985763
H105	H	1.126848	-0.583777	-0.205243
H106	H	1.626848	-0.083777	0.294757
N107	N	1.132227	-0.220768	-0.173601
N108	N	1.632227	0.279232	0.326399
H109	H	1.076401	-0.206138	-0.215581
H110	H	1.576401	0.293862	0.284419
H111	H	1.193852	-0.210548	-0.214935
H112	H	1.693852	0.289452	0.285065
N113	N	1.104474	-0.577795	0.155888
N114	N	1.604474	-0.077795	0.655888
H115	H	1.101850	-0.536615	0.211112
H116	H	1.601850	-0.036615	0.711112
H117	H	1.044648	-0.609406	0.162715
H118	H	1.544648	-0.109406	0.662715
N119	N	1.108815	-0.407230	0.140838
N120	N	1.608815	0.092770	0.640838
H121	H	1.047261	-0.417373	0.182352
H122	H	1.547261	0.082627	0.682352
H123	H	1.164731	-0.421898	0.182662
H124	H	1.664731	0.078102	0.682662
H125	H	1.114069	-0.044256	0.172511
H126	H	1.614069	0.455744	0.672511
N127	N	1.108527	-0.202824	0.211060
N128	N	1.608527	0.297176	0.711060
H129	H	1.107915	-0.261689	0.202161
H130	H	1.607915	0.238311	0.702161
H131	H	1.165134	-0.188837	0.250386
H132	H	1.665134	0.311163	0.750386
H133	H	1.112793	-0.322367	0.104139
H134	H	1.612793	0.177633	0.604139
N135	N	1.129845	-0.295941	-0.162268
N136	N	1.629845	0.204059	0.337732
H137	H	1.189659	-0.264318	-0.169210
H138	H	1.689659	0.235682	0.330790
H139	H	1.132407	-0.337142	-0.217458
H140	H	1.632407	0.162858	0.282542
