data_functionalizedCrystal
_audit_creation_method	'MofGen! by Chris Wilmer'
_symmetry_space_group_name_H-M	'P1'
_symmetry_Int_Tables_number	1
_symmetry_cell_setting	triclinic
loop_
_symmetry_equiv_pos_as_xyz
  x,y,z
_cell_length_a	19.805407
_cell_length_b	18.050589
_cell_length_c	19.805399
_cell_angle_alpha	89.977706
_cell_angle_beta	89.980427
_cell_angle_gamma	90.028221
loop_
_atom_site_label
_atom_site_type_symbol
_atom_site_fract_x
_atom_site_fract_y
_atom_site_fract_z
Zn1	Zn	1.034727	-0.295677	-0.382745
Zn2	Zn	1.034638	-0.419869	-0.269567
Zn3	Zn	0.921542	-0.295697	-0.269569
Zn4	Zn	0.921502	-0.419829	-0.382713
O5	O	0.978102	-0.357768	-0.326148
O6	O	1.129432	-0.312159	-0.367743
O7	O	1.019616	-0.403422	-0.174850
O8	O	0.936610	-0.191770	-0.284596
O9	O	1.129367	-0.403402	-0.284592
O10	O	1.019767	-0.191755	-0.367746
O11	O	0.936524	-0.312194	-0.174852
O12	O	0.826820	-0.312156	-0.284566
O13	O	0.936542	-0.403335	-0.477434
O14	O	0.826791	-0.403355	-0.367693
O15	O	1.019728	-0.312121	-0.477457
O16	O	1.019577	-0.523788	-0.284562
O17	O	0.936456	-0.523759	-0.367690
C18	C	0.802246	-0.357754	-0.326127
C19	C	0.727014	-0.357766	-0.326133
C20	C	0.691673	-0.405325	-0.369347
C21	C	0.620984	-0.405326	-0.369357
C22	C	0.585639	-0.357771	-0.326148
C23	C	0.620985	-0.310207	-0.282933
C24	C	0.691673	-0.310203	-0.282927
C25	C	0.335912	-0.310224	-0.282955
C26	C	0.265220	-0.310233	-0.282962
C27	C	0.265224	-0.405347	-0.369385
C28	C	0.335911	-0.405342	-0.369379
C29	C	0.371251	-0.357776	-0.326166
C30	C	0.447900	-0.357774	-0.326157
C31	C	0.508992	-0.357776	-0.326153
C32	C	0.978021	-0.550720	-0.326137
C33	C	0.978048	-0.633266	-0.326155
C34	C	0.932891	-0.832728	-0.371344
C35	C	0.916392	-0.882167	-0.309581
C36	C	0.978114	-0.784396	-0.326164
C37	C	0.994646	-0.882039	-0.387934
C38	C	0.978177	-0.930381	-0.326178
C39	C	0.961583	-0.832748	-0.264368
C40	C	1.039865	-0.832616	-0.342762
C41	C	1.023390	-0.882033	-0.280957
C42	C	0.978076	-0.700298	-0.326157
C43	C	0.978215	-1.014478	-0.326178
C44	C	1.154645	-0.357783	-0.326171
C45	C	1.229877	-0.357789	-0.326180
C46	C	0.978140	-0.357721	-0.502691
C47	C	0.978156	-0.357701	-0.577923
C48	C	0.978203	-0.164062	-0.326175
C49	C	0.978246	-0.081517	-0.326186
C50	C	1.021472	-0.310204	-0.613280
C51	C	1.021479	-0.310182	-0.683969
C52	C	0.978173	-0.357662	-0.719299
C53	C	0.934852	-0.405162	-0.683937
C54	C	0.934843	-0.405180	-0.613250
C55	C	0.934891	-0.405093	-0.969010
C56	C	0.934905	-0.405074	-1.039702
C57	C	1.021527	-0.310096	-1.039729
C58	C	1.021518	-0.310113	-0.969042
C59	C	0.978195	-0.357609	-0.933686
C60	C	0.978187	-0.357631	-0.857038
C61	C	0.978184	-0.357645	-0.795946
C62	C	0.978103	-0.357761	-0.150292
C63	C	0.978218	-0.357572	-0.075061
H64	H	0.364678	-0.271497	-0.247763
C65	C	1.075092	-0.911104	-0.229294
C66	C	1.134378	-0.959810	-0.252908
C67	C	1.186076	-0.988883	-0.201244
C68	C	1.178487	-0.969250	-0.125964
C69	C	1.119198	-0.920541	-0.102346
C70	C	1.067500	-0.891468	-0.154010
H71	H	1.139998	-0.974346	-0.308638
H72	H	1.229966	-1.024940	-0.218728
H73	H	1.216757	-0.990771	-0.087719
H74	H	1.113578	-0.906005	-0.046616
H75	H	1.023610	-0.855410	-0.136526
C76	C	0.374790	-0.457651	-0.416911
C77	C	0.335915	-0.509962	-0.464451
C78	C	0.374793	-0.562269	-0.511986
C79	C	0.452546	-0.562265	-0.511981
C80	C	0.491426	-0.509951	-0.464439
C81	C	0.452547	-0.457645	-0.416904
H82	H	0.278354	-0.509968	-0.464456
H83	H	0.346012	-0.600995	-0.547179
H84	H	0.481326	-0.600986	-0.547169
H85	H	0.548987	-0.509946	-0.464434
H86	H	0.481329	-0.418919	-0.381711
H87	H	0.236444	-0.271504	-0.247777
C88	C	0.887198	-0.457435	-0.574357
C89	C	0.916492	-0.515755	-0.525759
C90	C	0.868845	-0.568011	-0.486868
C91	C	0.791904	-0.561948	-0.496575
C92	C	0.762606	-0.503625	-0.545175
C93	C	0.810253	-0.451369	-0.584066
H94	H	0.973452	-0.520245	-0.518571
H95	H	0.890533	-0.611185	-0.450891
H96	H	0.756632	-0.600631	-0.467786
H97	H	0.705646	-0.499135	-0.552362
H98	H	0.788565	-0.408195	-0.620042
C99	C	0.887230	-0.457344	-0.930139
C100	C	0.810293	-0.451264	-0.939871
C101	C	0.762624	-0.503518	-0.901004
C102	C	0.791892	-0.561852	-0.852405
C103	C	0.868833	-0.567934	-0.842671
C104	C	0.916501	-0.515680	-0.881538
H105	H	0.788624	-0.408080	-0.975850
H106	H	0.705668	-0.499015	-0.908210
H107	H	0.756605	-0.600533	-0.823633
H108	H	0.890502	-0.611118	-0.806692
H109	H	0.973458	-0.520182	-0.874332
H110	H	1.056801	-0.271419	-1.068525
C111	C	0.582108	-0.257896	-0.235402
C112	C	0.504355	-0.257902	-0.235402
C113	C	0.465479	-0.205591	-0.187868
C114	C	0.504356	-0.153276	-0.140334
C115	C	0.582113	-0.153268	-0.140332
C116	C	0.620989	-0.205579	-0.187866
H117	H	0.475572	-0.296631	-0.270591
H118	H	0.407917	-0.205597	-0.187870
H119	H	0.475578	-0.114553	-0.105146
H120	H	0.610897	-0.114539	-0.105143
H121	H	0.678551	-0.205573	-0.187864
H122	H	0.720446	-0.444052	-0.404530
H123	H	0.236441	-0.444075	-0.404574
C124	C	1.110355	-0.803185	-0.361750
C125	C	1.141381	-0.822564	-0.430822
C126	C	1.211870	-0.793131	-0.449818
C127	C	1.251334	-0.744318	-0.399742
C128	C	1.220309	-0.724936	-0.330665
C129	C	1.149819	-0.754369	-0.311669
H130	H	1.112167	-0.858701	-0.467895
H131	H	1.234837	-0.807479	-0.500953
H132	H	1.303515	-0.722530	-0.413804
H133	H	1.249523	-0.688799	-0.293592
H134	H	1.126852	-0.740021	-0.260534
C135	C	0.730553	-0.257887	-0.235392
C136	C	0.720867	-0.173470	-0.241051
C137	C	0.759748	-0.121150	-0.193518
C138	C	0.808313	-0.153245	-0.140327
C139	C	0.818001	-0.237666	-0.134666
C140	C	0.779121	-0.289987	-0.182198
H141	H	0.684914	-0.149708	-0.280428
H142	H	0.752576	-0.058656	-0.197709
H143	H	0.837094	-0.114514	-0.105140
H144	H	0.853954	-0.261429	-0.095288
H145	H	0.786292	-0.352481	-0.178008
C146	C	0.881154	-0.803472	-0.422887
C147	C	0.887942	-0.824015	-0.498040
C148	C	0.836205	-0.794757	-0.549578
C149	C	0.777679	-0.744957	-0.525963
C150	C	0.770888	-0.724411	-0.450806
C151	C	0.822626	-0.753669	-0.399268
H152	H	0.931269	-0.860882	-0.515525
H153	H	0.841232	-0.809967	-0.605215
H154	H	0.739380	-0.723299	-0.564114
H155	H	0.727562	-0.687543	-0.433321
H156	H	0.817599	-0.738459	-0.343631
C157	C	0.845883	-0.911572	-0.290617
C158	C	0.788091	-0.856920	-0.275725
C159	C	0.717580	-0.886322	-0.256767
C160	C	0.704861	-0.970376	-0.252700
C161	C	0.762656	-1.025032	-0.267593
C162	C	0.833166	-0.995631	-0.286551
H163	H	0.797504	-0.794694	-0.278734
H164	H	0.674797	-0.845861	-0.245742
H165	H	0.652665	-0.992140	-0.238666
H166	H	0.753242	-1.087259	-0.264583
H167	H	0.875949	-1.036092	-0.297576
C168	C	1.013507	-0.911290	-0.458495
C169	C	1.017596	-0.995315	-0.471275
C170	C	1.036452	-1.024563	-0.541836
C171	C	1.051219	-0.969786	-0.599618
C172	C	1.047131	-0.885756	-0.586839
C173	C	1.028275	-0.856508	-0.516278
H174	H	1.006664	-1.035868	-0.428500
H175	H	1.039479	-1.086767	-0.551295
H176	H	1.065178	-0.991437	-0.651851
H177	H	1.058063	-0.845203	-0.629614
H178	H	1.025249	-0.794304	-0.506819
H179	H	1.056753	-0.271506	-0.712754
C180	C	0.942650	-0.803626	-0.193782
C181	C	0.939093	-0.719621	-0.180738
C182	C	0.920162	-0.690498	-0.110154
C183	C	0.904788	-0.745380	-0.052614
C184	C	0.908344	-0.829390	-0.065656
C185	C	0.927276	-0.858513	-0.136240
H186	H	0.950475	-0.678990	-0.223334
H187	H	0.917529	-0.628308	-0.100499
H188	H	0.890774	-0.723821	-0.000363
H189	H	0.896963	-0.870022	-0.023060
H190	H	0.929908	-0.920703	-0.145895
H191	H	1.056740	-0.271542	-0.584520
C192	C	1.069154	-0.257883	-0.930180
C193	C	1.116800	-0.205631	-0.969072
C194	C	1.164436	-0.153398	-0.930210
C195	C	1.164426	-0.153417	-0.852457
C196	C	1.116779	-0.205670	-0.813561
C197	C	1.069143	-0.257903	-0.852422
H198	H	1.116808	-0.205616	-1.026633
H199	H	1.199707	-0.114717	-0.959004
H200	H	1.199689	-0.114751	-0.823690
H201	H	1.116770	-0.205686	-0.756000
H202	H	1.033872	-0.296585	-0.823629
C203	C	0.887260	-0.457300	-1.078567
C204	C	0.839603	-0.509541	-1.039679
C205	C	0.791960	-0.561764	-1.078545
C206	C	0.791976	-0.561745	-1.156298
C207	C	0.839635	-0.509501	-1.195190
C208	C	0.887277	-0.457279	-1.156325
H209	H	0.839590	-0.509557	-0.982118
H210	H	0.756680	-0.600438	-1.049754
H211	H	0.756708	-0.600403	-1.185068
H212	H	0.839648	-0.509485	-1.252751
H213	H	0.922558	-0.418604	-1.185116
H214	H	0.899589	-0.443819	-0.712708
H215	H	0.592212	-0.444054	-0.404545
