data_functionalizedCrystal
_audit_creation_method	'MofGen! by Chris Wilmer'
_symmetry_space_group_name_H-M	'P1'
_symmetry_Int_Tables_number	1
_symmetry_cell_setting	triclinic
loop_
_symmetry_equiv_pos_as_xyz
  x,y,z
_cell_length_a	12.759401
_cell_length_b	12.759400
_cell_length_c	11.169406
_cell_angle_alpha	89.950961
_cell_angle_beta	89.967463
_cell_angle_gamma	90.016097
loop_
_atom_site_label
_atom_site_type_symbol
_atom_site_fract_x
_atom_site_fract_y
_atom_site_fract_z
Zn1	Zn	1.606388	-0.417980	-0.678581
Zn2	Zn	1.606244	-0.593753	-0.477892
Zn3	Zn	1.430651	-0.418093	-0.477910
Zn4	Zn	1.430679	-0.593622	-0.678532
O5	O	1.518490	-0.505862	-0.578229
O6	O	1.753390	-0.441304	-0.651972
O7	O	1.582879	-0.570553	-0.309945
O8	O	1.454011	-0.271057	-0.504556
O9	O	1.753284	-0.570443	-0.504527
O10	O	1.583124	-0.270974	-0.651989
O11	O	1.453872	-0.441496	-0.309957
O12	O	1.283633	-0.441370	-0.504509
O13	O	1.454059	-0.570221	-0.846488
O14	O	1.283654	-0.570330	-0.651906
O15	O	1.583151	-0.441177	-0.846524
O16	O	1.582906	-0.740756	-0.504480
O17	O	1.453919	-0.740660	-0.651889
C18	C	1.245523	-0.505849	-0.578205
C19	C	1.128746	-0.505869	-0.578223
C20	C	1.073922	-0.573121	-0.654852
C21	C	0.964198	-0.573125	-0.654876
C22	C	0.964132	-0.438622	-0.501632
C23	C	1.073854	-0.438613	-0.501615
C24	C	0.814327	-0.610783	-0.796368
C25	C	0.759500	-0.678052	-0.872986
C26	C	0.795101	-0.780577	-0.891204
C27	C	0.885528	-0.815855	-0.832787
C28	C	0.940350	-0.748593	-0.756160
C29	C	0.904750	-0.646052	-0.737964
C30	C	1.223726	-0.400966	-0.360121
C31	C	1.278550	-0.333708	-0.283487
C32	C	1.242951	-0.231180	-0.265257
C33	C	1.152521	-0.195906	-0.323653
C34	C	1.097697	-0.263164	-0.400287
C35	C	1.133303	-0.365690	-0.418519
C36	C	1.518428	-0.778829	-0.578204
C37	C	1.518498	-0.895606	-0.578233
C38	C	1.585800	-1.060214	-0.501601
C39	C	1.585737	-0.950490	-0.501563
C40	C	1.451310	-0.950452	-0.654938
C41	C	1.451368	-1.060174	-0.654968
C42	C	1.623234	-0.800645	-0.360015
C43	C	1.690431	-0.745804	-0.283325
C44	C	1.792969	-0.781349	-0.265011
C45	C	1.828331	-0.871734	-0.323406
C46	C	1.761140	-0.926570	-0.400105
C47	C	1.658587	-0.891026	-0.418396
C48	C	1.413882	-1.210020	-0.796518
C49	C	1.346696	-1.264858	-0.873224
C50	C	1.244155	-1.229315	-0.891550
C51	C	1.208797	-1.138927	-0.833177
C52	C	1.275984	-1.084088	-0.756470
C53	C	1.378523	-1.119639	-0.738143
C54	C	1.792523	-0.505876	-0.578253
C55	C	1.909300	-0.505881	-0.578264
C56	C	1.518624	-0.505672	-0.891271
C57	C	1.518681	-0.505591	-1.024672
C58	C	1.518581	-0.231829	-0.578280
C59	C	1.518619	-0.115052	-0.578302
C60	C	1.518417	-0.505975	-0.266404
C61	C	1.518563	-0.505760	-0.133004
H62	H	1.640560	-1.104893	-0.439173
C63	C	0.574795	-0.701840	-0.903739
C64	C	0.660113	-0.639275	-0.937214
H65	H	0.513439	-0.677900	-0.943387
H66	H	0.588152	-0.772523	-0.925543
H67	H	0.564924	-0.697511	-0.819584
H68	H	0.669990	-0.643610	-1.021368
H69	H	0.646754	-0.568574	-0.915418
C70	C	1.323007	-1.449567	-0.903998
C71	C	1.385562	-1.364216	-0.937392
H72	H	1.347000	-1.510903	-0.943617
H73	H	1.327273	-1.459456	-0.819848
H74	H	1.252327	-1.436232	-0.925902
H75	H	1.456242	-1.377548	-0.915480
H76	H	1.381307	-1.354327	-1.021561
H77	H	1.118613	-0.627882	-0.717234
C78	C	1.714090	-0.561094	-0.252543
C79	C	1.651560	-0.646459	-0.219132
H80	H	1.690091	-0.499763	-0.212920
H81	H	1.784770	-0.574413	-0.230666
H82	H	1.709800	-0.551204	-0.336702
H83	H	1.655856	-0.656354	-0.134973
H84	H	1.580862	-0.633138	-0.241000
C85	C	1.012861	-0.230745	-0.588533
C86	C	0.998295	-0.224395	-0.464487
H87	H	0.951492	-0.206819	-0.628164
H88	H	1.070731	-0.188293	-0.611220
H89	H	1.026223	-0.301438	-0.610340
H90	H	0.984941	-0.153701	-0.442679
H91	H	0.940408	-0.266848	-0.441790
C92	C	1.111899	-0.029622	-0.413064
C93	C	1.113379	-0.083205	-0.303622
H94	H	1.087728	0.039953	-0.400691
H95	H	1.180645	-0.027831	-0.445668
H96	H	1.066304	-0.064640	-0.467049
H97	H	1.158980	-0.048190	-0.249639
H98	H	1.044622	-0.084989	-0.271001
C99	C	1.886103	-1.000811	-0.536615
C100	C	1.799998	-1.025918	-0.464287
H101	H	1.910095	-1.062150	-0.576228
H102	H	1.865826	-0.950033	-0.594352
H103	H	1.940791	-0.973237	-0.488311
H104	H	1.745306	-1.053484	-0.512593
H105	H	1.820271	-1.076714	-0.406543
H106	H	1.911833	-0.900660	-0.308500
H107	H	1.847682	-0.736688	-0.202569
H108	H	1.539735	-0.771704	-0.374905
C109	C	1.391540	-0.782237	-0.723003
C110	C	1.377400	-0.890125	-0.739219
H111	H	1.345915	-0.744999	-0.775044
H112	H	1.376172	-0.764349	-0.642354
H113	H	1.462120	-0.764195	-0.740634
H114	H	1.306821	-0.908169	-0.721579
H115	H	1.392761	-0.908021	-0.819886
H116	H	1.247187	-1.010488	-0.708941
H117	H	1.125302	-1.109983	-0.848104
H118	H	1.497379	-1.238971	-0.781598
C119	C	1.213578	-1.292154	-1.091071
C120	C	1.170303	-1.289587	-0.975878
H121	H	1.167985	-1.329364	-1.143125
H122	H	1.222387	-1.222590	-1.119705
H123	H	1.279707	-1.326265	-1.088504
H124	H	1.104177	-1.255468	-0.978443
H125	H	1.161481	-1.359164	-0.947237
H126	H	1.013973	-0.777316	-0.708597
C127	C	1.390099	-0.209857	-0.133591
C128	C	1.303212	-0.157249	-0.181013
H129	H	1.427300	-0.164211	-0.081592
H130	H	1.367088	-0.269583	-0.090085
H131	H	1.434844	-0.231442	-0.196940
H132	H	1.258463	-0.135671	-0.117665
H133	H	1.326222	-0.097504	-0.224520
H134	H	0.914501	-0.899347	-0.847616
H135	H	0.750453	-0.835347	-0.953590
H136	H	1.352183	-0.362437	-0.235937
H137	H	0.919425	-0.383867	-0.439258
C138	C	1.185243	-0.584665	-0.344242
C139	C	1.262859	-0.513672	-0.380159
H140	H	1.209402	-0.654244	-0.356615
H141	H	1.170141	-0.574634	-0.261766
H142	H	1.123551	-0.573273	-0.390006
H143	H	1.324549	-0.525059	-0.334389
H144	H	1.277975	-0.523708	-0.462649
H145	H	0.785339	-0.527295	-0.781554
