data_functionalizedCrystal
_audit_creation_method	'MofGen! by Chris Wilmer'
_symmetry_space_group_name_H-M	'P1'
_symmetry_Int_Tables_number	1
_symmetry_cell_setting	triclinic
loop_
_symmetry_equiv_pos_as_xyz
  x,y,z
_cell_length_a	10.654556
_cell_length_b	14.853567
_cell_length_c	9.730223
_cell_angle_alpha	90.002458
_cell_angle_beta	89.999363
_cell_angle_gamma	84.061170
loop_
_atom_site_label
_atom_site_type_symbol
_atom_site_fract_x
_atom_site_fract_y
_atom_site_fract_z
O1	O	1.666514	0.126648	-0.114291
O2	O	1.300911	0.138707	-0.114290
O3	O	1.493478	0.001500	-0.114295
O4	O	1.473947	0.263855	-0.114286
O5	O	1.493476	0.001504	0.114285
O6	O	1.300909	0.138710	0.114290
O7	O	1.666512	0.126652	0.114289
Zn8	Zn	1.483710	0.132681	0.150582
Zn9	Zn	1.483713	0.132677	-0.150582
O10	O	1.473944	0.263858	0.114294
C11	C	1.254121	0.137822	0.000000
C12	C	1.114706	0.135169	0.000000
C13	C	0.918216	0.131435	-0.124610
C14	C	1.049212	0.133922	-0.124604
C15	C	1.049198	0.133921	0.124607
C16	C	0.918205	0.131427	0.124599
C17	C	0.918224	0.131440	-0.268490
C18	C	1.049221	0.133927	-0.268484
C19	C	1.492592	-0.032092	-0.000009
C20	C	1.489940	-0.132189	-0.000020
C21	C	1.364340	-0.545398	0.000006
C22	C	1.593115	-0.565450	0.000005
C23	C	1.595608	-0.471403	-0.000003
C24	C	1.482466	-0.414349	-0.000004
C25	C	1.366831	-0.451342	0.000002
C26	C	1.711242	-0.434403	0.000004
C27	C	1.713740	-0.340351	-0.000002
C28	C	1.600597	-0.283295	-0.000013
C29	C	1.484956	-0.320293	-0.000008
C30	C	1.371814	-0.263238	-0.000010
C31	C	1.256173	-0.300235	-0.000015
C32	C	1.253687	-0.394285	-0.000009
C33	C	1.603082	-0.189244	-0.000019
C34	C	1.374304	-0.169182	-0.000014
C35	C	1.713301	0.127537	-0.000004
C36	C	1.852717	0.130189	-0.000013
C37	C	1.474830	0.297450	0.000005
C38	C	1.477482	0.397548	0.000008
N39	N	1.483717	0.132684	0.356118
N40	N	1.483716	0.132667	-0.356119
C41	C	1.569007	0.071950	0.428042
C42	C	1.569004	0.071939	0.571925
C43	C	1.398416	0.193404	0.571947
C44	C	1.398414	0.193410	0.428067
C45	C	1.667499	0.001825	0.428030
C46	C	1.667496	0.001814	0.571913
H47	H	0.894062	0.067785	-0.323740
H48	H	1.758454	0.023784	0.383404
F49	F	1.307624	0.258040	0.351521
H50	H	1.763847	0.017262	0.610964
H51	H	1.328964	0.242845	0.630544
H52	H	1.646776	-0.067470	0.388974
H53	H	0.865852	0.195645	-0.313132
F54	F	1.628494	-0.083773	0.630233
H55	H	1.159538	-0.424417	-0.000011
H56	H	1.685230	-0.611909	0.000017
F57	F	0.848502	0.130094	0.257211
H58	H	1.102535	0.134929	0.226062
H59	H	1.807902	-0.310237	-0.000000
F60	F	1.831646	-0.495128	0.000031
H61	H	1.101595	0.069718	-0.313132
F62	F	1.726147	-0.149873	0.000008
F63	F	1.253880	-0.108467	-0.000025
F64	F	1.080823	0.217129	-0.340676
H65	H	1.164053	-0.253769	-0.000006
F66	F	1.241272	-0.584772	-0.000011
