data_functionalizedCrystal
_audit_creation_method	'MofGen! by Chris Wilmer'
_symmetry_space_group_name_H-M	'P1'
_symmetry_Int_Tables_number	1
_symmetry_cell_setting	triclinic
loop_
_symmetry_equiv_pos_as_xyz
  x,y,z
_cell_length_a	11.169417
_cell_length_b	25.639239
_cell_length_c	11.169417
_cell_angle_alpha	90.014562
_cell_angle_beta	90.000551
_cell_angle_gamma	90.039936
loop_
_atom_site_label
_atom_site_type_symbol
_atom_site_fract_x
_atom_site_fract_y
_atom_site_fract_z
Zn1	Zn	1.834501	-0.208219	0.678474
Zn2	Zn	1.834358	-0.295631	0.477767
Zn3	Zn	1.633854	-0.208213	0.477810
Zn4	Zn	1.633695	-0.295627	0.678413
O5	O	1.734102	-0.251922	0.578116
O6	O	2.002432	-0.219818	0.651858
O7	O	1.807767	-0.284034	0.309823
O8	O	1.660596	-0.135049	0.504472
O9	O	2.002326	-0.284040	0.504399
O10	O	1.808011	-0.135053	0.651899
O11	O	1.660457	-0.219809	0.309854
O12	O	1.465883	-0.219805	0.504412
O13	O	1.660327	-0.284032	0.846371
O14	O	1.465767	-0.284027	0.651794
O15	O	1.807858	-0.219814	0.846416
O16	O	1.807613	-0.368796	0.504339
O17	O	1.660187	-0.368793	0.651753
C18	C	1.422277	-0.251915	0.578102
C19	C	1.288877	-0.251925	0.578125
C20	C	1.733900	-0.387765	0.578061
C21	C	1.733924	-0.445879	0.578078
C22	C	1.811067	-0.806231	0.501488
C23	C	1.811113	-0.860835	0.501504
O24	O	1.876494	-0.889063	0.436325
N25	N	1.734313	-0.888161	0.578195
C26	C	1.657470	-0.860880	0.654884
O27	O	1.592150	-0.889137	0.720118
C28	C	1.657430	-0.806277	0.654873
C29	C	1.734227	-0.778954	0.578168
C30	C	1.887858	-0.778908	0.424791
C31	C	1.887810	-0.724307	0.424774
C32	C	1.810970	-0.697030	0.501454
C33	C	1.734178	-0.724353	0.578151
C34	C	1.580594	-0.778997	0.731567
C35	C	1.580561	-0.724390	0.731550
C36	C	1.657358	-0.697067	0.654845
C37	C	1.657290	-0.642476	0.654814
N38	N	1.734091	-0.615149	0.578123
C39	C	1.810930	-0.642427	0.501443
C40	C	1.657560	-0.975551	0.654902
C41	C	1.657593	-1.030153	0.654908
C42	C	1.811238	-1.030105	0.501530
C43	C	1.811199	-0.975501	0.501519
C44	C	1.734360	-0.948225	0.578211
C45	C	1.810822	-0.527762	0.501412
C46	C	1.810764	-0.473156	0.501398
C47	C	1.657123	-0.473210	0.654780
C48	C	1.657177	-0.527810	0.654790
C49	C	1.734036	-0.555085	0.578102
O50	O	1.591946	-0.614213	0.719963
O51	O	1.876250	-0.614163	0.436231
C52	C	2.047144	-0.251930	0.578130
C53	C	2.180544	-0.251933	0.578137
C54	C	1.734090	-0.251923	0.891158
C55	C	1.734086	-0.251924	1.024558
C56	C	1.734337	-0.115549	0.578197
C57	C	1.734438	-0.057435	0.578232
C58	C	1.734099	-0.251931	1.266291
C59	C	1.734089	-0.251924	1.132891
H60	H	1.873301	-0.450911	0.438931
H61	H	1.594557	-0.450992	0.717208
H62	H	1.950348	-0.702064	0.362318
F63	F	1.575841	-1.059227	0.736534
F64	F	1.893017	-1.059145	0.419918
H65	H	1.873734	-0.953258	0.439060
H66	H	1.594979	-0.953345	0.717351
H67	H	1.518051	-0.801234	0.794022
F68	F	1.892624	-0.556782	0.419791
F69	F	1.969651	-0.807930	0.343172
H70	H	1.517991	-0.702184	0.794006
H71	H	1.594646	-0.550058	0.717253
