data_functionalizedCrystal
_audit_creation_method	'MofGen! by Chris Wilmer'
_symmetry_space_group_name_H-M	'P1'
_symmetry_Int_Tables_number	1
_symmetry_cell_setting	triclinic
loop_
_symmetry_equiv_pos_as_xyz
  x,y,z
_cell_length_a	19.188879
_cell_length_b	15.995292
_cell_length_c	14.472310
_cell_angle_alpha	89.985801
_cell_angle_beta	90.010885
_cell_angle_gamma	96.703654
loop_
_atom_site_label
_atom_site_type_symbol
_atom_site_fract_x
_atom_site_fract_y
_atom_site_fract_z
O1	O	-0.089800	1.110678	-0.076886
O2	O	-0.100956	0.866853	-0.076885
O3	O	0.006263	0.995824	-0.076857
O4	O	-0.197020	0.981707	-0.076915
O5	O	0.006257	0.995791	0.076825
O6	O	-0.100962	0.866820	0.076797
O7	O	-0.089806	1.110645	0.076796
Cu8	Cu	-0.095385	0.988730	0.090829
Cu9	Cu	-0.095378	0.988769	-0.090918
O10	O	-0.197026	0.981674	0.076767
C11	C	-0.100505	0.835643	-0.000044
C12	C	-0.099144	0.742695	-0.000042
C13	C	-0.094140	0.404976	-0.000051
C14	C	-0.171528	0.427988	-0.000416
C15	C	-0.172999	0.524658	-0.000066
C16	C	-0.096623	0.572522	-0.000047
C17	C	-0.057936	0.543552	0.087721
C18	C	-0.057004	0.446765	0.087791
C19	C	-0.055417	0.446953	-0.086974
C20	C	-0.058285	0.543435	-0.088131
C21	C	-0.098022	0.667213	-0.000041
C22	C	-0.092738	0.310286	-0.000050
C23	C	-0.223035	0.982141	-0.000081
C24	C	-0.300545	0.983492	-0.000104
C25	C	-0.336932	0.984130	0.083673
C26	C	-0.409758	0.985422	0.083689
C27	C	-0.446193	0.986094	-0.000076
C28	C	-0.409797	0.985451	-0.083864
C29	C	-0.336973	0.984150	-0.083878
N30	N	-0.555328	1.035800	-0.062409
N31	N	-0.624507	1.037038	-0.062390
C32	C	-0.665607	0.990011	-0.000040
N33	N	-0.634912	0.941711	0.062305
N34	N	-0.565726	0.940477	0.062289
C35	C	-0.525158	0.987504	-0.000071
C36	C	-0.780960	0.992049	0.083760
C37	C	-0.853788	0.993336	0.083772
C38	C	-0.853825	0.993374	-0.083783
C39	C	-0.780999	0.992078	-0.083794
C40	C	-0.744571	0.991420	-0.000019
C41	C	0.032273	0.995358	-0.000010
C42	C	0.109782	0.994006	0.000006
C43	C	-0.090257	1.141856	-0.000048
C44	C	-0.091619	1.234803	-0.000056
N45	N	-0.095390	0.988708	0.218660
N46	N	-0.095367	0.988797	-0.218749
C47	C	-0.095375	0.988768	0.592751
C48	C	-0.152553	0.919528	0.553570
C49	C	-0.152762	0.919686	0.446482
C50	C	-0.095382	0.988737	0.407160
C51	C	-0.111279	1.076043	0.445991
C52	C	-0.111686	1.075653	0.553112
C53	C	-0.022130	0.971482	0.553301
C54	C	-0.022619	0.969477	0.446174
C55	C	-0.095385	0.988726	0.302272
C56	C	-0.095374	0.988785	0.697639
H57	H	-0.079603	0.418547	-0.153496
C58	C	-0.096333	0.568400	-0.175850
N59	N	-0.124991	0.587212	-0.241920
H60	H	-0.307277	0.983593	0.151889
C61	C	-0.893898	0.994110	-0.175927
N62	N	-0.924085	0.994663	-0.245332
C63	C	-0.449792	0.986131	0.175854
N64	N	-0.479943	0.986669	0.245273
C65	C	-0.449875	0.986195	-0.176006
N66	N	-0.480062	0.986754	-0.245411
C67	C	-0.139985	0.831559	0.588434
N68	N	-0.130522	0.765300	0.614706
C69	C	-0.296942	0.983480	-0.176043
N70	N	-0.266789	0.982986	-0.245463
H71	H	-0.143293	0.854782	0.420229
H72	H	-0.751300	0.991506	0.151974
H73	H	-0.201194	0.398841	0.062157
H74	H	-0.002538	0.576622	-0.093417
C75	C	0.019649	0.427402	0.093200
N76	N	0.077383	0.412821	0.097280
H77	H	-0.071681	1.128771	0.579029
H78	H	-0.883414	0.993853	0.151996
C79	C	-0.740966	0.991428	-0.175956
N80	N	-0.710811	0.990952	-0.245377
H81	H	0.001546	0.433181	-0.087553
C82	C	-0.225572	0.934190	0.589900
N83	N	-0.280568	0.945237	0.617266
C84	C	-0.226191	0.934564	0.411826
N85	N	-0.281501	0.945775	0.385724
H86	H	-0.165102	1.090929	0.578072
C87	C	-0.056515	1.147299	0.411577
N88	N	-0.015266	1.200968	0.385655
C89	C	-0.182625	1.097178	0.409727
N90	N	-0.236366	1.113091	0.382418
H91	H	-0.006840	0.909217	0.580374
C92	C	-0.093221	0.410373	0.176396
N93	N	-0.120505	0.382965	0.243132
H94	H	-0.010554	0.905255	0.420796
H95	H	0.021923	1.016654	0.419412
C96	C	0.035355	1.039696	0.587538
N97	N	0.078647	1.091076	0.613331
H98	H	-0.203293	0.543580	-0.062984
H99	H	-0.203485	0.542929	0.062940
C100	C	-0.211826	0.390024	-0.085447
N101	N	-0.242179	0.361424	-0.149496
H102	H	-0.001734	0.575637	0.090998
H103	H	-0.084807	0.563492	0.153024
