data_functionalizedCrystal
_audit_creation_method	'MofGen! by Chris Wilmer'
_symmetry_space_group_name_H-M	'P1'
_symmetry_Int_Tables_number	1
_symmetry_cell_setting	triclinic
loop_
_symmetry_equiv_pos_as_xyz
  x,y,z
_cell_length_a	13.897449
_cell_length_b	12.827892
_cell_length_c	12.827885
_cell_angle_alpha	90.029786
_cell_angle_beta	90.020099
_cell_angle_gamma	90.016672
loop_
_atom_site_label
_atom_site_type_symbol
_atom_site_fract_x
_atom_site_fract_y
_atom_site_fract_z
Zn1	Zn	-1.474712	0.415947	-0.590872
Zn2	Zn	-1.474614	0.590724	-0.416132
Zn3	Zn	-1.313403	0.416002	-0.416143
Zn4	Zn	-1.313389	0.590650	-0.590830
O5	O	-1.394030	0.503331	-0.503494
O6	O	-1.609681	0.439139	-0.567705
O7	O	-1.453194	0.567601	-0.269897
O8	O	-1.334848	0.269758	-0.439343
O9	O	-1.609609	0.567547	-0.439325
O10	O	-1.453361	0.269718	-0.567716
O11	O	-1.334753	0.439233	-0.269905
O12	O	-1.178420	0.439161	-0.439302
O13	O	-1.334824	0.567422	-0.737071
O14	O	-1.178410	0.567475	-0.567644
O15	O	-1.453347	0.439068	-0.737102
O16	O	-1.453181	0.736950	-0.439284
O17	O	-1.334730	0.736896	-0.567633
C18	C	-1.143415	0.503317	-0.503470
C19	C	-1.036201	0.503336	-0.503485
C20	C	-1.393969	0.774841	-0.503476
C21	C	-1.394032	0.890994	-0.503503
C22	C	-1.645623	0.503345	-0.503519
C23	C	-1.752836	0.503352	-0.503529
C24	C	-0.839906	0.503340	-0.503512
C25	C	-0.949139	0.503334	-0.503494
C26	C	-1.394095	0.503230	-0.776064
C27	C	-1.394123	0.503188	-0.892218
C28	C	-1.394116	0.230761	-0.503535
C29	C	-1.394153	0.114607	-0.503553
C30	C	-1.452715	0.942771	-0.440062
C31	C	-1.452781	1.062821	-0.440088
C32	C	-1.452779	0.439662	-0.944018
C33	C	-1.452809	0.439616	-1.064068
C34	C	-1.394020	0.503355	-0.231984
C35	C	-1.394179	0.503104	-0.115832
H36	H	-1.502911	0.898225	-0.385731
H37	H	-1.503019	1.107348	-0.385771
H38	H	-1.343906	1.070088	-0.557866
O39	O	-1.334285	0.944244	-0.568378
C40	C	-1.389257	1.007255	-0.635903
H41	H	-1.462398	1.023456	-0.599107
H42	H	-1.350068	1.084079	-0.649818
H43	H	-1.399756	0.965185	-0.713384
O44	O	-1.512532	0.374767	-0.890788
C45	C	-1.457569	0.307331	-0.827675
H46	H	-1.384438	0.344199	-0.811423
H47	H	-1.496779	0.293433	-0.750883
H48	H	-1.447047	0.229832	-0.869683
O49	O	-1.512628	0.374760	-1.117364
C50	C	-1.499351	0.389163	-1.225363
H51	H	-1.424893	0.423397	-1.240154
H52	H	-1.505890	0.310909	-1.266929
H53	H	-1.556533	0.444829	-1.256337
O54	O	-1.334401	0.568045	-1.062585
C55	C	-1.389339	0.635526	-0.999467
H56	H	-1.462460	0.598664	-0.983239
H57	H	-1.350094	0.649488	-0.922663
H58	H	-1.399886	0.712992	-1.041457
O59	O	-1.334147	0.568069	-0.945169
C60	C	-1.279623	0.627165	-0.873696
H61	H	-1.276211	0.584462	-0.795870
H62	H	-1.203654	0.638269	-0.905305
H63	H	-1.314910	0.706547	-0.862120
