data_functionalizedCrystal
_audit_creation_method	'MofGen! by Chris Wilmer'
_symmetry_space_group_name_H-M	'P1'
_symmetry_Int_Tables_number	1
_symmetry_cell_setting	triclinic
loop_
_symmetry_equiv_pos_as_xyz
  x,y,z
_cell_length_a	19.288859
_cell_length_b	12.996460
_cell_length_c	19.288865
_cell_angle_alpha	90.011375
_cell_angle_beta	83.134986
_cell_angle_gamma	90.006456
loop_
_atom_site_label
_atom_site_type_symbol
_atom_site_fract_x
_atom_site_fract_y
_atom_site_fract_z
O1	O	0.921352	0.085599	0.086629
O2	O	0.719091	0.085598	0.098322
O3	O	0.826066	0.085578	-0.008655
O4	O	0.814377	0.085619	0.193606
O5	O	0.826055	-0.085556	-0.008661
O6	O	0.719080	-0.085536	0.098316
O7	O	0.921341	-0.085535	0.086623
Cu8	Cu	0.820209	-0.101161	0.092469
Cu9	Cu	0.820222	0.101224	0.092476
O10	O	0.814366	-0.085515	0.193600
C11	C	0.693209	0.000031	0.097943
C12	C	0.616105	0.000030	0.096816
C13	C	0.052064	0.000042	0.151959
C14	C	0.124511	0.000048	0.153025
C15	C	0.169217	0.000033	0.090255
C16	C	0.141472	0.000039	0.026416
C17	C	0.069027	0.000044	0.025353
C18	C	0.290484	-0.059936	0.043440
C19	C	0.362927	-0.059947	0.044506
C20	C	0.392663	0.000023	0.093533
C21	C	0.349945	0.059991	0.141505
C22	C	0.277500	0.059996	0.140441
C23	C	0.247773	0.000029	0.091401
C24	C	0.498955	0.000030	0.158523
C25	C	0.571403	0.000042	0.159586
C26	C	0.588364	0.000024	0.032976
C27	C	0.515917	0.000022	0.031915
C28	C	0.471216	0.000020	0.094691
N29	N	0.820205	-0.243508	0.092463
C30	C	0.820221	-0.663323	0.092476
C31	C	0.820215	-0.546518	0.092475
C32	C	0.820214	-0.453419	0.092470
C33	C	0.820206	-0.336607	0.092468
C34	C	0.947223	0.000035	0.087001
C35	C	1.024327	0.000043	0.088128
C36	C	0.825684	0.000008	-0.034535
C37	C	0.824555	-0.000001	-0.111638
N38	N	0.820232	0.243571	0.092475
C39	C	0.887323	-0.000006	-0.156336
C40	C	0.886262	0.000011	-0.228783
C41	C	0.822430	0.000011	-0.256529
C42	C	0.759654	0.000022	-0.211822
C43	C	0.760716	0.000016	-0.139376
C44	C	0.772247	-0.059934	-0.364817
C45	C	0.771187	-0.059934	-0.437262
C46	C	0.819150	0.000034	-0.479975
C47	C	0.868186	0.059989	-0.450236
C48	C	0.869248	0.059983	-0.377790
C49	C	0.821271	0.000018	-0.335083
C50	C	0.880773	0.000048	-0.603228
C51	C	0.879709	0.000071	-0.675676
C52	C	0.753099	0.000072	-0.658713
C53	C	0.754164	0.000059	-0.586267
C54	C	0.818003	0.000043	-0.558529
C55	C	0.814747	0.000057	0.219479
C56	C	0.815876	0.000073	0.296583
H57	H	0.624763	0.000020	-0.018132
H58	H	0.266280	-0.108773	0.003513
H59	H	0.709601	0.000019	-0.102982
H60	H	0.909173	0.108803	-0.353580
H61	H	0.177877	0.000030	-0.024691
N62	N	0.720517	-0.124615	-0.318743
H63	H	0.671459	-0.102238	-0.324795
H64	H	0.726860	-0.199408	-0.332250
N65	N	0.003879	-0.000023	0.219682
H66	H	0.012779	0.063396	0.247572
H67	H	-0.046214	-0.000082	0.209296
N68	N	0.154439	0.000049	0.221873
H69	H	0.115129	0.000050	0.261479
H70	H	0.184121	-0.063396	0.225061
H71	H	0.462558	0.000031	0.209639
H72	H	0.046445	0.000045	-0.026628
H73	H	0.493333	0.000016	-0.020063
N74	N	0.919926	0.124672	-0.496293
H75	H	0.911812	0.115585	-0.546699
H76	H	0.913623	0.199454	-0.482744
N77	N	0.231426	0.124686	0.192168
H78	H	0.197364	0.078773	0.221557
H79	H	0.261301	0.162672	0.223341
N80	N	0.956179	-0.000016	-0.126427
H81	H	0.983672	0.063423	-0.142736
H82	H	0.947277	-0.000058	-0.073754
N83	N	0.690802	0.000020	-0.241738
H84	H	0.687544	0.063460	-0.271409
H85	H	0.687575	-0.063461	-0.271390
N86	N	0.408998	-0.124635	-0.007224
H87	H	0.379170	-0.162618	-0.038448
H88	H	0.443055	-0.078657	-0.036561
H89	H	0.937377	0.000011	-0.265183
H90	H	0.593984	0.000051	0.211567
N91	N	0.684254	0.000064	-0.688638
H92	H	0.656762	-0.063378	-0.672334
H93	H	0.656820	0.063543	-0.672308
N94	N	0.382004	0.124674	0.194392
H95	H	0.434379	0.115578	0.187787
H96	H	0.370215	0.199458	0.187718
H97	H	0.930825	0.000073	-0.712069
N98	N	0.949623	0.000035	-0.573304
H99	H	0.989227	0.000043	-0.612616
H100	H	0.952825	0.063470	-0.543601
N101	N	0.686464	0.000058	-0.538052
H102	H	0.645864	0.000061	-0.566619
H103	H	0.684143	-0.063386	-0.507635
H104	H	0.731256	-0.108747	-0.461469
