data_functionalizedCrystal
_audit_creation_method	'MofGen! by Chris Wilmer'
_symmetry_space_group_name_H-M	'P1'
_symmetry_Int_Tables_number	1
_symmetry_cell_setting	triclinic
loop_
_symmetry_equiv_pos_as_xyz
  x,y,z
_cell_length_a	12.837943
_cell_length_b	12.837942
_cell_length_c	11.295483
_cell_angle_alpha	94.530417
_cell_angle_beta	85.461227
_cell_angle_gamma	94.828940
loop_
_atom_site_label
_atom_site_type_symbol
_atom_site_fract_x
_atom_site_fract_y
_atom_site_fract_z
O1	O	1.408689	0.265788	-0.099003
O2	O	1.105556	0.252345	-0.099010
O3	O	1.250401	0.107500	-0.098999
O4	O	1.263845	0.410633	-0.099013
O5	O	1.237676	0.120201	0.099051
O6	O	1.092832	0.265045	0.099040
O7	O	1.395965	0.278489	0.099047
Cu8	Cu	1.243237	0.272927	0.117127
Cu9	Cu	1.258285	0.257907	-0.117090
O10	O	1.251121	0.423333	0.099037
C11	C	1.060125	0.254153	0.000014
C12	C	0.943710	0.240609	0.000012
C13	C	0.718835	0.403439	0.000021
C14	C	0.609453	0.390717	0.000020
C15	C	0.615561	0.202446	0.000016
C16	C	0.724943	0.215167	0.000017
C17	C	0.776576	0.315667	0.000018
C18	C	0.885961	0.328387	0.000011
C19	C	0.892066	0.140117	0.000016
C20	C	0.782684	0.127396	0.000015
C21	C	1.239497	0.074781	0.000025
C22	C	1.225953	-0.041634	0.000023
C23	C	1.388784	-0.266509	0.000002
C24	C	1.376062	-0.375892	-0.000000
C25	C	1.187791	-0.369784	0.000008
C26	C	1.200512	-0.260402	0.000010
C27	C	1.301011	-0.208768	0.000009
C28	C	1.313731	-0.099383	0.000020
C29	C	1.125461	-0.093278	0.000019
C30	C	1.112740	-0.202660	0.000017
C31	C	1.441396	0.276680	0.000021
C32	C	1.557812	0.290224	0.000015
C33	C	1.262024	0.456052	0.000010
C34	C	1.275569	0.572467	0.000004
N35	N	1.232661	0.283491	0.281863
N36	N	1.268868	0.247335	-0.281825
C37	C	1.344996	0.171231	0.531161
C38	C	1.337012	0.179223	0.655824
C39	C	1.208702	0.307459	0.655854
C40	C	1.216687	0.299467	0.531191
C41	C	1.284837	0.231353	0.468849
C42	C	1.292826	0.223367	0.344183
C43	C	1.164512	0.351597	0.344216
C44	C	1.156528	0.359589	0.468879
H45	H	0.573495	0.120630	0.000114
C46	C	1.134529	0.381250	0.723498
C47	C	1.031923	0.352089	0.693219
C48	C	0.963561	0.420027	0.755524
H49	H	1.153955	0.450979	0.703134
H50	H	1.138320	0.377374	0.806677
H51	H	1.028136	0.355976	0.610059
H52	H	1.012465	0.282372	0.713586
H53	H	0.967352	0.416151	0.838702
H54	H	0.982997	0.489752	0.735155
H55	H	0.893934	0.400245	0.734997
C56	C	1.418843	0.097235	0.463297
C57	C	1.361361	0.023039	0.391699
C58	C	1.429364	-0.045123	0.329149
H59	H	1.453576	0.062467	0.518113
H60	H	1.469225	0.136101	0.414598
H61	H	1.310998	-0.015822	0.440394
H62	H	1.326630	0.057777	0.336861
H63	H	1.479746	-0.006257	0.280450
H64	H	1.464093	-0.079883	0.383974
H65	H	1.390374	-0.095467	0.280555
H66	H	0.740628	0.045572	0.000028
H67	H	1.115530	0.400555	0.293468
H68	H	0.939091	0.068646	0.000006
H69	H	1.101038	0.415044	0.519653
C70	C	1.422882	-0.043391	-0.000234
C71	C	1.483104	-0.078351	-0.102150
C72	C	1.583656	-0.026788	-0.102439
H73	H	1.455182	-0.058111	0.068743
H74	H	1.417938	0.030028	-0.000296
H75	H	1.488052	-0.151753	-0.102078
H76	H	1.450837	-0.063631	-0.171144
H77	H	1.578712	0.046631	-0.102500
H78	H	1.615946	-0.041511	-0.033457
H79	H	1.624527	-0.050494	-0.171592
H80	H	1.348320	0.167908	0.293425
H81	H	1.447536	-0.422901	-0.000010
C82	C	0.941828	0.437587	0.000076
C83	C	0.867840	0.511732	0.000113
C84	C	0.919261	0.612340	0.000192
H85	H	0.988805	0.442191	-0.068969
H86	H	0.979908	0.450941	0.069169
H87	H	0.829778	0.498382	-0.068973
H88	H	0.820860	0.507161	0.069152
H89	H	0.957341	0.625695	0.069285
H90	H	0.966237	0.616934	-0.068854
H91	H	0.869068	0.662660	0.000228
H92	H	0.760876	0.485269	0.000020
H93	H	0.562444	0.462191	0.000025
H94	H	1.105969	-0.411844	-0.000004
C95	C	1.497931	-0.210512	-0.000242
C96	C	1.558167	-0.245468	-0.102150
C97	C	1.658715	-0.193897	-0.102425
H98	H	1.530225	-0.225227	0.068741
H99	H	1.492982	-0.137094	-0.000306
H100	H	1.563120	-0.318869	-0.102075
H101	H	1.525906	-0.230752	-0.171150
H102	H	1.653766	-0.120479	-0.102489
H103	H	1.690998	-0.208616	-0.033437
H104	H	1.699594	-0.217601	-0.171572
H105	H	1.030916	-0.244716	0.000013
H106	H	1.385998	0.130265	0.706555
H107	H	1.053990	-0.046252	0.000034
