data_functionalizedCrystal
_audit_creation_method	'MofGen! by Chris Wilmer'
_symmetry_space_group_name_H-M	'P1'
_symmetry_Int_Tables_number	1
_symmetry_cell_setting	triclinic
loop_
_symmetry_equiv_pos_as_xyz
  x,y,z
_cell_length_a	11.792241
_cell_length_b	27.732048
_cell_length_c	10.868271
_cell_angle_alpha	89.989927
_cell_angle_beta	89.999893
_cell_angle_gamma	83.418036
loop_
_atom_site_label
_atom_site_type_symbol
_atom_site_fract_x
_atom_site_fract_y
_atom_site_fract_z
O1	O	1.504789	0.066248	-0.102217
O2	O	1.174230	0.073076	-0.102248
O3	O	1.349776	-0.000675	-0.102208
O4	O	1.329243	0.139999	-0.102257
O5	O	1.349762	-0.000678	0.102437
O6	O	1.174215	0.073073	0.102397
O7	O	1.504775	0.066245	0.102427
Zn8	Zn	1.339493	0.069659	0.134904
Zn9	Zn	1.339512	0.069662	-0.134724
O10	O	1.329229	0.139996	0.102388
C11	C	1.131945	0.072645	0.000071
C12	C	1.005973	0.071362	0.000061
C13	C	0.775336	0.069001	0.000097
C14	C	0.903679	0.070313	0.000077
C15	C	1.349338	-0.018686	0.000118
C16	C	1.348040	-0.072348	0.000128
C17	C	1.443606	-0.410609	0.000073
C18	C	1.438790	-0.612297	0.000055
O19	O	1.526178	-0.643045	0.000010
N20	N	1.334698	-0.632024	0.000047
C21	C	1.231803	-0.601327	0.000035
O22	O	1.143157	-0.622734	0.000015
C23	C	1.236620	-0.399640	0.000044
C24	C	1.340718	-0.379915	0.000065
C25	C	1.547695	-0.390884	0.000093
C26	C	1.548898	-0.340465	0.000104
C27	C	1.446011	-0.309771	0.000095
C28	C	1.341921	-0.329496	0.000076
C29	C	1.133726	-0.368943	0.000023
C30	C	1.134940	-0.318519	0.000022
C31	C	1.239038	-0.298794	0.000043
C32	C	1.240237	-0.248384	0.000079
N33	N	1.344328	-0.228656	0.000087
C34	C	1.447215	-0.259350	0.000095
C35	C	1.229282	-0.707215	0.000033
C36	C	1.228077	-0.757637	0.000033
C37	C	1.435065	-0.768603	0.000051
C38	C	1.436268	-0.718181	0.000060
C39	C	1.333374	-0.687488	0.000041
C40	C	1.449733	-0.153466	0.000120
C41	C	1.450927	-0.103042	0.000136
C42	C	1.243941	-0.092080	0.000111
C43	C	1.242746	-0.142500	0.000102
C44	C	1.345652	-0.173192	0.000102
O45	O	1.152896	-0.217607	0.000111
O46	O	1.535849	-0.237933	0.000088
C47	C	1.442403	-0.461028	0.000062
C48	C	1.338313	-0.480753	0.000043
C49	C	1.235426	-0.450060	0.000034
C50	C	1.337108	-0.531175	0.000043
C51	C	1.439996	-0.561868	0.000051
C52	C	1.544087	-0.542141	0.000059
C53	C	1.545290	-0.491722	0.000070
C54	C	1.131334	-0.469787	0.000026
C55	C	1.130140	-0.520207	0.000016
C56	C	1.233027	-0.550900	0.000024
C57	C	1.547059	0.066676	0.000106
C58	C	1.673032	0.067959	0.000108
C59	C	1.329667	0.158007	0.000059
C60	C	1.330965	0.211669	0.000041
N61	N	1.339488	0.069656	0.318918
N62	N	1.339525	0.069662	-0.318738
C63	C	1.339506	0.069661	0.569924
C64	C	1.339492	0.069660	0.430246
H65	H	1.533529	-0.178450	0.000115
O66	O	1.644107	-0.571912	-0.000100
C67	C	1.707354	-0.562930	-0.106098
H68	H	1.678815	-0.524756	-0.141426
H69	H	1.802072	-0.566232	-0.082259
H70	H	1.692318	-0.590538	-0.180322
O71	O	1.032503	-0.388016	-0.000057
C72	C	0.941966	-0.350104	-0.000042
H73	H	0.973189	-0.315770	-0.038772
H74	H	0.869241	-0.360824	-0.059475
H75	H	0.910258	-0.343061	0.098130
O76	O	1.028981	-0.539340	-0.000221
C77	C	0.966327	-0.523657	-0.106203
H78	H	1.027229	-0.513000	-0.180263
H79	H	0.918587	-0.554321	-0.141802
H80	H	0.902501	-0.490969	-0.082244
O81	O	1.650051	-0.321332	-0.000107
C82	C	1.712722	-0.336998	-0.106077
H83	H	1.651831	-0.347638	-0.180158
H84	H	1.760476	-0.306329	-0.141651
H85	H	1.776538	-0.369692	-0.082112
O86	O	1.647620	-0.420715	-0.000115
C87	C	1.653137	-0.450213	-0.106083
H88	H	1.594772	-0.431908	-0.180175
H89	H	1.744661	-0.455624	-0.141642
H90	H	1.624439	-0.486958	-0.082122
O91	O	1.035015	-0.288684	-0.000210
C92	C	1.029538	-0.259172	-0.106177
H93	H	1.087915	-0.277471	-0.180251
H94	H	0.938023	-0.253748	-0.141768
H95	H	1.058246	-0.222433	-0.082204
O96	O	1.537488	-0.699102	0.000013
C97	C	1.628032	-0.737012	0.000055
H98	H	1.596826	-0.771342	-0.038684
H99	H	1.700768	-0.726281	-0.059356
H100	H	1.659720	-0.744066	0.098236
H101	H	1.047549	-0.444801	0.000016
H102	H	1.518839	-0.793603	0.000058
O103	O	1.126856	-0.776714	-0.000028
C104	C	1.036312	-0.738805	-0.000007
H105	H	1.067524	-0.704470	-0.038744
H106	H	0.963584	-0.749529	-0.059432
H107	H	1.004611	-0.731762	0.098167
H108	H	1.157981	-0.158560	0.000119
H109	H	1.160173	-0.067080	0.000109
O110	O	1.129398	-0.677353	0.000186
C111	C	1.123874	-0.647875	0.106189
H112	H	1.213906	-0.645080	0.141529
H113	H	1.080908	-0.610097	0.082349
H114	H	1.072343	-0.664609	0.180402
O115	O	1.646383	-0.472541	0.000298
C116	C	1.653270	-0.443703	0.106270
H117	H	1.594171	-0.455786	0.180347
H118	H	1.744816	-0.447991	0.141851
H119	H	1.626394	-0.404013	0.082308
O120	O	1.552082	-0.083906	-0.000067
C121	C	1.614763	-0.099564	-0.106037
H122	H	1.553879	-0.110207	-0.180123
H123	H	1.662505	-0.068891	-0.141603
H124	H	1.678588	-0.132256	-0.082075
