data_functionalizedCrystal
_audit_creation_method	'MofGen! by Chris Wilmer'
_symmetry_space_group_name_H-M	'P1'
_symmetry_Int_Tables_number	1
_symmetry_cell_setting	triclinic
loop_
_symmetry_equiv_pos_as_xyz
  x,y,z
_cell_length_a	19.805406
_cell_length_b	19.805407
_cell_length_c	16.625527
_cell_angle_alpha	89.938328
_cell_angle_beta	89.925637
_cell_angle_gamma	90.001908
loop_
_atom_site_label
_atom_site_type_symbol
_atom_site_fract_x
_atom_site_fract_y
_atom_site_fract_z
Zn1	Zn	-0.269043	1.035136	-0.456013
Zn2	Zn	-0.382350	1.035021	-0.321207
Zn3	Zn	-0.269184	0.921869	-0.321189
Zn4	Zn	-0.382199	0.921966	-0.455993
O5	O	-0.325694	0.978498	-0.388600
O6	O	-0.284077	1.129837	-0.438147
O7	O	-0.367460	1.019923	-0.208372
O8	O	-0.174449	0.936901	-0.339075
O9	O	-0.367323	1.129753	-0.339105
O10	O	-0.174345	1.020118	-0.438129
O11	O	-0.284318	0.936790	-0.208359
O12	O	-0.284172	0.827165	-0.339055
O13	O	-0.367067	0.937067	-0.568828
O14	O	-0.367203	0.827237	-0.438095
O15	O	-0.283931	1.020212	-0.568843
O16	O	-0.477046	1.020017	-0.339086
O17	O	-0.476936	0.936956	-0.438112
C18	C	-0.325687	0.802642	-0.388571
C19	C	-0.325700	0.727410	-0.388578
C20	C	-0.501550	0.978503	-0.388616
C21	C	-0.576782	0.978567	-0.388650
C22	C	-0.149151	0.978511	-0.388602
C23	C	-0.073919	0.978517	-0.388603
C24	C	-0.282428	0.265666	-0.440282
C25	C	-0.282430	0.336355	-0.440276
C26	C	-0.325704	0.371648	-0.388627
C27	C	-0.368985	0.336250	-0.336985
C28	C	-0.368987	0.265563	-0.336996
C29	C	-0.368980	0.621323	-0.336943
C30	C	-0.368973	0.692015	-0.336935
C31	C	-0.282423	0.692115	-0.440223
C32	C	-0.282425	0.621428	-0.440233
C33	C	-0.325708	0.586036	-0.388595
C34	C	-0.325707	0.509387	-0.388603
C35	C	-0.325702	0.448295	-0.388614
C36	C	-0.038628	0.935196	-0.337033
C37	C	0.032061	0.935200	-0.337042
C38	C	0.067456	0.978530	-0.388617
C39	C	0.032160	1.021853	-0.440193
C40	C	-0.038527	1.021844	-0.440188
C41	C	0.317234	1.021886	-0.440217
C42	C	0.387926	1.021892	-0.440217
C43	C	0.387821	0.935242	-0.337071
C44	C	0.317134	0.935234	-0.337065
C45	C	0.281844	0.978554	-0.388644
C46	C	0.205195	0.978548	-0.388635
C47	C	0.144104	0.978540	-0.388623
C48	C	-0.325872	0.978373	-0.179109
C49	C	-0.325778	0.978433	-0.089488
C50	C	-0.325701	1.155041	-0.388630
C51	C	-0.325705	1.230273	-0.388643
C52	C	-0.325466	0.978663	-0.598910
C53	C	-0.325369	0.978733	-0.688531
C54	C	-0.325446	0.978684	0.238687
C55	C	-0.325541	0.978616	0.147378
C56	C	-0.325613	0.978558	0.074602
C57	C	-0.325706	0.978491	-0.016712
H58	H	-0.247185	0.236935	-0.482336
H59	H	0.416562	0.899966	-0.295075
N60	N	-0.238219	0.372519	-0.493007
N61	N	-0.238220	0.435631	-0.492992
H62	H	-0.206994	0.461173	-0.530234
N63	N	-0.238211	0.585388	-0.492990
N64	N	-0.199574	0.616998	-0.539093
H65	H	-0.168347	0.591546	-0.576356
H66	H	0.060984	1.057130	-0.482192
H67	H	-0.247182	0.720940	-0.482271
N68	N	-0.413182	0.728057	-0.284166
N69	N	-0.451823	0.696450	-0.238064
H70	H	-0.483043	0.721905	-0.200796
H71	H	-0.404222	0.592515	-0.294894
H72	H	-0.404222	0.364991	-0.294935
N73	N	-0.413199	0.229417	-0.284247
N74	N	-0.451835	0.260935	-0.238135
H75	H	-0.483065	0.235408	-0.200881
H76	H	-0.067260	1.057116	-0.482188
N77	N	-0.074770	0.890944	-0.284328
N78	N	-0.043248	0.852272	-0.238282
H79	H	-0.068771	0.821019	-0.201054
H80	H	0.060794	0.899925	-0.295050
H81	H	0.416744	1.057177	-0.482219
H82	H	0.288318	0.899953	-0.295064
H83	H	0.288509	1.057168	-0.482206
