data_functionalizedCrystal
_audit_creation_method	'MofGen! by Chris Wilmer'
_symmetry_space_group_name_H-M	'P1'
_symmetry_Int_Tables_number	1
_symmetry_cell_setting	triclinic
loop_
_symmetry_equiv_pos_as_xyz
  x,y,z
_cell_length_a	13.897449
_cell_length_b	25.639240
_cell_length_c	13.897441
_cell_angle_alpha	90.041488
_cell_angle_beta	90.020733
_cell_angle_gamma	90.034037
loop_
_atom_site_label
_atom_site_type_symbol
_atom_site_fract_x
_atom_site_fract_y
_atom_site_fract_z
Zn1	Zn	1.474602	-0.208116	0.545308
Zn2	Zn	1.474453	-0.295559	0.383979
Zn3	Zn	1.313291	-0.208141	0.384027
Zn4	Zn	1.313230	-0.295524	0.545232
O5	O	1.393894	-0.251835	0.464636
O6	O	1.609564	-0.219720	0.523920
O7	O	1.453038	-0.283987	0.249003
O8	O	1.334776	-0.134973	0.405473
O9	O	1.609454	-0.283963	0.405392
O10	O	1.453291	-0.134954	0.523966
O11	O	1.334633	-0.219762	0.249039
O12	O	1.178301	-0.219729	0.405399
O13	O	1.334673	-0.283905	0.680223
O14	O	1.178257	-0.283929	0.523835
O15	O	1.453232	-0.219686	0.680280
O16	O	1.452979	-0.368719	0.405317
O17	O	1.334529	-0.368694	0.523789
C18	C	1.143280	-0.251828	0.464614
C19	C	1.036066	-0.251838	0.464628
C20	C	0.839771	-0.251840	0.464653
C21	C	0.949003	-0.251837	0.464636
C22	C	1.393758	-0.387678	0.464561
C23	C	1.393788	-0.445792	0.464561
C24	C	1.455635	-0.806107	0.526447
C25	C	1.455663	-0.860711	0.526466
O26	O	1.508086	-0.888907	0.579007
N27	N	1.394028	-0.888074	0.464729
C28	C	1.332353	-0.860830	0.402976
O29	O	1.279929	-0.889119	0.350466
C30	C	1.332320	-0.806227	0.402962
C31	C	1.393967	-0.778867	0.464696
C32	C	1.517276	-0.778747	0.588177
C33	C	1.517248	-0.724146	0.588156
C34	C	1.455580	-0.696906	0.526405
C35	C	1.393939	-0.724266	0.464675
C36	C	1.270641	-0.778984	0.341214
C37	C	1.270613	-0.724377	0.341206
C38	C	1.332260	-0.697017	0.402940
C39	C	1.332244	-0.642425	0.402903
N40	N	1.393879	-0.615062	0.464640
C41	C	1.455548	-0.642302	0.526391
C42	C	1.332425	-0.975501	0.403011
C43	C	1.332461	-1.030103	0.403020
C44	C	1.455771	-1.029980	0.526512
C45	C	1.455739	-0.975377	0.526498
C46	C	1.394060	-0.948138	0.464748
C47	C	1.455486	-0.527637	0.526341
C48	C	1.455456	-0.473032	0.526312
C49	C	1.332143	-0.473160	0.402823
C50	C	1.332176	-0.527760	0.402849
C51	C	1.393851	-0.554998	0.464615
O52	O	1.279845	-0.614195	0.350392
O53	O	1.507954	-0.614007	0.578900
C54	C	1.645487	-0.251843	0.464659
C55	C	1.752701	-0.251846	0.464669
C56	C	1.393962	-0.251789	0.716229
C57	C	1.393992	-0.251769	0.823443
C58	C	1.394057	-0.115462	0.464733
C59	C	1.394127	-0.057348	0.464775
C60	C	1.393881	-0.251843	0.214022
C61	C	1.394039	-0.251716	0.106809
C62	C	1.394018	-0.251734	1.019739
C63	C	1.394000	-0.251755	0.910506
H64	H	1.505659	-0.450757	0.576583
H65	H	1.505983	-1.052169	0.576795
H66	H	1.281986	-0.550038	0.352572
O67	O	1.272495	-1.056597	0.343013
C68	C	1.218083	-1.020838	0.288492
H69	H	1.214708	-0.981898	0.327989
H70	H	1.253444	-1.015049	0.215264
C71	C	1.119582	-1.090025	0.225987
C72	C	1.115430	-1.042199	0.274503
H73	H	1.056262	-1.103202	0.217354
H74	H	1.156242	-1.114116	0.262716
H75	H	1.149054	-1.085194	0.164970
H76	H	1.085969	-1.047032	0.335524
H77	H	1.078762	-1.018109	0.237784
H78	H	1.567493	-0.800920	0.638467
O79	O	1.210695	-0.805608	0.281388
C80	C	1.148364	-0.837180	0.336270
H81	H	1.182365	-0.845319	0.409391
H82	H	1.076879	-0.816154	0.346821
C83	C	1.089152	-0.879079	0.193382
C84	C	1.130916	-0.889079	0.283188
H85	H	1.078385	-0.911092	0.160638
H86	H	1.131143	-0.857807	0.156406
H87	H	1.029586	-0.861556	0.202188
H88	H	1.190487	-0.906595	0.274381
H89	H	1.088935	-0.910355	0.320161
H90	H	1.567443	-0.701872	0.638427
H91	H	1.505936	-0.953103	0.576767
H92	H	1.282202	-0.953325	0.352719
O93	O	1.210665	-0.697998	0.281130
C94	C	1.156248	-0.733861	0.226672
H95	H	1.195784	-0.772765	0.223379
H96	H	1.082978	-0.739688	0.261940
C97	C	1.093816	-0.664827	0.128035
C98	C	1.142379	-0.712609	0.123984
H99	H	1.085257	-0.651718	0.064694
H100	H	1.130475	-0.640665	0.164726
H101	H	1.032763	-0.669689	0.157429
H102	H	1.203435	-0.707745	0.094602
H103	H	1.105730	-0.736770	0.087285
O104	O	1.515483	-0.554010	0.586375
C105	C	1.569855	-0.518143	0.640867
H106	H	1.573193	-0.479242	0.601335
H107	H	1.534484	-0.512311	0.714088
C108	C	1.668423	-0.587172	0.703437
C109	C	1.672529	-0.539393	0.654880
H110	H	1.731756	-0.600280	0.712086
H111	H	1.631789	-0.611336	0.666728
H112	H	1.638942	-0.582305	0.764449
H113	H	1.701998	-0.544261	0.593865
H114	H	1.709170	-0.515230	0.691580
H115	H	1.281936	-0.450972	0.352544
