data_functionalizedCrystal
_audit_creation_method	'MofGen! by Chris Wilmer'
_symmetry_space_group_name_H-M	'P1'
_symmetry_Int_Tables_number	1
_symmetry_cell_setting	triclinic
loop_
_symmetry_equiv_pos_as_xyz
  x,y,z
_cell_length_a	10.489746
_cell_length_b	17.038272
_cell_length_c	9.565339
_cell_angle_alpha	89.998512
_cell_angle_beta	90.005646
_cell_angle_gamma	87.826429
loop_
_atom_site_label
_atom_site_type_symbol
_atom_site_fract_x
_atom_site_fract_y
_atom_site_fract_z
O1	O	1.704362	0.110391	-0.116167
O2	O	1.334136	0.120747	-0.116191
O3	O	1.517049	0.001741	-0.116168
O4	O	1.521450	0.229397	-0.116190
O5	O	1.517058	0.001745	0.116352
O6	O	1.334145	0.120751	0.116329
O7	O	1.704371	0.110395	0.116353
Zn8	Zn	1.519260	0.115573	0.153259
Zn9	Zn	1.519248	0.115569	-0.153096
O10	O	1.521459	0.229401	0.116330
C11	C	1.286536	0.119966	0.000066
C12	C	1.144688	0.117623	0.000058
C13	C	1.513051	-0.027409	0.000092
C14	C	1.501109	-0.114271	0.000090
C15	C	0.984618	0.040516	0.000085
C16	C	1.065622	0.079068	0.114722
C17	C	1.065570	0.079083	-0.114525
C18	C	0.972955	0.152041	0.114824
C19	C	0.972897	0.152044	-0.114526
C20	C	1.053857	0.190650	0.000139
C21	C	1.610747	-0.163749	0.000099
C22	C	1.599519	-0.245365	0.000085
C23	C	1.478652	-0.277501	0.000073
C24	C	1.369006	-0.228016	0.000060
C25	C	1.380235	-0.146402	0.000064
C26	C	1.438981	-0.523489	0.000051
C27	C	1.427760	-0.605109	0.000051
C28	C	1.658275	-0.622452	0.000073
C29	C	1.669493	-0.540835	0.000086
C30	C	1.559847	-0.491358	0.000066
C31	C	1.467172	-0.360925	0.000063
C32	C	1.571328	-0.407936	0.000066
C33	C	1.751972	0.111176	0.000093
C34	C	1.893820	0.113519	0.000092
C35	C	1.525457	0.258551	0.000068
C36	C	1.537398	0.345413	0.000060
N37	N	1.519277	0.115576	0.362338
N38	N	1.519240	0.115560	-0.362176
C39	C	1.603897	0.060543	0.453514
C40	C	1.486920	0.044697	0.546679
C41	C	1.636204	0.131371	0.546729
C42	C	1.402237	0.099695	0.453451
C43	C	1.551601	0.186399	0.453493
C44	C	1.434543	0.170583	0.546615
H45	H	0.953960	-0.022962	0.000207
H46	H	1.084275	0.254176	0.000196
O47	O	1.336815	-0.395595	0.000068
H48	H	1.283692	-0.375779	-0.094707
H49	H	1.578999	0.246282	0.412530
H50	H	1.290956	-0.106117	0.000057
H51	H	1.669738	-0.381767	0.000045
H52	H	1.735103	0.144738	0.587701
O53	O	1.698585	-0.001135	0.399359
H54	H	1.795360	0.011450	0.438342
H55	H	1.303309	0.086260	0.412651
O56	O	1.119455	0.038249	0.243082
H57	H	1.091974	-0.024022	0.242847
O58	O	1.238642	-0.262678	0.000043
H59	H	1.164290	-0.214559	0.000024
H60	H	0.932560	0.182839	0.211853
O61	O	0.919077	0.192827	-0.242919
H62	H	0.855603	0.243205	-0.210670
O63	O	1.339631	0.232217	0.600463
H64	H	1.242689	0.218907	0.562909
H65	H	1.709170	-0.137591	0.000118
O66	O	1.119316	0.038262	-0.242913
H67	H	1.040029	0.015699	-0.306358
O68	O	1.717778	-0.298727	0.000117
H69	H	1.775213	-0.287212	-0.094635
O70	O	1.799857	-0.506173	0.000065
H71	H	1.874212	-0.554291	0.000048
H72	H	1.747542	-0.662745	0.000087
O73	O	1.297391	-0.639775	0.000022
H74	H	1.223032	-0.591660	-0.000007
H75	H	1.349699	-0.483214	0.000035
O76	O	1.450674	-0.034641	0.600931
H77	H	1.521071	-0.080217	0.563661
