data_functionalizedCrystal
_audit_creation_method	'MofGen! by Chris Wilmer'
_symmetry_space_group_name_H-M	'P1'
_symmetry_Int_Tables_number	1
_symmetry_cell_setting	triclinic
loop_
_symmetry_equiv_pos_as_xyz
  x,y,z
_cell_length_a	8.497365
_cell_length_b	21.395364
_cell_length_c	21.395361
_cell_angle_alpha	89.970959
_cell_angle_beta	90.058682
_cell_angle_gamma	89.965426
loop_
_atom_site_label
_atom_site_type_symbol
_atom_site_fract_x
_atom_site_fract_y
_atom_site_fract_z
Zn1	Zn	-0.891963	0.957920	0.249309
Zn2	Zn	-0.391963	1.457920	0.749309
Zn3	Zn	-0.628132	0.957804	0.354137
Zn4	Zn	-0.128132	1.457804	0.854137
Zn5	Zn	-0.628181	0.853117	0.249374
Zn6	Zn	-0.128181	1.353117	0.749374
Zn7	Zn	-0.891855	0.853104	0.354050
Zn8	Zn	-0.391855	1.353104	0.854050
O9	O	-0.760033	0.905486	0.301718
O10	O	-0.260033	1.405486	0.801718
O11	O	-0.856990	1.045583	0.263224
O12	O	-0.356990	1.545583	0.763224
O13	O	-0.407376	0.943874	0.340304
O14	O	0.092624	1.443874	0.840304
O15	O	-0.663238	0.867073	0.161688
O16	O	-0.163238	1.367073	0.661688
O17	O	-0.663155	1.045498	0.340241
O18	O	-0.163155	1.545498	0.840241
O19	O	-0.857038	0.944071	0.161640
O20	O	-0.357038	1.444071	0.661640
O21	O	-0.407411	0.866961	0.263335
O22	O	0.092589	1.366961	0.763335
O23	O	-0.663133	0.765437	0.263250
O24	O	-0.163133	1.265437	0.763250
O25	O	-1.112632	0.867051	0.340092
O26	O	-0.612632	1.367051	0.840092
O27	O	-0.856853	0.765428	0.340155
O28	O	-0.356853	1.265428	0.840155
O29	O	-1.112711	0.944059	0.263140
O30	O	-0.612711	1.444059	0.763140
O31	O	-0.663049	0.943862	0.441803
O32	O	-0.163049	1.443862	0.941803
O33	O	-0.856805	0.866939	0.441739
O34	O	-0.356805	1.366939	0.941739
C35	C	-0.759987	0.742699	0.301701
C36	C	-0.259987	1.242699	0.801701
C37	C	-0.760005	0.673058	0.301709
C38	C	-0.260005	1.173058	0.801709
C39	C	-0.759945	0.905404	0.464505
C40	C	-0.259945	1.405404	0.964505
C41	C	-0.759960	0.905426	0.534146
C42	C	-0.259960	1.405426	1.034146
C43	C	-0.860805	0.171273	0.341835
C44	C	-0.360805	0.671273	0.841835
C45	C	-0.860788	0.236708	0.341835
C46	C	-0.360788	0.736708	0.841835
C47	C	-0.760083	0.269419	0.301731
C48	C	-0.260083	0.769419	0.801731
C49	C	-0.659357	0.236689	0.261635
C50	C	-0.159357	0.736689	0.761635
C51	C	-0.659365	0.171255	0.261641
C52	C	-0.159365	0.671255	0.761641
C53	C	-0.747875	0.373107	0.245269
C54	C	-0.247875	0.873107	0.745269
C55	C	-0.747878	0.438540	0.245263
C56	C	-0.247878	0.938540	0.745263
C57	C	-0.760048	0.471240	0.301715
C58	C	-0.260048	0.971240	0.801715
C59	C	-0.772248	0.438499	0.358175
C60	C	-0.272248	0.938499	0.858175
C61	C	-0.772257	0.373065	0.358181
C62	C	-0.272257	0.873065	0.858181
C63	C	-0.760062	0.340372	0.301721
C64	C	-0.260062	0.840372	0.801721
C65	C	-0.860741	0.574915	0.341811
C66	C	-0.360741	1.074915	0.841811
C67	C	-0.860714	0.640351	0.341813
C68	C	-0.360714	1.140351	0.841813
C69	C	-0.659291	0.640331	0.261607
C70	C	-0.159291	1.140331	0.761607
C71	C	-0.659310	0.574896	0.261611
C72	C	-0.159310	1.074896	0.761611
C73	C	-0.760044	0.542191	0.301713
C74	C	-0.260044	1.042191	0.801713
C75	C	-0.350152	0.905441	0.301786
C76	C	0.149848	1.405441	0.801786
C77	C	-0.171509	0.905530	0.301657
C78	C	0.328491	1.405530	0.801657
C79	C	-0.760079	1.068910	0.301735
C80	C	-0.260079	1.568910	0.801735
C81	C	-0.760099	1.138551	0.301742
C82	C	-0.260099	1.638551	0.801742
C83	C	-0.760155	0.905587	0.138294
C84	C	-0.260155	1.405587	0.638294
C85	C	-0.760207	0.905629	0.068653
C86	C	-0.260207	1.405629	0.568653
C87	C	-0.659175	0.945515	0.566872
C88	C	-0.159175	1.445515	1.066872
C89	C	-0.659210	0.945544	0.632307
C90	C	-0.159210	1.445544	1.132307
C91	C	-0.760014	0.905473	0.665015
C92	C	-0.260014	1.405473	1.165015
C93	C	-0.860819	0.865381	0.632281
C94	C	-0.360819	1.365381	1.132281
C95	C	-0.860792	0.865357	0.566847
C96	C	-0.360792	1.365357	1.066847
C97	C	-0.772376	0.849059	0.768725
C98	C	-0.272376	1.349059	1.268725
C99	C	-0.772392	0.849081	0.834158
C100	C	-0.272392	1.349081	1.334158
C101	C	-0.760107	0.905546	0.866835
C102	C	-0.260107	1.405546	1.366835
C103	C	-0.747772	0.961989	0.834072
C104	C	-0.247772	1.461989	1.334072
C105	C	-0.747745	0.961966	0.768638
C106	C	-0.247745	1.461966	1.268638
C107	C	-0.760055	0.905494	0.735967
C108	C	-0.260055	1.405494	1.235967
C109	C	-0.659354	0.945670	0.970514
C110	C	-0.159354	1.445670	1.470514
C111	C	-0.659400	0.945700	1.035950
C112	C	-0.159400	1.445700	1.535950
C113	C	-0.861001	0.865531	1.035923
C114	C	-0.361001	1.365531	1.535923
C115	C	-0.860963	0.865507	0.970487
C116	C	-0.360963	1.365507	1.470487
C117	C	-0.760131	0.905575	0.937787
C118	C	-0.260131	1.405575	1.437787
H119	H	-0.942825	0.144649	0.374491
H120	H	-0.442825	0.644649	0.874491
O121	O	-0.550435	0.988739	0.531607
O122	O	-0.050435	1.488739	1.031607
H123	H	-0.470083	0.960697	0.501860
H124	H	0.029917	1.460697	1.001860
O125	O	-0.785370	0.337754	0.419076
O126	O	-0.285370	0.837754	0.919076
H127	H	-0.897488	0.350332	0.442496
H128	H	-0.397488	0.850332	0.942496
H129	H	-0.577359	0.263327	0.228983
H130	H	-0.077359	0.763327	0.728983
O131	O	-0.969350	0.675645	0.385056
O132	O	-0.469350	1.175645	0.885056
H133	H	-0.898605	0.705420	0.416918
H134	H	-0.398605	1.205420	0.916918
H135	H	-0.942801	0.263356	0.374484
H136	H	-0.442801	0.763356	0.874484
O137	O	-0.550756	0.135956	0.218391
O138	O	-0.050756	0.635956	0.718391
H139	H	-0.480728	0.169692	0.190500
H140	H	0.019272	0.669692	0.690500
H141	H	-0.782170	0.465121	0.404143
H142	H	-0.282170	0.965121	0.904143
H143	H	-0.737768	1.007968	0.860676
H144	H	-0.237768	1.507968	1.360676
O145	O	-0.550489	0.988779	0.667617
O146	O	-0.050489	1.488779	1.167617
H147	H	-0.480363	1.016633	0.633885
H148	H	0.019637	1.516633	1.133885
H149	H	-0.943026	0.832860	0.943840
H150	H	-0.443026	1.332860	1.443840
O151	O	-0.734718	0.337844	0.184376
O152	O	-0.234718	0.837844	0.684376
H153	H	-0.736746	0.286844	0.193865
H154	H	-0.236746	0.786844	0.693865
O155	O	-0.550692	0.539596	0.218368
O156	O	-0.050692	1.039596	0.718368
H157	H	-0.621444	0.509810	0.186519
H158	H	-0.121444	1.009810	0.686519
O159	O	-0.969320	0.539633	0.385085
O160	O	-0.469320	1.039633	0.885085
H161	H	-1.039312	0.573383	0.412979
H162	H	-0.539312	1.073383	0.912979
O163	O	-0.550669	0.675601	0.218348
O164	O	-0.050669	1.175601	0.718348
H165	H	-0.567586	0.726600	0.225077
H166	H	-0.067586	1.226600	0.725077
H167	H	-0.737962	0.465193	0.199289
H168	H	-0.237962	0.965193	0.699289
H169	H	-0.737706	1.007923	0.741963
H170	H	-0.237706	1.507923	1.241963
H171	H	-0.577255	0.978298	0.943888
H172	H	-0.077255	1.478298	1.443888
O173	O	-0.969735	0.822312	1.071191
O174	O	-0.469735	1.322312	1.571191
H175	H	-0.942565	0.773137	1.058683
H176	H	-0.442565	1.273137	1.558683
O177	O	-0.550689	0.988940	1.071252
O178	O	-0.050689	1.488940	1.571252
H179	H	-0.480563	1.016791	1.037518
H180	H	0.019437	1.516791	1.537518
H181	H	-0.782420	0.803121	0.860829
H182	H	-0.282420	1.303121	1.360829
O183	O	-0.785618	0.788154	0.733481
O184	O	-0.285618	1.288154	1.233481
H185	H	-0.794170	0.748911	0.767255
H186	H	-0.294170	1.248911	1.267255
O187	O	-0.969530	0.822152	0.667552
O188	O	-0.469530	1.322152	1.167552
H189	H	-0.952601	0.828897	0.718552
H190	H	-0.452601	1.328897	1.218552
O191	O	-0.969470	0.822105	0.531544
O192	O	-0.469470	1.322105	1.031544
H193	H	-1.039564	0.794240	0.565277
H194	H	-0.539564	1.294240	1.065277
