data_functionalizedCrystal
_audit_creation_method	'MofGen! by Chris Wilmer'
_symmetry_space_group_name_H-M	'P1'
_symmetry_Int_Tables_number	1
_symmetry_cell_setting	triclinic
loop_
_symmetry_equiv_pos_as_xyz
  x,y,z
_cell_length_a	16.959455
_cell_length_b	25.639239
_cell_length_c	16.959447
_cell_angle_alpha	90.033076
_cell_angle_beta	90.014322
_cell_angle_gamma	90.035633
loop_
_atom_site_label
_atom_site_type_symbol
_atom_site_fract_x
_atom_site_fract_y
_atom_site_fract_z
Zn1	Zn	1.208282	-0.208183	0.446894
Zn2	Zn	1.708282	0.291817	0.946894
Zn3	Zn	1.208161	-0.295624	0.314709
Zn4	Zn	1.708161	0.204376	0.814709
Zn5	Zn	1.076110	-0.208199	0.314731
Zn6	Zn	1.576110	0.291801	0.814731
Zn7	Zn	1.076032	-0.295585	0.446847
Zn8	Zn	1.576032	0.204415	0.946847
O9	O	1.142146	-0.251898	0.380795
O10	O	1.642146	0.248102	0.880795
O11	O	1.318876	-0.219792	0.429369
O12	O	1.818876	0.280208	0.929369
O13	O	1.190627	-0.284050	0.204101
O14	O	1.690627	0.215950	0.704101
O15	O	1.093726	-0.135032	0.332291
O16	O	1.593726	0.364968	0.832291
O17	O	1.318788	-0.284034	0.332253
O18	O	1.818788	0.215966	0.832253
O19	O	1.190832	-0.135020	0.429391
O20	O	1.690832	0.364980	0.929391
O21	O	1.093609	-0.219820	0.204117
O22	O	1.593609	0.280180	0.704117
O23	O	0.965489	-0.219782	0.332247
O24	O	1.465489	0.280218	0.832247
O25	O	1.093593	-0.283967	0.557464
O26	O	1.593593	0.216033	1.057464
O27	O	0.965431	-0.283983	0.429312
O28	O	1.465431	0.216017	0.929312
O29	O	1.190756	-0.219754	0.557498
O30	O	1.690756	0.280246	1.057498
O31	O	1.190551	-0.368784	0.332208
O32	O	1.690551	0.131216	0.832208
O33	O	1.093476	-0.368755	0.429290
O34	O	1.593476	0.131245	0.929290
C35	C	0.936780	-0.251880	0.380777
C36	C	1.436780	0.248120	0.880777
C37	C	0.848923	-0.251886	0.380788
C38	C	1.348923	0.248114	0.880788
C39	C	0.477453	-0.218441	0.330359
C40	C	0.977453	0.281559	0.830359
C41	C	0.477442	-0.285398	0.431277
C42	C	0.977442	0.214602	0.931277
C43	C	0.559988	-0.285390	0.431272
C44	C	1.059988	0.214610	0.931272
C45	C	0.601270	-0.251908	0.380809
C46	C	1.101270	0.248092	0.880809
C47	C	0.560007	-0.218433	0.330351
C48	C	1.060007	0.281567	0.830351
C49	C	0.601258	-0.318868	0.481723
C50	C	1.101258	0.181132	0.981723
C51	C	0.683809	-0.318863	0.481720
C52	C	1.183809	0.181137	0.981720
C53	C	0.725092	-0.285377	0.431260
C54	C	1.225092	0.214623	0.931260
C55	C	0.683824	-0.251901	0.380801
C56	C	1.183824	0.248099	0.880801
C57	C	0.725106	-0.218418	0.330338
C58	C	1.225106	0.281582	0.830338
C59	C	0.683839	-0.184939	0.279882
C60	C	1.183839	0.315061	0.779882
C61	C	0.601290	-0.184948	0.279891
C62	C	1.101290	0.315052	0.779891
C63	C	0.807641	-0.285368	0.431251
C64	C	1.307641	0.214632	0.931251
C65	C	0.807660	-0.218411	0.330330
C66	C	1.307660	0.281589	0.830330
C67	C	1.142013	-0.387740	0.380759
C68	C	1.642013	0.112260	0.880759
C69	C	1.142029	-0.445854	0.380770
C70	C	1.642029	0.054146	0.880770
C71	C	1.192825	-0.806220	0.330331
C72	C	1.692825	-0.306220	0.830331
C73	C	1.192855	-0.860824	0.330341
C74	C	1.692855	-0.360824	0.830341
O75	O	1.235906	-0.889063	0.287417
O76	O	1.735906	-0.389063	0.787417
N77	N	1.142285	-0.888137	0.380847
N78	N	1.642285	-0.388137	0.880847
C79	C	1.091686	-0.860842	0.431352
C80	C	1.591686	-0.360842	0.931352
O81	O	1.048675	-0.889088	0.474313
O82	O	1.548675	-0.389088	0.974313
C83	C	1.091660	-0.806239	0.431345
C84	C	1.591660	-0.306239	0.931345
C85	C	1.142228	-0.778929	0.380830
C86	C	1.642228	-0.278929	0.880830
C87	C	1.243389	-0.778910	0.279820
C88	C	1.743389	-0.278910	0.779820
C89	C	1.243358	-0.724309	0.279809
C90	C	1.743358	-0.224309	0.779809
C91	C	1.192761	-0.697019	0.330308
C92	C	1.692761	-0.197019	0.830308
C93	C	1.142196	-0.724329	0.380818
C94	C	1.642196	-0.224329	0.880818
C95	C	1.041066	-0.778946	0.481853
C96	C	1.541066	-0.278946	0.981853
C97	C	1.041045	-0.724339	0.481842
C98	C	1.541045	-0.224339	0.981842
C99	C	1.091613	-0.697029	0.431326
C100	C	1.591613	-0.197029	0.931326
C101	C	1.091568	-0.642437	0.431306
C102	C	1.591568	-0.142437	0.931306
N103	N	1.142139	-0.615125	0.380800
N104	N	1.642139	-0.115125	0.880800
C105	C	1.192735	-0.642415	0.330301
C106	C	1.692735	-0.142415	0.830301
C107	C	1.091746	-0.975513	0.431364
C108	C	1.591746	-0.475513	0.931364
C109	C	1.091767	-1.030115	0.431368
C110	C	1.591767	-0.530115	0.931368
C111	C	1.192938	-1.030093	0.330358
C112	C	1.692938	-0.530093	0.830358
C113	C	1.192912	-0.975490	0.330351
C114	C	1.692912	-0.475490	0.830351
C115	C	1.142316	-0.948200	0.380858
C116	C	1.642316	-0.448200	0.880858
C117	C	1.192664	-0.527750	0.330280
C118	C	1.692664	-0.027750	0.830280
C119	C	1.192625	-0.473145	0.330271
C120	C	1.692625	0.026855	0.830271
C121	C	1.091458	-0.473172	0.431283
C122	C	1.591458	0.026828	0.931283
C123	C	1.091493	-0.527772	0.431290
C124	C	1.591493	-0.027772	0.931290
C125	C	1.142103	-0.555060	0.380786
C126	C	1.642103	-0.055060	0.880786
O127	O	1.048541	-0.614164	0.474211
O128	O	1.548541	-0.114164	0.974211
O129	O	1.235746	-0.614163	0.287355
O130	O	1.735746	-0.114163	0.787355
C131	C	1.348314	-0.251915	0.380814
C132	C	1.848314	0.248085	0.880814
C133	C	1.436171	-0.251923	0.380822
C134	C	1.936171	0.248077	0.880822
C135	C	1.142179	-0.251854	0.586963
C136	C	1.642179	0.248146	1.086963
C137	C	1.142193	-0.251836	0.674820
C138	C	1.642193	0.248164	1.174820
C139	C	1.142301	-0.115525	0.380849
C140	C	1.642301	0.384475	0.880849
C141	C	1.142367	-0.057411	0.380872
C142	C	1.642367	0.442589	0.880872
C143	C	1.142159	-0.251903	0.175429
C144	C	1.642159	0.248097	0.675429
C145	C	1.142298	-0.251774	0.087573
C146	C	1.642298	0.248226	0.587573
C147	C	1.091699	-0.285214	1.046281
C148	C	1.591699	0.214786	1.546281
C149	C	1.192876	-0.218348	1.046311
C150	C	1.692876	0.281652	1.546311
C151	C	1.192855	-0.218359	0.963765
C152	C	1.692855	0.281641	1.463765
C153	C	1.142256	-0.251799	0.922473
C154	C	1.642256	0.248201	1.422473
C155	C	1.091678	-0.285227	0.963727
C156	C	1.591678	0.214773	1.463727
C157	C	1.243438	-0.184935	0.922505
C158	C	1.743438	0.315065	1.422505
C159	C	1.243419	-0.184945	0.839954
C160	C	1.743419	0.315055	1.339954
C161	C	1.192816	-0.218382	0.798661
C162	C	1.692816	0.281618	1.298661
C163	C	1.142235	-0.251812	0.839920
C164	C	1.642235	0.248188	1.339920
C165	C	1.091636	-0.285251	0.798628
C166	C	1.591636	0.214749	1.298628
C167	C	1.041051	-0.318679	0.839885
C168	C	1.541051	0.181321	1.339885
C169	C	1.041074	-0.318665	0.922433
C170	C	1.541074	0.181335	1.422433
C171	C	1.192792	-0.218396	0.716112
C172	C	1.692792	0.281604	1.216112
C173	C	1.091615	-0.285265	0.716074
C174	C	1.591615	0.214735	1.216074
H175	H	0.717462	-0.157680	0.238791
H176	H	1.217462	0.342320	0.738791
H177	H	0.443850	-0.191181	0.289281
H178	H	0.943850	0.308819	0.789281
H179	H	1.284596	-0.801124	0.238698
H180	H	1.784596	-0.301124	0.738698
H181	H	0.841237	-0.312628	0.472329
H182	H	1.341237	0.187372	0.972329
C183	C	1.299081	-0.148148	0.967926
C184	C	1.799081	0.351852	1.467926
H185	H	1.291837	-0.152922	1.022997
H186	H	1.791837	0.347078	1.522997
H187	H	1.352182	-0.155800	0.954404
H188	H	1.852182	0.344200	1.454404
H189	H	1.287536	-0.113020	0.954408
H190	H	1.787536	0.386980	1.454408
H191	H	1.234089	-0.953257	0.289218
H192	H	1.734089	-0.453257	0.789218
H193	H	1.234139	-1.052323	0.289242
H194	H	1.734139	-0.552323	0.789242
C195	C	0.555896	-0.148132	0.224385
C196	C	1.055896	0.351868	0.724385
H197	H	0.500821	-0.152938	0.231610
H198	H	1.000821	0.347062	0.731610
H199	H	0.569447	-0.113008	0.236040
H200	H	1.069447	0.386992	0.736040
H201	H	0.569405	-0.155747	0.171254
H202	H	1.069405	0.344253	0.671254
C203	C	1.036138	-1.060150	0.486929
C204	C	1.536138	-0.560150	0.986929
H205	H	1.006007	-1.036072	0.517004
H206	H	1.506007	-0.536072	1.017004
H207	H	1.001727	-1.081489	0.456672
H208	H	1.501727	-0.581489	0.956672
H209	H	1.066368	-1.081413	0.521407
H210	H	1.566368	-0.581413	1.021407
H211	H	1.050538	-0.953296	0.472491
H212	H	1.550538	-0.453296	0.972491
C213	C	0.985446	-0.808975	0.537426
C214	C	1.485446	-0.308975	1.037426
H215	H	0.955321	-0.784894	0.567503
H216	H	1.455321	-0.284894	1.067503
H217	H	0.951028	-0.830313	0.507175
H218	H	1.451028	-0.330313	1.007175
H219	H	1.015679	-0.830237	0.571901
H220	H	1.515679	-0.330237	1.071901
C221	C	1.248327	-0.557759	0.274721
C222	C	1.748327	-0.057759	0.774721
H223	H	1.278427	-0.533668	0.244636
H224	H	1.778427	-0.033668	0.744636
H225	H	1.282765	-0.579025	0.304983
H226	H	1.782765	-0.079025	0.804983
H227	H	1.218118	-0.579093	0.240253
H228	H	1.718118	-0.079093	0.740253
C229	C	0.555852	-0.355638	0.537317
C230	C	1.055852	0.144362	1.037317
H231	H	0.592250	-0.375561	0.567386
H232	H	1.092250	0.124439	1.067386
H233	H	0.523725	-0.335612	0.571784
H234	H	1.023725	0.164388	1.071784
H235	H	0.523574	-0.378417	0.507099
H236	H	1.023574	0.121583	1.007099
C237	C	1.248526	-0.181565	1.091730
C238	C	1.748526	0.318435	1.591730
H239	H	1.241290	-0.186342	1.146802
H240	H	1.741290	0.313658	1.646802
H241	H	1.301624	-0.189217	1.078199
H242	H	1.801624	0.310783	1.578199
H243	H	1.236982	-0.146435	1.078220
H244	H	1.736982	0.353565	1.578220
H245	H	0.999845	-0.702122	0.522973
H246	H	1.499845	-0.202122	1.022973
C247	C	1.298993	-0.694275	0.224252
C248	C	1.798993	-0.194275	0.724252
H249	H	1.329133	-0.718355	0.194189
H250	H	1.829133	-0.218355	0.694189
H251	H	1.268779	-0.673007	0.189775
H252	H	1.768779	-0.173007	0.689775
H253	H	1.333407	-0.672942	0.254523
H254	H	1.833407	-0.172942	0.754523
C255	C	1.036062	-0.321983	1.091658
C256	C	1.536062	0.178017	1.591658
H257	H	1.043321	-0.317189	1.146736
H258	H	1.543321	0.182811	1.646736
H259	H	0.982959	-0.314330	1.078131
H260	H	1.482959	0.185670	1.578131
H261	H	1.047594	-0.357117	1.078112
H262	H	1.547594	0.142883	1.578112
C263	C	1.035869	-0.557814	0.486853
C264	C	1.535869	-0.057814	0.986853
H265	H	1.005735	-0.533739	0.516929
H266	H	1.505735	-0.033739	1.016929
H267	H	1.001461	-0.579157	0.456598
H268	H	1.501461	-0.079157	0.956598
H269	H	1.066106	-0.579074	0.521330
H270	H	1.566106	-0.079074	1.021330
C271	C	1.299053	-0.148173	0.794578
C272	C	1.799053	0.351827	1.294578
H273	H	1.329186	-0.128254	0.830994
H274	H	1.829186	0.371746	1.330994
H275	H	1.333462	-0.168178	0.762360
H276	H	1.833462	0.331822	1.262360
H277	H	1.268825	-0.125392	0.762393
H278	H	1.768825	0.374608	1.262393
H279	H	1.050260	-0.450943	0.472397
H280	H	1.550260	0.049057	0.972397
H281	H	0.999893	-0.345881	0.956033
H282	H	1.499893	0.154119	1.456033
H283	H	0.443825	-0.312661	0.472356
H284	H	0.943825	0.187339	0.972356
C285	C	0.729195	-0.355683	0.537225
C286	C	1.229195	0.144317	1.037225
H287	H	0.692785	-0.375622	0.567283
H288	H	1.192785	0.124378	1.067283
H289	H	0.761376	-0.378436	0.506929
H290	H	1.261376	0.121564	1.006929
H291	H	0.761418	-0.335702	0.571721
H292	H	1.261418	0.164298	1.071721
H293	H	1.233980	-0.191182	0.682524
H294	H	1.733980	0.308818	1.182524
H295	H	1.050403	-0.312491	0.682460
H296	H	1.550403	0.187509	1.182460
H297	H	1.233804	-0.450911	0.289133
H298	H	1.733804	0.049089	0.789133
C299	C	0.985412	-0.355473	0.794462
C300	C	1.485412	0.144527	1.294462
H301	H	0.955297	-0.375385	0.830851
H302	H	1.455297	0.124615	1.330851
H303	H	0.950987	-0.335485	0.762255
H304	H	1.450987	0.164515	1.262255
H305	H	1.015641	-0.378260	0.762262
H306	H	1.515641	0.121740	1.262262
C307	C	0.853064	-0.181579	0.274821
C308	C	1.353064	0.318421	0.774821
H309	H	0.816663	-0.161645	0.244772
H310	H	1.316663	0.338355	0.744772
H311	H	0.885297	-0.158822	0.305116
H312	H	1.385297	0.341178	0.805116
H313	H	0.885236	-0.201551	0.240316
H314	H	1.385236	0.298449	0.740316
