data_functionalizedCrystal
_audit_creation_method	'MofGen! by Chris Wilmer'
_symmetry_space_group_name_H-M	'P1'
_symmetry_Int_Tables_number	1
_symmetry_cell_setting	triclinic
loop_
_symmetry_equiv_pos_as_xyz
  x,y,z
_cell_length_a	10.654550
_cell_length_b	8.559649
_cell_length_c	9.130313
_cell_angle_alpha	90.000859
_cell_angle_beta	89.996220
_cell_angle_gamma	77.131784
loop_
_atom_site_label
_atom_site_type_symbol
_atom_site_fract_x
_atom_site_fract_y
_atom_site_fract_z
O1	O	1.644677	0.224178	-0.121910
O2	O	1.276992	0.245536	-0.121886
O3	O	1.493228	0.002614	-0.121899
O4	O	1.428441	0.467100	-0.121898
O5	O	1.493225	0.002621	0.121700
O6	O	1.276989	0.245543	0.121713
O7	O	1.644674	0.224184	0.121688
Cu8	Cu	1.460831	0.234864	0.143943
Cu9	Cu	1.460835	0.234856	-0.144141
O10	O	1.428438	0.467107	0.121701
C11	C	1.230355	0.243972	-0.000084
C12	C	1.091396	0.239279	-0.000075
C13	C	0.997136	0.382308	-0.000096
C14	C	0.866571	0.377890	-0.000121
C15	C	0.924542	0.087401	-0.000111
C16	C	1.055103	0.091821	-0.000075
C17	C	0.963666	0.550020	-0.000108
C18	C	0.833101	0.545601	-0.000133
C19	C	1.498136	-0.056858	-0.000103
C20	C	1.512750	-0.234076	-0.000112
C21	C	1.691311	0.225749	-0.000117
C22	C	1.830270	0.230441	-0.000136
C23	C	1.423530	0.526579	-0.000098
C24	C	1.408916	0.703797	-0.000099
N25	N	1.460838	0.234869	0.346566
N26	N	1.460839	0.234839	-0.346763
C27	C	1.556605	0.127340	0.423212
C28	C	1.556604	0.127320	0.576549
C29	C	1.365062	0.342374	0.576580
C30	C	1.365060	0.342384	0.423245
C31	C	1.667194	0.003185	0.423195
C32	C	1.667192	0.003166	0.576532
H33	H	0.894975	-0.032654	-0.000133
H34	H	1.612835	-0.316473	-0.000107
O35	O	1.271962	0.446979	0.349018
C36	C	1.187413	0.541840	0.449582
H37	H	1.238667	0.544256	0.558878
H38	H	1.155960	0.669086	0.405290
H39	H	1.099246	0.488888	0.465896
H40	H	1.308838	-0.213815	-0.000088
O41	O	1.272001	0.446593	0.651233
C42	C	1.202850	0.360179	0.739892
H43	H	1.264863	0.235867	0.762845
H44	H	1.176577	0.426553	0.847727
H45	H	1.111194	0.348239	0.680801
H46	H	1.658424	-0.119498	0.381577
H47	H	1.760879	0.030513	0.618142
O48	O	1.146783	-0.047012	-0.000239
C49	C	1.224057	-0.053189	-0.126397
H50	H	1.218468	0.073569	-0.168467
H51	H	1.328126	-0.111554	-0.097991
H52	H	1.188064	-0.126578	-0.214747
H53	H	1.754362	0.042059	0.375631
O54	O	1.644872	-0.135010	0.633323
C55	C	1.532709	-0.099933	0.720227
H56	H	1.469466	0.019525	0.684428
H57	H	1.477392	-0.198677	0.706386
H58	H	1.560569	-0.092286	0.840136
O59	O	0.990572	0.628032	0.121667
C60	C	0.962505	0.546767	0.247597
H61	H	0.965158	0.416464	0.218866
H62	H	1.037062	0.551665	0.336029
H63	H	0.862603	0.606457	0.289729
O64	O	0.999517	0.614001	-0.125488
C65	C	0.926927	0.772196	-0.141967
H66	H	0.889967	0.821942	-0.030384
H67	H	0.990268	0.849974	-0.191050
H68	H	0.841849	0.772593	-0.217793
O69	O	0.772365	0.605777	0.125417
C70	C	0.721697	0.486390	0.195247
H71	H	0.777021	0.363125	0.157957
H72	H	0.731375	0.497159	0.318978
H73	H	0.615726	0.502347	0.165274
O74	O	0.775419	0.620749	-0.121807
C75	C	0.723671	0.511900	-0.205722
H76	H	0.706347	0.411110	-0.132230
H77	H	0.628618	0.577015	-0.256466
H78	H	0.794201	0.459560	-0.296326
