data_functionalizedCrystal
_audit_creation_method	'MofGen! by Chris Wilmer'
_symmetry_space_group_name_H-M	'P1'
_symmetry_Int_Tables_number	1
_symmetry_cell_setting	triclinic
loop_
_symmetry_equiv_pos_as_xyz
  x,y,z
_cell_length_a	6.817900
_cell_length_b	11.020367
_cell_length_c	9.514072
_cell_angle_alpha	90.709130
_cell_angle_beta	118.843421
_cell_angle_gamma	72.704380
loop_
_atom_site_label
_atom_site_type_symbol
_atom_site_fract_x
_atom_site_fract_y
_atom_site_fract_z
V1	V	-4.154787	0.397252	-0.222207
O2	O	-4.052584	0.388665	0.010675
O3	O	-4.189370	0.395520	-0.440596
O4	O	-4.123926	0.570057	-0.218790
O5	O	-4.118481	0.212920	-0.212666
V6	V	-4.625389	0.375084	-0.194351
O7	O	-4.444387	0.445878	-0.283310
O8	O	-4.785986	0.326459	-0.133248
O9	O	-4.367600	0.376816	0.024038
O10	O	-4.844989	0.383671	-0.427233
O11	O	-4.779092	0.559416	-0.203892
O12	O	-4.433044	0.202279	-0.197768
C13	C	-4.053990	0.389508	-0.493835
C14	C	-4.163669	0.389244	-0.672371
C15	C	-4.249805	0.160184	-0.205666
C16	C	-4.172439	0.018907	-0.207007
C17	C	-3.936864	-0.018724	0.087150
C18	C	-3.782731	-0.103910	0.233594
C19	C	-3.710053	-0.236651	0.232329
C20	C	-3.791523	-0.284208	0.084605
C21	C	-3.945655	-0.199023	-0.061839
C22	C	-4.018317	-0.066280	-0.060559
C23	C	-4.181241	-0.161393	-0.355992
C24	C	-4.253910	-0.028650	-0.354732
C25	C	-4.262712	-0.208950	-0.503717
C26	C	-4.416834	-0.123763	-0.650165
C27	C	-4.489510	0.008986	-0.648894
C28	C	-4.408042	0.056535	-0.501176
C29	C	-3.970508	0.612146	-0.210897
C30	C	-4.027109	0.753422	-0.209548
C31	C	-4.166324	0.382825	0.077268
C32	C	-4.035885	0.383097	0.255803
H33	H	-4.357017	0.394349	-0.747481
H34	H	-3.732356	-0.392296	0.083589
H35	H	-3.996007	0.089360	0.088194
H36	H	-4.615021	0.078338	-0.768147
H37	H	-3.716414	-0.065174	0.353869
H38	H	-3.842542	0.377974	-0.669092
H39	H	-4.203536	-0.317037	-0.504736
C40	C	-3.540507	-0.330357	0.393412
H41	H	-3.502382	-0.283028	0.481572
H42	H	-3.615263	-0.387084	0.404161
H43	H	-3.399245	-0.378757	0.393887
H44	H	-4.483163	-0.162497	-0.770430
H45	H	-4.467194	0.164618	-0.500127
