data_functionalizedCrystal
_audit_creation_method	'MofGen! by Chris Wilmer'
_symmetry_space_group_name_H-M	'P1'
_symmetry_Int_Tables_number	1
_symmetry_cell_setting	triclinic
loop_
_symmetry_equiv_pos_as_xyz
  x,y,z
_cell_length_a	18.101395
_cell_length_b	21.395362
_cell_length_c	21.395355
_cell_angle_alpha	90.048039
_cell_angle_beta	89.984273
_cell_angle_gamma	89.950633
loop_
_atom_site_label
_atom_site_type_symbol
_atom_site_fract_x
_atom_site_fract_y
_atom_site_fract_z
Zn1	Zn	-0.294554	-0.957858	-0.354666
Zn2	Zn	-0.418378	-0.957760	-0.249894
Zn3	Zn	-0.294594	-0.853073	-0.249860
Zn4	Zn	-0.418398	-0.853041	-0.354591
O5	O	-0.356481	-0.905433	-0.302253
O6	O	-0.310955	-1.045523	-0.340814
O7	O	-0.401966	-0.943845	-0.162211
O8	O	-0.190956	-0.867027	-0.263780
O9	O	-0.401927	-1.045451	-0.263838
O10	O	-0.190927	-0.944012	-0.340781
O11	O	-0.311022	-0.866932	-0.162187
O12	O	-0.311042	-0.765391	-0.263707
O13	O	-0.401962	-0.866973	-0.442279
O14	O	-0.402000	-0.765368	-0.340653
O15	O	-0.310974	-0.943982	-0.442334
O16	O	-0.522013	-0.943814	-0.263765
O17	O	-0.522028	-0.866878	-0.340685
C18	C	-0.356528	-0.742645	-0.302168
C19	C	-0.356566	-0.673004	-0.302147
C20	C	-0.548892	-0.905349	-0.302234
C21	C	-0.631206	-0.905371	-0.302247
C22	C	-0.403993	-0.640295	-0.342150
C23	C	-0.403978	-0.574860	-0.342174
C24	C	-0.356544	-0.542136	-0.302183
C25	C	-0.309109	-0.574852	-0.262177
C26	C	-0.309120	-0.640286	-0.262159
C27	C	-0.350583	-0.438411	-0.245770
C28	C	-0.350577	-0.372978	-0.245786
C29	C	-0.356506	-0.340315	-0.302237
C30	C	-0.362456	-0.373093	-0.358673
C31	C	-0.362467	-0.438527	-0.358656
C32	C	-0.356527	-0.471183	-0.302197
C33	C	-0.403918	-0.236654	-0.342269
C34	C	-0.403898	-0.171217	-0.342293
C35	C	-0.309033	-0.171211	-0.262291
C36	C	-0.309049	-0.236646	-0.262272
C37	C	-0.356496	-0.269364	-0.302260
C38	C	-0.930297	-0.905508	-0.302281
C39	C	-0.899012	-0.857214	-0.350798
C40	C	-0.813394	-0.856985	-0.350646
C41	C	-0.781914	-0.905440	-0.302265
C42	C	-0.813056	-0.887557	-0.236224
C43	C	-0.898702	-0.887246	-0.236515
C44	C	-0.898619	-0.971790	-0.319224
C45	C	-0.812969	-0.971401	-0.320672
C46	C	-0.698055	-0.905402	-0.302252
C47	C	-1.014156	-0.905544	-0.302290
C48	C	-0.163319	-0.905534	-0.302285
C49	C	-0.081005	-0.905577	-0.302299
C50	C	-0.356466	-0.905485	-0.465676
C51	C	-0.356460	-0.905507	-0.535317
C52	C	-0.356447	-0.068856	-0.302320
C53	C	-0.356463	-0.138497	-0.302303
C54	C	-0.309081	-0.945604	-0.568060
C55	C	-0.309049	-0.945603	-0.633496
C56	C	-0.356409	-0.905512	-0.666186
C57	C	-0.403792	-0.865408	-0.633435
C58	C	-0.403817	-0.865405	-0.568001
C59	C	-0.423092	-0.900536	-0.769852
C60	C	-0.423068	-0.900542	-0.835285
C61	C	-0.356331	-0.905516	-0.868007
C62	C	-0.289615	-0.910496	-0.835287
C63	C	-0.289641	-0.910493	-0.769853
C64	C	-0.356387	-0.905510	-0.737138
C65	C	-0.308913	-0.945614	-0.971702
C66	C	-0.308880	-0.945608	-1.037139
C67	C	-0.403630	-0.865417	-1.037077
C68	C	-0.403656	-0.865418	-0.971641
C69	C	-0.356299	-0.905520	-0.938958
C70	C	-0.356443	-0.905417	-0.139465
C71	C	-0.356240	-0.905516	-0.069824
H72	H	-0.442626	-0.666930	-0.374713
C73	C	-0.216254	-0.915962	-0.733864
N74	N	-0.160978	-0.920077	-0.706757
C75	C	-0.369010	-0.474580	-0.420734
N76	N	-0.373938	-0.501735	-0.467493
C77	C	-0.256883	-0.272627	-0.218259
N78	N	-0.217588	-0.299728	-0.185107
H79	H	-0.920172	-0.988093	-0.366562
H80	H	-0.442549	-0.263294	-0.374833
H81	H	-0.270408	-0.144568	-0.229732
H82	H	-0.345737	-0.346295	-0.199832
C83	C	-0.455728	-0.821316	-1.073032
N84	N	-0.494969	-0.788099	-1.100117
C85	C	-0.455781	-0.821311	-0.935623
N86	N	-0.495042	-0.788086	-0.908494
H87	H	-0.918847	-1.007771	-0.283888
C88	C	-0.344064	-0.474334	-0.183665
N89	N	-0.339156	-0.501390	-0.136889
H90	H	-0.270497	-0.666918	-0.229583
H91	H	-0.367282	-0.346500	-0.404642
C92	C	-0.456080	-0.135237	-0.386297
N93	N	-0.495388	-0.108137	-0.419439
H94	H	-0.477392	-0.896491	-0.861920
C95	C	-0.785503	-0.933577	-0.186053
N96	N	-0.764747	-0.968239	-0.148265
C97	C	-0.256932	-0.538855	-0.218186
N98	N	-0.217629	-0.511741	-0.185053
H99	H	-0.442598	-0.548223	-0.374751
H100	H	-0.792337	-0.868173	-0.399613
H101	H	-0.270294	-0.978259	-1.063797
C102	C	-0.496515	-0.895076	-0.733865
N103	N	-0.551816	-0.890969	-0.706760
C104	C	-0.785821	-0.790602	-0.335527
N105	N	-0.765054	-0.740595	-0.324155
C106	C	-0.926787	-0.872175	-0.417166
N107	N	-0.947714	-0.883443	-0.467156
H108	H	-0.920614	-0.808383	-0.339714
H109	H	-0.442351	-0.832764	-0.660056
C110	C	-0.925801	-0.821788	-0.217134
N111	N	-0.946208	-0.772483	-0.202538
H112	H	-0.919398	-0.920895	-0.199132
C113	C	-0.784195	-0.822790	-0.216494
N114	N	-0.762458	-0.774006	-0.201638
C115	C	-0.455942	-0.821295	-0.531983
N116	N	-0.495204	-0.788072	-0.504853
H117	H	-0.792612	-0.984886	-0.369274
C118	C	-0.784015	-1.022583	-0.276414
N119	N	-0.762208	-1.061133	-0.243073
C120	C	-0.256976	-0.989709	-0.532112
N121	N	-0.217727	-1.022926	-0.505035
C122	C	-0.256930	-0.989718	-0.669520
N123	N	-0.217677	-1.022947	-0.696652
H124	H	-0.270348	-0.978263	-0.945090
H125	H	-0.235271	-0.914546	-0.861928
