data_functionalizedCrystal
_audit_creation_method	'MofGen! by Chris Wilmer'
_symmetry_space_group_name_H-M	'P1'
_symmetry_Int_Tables_number	1
_symmetry_cell_setting	triclinic
loop_
_symmetry_equiv_pos_as_xyz
  x,y,z
_cell_length_a	16.109318
_cell_length_b	16.109304
_cell_length_c	18.366186
_cell_angle_alpha	89.996570
_cell_angle_beta	89.994535
_cell_angle_gamma	83.465600
loop_
_atom_site_label
_atom_site_type_symbol
_atom_site_fract_x
_atom_site_fract_y
_atom_site_fract_z
O1	O	1.103129	0.106937	-0.060484
O2	O	0.861069	0.120221	-0.060499
O3	O	0.988748	-0.007451	-0.060492
O4	O	0.975451	0.234609	-0.060492
O5	O	0.988726	-0.007458	0.060608
O6	O	0.861048	0.120215	0.060601
O7	O	1.103108	0.106930	0.060615
Zn8	Zn	0.982074	0.113572	0.079835
Zn9	Zn	0.982103	0.113580	-0.079719
O10	O	0.975429	0.234603	0.060608
C11	C	0.830084	0.119677	0.000049
C12	C	0.737789	0.118056	0.000044
C13	C	0.438727	0.112825	-0.065955
C14	C	0.525449	0.114342	-0.065959
C15	C	0.525444	0.114324	0.066070
C16	C	0.438725	0.112801	0.066074
C17	C	0.395368	0.112055	0.000059
C18	C	0.568809	0.115096	0.000051
C19	C	0.662836	0.116741	0.000047
C20	C	0.301336	0.110408	0.000063
C21	C	0.988198	-0.038430	0.000056
C22	C	0.986582	-0.130725	0.000051
C23	C	0.982860	-0.343059	-0.065957
C24	C	0.981334	-0.429779	-0.065957
C25	C	0.981314	-0.429783	0.066072
C26	C	0.982835	-0.343064	0.066071
C27	C	0.983612	-0.299704	0.000054
C28	C	0.980565	-0.473144	0.000056
C29	C	0.978911	-0.567170	0.000057
C30	C	0.985265	-0.205672	0.000053
C31	C	1.134093	0.107474	0.000066
C32	C	1.226388	0.109095	0.000066
C33	C	0.975979	0.265581	0.000058
C34	C	0.977595	0.357876	0.000058
N35	N	0.982061	0.113565	0.188726
N36	N	0.982123	0.113580	-0.188610
C37	C	1.038615	0.057060	0.226830
C38	C	1.038621	0.057056	0.303057
C39	C	0.982079	0.113572	0.341179
C40	C	0.925514	0.170082	0.303066
C41	C	0.925505	0.170079	0.226840
C42	C	0.971167	0.189294	0.461939
C43	C	0.971182	0.189299	0.538164
C44	C	0.982103	0.113583	0.576286
C45	C	0.993027	0.037859	0.538175
C46	C	0.993017	0.037856	0.461948
C47	C	0.982083	0.113582	0.423834
C48	C	1.038666	0.057068	0.697045
C49	C	1.038666	0.057064	0.773274
C50	C	0.925563	0.170097	0.773281
C51	C	0.925560	0.170095	0.697053
C52	C	0.982116	0.113581	0.658940
H53	H	0.560748	0.114968	-0.119714
H54	H	0.879450	0.216093	0.195815
O55	O	0.567685	0.115095	0.130128
C56	C	0.653526	0.116587	0.115971
H57	H	0.661923	0.143106	0.059238
H58	H	0.681191	0.157503	0.158130
H59	H	0.686876	0.050360	0.119097
O60	O	1.093405	0.002159	0.189665
C61	C	1.144685	0.046492	0.145384
H62	H	1.146435	0.112014	0.168344
H63	H	1.210662	0.012340	0.144304
H64	H	1.118425	0.050969	0.087700
O65	O	0.396724	0.112093	0.130269
C66	C	0.453587	0.113064	0.188534
H67	H	0.511955	0.140460	0.169184
H68	H	0.423236	0.152956	0.234706
H69	H	0.471548	0.046563	0.208827
O70	O	0.983452	-0.301020	0.130245
C71	C	0.911103	-0.312762	0.170395
H72	H	0.886012	-0.372583	0.151628
H73	H	0.927225	-0.317846	0.230786
H74	H	0.861568	-0.257352	0.161237
O75	O	0.870558	0.225029	0.810190
C76	C	0.820656	0.274922	0.760208
H77	H	0.819722	0.240833	0.705874
H78	H	0.754262	0.287582	0.782242
H79	H	0.847630	0.336695	0.752092
O80	O	1.093637	0.002129	0.339969
C81	C	1.143532	-0.047770	0.289983
H82	H	1.144460	-0.013686	0.235642
H83	H	1.209929	-0.060429	0.312001
H84	H	1.116555	-0.109543	0.281886
O85	O	0.980497	-0.471788	-0.130126
C86	C	0.908903	-0.441175	-0.170282
H87	H	0.886016	-0.375066	-0.151513
H88	H	0.925151	-0.440327	-0.230672
H89	H	0.857654	-0.483375	-0.161133
H90	H	0.879511	0.216110	0.666027
O91	O	0.983484	-0.300837	-0.130040
C92	C	0.912384	-0.241266	-0.133993
H93	H	0.888628	-0.225125	-0.076675
H94	H	0.929626	-0.182406	-0.161945
H95	H	0.861406	-0.268093	-0.166554
H96	H	1.001909	-0.023801	0.430921
O97	O	0.980606	-0.472039	0.130133
C98	C	0.979087	-0.557875	0.115981
H99	H	1.005188	-0.573163	0.059247
H100	H	1.018850	-0.596119	0.158139
H101	H	0.911997	-0.573752	0.119113
O102	O	0.960526	0.262926	0.575069
C103	C	0.950893	0.329754	0.525078
H104	H	0.928053	0.306746	0.470749
H105	H	0.903331	0.381474	0.547107
H106	H	1.013505	0.355082	0.516955
O107	O	1.093525	0.002201	0.810403
C108	C	1.081419	0.014331	0.885856
H109	H	1.015311	0.045374	0.896275
H110	H	1.090696	-0.048629	0.914829
H111	H	1.128458	0.056054	0.907479
O112	O	0.396744	0.112062	-0.130144
C113	C	0.453612	0.113087	-0.188409
H114	H	0.518875	0.087863	-0.169060
H115	H	0.433846	0.072314	-0.234581
H116	H	0.454099	0.179912	-0.208703
H117	H	0.962259	0.250955	0.430906
O118	O	1.003487	-0.035684	0.575224
C119	C	0.932934	-0.042418	0.619340
H120	H	0.876954	-0.000990	0.596378
H121	H	0.918690	-0.110128	0.620205
H122	H	0.946106	-0.021584	0.677110
O123	O	1.093626	0.002088	0.660129
C124	C	1.143554	-0.047780	0.710110
H125	H	1.109474	-0.048731	0.764452
H126	H	1.156254	-0.114173	0.688088
H127	H	1.205305	-0.020763	0.718207
O128	O	0.870557	0.224869	0.340175
C129	C	0.819277	0.180323	0.384269
H130	H	0.852413	0.115278	0.395688
H131	H	0.806123	0.215023	0.437871
H132	H	0.757832	0.174648	0.354906
