data_functionalizedCrystal
_audit_creation_method	'MofGen! by Chris Wilmer'
_symmetry_space_group_name_H-M	'P1'
_symmetry_Int_Tables_number	1
_symmetry_cell_setting	triclinic
loop_
_symmetry_equiv_pos_as_xyz
  x,y,z
_cell_length_a	10.489746
_cell_length_b	10.489741
_cell_length_c	9.016244
_cell_angle_alpha	89.998079
_cell_angle_beta	89.995566
_cell_angle_gamma	84.540238
loop_
_atom_site_label
_atom_site_type_symbol
_atom_site_fract_x
_atom_site_fract_y
_atom_site_fract_z
O1	O	1.694056	0.179994	-0.123240
O2	O	1.322861	0.196880	-0.123264
O3	O	1.516905	0.002840	-0.123243
O4	O	1.500012	0.374035	-0.123261
O5	O	1.516876	0.002844	0.123438
O6	O	1.322832	0.196884	0.123416
O7	O	1.694027	0.179999	0.123441
Cu8	Cu	1.508427	0.188442	0.145953
Cu9	Cu	1.508461	0.188437	-0.145776
O10	O	1.499983	0.374039	0.123419
C11	C	1.275315	0.195606	0.000073
C12	C	1.133686	0.191786	0.000064
C13	C	0.980828	0.066062	0.000091
C14	C	1.058208	0.128921	0.121710
C15	C	1.058191	0.128946	-0.121498
C16	C	0.958716	0.247903	0.121820
C17	C	0.958695	0.247910	-0.121497
C18	C	1.036025	0.310856	0.000151
C19	C	1.515614	-0.044690	0.000097
C20	C	1.511797	-0.186320	0.000094
C21	C	1.388333	-0.254462	0.000075
C22	C	1.446642	-0.346581	0.121705
C23	C	1.446700	-0.346560	-0.121503
C24	C	1.570157	-0.276573	0.121825
C25	C	1.570198	-0.276543	-0.121493
C26	C	1.628597	-0.368635	0.000167
C27	C	1.741573	0.181273	0.000101
C28	C	1.883202	0.185093	0.000100
C29	C	1.501273	0.421569	0.000077
C30	C	1.505091	0.563198	0.000070
N31	N	1.508413	0.188445	0.351139
N32	N	1.508485	0.188424	-0.350962
C33	C	1.404293	0.291895	0.586160
C34	C	1.404524	0.292283	0.414269
C35	C	1.641780	0.218742	0.413484
C36	C	1.641212	0.219475	0.585429
C37	C	1.480489	0.054358	0.585687
C38	C	1.477429	0.055226	0.413732
H39	H	0.915206	0.298112	-0.224330
H40	H	1.060501	0.414436	0.000213
H41	H	1.394390	-0.377592	0.224528
N42	N	1.115761	0.062365	-0.257697
H43	H	1.096090	-0.030035	-0.257574
H44	H	1.078126	0.106460	-0.349488
N45	N	1.763172	-0.434117	0.000247
H46	H	1.826591	-0.367457	0.001164
H47	H	1.776135	-0.489969	0.091265
H48	H	1.286821	-0.204813	0.000190
N49	N	1.639364	-0.235420	-0.257692
H50	H	1.592660	-0.260604	-0.349526
H51	H	1.642146	-0.139455	-0.256020
H52	H	1.101672	0.078674	0.224538
H53	H	1.394455	-0.377527	-0.224342
N54	N	1.673616	0.349037	0.638554
H55	H	1.753899	0.338396	0.700925
H56	H	1.688074	0.405076	0.550203
H57	H	1.305429	0.274050	0.372119
H58	H	0.956107	-0.037439	0.000219
N59	N	1.427854	0.422917	0.643291
H60	H	1.505722	0.415537	0.709735
H61	H	1.442758	0.480871	0.556811
H62	H	1.622341	-0.245739	0.224769
H63	H	1.721208	0.145437	0.372589
N64	N	1.272613	0.268131	0.640979
H65	H	1.279214	0.190064	0.707111
H66	H	1.234858	0.345045	0.698932
N67	N	1.428118	0.424149	0.359916
H68	H	1.513678	0.446969	0.397748
H69	H	1.428240	0.425026	0.247905
H70	H	1.721230	0.147149	0.627020
H71	H	1.379316	0.032262	0.372985
H72	H	1.666810	0.315448	0.370403
H73	H	0.915425	0.298119	0.224759
N74	N	1.354369	0.016179	0.643182
H75	H	1.314101	0.085410	0.710888
H76	H	1.295176	0.004340	0.556963
H77	H	1.548287	-0.025473	0.370765
H78	H	1.556456	-0.022657	0.626348
