data_functionalizedCrystal
_audit_creation_method	'MofGen! by Chris Wilmer'
_symmetry_space_group_name_H-M	'P1'
_symmetry_Int_Tables_number	1
_symmetry_cell_setting	triclinic
loop_
_symmetry_equiv_pos_as_xyz
  x,y,z
_cell_length_a	14.853567
_cell_length_b	14.853567
_cell_length_c	13.330367
_cell_angle_alpha	89.999156
_cell_angle_beta	89.995418
_cell_angle_gamma	83.634930
loop_
_atom_site_label
_atom_site_type_symbol
_atom_site_fract_x
_atom_site_fract_y
_atom_site_fract_z
O1	O	1.196369	0.117704	-0.083346
O2	O	0.933909	0.131725	-0.083362
O3	O	1.072150	-0.006515	-0.083356
O4	O	1.058128	0.255944	-0.083351
O5	O	1.072130	-0.006519	0.083491
O6	O	0.933889	0.131722	0.083485
O7	O	1.196349	0.117700	0.083501
Cu8	Cu	1.065117	0.124711	0.098728
Cu9	Cu	1.065141	0.124715	-0.098588
O10	O	1.058108	0.255941	0.083496
C11	C	0.900311	0.131088	0.000060
C12	C	0.800227	0.129184	0.000053
C13	C	0.387693	0.039019	0.000074
C14	C	0.366412	0.203251	0.000076
C15	C	0.460446	0.205042	0.000073
C16	C	0.518108	0.123819	0.000069
C17	C	0.481736	0.040806	0.000067
C18	C	0.496825	0.288053	0.000064
C19	C	0.590864	0.289846	0.000059
C20	C	0.648528	0.208623	0.000062
C21	C	0.612150	0.125607	0.000062
C22	C	0.669812	0.044384	0.000058
C23	C	0.633437	-0.038633	0.000065
C24	C	0.539399	-0.040417	0.000070
C25	C	0.742565	0.210407	0.000057
C26	C	0.763855	0.046172	0.000052
C27	C	1.071504	-0.040106	0.000064
C28	C	1.069601	-0.140189	0.000055
C29	C	0.979435	-0.552723	0.000069
C30	C	1.143668	-0.574004	0.000079
C31	C	1.145458	-0.479971	0.000073
C32	C	1.064235	-0.422309	0.000067
C33	C	0.981223	-0.458680	0.000066
C34	C	1.228469	-0.443591	0.000084
C35	C	1.230262	-0.349552	0.000079
C36	C	1.149039	-0.291889	0.000066
C37	C	1.066023	-0.328266	0.000064
C38	C	0.984800	-0.270604	0.000058
C39	C	0.901783	-0.306979	0.000049
C40	C	0.899999	-0.401017	0.000053
C41	C	1.150823	-0.197851	0.000062
C42	C	0.986588	-0.176561	0.000055
C43	C	1.229947	0.118337	0.000078
C44	C	1.330031	0.120241	0.000078
C45	C	1.058754	0.289531	0.000073
C46	C	1.060657	0.389615	0.000075
N47	N	1.065107	0.124708	0.237509
N48	N	1.065158	0.124711	-0.237370
C49	C	1.003925	0.185903	0.710130
C50	C	1.126381	0.063519	0.710103
C51	C	1.126371	0.063516	0.605084
C52	C	1.065138	0.124709	0.552584
C53	C	1.003915	0.185904	0.605102
C54	C	1.187598	0.002328	0.552559
C55	C	1.187591	0.002323	0.447534
C56	C	1.126353	0.063512	0.395031
C57	C	1.065127	0.124710	0.447556
C58	C	1.003895	0.185902	0.395055
C59	C	0.942664	0.247096	0.447578
C60	C	0.942677	0.247093	0.552599
C61	C	1.126340	0.063515	0.290010
C62	C	1.003884	0.185903	0.290027
H63	H	0.772178	0.277998	0.000053
H64	H	0.620472	0.357443	0.000053
H65	H	0.892826	0.296916	0.595370
H66	H	1.218414	-0.168238	0.000076
H67	H	0.319459	0.269379	0.000071
O68	O	1.316070	-0.505778	0.000105
H69	H	1.300878	-0.577279	0.000098
O70	O	0.937892	0.251913	0.766766
H71	H	0.894034	0.213889	0.814630
O72	O	0.434640	0.375655	0.000061
H73	H	0.447593	0.415379	0.068057
O74	O	0.889902	-0.591957	0.000067
H75	H	0.850879	-0.568810	-0.067943
O76	O	1.192424	-0.002480	0.766720
H77	H	1.182143	0.007798	0.848572
O78	O	0.348465	-0.050518	0.000090
H79	H	0.371621	-0.089556	-0.067911
O80	O	0.898982	-0.114368	0.000057
H81	H	0.840961	-0.155463	0.000061
H82	H	0.832411	-0.430643	0.000046
H83	H	0.835652	-0.260019	0.000051
H84	H	0.892811	0.296924	0.404820
H85	H	1.237457	-0.047489	0.595308
H86	H	1.237447	-0.047504	0.404776
O87	O	1.231270	-0.636189	0.000096
H88	H	1.216081	-0.707690	0.000097
O89	O	1.192364	-0.002500	0.233376
H90	H	1.154344	-0.046385	0.185548
O91	O	0.826048	-0.041434	0.000049
H92	H	0.784953	-0.099455	0.000049
O93	O	0.695638	-0.126233	0.000059
H94	H	0.654552	-0.184262	0.000060
O95	O	0.937829	0.251892	0.233398
H96	H	0.975818	0.295779	0.185532
O97	O	1.319796	-0.310319	0.000065
H98	H	1.375973	-0.366214	0.000059
H99	H	0.509774	-0.108005	0.000100
