data_functionalizedCrystal
_audit_creation_method	'MofGen! by Chris Wilmer'
_symmetry_space_group_name_H-M	'P1'
_symmetry_Int_Tables_number	1
_symmetry_cell_setting	triclinic
loop_
_symmetry_equiv_pos_as_xyz
  x,y,z
_cell_length_a	19.319731
_cell_length_b	19.318970
_cell_length_c	19.315557
_cell_angle_alpha	60.007379
_cell_angle_beta	60.014690
_cell_angle_gamma	59.991495
loop_
_atom_site_label
_atom_site_type_symbol
_atom_site_fract_x
_atom_site_fract_y
_atom_site_fract_z
O1	O	0.095954	-1.011347	0.845684
O2	O	0.036156	-0.787405	0.681392
O3	O	0.177960	-0.929104	0.681276
O4	O	-0.045850	-0.869648	0.845799
O5	O	0.225008	-0.882072	0.728208
O6	O	0.083204	-0.740373	0.728324
O7	O	0.143002	-0.964315	0.892616
Cu8	Cu	0.117399	-0.848050	0.814755
Cu9	Cu	0.061759	-0.903670	0.759252
O10	O	0.001198	-0.822616	0.892732
N11	N	0.156535	-0.808935	0.853797
N12	N	0.022631	-0.942793	0.720211
C13	C	0.182113	-0.653200	0.879374
C14	C	0.182221	-0.783395	1.009518
C15	C	0.312319	-0.783375	0.879314
C16	C	0.182127	-0.783371	0.879357
C17	C	0.214696	-0.750836	0.911890
C18	C	-0.132988	-0.968144	0.694232
C19	C	-0.002674	-0.968326	0.564242
C20	C	-0.002907	-1.098444	0.694459
C21	C	-0.002887	-0.968321	0.694542
C22	C	-0.035363	-1.000810	0.661869
N23	N	0.389025	-0.808944	0.853717
O24	O	0.660019	-0.816766	0.651282
O25	O	0.660312	-0.981573	0.874999
O26	O	0.660193	-0.981192	0.733108
O27	O	0.660138	-0.817147	0.793174
O28	O	0.519202	-0.934278	0.780210
O29	O	0.519321	-0.934658	0.922102
O30	O	0.519028	-0.769852	0.698384
Cu31	Cu	0.506300	-0.847971	0.814544
Cu32	Cu	0.673039	-0.903453	0.758840
O33	O	0.519147	-0.770232	0.840276
N34	N	0.790314	-0.942480	0.719658
N35	N	0.156514	-0.576494	0.853827
O36	O	-0.045823	-0.305328	0.845846
O37	O	0.177892	-0.305317	0.681053
O38	O	0.035967	-0.305340	0.681465
O39	O	0.096102	-0.305306	0.845434
O40	O	0.083020	-0.446347	0.728459
O41	O	0.224945	-0.446325	0.728047
O42	O	0.001230	-0.446335	0.892839
Cu43	Cu	0.117383	-0.459205	0.814734
Cu44	Cu	0.061738	-0.292448	0.759159
O45	O	0.143154	-0.446313	0.892428
N46	N	0.022597	-0.175159	0.720067
N47	N	0.156703	-0.808977	1.086224
O48	O	0.148753	-1.011298	1.357359
O49	O	-0.016009	-0.787491	1.357400
O50	O	-0.015627	-0.929387	1.357339
O51	O	0.148372	-0.869401	1.357420
O52	O	0.031342	-0.882367	1.216340
O53	O	0.030961	-0.740471	1.216400
O54	O	0.195723	-0.964278	1.216360
Cu55	Cu	0.117631	-0.848081	1.203506
Cu56	Cu	0.062083	-0.903688	1.370254
O57	O	0.195341	-0.822381	1.216420
N58	N	0.023010	-0.942801	1.487536
C59	C	0.054075	-0.735670	0.682223
C60	C	0.229681	-0.911148	0.682079
C61	C	0.125082	-1.016051	0.891784
C62	C	-0.050524	-0.840572	0.891928
C63	C	0.589851	-0.980810	0.926735
C64	C	0.589706	-0.980340	0.751019
C65	C	0.589484	-0.770613	0.646650
C66	C	0.589634	-0.771085	0.822364
C67	C	0.229543	-0.375646	0.681799
C68	C	0.053845	-0.375847	0.682366
C69	C	-0.050480	-0.375832	0.892036
C70	C	0.125277	-0.375807	0.891527
C71	C	-0.015214	-0.735785	1.286905
C72	C	-0.014732	-0.911497	1.286802
C73	C	0.194928	-1.015984	1.286855
C74	C	0.194457	-0.840261	1.286926
H75	H	0.041301	-0.671339	0.630625
O76	O	-0.127138	-0.825525	0.953672
C77	C	-0.202893	-0.817855	1.094957
C78	C	-0.116074	-0.834935	1.025112
H79	H	-0.193979	-0.825439	1.152727
H80	H	-0.233400	-0.864890	1.113564
H81	H	-0.245586	-0.750524	1.070258
H82	H	-0.073316	-0.902242	1.049752
H83	H	-0.085634	-0.787848	1.006516
H84	H	0.245979	-0.827427	1.286940
H85	H	0.137858	-1.080380	0.943384
H86	H	0.589926	-1.032546	0.990990
O87	O	0.306425	-0.926390	0.620545
C88	C	0.446012	-1.026870	0.581328
C89	C	0.359146	-1.009716	0.651096
H90	H	0.488655	-1.094244	0.605997
H91	H	0.476571	-0.979908	0.562795
H92	H	0.437093	-1.019171	0.523510
H93	H	0.367991	-1.017426	0.708959
H94	H	0.328616	-1.056675	0.669557
O95	O	-0.076145	-0.926910	1.286814
C96	C	-0.165310	-1.012866	1.359732
C97	C	-0.095745	-0.995514	1.359813
H98	H	-0.181191	-1.068320	1.418754
H99	H	-0.141794	-1.029054	1.300730
H100	H	-0.224495	-0.954018	1.359675
H101	H	-0.036537	-1.054332	1.359900
H102	H	-0.119330	-0.979290	1.418810
H103	H	0.589730	-1.031874	0.738162
O104	O	0.589409	-0.708985	0.569945
C105	C	0.589199	-0.669537	0.430329
C106	C	0.589305	-0.739412	0.517149
H107	H	0.589096	-0.694106	0.387625
H108	H	0.648181	-0.651007	0.399792
H109	H	0.530172	-0.611740	0.439319
H110	H	0.648292	-0.797255	0.508233
H111	H	0.530283	-0.757871	0.547657
H112	H	0.589622	-0.719555	0.835218
H113	H	0.293660	-0.375252	0.629934
H114	H	0.246659	-1.080258	1.286832
O115	O	0.038371	-0.375920	0.621023
C116	C	-0.062386	-0.375945	0.582281
C117	C	-0.044974	-0.375866	0.651827
H118	H	-0.129774	-0.375883	0.607154
H119	H	-0.015497	-0.434983	0.563777
H120	H	-0.054788	-0.316960	0.524395
H121	H	-0.052582	-0.434811	0.709758
H122	H	-0.091859	-0.316789	0.670260
O123	O	-0.127190	-0.375782	0.953649
C124	C	-0.266843	-0.375816	0.993095
C125	C	-0.180012	-0.375862	0.923241
H126	H	-0.309568	-0.375900	0.968542
H127	H	-0.297331	-0.316780	1.011561
H128	H	-0.257887	-0.434803	1.050927
H129	H	-0.188894	-0.316916	0.865364
H130	H	-0.149553	-0.434938	0.904848
H131	H	0.138154	-0.375795	0.943037
O132	O	-0.076848	-0.659069	1.286954
C133	C	-0.116245	-0.519388	1.286947
C134	C	-0.046378	-0.606235	1.286911
H135	H	-0.091630	-0.476641	1.286895
H136	H	-0.174059	-0.528236	1.345962
H137	H	-0.134755	-0.488971	1.227945
H138	H	-0.027796	-0.636699	1.345873
H139	H	0.011390	-0.597331	1.227858
