data_functionalizedCrystal
_audit_creation_method	'MofGen! by Chris Wilmer'
_symmetry_space_group_name_H-M	'P1'
_symmetry_Int_Tables_number	1
_symmetry_cell_setting	triclinic
loop_
_symmetry_equiv_pos_as_xyz
  x,y,z
_cell_length_a	16.992694
_cell_length_b	17.038272
_cell_length_c	16.053802
_cell_angle_alpha	92.751609
_cell_angle_beta	87.249047
_cell_angle_gamma	90.889890
loop_
_atom_site_label
_atom_site_type_symbol
_atom_site_fract_x
_atom_site_fract_y
_atom_site_fract_z
O1	O	1.054593	0.163385	-0.069325
O2	O	1.387926	0.496719	0.264008
O3	O	1.721260	0.830052	0.597342
O4	O	0.826187	0.161558	-0.069350
O5	O	1.159520	0.494891	0.263984
O6	O	1.492854	0.828225	0.597317
O7	O	0.939032	0.048571	-0.069331
O8	O	1.272366	0.381905	0.264003
O9	O	1.605699	0.715238	0.597336
O10	O	0.941748	0.276372	-0.069344
O11	O	1.275081	0.609705	0.263990
O12	O	1.608414	0.943039	0.597323
O13	O	0.932819	0.054763	0.069527
O14	O	1.266152	0.388097	0.402860
O15	O	1.599486	0.721430	0.736194
O16	O	0.819974	0.167750	0.069508
O17	O	1.153307	0.501083	0.402842
O18	O	1.486641	0.834416	0.736175
O19	O	1.048380	0.169577	0.069533
O20	O	1.381713	0.502911	0.402866
O21	O	1.715047	0.836244	0.736200
Zn22	Zn	0.933190	0.169646	0.091567
Zn23	Zn	1.266524	0.502980	0.424901
Zn24	Zn	1.599857	0.836313	0.758234
Zn25	Zn	0.941376	0.161489	-0.091384
Zn26	Zn	1.274710	0.494822	0.241949
Zn27	Zn	1.608043	0.828155	0.575283
O28	O	0.935535	0.282564	0.069514
O29	O	1.268868	0.615897	0.402848
O30	O	1.602201	0.949230	0.736181
C31	C	0.793711	0.162304	0.000076
C32	C	1.127045	0.495637	0.333410
C33	C	1.460378	0.828971	0.666743
C34	C	0.706200	0.155293	0.000067
C35	C	1.039533	0.488627	0.333400
C36	C	1.372867	0.821960	0.666734
C37	C	0.660472	0.222933	0.000064
C38	C	0.993805	0.556267	0.333397
C39	C	1.327138	0.889600	0.666731
C40	C	0.578245	0.216342	0.000076
C41	C	0.911578	0.549676	0.333409
C42	C	1.244911	0.883009	0.666742
C43	C	0.541748	0.142110	0.000085
C44	C	0.875081	0.475444	0.333418
C45	C	1.208415	0.808777	0.666752
C46	C	0.587482	0.074465	0.000091
C47	C	0.920816	0.407799	0.333424
C48	C	1.254149	0.741132	0.666757
C49	C	0.669707	0.081057	0.000085
C50	C	1.003041	0.414391	0.333418
C51	C	1.336374	0.747724	0.666751
C52	C	0.296327	0.114789	0.000109
C53	C	0.629660	0.448122	0.333442
C54	C	0.962993	0.781455	0.666775
C55	C	0.214096	0.108201	0.000112
C56	C	0.547429	0.441535	0.333446
C57	C	0.880762	0.774868	0.666779
C58	C	0.204864	0.250079	0.000099
C59	C	0.538197	0.583413	0.333432
C60	C	0.871530	0.916746	0.666766
C61	C	0.287091	0.256665	0.000088
C62	C	0.620424	0.589998	0.333421
C63	C	0.953758	0.923331	0.666755
C64	C	0.332818	0.189020	0.000098
C65	C	0.666151	0.522353	0.333431
C66	C	0.999484	0.855686	0.666765
N67	N	0.457699	0.135371	0.000094
N68	N	0.791033	0.468705	0.333428
N69	N	1.124366	0.802038	0.666761
N70	N	0.416865	0.195760	0.000095
N71	N	0.750198	0.529093	0.333428
N72	N	1.083531	0.862426	0.666761
C73	C	0.933456	0.022384	0.000098
C74	C	1.266790	0.355717	0.333431
C75	C	1.600123	0.689051	0.666764
C76	C	0.926089	-0.064871	0.000097
C77	C	1.259422	0.268462	0.333430
C78	C	1.592756	0.601796	0.666763
C79	C	0.993729	-0.110741	0.000105
C80	C	1.327062	0.222592	0.333438
C81	C	1.660395	0.555926	0.666772
C82	C	0.986802	-0.192727	0.000096
C83	C	1.320135	0.140607	0.333430
C84	C	1.653469	0.473940	0.666763
C85	C	0.912235	-0.228840	0.000085
C86	C	1.245568	0.104493	0.333419
C87	C	1.578902	0.437826	0.666752
C88	C	0.844590	-0.182964	0.000075
C89	C	1.177924	0.150369	0.333408
C90	C	1.511257	0.483702	0.666741
C91	C	0.851518	-0.100981	0.000077
C92	C	1.184851	0.232353	0.333411
C93	C	1.518185	0.565686	0.666744
C94	C	0.887761	-0.476135	0.000071
C95	C	1.221094	-0.142801	0.333405
C96	C	1.554428	0.190532	0.666738
C97	C	0.880838	-0.558124	0.000071
C98	C	1.214172	-0.224791	0.333404
C99	C	1.547505	0.108542	0.666738
C100	C	1.023051	-0.567881	0.000091
C101	C	1.356384	-0.234547	0.333424
C102	C	1.689718	0.098786	0.666758
C103	C	1.029972	-0.485895	0.000099
C104	C	1.363305	-0.152561	0.333432
C105	C	1.696639	0.180772	0.666765
C106	C	0.962328	-0.440026	0.000084
C107	C	1.295661	-0.106693	0.333417
C108	C	1.628994	0.226640	0.666750
C109	C	0.905153	-0.312643	0.000079
C110	C	1.238486	0.020691	0.333413
C111	C	1.571820	0.354024	0.666746
C112	C	0.969410	-0.356226	0.000084
C113	C	1.302744	-0.022893	0.333417
C114	C	1.636077	0.310441	0.666751
C115	C	1.080856	0.168831	0.000105
C116	C	1.414189	0.502164	0.333439
C117	C	1.747522	0.835498	0.666772
C118	C	1.168367	0.175841	0.000109
C119	C	1.501701	0.509175	0.333442
C120	C	1.835034	0.842508	0.666776
C121	C	0.941111	0.308751	0.000084
C122	C	1.274444	0.642084	0.333417
C123	C	1.607777	0.975418	0.666750
C124	C	0.948478	0.396006	0.000079
C125	C	1.281811	0.729339	0.333413
C126	C	1.615145	1.062673	0.666746
N127	N	0.927609	0.175214	0.216427
N128	N	1.260943	0.508547	0.549760
N129	N	1.594276	0.841881	0.883093
N130	N	0.946963	0.155915	-0.216243
N131	N	1.280297	0.489249	0.117090
N132	N	1.613630	0.822582	0.450423
C133	C	0.975645	0.127157	0.260129
C134	C	1.308978	0.460491	0.593462
C135	C	1.642312	0.793824	0.926795
C136	C	0.971749	0.131060	0.347535
C137	C	1.305082	0.464393	0.680868
C138	C	1.638416	0.797726	1.014201
C139	C	0.919820	0.183023	0.391237
C140	C	1.253154	0.516357	0.724571
C141	C	1.586487	0.849690	1.057904
C142	C	0.871779	0.231082	0.347529
C143	C	1.205113	0.564415	0.680863
C144	C	1.538446	0.897748	1.014196
C145	C	0.875672	0.227175	0.260125
C146	C	1.209005	0.560508	0.593458
C147	C	1.542339	0.893841	0.926791
C148	C	0.902815	0.200067	0.652644
C149	C	1.236148	0.533400	0.985977
C150	C	1.569482	0.866734	1.319311
C151	C	0.898928	0.203972	0.740055
C152	C	1.232261	0.537305	1.073388
C153	C	1.565594	0.870639	1.406721
C154	C	0.998897	0.103948	0.740054
C155	C	1.332230	0.437282	1.073388
C156	C	1.665563	0.770615	1.406721
C157	C	1.002788	0.100050	0.652648
C158	C	1.336121	0.433383	0.985981
C159	C	1.669455	0.766716	1.319315
C160	C	0.954744	0.148105	0.608948
C161	C	1.288077	0.481438	0.942281
C162	C	1.621411	0.814772	1.275614
N163	N	0.915838	0.187015	0.480580
N164	N	1.249172	0.520348	0.813914
N165	N	1.582505	0.853682	1.147247
N166	N	0.958723	0.144109	0.519606
N167	N	1.292056	0.477442	0.852939
N168	N	1.625389	0.810775	1.186273
H169	H	0.557760	0.014024	0.000110
H170	H	0.891093	0.347358	0.333443
H171	H	1.224426	0.680691	0.666777
F172	F	0.816508	0.286382	0.394042
F173	F	1.149842	0.619715	0.727375
F174	F	1.483175	0.953049	1.060708
F175	F	0.843656	0.259283	0.786561
F176	F	1.176989	0.592617	1.119894
F177	F	1.510322	0.925950	1.453228
H178	H	0.184383	0.047750	0.000119
H179	H	0.517716	0.381083	0.333452
H180	H	0.851050	0.714416	0.666785
F181	F	0.529581	0.288334	0.000069
F182	F	0.862914	0.621668	0.333402
F183	F	1.196247	0.955001	0.666735
H184	H	0.690181	0.283381	0.000056
H185	H	1.023514	0.616714	0.333389
H186	H	1.356847	0.950048	0.666723
H187	H	0.167624	0.305152	0.000092
H188	H	0.500957	0.638485	0.333426
H189	H	0.834291	0.971818	0.666759
H190	H	0.796438	-0.063634	0.000071
H191	H	1.129772	0.269699	0.333404
H192	H	1.463105	0.603033	0.666737
H193	H	0.832680	-0.438798	0.000059
H194	H	1.166013	-0.105465	0.333393
H195	H	1.499346	0.227869	0.666726
F196	F	1.058057	0.044745	0.606138
F197	F	1.391390	0.378079	0.939471
F198	F	1.724723	0.711412	1.272804
F199	F	0.824543	0.278321	0.213615
F200	F	1.157876	0.611654	0.546949
F201	F	1.491210	0.944988	0.880282
H202	H	1.090692	-0.456497	0.000108
H203	H	1.424026	-0.123164	0.333441
H204	H	1.757359	0.210170	0.666774
F205	F	1.048768	-0.317789	0.000091
F206	F	1.382101	0.015544	0.333424
F207	F	1.715435	0.348877	0.666757
F208	F	0.325927	0.335672	0.000074
F209	F	0.659261	0.669006	0.333407
F210	F	0.992594	1.002339	0.666741
H211	H	1.041882	-0.230071	0.000105
H212	H	1.375215	0.103263	0.333438
H213	H	1.708548	0.436596	0.666771
F214	F	0.718375	0.009066	0.000091
F215	F	1.051708	0.342399	0.333424
F216	F	1.385041	0.675732	0.666758
F217	F	0.344982	0.042794	0.000119
F218	F	0.678316	0.376127	0.333453
F219	F	1.011649	0.709461	0.666786
F220	F	1.095038	-0.616703	0.000106
F221	F	1.428371	-0.283369	0.333439
F222	F	1.761704	0.049964	0.666773
F223	F	1.073094	-0.072313	0.000125
F224	F	1.406427	0.261020	0.333458
F225	F	1.739760	0.594353	0.666791
H226	H	0.844440	-0.342056	0.000072
H227	H	1.177773	-0.008722	0.333406
H228	H	1.511106	0.324611	0.666739
F229	F	1.030919	0.071854	0.213625
F230	F	1.364253	0.405187	0.546959
F231	F	1.697586	0.738521	0.880292
F232	F	0.801470	-0.596557	0.000064
F233	F	1.134803	-0.263224	0.333397
F234	F	1.468137	0.070110	0.666730
H235	H	1.010863	0.091928	0.383116
H236	H	1.344196	0.425261	0.716450
H237	H	1.677530	0.758595	1.049783
H238	H	0.783876	-0.212375	0.000061
H239	H	1.117209	0.120958	0.333394
H240	H	1.450543	0.454292	0.666727
F241	F	1.050023	0.052806	0.786568
F242	F	1.383357	0.386139	1.119902
F243	F	1.716690	0.719473	1.453235
H244	H	0.863697	0.239197	0.617070
H245	H	1.197030	0.572530	0.950403
H246	H	1.530364	0.905864	1.283737
