data_functionalizedCrystal
_audit_creation_method	'MofGen! by Chris Wilmer'
_symmetry_space_group_name_H-M	'P1'
_symmetry_Int_Tables_number	1
_symmetry_cell_setting	triclinic
loop_
_symmetry_equiv_pos_as_xyz
  x,y,z
_cell_length_a	6.817900
_cell_length_b	10.943867
_cell_length_c	17.843215
_cell_angle_alpha	90.213969
_cell_angle_beta	114.292358
_cell_angle_gamma	108.843261
loop_
_atom_site_label
_atom_site_type_symbol
_atom_site_fract_x
_atom_site_fract_y
_atom_site_fract_z
V1	V	-4.184798	-0.181638	-0.256657
O2	O	-4.141156	0.005636	-0.251780
O3	O	-4.162304	-0.357184	-0.254892
O4	O	-4.192972	-0.180201	-0.368598
O5	O	-4.110276	-0.172572	-0.137288
V6	V	-4.657738	-0.159077	-0.242380
O7	O	-4.469270	-0.231126	-0.287973
O8	O	-4.823463	-0.109589	-0.211064
O9	O	-4.457025	0.016468	-0.244145
O10	O	-4.818777	-0.346352	-0.247256
O11	O	-4.849657	-0.168144	-0.361749
O12	O	-4.426357	-0.160515	-0.130439
C13	C	-4.011777	-0.399936	-0.250841
C14	C	-4.075050	-0.543455	-0.250144
C15	C	-4.140713	-0.174186	-0.489115
C16	C	-4.050896	-0.174187	-0.395882
V17	V	-4.031215	-0.159069	-0.630131
O18	O	-3.997702	-0.168148	-0.515462
O19	O	-4.011000	-0.160495	-0.737417
O20	O	-3.788793	0.016473	-0.588599
O21	O	-4.221448	-0.346341	-0.665310
V22	V	-4.554374	-0.181622	-0.640346
O23	O	-4.256157	-0.109574	-0.660296
O24	O	-4.796871	-0.231109	-0.628085
O25	O	-4.342834	-0.180199	-0.524184
O26	O	-4.709780	-0.172541	-0.759684
O27	O	-4.486034	0.005652	-0.609836
O28	O	-4.565042	-0.357167	-0.673001
C29	C	-4.305538	-0.634384	-0.254021
C30	C	-4.320352	-0.734269	-0.319645
C31	C	-4.172973	-0.699300	-0.183295
C32	C	-4.089090	-0.641464	-0.315834
C33	C	-3.941669	-0.606473	-0.179424
C34	C	-3.956343	-0.706318	-0.245062
C35	C	-4.270894	0.059213	-0.248194
C36	C	-4.186863	0.202732	-0.248896
C37	C	-4.231775	-0.166545	-0.103150
C38	C	-4.122874	-0.166552	-0.011637
C39	C	-3.863591	-0.166526	-0.759103
C40	C	-3.930184	-0.166523	-0.849790
C41	C	-3.580143	0.059214	-0.569270
C42	C	-3.466532	0.202730	-0.539269
C43	C	-4.236143	-0.159763	0.046309
C44	C	-4.158216	-0.270217	0.088254
C45	C	-4.006745	-0.056118	0.109477
C46	C	-4.046443	-0.277095	0.029093
C47	C	-3.894936	-0.062898	0.050322
C48	C	-3.816927	-0.173384	0.092236
C49	C	-4.424149	-0.399921	-0.678947
C50	C	-4.516206	-0.543438	-0.708121
C51	C	-3.596088	0.276760	-0.534984
C52	C	-3.489360	0.411607	-0.506785
C53	C	-3.253079	0.472423	-0.482876
C54	C	-3.123514	0.398383	-0.487159
C55	C	-3.230239	0.263537	-0.515353
C56	C	-4.374030	-0.604228	-0.717519
C57	C	-4.460488	-0.739080	-0.744919
C58	C	-4.689128	-0.813139	-0.762926
C59	C	-4.831310	-0.752341	-0.753524
C60	C	-4.744846	-0.617492	-0.726119
H61	H	-4.452601	-0.602594	-0.257900
C62	C	-4.537438	-0.809173	-0.399726
N63	N	-4.700954	-0.865587	-0.460041
C64	C	-3.856004	0.209887	-0.561274
N65	N	-4.051774	0.159525	-0.581069
H66	H	-4.053177	-0.615767	-0.371914
H67	H	-4.064281	-0.370577	-0.005697
C68	C	-3.757493	-0.748972	-0.239957
N69	N	-3.607722	-0.781100	-0.236115
C70	C	-3.746174	0.055531	0.027413
N71	N	-3.634134	0.144742	0.010158
C72	C	-2.863598	0.465301	-0.460853
N73	N	-2.667829	0.515710	-0.441041
H74	H	-3.166205	0.582224	-0.459920
H75	H	-4.268422	-0.357873	0.105192
H76	H	-3.988943	0.037265	0.144362
C77	C	-4.477114	-0.152192	0.018820
N78	N	-4.658625	-0.146506	-0.001898
C79	C	-3.724657	-0.531530	-0.099340
N80	N	-3.561209	-0.475079	-0.039014
C81	C	-4.221793	-0.734250	-0.107620
N82	N	-4.258577	-0.760570	-0.050624
H83	H	-5.017477	-0.812659	-0.768191
H84	H	-3.638752	-0.179177	0.112388
C85	C	-3.631933	0.493031	-0.502096
N86	N	-3.739326	0.554356	-0.498570
H87	H	-3.124722	0.203273	-0.518843
H88	H	-4.187857	-0.543945	-0.702865
C89	C	-4.901294	-0.550634	-0.715806
N90	N	-5.019150	-0.500282	-0.708044
H91	H	-4.344687	-0.788561	-0.752574
C92	C	-4.784214	-0.961473	-0.793080
N93	N	-4.855824	-1.073198	-0.815797
