data_functionalizedCrystal
_audit_creation_method	'MofGen! by Chris Wilmer'
_symmetry_space_group_name_H-M	'P1'
_symmetry_Int_Tables_number	1
_symmetry_cell_setting	triclinic
loop_
_symmetry_equiv_pos_as_xyz
  x,y,z
_cell_length_a	10.654550
_cell_length_b	10.868271
_cell_length_c	10.654550
_cell_angle_alpha	90.002206
_cell_angle_beta	84.484929
_cell_angle_gamma	90.001065
loop_
_atom_site_label
_atom_site_type_symbol
_atom_site_fract_x
_atom_site_fract_y
_atom_site_fract_z
O1	O	1.667841	0.102222	0.176400
O2	O	1.302362	0.102243	0.193206
O3	O	1.493505	0.102233	0.002064
O4	O	1.476699	0.102232	0.367542
O5	O	1.493489	-0.102412	0.002056
O6	O	1.302346	-0.102401	0.193198
O7	O	1.667825	-0.102423	0.176392
Zn8	Zn	1.485083	-0.134904	0.184794
Zn9	Zn	1.485104	0.134724	0.184804
O10	O	1.476683	-0.102413	0.367534
C11	C	1.255556	-0.000076	0.191968
C12	C	1.116113	-0.000067	0.188276
C13	C	1.036628	-0.000071	0.300818
C14	C	0.905607	-0.000093	0.297341
C15	C	0.933570	-0.000101	0.068772
C16	C	1.064588	-0.000089	0.072250
N17	N	1.485078	-0.318918	0.184786
C18	C	1.485098	-0.569924	0.184801
C19	C	1.485083	-0.430246	0.184797
C20	C	1.714631	-0.000101	0.177630
C21	C	1.854074	-0.000101	0.181322
C22	C	1.492263	-0.000086	-0.044738
C23	C	1.488571	-0.000078	-0.184181
N24	N	1.485119	0.318738	0.184802
C25	C	1.483363	0.111465	-0.380718
C26	C	1.486844	0.111472	-0.249698
C27	C	1.486828	-0.111642	-0.249694
C28	C	1.483356	-0.111648	-0.380713
C29	C	1.477925	-0.000090	0.414336
C30	C	1.481616	-0.000091	0.553779
H31	H	0.840894	-0.000098	0.388984
H32	H	1.129309	-0.000089	-0.019401
H33	H	1.481945	0.202302	-0.434050
O34	O	1.481430	-0.220058	-0.444258
C35	C	1.373709	-0.287922	-0.398935
H36	H	1.298781	-0.222638	-0.353641
H37	H	1.334972	-0.338529	-0.480636
H38	H	1.400265	-0.357475	-0.325881
O39	O	1.488475	0.219948	-0.186255
C40	C	1.486230	0.318403	-0.272179
H41	H	1.444058	0.285693	-0.360716
H42	H	1.426372	0.396429	-0.226880
H43	H	1.586440	0.352700	-0.298420
O44	O	0.883308	-0.000057	-0.043823
C45	C	0.750622	-0.000097	-0.022763
H46	H	0.720710	0.038647	0.074979
H47	H	0.709755	0.059312	-0.097071
H48	H	0.714110	-0.098278	-0.029169
O49	O	1.488278	-0.219966	-0.185963
C50	C	1.381719	-0.226600	-0.096881
H51	H	1.304795	-0.163291	-0.127098
H52	H	1.345296	-0.325259	-0.090924
H53	H	1.408897	-0.196616	-0.000588
H54	H	1.078574	-0.000063	0.395294
