data_functionalizedCrystal
_audit_creation_method	'MofGen! by Chris Wilmer'
_symmetry_space_group_name_H-M	'P1'
_symmetry_Int_Tables_number	1
_symmetry_cell_setting	triclinic
loop_
_symmetry_equiv_pos_as_xyz
  x,y,z
_cell_length_a	16.625548
_cell_length_b	12.645330
_cell_length_c	16.625539
_cell_angle_alpha	89.973614
_cell_angle_beta	89.979432
_cell_angle_gamma	90.013714
loop_
_atom_site_label
_atom_site_type_symbol
_atom_site_fract_x
_atom_site_fract_y
_atom_site_fract_z
Zn1	Zn	1.232735	-0.422007	-0.455920
Zn2	Zn	1.482735	-0.172007	-0.205920
Zn3	Zn	1.732735	0.077993	0.044080
Zn4	Zn	1.982735	0.327993	0.294080
Zn5	Zn	1.232662	-0.599293	-0.321092
Zn6	Zn	1.482662	-0.349293	-0.071092
Zn7	Zn	1.732662	-0.099293	0.178908
Zn8	Zn	1.982662	0.150707	0.428908
Zn9	Zn	1.097897	-0.422048	-0.321101
Zn10	Zn	1.347897	-0.172048	-0.071101
Zn11	Zn	1.597897	0.077952	0.178899
Zn12	Zn	1.847897	0.327952	0.428899
Zn13	Zn	1.097891	-0.599232	-0.455882
Zn14	Zn	1.347891	-0.349232	-0.205882
Zn15	Zn	1.597891	-0.099232	0.044118
Zn16	Zn	1.847891	0.150768	0.294118
O17	O	1.165296	-0.510645	-0.388499
O18	O	1.415296	-0.260645	-0.138499
O19	O	1.665296	-0.010645	0.111501
O20	O	1.915296	0.239355	0.361501
O21	O	1.345558	-0.445533	-0.438047
O22	O	1.595558	-0.195533	-0.188047
O23	O	1.845558	0.054467	0.061953
O24	O	2.095558	0.304467	0.311953
O25	O	1.214757	-0.575824	-0.208261
O26	O	1.464757	-0.325824	0.041739
O27	O	1.714757	-0.075824	0.291739
O28	O	1.964757	0.174176	0.541739
O29	O	1.115817	-0.273695	-0.339004
O30	O	1.365817	-0.023695	-0.089004
O31	O	1.615817	0.226305	0.160996
O32	O	1.865817	0.476305	0.410996
O33	O	1.345504	-0.575784	-0.338990
O34	O	1.595504	-0.325784	-0.088990
O35	O	1.845504	-0.075784	0.161010
O36	O	2.095504	0.174216	0.411010
O37	O	1.214882	-0.273665	-0.438056
O38	O	1.464882	-0.023665	-0.188056
O39	O	1.714882	0.226335	0.061944
O40	O	1.964882	0.476335	0.311944
O41	O	1.115746	-0.445602	-0.208267
O42	O	1.365746	-0.195602	0.041733
O43	O	1.615746	0.054398	0.291733
O44	O	1.865746	0.304398	0.541733
O45	O	0.985064	-0.445543	-0.338967
O46	O	1.235064	-0.195543	-0.088967
O47	O	1.485064	0.054457	0.161033
O48	O	1.735064	0.304457	0.411033
O49	O	1.115806	-0.575681	-0.568719
O50	O	1.365806	-0.325681	-0.318719
O51	O	1.615806	-0.075681	-0.068719
O52	O	1.865806	0.174319	0.181281
O53	O	0.985059	-0.575720	-0.437990
O54	O	1.235059	-0.325720	-0.187990
O55	O	1.485059	-0.075720	0.062010
O56	O	1.735059	0.174280	0.312010
O57	O	1.214876	-0.445474	-0.568747
O58	O	1.464876	-0.195474	-0.318747
O59	O	1.714876	0.054526	-0.068747
O60	O	1.964876	0.304526	0.181253
O61	O	1.214751	-0.747632	-0.338952
O62	O	1.464751	-0.497632	-0.088952
O63	O	1.714751	-0.247632	0.161048
O64	O	1.964751	0.002368	0.411048
O65	O	1.115735	-0.747588	-0.437982
O66	O	1.365735	-0.497588	-0.187982
O67	O	1.615735	-0.247588	0.062018
O68	O	1.865735	0.002412	0.312018
C69	C	0.955806	-0.510630	-0.388476
C70	C	1.205806	-0.260630	-0.138476
C71	C	1.455806	-0.010630	0.111524
C72	C	1.705806	0.239370	0.361524
C73	C	0.866184	-0.510649	-0.388486
C74	C	1.116184	-0.260649	-0.138486
C75	C	1.366184	-0.010649	0.111514
C76	C	1.616184	0.239351	0.361514
C77	C	1.165256	-0.786075	-0.388480
C78	C	1.415256	-0.536075	-0.138480
C79	C	1.665256	-0.286075	0.111520
C80	C	1.915256	-0.036075	0.361520
C81	C	1.165312	-0.903905	-0.388498
C82	C	1.415312	-0.653905	-0.138498
C83	C	1.665312	-0.403905	0.111502
C84	C	1.915312	-0.153905	0.361502
C85	C	0.538009	-0.510656	-0.388520
C86	C	0.788009	-0.260656	-0.138520
C87	C	1.038009	-0.010656	0.111480
C88	C	1.288009	0.239344	0.361480
C89	C	0.629317	-0.510651	-0.388508
C90	C	0.879317	-0.260651	-0.138508
C91	C	1.129317	-0.010651	0.111492
C92	C	1.379317	0.239349	0.361492
C93	C	0.702094	-0.510653	-0.388502
C94	C	0.952094	-0.260653	-0.138502
C95	C	1.202094	-0.010653	0.111498
C96	C	1.452094	0.239347	0.361498
C97	C	0.793408	-0.510647	-0.388491
C98	C	1.043408	-0.260647	-0.138491
C99	C	1.293408	-0.010647	0.111509
C100	C	1.543408	0.239353	0.361509
C101	C	1.227503	-1.071453	-0.326072
C102	C	1.477503	-0.821453	-0.076072
C103	C	1.727503	-0.571453	0.173928
C104	C	1.977503	-0.321453	0.423928
C105	C	1.227706	-0.948893	-0.326225
C106	C	1.477706	-0.698893	-0.076225
C107	C	1.727706	-0.448893	0.173775
C108	C	1.977706	-0.198893	0.423775
C109	C	1.188356	-0.948288	-0.473491
C110	C	1.438356	-0.698288	-0.223491
C111	C	1.688356	-0.448288	0.026509
C112	C	1.938356	-0.198288	0.276509
C113	C	1.188849	-1.070886	-0.473160
C114	C	1.438849	-0.820886	-0.223160
C115	C	1.688849	-0.570886	0.026840
C116	C	1.938849	-0.320886	0.276840
C117	C	1.080054	-1.071234	-0.366769
C118	C	1.330054	-0.821234	-0.116769
C119	C	1.580054	-0.571234	0.133231
C120	C	1.830054	-0.321234	0.383231
C121	C	1.080463	-0.948630	-0.364863
C122	C	1.330463	-0.698630	-0.114863
C123	C	1.580463	-0.448630	0.135137
C124	C	1.830463	-0.198630	0.385137
C125	C	1.375605	-0.510661	-0.388522
C126	C	1.625605	-0.260661	-0.138522
C127	C	1.875605	-0.010661	0.111478
C128	C	2.125605	0.239339	0.361478
C129	C	1.465226	-0.510668	-0.388532
C130	C	1.715226	-0.260668	-0.138532
C131	C	1.965226	-0.010668	0.111468
C132	C	2.215226	0.239332	0.361468
C133	C	1.165349	-0.510566	-0.598808
C134	C	1.415349	-0.260566	-0.348808
C135	C	1.665349	-0.010566	-0.098808
C136	C	1.915349	0.239434	0.151192
C137	C	1.165371	-0.510532	-0.688429
C138	C	1.415371	-0.260532	-0.438429
C139	C	1.665371	-0.010532	-0.188429
C140	C	1.915371	0.239468	0.061571
C141	C	1.165359	-0.234140	-0.388535
C142	C	1.415359	0.015860	-0.138535
C143	C	1.665359	0.265860	0.111465
C144	C	1.915359	0.515860	0.361465
C145	C	1.165386	-0.116310	-0.388551
C146	C	1.415386	0.133690	-0.138551
C147	C	1.665386	0.383690	0.111449
C148	C	1.915386	0.633690	0.361449
C149	C	1.165408	-0.510414	-1.016605
C150	C	1.415408	-0.260414	-0.766605
C151	C	1.665408	-0.010414	-0.516605
C152	C	1.915408	0.239586	-0.266605
C153	C	1.165396	-0.510450	-0.925296
C154	C	1.415396	-0.260450	-0.675296
C155	C	1.665396	-0.010450	-0.425296
C156	C	1.915396	0.239550	-0.175296
C157	C	1.165390	-0.510474	-0.852520
C158	C	1.415390	-0.260474	-0.602520
C159	C	1.665390	-0.010474	-0.352520
C160	C	1.915390	0.239526	-0.102520
C161	C	1.165377	-0.510509	-0.761205
C162	C	1.415377	-0.260509	-0.511205
C163	C	1.665377	-0.010509	-0.261205
C164	C	1.915377	0.239491	-0.011205
C165	C	1.165291	-0.510647	-0.179008
C166	C	1.415291	-0.260647	0.070992
C167	C	1.665291	-0.010647	0.320992
C168	C	1.915291	0.239353	0.570992
C169	C	1.165424	-0.510382	-0.089387
C170	C	1.415424	-0.260382	0.160613
C171	C	1.665424	-0.010382	0.410613
C172	C	1.915424	0.239618	0.660613
H173	H	1.213289	-0.918889	-0.263205
H174	H	1.463289	-0.668889	-0.013205
H175	H	1.713289	-0.418889	0.236795
H176	H	1.963289	-0.168889	0.486795
F177	F	1.016702	-0.908618	-0.419981
F178	F	1.266702	-0.658618	-0.169981
F179	F	1.516702	-0.408618	0.080019
F180	F	1.766702	-0.158618	0.330019
F181	F	1.131015	-0.910207	-0.535968
F182	F	1.381015	-0.660207	-0.285968
F183	F	1.631015	-0.410207	-0.035968
F184	F	1.881015	-0.160207	0.214032
H185	H	1.059099	-1.102243	-0.305872
H186	H	1.309099	-0.852243	-0.055872
H187	H	1.559099	-0.602243	0.194128
H188	H	1.809099	-0.352243	0.444128
H189	H	1.290366	-1.102182	-0.340318
H190	H	1.540366	-0.852182	-0.090318
H191	H	1.790366	-0.602182	0.159682
H192	H	2.040366	-0.352182	0.409682
F193	F	1.310315	-0.910447	-0.345060
F194	F	1.560315	-0.660447	-0.095060
F195	F	1.810315	-0.410447	0.154940
F196	F	2.060315	-0.160447	0.404940
H197	H	1.063088	-0.919632	-0.302316
H198	H	1.313088	-0.669632	-0.052316
H199	H	1.563088	-0.419632	0.197684
H200	H	1.813088	-0.169632	0.447684
F201	F	1.268962	-0.908047	-0.498011
F202	F	1.518962	-0.658047	-0.248011
F203	F	1.768962	-0.408047	0.001989
F204	F	2.018962	-0.158047	0.251989
H205	H	1.213266	-1.101005	-0.262867
H206	H	1.463266	-0.851005	-0.012867
H207	H	1.713266	-0.601005	0.237133
H208	H	1.963266	-0.351005	0.487133
F209	F	1.270375	-1.108155	-0.497274
F210	F	1.520375	-0.858155	-0.247274
F211	F	1.770375	-0.608155	0.002726
F212	F	2.020375	-0.358155	0.252726
H213	H	1.145587	-1.100555	-0.521315
H214	H	1.395587	-0.850555	-0.271315
H215	H	1.645587	-0.600555	-0.021315
H216	H	1.895587	-0.350555	0.228685
F217	F	1.019558	-1.109153	-0.426246
F218	F	1.269558	-0.859153	-0.176246
F219	F	1.519558	-0.609153	0.073754
F220	F	1.769558	-0.359153	0.323754
