data_functionalizedCrystal
_audit_creation_method	'MofGen! by Chris Wilmer'
_symmetry_space_group_name_H-M	'P1'
_symmetry_Int_Tables_number	1
_symmetry_cell_setting	triclinic
loop_
_symmetry_equiv_pos_as_xyz
  x,y,z
_cell_length_a	13.031981
_cell_length_b	14.908750
_cell_length_c	13.032268
_cell_angle_alpha	100.844162
_cell_angle_beta	90.931652
_cell_angle_gamma	85.675630
loop_
_atom_site_label
_atom_site_type_symbol
_atom_site_fract_x
_atom_site_fract_y
_atom_site_fract_z
Zn1	Zn	-0.556289	-1.270509	0.435082
Zn2	Zn	-0.706747	-1.275228	0.240903
Zn3	Zn	-0.527037	-1.140658	0.272770
Zn4	Zn	-0.718614	-1.102881	0.425622
O5	O	-0.627172	-1.197319	0.343594
O6	O	-0.583523	-1.397606	0.399947
O7	O	-0.665700	-1.275162	0.099896
O8	O	-0.387774	-1.171717	0.311597
O9	O	-0.694065	-1.401073	0.257284
O10	O	-0.409265	-1.267118	0.430847
O11	O	-0.533668	-1.176293	0.123309
O12	O	-0.545174	-1.009176	0.302423
O13	O	-0.714289	-1.107333	0.572110
O14	O	-0.685925	-0.981422	0.414723
O15	O	-0.595030	-1.230488	0.579061
O16	O	-0.851464	-1.238531	0.248110
O17	O	-0.860183	-1.111909	0.383823
C18	C	-0.613664	-0.962506	0.361005
C19	C	-0.607912	-0.862047	0.368475
C20	C	-0.892943	-1.171655	0.311503
C21	C	-1.006650	-1.160754	0.297802
C22	C	-0.542381	-0.718622	0.453362
C23	C	-0.547776	-0.813012	0.446350
C24	C	-0.662659	-0.816683	0.297610
C25	C	-0.657264	-0.722292	0.304622
C26	C	-0.597121	-0.673265	0.382500
C27	C	-0.591720	-0.578874	0.389507
C28	C	-0.706609	-0.582545	0.240773
C29	C	-0.712004	-0.676936	0.233760
C30	C	-1.067900	-1.203054	0.350762
C31	C	-1.185422	-1.191788	0.336603
C32	C	-0.360366	-1.223105	0.375832
C33	C	-0.246670	-1.234093	0.389569
C34	C	-0.659246	-1.164170	0.614296
C35	C	-0.672914	-1.150044	0.729653
C36	C	-0.640722	-0.433051	0.326109
C37	C	-0.646467	-0.533510	0.318642
C38	C	-0.595151	-1.230398	0.073950
C39	C	-0.581205	-1.244727	-0.041384
C40	C	-0.620001	-1.204681	0.784522
C41	C	-0.634126	-1.190082	0.903749
H42	H	-0.542744	-0.538958	0.452915
H43	H	-1.212109	-1.278647	0.445400
H44	H	-0.689881	-1.132489	0.945039
N45	N	-0.507331	-1.321006	0.903941
H46	H	-0.507708	-1.320623	0.826520
H47	H	-0.529187	-1.381718	0.916124
N48	N	-0.477504	-0.665744	0.537347
H49	H	-0.503219	-0.671561	0.608324
H50	H	-0.482412	-0.599089	0.530944
N51	N	-0.488740	-0.861934	0.522782
H52	H	-0.449824	-0.816549	0.573179
H53	H	-0.438577	-0.910824	0.483431
N54	N	-0.727525	-0.869569	0.213621
H55	H	-0.722635	-0.936247	0.219936
H56	H	-0.701763	-0.863683	0.142688
H57	H	-0.728666	-1.092454	0.770947
N58	N	-1.231195	-1.132774	0.262646
H59	H	-1.174174	-1.106094	0.229248
H60	H	-1.278155	-1.081528	0.302648
H61	H	-0.760973	-0.716866	0.170356
N62	N	-1.052419	-1.101735	0.223854
H63	H	-1.099369	-1.050441	0.263790
H64	H	-1.093104	-1.140236	0.167783
H65	H	-0.751185	-0.545606	0.183073
H66	H	-0.564238	-1.262262	0.743230
H67	H	-1.033335	-1.247604	0.406589
