data_functionalizedCrystal
_audit_creation_method	'MofGen! by Chris Wilmer'
_symmetry_space_group_name_H-M	'P1'
_symmetry_Int_Tables_number	1
_symmetry_cell_setting	triclinic
loop_
_symmetry_equiv_pos_as_xyz
  x,y,z
_cell_length_a	12.811457
_cell_length_b	19.188924
_cell_length_c	11.892095
_cell_angle_alpha	93.873774
_cell_angle_beta	91.498327
_cell_angle_gamma	83.595027
loop_
_atom_site_label
_atom_site_type_symbol
_atom_site_fract_x
_atom_site_fract_y
_atom_site_fract_z
O1	O	1.388760	0.096319	0.048362
O2	O	1.888760	0.596319	0.548362
O3	O	1.085359	0.105076	0.017255
O4	O	1.585359	0.605076	0.517255
O5	O	1.245818	-0.000872	0.033720
O6	O	1.745818	0.499128	0.533720
O7	O	1.228301	0.202267	0.031897
O8	O	1.728301	0.702267	0.531897
O9	O	1.232439	0.007948	0.220354
O10	O	1.732439	0.507948	0.720354
O11	O	1.071981	0.113896	0.203890
O12	O	1.571981	0.613896	0.703890
O13	O	1.375381	0.105139	0.234996
O14	O	1.875381	0.605139	0.734996
Zn15	Zn	1.221557	0.110918	0.249075
Zn16	Zn	1.721557	0.610918	0.749075
Zn17	Zn	1.239184	0.099297	0.003176
Zn18	Zn	1.739184	0.599297	0.503176
O19	O	1.214923	0.211087	0.218532
O20	O	1.714923	0.711087	0.718532
C21	C	1.039854	0.108725	0.106593
C22	C	1.539854	0.608725	0.606593
C23	C	0.924195	0.106449	0.094736
C24	C	1.424195	0.606449	0.594736
C25	C	0.692272	0.111776	0.275946
C26	C	1.192272	0.611776	0.775946
C27	C	0.583599	0.109638	0.264811
C28	C	1.083599	0.609638	0.764811
C29	C	0.598175	0.100029	0.061330
C30	C	1.098175	0.600029	0.561330
C31	C	0.706848	0.102168	0.072466
C32	C	1.206848	0.602168	0.572466
C33	C	0.753892	0.108042	0.179777
C34	C	1.253892	0.608042	0.679777
C35	C	0.862566	0.110185	0.190912
C36	C	1.362566	0.610185	0.690912
C37	C	0.877141	0.100572	-0.012568
C38	C	1.377141	0.600572	0.487432
C39	C	0.768468	0.098434	-0.023703
C40	C	1.268468	0.598434	0.476297
C41	C	1.238562	-0.022478	0.126980
C42	C	1.738562	0.477522	0.626980
C43	C	1.236863	-0.100000	0.126809
C44	C	1.736863	0.400000	0.626809
C45	C	1.243363	-0.141214	0.024993
C46	C	1.743363	0.358786	0.524993
C47	C	1.241752	-0.214053	0.024819
C48	C	1.741752	0.285947	0.524819
C49	C	1.233662	-0.245676	0.126469
C50	C	1.733662	0.254324	0.626469
C51	C	1.227155	-0.204452	0.228298
C52	C	1.727155	0.295548	0.728298
C53	C	1.228756	-0.131614	0.228468
C54	C	1.728756	0.368386	0.728468
N55	N	1.285012	-0.361204	0.208007
N56	N	1.785012	0.138796	0.708007
N57	N	1.283495	-0.430398	0.207839
N58	N	1.783495	0.069602	0.707839
C59	C	1.228836	-0.465133	0.125964
C60	C	1.728836	0.034867	0.625964
N61	N	1.175767	-0.428063	0.044246
N62	N	1.675767	0.071937	0.544246
N63	N	1.177290	-0.358863	0.044412
N64	N	1.677290	0.141137	0.544412
C65	C	1.231924	-0.324656	0.126296
C66	C	1.731924	0.175344	0.626296
C67	C	1.233588	-0.585328	0.023952
C68	C	1.733588	-0.085328	0.523952
C69	C	1.231970	-0.658168	0.023782
C70	C	1.731970	-0.158168	0.523782
C71	C	1.217384	-0.648566	0.227265
C72	C	1.717384	-0.148566	0.727265
C73	C	1.218992	-0.575727	0.227431
C74	C	1.718992	-0.075727	0.727431
C75	C	1.227099	-0.544113	0.125772
C76	C	1.727099	-0.044113	0.625772
C77	C	1.420887	0.101490	0.145656
C78	C	1.920887	0.601490	0.645656
C79	C	1.536547	0.103766	0.157506
C80	C	2.036547	0.603766	0.657506
C81	C	1.222178	0.232693	0.125269
C82	C	1.722178	0.732693	0.625269
C83	C	1.223879	0.310214	0.125433
C84	C	1.723879	0.810214	0.625433
N85	N	1.209535	0.118848	0.416896
N86	N	1.709535	0.618848	0.916896
N87	N	1.251214	0.091361	-0.164644
N88	N	1.751214	0.591361	0.335356
C89	C	1.334872	0.036138	0.666404
C90	C	1.834872	0.536138	1.166404
C91	C	1.326476	0.041686	0.783885
C92	C	1.826476	0.541686	1.283885
C93	C	1.184342	0.135490	0.769339
C94	C	1.684342	0.635490	1.269339
C95	C	1.192738	0.129941	0.651858
C96	C	1.692738	0.629941	1.151858
C97	C	1.268006	0.080264	0.600396
C98	C	1.768006	0.580264	1.100396
C99	C	1.276407	0.074720	0.482914
C100	C	1.776407	0.574720	0.982914
C101	C	1.134269	0.168520	0.468369
C102	C	1.634269	0.668520	0.968369
C103	C	1.125873	0.174068	0.585850
C104	C	1.625873	0.674068	1.085850
H105	H	0.559855	0.095235	-0.026038
H106	H	1.059855	0.595235	0.473962
C107	C	1.043075	0.228705	0.642472
C108	C	1.543075	0.728705	1.142472
N109	N	0.980710	0.269859	0.685118
N110	N	1.480710	0.769859	1.185118
C111	C	1.211853	-0.530390	0.339440
C112	C	1.711853	-0.030390	0.839440
N113	N	1.206473	-0.496242	0.423810
N114	N	1.706473	0.003758	0.923810
H115	H	1.220565	-0.230204	0.311062
H116	H	1.720565	0.269796	0.811062
H117	H	1.237258	-0.691724	-0.059133
H118	H	1.737258	-0.191724	0.440867
C119	C	1.400029	-0.006859	0.856490
C120	C	1.900029	0.493141	1.356490
N121	N	1.455432	-0.043427	0.911177
N122	N	1.955432	0.456573	1.411177
C123	C	0.515819	0.113752	0.370604
C124	C	1.015819	0.613752	0.870604
N125	N	0.464767	0.116852	0.450293
N126	N	0.964767	0.616852	0.950293
H127	H	1.223459	-0.098056	0.311381
H128	H	1.723459	0.401944	0.811381
C129	C	1.242490	-0.550549	-0.087876
C130	C	1.742490	-0.050549	0.412124
N131	N	1.249192	-0.524355	-0.172106
N132	N	1.749192	-0.024355	0.327894
H133	H	1.210789	-0.674312	0.310030
H134	H	1.710789	-0.174312	0.810030
H135	H	1.079826	0.204453	0.414611
H136	H	1.579826	0.704453	0.914611
H137	H	1.337696	0.034272	0.441014
H138	H	1.837696	0.534272	0.941014
H139	H	1.396165	-0.004307	0.624504
H140	H	1.896165	0.495693	1.124504
H141	H	0.900866	0.114973	0.278290
H142	H	1.400866	0.614973	0.778290
C143	C	0.744022	0.118242	0.393988
C144	C	1.244022	0.618242	0.893988
N145	N	0.782999	0.123112	0.482899
N146	N	1.282999	0.623112	0.982899
H147	H	0.730150	0.093647	-0.111073
H148	H	1.230150	0.593647	0.388927
C149	C	0.944932	0.096465	-0.118361
C150	C	1.444932	0.596465	0.381639
N151	N	0.995993	0.093373	-0.198042
N152	N	1.495993	0.593373	0.301958
H153	H	1.249961	-0.115479	-0.057787
H154	H	1.749961	0.384521	0.442213
C155	C	1.248896	-0.259397	-0.087192
C156	C	1.748896	0.240603	0.412808
N157	N	1.254275	-0.293548	-0.171559
N158	N	1.754275	0.206452	0.328441
H159	H	1.123054	0.175931	0.811255
H160	H	1.623054	0.675931	1.311255
