data_functionalizedCrystal
_audit_creation_method	'MofGen! by Chris Wilmer'
_symmetry_space_group_name_H-M	'P1'
_symmetry_Int_Tables_number	1
_symmetry_cell_setting	triclinic
loop_
_symmetry_equiv_pos_as_xyz
  x,y,z
_cell_length_a	9.065218
_cell_length_b	14.971486
_cell_length_c	14.048226
_cell_angle_alpha	89.993360
_cell_angle_beta	89.993494
_cell_angle_gamma	84.315007
loop_
_atom_site_label
_atom_site_type_symbol
_atom_site_fract_x
_atom_site_fract_y
_atom_site_fract_z
O1	O	1.957746	0.131155	-0.079164
O2	O	2.457746	0.631155	0.420836
O3	O	1.528243	0.141913	-0.079165
O4	O	2.028243	0.641913	0.420835
O5	O	1.754506	0.006420	-0.079158
O6	O	2.254506	0.506420	0.420842
O7	O	1.731482	0.266649	-0.079171
O8	O	2.231482	0.766649	0.420829
O9	O	1.754479	0.006412	0.079164
O10	O	2.254479	0.506412	0.579164
O11	O	1.528216	0.141905	0.079156
O12	O	2.028216	0.641905	0.579156
O13	O	1.957719	0.131147	0.079158
O14	O	2.457719	0.631147	0.579158
Zn15	Zn	1.742963	0.136525	0.104294
Zn16	Zn	2.242963	0.636525	0.604294
Zn17	Zn	1.742999	0.136536	-0.104301
Zn18	Zn	2.242999	0.636536	0.395699
O19	O	1.731455	0.266640	0.079150
O20	O	2.231455	0.766640	0.579150
C21	C	1.753463	-0.026916	0.000003
C22	C	2.253463	0.473084	0.500003
C23	C	1.750377	-0.126237	0.000002
C24	C	2.250377	0.373763	0.500002
C25	C	1.473263	0.140875	-0.000005
C26	C	1.973263	0.640875	0.499995
C27	C	1.309483	0.137784	-0.000005
C28	C	1.809483	0.637784	0.499995
C29	C	1.883301	-0.182471	0.000003
C30	C	2.383301	0.317529	0.500003
C31	C	1.880393	-0.275792	-0.000007
C32	C	2.380393	0.224208	0.499993
C33	C	1.744560	-0.312877	-0.000010
C34	C	2.244560	0.187123	0.499990
C35	C	1.611626	-0.256635	-0.000014
C36	C	2.111626	0.243365	0.499986
C37	C	1.614535	-0.163316	-0.000012
C38	C	2.114535	0.336684	0.499988
C39	C	1.605571	-0.451143	-0.000018
C40	C	2.105571	0.048857	0.499982
C41	C	1.602660	-0.544468	-0.000019
C42	C	2.102660	-0.044468	0.499981
C43	C	1.871428	-0.563619	-0.000013
C44	C	2.371428	-0.063619	0.499987
C45	C	1.874338	-0.470300	-0.000010
C46	C	2.374338	0.029700	0.499990
C47	C	1.741403	-0.414064	-0.000012
C48	C	2.241403	0.085936	0.499988
C49	C	2.012698	0.132185	-0.000005
C50	C	2.512698	0.632185	0.499995
C51	C	2.176478	0.135277	-0.000011
C52	C	2.676478	0.635277	0.499989
C53	C	1.732498	0.299977	-0.000012
C54	C	2.232498	0.799977	0.499988
C55	C	1.735584	0.399297	-0.000018
C56	C	2.235584	0.899297	0.499982
N57	N	1.742949	0.136517	0.246655
N58	N	2.242949	0.636517	0.746655
N59	N	1.743024	0.136537	-0.246662
N60	N	2.243024	0.636537	0.253338
C61	C	1.843170	0.076546	0.296476
C62	C	2.343170	0.576546	0.796476
C63	C	1.843180	0.076545	0.396134
C64	C	2.343180	0.576545	0.896134
C65	C	1.742975	0.136521	0.445968
C66	C	2.242975	0.636521	0.945968
C67	C	1.642743	0.196495	0.396140
C68	C	2.142743	0.696495	0.896140
C69	C	1.642727	0.196490	0.296484
C70	C	2.142727	0.696490	0.796484
C71	C	1.642786	0.196502	0.603854
C72	C	2.142786	0.696502	1.103854
C73	C	1.642803	0.196508	0.703517
C74	C	2.142803	0.696508	1.203517
C75	C	1.843238	0.076557	0.703504
C76	C	2.343238	0.576557	1.203504
C77	C	1.843222	0.076552	0.603848
C78	C	2.343222	0.576552	1.103848
C79	C	1.742992	0.136527	0.554026
C80	C	2.242992	0.636527	1.054026
H81	H	1.993912	-0.152285	0.000012
H82	H	2.493912	0.347715	0.500012
H83	H	1.561147	0.245325	0.436721
H84	H	2.061147	0.745325	0.936721
F85	F	1.536148	0.260341	0.756547
F86	F	2.036148	0.760341	1.256547
H87	H	1.561163	0.245337	0.563293
H88	H	2.061163	0.745337	1.063293
F89	F	1.949911	0.012728	0.756531
F90	F	2.449911	0.512728	1.256531
H91	H	1.984945	-0.440109	0.000000
H92	H	2.484945	0.059891	0.500000
F93	F	1.536054	0.260317	0.243462
F94	F	2.036054	0.760317	0.743462
F95	F	1.949831	0.012714	0.243448
F96	F	2.449831	0.512714	0.743448
F97	F	1.949844	0.012717	0.449157
F98	F	2.449844	0.512717	0.949157
F99	F	1.467061	-0.296106	-0.000029
F100	F	1.967061	0.203894	0.499971
H101	H	1.988633	-0.321575	-0.000004
H102	H	2.488633	0.178425	0.499996
F103	F	1.949879	0.012726	0.550810
F104	F	2.449879	0.512726	1.050810
F105	F	2.012908	-0.623470	-0.000015
F106	F	2.512908	-0.123470	0.499985
F107	F	1.464086	-0.391294	-0.000022
F108	F	1.964086	0.108706	0.499978
F109	F	1.458092	-0.583935	-0.000022
F110	F	1.958092	-0.083935	0.499978
H111	H	1.506295	-0.117530	-0.000013
H112	H	2.006295	0.382470	0.499987
