data_functionalizedCrystal
_audit_creation_method	'MofGen! by Chris Wilmer'
_symmetry_space_group_name_H-M	'P1'
_symmetry_Int_Tables_number	1
_symmetry_cell_setting	triclinic
loop_
_symmetry_equiv_pos_as_xyz
  x,y,z
_cell_length_a	6.817900
_cell_length_b	10.992469
_cell_length_c	10.992410
_cell_angle_alpha	91.830594
_cell_angle_beta	108.764651
_cell_angle_gamma	108.765624
loop_
_atom_site_label
_atom_site_type_symbol
_atom_site_fract_x
_atom_site_fract_y
_atom_site_fract_z
V1	V	-4.114252	-0.177761	-0.400575
O2	O	-4.072376	0.008542	-0.392968
O3	O	-4.091835	-0.352470	-0.397817
O4	O	-4.091844	-0.175026	-0.575288
O5	O	-4.072367	-0.170130	-0.214269
V6	V	-4.591146	-0.155477	-0.378293
O7	O	-4.390054	-0.226642	-0.449451
O8	O	-4.765541	-0.106595	-0.329417
O9	O	-4.390356	0.019232	-0.381051
O10	O	-4.750419	-0.341780	-0.385900
O11	O	-4.750428	-0.163108	-0.564599
O12	O	-4.390347	-0.158211	-0.203581
C13	C	-3.942316	-0.395060	-0.391493
C14	C	-4.005448	-0.537887	-0.390403
C15	C	-3.942326	-0.168712	-0.617873
C16	C	-4.005461	-0.167632	-0.760701
C17	C	-3.807069	-0.584385	-0.382247
C18	C	-3.872923	-0.733022	-0.381616
C19	C	-4.270158	-0.764535	-0.515760
C20	C	-4.203032	-0.615889	-0.516930
C21	C	-4.079366	-0.577587	-0.271579
C22	C	-4.140104	-0.725808	-0.268700
C23	C	-3.872583	-0.157796	-0.955826
C24	C	-3.807033	-0.159451	-0.807342
C25	C	-4.203480	-0.294312	-0.837792
C26	C	-4.267793	-0.293192	-0.986359
C27	C	-4.145553	-0.047893	-0.948352
C28	C	-4.074844	-0.047293	-0.799339
C29	C	-4.203218	0.061816	-0.387371
C30	C	-4.119326	0.204641	-0.388470
C31	C	-4.203207	-0.164530	-0.160989
C32	C	-4.119310	-0.165603	-0.018159
H33	H	-3.756357	-0.752659	-0.290140
C34	C	-4.387346	-0.054104	-1.003536
N35	N	-4.569465	-0.058790	-1.045109
H36	H	-4.353856	-0.304874	-0.808988
C37	C	-4.513671	-0.308083	-1.043955
N38	N	-4.698869	-0.319314	-1.087334
H39	H	-4.042637	0.048305	-0.968721
H40	H	-4.227052	-0.548039	-0.276362
C41	C	-4.266643	-0.045187	-0.755268
N42	N	-4.411057	-0.043581	-0.722026
C43	C	-3.881310	0.079312	-0.728624
N44	N	-3.735535	0.174668	-0.675351
C45	C	-3.729793	-0.275299	-0.773802
N46	N	-3.671621	-0.362563	-0.748542
H47	H	-4.353047	-0.586514	-0.528115
H48	H	-3.657894	-0.531792	-0.291257
C49	C	-4.141660	-0.415018	-0.803199
N50	N	-4.095083	-0.505930	-0.777147
H51	H	-4.451611	-0.806311	-0.525421
H52	H	-3.749666	-0.557714	-0.467603
C53	C	-3.838929	-0.795587	-0.497004
N54	N	-3.813329	-0.842712	-0.583923
H55	H	-3.755378	-0.066081	-0.974664
C56	C	-4.253570	-0.830510	-0.635942
N57	N	-4.241058	-0.880197	-0.726460
C58	C	-3.894992	-0.503887	-0.142585
N59	N	-3.756102	-0.448377	-0.045433
H60	H	-3.847648	-0.242371	-1.003809
H61	H	-4.027648	-0.744010	-0.174605
C62	C	-4.376129	-0.782062	-0.265434
N63	N	-4.553920	-0.824429	-0.262988
C64	C	-3.606441	-0.036408	-0.735292
N65	N	-3.455337	0.056267	-0.681029
H66	H	-4.157387	-0.592854	-0.606780
C67	C	-4.246750	-0.413592	-1.048857
N68	N	-4.230885	-0.504276	-1.095924
