data_functionalizedCrystal
_audit_creation_method	'MofGen! by Chris Wilmer'
_symmetry_space_group_name_H-M	'P1'
_symmetry_Int_Tables_number	1
_symmetry_cell_setting	triclinic
loop_
_symmetry_equiv_pos_as_xyz
  x,y,z
_cell_length_a	13.339070
_cell_length_b	15.538191
_cell_length_c	12.376457
_cell_angle_alpha	96.760679
_cell_angle_beta	75.589755
_cell_angle_gamma	81.450694
loop_
_atom_site_label
_atom_site_type_symbol
_atom_site_fract_x
_atom_site_fract_y
_atom_site_fract_z
O1	O	1.207811	0.419051	-0.094003
O2	O	0.934051	0.362493	-0.094002
O3	O	1.124222	0.267570	-0.094008
O4	O	1.017640	0.513974	-0.093997
O5	O	1.076708	0.291259	0.094005
O6	O	0.886537	0.386182	0.094011
O7	O	1.160297	0.442740	0.094010
Zn8	Zn	1.015874	0.418223	0.123862
Zn9	Zn	1.078475	0.387011	-0.123854
O10	O	0.970126	0.537663	0.094016
C11	C	0.876113	0.364784	0.000004
C12	C	0.774268	0.336307	0.000004
C13	C	0.328171	0.557731	-0.000004
C14	C	0.423859	0.584490	-0.000007
C15	C	0.511466	0.522446	-0.000004
C16	C	0.503376	0.433640	0.000002
C17	C	0.407681	0.406878	-0.000004
C18	C	0.590975	0.371593	-0.000004
C19	C	0.582885	0.282786	0.000002
C20	C	0.487198	0.256029	-0.000003
C21	C	0.399592	0.318072	-0.000006
C22	C	0.686670	0.398355	0.000002
C23	C	0.766179	0.247501	0.000002
C24	C	0.670491	0.220743	0.000005
C25	C	1.111617	0.247233	-0.000005
C26	C	1.144835	0.151340	-0.000017
C27	C	0.814845	-0.222695	0.000009
C28	C	0.846079	-0.312797	0.000011
C29	C	1.021762	-0.289322	0.000010
C30	C	0.990545	-0.199217	0.000002
C31	C	0.887085	-0.165911	0.000003
C32	C	1.062785	-0.142432	-0.000004
C33	C	1.031568	-0.052334	-0.000006
C34	C	0.928112	-0.019021	-0.000002
C35	C	0.855868	-0.075813	0.000001
C36	C	1.166243	-0.175739	0.000003
C37	C	1.238482	-0.118955	-0.000003
C38	C	1.207268	-0.028856	-0.000013
C39	C	1.103812	0.004457	-0.000009
C40	C	1.279512	0.027936	-0.000015
C41	C	1.248295	0.118034	-0.000017
C42	C	1.072595	0.094555	-0.000011
C43	C	1.218236	0.440449	0.000001
C44	C	1.320083	0.468926	-0.000006
C45	C	0.982732	0.558000	0.000011
C46	C	0.949516	0.653893	0.000015
N47	N	0.973157	0.439525	0.292922
N48	N	1.121201	0.365704	-0.292914
C49	C	1.220367	0.316238	0.647899
C50	C	1.250259	0.301327	0.529558
C51	C	1.180986	0.335875	0.470393
C52	C	1.081816	0.385337	0.529581
C53	C	1.051923	0.400255	0.647933
C54	C	1.012543	0.419892	0.470427
C55	C	0.913372	0.469354	0.529615
C56	C	0.883485	0.484269	0.647955
C57	C	0.952758	0.449721	0.707120
C58	C	1.042435	0.404974	0.352075
C59	C	0.873991	0.488991	0.352109
C60	C	0.844099	0.503902	0.470450
H61	H	0.256840	0.608236	-0.000016
H62	H	1.123180	0.364702	0.303895
N63	N	1.357213	0.247982	0.465727
H64	H	1.365640	0.243779	0.381778
H65	H	1.413800	0.277675	0.486405
H66	H	0.663892	0.148434	0.000001
N67	N	0.614666	0.551312	0.000008
H68	H	0.635699	0.536929	0.069711
H69	H	0.670878	0.519353	-0.069728
N70	N	0.695379	0.494135	0.000005
H71	H	0.715690	0.517386	0.069703
H72	H	0.750907	0.499753	-0.069736
N73	N	0.920516	0.465811	0.834763
H74	H	0.855208	0.440477	0.863284
H75	H	0.979511	0.436420	0.863165
N76	N	0.894427	0.078154	-0.000004
H77	H	0.903783	0.113254	0.069690
H78	H	0.939024	0.095606	-0.069750
H79	H	1.276763	0.288119	0.696079
N80	N	0.296377	0.289212	0.000025
H81	H	0.242107	0.341995	0.000036
H82	H	0.306624	0.244350	-0.069668
N83	N	0.860654	0.180569	0.000007
H84	H	0.919746	0.179528	-0.069686
H85	H	0.884420	0.197130	0.069754
N86	N	0.703246	-0.186778	0.000027
H87	H	0.668772	-0.141141	0.069730
H88	H	0.704058	-0.158746	-0.069709
N89	N	0.478472	0.160246	0.000003
H90	H	0.404561	0.152708	-0.000002
H91	H	0.530177	0.123203	-0.069694
N92	N	0.432578	0.680269	0.000005
H93	H	0.506490	0.687808	0.000007
H94	H	0.416107	0.699749	-0.069692
N95	N	0.776524	0.537613	0.711797
H96	H	0.737170	0.557230	0.656363
H97	H	0.735424	0.500197	0.760901
H98	H	0.763352	0.544175	0.518655
N99	N	0.768153	-0.374042	0.000018
H100	H	0.741927	-0.372279	-0.069678
H101	H	0.803688	-0.436141	0.000063
H102	H	0.988350	0.121673	-0.000019
H103	H	0.771623	-0.048695	-0.000007
H104	H	1.105999	-0.316452	0.000014
N105	N	0.799268	0.526262	0.288311
H106	H	0.833250	0.509305	0.204359
H107	H	0.732222	0.501793	0.309012
N108	N	1.199910	-0.272916	0.000012
H109	H	1.190560	-0.308013	-0.069687
H110	H	1.276399	-0.285320	0.000062
N111	N	1.350064	-0.154879	0.000008
H112	H	1.358879	-0.220572	0.000014
H113	H	1.400585	-0.142791	-0.069694
N114	N	1.391090	-0.007989	0.000006
H115	H	1.399901	-0.073681	0.000016
H116	H	1.441618	0.004094	-0.069693
H117	H	1.205329	0.323732	0.374035
H118	H	1.307120	0.164270	-0.000021
