data_functionalizedCrystal
_audit_creation_method	'MofGen! by Chris Wilmer'
_symmetry_space_group_name_H-M	'P1'
_symmetry_Int_Tables_number	1
_symmetry_cell_setting	triclinic
loop_
_symmetry_equiv_pos_as_xyz
  x,y,z
_cell_length_a	29.839135
_cell_length_b	29.839131
_cell_length_c	16.959447
_cell_angle_alpha	90.041568
_cell_angle_beta	90.018681
_cell_angle_gamma	90.037758
loop_
_atom_site_label
_atom_site_type_symbol
_atom_site_fract_x
_atom_site_fract_y
_atom_site_fract_z
Zn1	Zn	0.686753	-0.178814	0.446939
Zn2	Zn	1.020086	0.154519	0.780272
Zn3	Zn	1.353420	0.487853	1.113606
Zn4	Zn	0.686689	-0.253947	0.314734
Zn5	Zn	1.020023	0.079386	0.648068
Zn6	Zn	1.353356	0.412719	0.981401
Zn7	Zn	0.611632	-0.178836	0.314766
Zn8	Zn	0.944965	0.154498	0.648100
Zn9	Zn	1.278298	0.487831	0.981433
Zn10	Zn	0.611592	-0.253921	0.446863
Zn11	Zn	0.944925	0.079412	0.780196
Zn12	Zn	1.278258	0.412746	1.113530
O13	O	0.649166	-0.216380	0.380826
O14	O	0.982500	0.116954	0.714159
O15	O	1.315833	0.450287	1.047492
O16	O	0.749612	-0.188783	0.429420
O17	O	1.082945	0.144551	0.762753
O18	O	1.416278	0.477884	1.096087
O19	O	0.676723	-0.244004	0.204128
O20	O	1.010056	0.089330	0.537461
O21	O	1.343389	0.422663	0.870794
O22	O	0.621640	-0.115966	0.332344
O23	O	0.954974	0.217368	0.665678
O24	O	1.288307	0.550701	0.999011
O25	O	0.749565	-0.243983	0.332290
O26	O	1.082898	0.089350	0.665623
O27	O	1.416231	0.422684	0.998957
O28	O	0.676832	-0.115950	0.429451
O29	O	1.010165	0.217384	0.762784
O30	O	1.343498	0.550717	1.096118
O31	O	0.621578	-0.188819	0.204151
O32	O	0.954912	0.144514	0.537484
O33	O	1.288245	0.477847	0.870818
O34	O	0.548759	-0.188794	0.332271
O35	O	0.882093	0.144540	0.665604
O36	O	1.215426	0.477873	0.998937
O37	O	0.621572	-0.243938	0.557484
O38	O	0.954905	0.089395	0.890817
O39	O	1.288239	0.422729	1.224151
O40	O	0.548730	-0.243959	0.429322
O41	O	0.882063	0.089374	0.762655
O42	O	1.215397	0.422708	1.095988
O43	O	0.676793	-0.188757	0.557540
O44	O	1.010126	0.144576	0.890873
O45	O	1.343460	0.477909	1.224206
O46	O	0.676684	-0.316811	0.332216
O47	O	1.010017	0.016522	0.665550
O48	O	1.343351	0.349856	0.998883
O49	O	0.621510	-0.316792	0.429291
O50	O	0.954843	0.016542	0.762624
O51	O	1.288177	0.349875	1.095957
C52	C	0.532444	-0.216376	0.380792
C53	C	0.865777	0.116957	0.714125
C54	C	1.199111	0.450291	1.047459
C55	C	0.482509	-0.216385	0.380796
C56	C	0.815843	0.116948	0.714130
C57	C	1.149176	0.450281	1.047463
C58	C	0.172888	-0.187680	0.431476
C59	C	0.506221	0.145653	0.764809
C60	C	0.839554	0.478986	1.098142
C61	C	-0.014785	-0.187683	0.431498
C62	C	0.318548	0.145650	0.764832
C63	C	0.651881	0.478983	1.098165
O64	O	-0.039032	-0.163267	0.474550
O65	O	0.294301	0.170066	0.807884
O66	O	0.627635	0.503399	1.141217
N67	N	-0.038276	-0.216380	0.380855
N68	N	0.295058	0.116953	0.714188
N69	N	0.628391	0.450287	1.047521
C70	C	-0.014845	-0.245076	0.330198
C71	C	0.318489	0.088258	0.663531
C72	C	0.651822	0.421591	0.996865
O73	O	-0.039131	-0.269481	0.287117
O74	O	0.294203	0.063853	0.620451
O75	O	0.627536	0.397186	0.953784
C76	C	0.172828	-0.245070	0.330172
C77	C	0.506161	0.088263	0.663506
C78	C	0.839494	0.421597	0.996839
C79	C	0.196315	-0.216375	0.380825
C80	C	0.529649	0.116958	0.714158
C81	C	0.862982	0.450292	1.047491
C82	C	0.196375	-0.158987	0.482124
C83	C	0.529709	0.174346	0.815457
C84	C	0.863042	0.507679	1.148790
C85	C	0.243291	-0.158988	0.482120
C86	C	0.576624	0.174345	0.815454
C87	C	0.909957	0.507678	1.148787
C88	C	0.266718	-0.187683	0.431470
C89	C	0.600052	0.145650	0.764803
C90	C	0.933385	0.478984	1.098136
C91	C	0.243231	-0.216376	0.380822
C92	C	0.576564	0.116957	0.714155
C93	C	0.909897	0.450291	1.047488
C94	C	0.196258	-0.273763	0.279512
C95	C	0.529591	0.059570	0.612846
C96	C	0.862924	0.392903	0.946179
C97	C	0.243179	-0.273758	0.279509
C98	C	0.576512	0.059575	0.612842
C99	C	0.909845	0.392908	0.946176
C100	C	0.266666	-0.245063	0.330162
C101	C	0.600000	0.088270	0.663495
C102	C	0.933333	0.421603	0.996828
C103	C	0.313574	-0.245072	0.330168
C104	C	0.646907	0.088262	0.663501
C105	C	0.980241	0.421595	0.996834
N106	N	0.337064	-0.216375	0.380811
N107	N	0.670397	0.116958	0.714145
N108	N	1.003731	0.450291	1.047478
C109	C	0.313636	-0.187681	0.431462
C110	C	0.646970	0.145653	0.764796
C111	C	0.980303	0.478986	1.098129
C112	C	-0.113375	-0.245077	0.330216
C113	C	0.219958	0.088256	0.663550
C114	C	0.553291	0.421589	0.996883
C115	C	-0.160293	-0.245079	0.330224
C116	C	0.173040	0.088254	0.663557
C117	C	0.506374	0.421587	0.996890
C118	C	-0.160231	-0.187686	0.431523
C119	C	0.173103	0.145647	0.764856
C120	C	0.506436	0.478980	1.098190
C121	C	-0.113312	-0.187687	0.431519
C122	C	0.220021	0.145646	0.764852
C123	C	0.553355	0.478980	1.098186
C124	C	-0.089885	-0.216381	0.380860
C125	C	0.243448	0.116953	0.714193
C126	C	0.576782	0.450286	1.047527
C127	C	0.412162	-0.187686	0.431452
C128	C	0.745496	0.145647	0.764786
C129	C	1.078829	0.478981	1.098119
C130	C	0.459082	-0.187691	0.431447
C131	C	0.792415	0.145642	0.764780
C132	C	1.125748	0.478976	1.098114
C133	C	0.459015	-0.245082	0.330145
C134	C	0.792349	0.088251	0.663479
C135	C	1.125682	0.421585	0.996812
C136	C	0.412100	-0.245079	0.330153
C137	C	0.745433	0.088254	0.663486
C138	C	1.078766	0.421588	0.996820
C139	C	0.388674	-0.216377	0.380809
C140	C	0.722008	0.116956	0.714143
C141	C	1.055341	0.450290	1.047476
O142	O	0.337849	-0.269472	0.287132
O143	O	0.671183	0.063862	0.620465
O144	O	1.004516	0.397195	0.953799
O145	O	0.337930	-0.163272	0.474524
O146	O	0.671264	0.170061	0.807857
O147	O	1.004597	0.503394	1.141191
C148	C	0.125972	-0.187679	0.431479
C149	C	0.459305	0.145654	0.764812
C150	C	0.792639	0.478988	1.098146
C151	C	0.102484	-0.216372	0.380831
C152	C	0.435818	0.116961	0.714164
C153	C	0.769151	0.450294	1.047498
C154	C	0.125912	-0.245067	0.330180
C155	C	0.459245	0.088266	0.663513
C156	C	0.792579	0.421600	0.996847
C157	C	0.055567	-0.216374	0.380838
C158	C	0.388900	0.116959	0.714172
C159	C	0.722233	0.450292	1.047505
C160	C	0.032139	-0.187680	0.431489
C161	C	0.365472	0.145653	0.764823
C162	C	0.698805	0.478987	1.098156
C163	C	0.055629	-0.158983	0.482133
C164	C	0.388962	0.174350	0.815466
C165	C	0.722296	0.507683	1.148800
C166	C	0.102544	-0.158985	0.482130
C167	C	0.435878	0.174349	0.815463
C168	C	0.769211	0.507682	1.148796
C169	C	0.102422	-0.273763	0.279537
C170	C	0.435755	0.059570	0.612870
C171	C	0.769089	0.392903	0.946203
C172	C	0.055507	-0.273760	0.279544
C173	C	0.388840	0.059573	0.612878
C174	C	0.722173	0.392907	0.946211
C175	C	0.032079	-0.245066	0.330195
C176	C	0.365412	0.088268	0.663529
C177	C	0.698745	0.421601	0.996862
C178	C	0.649098	-0.333102	0.380759
C179	C	0.982431	0.000231	0.714092
C180	C	1.315765	0.333564	1.047426
C181	C	0.649110	-0.383037	0.380757
C182	C	0.982443	-0.049703	0.714090
C183	C	1.315776	0.283630	1.047424
C184	C	0.677898	-0.692637	0.431461
C185	C	1.011232	-0.359304	0.764794
C186	C	1.344565	-0.025970	1.098128
C187	C	0.677947	-0.880310	0.431509
C188	C	1.011280	-0.546977	0.764842
C189	C	1.344614	-0.213643	1.098175
O190	O	0.702357	-0.904538	0.474570
O191	O	1.035690	-0.571205	0.807903
O192	O	1.369024	-0.237871	1.141236
N193	N	0.649243	-0.903822	0.380913
N194	N	0.982576	-0.570488	0.714247
N195	N	1.315909	-0.237155	1.047580
C196	C	0.620522	-0.880412	0.330306
C197	C	0.953855	-0.547079	0.663640
C198	C	1.287189	-0.213746	0.996973
O199	O	0.596105	-0.904717	0.287279
O200	O	0.929438	-0.571383	0.620612
O201	O	1.262772	-0.238050	0.953945
C202	C	0.620471	-0.692740	0.330263
C203	C	0.953805	-0.359407	0.663597
C204	C	1.287138	-0.026073	0.996930
C205	C	0.649181	-0.669231	0.380856
C206	C	0.982514	-0.335897	0.714190
C207	C	1.315848	-0.002564	1.047523
C208	C	0.706605	-0.669128	0.482050
C209	C	1.039938	-0.335794	0.815384
C210	C	1.373272	-0.002461	1.148717
C211	C	0.706594	-0.622212	0.482035
C212	C	1.039928	-0.288879	0.815368
C213	C	1.373261	0.044455	1.148702
C214	C	0.677877	-0.598806	0.431430
C215	C	1.011210	-0.265473	0.764764
C216	C	1.344544	0.067861	1.098097
C217	C	0.649170	-0.622315	0.380841
C218	C	0.982503	-0.288982	0.714174
C219	C	1.315837	0.044351	1.047508
C220	C	0.591749	-0.669331	0.279661
C221	C	0.925082	-0.335998	0.612994
C222	C	1.258415	-0.002665	0.946328
C223	C	0.591738	-0.622410	0.279656
C224	C	0.925071	-0.289077	0.612989
C225	C	1.258405	0.044256	0.946323
C226	C	0.620447	-0.598901	0.330249
C227	C	0.953781	-0.265568	0.663582
C228	C	1.287114	0.067766	0.996916
C229	C	0.620442	-0.551994	0.330221
C230	C	0.953775	-0.218660	0.663554
C231	C	1.287109	0.114673	0.996887
N232	N	0.649146	-0.528482	0.380816
N233	N	0.982480	-0.195149	0.714149
N234	N	1.315813	0.138185	1.047483
C235	C	0.677864	-0.551888	0.431421
C236	C	1.011197	-0.218555	0.764754
C237	C	1.344530	0.114779	1.098087
C238	C	0.620551	-0.978943	0.330331
C239	C	0.953885	-0.645609	0.663665
C240	C	1.287218	-0.312276	0.996998
C241	C	0.620565	-1.025861	0.330341
C242	C	0.953898	-0.692527	0.663674
C243	C	1.287231	-0.359194	0.997008
C244	C	0.677989	-1.025755	0.431544
C245	C	1.011322	-0.692422	0.764878
C246	C	1.344656	-0.359088	1.098211
C247	C	0.677978	-0.978836	0.431530
C248	C	1.011311	-0.645503	0.764864
C249	C	1.344645	-0.312170	1.098197
C250	C	0.649256	-0.955431	0.380927
C251	C	0.982589	-0.622098	0.714260
C252	C	1.315922	-0.288764	1.047593
C253	C	0.677839	-0.453362	0.431384
C254	C	1.011173	-0.120029	0.764717
C255	C	1.344506	0.213304	1.098051
C256	C	0.677827	-0.406443	0.431362
C257	C	1.011161	-0.073109	0.764695
C258	C	1.344494	0.260224	1.098028
C259	C	0.620401	-0.406552	0.330162
C260	C	0.953735	-0.073219	0.663495
C261	C	1.287068	0.260114	0.996828
C262	C	0.620415	-0.453468	0.330180
C263	C	0.953748	-0.120135	0.663514
C264	C	1.287081	0.213199	0.996847
C265	C	0.649135	-0.476872	0.380798
C266	C	0.982469	-0.143538	0.714131
C267	C	1.315802	0.189795	1.047465
O268	O	0.596041	-0.527737	0.287188
O269	O	0.929374	-0.194403	0.620522
O270	O	1.262708	0.138930	0.953855
O271	O	0.702270	-0.527576	0.474454
O272	O	1.035603	-0.194242	0.807787
O273	O	1.368937	0.139091	1.141121
C274	C	0.677909	-0.739552	0.431477
C275	C	1.011242	-0.406219	0.764810
C276	C	1.344576	-0.072886	1.098143
C277	C	0.649202	-0.763062	0.380887
C278	C	0.982536	-0.429728	0.714220
C279	C	1.315869	-0.096395	1.047554
C280	C	0.620485	-0.739655	0.330282
C281	C	0.953818	-0.406322	0.663616
C282	C	1.287152	-0.072989	0.996949
C283	C	0.649216	-0.809979	0.380897
C284	C	0.982549	-0.476646	0.714230
C285	C	1.315882	-0.143313	1.047563
C286	C	0.677933	-0.833386	0.431502
C287	C	1.011266	-0.500052	0.764835
C288	C	1.344600	-0.166719	1.098168
C289	C	0.706637	-0.809874	0.482097
C290	C	1.039971	-0.476541	0.815430
C291	C	1.373304	-0.143207	1.148763
C292	C	0.706627	-0.762958	0.482081
C293	C	1.039960	-0.429625	0.815415
C294	C	1.373293	-0.096292	1.148748
C295	C	0.591781	-0.763167	0.279687
C296	C	0.925114	-0.429834	0.613020
C297	C	1.258447	-0.096501	0.946354
C298	C	0.591794	-0.810083	0.279706
C299	C	0.925127	-0.476749	0.613039
C300	C	1.258461	-0.143416	0.946373
C301	C	0.620511	-0.833489	0.330311
C302	C	0.953845	-0.500155	0.663644
C303	C	1.287178	-0.166822	0.996977
C304	C	0.766345	-0.216383	0.380860
C305	C	1.099678	0.116950	0.714193
C306	C	1.433011	0.450283	1.047527
C307	C	0.816279	-0.216385	0.380875
C308	C	1.149613	0.116948	0.714208
C309	C	1.482946	0.450282	1.047541
C310	C	0.649185	-0.216342	0.586994
C311	C	0.982519	0.116991	0.920327
C312	C	1.315852	0.450324	1.253661
C313	C	0.649193	-0.216327	0.674851
C314	C	0.982526	0.117007	1.008184
C315	C	1.315860	0.450340	1.341517
C316	C	0.649248	-0.099201	0.380910
C317	C	0.982581	0.234132	0.714243
C318	C	1.315914	0.567465	1.047576
C319	C	0.649282	-0.049267	0.380946
C320	C	0.982615	0.284067	0.714279
C321	C	1.315949	0.617400	1.047612
C322	C	0.649174	-0.216384	0.175459
C323	C	0.982507	0.116949	0.508793
C324	C	1.315840	0.450282	0.842126
C325	C	0.649253	-0.216273	0.087603
C326	C	0.982586	0.117060	0.420937
C327	C	1.315919	0.450393	0.754270
C328	C	0.620496	-0.245009	1.046300
C329	C	0.953829	0.088324	1.379633
C330	C	1.287163	0.421657	1.712967
C331	C	0.677998	-0.187549	1.046353
C332	C	1.011331	0.145784	1.379686
C333	C	1.344664	0.479118	1.713020
C334	C	0.677986	-0.187559	0.963807
C335	C	1.011319	0.145775	1.297140
C336	C	1.344652	0.479108	1.630474
C337	C	0.649229	-0.216294	0.922504
C338	C	0.982562	0.117039	1.255837
C339	C	1.315896	0.450372	1.589170
C340	C	0.620484	-0.245021	0.963746
C341	C	0.953817	0.088313	1.297080
C342	C	1.287151	0.421646	1.630413
C343	C	0.706733	-0.158836	0.922558
C344	C	1.040067	0.174497	1.255892
C345	C	1.373400	0.507831	1.589225
C346	C	0.706723	-0.158845	0.840007
C347	C	1.040056	0.174489	1.173341
C348	C	1.373390	0.507822	1.506674
C349	C	0.677963	-0.187579	0.798703
C350	C	1.011297	0.145755	1.132036
C351	C	1.344630	0.479088	1.465369
C352	C	0.649217	-0.216306	0.839950
C353	C	0.982550	0.117028	1.173283
C354	C	1.315884	0.450361	1.506617
C355	C	0.620460	-0.245041	0.798647
C356	C	0.953793	0.088292	1.131980
C357	C	1.287127	0.421625	1.465313
C358	C	0.591711	-0.273767	0.839893
C359	C	0.925044	0.059567	1.173226
C360	C	1.258378	0.392900	1.506560
C361	C	0.591725	-0.273754	0.922441
C362	C	0.925058	0.059579	1.255775
C363	C	1.258391	0.392912	1.589108
C364	C	0.677950	-0.187591	0.716154
C365	C	1.011283	0.145743	1.049487
C366	C	1.344617	0.479076	1.382821
C367	C	0.620448	-0.245053	0.716093
C368	C	0.953782	0.088281	1.049426
C369	C	1.287115	0.421614	1.382760
H370	H	0.036387	-0.297132	0.238298
H371	H	0.369720	0.036202	0.571632
H372	H	0.703053	0.369535	0.904965
H373	H	0.729971	-0.603074	0.523234
H374	H	1.063304	-0.269740	0.856568
H375	H	1.396637	0.063593	1.189901
H376	H	0.730022	-0.828939	0.523298
H377	H	1.063355	-0.495606	0.856632
H378	H	1.396688	-0.162273	1.189965
H379	H	-0.094191	-0.164320	0.472763
H380	H	0.239142	0.169013	0.806097
H381	H	0.572475	0.502347	1.139430
O382	O	0.708953	-0.156613	0.671664
O383	O	1.042286	0.176720	1.004997
O384	O	1.375620	0.510054	1.338331
H385	H	0.728951	-0.136629	0.714253
H386	H	1.062284	0.196704	1.047587
H387	H	1.395618	0.530038	1.380920
O388	O	0.589573	-0.953700	0.275745
O389	O	0.922906	-0.620367	0.609078
O390	O	1.256240	-0.287034	0.942412
H391	H	0.609690	-0.932323	0.235564
H392	H	0.943023	-0.598990	0.568897
H393	H	1.276357	-0.265656	0.902231
H394	H	0.121492	-0.297130	0.238288
H395	H	0.454825	0.036204	0.571622
H396	H	0.788159	0.369537	0.904955
H397	H	0.729990	-0.688180	0.523264
H398	H	1.063324	-0.354846	0.856597
H399	H	1.396657	-0.021513	1.189930
H400	H	0.597088	-0.268395	1.079886
H401	H	0.930421	0.064938	1.413219
H402	H	1.263755	0.398271	1.746553
H403	H	0.701413	-0.164156	1.079987
H404	H	1.034746	0.169177	1.413321
H405	H	1.368079	0.502510	1.746654
H406	H	0.478099	-0.268445	0.288908
H407	H	0.811432	0.064888	0.622242
H408	H	1.144765	0.398221	0.955575
O409	O	0.484416	-0.156736	0.486073
O410	O	0.817749	0.176598	0.819406
O411	O	1.151083	0.509931	1.152740
H412	H	0.460240	-0.136779	0.521285
H413	H	0.793573	0.196555	0.854618
H414	H	1.126907	0.529888	1.187951
O415	O	0.386899	-0.156733	0.486091
O416	O	0.720232	0.176601	0.819425
O417	O	1.053566	0.509934	1.152758
H418	H	0.411120	-0.136786	0.521310
H419	H	0.744453	0.196547	0.854644
H420	H	1.077787	0.529880	1.187977
O421	O	0.268622	-0.128030	0.536737
O422	O	0.601955	0.205303	0.870071
O423	O	0.935289	0.538637	1.203404
H424	H	0.244442	-0.108075	0.571945
H425	H	0.577776	0.225259	0.905278
H426	H	0.911109	0.558592	1.238612
O427	O	0.708944	-0.953480	0.486094
O428	O	1.042277	-0.620147	0.819428
O429	O	1.375611	-0.286814	1.152761
H430	H	0.728914	-0.977643	0.521281
H431	H	1.062247	-0.644310	0.854614
H432	H	1.395580	-0.310976	1.187948
H433	H	-0.094305	-0.268445	0.288962
H434	H	0.239028	0.064889	0.622295
H435	H	0.572361	0.398222	0.955628
O436	O	0.708798	-0.381085	0.485922
O437	O	1.042132	-0.047752	0.819256
O438	O	1.375465	0.285582	1.152589
H439	H	0.728767	-0.405246	0.521114
H440	H	1.062101	-0.071913	0.854447
H441	H	1.395434	0.261420	1.187781
H442	H	0.730004	-0.743821	0.523279
H443	H	1.063338	-0.410487	0.856612
H444	H	1.396671	-0.077154	1.189946
H445	H	0.730148	-0.135444	0.956194
H446	H	1.063482	0.197890	1.289527
H447	H	1.396815	0.531223	1.622860
H448	H	0.701223	-0.472412	0.472607
H449	H	1.034556	-0.139079	0.805940
H450	H	1.367890	0.194255	1.139274
H451	H	0.177305	-0.135618	0.523370
H452	H	0.510639	0.197715	0.856703
H453	H	0.843972	0.531048	1.190036
O454	O	0.386763	-0.276027	0.275522
O455	O	0.720096	0.057306	0.608855
O456	O	1.053429	0.390640	0.942189
H457	H	0.395745	-0.311297	0.288949
H458	H	0.729079	0.022036	0.622282
H459	H	1.062412	0.355370	0.955615
O460	O	0.737727	-0.127863	0.795521
O461	O	1.071060	0.205470	1.128854
O462	O	1.404394	0.538803	1.462188
H463	H	0.757723	-0.107879	0.838111
H464	H	1.091057	0.225455	1.171445
H465	H	1.424390	0.558788	1.504778
H466	H	0.568347	-0.603356	0.238449
H467	H	0.901681	-0.270023	0.571783
H468	H	1.235014	0.063311	0.905116
O469	O	0.589461	-0.478831	0.275600
O470	O	0.922794	-0.145497	0.608934
O471	O	1.256127	0.187836	0.942267
H472	H	0.566596	-0.500212	0.310941
H473	H	0.899930	-0.166879	0.644274
H474	H	1.233263	0.166455	0.977608
H475	H	0.568416	-0.829220	0.238500
H476	H	0.901749	-0.495887	0.571833
H477	H	1.235083	-0.162553	0.905166
O478	O	0.708959	-1.051004	0.486137
O479	O	1.042293	-0.717670	0.819470
O480	O	1.375626	-0.384337	1.152803
H481	H	0.704139	-1.087577	0.477645
H482	H	1.037472	-0.754244	0.810978
H483	H	1.370805	-0.420911	1.144311
H484	H	-0.179314	-0.164322	0.472765
H485	H	0.154020	0.169011	0.806099
H486	H	0.487353	0.502344	1.139432
O487	O	0.560690	-0.304757	0.795346
O488	O	0.894023	0.028576	1.128680
O489	O	1.227357	0.361910	1.462013
H490	H	0.580773	-0.327620	0.757716
H491	H	0.914107	0.005713	1.091049
H492	H	1.247440	0.339047	1.424383
H493	H	-0.179413	-0.268451	0.288986
H494	H	0.153921	0.064882	0.622319
H495	H	0.487254	0.398216	0.955653
H496	H	0.568395	-0.744114	0.238479
H497	H	0.901728	-0.410780	0.571813
H498	H	1.235061	-0.077447	0.905146
O499	O	0.589428	-0.276047	0.671551
O500	O	0.922762	0.057287	1.004884
O501	O	1.256095	0.390620	1.338217
H502	H	0.594247	-0.271228	0.607219
H503	H	0.927580	0.062105	0.940553
H504	H	1.260913	0.395438	1.273886
H505	H	0.568371	-0.688465	0.238462
H506	H	0.901704	-0.355131	0.571796
H507	H	1.235037	-0.021798	0.905129
H508	H	0.177142	-0.297129	0.238265
H509	H	0.510475	0.036204	0.571598
H510	H	0.843809	0.369537	0.904931
H511	H	0.036546	-0.135621	0.523377
H512	H	0.369879	0.197713	0.856711
H513	H	0.703213	0.531046	1.190044
O514	O	0.589427	-0.381304	0.275583
O515	O	0.922760	-0.047970	0.608916
O516	O	1.256093	0.285363	0.942250
H517	H	0.594241	-0.344730	0.284084
H518	H	0.927575	-0.011396	0.617418
H519	H	1.260908	0.321937	0.950751
O520	O	0.560720	-0.304733	0.966932
O521	O	0.894053	0.028600	1.300265
O522	O	1.227386	0.361934	1.633598
H523	H	0.568394	-0.339995	0.951056
H524	H	0.901727	-0.006662	1.284389
H525	H	1.235060	0.326671	1.617723
O526	O	0.589606	-1.051217	0.275765
O527	O	0.922939	-0.717884	0.609099
O528	O	1.256272	-0.384551	0.942432
H529	H	0.554339	-1.042241	0.289264
H530	H	0.887672	-0.708907	0.622598
H531	H	1.221006	-0.375574	0.955931
O532	O	0.268447	-0.304708	0.224870
O533	O	0.601781	0.028625	0.558203
O534	O	0.935114	0.361959	0.891537
H535	H	0.244229	-0.324662	0.189657
H536	H	0.577563	0.008672	0.522991
H537	H	0.910896	0.342005	0.856324
H538	H	0.121664	-0.135618	0.523376
H539	H	0.454997	0.197716	0.856709
H540	H	0.788331	0.531049	1.190043
