data_functionalizedCrystal
_audit_creation_method	'MofGen! by Chris Wilmer'
_symmetry_space_group_name_H-M	'P1'
_symmetry_Int_Tables_number	1
_symmetry_cell_setting	triclinic
loop_
_symmetry_equiv_pos_as_xyz
  x,y,z
_cell_length_a	21.395362
_cell_length_b	17.640280
_cell_length_c	21.395355
_cell_angle_alpha	78.784922
_cell_angle_beta	89.956060
_cell_angle_gamma	78.812025
loop_
_atom_site_label
_atom_site_type_symbol
_atom_site_fract_x
_atom_site_fract_y
_atom_site_fract_z
Zn1	Zn	1.008318	-0.314390	-0.304290
Zn2	Zn	1.508318	0.185610	0.195710
Zn3	Zn	1.029429	-0.446530	-0.178373
Zn4	Zn	1.529429	0.053470	0.321627
Zn5	Zn	0.903539	-0.314427	-0.199486
Zn6	Zn	1.403539	0.185573	0.300514
Zn7	Zn	0.924713	-0.446546	-0.283075
Zn8	Zn	1.424713	0.053454	0.216925
O9	O	0.966500	-0.380473	-0.241306
O10	O	1.466500	0.119527	0.258694
O11	O	1.098793	-0.331896	-0.287630
O12	O	1.598793	0.168104	0.212370
O13	O	1.012702	-0.429015	-0.093494
O14	O	1.512702	0.070985	0.406506
O15	O	0.899742	-0.203828	-0.231102
O16	O	1.399742	0.296172	0.268898
O17	O	1.114303	-0.428979	-0.195119
O18	O	1.614303	0.071021	0.304881
O19	O	0.976723	-0.203801	-0.308102
O20	O	1.476723	0.296199	0.191898
O21	O	0.920212	-0.331959	-0.109006
O22	O	1.420212	0.168041	0.390994
O23	O	0.818673	-0.331975	-0.210531
O24	O	1.318673	0.168025	0.289469
O25	O	0.935830	-0.429007	-0.373569
O26	O	1.435830	0.070993	0.126431
O27	O	0.834230	-0.429043	-0.271944
O28	O	1.334230	0.070957	0.228056
O29	O	0.997254	-0.331912	-0.389155
O30	O	1.497254	0.168088	0.110845
O31	O	1.033234	-0.557126	-0.174548
O32	O	1.533234	-0.057126	0.325452
O33	O	0.956300	-0.557138	-0.251472
O34	O	1.456300	-0.057138	0.248528
C35	C	0.803719	-0.380515	-0.241227
C36	C	1.303719	0.119485	0.258773
C37	C	0.734083	-0.380552	-0.241204
C38	C	1.234083	0.119448	0.258796
C39	C	0.709497	-0.431162	-0.273111
C40	C	1.209497	0.068838	0.226889
C41	C	0.644059	-0.431143	-0.273143
C42	C	1.144059	0.068857	0.226857
C43	C	0.603210	-0.380521	-0.241254
C44	C	1.103210	0.119479	0.258746
C45	C	0.627802	-0.329901	-0.209346
C46	C	1.127802	0.170099	0.290654
C47	C	0.693239	-0.329917	-0.209321
C48	C	1.193239	0.170083	0.290679
C49	C	0.498463	-0.374155	-0.185867
C50	C	0.998463	0.125845	0.314133
C51	C	0.433029	-0.374145	-0.185890
C52	C	0.933029	0.125855	0.314110
C53	C	0.401381	-0.380470	-0.241331
C54	C	0.901381	0.119530	0.258669
C55	C	0.435178	-0.386821	-0.296749
C56	C	0.935178	0.113179	0.203251
C57	C	0.500615	-0.386836	-0.296724
C58	C	1.000615	0.113164	0.203276
C59	C	0.532254	-0.380499	-0.241278
C60	C	1.032254	0.119501	0.258722
C61	C	0.305840	-0.431062	-0.273275
C62	C	0.805840	0.068938	0.226725
C63	C	0.240399	-0.431037	-0.273308
C64	C	0.740399	0.068963	0.226692
C65	C	0.224144	-0.329800	-0.209505
C66	C	0.724144	0.170200	0.290495
C67	C	0.289583	-0.329820	-0.209478
C68	C	0.789583	0.170180	0.290522
C69	C	0.330428	-0.380456	-0.241362
C70	C	0.830428	0.119544	0.258638
C71	C	0.999372	-0.585808	-0.208431
C72	C	1.499372	-0.085808	0.291569
C73	C	1.013493	-0.673651	-0.194387
C74	C	1.513493	-0.173651	0.305613
C75	C	0.859485	-0.962724	-0.348219
C76	C	1.359485	-0.462724	0.151781
C77	C	0.872755	-1.045266	-0.335003
C78	C	1.372755	-0.545266	0.164997
C79	C	0.952916	-1.045188	-0.254983
C80	C	1.452916	-0.545188	0.245017
C81	C	0.939655	-0.962645	-0.268194
C82	C	1.439655	-0.462645	0.231806
C83	C	0.892939	-0.921419	-0.314813
C84	C	1.392939	-0.421419	0.185187
C85	C	0.973109	-0.921340	-0.234788
C86	C	1.473109	-0.421340	0.265212
C87	C	0.959847	-0.838803	-0.247996
C88	C	1.459847	-0.338803	0.252004
C89	C	0.913131	-0.797572	-0.294610
C90	C	1.413131	-0.297572	0.205390
C91	C	0.879677	-0.838883	-0.328021
C92	C	1.379677	-0.338883	0.171979
C93	C	1.019822	-0.962567	-0.188167
C94	C	1.519822	-0.462567	0.311833
C95	C	1.053276	-0.921262	-0.154760
C96	C	1.553276	-0.421262	0.345240
C97	C	1.040017	-0.838724	-0.167971
C98	C	1.540017	-0.338724	0.332029
C99	C	0.993301	-0.797492	-0.214586
C100	C	1.493301	-0.297492	0.285414
C101	C	1.073472	-0.797413	-0.134561
C102	C	1.573472	-0.297413	0.365439
C103	C	1.060209	-0.714877	-0.147769
C104	C	1.560209	-0.214877	0.352231
C105	C	0.980039	-0.714956	-0.227794
C106	C	1.480039	-0.214956	0.272206
C107	C	1.129916	-0.380432	-0.241386
C108	C	1.629916	0.119568	0.258614
C109	C	1.199555	-0.380414	-0.241420
C110	C	1.699555	0.119586	0.258580
C111	C	0.966549	-0.380457	-0.404732
C112	C	1.466549	0.119543	0.095268
C113	C	0.966570	-0.380450	-0.474374
C114	C	1.466570	0.119550	0.025626
C115	C	0.933515	-0.174337	-0.274324
C116	C	1.433515	0.325663	0.225676
C117	C	0.919460	-0.086494	-0.288394
C118	C	1.419460	0.413506	0.211606
C119	C	0.998552	-0.329891	-0.515205
C120	C	1.498552	0.170109	-0.015205
C121	C	0.998545	-0.329857	-0.580646
C122	C	1.498545	0.170143	-0.080646
C123	C	0.966566	-0.380397	-0.605251
C124	C	1.466566	0.119603	-0.105251
C125	C	0.934577	-0.430960	-0.564412
C126	C	1.434577	0.069040	-0.064412
C127	C	0.934579	-0.430986	-0.498974
C128	C	1.434579	0.069014	0.001026
C129	C	0.973012	-0.451559	-0.697531
C130	C	1.473012	0.048441	-0.197531
C131	C	0.973014	-0.451533	-0.762968
C132	C	1.473014	0.048467	-0.262968
C133	C	0.966557	-0.380313	-0.807086
C134	C	1.466557	0.119687	-0.307086
C135	C	0.960109	-0.309116	-0.785758
C136	C	1.460109	0.190884	-0.285758
C137	C	0.960111	-0.309143	-0.720320
C138	C	1.460111	0.190857	-0.220320
C139	C	0.966560	-0.380373	-0.676208
C140	C	1.466560	0.119627	-0.176208
C141	C	0.998533	-0.329712	-0.918875
C142	C	1.498533	0.170288	-0.418875
C143	C	0.998522	-0.329677	-0.984317
C144	C	1.498522	0.170323	-0.484317
C145	C	0.934559	-0.430787	-0.968082
C146	C	1.434559	0.069213	-0.468082
C147	C	0.934565	-0.430815	-0.902642
C148	C	1.434565	0.069185	-0.402642
C149	C	0.966556	-0.380279	-0.878042
C150	C	1.466556	0.119721	-0.378042
C151	C	0.966477	-0.380432	-0.078525
C152	C	1.466477	0.119568	0.421475
C153	C	0.966542	-0.380216	-0.008919
C154	C	1.466542	0.119784	0.491081
H155	H	0.409412	-0.391970	-0.341895
H156	H	0.909412	0.108030	0.158105
H157	H	0.978268	-0.509506	-0.780327
H158	H	1.478268	-0.009506	-0.280327
C159	C	1.124852	-0.842763	-0.083280
C160	C	1.624852	-0.342763	0.416720
H161	H	1.142874	-0.806342	-0.065272
H162	H	1.642874	-0.306342	0.434728
H163	H	1.157305	-0.874923	-0.102132
H164	H	1.657305	-0.374923	0.397868
H165	H	1.106069	-0.874994	-0.050789
H166	H	1.606069	-0.374994	0.449211
C167	C	0.754428	-0.486873	-0.308166
C168	C	1.254428	0.013127	0.191834
H169	H	0.796923	-0.479645	-0.303573
H170	H	1.296923	0.020355	0.196427
H171	H	0.741927	-0.475405	-0.352124
H172	H	1.241927	0.024595	0.147876
H173	H	0.752161	-0.539949	-0.290411
H174	H	1.252161	-0.039949	0.209589
C175	C	0.720285	-0.274247	-0.174218
C176	C	1.220285	0.225753	0.325782
H177	H	0.686587	-0.244097	-0.155227
H178	H	1.186587	0.255903	0.344773
H179	H	0.740350	-0.239866	-0.203724
H180	H	1.240350	0.260134	0.296276
H181	H	0.750599	-0.304442	-0.142032
H182	H	1.250599	0.195558	0.357968
H183	H	0.845517	-1.078894	-0.362218
H184	H	1.345517	-0.578894	0.137782
C185	C	0.953420	-0.230817	-0.834271
C186	C	1.453420	0.269183	-0.334271
H187	H	0.954461	-0.241008	-0.876296
H188	H	1.454461	0.258992	-0.376296
H189	H	0.987674	-0.205888	-0.827412
H190	H	1.487674	0.294112	-0.327412
H191	H	0.914113	-0.197269	-0.829039
H192	H	1.414113	0.302731	-0.329039
H193	H	1.087450	-0.681246	-0.120565
H194	H	1.587450	-0.181246	0.379435
C195	C	1.034412	-1.053355	-0.173634
C196	C	1.534412	-0.553355	0.326366
H197	H	1.067018	-1.071992	-0.141080
H198	H	1.567018	-0.571992	0.358920
H199	H	1.048224	-1.072003	-0.211094
H200	H	1.548224	-0.572003	0.288906
H201	H	0.996990	-1.072081	-0.159749
H202	H	1.496990	-0.572081	0.340251
H203	H	0.902330	-0.730366	-0.305359
H204	H	1.402330	-0.230366	0.194641
H205	H	0.942002	-0.681389	-0.265760
H206	H	1.442002	-0.181389	0.234240
C207	C	1.104664	-0.966614	-0.103487
C208	C	1.604664	-0.466614	0.396513
H209	H	1.107775	-1.021686	-0.100408
H210	H	1.607775	-0.521686	0.399592
H211	H	1.093353	-0.953114	-0.063537
H212	H	1.593353	-0.453114	0.436463
H213	H	1.144575	-0.953028	-0.114895
H214	H	1.644575	-0.453028	0.385105
H215	H	0.841640	-0.805315	-0.365986
H216	H	1.341640	-0.305315	0.134014
C217	C	0.395858	-0.367158	-0.124935
C218	C	0.895858	0.132842	0.375065
H219	H	0.424074	-0.363378	-0.091916
H220	H	0.924074	0.136622	0.408084
H221	H	0.377556	-0.412433	-0.112123
H222	H	0.877556	0.087567	0.387877
H223	H	0.363016	-0.321337	-0.133159
H224	H	0.863016	0.178663	0.366841
C225	C	0.980115	-0.529904	-0.649004
C226	C	1.480115	-0.029904	-0.149004
H227	H	0.979187	-0.519723	-0.606977
H228	H	1.479187	-0.019723	-0.106977
H229	H	1.019516	-0.563134	-0.654436
H230	H	1.519516	-0.063134	-0.154436
H231	H	0.946013	-0.555179	-0.655657
H232	H	1.446013	-0.055179	-0.155657
C233	C	1.033734	-0.274297	-0.488149
C234	C	1.533734	0.225703	0.011851
H235	H	1.052776	-0.244176	-0.521843
H236	H	1.552776	0.255824	-0.021843
H237	H	1.065869	-0.304531	-0.457805
H238	H	1.565869	0.195469	0.042195
H239	H	1.004254	-0.239874	-0.468115
H240	H	1.504254	0.260126	0.031885
H241	H	0.821448	-0.929157	-0.386185
H242	H	1.321448	-0.429157	0.113815
C243	C	0.582874	-0.274218	-0.174269
C244	C	1.082874	0.225782	0.325731
H245	H	0.606890	-0.244072	-0.155266
H246	H	1.106890	0.255928	0.344734
H247	H	0.562137	-0.304390	-0.142107
H248	H	1.062137	0.195610	0.357893
H249	H	0.551882	-0.239820	-0.203802
H250	H	1.051882	0.260180	0.296198
C251	C	0.953012	-0.230836	-0.696858
C252	C	1.453012	0.269164	-0.196858
H253	H	0.953942	-0.241056	-0.651567
H254	H	1.453942	0.258944	-0.151567
H255	H	0.913610	-0.197597	-0.712873
H256	H	1.413610	0.302403	-0.212873
H257	H	0.987114	-0.205550	-0.711651
H258	H	1.487114	0.294450	-0.211651
H259	H	0.309601	-0.288612	-0.183492
H260	H	0.809601	0.211388	0.316508
C261	C	0.533273	-0.367197	-0.124880
C262	C	1.033273	0.132803	0.375120
H263	H	0.577083	-0.368108	-0.132802
H264	H	1.077083	0.131892	0.367198
H265	H	0.529378	-0.410137	-0.091597
H266	H	1.029378	0.089863	0.408403
H267	H	0.514836	-0.319040	-0.112622
H268	H	1.014836	0.180960	0.387378
C269	C	0.617000	-0.486770	-0.308285
C270	C	1.117000	0.013230	0.191715
H271	H	0.650696	-0.516916	-0.327281
H272	H	1.150696	-0.016916	0.172719
H273	H	0.586695	-0.456541	-0.340460
H274	H	1.086695	0.043459	0.159540
H275	H	0.596924	-0.521170	-0.278802
H276	H	1.096924	-0.021170	0.221198
C277	C	0.899405	-0.486555	-0.591476
C278	C	1.399405	0.013445	-0.091476
H279	H	0.903990	-0.479305	-0.636296
H280	H	1.403990	0.020695	-0.136296
H281	H	0.855458	-0.475007	-0.582571
H282	H	1.355458	0.024993	-0.082571
H283	H	0.917077	-0.539660	-0.572261
H284	H	1.417077	-0.039660	-0.072261
C285	C	1.033708	-0.274113	-0.891814
C286	C	1.533708	0.225887	-0.391814
H287	H	1.052745	-0.243985	-0.925509
H288	H	1.552745	0.256015	-0.425509
H289	H	1.065847	-0.304342	-0.861471
H290	H	1.565847	0.195658	-0.361471
H291	H	1.004224	-0.239696	-0.871779
H292	H	1.504224	0.260304	-0.371779
H293	H	0.220383	-0.472248	-0.299295
H294	H	0.720383	0.027752	0.200705
C295	C	0.899391	-0.486437	-0.857726
C296	C	1.399391	0.013563	-0.357726
H297	H	0.880347	-0.516537	-0.881750
H298	H	1.380347	-0.016537	-0.381750
H299	H	0.867256	-0.456223	-0.837013
H300	H	1.367256	0.043777	-0.337013
H301	H	0.928872	-0.520880	-0.826708
H302	H	1.428872	-0.020880	-0.326708
C303	C	1.033704	-0.274059	-1.029231
C304	C	1.533704	0.225941	-0.529231
H305	H	1.052761	-0.243974	-1.005205
H306	H	1.552761	0.256026	-0.505205
H307	H	1.004230	-0.239616	-1.060249
H308	H	1.504230	0.260384	-0.560249
H309	H	1.065840	-0.304282	-1.049943
H310	H	1.565840	0.195718	-0.549943
H311	H	0.908533	-0.472157	-0.465729
H312	H	1.408533	0.027843	0.034271
H313	H	0.339097	-0.472288	-0.299240
H314	H	0.839097	0.027712	0.200760
C315	C	0.537792	-0.393819	-0.357677
C316	C	1.037792	0.106181	0.142323
H317	H	0.581296	-0.392928	-0.349717
H318	H	1.081296	0.107072	0.150283
H319	H	0.520242	-0.350876	-0.390970
H320	H	1.020242	0.149124	0.109030
H321	H	0.534782	-0.441973	-0.369940
H322	H	1.034782	0.058027	0.130060
C323	C	0.179217	-0.274107	-0.174437
C324	C	0.679217	0.225893	0.325563
H325	H	0.136723	-0.281346	-0.179022
H326	H	0.636723	0.218654	0.320978
H327	H	0.181479	-0.221030	-0.192176
H328	H	0.681479	0.278970	0.307824
H329	H	0.191724	-0.285595	-0.130477
H330	H	0.691724	0.214405	0.369523
C331	C	0.899387	-0.486385	-0.995140
C332	C	1.399387	0.013615	-0.495140
H333	H	0.903970	-0.479133	-1.039960
H334	H	1.403970	0.020867	-0.539960
H335	H	0.855441	-0.474841	-0.986233
H336	H	1.355441	0.025159	-0.486233
H337	H	0.917063	-0.539488	-0.975926
H338	H	1.417063	-0.039488	-0.475926
C339	C	1.033732	-0.274246	-0.625566
C340	C	1.533732	0.225754	-0.125566
H341	H	1.052788	-0.244157	-0.601542
H342	H	1.552788	0.255843	-0.101542
H343	H	1.004261	-0.239805	-0.656588
H344	H	1.504261	0.260195	-0.156588
H345	H	1.065868	-0.304475	-0.646272
H346	H	1.565868	0.195525	-0.146272
H347	H	0.990951	-1.078765	-0.217025
H348	H	1.490951	-0.578765	0.282975
