data_functionalizedCrystal
_audit_creation_method	'MofGen! by Chris Wilmer'
_symmetry_space_group_name_H-M	'P1'
_symmetry_Int_Tables_number	1
_symmetry_cell_setting	triclinic
loop_
_symmetry_equiv_pos_as_xyz
  x,y,z
_cell_length_a	16.120530
_cell_length_b	19.121063
_cell_length_c	16.120256
_cell_angle_alpha	95.181175
_cell_angle_beta	90.128265
_cell_angle_gamma	89.687057
loop_
_atom_site_label
_atom_site_type_symbol
_atom_site_fract_x
_atom_site_fract_y
_atom_site_fract_z
Zn1	Zn	1.228531	-0.355763	-0.551590
Zn2	Zn	1.229541	-0.467542	-0.417880
Zn3	Zn	1.097152	-0.343893	-0.404939
Zn4	Zn	1.083531	-0.466899	-0.549819
O5	O	1.159689	-0.408524	-0.481057
O6	O	1.344753	-0.375827	-0.540010
O7	O	1.218102	-0.446442	-0.299573
O8	O	1.119858	-0.247209	-0.419718
O9	O	1.345495	-0.457951	-0.441774
O10	O	1.216381	-0.255929	-0.527461
O11	O	1.120837	-0.355597	-0.290065
O12	O	0.979258	-0.354973	-0.418001
O13	O	1.096643	-0.456855	-0.666645
O14	O	0.969250	-0.445346	-0.524444
O15	O	1.203174	-0.375203	-0.667945
O16	O	1.204894	-0.565716	-0.440057
O17	O	1.097622	-0.565243	-0.536992
C18	C	0.944154	-0.398802	-0.469626
C19	C	0.851945	-0.394661	-0.464757
C20	C	1.149911	-0.590959	-0.489756
C21	C	1.145803	-0.669010	-0.493509
C22	C	0.683118	-0.387084	-0.455873
C23	C	0.637095	-0.430019	-0.506304
C24	C	0.543153	-0.425803	-0.501361
C25	C	0.777068	-0.391299	-0.460815
C26	C	1.199763	-0.705904	-0.444850
C27	C	1.195903	-0.779242	-0.448385
C28	C	1.138079	-0.815683	-0.500575
C29	C	1.084117	-0.778783	-0.549240
C30	C	1.087981	-0.705447	-0.545709
C31	C	1.123620	-1.037098	-0.513764
C32	C	1.119759	-1.110439	-0.517290
C33	C	1.231546	-1.110893	-0.416435
C34	C	1.235402	-1.037555	-0.412905
C35	C	1.181443	-1.000662	-0.461573
C36	C	1.134131	-0.890645	-0.504188
C37	C	1.185395	-0.925701	-0.457964
C38	C	1.376066	-0.418285	-0.492533
C39	C	1.468273	-0.422444	-0.497423
C40	C	1.148276	-0.417281	-0.698371
C41	C	1.143413	-0.421013	-0.790977
C42	C	1.169526	-0.225379	-0.472344
C43	C	1.173719	-0.147334	-0.468630
C44	C	1.185051	-0.389046	-1.002432
C45	C	1.134507	-0.427796	-0.960522
C46	C	1.139464	-0.424021	-0.866178
C47	C	1.180095	-0.392820	-1.096784
C48	C	1.171108	-0.399753	-0.264588
C49	C	1.176142	-0.395831	-0.171982
H50	H	0.651969	-0.347162	-0.408988
C51	C	1.071018	-0.476439	-1.007769
C52	C	0.977630	-0.465985	-0.990619
C53	C	0.914144	-0.514624	-1.037873
C54	C	0.944045	-0.573717	-1.102279
C55	C	1.037437	-0.584173	-1.119433
C56	C	1.100923	-0.535535	-1.072178
H57	H	0.955492	-0.422239	-0.942939
H58	H	0.845009	-0.506883	-1.025175
H59	H	0.897048	-0.609722	-1.137260
H60	H	1.059575	-0.627920	-1.167112
H61	H	1.170059	-0.543276	-1.084877
C62	C	1.248541	-0.340407	-0.955190
C63	C	1.218646	-0.281313	-0.890783
C64	C	1.282138	-0.232679	-0.843530
C65	C	1.375524	-0.243138	-0.860684
C66	C	1.405423	-0.302234	-0.925095
C67	C	1.341931	-0.350869	-0.972348
H68	H	1.149512	-0.273569	-0.878082
H69	H	1.260005	-0.188932	-0.795849
H70	H	1.422525	-0.207136	-0.825704
H71	H	1.474558	-0.309979	-0.937796
H72	H	1.364065	-0.394616	-1.020029
C73	C	0.679169	-0.483963	-0.569641
C74	C	0.774478	-0.488163	-0.574554
C75	C	0.816557	-0.542108	-0.637885
C76	C	0.763327	-0.591853	-0.696302
C77	C	0.668013	-0.587654	-0.691391
C78	C	0.625934	-0.533710	-0.628061
H79	H	0.813887	-0.451338	-0.531308
H80	H	0.887116	-0.545216	-0.641520
H81	H	0.794476	-0.631786	-0.743183
H82	H	0.628604	-0.624480	-0.734638
H83	H	0.555375	-0.530602	-0.624426
H84	H	1.246845	-0.676239	-0.402347
C85	C	1.056150	-1.150526	-0.574705
C86	C	0.996797	-1.109947	-0.628239
C87	C	0.933190	-1.150034	-0.685648
C88	C	0.928937	-1.230700	-0.689522
C89	C	0.988292	-1.271283	-0.635987
C90	C	1.051899	-1.231196	-0.578578
H91	H	0.999943	-1.050229	-0.625372
H92	H	0.889251	-1.119991	-0.725278
H93	H	0.881851	-1.260375	-0.732020
H94	H	0.985146	-1.331001	-0.638853
H95	H	1.095838	-1.261239	-0.538947
C96	C	1.290903	-1.151477	-0.362908
C97	C	1.354507	-1.111393	-0.305500
C98	C	1.413869	-1.151977	-0.251972
C99	C	1.409626	-1.232643	-0.255852
C100	C	1.346019	-1.272731	-0.313262
C101	C	1.286657	-1.232148	-0.366790
H102	H	1.357651	-1.051675	-0.302626
H103	H	1.460955	-1.122301	-0.209473
H104	H	1.453569	-1.262685	-0.216227
H105	H	1.342875	-1.332449	-0.316136
H106	H	1.239571	-1.261824	-0.409288
H107	H	1.239842	-0.809278	-0.408761
H108	H	1.087050	-0.920323	-0.546680
H109	H	1.079683	-1.007065	-0.553390
C110	C	1.299014	-0.997478	-0.355494
C111	C	1.296760	-1.003489	-0.260907
C112	C	1.360371	-0.963414	-0.203492
C113	C	1.426235	-0.917328	-0.240663
C114	C	1.428491	-0.911315	-0.335255
C115	C	1.364880	-0.951390	-0.392670
H116	H	1.248001	-1.037607	-0.233386
H117	H	1.358701	-0.967866	-0.133468
H118	H	1.473324	-0.887662	-0.198160
H119	H	1.477250	-0.877197	-0.362776
H120	H	1.366551	-0.946938	-0.462694
C121	C	1.020513	-0.818867	-0.606653
C122	C	0.954649	-0.864952	-0.569476
C123	C	0.891043	-0.905035	-0.626889
C124	C	0.893299	-0.899035	-0.721478
C125	C	0.959165	-0.852948	-0.758659
C126	C	1.022772	-0.812865	-0.701246
H127	H	0.952977	-0.869395	-0.499451
H128	H	0.842284	-0.939151	-0.599364
H129	H	0.846214	-0.928707	-0.763978
H130	H	0.960838	-0.848505	-0.828684
H131	H	1.071530	-0.778749	-0.728771
C132	C	1.028622	-0.664859	-0.599231
C133	C	0.934147	-0.670481	-0.587843
C134	C	0.874789	-0.629893	-0.641370
C135	C	0.909906	-0.583683	-0.706285
C136	C	1.004387	-0.578059	-0.717677
C137	C	1.063745	-0.618647	-0.664150
H138	H	0.908146	-0.704690	-0.539786
H139	H	0.804848	-0.634057	-0.632936
H140	H	0.865966	-0.553638	-0.745909
H141	H	1.030388	-0.543850	-0.765734
H142	H	1.133686	-0.614483	-0.672583
C143	C	1.248999	-0.885619	-0.400555
C144	C	1.246742	-0.891616	-0.305965
C145	C	1.310343	-0.851525	-0.248553
C146	C	1.376201	-0.805437	-0.285730
C147	C	1.378461	-0.799437	-0.380325
C148	C	1.314860	-0.839528	-0.437737
H149	H	1.197987	-0.925735	-0.278440
H150	H	1.308670	-0.855967	-0.178528
H151	H	1.423282	-0.775759	-0.243230
H152	H	1.427215	-0.765318	-0.407850
H153	H	1.316533	-0.835087	-0.507762
