data_functionalizedCrystal
_audit_creation_method	'MofGen! by Chris Wilmer'
_symmetry_space_group_name_H-M	'P1'
_symmetry_Int_Tables_number	1
_symmetry_cell_setting	triclinic
loop_
_symmetry_equiv_pos_as_xyz
  x,y,z
_cell_length_a	19.188930
_cell_length_b	11.792254
_cell_length_c	10.268362
_cell_angle_alpha	89.999156
_cell_angle_beta	89.981535
_cell_angle_gamma	83.671690
loop_
_atom_site_label
_atom_site_type_symbol
_atom_site_fract_x
_atom_site_fract_y
_atom_site_fract_z
O1	O	0.926951	0.141694	-0.108707
O2	O	1.426951	0.641694	0.391293
O3	O	0.723749	0.160768	-0.108616
O4	O	1.223749	0.660768	0.391384
O5	O	0.830277	-0.014013	-0.108669
O6	O	1.330277	0.485987	0.391331
O7	O	0.820423	0.316474	-0.108653
O8	O	1.320423	0.816474	0.391347
O9	O	0.830267	-0.014020	0.107931
O10	O	1.330267	0.485980	0.607931
O11	O	0.723739	0.160761	0.107985
O12	O	1.223739	0.660761	0.607985
O13	O	0.926942	0.141687	0.107894
O14	O	1.426942	0.641687	0.607894
Cu15	Cu	0.825340	0.151223	0.127717
Cu16	Cu	1.325340	0.651223	0.627717
Cu17	Cu	0.825351	0.151231	-0.128439
Cu18	Cu	1.325351	0.651231	0.371561
O19	O	0.820414	0.316467	0.107948
O20	O	1.320414	0.816467	0.607948
C21	C	0.697729	0.160147	-0.000304
C22	C	1.197729	0.660147	0.499696
C23	C	0.620214	0.158292	-0.000270
C24	C	1.120214	0.658292	0.499730
C25	C	0.575874	0.260848	-0.000285
C26	C	1.075874	0.760848	0.499715
C27	C	0.503040	0.259106	-0.000300
C28	C	1.003040	0.759106	0.499700
C29	C	0.474550	0.154803	-0.000325
C30	C	0.974550	0.654803	0.499675
C31	C	0.518900	0.052234	-0.000302
C32	C	1.018900	0.552234	0.499698
C33	C	0.591732	0.053979	-0.000275
C34	C	1.091732	0.553979	0.499725
N35	N	0.366119	0.075078	-0.074100
N36	N	0.866119	0.575078	0.425900
N37	N	0.296931	0.073428	-0.074129
N38	N	0.796931	0.573428	0.425871
C39	C	0.255112	0.149539	-0.000405
C40	C	0.755112	0.649539	0.499595
N41	N	0.285092	0.227381	0.073333
N42	N	0.785092	0.727381	0.573333
N43	N	0.354286	0.229035	0.073356
N44	N	0.854286	0.729035	0.573356
C45	C	0.395577	0.152899	-0.000354
C46	C	0.895577	0.652899	0.499646
C47	C	0.131796	0.250213	-0.000434
C48	C	0.631796	0.750213	0.499566
C49	C	0.058962	0.248466	-0.000440
C50	C	0.558962	0.748466	0.499560
C51	C	0.074823	0.041591	-0.000456
C52	C	0.574823	0.541591	0.499544
C53	C	0.147656	0.043340	-0.000436
C54	C	0.647656	0.543340	0.499564
C55	C	0.176138	0.147654	-0.000432
C56	C	0.676138	0.647654	0.499568
C57	C	0.829651	-0.056298	-0.000373
C58	C	1.329651	0.443702	0.499627
C59	C	0.827793	-0.182283	-0.000385
C60	C	1.327793	0.317717	0.499615
C61	C	0.952961	0.142308	-0.000421
C62	C	1.452961	0.642308	0.499579
C63	C	1.030476	0.144162	-0.000463
C64	C	1.530476	0.644162	0.499537
C65	C	0.821039	0.358752	-0.000352
C66	C	1.321039	0.858752	0.499648
C67	C	0.822897	0.484737	-0.000348
C68	C	1.322897	0.984737	0.499652
N69	N	0.825337	0.151216	0.307883
N70	N	1.325337	0.651216	0.807883
C71	C	0.824407	0.587051	-0.000356
C72	C	1.324407	1.087051	0.499644
C73	C	0.826294	0.715409	-0.000372
C74	C	1.326294	1.215409	0.499628
N75	N	0.825359	0.151229	-0.308605
N76	N	1.325359	0.651229	0.191395
C77	C	0.825347	0.151229	0.573553
C78	C	1.325347	0.651229	1.073553
C79	C	0.825339	0.151225	0.425715
C80	C	1.325339	0.651225	0.925715
H81	H	0.466932	0.342621	-0.000309
H82	H	0.966932	0.842621	0.499691
H83	H	0.599059	0.345788	-0.000284
H84	H	1.099059	0.845788	0.499716
H85	H	0.183759	-0.040172	-0.000431
H86	H	0.683759	0.459828	0.499569
N87	N	0.637019	-0.050795	-0.000253
N88	N	1.137019	0.449205	0.499747
N89	N	0.611577	-0.143919	-0.000262
N90	N	1.111577	0.356081	0.499738
H91	H	0.643561	-0.217918	-0.000247
H92	H	1.143561	0.282082	0.499753
H93	H	0.051627	-0.043335	-0.000557
H94	H	0.551627	0.456665	0.499443
N95	N	0.013656	0.353220	-0.000449
N96	N	0.513656	0.853220	0.499551
N97	N	-0.051371	0.351649	-0.000456
N98	N	0.448629	0.851649	0.499544
H99	H	-0.083370	0.425633	-0.000456
H100	H	0.416630	0.925633	0.499544
N101	N	0.489813	-0.054320	-0.000344
N102	N	0.989813	0.445680	0.499656
N103	N	0.529415	-0.145884	-0.000337
N104	N	1.029415	0.354116	0.499663
H105	H	0.508874	-0.221142	-0.000362
H106	H	1.008874	0.278858	0.499638
H107	H	0.154988	0.335151	-0.000411
H108	H	0.654988	0.835151	0.499589
