data_functionalizedCrystal
_audit_creation_method	'MofGen! by Chris Wilmer'
_symmetry_space_group_name_H-M	'P1'
_symmetry_Int_Tables_number	1
_symmetry_cell_setting	triclinic
loop_
_symmetry_equiv_pos_as_xyz
  x,y,z
_cell_length_a	12.645331
_cell_length_b	12.645330
_cell_length_c	12.645323
_cell_angle_alpha	90.025945
_cell_angle_beta	89.978207
_cell_angle_gamma	89.974834
loop_
_atom_site_label
_atom_site_type_symbol
_atom_site_fract_x
_atom_site_fract_y
_atom_site_fract_z
Zn1	Zn	1.620659	0.422039	-0.599453
Zn2	Zn	1.620518	0.599333	-0.422196
Zn3	Zn	1.443377	0.422081	-0.422197
Zn4	Zn	1.443330	0.599258	-0.599411
O5	O	1.531971	0.510678	-0.510814
O6	O	1.768988	0.445572	-0.575956
O7	O	1.596980	0.575869	-0.273849
O8	O	1.466973	0.273728	-0.445729
O9	O	1.768884	0.575829	-0.445726
O10	O	1.597222	0.273697	-0.575958
O11	O	1.466835	0.445643	-0.273850
O12	O	1.295023	0.445570	-0.445688
O13	O	1.466892	0.575700	-0.747764
O14	O	1.294989	0.575741	-0.575886
O15	O	1.597176	0.445499	-0.747795
O16	O	1.596934	0.747671	-0.445686
O17	O	1.466755	0.747615	-0.575885
C18	C	1.256541	0.510653	-0.510784
C19	C	1.138711	0.510667	-0.510796
C20	C	1.531853	0.786108	-0.510804
C21	C	1.531899	0.903938	-0.510835
C22	C	1.532045	0.510586	-0.787320
C23	C	1.532076	0.510547	-0.905150
C24	C	0.971134	0.428400	-0.429340
C25	C	1.093693	0.428613	-0.428981
C26	C	1.094175	0.622343	-0.480283
C27	C	0.971576	0.621893	-0.479727
C28	C	0.971564	0.482323	-0.623079
C29	C	1.094170	0.479828	-0.622455
C30	C	1.808476	0.510704	-0.510846
C31	C	1.926306	0.510715	-0.510859
C32	C	1.450316	1.071511	-0.592998
C33	C	1.449917	0.948952	-0.592732
C34	C	1.501649	0.948535	-0.399113
C35	C	1.501133	1.071133	-0.399614
C36	C	1.644175	1.071028	-0.539492
C37	C	1.643505	0.948421	-0.541933
C38	C	1.532081	1.234173	-0.510852
C39	C	1.532033	1.116343	-0.510878
C40	C	1.450120	0.592441	-0.950012
C41	C	1.449831	0.592133	-1.072572
C42	C	1.502223	0.398649	-1.073050
C43	C	1.501596	0.399189	-0.950452
C44	C	1.644160	0.539437	-0.950341
C45	C	1.643592	0.541835	-1.072947
C46	C	1.531958	0.510693	-0.235384
C47	C	1.532132	0.510433	-0.117555
H48	H	1.123806	0.345802	-0.448106
F49	F	0.933674	0.560686	-0.702470
H50	H	1.366790	0.919716	-0.573774
H51	H	1.468554	0.675612	-0.920537
F52	F	1.723971	0.461481	-0.912415
H53	H	1.707908	0.486539	-1.103572
F54	F	1.679820	0.644221	-0.909940
H55	H	0.941681	0.345340	-0.448259
H56	H	1.419678	0.374744	-0.921853
F57	F	1.342332	1.111918	-0.568555
F58	F	1.342178	0.567712	-0.909748
F59	F	1.393985	1.108638	-0.367931
F60	F	1.575543	1.109905	-0.316907
F61	F	1.396348	0.366102	-1.113175
H62	H	1.559290	0.919380	-0.336254
F63	F	1.576255	0.316689	-0.911656
F64	F	1.131965	0.453137	-0.320284
H65	H	1.705057	1.100019	-0.479681
H66	H	0.940284	0.446958	-0.346669
H67	H	0.942928	0.645971	-0.397688
F68	F	1.395627	0.908529	-0.366855
H69	H	1.468844	0.918795	-0.675573
F70	F	1.673325	0.910318	-0.649402
H71	H	1.707604	0.917774	-0.486476
H72	H	1.123286	0.397648	-0.645464
H73	H	1.468502	0.675012	-1.102664
H74	H	1.560105	0.335930	-1.102186
H75	H	0.941921	0.685301	-0.536513
F76	F	1.673082	0.649366	-1.110966
H77	H	1.123334	0.685313	-0.537794
H78	H	1.124828	0.646833	-0.399125
H79	H	1.124819	0.535408	-0.686442
F80	F	0.931199	0.377739	-0.659351
H81	H	1.469060	1.100920	-0.676112
F82	F	1.680230	1.111339	-0.644167
F83	F	1.341289	0.567091	-1.110908
