data_functionalizedCrystal
_audit_creation_method	'MofGen! by Chris Wilmer'
_symmetry_space_group_name_H-M	'P1'
_symmetry_Int_Tables_number	1
_symmetry_cell_setting	triclinic
loop_
_symmetry_equiv_pos_as_xyz
  x,y,z
_cell_length_a	13.032831
_cell_length_b	21.295417
_cell_length_c	13.032268
_cell_angle_alpha	82.859352
_cell_angle_beta	89.113023
_cell_angle_gamma	82.834379
loop_
_atom_site_label
_atom_site_type_symbol
_atom_site_fract_x
_atom_site_fract_y
_atom_site_fract_z
Zn1	Zn	1.498336	-0.425102	0.780728
Zn2	Zn	1.998336	0.074898	1.280728
Zn3	Zn	1.520047	-0.518887	0.608724
Zn4	Zn	2.020047	-0.018887	1.108724
Zn5	Zn	1.348204	-0.398806	0.586976
Zn6	Zn	1.848204	0.101194	1.086976
Zn7	Zn	1.326296	-0.515483	0.758850
Zn8	Zn	1.826296	-0.015483	1.258850
O9	O	1.423221	-0.464570	0.683820
O10	O	1.923221	0.035430	1.183820
O11	O	1.645133	-0.449972	0.776169
O12	O	2.145133	0.050028	1.276169
O13	O	1.515506	-0.493377	0.461925
O14	O	2.015506	0.006623	0.961925
O15	O	1.368201	-0.314216	0.612731
O16	O	1.868201	0.185784	1.112731
O17	O	1.661084	-0.518875	0.649799
O18	O	2.161084	-0.018875	1.149799
O19	O	1.478503	-0.333535	0.755080
O20	O	1.978503	0.166465	1.255080
O21	O	1.389253	-0.405155	0.445946
O22	O	1.889253	0.094845	0.945946
O23	O	1.201381	-0.401855	0.591517
O24	O	1.701381	0.098145	1.091517
O25	O	1.330864	-0.513075	0.905667
O26	O	1.830864	-0.013075	1.405667
O27	O	1.185286	-0.487577	0.717793
O28	O	1.685286	0.012423	1.217793
O29	O	1.457261	-0.446672	0.921740
O30	O	1.957261	0.053328	1.421740
O31	O	1.494263	-0.606514	0.628585
O32	O	1.994263	-0.106514	1.128585
O33	O	1.351916	-0.604014	0.738882
O34	O	1.851916	-0.104014	1.238882
C35	C	1.156018	-0.441494	0.649922
C36	C	1.656018	0.058506	1.149922
C37	C	1.041704	-0.431638	0.635445
C38	C	1.541704	0.068362	1.135445
C39	C	0.982815	-0.469713	0.691375
C40	C	1.482815	0.030287	1.191375
C41	C	0.864665	-0.459528	0.676414
C42	C	1.364665	0.040472	1.176414
C43	C	1.423093	-0.628106	0.683746
C44	C	1.923093	-0.128106	1.183746
C45	C	1.423128	-0.698078	0.683760
C46	C	1.923128	-0.198078	1.183760
C47	C	1.497299	-0.732235	0.626403
C48	C	1.997299	-0.232235	1.126403
C49	C	1.497344	-0.797983	0.626433
C50	C	1.997344	-0.297983	1.126433
C51	C	1.423202	-0.829569	0.683806
C52	C	1.923202	-0.329569	1.183806
C53	C	1.349025	-0.795405	0.741175
C54	C	1.849025	-0.295405	1.241175
C55	C	1.348989	-0.729659	0.741152
C56	C	1.848989	-0.229659	1.241152
N57	N	1.332239	-0.925592	0.680232
N58	N	1.832239	-0.425592	1.180232
N59	N	1.332278	-0.988048	0.680248
N60	N	1.832278	-0.488048	1.180248
C61	C	1.423310	-1.027658	0.683879
C62	C	1.923310	-0.527658	1.183879
N63	N	1.514306	-1.002451	0.687474
N64	N	2.014306	-0.502451	1.187474
N65	N	1.514267	-0.939990	0.687452
N66	N	2.014267	-0.439990	1.187452
C67	C	1.423234	-0.900860	0.683837
C68	C	1.923234	-0.400860	1.183837
C69	C	1.497535	-1.133107	0.626551
C70	C	1.997535	-0.633107	1.126551
C71	C	1.497581	-1.198857	0.626588
C72	C	1.997581	-0.698857	1.126588
C73	C	1.349254	-1.196276	0.741323
C74	C	1.849254	-0.696276	1.241323
C75	C	1.349216	-1.130528	0.741293
C76	C	1.849216	-0.630528	1.241293
C77	C	1.423356	-1.098947	0.683901
C78	C	1.923356	-0.598947	1.183901
C79	C	1.691467	-0.487736	0.717850
C80	C	2.191467	0.012264	1.217850
C81	C	1.805778	-0.497609	0.732352
C82	C	2.305778	0.002391	1.232352
C83	C	1.389197	-0.482427	0.952062
C84	C	1.889197	0.017573	1.452062
C85	C	1.374697	-0.490036	1.066371
C86	C	1.874697	0.009964	1.566371
C87	C	1.423374	-0.300399	0.683920
C88	C	1.923374	0.199601	1.183920
C89	C	1.423439	-0.230439	0.683963
C90	C	1.923439	0.269561	1.183963
C91	C	1.457172	-0.446742	0.416628
C92	C	1.957172	0.053258	0.916628
C93	C	1.471870	-0.438972	0.302345
C94	C	1.971870	0.061028	0.802345
C95	C	1.430772	-0.460574	1.125287
C96	C	1.930772	0.039426	1.625287
C97	C	1.415788	-0.468438	1.243431
C98	C	1.915788	0.031562	1.743431
H99	H	1.019867	-0.509849	0.750340
H100	H	1.519867	-0.009849	1.250340
C101	C	1.579172	-1.236430	0.563491
C102	C	2.079172	-0.736430	1.063491
H103	H	1.623312	-1.208202	0.529303
H104	H	2.123312	-0.708202	1.029303
H105	H	1.618977	-1.268528	0.608553
H106	H	2.118977	-0.768528	1.108553
H107	H	1.545559	-1.255734	0.513673
H108	H	2.045559	-0.755734	1.013673
C109	C	1.294854	-0.531977	1.116375
C110	C	1.794854	-0.031977	1.616375
H111	H	1.261611	-0.549438	1.064091
H112	H	1.761611	-0.049438	1.564091
H113	H	1.328890	-0.565568	1.163260
H114	H	1.828890	-0.065568	1.663260
H115	H	1.244785	-0.506794	1.152609
H116	H	1.744785	-0.006794	1.652609
H117	H	1.489869	-0.429526	1.088260
H118	H	1.989869	0.070474	1.588260
H119	H	1.288816	-1.102715	0.787994
H120	H	1.788816	-0.602715	1.287994
C121	C	1.267703	-1.231014	0.804438
C122	C	1.767703	-0.731014	1.304438
H123	H	1.278345	-1.275062	0.796235
H124	H	1.778345	-0.775062	1.296235
H125	H	1.273928	-1.226104	0.875446
H126	H	1.773928	-0.726104	1.375446
H127	H	1.200521	-1.213313	0.780558
H128	H	1.700521	-0.713313	1.280558
C129	C	1.335947	-0.510385	1.293436
C130	C	1.835947	-0.010385	1.793436
H131	H	1.336356	-0.510172	1.366283
H132	H	1.836356	-0.010172	1.866283
H133	H	1.269064	-0.494050	1.267123
H134	H	1.769064	0.005950	1.767123
H135	H	1.353182	-0.552817	1.277766
H136	H	1.853182	-0.052817	1.777766
C137	C	1.551716	-0.397028	1.252343
C138	C	2.051716	0.102972	1.752343
H139	H	1.551319	-0.397247	1.179497
H140	H	2.051319	0.102753	1.679497
H141	H	1.534496	-0.354599	1.268016
H142	H	2.034496	0.145401	1.768016
H143	H	1.618601	-0.413373	1.278658
H144	H	2.118601	0.086627	1.778658
H145	H	1.557670	-0.706524	0.579675
H146	H	2.057670	-0.206524	1.079675
H147	H	0.842824	-0.537746	0.791324
H148	H	1.342824	-0.037746	1.291324
C149	C	0.814625	-0.405300	0.596761
C150	C	1.314625	0.094700	1.096761
H151	H	0.741780	-0.405570	0.597151
H152	H	1.241780	0.094430	1.097151
H153	H	0.830288	-0.365535	0.614152
H154	H	1.330288	0.134465	1.114152
H155	H	0.840924	-0.411348	0.529833
H156	H	1.340924	0.088652	1.029833
H157	H	1.004651	-0.391498	0.576488
H158	H	1.504651	0.108502	1.076488
H159	H	1.557746	-0.825800	0.579727
H160	H	2.057746	-0.325800	1.079727
C161	C	1.267470	-0.830144	0.804286
C162	C	1.767470	-0.330144	1.304286
H163	H	1.223295	-0.800383	0.838451
H164	H	1.723295	-0.300383	1.338451
H165	H	1.227699	-0.849341	0.759241
H166	H	1.727699	-0.349341	1.259241
H167	H	1.301111	-0.862135	0.854126
H168	H	1.801111	-0.362135	1.354126
C169	C	1.267393	-0.692083	0.804241
C170	C	1.767393	-0.192083	1.304241
H171	H	1.223238	-0.720308	0.838412
H172	H	1.723238	-0.220308	1.338412
H173	H	1.300993	-0.672776	0.854056
H174	H	1.800993	-0.172776	1.354056
H175	H	1.227590	-0.659988	0.759164
H176	H	1.727590	-0.159988	1.259164
H177	H	1.557907	-1.107393	0.579823
H178	H	2.057907	-0.607393	1.079823
