data_functionalizedCrystal
_audit_creation_method	'MofGen! by Chris Wilmer'
_symmetry_space_group_name_H-M	'P1'
_symmetry_Int_Tables_number	1
_symmetry_cell_setting	triclinic
loop_
_symmetry_equiv_pos_as_xyz
  x,y,z
_cell_length_a	16.120484
_cell_length_b	16.959455
_cell_length_c	16.959447
_cell_angle_alpha	89.985678
_cell_angle_beta	87.133462
_cell_angle_gamma	87.077546
loop_
_atom_site_label
_atom_site_type_symbol
_atom_site_fract_x
_atom_site_fract_y
_atom_site_fract_z
Zn1	Zn	-0.331957	-1.192394	0.462851
Zn2	Zn	0.168043	-0.692394	0.962851
Zn3	Zn	-0.471386	-1.185600	0.337369
Zn4	Zn	0.028614	-0.685600	0.837369
Zn5	Zn	-0.331984	-1.060221	0.330690
Zn6	Zn	0.168016	-0.560221	0.830690
Zn7	Zn	-0.471323	-1.053474	0.469504
Zn8	Zn	0.028677	-0.553474	0.969504
O9	O	-0.401662	-1.122922	0.400103
O10	O	0.098338	-0.622922	0.900103
O11	O	-0.350468	-1.302103	0.446216
O12	O	0.149532	-0.802103	0.946216
O13	O	-0.452931	-1.168949	0.225874
O14	O	0.047069	-0.668949	0.725874
O15	O	-0.215315	-1.083421	0.342642
O16	O	0.284685	-0.583421	0.842642
O17	O	-0.452905	-1.297112	0.354025
O18	O	0.047095	-0.797112	0.854025
O19	O	-0.215296	-1.180528	0.439740
O20	O	0.284704	-0.680528	0.939740
O21	O	-0.350513	-1.076833	0.220967
O22	O	0.149487	-0.576833	0.720967
O23	O	-0.350452	-0.948716	0.349093
O24	O	0.149548	-0.448716	0.849093
O25	O	-0.452799	-1.071921	0.579231
O26	O	0.047201	-0.571921	1.079231
O27	O	-0.452824	-0.943759	0.451079
O28	O	0.047176	-0.443759	0.951079
O29	O	-0.350408	-1.173985	0.574343
O30	O	0.149592	-0.673985	1.074343
O31	O	-0.588043	-1.162407	0.360476
O32	O	-0.088043	-0.662407	0.860476
O33	O	-0.587997	-1.065334	0.457556
O34	O	-0.087997	-0.565334	0.957556
C35	C	-0.401635	-0.917557	0.400084
C36	C	0.098365	-0.417557	0.900084
C37	C	-0.401643	-0.829700	0.400095
C38	C	0.098357	-0.329700	0.900095
C39	C	-0.401593	-1.122959	0.606268
C40	C	0.098407	-0.622959	1.106268
C41	C	-0.401564	-1.122974	0.694124
C42	C	0.098436	-0.622974	1.194124
C43	C	-0.618270	-1.112422	0.410480
C44	C	-0.118270	-0.612422	0.910480
C45	C	-0.710935	-1.108003	0.414945
C46	C	-0.210935	-0.608003	0.914945
C47	C	-0.880596	-1.099938	0.423114
C48	C	-0.380596	-0.599938	0.923114
C49	C	-0.921888	-1.146048	0.377106
C50	C	-0.421888	-0.646048	0.877106
C51	C	-1.016293	-1.141561	0.381651
C52	C	-0.516293	-0.641561	0.881651
C53	C	-0.786182	-1.104424	0.418570
C54	C	-0.286182	-0.604424	0.918570
C55	C	-0.184209	-1.133485	0.389704
C56	C	0.315791	-0.633485	0.889704
C57	C	-0.091544	-1.137986	0.385272
C58	C	0.408456	-0.637986	0.885272
C59	C	-0.401691	-1.329089	0.400123
C60	C	0.098309	-0.829089	0.900123
C61	C	-0.401703	-1.416945	0.400132
C62	C	0.098297	-0.916945	0.900132
C63	C	-0.348314	-0.460783	0.347103
C64	C	0.151686	0.039217	0.847103
C65	C	-0.455080	-0.455662	0.453153
C66	C	0.044920	0.044338	0.953153
C67	C	-0.455068	-0.538208	0.453147
C68	C	0.044932	-0.038208	0.953147
C69	C	-0.401679	-0.582046	0.400118
C70	C	0.098321	-0.082046	0.900118
C71	C	-0.348302	-0.543337	0.347094
C72	C	0.151698	-0.043337	0.847094
C73	C	-0.508450	-0.576923	0.506165
C74	C	-0.008450	-0.076923	1.006165
C75	C	-0.508441	-0.659474	0.506161
C76	C	-0.008441	-0.159474	1.006161
C77	C	-0.455047	-0.703314	0.453135
C78	C	0.044953	-0.203314	0.953135
C79	C	-0.401667	-0.664600	0.400109
C80	C	0.098333	-0.164600	0.900109
C81	C	-0.348278	-0.708437	0.347080
C82	C	0.151722	-0.208437	0.847080
C83	C	-0.294893	-0.669725	0.294058
C84	C	0.205107	-0.169725	0.794058
C85	C	-0.294908	-0.587176	0.294068
C86	C	0.205092	-0.087176	0.794068
C87	C	-0.455032	-0.785863	0.453125
C88	C	0.044968	-0.285863	0.953125
C89	C	-0.348266	-0.790991	0.347071
C90	C	0.151734	-0.290991	0.847071
C91	C	-0.401671	-1.122935	0.194738
C92	C	0.098329	-0.622935	0.694738
C93	C	-0.401466	-1.123084	0.106872
C94	C	0.098534	-0.623084	0.606872
C95	C	-0.454787	-1.069933	1.068143
C96	C	0.045213	-0.569933	1.568143
C97	C	-0.348166	-1.176213	1.063048
C98	C	0.151834	-0.676213	1.563048
C99	C	-0.348183	-1.176191	0.980503
C100	C	0.151817	-0.676191	1.480503
C101	C	-0.401504	-1.123040	0.941774
C102	C	0.098496	-0.623040	1.441774
C103	C	-0.454808	-1.069911	0.985590
C104	C	0.045192	-0.569911	1.485590
C105	C	-0.294887	-1.229324	0.936681
C106	C	0.205113	-0.729324	1.436681
C107	C	-0.294903	-1.229305	0.854130
C108	C	0.205097	-0.729305	1.354130
C109	C	-0.348221	-1.176150	0.815400
C110	C	0.151779	-0.676150	1.315400
C111	C	-0.401525	-1.123018	0.859221
C112	C	0.098475	-0.623018	1.359221
C113	C	-0.454846	-1.069867	0.820492
C114	C	0.045154	-0.569867	1.320492
C115	C	-0.508148	-1.016731	0.864312
C116	C	-0.008148	-0.516731	1.364312
C117	C	-0.508125	-1.016755	0.946860
C118	C	-0.008125	-0.516755	1.446860
C119	C	-0.348243	-1.176125	0.732853
C120	C	0.151757	-0.676125	1.232853
C121	C	-0.454867	-1.069845	0.737940
C122	C	0.045133	-0.569845	1.237940
H123	H	-0.916143	-1.057096	0.465913
H124	H	-0.416143	-0.557096	0.965913
O125	O	-0.879449	-1.197047	0.325948
O126	O	-0.379449	-0.697047	0.825948
C127	C	-0.781055	-1.212319	0.214621
C128	C	-0.281055	-0.712319	0.714621
C129	C	-0.829083	-1.154481	0.272493
C130	C	-0.329083	-0.654481	0.772493
H131	H	-0.740309	-1.177929	0.171399
H132	H	-0.240309	-0.677929	0.671399
H133	H	-0.827002	-1.246315	0.180633
H134	H	-0.327002	-0.746315	0.680633
H135	H	-0.740254	-1.255546	0.249031
H136	H	-0.240254	-0.755546	0.749031
H137	H	-0.869886	-1.111206	0.238144
H138	H	-0.369886	-0.611206	0.738144
H139	H	-0.783091	-1.120543	0.306482
H140	H	-0.283091	-0.620543	0.806482
H141	H	-0.551910	-0.690987	0.549336
H142	H	-0.051910	-0.190987	1.049336
O143	O	-0.296346	-1.227916	1.100542
O144	O	0.203654	-0.727916	1.600542
C145	C	-0.190551	-1.333293	1.086782
C146	C	0.309449	-0.833293	1.586782
C147	C	-0.249213	-1.274793	1.044216
C148	C	0.250787	-0.774793	1.544216
H149	H	-0.152416	-1.371197	1.041260
H150	H	0.347584	-0.871197	1.541260
H151	H	-0.228783	-1.372832	1.127231
H152	H	0.271217	-0.872832	1.627231
H153	H	-0.146984	-1.299114	1.123372
H154	H	0.353016	-0.799114	1.623372
H155	H	-0.292792	-1.308908	1.007583
H156	H	0.207208	-0.808908	1.507583
H157	H	-0.210930	-1.235255	1.003814
H158	H	0.289070	-0.735255	1.503814
H159	H	-0.498552	-0.419964	0.496322
H160	H	0.001448	0.080036	0.996322
H161	H	-0.498500	-0.817378	0.496292
H162	H	0.001500	-0.317378	0.996292
H163	H	-0.251446	-0.555649	0.250899
H164	H	0.248554	-0.055649	0.750899
H165	H	-0.304847	-0.429260	0.303935
H166	H	0.195153	0.070740	0.803935
O167	O	-0.296377	-0.833451	0.295480
O168	O	0.203623	-0.333451	0.795480
C169	C	-0.190444	-0.829820	0.190324
C170	C	0.309556	-0.329820	0.690324
C171	C	-0.249177	-0.781639	0.248697
C172	C	0.250823	-0.281639	0.748697
H173	H	-0.152255	-0.787951	0.152496
H174	H	0.347745	-0.287951	0.652496
H175	H	-0.228623	-0.866582	0.150704
H176	H	0.271377	-0.366582	0.650704
H177	H	-0.146931	-0.870609	0.224603
H178	H	0.353069	-0.370609	0.724603
H179	H	-0.292702	-0.740807	0.214482
H180	H	0.207298	-0.240807	0.714482
H181	H	-0.210946	-0.744929	0.288317
H182	H	0.289054	-0.244929	0.788317
H183	H	-0.251427	-0.705428	0.250878
H184	H	0.248573	-0.205428	0.750878
H185	H	-0.498281	-1.026555	0.706413
H186	H	0.001719	-0.526555	1.206413
H187	H	-0.551923	-0.541224	0.549333
H188	H	-0.051923	-0.041224	1.049333
O189	O	-0.296594	-1.227815	0.690258
O190	O	0.203406	-0.727815	1.190258
C191	C	-0.285422	-1.335020	0.596488
C192	C	0.214578	-0.835020	1.096488
C193	C	-0.344014	-1.276535	0.644693
C194	C	0.155986	-0.776535	1.144693
H195	H	-0.323737	-1.374415	0.559624
H196	H	0.176263	-0.874415	1.059624
H197	H	-0.247329	-1.373072	0.638314
H198	H	0.252671	-0.873072	1.138314
H199	H	-0.241813	-1.300826	0.555795
H200	H	0.258187	-0.800826	1.055795
H201	H	-0.387674	-1.310666	0.685390
H202	H	0.112326	-0.810666	1.185390
H203	H	-0.382049	-1.238483	0.602821
H204	H	0.117951	-0.738483	1.102821
H205	H	-0.551565	-0.973458	0.832769
H206	H	-0.051565	-0.473458	1.332769
H207	H	-0.551523	-0.973497	0.982545
H208	H	-0.051523	-0.473497	1.482545
O209	O	-0.506535	-1.018394	1.110824
O210	O	-0.006535	-0.518394	1.610824
C211	C	-0.553719	-0.971281	1.240245
C212	C	-0.053719	-0.471281	1.740245
C213	C	-0.495087	-1.029703	1.192006
C214	C	0.004913	-0.529703	1.692006
H215	H	-0.544471	-0.980392	1.305889
H216	H	-0.044471	-0.480392	1.805889
H217	H	-0.620969	-0.981892	1.227287
H218	H	-0.120969	-0.481892	1.727287
H219	H	-0.539082	-0.908262	1.223263
H220	H	-0.039082	-0.408262	1.723263
H221	H	-0.509649	-1.092744	1.208960
H222	H	-0.009649	-0.592744	1.708960
H223	H	-0.427855	-1.019023	1.204969
H224	H	0.072145	-0.519023	1.704969
H225	H	-0.251481	-1.272602	0.968220
H226	H	0.248519	-0.772602	1.468220
H227	H	-0.251501	-1.272571	0.818459
H228	H	0.248499	-0.772571	1.318459
