data_functionalizedCrystal
_audit_creation_method	'MofGen! by Chris Wilmer'
_symmetry_space_group_name_H-M	'P1'
_symmetry_Int_Tables_number	1
_symmetry_cell_setting	triclinic
loop_
_symmetry_equiv_pos_as_xyz
  x,y,z
_cell_length_a	16.109301
_cell_length_b	10.654541
_cell_length_c	14.586319
_cell_angle_alpha	89.996435
_cell_angle_beta	89.999213
_cell_angle_gamma	83.972705
loop_
_atom_site_label
_atom_site_type_symbol
_atom_site_fract_x
_atom_site_fract_y
_atom_site_fract_z
O1	O	1.104090	0.161419	-0.076182
O2	O	0.862147	0.181508	-0.076196
O3	O	0.988682	-0.011352	-0.076183
O4	O	0.977554	0.354278	-0.076195
O5	O	0.988673	-0.011354	0.076298
O6	O	0.862138	0.181505	0.076284
O7	O	1.104081	0.161416	0.076299
Cu8	Cu	0.983109	0.171460	0.090214
Cu9	Cu	0.983119	0.171464	-0.090112
O10	O	0.977546	0.354276	0.076286
C11	C	0.831163	0.180692	0.000042
C12	C	0.738853	0.178253	0.000037
C13	C	0.517227	0.287019	0.000044
C14	C	0.430493	0.284717	0.000050
C15	C	0.449008	0.055896	0.000053
C16	C	0.535740	0.058200	0.000054
C17	C	0.569847	0.173765	0.000045
C18	C	0.396381	0.169159	0.000050
C19	C	0.302340	0.166662	0.000056
C20	C	0.663894	0.176262	0.000040
C21	C	0.987861	-0.058140	0.000057
C22	C	0.985418	-0.197550	0.000055
C23	C	1.136725	-0.227574	0.000076
C24	C	1.211227	-0.308079	0.000088
C25	C	1.208926	-0.439066	0.000085
C26	C	1.132115	-0.489549	0.000067
C27	C	1.057613	-0.409044	0.000055
C28	C	1.059922	-0.278056	0.000060
C29	C	0.906308	-0.379021	0.000027
C30	C	0.908607	-0.248034	0.000037
C31	C	0.829496	-0.429504	0.000010
C32	C	0.754992	-0.348998	0.000004
C33	C	0.757296	-0.218004	0.000008
C34	C	0.834104	-0.167529	0.000025
C35	C	1.135065	0.162231	0.000058
C36	C	1.227375	0.164671	0.000058
C37	C	0.978367	0.401064	0.000044
C38	C	0.980810	0.540474	0.000040
N39	N	0.983107	0.171457	0.217046
N40	N	0.983127	0.171457	-0.216944
C41	C	1.039156	0.086088	0.452058
C42	C	1.039158	0.086085	0.548040
C43	C	0.927072	0.256830	0.548037
C44	C	0.927067	0.256826	0.452058
C45	C	0.983113	0.171457	0.404071
C46	C	0.983121	0.171457	0.596032
C47	C	0.983123	0.171455	0.700099
C48	C	0.983110	0.171457	0.299997
H49	H	0.421227	-0.038193	0.000067
H50	H	1.273765	-0.266961	0.000110
C51	C	0.671689	-0.404052	0.000030
C52	C	0.685620	-0.535995	0.000043
C53	C	0.608899	-0.586758	0.000080
H54	H	0.640922	-0.376547	-0.053132
H55	H	0.640966	-0.376505	0.053222
H56	H	0.716330	-0.563531	-0.053144
H57	H	0.716373	-0.563535	0.053200
H58	H	0.578176	-0.559210	0.053273
H59	H	0.578139	-0.559243	-0.053082
H60	H	0.618341	-0.676285	0.000098
H61	H	0.544993	0.381120	0.000043
C62	C	0.373403	0.407722	-0.000145
C63	C	0.388902	0.477289	-0.078608
C64	C	0.336320	0.590604	-0.078824
H65	H	0.383768	0.455257	0.052964
H66	H	0.316850	0.389858	-0.000191
H67	H	0.445441	0.495155	-0.078554
H68	H	0.378532	0.429791	-0.131729
H69	H	0.279767	0.572741	-0.078870
H70	H	0.346689	0.638129	-0.025712
H71	H	0.346823	0.637814	-0.132064
H72	H	0.881426	0.326345	0.412984
H73	H	0.578586	-0.034032	0.000057
H74	H	0.881442	0.326338	0.587118
H75	H	1.138606	-0.120919	0.000090
H76	H	1.269593	-0.504614	0.000087
H77	H	1.084791	0.016573	0.412990
C78	C	0.676314	-0.130812	0.000039
C79	C	0.608561	-0.203065	0.000043
C80	C	0.533946	-0.122792	0.000082
H81	H	0.673958	-0.079054	-0.053119
H82	H	0.674009	-0.079115	0.053235
H83	H	0.610865	-0.254740	-0.053149
H84	H	0.610890	-0.254820	0.053196
H85	H	0.531641	-0.071096	0.053279
H86	H	0.531599	-0.071038	-0.053076
H87	H	0.487968	-0.171804	0.000093
C88	C	1.099966	-0.006801	0.600023
C89	C	1.085791	-0.130214	0.576663
C90	C	1.141800	-0.215817	0.624522
H91	H	1.092002	0.005245	0.664072
H92	H	1.155545	0.006789	0.584269
H93	H	1.030225	-0.143799	0.592424
H94	H	1.093761	-0.142300	0.512622
H95	H	1.197378	-0.202227	0.608768
H96	H	1.133831	-0.203760	0.688569
H97	H	1.132194	-0.299562	0.608673
H98	H	0.827628	-0.536161	0.000001
H99	H	1.130248	-0.596207	0.000053
H100	H	0.835988	-0.060874	0.000034
