data_functionalizedCrystal
_audit_creation_method	'MofGen! by Chris Wilmer'
_symmetry_space_group_name_H-M	'P1'
_symmetry_Int_Tables_number	1
_symmetry_cell_setting	triclinic
loop_
_symmetry_equiv_pos_as_xyz
  x,y,z
_cell_length_a	19.288864
_cell_length_b	15.944551
_cell_length_c	18.366186
_cell_angle_alpha	89.992809
_cell_angle_beta	89.977106
_cell_angle_gamma	83.317492
loop_
_atom_site_label
_atom_site_type_symbol
_atom_site_fract_x
_atom_site_fract_y
_atom_site_fract_z
O1	O	0.921629	0.104784	-0.060785
O2	O	0.719405	0.118919	-0.060735
O3	O	0.826039	-0.010445	-0.060755
O4	O	0.814995	0.234147	-0.060765
O5	O	0.826021	-0.010451	0.060345
O6	O	0.719387	0.118912	0.060364
O7	O	0.921611	0.104777	0.060315
Zn8	Zn	0.820496	0.111844	0.079567
Zn9	Zn	0.820520	0.111852	-0.079987
O10	O	0.814977	0.234141	0.060334
C11	C	0.693519	0.118461	-0.000179
C12	C	0.616411	0.117095	-0.000160
C13	C	0.571915	0.193000	-0.000175
C14	C	0.499465	0.191717	-0.000183
C15	C	0.471514	0.114526	-0.000191
C16	C	0.516020	0.038611	-0.000172
C17	C	0.588469	0.039896	-0.000156
C18	C	0.363098	0.053847	-0.042639
C19	C	0.290650	0.052565	-0.042659
C20	C	0.248058	0.110560	-0.000234
C21	C	0.277920	0.169850	0.042200
C22	C	0.350369	0.171135	0.042216
C23	C	0.392956	0.113124	-0.000207
C24	C	0.125002	0.185079	-0.000257
C25	C	0.052550	0.183793	-0.000260
C26	C	0.069107	0.030684	-0.000257
C27	C	0.141557	0.031972	-0.000246
C28	C	0.169500	0.109172	-0.000249
C29	C	0.825572	-0.041740	-0.000205
C30	C	0.824197	-0.134981	-0.000204
C31	C	0.754815	-0.349571	-0.000197
C32	C	0.787025	-0.410715	0.059504
C33	C	0.821710	-0.305697	-0.000209
C34	C	0.787058	-0.410692	-0.059890
C35	C	0.819303	-0.470601	-0.000217
C36	C	0.853939	-0.365614	0.059542
C37	C	0.853963	-0.365585	-0.059906
C38	C	0.886222	-0.426712	-0.000190
C39	C	0.823095	-0.210700	-0.000204
C40	C	0.817924	-0.565597	-0.000217
C41	C	0.947497	0.105235	-0.000243
C42	C	1.024605	0.106600	-0.000267
C43	C	0.815444	0.265436	-0.000217
C44	C	0.816819	0.358677	-0.000223
N45	N	0.820485	0.111838	0.188458
N46	N	0.820537	0.111852	-0.188878
C47	C	0.867718	0.054583	0.226549
C48	C	0.867722	0.054580	0.302777
C49	C	0.820500	0.111844	0.340910
C50	C	0.773258	0.169103	0.302810
C51	C	0.773251	0.169100	0.226583
C52	C	0.811404	0.188378	0.461669
C53	C	0.811416	0.188383	0.537894
C54	C	0.820520	0.111855	0.576018
C55	C	0.829626	0.035320	0.537908
C56	C	0.829618	0.035316	0.461681
C57	C	0.820503	0.111854	0.423565
C58	C	0.867760	0.054592	0.696765
C59	C	0.867760	0.054587	0.772994
C60	C	0.773299	0.169118	0.773025
C61	C	0.773296	0.169115	0.696797
C62	C	0.820531	0.111853	0.658671
H63	H	0.147754	0.247939	-0.000249
C64	C	0.450507	0.275217	-0.000207
C65	C	0.481242	0.360132	-0.000214
C66	C	0.432287	0.443630	-0.000242
C67	C	0.352596	0.442215	-0.000264
C68	C	0.321857	0.357297	-0.000257
C69	C	0.370812	0.273798	-0.000229
H70	H	0.540238	0.361182	-0.000198
H71	H	0.455043	0.506492	-0.000246
H72	H	0.316356	0.504026	-0.000284
H73	H	0.262861	0.356246	-0.000273
H74	H	0.348056	0.210937	-0.000225
C75	C	0.257808	-0.012650	-0.089340
C76	C	0.278058	-0.107725	-0.076162
C77	C	0.245219	-0.172941	-0.122846
C78	C	0.192129	-0.143082	-0.182707
C79	C	0.171876	-0.048001	-0.195888
C80	C	0.204715	0.017214	-0.149204
H81	H	0.317361	-0.129833	-0.031846
H82	H	0.260212	-0.243326	-0.113088
H83	H	0.167819	-0.191358	-0.217266
H84	H	0.132573	-0.025893	-0.240204
H85	H	0.189722	0.087599	-0.158962
C86	C	0.919719	-0.008397	0.814900
C87	C	0.971687	-0.071362	0.772962
C88	C	1.023647	-0.134346	0.814870
C89	C	1.023638	-0.134365	0.898716
C90	C	0.971667	-0.071397	0.940659
C91	C	0.919708	-0.008413	0.898751
H92	H	0.971696	-0.071350	0.710890
H93	H	1.062119	-0.180959	0.783821
H94	H	1.062101	-0.180989	0.929739
H95	H	0.971659	-0.071409	1.002731
H96	H	0.881236	0.038200	0.929800
H97	H	0.177787	-0.029838	-0.000238
C98	C	0.892119	-0.338766	0.127804
C99	C	0.968816	-0.373931	0.141269
C100	C	1.006993	-0.347081	0.209531
C101	C	0.968473	-0.285064	0.264328
C102	C	0.891771	-0.249895	0.250865
C103	C	0.853594	-0.276746	0.182603
H104	H	0.997335	-0.419843	0.100703
H105	H	1.063773	-0.373116	0.219496
H106	H	0.996734	-0.265188	0.314860
H107	H	0.863252	-0.203984	0.291431
H108	H	0.796814	-0.250711	0.172638
H109	H	0.734848	0.215741	0.804072
C110	C	0.485277	-0.046301	-0.000182
C111	C	0.437707	-0.068239	0.062689
C112	C	0.406965	-0.153154	0.062683
C113	C	0.423794	-0.216131	-0.000195
C114	C	0.471366	-0.194194	-0.063070
C115	C	0.502108	-0.109279	-0.063064
H116	H	0.425247	-0.021619	0.109239
H117	H	0.371749	-0.169393	0.109228
H118	H	0.401037	-0.278990	-0.000199
H119	H	0.483826	-0.240815	-0.109620
H120	H	0.537324	-0.093040	-0.109609
C121	C	0.961298	-0.471802	-0.000166
C122	C	0.986173	-0.532186	0.062425
C123	C	1.061248	-0.577276	0.062454
C124	C	1.111448	-0.561981	-0.000110
C125	C	1.086573	-0.501594	-0.062706
C126	C	1.011498	-0.456504	-0.062735
H127	H	0.949011	-0.543511	0.108743
H128	H	1.079661	-0.621979	0.108792
H129	H	1.167023	-0.595360	-0.000089
H130	H	1.123735	-0.490269	-0.109024
H131	H	0.993085	-0.411801	-0.109073
H132	H	0.758763	-0.430658	-0.110366
C133	C	0.637420	-0.043604	-0.000146
C134	C	0.689537	-0.063769	-0.063020
C135	C	0.738491	-0.147270	-0.063012
C136	C	0.735327	-0.210605	-0.000128
C137	C	0.683208	-0.190442	0.062751
C138	C	0.634255	-0.106941	0.062743
H139	H	0.691881	-0.016883	-0.109575
H140	H	0.777073	-0.162195	-0.109559
H141	H	0.771566	-0.272417	-0.000121
H142	H	0.680865	-0.237328	0.109306
H143	H	0.595673	-0.092015	0.109290
C144	C	0.919710	-0.008402	0.654822
C145	C	0.972828	0.024251	0.602390
C146	C	1.024777	-0.038744	0.560451
C147	C	1.023609	-0.134392	0.570945
C148	C	0.970489	-0.167049	0.623379
C149	C	0.918540	-0.104055	0.665318
H150	H	0.973694	0.095060	0.594621
H151	H	1.064100	-0.014568	0.521636
H152	H	1.062065	-0.181024	0.539899
H153	H	0.969623	-0.237858	0.631149
H154	H	0.879217	-0.128231	0.704133
H155	H	0.734838	0.215741	0.665781
C156	C	0.801408	0.272568	0.579811
C157	C	0.801426	0.272577	0.663657
C158	C	0.791420	0.356765	0.705573
C159	C	0.781397	0.440944	0.663642
C160	C	0.781379	0.440938	0.579791
C161	C	0.791384	0.356750	0.537876
H162	H	0.808846	0.210260	0.694701
H163	H	0.791434	0.356769	0.767645
H164	H	0.773990	0.503265	0.694670
H165	H	0.773959	0.503255	0.548748
H166	H	0.791371	0.356746	0.475804
H167	H	0.758723	-0.430717	0.109991
C168	C	0.231079	0.233646	0.088876
C169	C	0.263924	0.298856	0.135555
C170	C	0.217080	0.362650	0.182228
C171	C	0.137389	0.361234	0.182224
C172	C	0.104539	0.296021	0.135544
C173	C	0.151384	0.232228	0.088870
H174	H	0.322920	0.299907	0.135559
H175	H	0.241398	0.410924	0.216784
H176	H	0.102712	0.408458	0.216775
H177	H	0.045544	0.294971	0.135540
H178	H	0.127066	0.183953	0.054315
H179	H	0.046351	-0.032167	-0.000308
H180	H	0.803978	0.250700	0.430635
H181	H	0.882240	-0.345560	-0.110395
H182	H	0.734808	0.215728	0.333861
H183	H	0.699288	-0.316049	-0.000124
C184	C	0.919667	-0.008409	0.184610
C185	C	0.918503	-0.104057	0.195106
C186	C	0.970450	-0.167051	0.153162
C187	C	1.023561	-0.134397	0.100723
C188	C	1.024727	-0.038744	0.090225
C189	C	0.972780	0.024250	0.132168
H190	H	0.879185	-0.128235	0.233927
H191	H	0.969587	-0.237860	0.160935
H192	H	1.062015	-0.181028	0.069674
H193	H	1.064044	-0.014566	0.051404
H194	H	0.973643	0.095059	0.124396
H195	H	0.906186	0.007955	0.333797
C196	C	0.721295	0.232087	0.184677
C197	C	0.669368	0.295103	0.226615
C198	C	0.617414	0.358093	0.184706
C199	C	0.617386	0.358066	0.100860
C200	C	0.669314	0.295048	0.058918
C201	C	0.721269	0.232058	0.100826
H202	H	0.669387	0.295125	0.288687
H203	H	0.578973	0.404743	0.215755
H204	H	0.578926	0.404695	0.069837
H205	H	0.669295	0.295026	-0.003154
H206	H	0.759710	0.185408	0.069777
H207	H	0.016321	0.245606	-0.000268
H208	H	0.837031	-0.027002	0.430655
H209	H	0.594661	0.255862	-0.000179
H210	H	0.837039	-0.026997	0.568947
H211	H	0.397772	0.006619	-0.077190
H212	H	0.374680	0.219409	0.076770
