data_functionalizedCrystal
_audit_creation_method	'MofGen! by Chris Wilmer'
_symmetry_space_group_name_H-M	'P1'
_symmetry_Int_Tables_number	1
_symmetry_cell_setting	triclinic
loop_
_symmetry_equiv_pos_as_xyz
  x,y,z
_cell_length_a	12.759401
_cell_length_b	19.121063
_cell_length_c	19.121605
_cell_angle_alpha	90.075163
_cell_angle_beta	87.548106
_cell_angle_gamma	92.469017
loop_
_atom_site_label
_atom_site_type_symbol
_atom_site_fract_x
_atom_site_fract_y
_atom_site_fract_z
Zn1	Zn	1.615417	-0.262209	-0.408235
Zn2	Zn	2.115417	0.237791	0.091765
Zn3	Zn	1.600326	-0.384451	-0.295992
Zn4	Zn	2.100326	0.115549	0.204008
Zn5	Zn	1.431937	-0.267230	-0.291018
Zn6	Zn	1.931937	0.232770	0.208982
Zn7	Zn	1.432505	-0.379413	-0.413195
Zn8	Zn	1.932505	0.120587	0.086805
O9	O	1.520046	-0.323326	-0.352110
O10	O	2.020046	0.176674	0.147890
O11	O	1.760436	-0.278432	-0.393351
O12	O	2.260436	0.221568	0.106649
O13	O	1.571435	-0.373111	-0.197227
O14	O	2.071435	0.126889	0.302773
O15	O	1.462354	-0.168457	-0.302410
O16	O	1.962354	0.331543	0.197590
O17	O	1.749349	-0.368242	-0.310887
O18	O	2.249349	0.131758	0.189113
O19	O	1.597156	-0.164768	-0.388529
O20	O	2.097156	0.335232	0.111471
O21	O	1.447720	-0.286989	-0.193572
O22	O	1.947720	0.213011	0.306428
O23	O	1.284991	-0.282105	-0.307220
O24	O	1.784991	0.217895	0.192780
O25	O	1.463322	-0.359656	-0.510643
O26	O	1.963322	0.140344	-0.010643
O27	O	1.285409	-0.364525	-0.396982
O28	O	1.785409	0.135475	0.103018
O29	O	1.597707	-0.273547	-0.506998
O30	O	2.097707	0.226453	-0.006998
O31	O	1.571986	-0.481890	-0.315696
O32	O	2.071986	0.018110	0.184304
O33	O	1.448689	-0.478189	-0.401805
O34	O	1.948689	0.021811	0.098195
C35	C	1.247079	-0.323313	-0.352100
C36	C	1.747079	0.176687	0.147900
C37	C	1.130303	-0.323324	-0.352113
C38	C	1.630303	0.176676	0.147887
C39	C	1.075676	-0.366315	-0.398781
C40	C	1.575676	0.133685	0.101219
C41	C	0.965952	-0.366324	-0.398789
C42	C	1.465952	0.133676	0.101211
C43	C	0.965490	-0.280348	-0.305454
C44	C	1.465490	0.219652	0.194546
C45	C	1.075213	-0.280337	-0.305450
C46	C	1.575213	0.219663	0.194550
C47	C	1.130766	-0.409303	-0.445444
C48	C	1.630766	0.090697	0.054556
C49	C	1.076139	-0.452298	-0.492116
C50	C	1.576139	0.047702	0.007884
C51	C	0.966415	-0.452306	-0.492124
C52	C	1.466415	0.047694	0.007876
C53	C	0.911318	-0.409320	-0.445460
C54	C	1.411318	0.090680	0.054540
C55	C	1.508791	-0.505477	-0.359844
C56	C	2.008791	-0.005477	0.140156
C57	C	1.504074	-0.583401	-0.363176
C58	C	2.004074	-0.083401	0.136824
C59	C	1.566107	-0.621912	-0.319946
C60	C	2.066107	-0.121912	0.180054
C61	C	1.561677	-0.695129	-0.323084
C62	C	2.061677	-0.195129	0.176916
C63	C	1.495208	-0.729834	-0.369449
C64	C	1.995208	-0.229834	0.130551
C65	C	1.433172	-0.691318	-0.412683
C66	C	1.933172	-0.191318	0.087317
C67	C	1.437609	-0.618102	-0.409548
C68	C	1.937609	-0.118102	0.090452
C69	C	1.478604	-0.950805	-0.381159
C70	C	1.978604	-0.450805	0.118841
C71	C	1.474170	-1.024027	-0.384289
C72	C	1.974170	-0.524027	0.115711
C73	C	1.602676	-1.027833	-0.294690
C74	C	2.102676	-0.527833	0.205310
C75	C	1.607102	-0.954615	-0.291557
C76	C	2.107102	-0.454615	0.208443
C77	C	1.545071	-0.916105	-0.334794
C78	C	2.045071	-0.416105	0.165206
C79	C	1.490675	-0.804674	-0.372656
C80	C	1.990675	-0.304674	0.127344
C81	C	1.549609	-0.841266	-0.331590
C82	C	2.049609	-0.341266	0.168410
C83	C	1.794079	-0.323339	-0.352121
C84	C	2.294079	0.176661	0.147879
C85	C	1.910856	-0.323344	-0.352125
C86	C	2.410856	0.176656	0.147875
C87	C	1.532261	-0.315479	-0.534969
C88	C	2.032261	0.184521	-0.034969
C89	C	1.537467	-0.312136	-0.612893
C90	C	2.037467	0.187864	-0.112893
C91	C	1.531375	-0.140463	-0.344361
C92	C	2.031375	0.359537	0.155639
C93	C	1.536203	-0.062538	-0.341059
C94	C	2.036203	0.437462	0.158941
C95	C	1.570470	-0.290978	-1.053520
C96	C	2.070470	0.209022	-0.553520
C97	C	1.565572	-0.294123	-0.980302
C98	C	2.065572	0.205877	-0.480302
C99	C	1.493151	-0.340524	-0.945594
C100	C	1.993151	0.159476	-0.445594
C101	C	1.425631	-0.383788	-0.984108
C102	C	1.925631	0.116212	-0.484108
C103	C	1.430535	-0.380646	-1.057324
C104	C	1.930535	0.119354	-0.557324
C105	C	1.474850	-0.352257	-0.724623
C106	C	1.974850	0.147743	-0.224623
C107	C	1.469950	-0.355395	-0.651401
C108	C	1.969950	0.144605	-0.151401
C109	C	1.609892	-0.265730	-0.647601
C110	C	2.109892	0.234270	-0.147601
C111	C	1.614785	-0.262590	-0.720819
C112	C	2.114785	0.237410	-0.220819
C113	C	1.547269	-0.305856	-0.759326
C114	C	2.047269	0.194144	-0.259326
C115	C	1.488141	-0.343739	-0.870754
C116	C	1.988141	0.156261	-0.370754
C117	C	1.552285	-0.302645	-0.834165
C118	C	2.052285	0.197355	-0.334165
C119	C	1.507942	-0.331091	-0.169960
C120	C	2.007942	0.168909	0.330040
C121	C	1.502953	-0.334237	-0.092028
C122	C	2.002953	0.165763	0.407972
H123	H	0.821974	-0.409324	-0.445476
H124	H	1.321974	0.090676	0.054524
H125	H	1.603733	-0.813007	-0.293842
H126	H	2.103733	-0.313007	0.206158
Cl127	Cl	1.694758	-0.211338	-0.599188
Cl128	Cl	2.194758	0.288662	-0.099188
H129	H	1.620228	-0.593660	-0.282188
H130	H	2.120228	-0.093660	0.217812
Cl131	Cl	1.349617	-0.734948	-0.470975
Cl132	Cl	1.849617	-0.234948	0.029025
H133	H	0.920621	-0.245351	-0.267463
H134	H	1.420621	0.254649	0.232537
Cl135	Cl	1.680660	-1.076249	-0.240344
Cl136	Cl	2.180660	-0.576249	0.259656
H137	H	1.119691	-0.245324	-0.267454
H138	H	1.619691	0.254676	0.232546
Cl139	Cl	1.345654	-0.435033	-1.105735
Cl140	Cl	1.845654	0.064967	-0.605735
H141	H	1.620555	-0.258899	-0.948952
H142	H	2.120555	0.241101	-0.448952
Cl143	Cl	1.690682	-0.910990	-0.233277
Cl144	Cl	2.190682	-0.410990	0.266723
H145	H	1.420056	-1.052281	-0.422056
H146	H	1.920056	-0.552281	0.077944
H147	H	0.921942	-0.487310	-0.530131
H148	H	1.421942	0.012690	-0.030131
H149	H	1.436554	-0.832940	-0.410405
H150	H	1.936554	-0.332940	0.089595
H151	H	1.428093	-0.919456	-0.416362
H152	H	1.928093	-0.419456	0.083638
Cl153	Cl	1.639669	-0.743540	-0.268738
Cl154	Cl	2.139669	-0.243540	0.231262
Cl155	Cl	1.661507	-0.232635	-1.097145
Cl156	Cl	2.161507	0.267365	-0.597145
Cl157	Cl	1.705888	-0.204294	-0.764448
Cl158	Cl	2.205888	0.295706	-0.264448
Cl159	Cl	1.359625	-0.569688	-0.463899
Cl160	Cl	1.859625	-0.069688	0.036101
H161	H	1.410951	-0.393167	-0.623144
H162	H	1.910951	0.106833	-0.123144
H163	H	1.611253	-0.264868	-0.862428
H164	H	2.111253	0.235132	-0.362428
H165	H	1.419872	-0.387487	-0.755967
H166	H	1.919872	0.112513	-0.255967
H167	H	1.429174	-0.381517	-0.842486
H168	H	1.929174	0.118483	-0.342486
H169	H	1.220109	-0.409302	-0.445441
H170	H	1.720109	0.090698	0.054559
Cl171	Cl	1.145403	-0.506331	-0.550779
Cl172	Cl	1.645403	-0.006331	-0.050779
H173	H	1.366669	-0.421572	-0.955843
H174	H	1.866669	0.078428	-0.455843
