data_functionalizedCrystal
_audit_creation_method	'MofGen! by Chris Wilmer'
_symmetry_space_group_name_H-M	'P1'
_symmetry_Int_Tables_number	1
_symmetry_cell_setting	triclinic
loop_
_symmetry_equiv_pos_as_xyz
  x,y,z
_cell_length_a	8.597314
_cell_length_b	13.330367
_cell_length_c	8.559649
_cell_angle_alpha	90.003345
_cell_angle_beta	102.374712
_cell_angle_gamma	97.693199
loop_
_atom_site_label
_atom_site_type_symbol
_atom_site_fract_x
_atom_site_fract_y
_atom_site_fract_z
O1	O	-2.053699	-0.094065	0.238048
O2	O	-1.594577	-0.054386	0.256307
O3	O	-1.864587	-0.077722	0.015208
O4	O	-1.783689	-0.070729	0.479148
O5	O	-1.864553	-0.244566	0.015202
O6	O	-1.594542	-0.221230	0.256301
O7	O	-2.053665	-0.260909	0.238042
Cu8	Cu	-1.824101	-0.256304	0.247171
Cu9	Cu	-1.824141	-0.058991	0.247178
O10	O	-1.783655	-0.237573	0.479142
C11	C	-1.536326	-0.132775	0.254343
C12	C	-1.362810	-0.117779	0.248480
N13	N	-1.824084	-0.395084	0.247165
C14	C	-1.704581	-0.857378	0.353894
C15	C	-1.943745	-0.878017	0.140450
C16	C	-1.943728	-0.772997	0.140445
C17	C	-1.824137	-0.710163	0.247168
C18	C	-1.704563	-0.752349	0.353896
C19	C	-2.063309	-0.730804	0.033730
C20	C	-2.063297	-0.625778	0.033722
C21	C	-1.943698	-0.562942	0.140438
C22	C	-1.824119	-0.605133	0.247169
C23	C	-1.704528	-0.542299	0.353892
C24	C	-1.584940	-0.584488	0.460617
C25	C	-1.584964	-0.689512	0.460612
C26	C	-1.943675	-0.457918	0.140442
C27	C	-1.704510	-0.437269	0.353893
C28	C	-1.111916	-0.182522	0.240005
C29	C	-1.285433	-0.197523	0.245865
C30	C	-1.870701	-0.161672	-0.044229
C31	C	-1.888949	-0.163244	-0.221324
N32	N	-1.824172	0.079788	0.247171
C33	C	-1.777541	-0.153620	0.538579
C34	C	-1.759292	-0.152042	0.715674
H35	H	-1.607119	-0.386115	0.440795
H36	H	-1.296304	-0.038024	0.246232
H37	H	-2.160683	-0.781967	-0.053153
H38	H	-2.160670	-0.591435	-0.053180
C39	C	-1.503065	-0.321715	0.115320
C40	C	-1.375196	-0.305185	0.248891
H41	H	-1.558492	-0.388181	0.117196
H42	H	-1.462593	-0.314493	0.020434
H43	H	-1.574844	-0.273690	0.117761
H44	H	-1.303411	-0.353206	0.246443
H45	H	-1.415668	-0.312418	0.343801
C46	C	-2.141359	-0.270831	-0.301458
C47	C	-2.057665	-0.177830	-0.331406
H48	H	-2.245510	-0.279836	-0.369426
H49	H	-2.150812	-0.271633	-0.192909
H50	H	-2.084524	-0.324098	-0.321756
H51	H	-2.114494	-0.124563	-0.311096
H52	H	-2.048219	-0.177020	-0.439981
C53	C	-1.478742	-0.414325	0.555382
C54	C	-1.453487	-0.515414	0.577925
H55	H	-1.397585	-0.371681	0.627796
H56	H	-1.581172	-0.405965	0.574406
H57	H	-1.474570	-0.396770	0.448658
H58	H	-1.457671	-0.532971	0.684647
H59	H	-1.351032	-0.523778	0.558913
H60	H	-2.041047	-0.423573	0.053556
H61	H	-1.634326	-0.141245	-0.202782
H62	H	-1.487601	-0.723869	0.547505
H63	H	-1.607210	-0.891731	0.440784
H64	H	-2.041119	-0.929180	0.053567
