data_functionalizedCrystal
_audit_creation_method	'MofGen! by Chris Wilmer'
_symmetry_space_group_name_H-M	'P1'
_symmetry_Int_Tables_number	1
_symmetry_cell_setting	triclinic
loop_
_symmetry_equiv_pos_as_xyz
  x,y,z
_cell_length_a	19.805407
_cell_length_b	12.827892
_cell_length_c	19.805399
_cell_angle_alpha	89.976064
_cell_angle_beta	89.983114
_cell_angle_gamma	90.015392
loop_
_atom_site_label
_atom_site_type_symbol
_atom_site_fract_x
_atom_site_fract_y
_atom_site_fract_z
Zn1	Zn	1.034770	-0.416043	-0.382743
Zn2	Zn	1.534770	0.083957	0.117257
Zn3	Zn	1.034711	-0.590802	-0.269565
Zn4	Zn	1.534711	-0.090802	0.230435
Zn5	Zn	0.921590	-0.416076	-0.269568
Zn6	Zn	1.421590	0.083924	0.230432
Zn7	Zn	0.921569	-0.590742	-0.382712
Zn8	Zn	1.421569	-0.090742	0.117288
O9	O	0.978160	-0.503416	-0.326147
O10	O	1.478160	-0.003416	0.173853
O11	O	1.129478	-0.439236	-0.367742
O12	O	1.629478	0.060764	0.132258
O13	O	1.019690	-0.567663	-0.174849
O14	O	1.519690	-0.067663	0.325151
O15	O	0.936636	-0.269835	-0.284595
O16	O	1.436636	0.230165	0.215405
O17	O	1.129436	-0.567631	-0.284590
O18	O	1.629436	-0.067631	0.215410
O19	O	1.019789	-0.269811	-0.367745
O20	O	1.519789	0.230189	0.132255
O21	O	0.936579	-0.439293	-0.174851
O22	O	1.436579	0.060707	0.325149
O23	O	0.826870	-0.439235	-0.284565
O24	O	1.326870	0.060765	0.215435
O25	O	0.936602	-0.567529	-0.477433
O26	O	1.436602	-0.067529	0.022567
O27	O	0.826856	-0.567561	-0.367691
O28	O	1.326856	-0.067561	0.132309
O29	O	1.019769	-0.439178	-0.477456
O30	O	1.519769	0.060822	0.022544
O31	O	1.019670	-0.737030	-0.284560
O32	O	1.519670	-0.237030	0.215440
O33	O	0.936545	-0.736986	-0.367688
O34	O	1.436545	-0.236986	0.132312
C35	C	0.802304	-0.503396	-0.326125
C36	C	1.302304	-0.003396	0.173875
C37	C	0.727072	-0.503412	-0.326132
C38	C	1.227072	-0.003412	0.173868
C39	C	0.691738	-0.570333	-0.369346
C40	C	1.191738	-0.070333	0.130654
C41	C	0.621049	-0.570335	-0.369355
C42	C	1.121049	-0.070335	0.130645
C43	C	0.585696	-0.503421	-0.326147
C44	C	1.085696	-0.003421	0.173853
C45	C	0.621035	-0.436493	-0.282931
C46	C	1.121035	0.063507	0.217069
C47	C	0.691723	-0.436487	-0.282926
C48	C	1.191723	0.063513	0.217074
C49	C	0.335962	-0.436516	-0.282954
C50	C	0.835962	0.063484	0.217046
C51	C	0.265270	-0.436530	-0.282961
C52	C	0.765270	0.063470	0.217039
C53	C	0.265289	-0.570364	-0.369383
C54	C	0.765289	-0.070364	0.130617
C55	C	0.335976	-0.570358	-0.369378
C56	C	0.835976	-0.070358	0.130622
C57	C	0.371309	-0.503427	-0.326165
C58	C	0.871309	-0.003427	0.173835
C59	C	0.447957	-0.503424	-0.326156
C60	C	0.947957	-0.003424	0.173844
C61	C	0.509049	-0.503428	-0.326152
C62	C	1.009049	-0.003428	0.173848
C63	C	0.978118	-0.774926	-0.326135
C64	C	1.478118	-0.274926	0.173865
C65	C	0.978161	-0.891079	-0.326153
C66	C	1.478161	-0.391079	0.173847
C67	C	1.019343	-0.942851	-0.285064
C68	C	1.519343	-0.442851	0.214936
C69	C	1.019389	-1.062901	-0.285081
C70	C	1.519389	-0.562901	0.214919
C71	C	1.154703	-0.503437	-0.326169
C72	C	1.654703	-0.003437	0.173831
C73	C	1.229935	-0.503446	-0.326179
C74	C	1.729935	-0.003446	0.173821
C75	C	0.978190	-0.503343	-0.502690
C76	C	1.478190	-0.003343	-0.002690
C77	C	0.978202	-0.503312	-0.577922
C78	C	1.478202	-0.003312	-0.077922
C79	C	0.978221	-0.230846	-0.326174
C80	C	1.478221	0.269154	0.173826
C81	C	0.978247	-0.114693	-0.326185
C82	C	1.478247	0.385307	0.173815
C83	C	0.934939	-0.436463	-0.613267
C84	C	1.434939	0.063537	-0.113267
C85	C	0.934948	-0.436443	-0.683955
C86	C	1.434948	0.063557	-0.183955
C87	C	0.978225	-0.503267	-0.719298
C88	C	1.478225	-0.003267	-0.219298
C89	C	1.021490	-0.570124	-0.683948
C90	C	1.521490	-0.070124	-0.183948
C91	C	1.021477	-0.570148	-0.613261
C92	C	1.521477	-0.070148	-0.113261
C93	C	1.021544	-0.570026	-0.969021
C94	C	1.521544	-0.070026	-0.469021
C95	C	1.021555	-0.569994	-1.039713
C96	C	1.521555	-0.069994	-0.539713
C97	C	0.935015	-0.436321	-1.039716
C98	C	1.435015	0.063679	-0.539716
C99	C	0.935002	-0.436345	-0.969029
C100	C	1.435002	0.063655	-0.469029
C101	C	0.978264	-0.503205	-0.933685
C102	C	1.478264	-0.003205	-0.433685
C103	C	0.978253	-0.503228	-0.857037
C104	C	1.478253	-0.003228	-0.357037
C105	C	0.978240	-0.503240	-0.795945
C106	C	1.478240	-0.003240	-0.295945
C107	C	0.978169	-0.503413	-0.150291
C108	C	1.478169	-0.003413	0.349709
C109	C	0.978288	-0.503149	-0.075060
C110	C	1.478288	-0.003149	0.424940
H111	H	0.236488	-0.382034	-0.247776
H112	H	0.736488	0.117966	0.252224
O113	O	0.888292	-0.364333	-0.722080
O114	O	1.388292	0.135667	-0.222080
H115	H	0.858206	-0.317859	-0.685628
H116	H	1.358206	0.182141	-0.185628
H117	H	0.899787	-0.381883	-1.068501
H118	H	1.399787	0.118117	-0.568501
O119	O	0.374057	-0.364352	-0.236325
O120	O	0.874057	0.135648	0.263675
H121	H	0.360499	-0.282356	-0.248009
H122	H	0.860499	0.217644	0.251991
O123	O	0.583007	-0.642709	-0.415893
O124	O	1.083007	-0.142709	0.084107
H125	H	0.596588	-0.625048	-0.469058
H126	H	1.096588	-0.125048	0.030942
H127	H	1.054569	-0.898300	-0.249875
H128	H	1.554569	-0.398300	0.250125
O129	O	1.066092	-1.121871	-0.238480
O130	O	1.566092	-0.621871	0.261520
H131	H	1.096218	-1.065664	-0.208364
H132	H	1.596218	-0.565664	0.291636
H133	H	1.056723	-0.624538	-0.712729
H134	H	1.556723	-0.124538	-0.212729
H135	H	0.942985	-1.070178	-0.361363
H136	H	1.442985	-0.570178	0.138637
H137	H	1.056797	-0.624414	-1.068487
H138	H	1.556797	-0.124414	-0.568487
O139	O	0.931496	-0.950086	-0.372763
O140	O	1.431496	-0.450086	0.127237
H141	H	0.961813	-0.999750	-0.407203
H142	H	1.461813	-0.499750	0.092797
H143	H	1.056763	-0.624478	-0.940253
H144	H	1.556763	-0.124478	-0.440253
O145	O	0.888266	-0.364378	-0.575152
O146	O	1.388266	0.135622	-0.075152
H147	H	0.853815	-0.411151	-0.542931
H148	H	1.353815	0.088849	-0.042931
O149	O	0.729830	-0.364310	-0.236310
O150	O	1.229830	0.135690	0.263690
H151	H	0.762048	-0.311190	-0.266659
H152	H	1.262048	0.188810	0.233341
H153	H	0.364757	-0.624850	-0.404560
H154	H	0.864757	-0.124850	0.095440
O155	O	0.888332	-0.364263	-0.930907
O156	O	1.388332	0.135737	-0.430907
H157	H	0.858247	-0.317777	-0.967361
H158	H	1.358247	0.182223	-0.467361
H159	H	1.056711	-0.624576	-0.584484
H160	H	1.556711	-0.124576	-0.084484
O161	O	0.582898	-0.364347	-0.236316
O162	O	1.082898	0.135653	0.263684
H163	H	0.550698	-0.311249	-0.266661
H164	H	1.050698	0.188751	0.233339
O165	O	0.729872	-0.642492	-0.415955
O166	O	1.229872	-0.142492	0.084045
H167	H	0.716291	-0.724491	-0.404268
H168	H	1.216291	-0.224491	0.095732
O169	O	0.227182	-0.642546	-0.416003
O170	O	0.727182	-0.142546	0.083997
H171	H	0.172089	-0.631304	-0.408757
H172	H	0.672089	-0.131304	0.091243
