data_functionalizedCrystal
_audit_creation_method	'MofGen! by Chris Wilmer'
_symmetry_space_group_name_H-M	'P1'
_symmetry_Int_Tables_number	1
_symmetry_cell_setting	triclinic
loop_
_symmetry_equiv_pos_as_xyz
  x,y,z
_cell_length_a	16.109301
_cell_length_b	15.944551
_cell_length_c	14.586319
_cell_angle_alpha	89.995256
_cell_angle_beta	89.999213
_cell_angle_gamma	83.480109
loop_
_atom_site_label
_atom_site_type_symbol
_atom_site_fract_x
_atom_site_fract_y
_atom_site_fract_z
O1	O	1.103166	0.107966	-0.076184
O2	O	1.603166	0.607966	0.423816
O3	O	0.861108	0.121403	-0.076199
O4	O	1.361108	0.621403	0.423801
O5	O	0.988747	-0.007593	-0.076183
O6	O	1.488747	0.492407	0.423817
O7	O	0.975527	0.236961	-0.076200
O8	O	1.475527	0.736961	0.423800
O9	O	0.988738	-0.007595	0.076298
O10	O	1.488738	0.492405	0.576298
O11	O	0.861099	0.121401	0.076282
O12	O	1.361099	0.621401	0.576282
O13	O	1.103157	0.107964	0.076296
O14	O	1.603157	0.607964	0.576296
Cu15	Cu	0.982127	0.114682	0.090212
Cu16	Cu	1.482127	0.614682	0.590212
Cu17	Cu	0.982138	0.114685	-0.090114
Cu18	Cu	1.482138	0.614685	0.409886
O19	O	0.975518	0.236960	0.076280
O20	O	1.475518	0.736960	0.576280
C21	C	0.830129	0.120857	0.000039
C22	C	1.330129	0.620857	0.500039
C23	C	0.737833	0.119226	0.000034
C24	C	1.237833	0.619226	0.500034
C25	C	0.515584	0.191975	0.000040
C26	C	1.015584	0.691975	0.500040
C27	C	0.428863	0.190435	0.000046
C28	C	0.928863	0.690435	0.500046
C29	C	0.448688	0.037387	0.000053
C30	C	0.948688	0.537387	0.500053
C31	C	0.535407	0.038927	0.000053
C32	C	1.035407	0.538927	0.500053
C33	C	0.568853	0.116224	0.000042
C34	C	1.068853	0.616224	0.500042
C35	C	0.395412	0.113143	0.000047
C36	C	0.895412	0.613143	0.500047
C37	C	0.301386	0.111473	0.000054
C38	C	0.801386	0.611473	0.500054
C39	C	0.662885	0.117894	0.000037
C40	C	1.162885	0.617894	0.500037
C41	C	0.988194	-0.038887	0.000057
C42	C	1.488194	0.461113	0.500057
C43	C	0.986548	-0.132133	0.000058
C44	C	1.486548	0.367867	0.500058
C45	C	0.903499	-0.346962	0.000040
C46	C	1.403499	0.153038	0.500040
C47	C	0.942060	-0.407993	0.075225
C48	C	1.442060	0.092007	0.575225
C49	C	0.983572	-0.302858	0.000051
C50	C	1.483572	0.197142	0.500051
C51	C	0.942088	-0.407975	-0.075109
C52	C	1.442088	0.092025	0.424891
C53	C	0.980691	-0.467769	0.000040
C54	C	1.480691	0.032231	0.500040
C55	C	1.022155	-0.362660	0.075297
C56	C	1.522155	0.137340	0.575297
C57	C	1.022171	-0.362636	-0.075104
C58	C	1.522171	0.137364	0.424896
C59	C	1.060790	-0.423649	0.000099
C60	C	1.560790	0.076351	0.500099
C61	C	0.985229	-0.207856	0.000058
C62	C	1.485229	0.292144	0.500058
C63	C	0.979039	-0.562770	0.000039
C64	C	1.479039	-0.062770	0.500039
C65	C	1.134136	0.108510	0.000056
C66	C	1.634136	0.608510	0.500056
C67	C	1.226432	0.110141	0.000055
C68	C	1.726432	0.610141	0.500055
C69	C	0.976071	0.268254	0.000038
C70	C	1.476071	0.768254	0.500038
C71	C	0.977717	0.361500	0.000031
C72	C	1.477717	0.861500	0.500031
N73	N	0.982126	0.114680	0.217044
N74	N	1.482126	0.614680	0.717044
N75	N	0.982146	0.114680	-0.216946
N76	N	1.482146	0.614680	0.283054
C77	C	1.038663	0.057580	0.452057
C78	C	1.538663	0.557580	0.952057
C79	C	1.038666	0.057578	0.548038
C80	C	1.538666	0.557578	1.048038
C81	C	0.925602	0.171783	0.548034
C82	C	1.425602	0.671783	1.048034
C83	C	0.925597	0.171780	0.452054
C84	C	1.425597	0.671780	0.952054
C85	C	0.982132	0.114680	0.404068
C86	C	1.482132	0.614680	0.904068
C87	C	0.982140	0.114680	0.596029
C88	C	1.482140	0.614680	1.096029
C89	C	0.982142	0.114679	0.700096
C90	C	1.482142	0.614679	1.200096
C91	C	0.982129	0.114680	0.299995
C92	C	1.482129	0.614680	0.799995
H93	H	0.908189	-0.428091	0.138783
H94	H	1.408189	0.071909	0.638783
N95	N	0.899590	-0.433175	-0.154838
N96	N	1.399590	0.066825	0.345162
N97	N	0.835915	-0.470615	-0.146487
N98	N	1.335915	0.029385	0.353513
H99	H	0.805896	-0.488412	-0.202790
H100	H	1.305896	0.011588	0.297210
N101	N	0.374439	0.267805	0.000039
N102	N	0.874439	0.767805	0.500039
N103	N	0.297013	0.266423	0.000046
N104	N	0.797013	0.766423	0.500046
H105	H	0.258574	0.321068	0.000044
H106	H	0.758574	0.821068	0.500044
H107	H	0.879574	0.218274	0.587113
H108	H	1.379574	0.718274	1.087113
H109	H	1.084696	0.011085	0.412989
H110	H	1.584696	0.511085	0.912989
N111	N	1.064583	-0.337604	0.155137
N112	N	1.564583	0.162396	0.655137
N113	N	1.037608	-0.352567	0.233100
N114	N	1.537608	0.147433	0.733100
H115	H	1.067569	-0.334869	0.289488
H116	H	1.567569	0.165131	0.789488
N117	N	1.096413	-0.000758	0.597043
N118	N	1.596413	0.499242	1.097043
N119	N	1.146879	-0.051735	0.554184
N120	N	1.646879	0.448265	1.054184
H121	H	1.187665	-0.092940	0.588792
H122	H	1.687665	0.407060	1.088792
H123	H	0.879558	0.218278	0.412979
H124	H	1.379558	0.718278	0.912979
H125	H	0.837035	-0.313632	0.000111
H126	H	1.337035	0.186368	0.500111
N127	N	0.549735	0.270935	0.000029
N128	N	1.049735	0.770935	0.500029
N129	N	0.502160	0.338563	0.000029
N130	N	1.002160	0.838563	0.500029
H131	H	0.526276	0.394332	0.000024
H132	H	1.026276	0.894332	0.500024
N133	N	1.144232	-0.465297	0.000144
N134	N	1.644232	0.034703	0.500144
N135	N	1.168811	-0.513377	-0.064416
N136	N	1.668811	-0.013377	0.435584
H137	H	1.227741	-0.542795	-0.064381
H138	H	1.727741	-0.042795	0.435619
N139	N	0.414508	-0.041559	0.000064
N140	N	0.914508	0.458441	0.500064
N141	N	0.337080	-0.042925	0.000062
N142	N	0.837080	0.457075	0.500062
H143	H	0.312941	-0.098682	0.000069
H144	H	0.812941	0.401318	0.500069
N145	N	0.589826	-0.038455	0.000074
N146	N	1.089826	0.461545	0.500074
N147	N	0.586778	-0.089864	0.064355
N148	N	1.086778	0.410136	0.564355
H149	H	0.625212	-0.144513	0.064375
H150	H	1.125212	0.355487	0.564375
N151	N	1.064622	-0.337401	-0.154848
N152	N	1.564622	0.162599	0.345152
N153	N	1.037336	-0.351667	-0.232856
N154	N	1.537336	0.148333	0.267144
H155	H	1.067311	-0.333844	-0.289183
H156	H	1.567311	0.166156	0.210817
