data_functionalizedCrystal
_audit_creation_method	'MofGen! by Chris Wilmer'
_symmetry_space_group_name_H-M	'P1'
_symmetry_Int_Tables_number	1
_symmetry_cell_setting	triclinic
loop_
_symmetry_equiv_pos_as_xyz
  x,y,z
_cell_length_a	11.792241
_cell_length_b	11.026607
_cell_length_c	9.482900
_cell_angle_alpha	78.599815
_cell_angle_beta	80.646885
_cell_angle_gamma	83.610284
loop_
_atom_site_label
_atom_site_type_symbol
_atom_site_fract_x
_atom_site_fract_y
_atom_site_fract_z
O1	O	1.553802	-0.147646	-0.120862
O2	O	1.226870	-0.164810	-0.120870
O3	O	1.363240	0.020603	-0.120861
O4	O	1.417433	-0.333059	-0.120870
O5	O	1.335571	-0.017211	0.120929
O6	O	1.199202	-0.202623	0.120920
O7	O	1.526133	-0.185460	0.120929
Cu8	Cu	1.360141	-0.197494	0.143002
Cu9	Cu	1.392863	-0.152775	-0.142943
O10	O	1.389764	-0.370872	0.120920
C11	C	1.170531	-0.182638	0.000024
C12	C	1.043877	-0.179410	0.000020
C13	C	1.582473	-0.167631	0.000032
C14	C	1.709128	-0.170857	0.000026
C15	C	1.941019	-0.176792	0.000026
C16	C	1.811979	-0.173494	0.000026
C17	C	1.339408	0.046973	0.000032
C18	C	1.309606	0.181884	0.000026
C19	C	1.413596	-0.397242	0.000024
C20	C	1.443399	-0.532151	0.000020
N21	N	1.337135	-0.228946	0.344121
C22	C	1.391896	0.255148	0.000026
C23	C	1.361097	0.394586	0.000020
N24	N	1.415876	-0.121314	-0.344062
C25	C	1.386067	-0.162046	0.416323
C26	C	1.366936	-0.188224	0.583739
H27	H	1.485149	0.214641	0.000038
H28	H	1.310871	-0.264881	0.645860
N29	N	1.266814	-0.325125	0.422022
N30	N	1.220803	-0.388038	0.354226
H31	H	1.171136	-0.455967	0.409239
N32	N	1.560390	0.417038	0.000015
N33	N	1.585248	0.303841	0.000016
H34	H	1.667872	0.267953	0.000013
H35	H	1.267838	0.435087	0.000008
H36	H	1.216354	0.222391	0.000014
N37	N	1.486190	-0.025136	0.578000
N38	N	1.501629	-0.004000	0.442113
H39	H	1.551287	0.063926	0.387066
H40	H	1.442119	-0.085384	0.354199
