data_functionalizedCrystal
_audit_creation_method	'MofGen! by Chris Wilmer'
_symmetry_space_group_name_H-M	'P1'
_symmetry_Int_Tables_number	1
_symmetry_cell_setting	triclinic
loop_
_symmetry_equiv_pos_as_xyz
  x,y,z
_cell_length_a	21.395362
_cell_length_b	18.101395
_cell_length_c	21.395364
_cell_angle_alpha	90.001096
_cell_angle_beta	90.036401
_cell_angle_gamma	90.046983
loop_
_atom_site_label
_atom_site_type_symbol
_atom_site_fract_x
_atom_site_fract_y
_atom_site_fract_z
Zn1	Zn	0.957811	-0.294709	0.354598
Zn2	Zn	1.207811	-0.044709	0.604598
Zn3	Zn	1.457811	0.205291	0.854598
Zn4	Zn	1.707811	0.455291	1.104598
Zn5	Zn	0.957727	-0.418500	0.249825
Zn6	Zn	1.207727	-0.168500	0.499825
Zn7	Zn	1.457727	0.081500	0.749825
Zn8	Zn	1.707727	0.331500	0.999825
Zn9	Zn	0.853040	-0.294711	0.249799
Zn10	Zn	1.103040	-0.044711	0.499799
Zn11	Zn	1.353040	0.205289	0.749799
Zn12	Zn	1.603040	0.455289	0.999799
Zn13	Zn	0.852994	-0.418547	0.354530
Zn14	Zn	1.102994	-0.168547	0.604530
Zn15	Zn	1.352994	0.081453	0.854530
Zn16	Zn	1.602994	0.331453	1.104530
O17	O	0.905393	-0.356617	0.302188
O18	O	1.155393	-0.106617	0.552188
O19	O	1.405393	0.143383	0.802188
O20	O	1.655393	0.393383	1.052188
O21	O	1.045478	-0.311109	0.340739
O22	O	1.295478	-0.061109	0.590739
O23	O	1.545478	0.188891	0.840739
O24	O	1.795478	0.438891	1.090739
O25	O	0.943823	-0.402061	0.162144
O26	O	1.193823	-0.152061	0.412144
O27	O	1.443823	0.097939	0.662144
O28	O	1.693823	0.347939	0.912144
O29	O	0.866992	-0.191078	0.263718
O30	O	1.116992	0.058922	0.513718
O31	O	1.366992	0.308922	0.763718
O32	O	1.616992	0.558922	1.013718
O33	O	1.045416	-0.402058	0.263763
O34	O	1.295416	-0.152058	0.513763
O35	O	1.545416	0.097942	0.763763
O36	O	1.795416	0.347942	1.013763
O37	O	0.943967	-0.191076	0.340713
O38	O	1.193967	0.058924	0.590713
O39	O	1.443967	0.308924	0.840713
O40	O	1.693967	0.558924	1.090713
O41	O	0.866910	-0.311114	0.162124
O42	O	1.116910	-0.061114	0.412124
O43	O	1.366910	0.188886	0.662124
O44	O	1.616910	0.438886	0.912124
O45	O	0.765356	-0.311159	0.263652
O46	O	1.015356	-0.061159	0.513652
O47	O	1.265356	0.188841	0.763652
O48	O	1.515356	0.438841	1.013652
O49	O	0.866915	-0.402138	0.442217
O50	O	1.116915	-0.152138	0.692217
O51	O	1.366915	0.097862	0.942217
O52	O	1.616915	0.347862	1.192217
O53	O	0.765323	-0.402141	0.340598
O54	O	1.015323	-0.152141	0.590598
O55	O	1.265323	0.097859	0.840598
O56	O	1.515323	0.347859	1.090598
O57	O	0.943923	-0.311154	0.442266
O58	O	1.193923	-0.061154	0.692266
O59	O	1.443923	0.188846	0.942266
O60	O	1.693923	0.438846	1.192266
O61	O	0.943779	-0.522139	0.263697
O62	O	1.193779	-0.272139	0.513697
O63	O	1.443779	-0.022139	0.763697
O64	O	1.693779	0.227861	1.013697
O65	O	0.866833	-0.522174	0.340623
O66	O	1.116833	-0.272174	0.590623
O67	O	1.366833	-0.022174	0.840623
O68	O	1.616833	0.227826	1.090623
C69	C	0.742605	-0.356656	0.302115
C70	C	0.992605	-0.106656	0.552115
C71	C	1.242605	0.143344	0.802115
C72	C	1.492605	0.393344	1.052115
C73	C	0.672964	-0.356691	0.302099
C74	C	0.922964	-0.106691	0.552099
C75	C	1.172964	0.143309	0.802099
C76	C	1.422964	0.393309	1.052099
C77	C	0.905309	-0.549027	0.302169
C78	C	1.155309	-0.299027	0.552169
C79	C	1.405309	-0.049027	0.802169
C80	C	1.655309	0.200973	1.052169
C81	C	0.905331	-0.631342	0.302182
C82	C	1.155331	-0.381342	0.552182
C83	C	1.405331	-0.131342	0.802182
C84	C	1.655331	0.118658	1.052182
C85	C	0.640250	-0.404127	0.342104
C86	C	0.890250	-0.154127	0.592104
C87	C	1.140250	0.095873	0.842104
C88	C	1.390250	0.345873	1.092104
C89	C	0.574815	-0.404109	0.342132
C90	C	0.824815	-0.154109	0.592132
C91	C	1.074815	0.095891	0.842132
C92	C	1.324815	0.345891	1.092132
C93	C	0.542096	-0.356662	0.302144
C94	C	0.792096	-0.106662	0.552144
C95	C	1.042096	0.143338	0.802144
C96	C	1.292096	0.393338	1.052144
C97	C	0.574818	-0.309216	0.262135
C98	C	0.824818	-0.059216	0.512135
C99	C	1.074818	0.190784	0.762135
C100	C	1.324818	0.440784	1.012135
C101	C	0.640252	-0.309230	0.262113
C102	C	0.890252	-0.059230	0.512113
C103	C	1.140252	0.190770	0.762113
C104	C	1.390252	0.440770	1.012113
C105	C	0.438378	-0.350679	0.245738
C106	C	0.688378	-0.100679	0.495738
C107	C	0.938378	0.149321	0.745738
C108	C	1.188378	0.399321	0.995738
C109	C	0.372946	-0.350670	0.245759
C110	C	0.622946	-0.100670	0.495759
C111	C	0.872946	0.149330	0.745759
C112	C	1.122946	0.399330	0.995759
C113	C	0.340275	-0.356614	0.302213
C114	C	0.590275	-0.106614	0.552213
C115	C	0.840275	0.143386	0.802213
C116	C	1.090275	0.393386	1.052213
C117	C	0.373046	-0.362582	0.358647
C118	C	0.623046	-0.112582	0.608647
C119	C	0.873046	0.137418	0.858647
C120	C	1.123046	0.387418	1.108647
C121	C	0.438480	-0.362596	0.358624
C122	C	0.688480	-0.112596	0.608624
C123	C	0.938480	0.137404	0.858624
C124	C	1.188480	0.387404	1.108624
C125	C	0.471143	-0.356641	0.302164
C126	C	0.721143	-0.106641	0.552164
C127	C	0.971143	0.143359	0.802164
C128	C	1.221143	0.393359	1.052164
C129	C	0.236608	-0.404033	0.342252
C130	C	0.486608	-0.154033	0.592252
C131	C	0.736608	0.095967	0.842252
C132	C	0.986608	0.345967	1.092252
C133	C	0.171172	-0.404010	0.342281
C134	C	0.421172	-0.154010	0.592281
C135	C	0.671172	0.095990	0.842281
C136	C	0.921172	0.345990	1.092281
C137	C	0.171176	-0.309121	0.262278
C138	C	0.421176	-0.059121	0.512278
C139	C	0.671176	0.190879	0.762278
C140	C	0.921176	0.440879	1.012278
C141	C	0.236612	-0.309140	0.262255
C142	C	0.486612	-0.059140	0.512255
C143	C	0.736612	0.190860	0.762255
C144	C	0.986612	0.440860	1.012255
C145	C	0.269324	-0.356601	0.302241
C146	C	0.519324	-0.106601	0.552241
C147	C	0.769324	0.143399	0.802241
C148	C	1.019324	0.393399	1.052241
C149	C	0.905468	-0.930432	0.302216
C150	C	1.155468	-0.680432	0.552216
C151	C	1.405468	-0.430432	0.802216
C152	C	1.655468	-0.180432	1.052216
C153	C	0.857168	-0.899160	0.350736
C154	C	1.107168	-0.649160	0.600736
C155	C	1.357168	-0.399160	0.850736
C156	C	1.607168	-0.149160	1.100736
C157	C	0.856938	-0.813542	0.350584
C158	C	1.106938	-0.563542	0.600584
C159	C	1.356938	-0.313542	0.850584
C160	C	1.606938	-0.063542	1.100584
C161	C	0.905400	-0.782050	0.302200
C162	C	1.155400	-0.532050	0.552200
C163	C	1.405400	-0.282050	0.802200
C164	C	1.655400	-0.032050	1.052200
C165	C	0.887526	-0.813171	0.236161
C166	C	1.137526	-0.563171	0.486161
C167	C	1.387526	-0.313171	0.736161
C168	C	1.637526	-0.063171	0.986161
C169	C	0.887215	-0.898817	0.236451
C170	C	1.137215	-0.648817	0.486451
C171	C	1.387215	-0.398817	0.736451
C172	C	1.637215	-0.148817	0.986451
C173	C	0.971748	-0.898764	0.319154
C174	C	1.221748	-0.648764	0.569154
C175	C	1.471748	-0.398764	0.819154
C176	C	1.721748	-0.148764	1.069154
C177	C	0.971358	-0.813113	0.320602
C178	C	1.221358	-0.563113	0.570602
C179	C	1.471358	-0.313113	0.820602
C180	C	1.721358	-0.063113	1.070602
C181	C	0.905362	-0.698190	0.302187
C182	C	1.155362	-0.448190	0.552187
C183	C	1.405362	-0.198190	0.802187
C184	C	1.655362	0.051810	1.052187
C185	C	0.905504	-1.014292	0.302225
C186	C	1.155504	-0.764292	0.552225
C187	C	1.405504	-0.514292	0.802225
C188	C	1.655504	-0.264292	1.052225
C189	C	1.068816	-0.356578	0.302261
C190	C	1.318816	-0.106578	0.552261
C191	C	1.568816	0.143422	0.802261
C192	C	1.818816	0.393422	1.052261
C193	C	1.138458	-0.356562	0.302292
C194	C	1.388458	-0.106562	0.552292
C195	C	1.638458	0.143438	0.802292
C196	C	1.888458	0.393438	1.052292
C197	C	0.905423	-0.356651	0.465611
C198	C	1.155423	-0.106651	0.715611
C199	C	1.405423	0.143349	0.965611
C200	C	1.655423	0.393349	1.215611
C201	C	0.905436	-0.356666	0.535252
C202	C	1.155436	-0.106666	0.785252
C203	C	1.405436	0.143334	1.035252
C204	C	1.655436	0.393334	1.285252
C205	C	0.905494	-0.163455	0.302220
C206	C	1.155494	0.086545	0.552220
C207	C	1.405494	0.336545	0.802220
C208	C	1.655494	0.586545	1.052220
C209	C	0.905537	-0.081141	0.302234
C210	C	1.155537	0.168859	0.552234
C211	C	1.405537	0.418859	0.802234
C212	C	1.655537	0.668859	1.052234
C213	C	0.945529	-0.309299	0.567992
C214	C	1.195529	-0.059299	0.817992
C215	C	1.445529	0.190701	1.067992
C216	C	1.695529	0.440701	1.317992
C217	C	0.945519	-0.309286	0.633428
C218	C	1.195519	-0.059286	0.883428
C219	C	1.445519	0.190714	1.133428
C220	C	1.695519	0.440714	1.383428
C221	C	0.905424	-0.356655	0.666121
C222	C	1.155424	-0.106655	0.916121
C223	C	1.405424	0.143345	1.166121
C224	C	1.655424	0.393345	1.416121
C225	C	0.865324	-0.404025	0.633373
C226	C	1.115324	-0.154025	0.883373
C227	C	1.365324	0.095975	1.133373
C228	C	1.615324	0.345975	1.383373
C229	C	0.865330	-0.404031	0.567939
C230	C	1.115330	-0.154031	0.817939
C231	C	1.365330	0.095969	1.067939
C232	C	1.615330	0.345969	1.317939
C233	C	0.900434	-0.423369	0.769787
C234	C	1.150434	-0.173369	1.019787
C235	C	1.400434	0.076631	1.269787
C236	C	1.650434	0.326631	1.519787
C237	C	0.900432	-0.423365	0.835220
C238	C	1.150432	-0.173365	1.085220
C239	C	1.400432	0.076635	1.335220
C240	C	1.650432	0.326635	1.585220
C241	C	0.905401	-0.356638	0.867941
C242	C	1.155401	-0.106638	1.117941
C243	C	1.405401	0.143362	1.367941
C244	C	1.655401	0.393362	1.617941
C245	C	0.910385	-0.289912	0.835222
C246	C	1.160385	-0.039912	1.085222
C247	C	1.410385	0.210088	1.335222
C248	C	1.660385	0.460088	1.585222
C249	C	0.910392	-0.289918	0.769788
C250	C	1.160392	-0.039918	1.019788
C251	C	1.410392	0.210082	1.269788
C252	C	1.660392	0.460082	1.519788
C253	C	0.905413	-0.356654	0.737073
C254	C	1.155413	-0.106654	0.987073
C255	C	1.405413	0.143346	1.237073
C256	C	1.655413	0.393346	1.487073
C257	C	0.945485	-0.309253	0.971634
C258	C	1.195485	-0.059253	1.221634
C259	C	1.445485	0.190747	1.471634
C260	C	1.695485	0.440747	1.721634
C261	C	0.945472	-0.309240	1.037071
C262	C	1.195472	-0.059240	1.287071
C263	C	1.445472	0.190760	1.537071
C264	C	1.695472	0.440760	1.787071
C265	C	0.865280	-0.403985	1.037014
C266	C	1.115280	-0.153985	1.287014
C267	C	1.365280	0.096015	1.537014
C268	C	1.615280	0.346015	1.787014
C269	C	0.865290	-0.403992	0.971579
C270	C	1.115290	-0.153992	1.221579
C271	C	1.365290	0.096008	1.471579
C272	C	1.615290	0.346008	1.721579
C273	C	0.905397	-0.356627	0.938893
C274	C	1.155397	-0.106627	1.188893
C275	C	1.405397	0.143373	1.438893
C276	C	1.655397	0.393373	1.688893
C277	C	0.905366	-0.356605	1.139400
C278	C	1.155366	-0.106605	1.389400
C279	C	1.405366	0.143395	1.639400
C280	C	1.655366	0.393395	1.889400
C281	C	0.905375	-0.356608	1.069759
C282	C	1.155375	-0.106608	1.319759
C283	C	1.405375	0.143392	1.569759
C284	C	1.655375	0.393392	1.819759
H285	H	0.666880	-0.442772	0.374665
H286	H	0.916880	-0.192772	0.624665
H287	H	1.166880	0.057228	0.874665
H288	H	1.416880	0.307228	1.124665
F289	F	1.018786	-0.925203	0.272972
F290	F	1.268786	-0.675203	0.522972
F291	F	1.518786	-0.425203	0.772972
F292	F	1.768786	-0.175203	1.022972
H293	H	0.978166	-0.270710	0.660090
H294	H	1.228166	-0.020710	0.910090
H295	H	1.478166	0.229290	1.160090
H296	H	1.728166	0.479290	1.410090
H297	H	0.978118	-0.270663	1.063726
H298	H	1.228118	-0.020663	1.313726
H299	H	1.478118	0.229337	1.563726
H300	H	1.728118	0.479337	1.813726
H301	H	0.807810	-0.793129	0.339363
H302	H	1.057810	-0.543129	0.589363
H303	H	1.307810	-0.293129	0.839363
H304	H	1.557810	-0.043129	1.089363
F305	F	0.931197	-0.925857	0.187583
F306	F	1.181197	-0.675857	0.437583
F307	F	1.431197	-0.425857	0.687583
F308	F	1.681197	-0.175857	0.937583
F309	F	0.823887	-0.925027	0.217701
F310	F	1.073887	-0.675027	0.467701
F311	F	1.323887	-0.425027	0.717701
F312	F	1.573887	-0.175027	0.967701
F313	F	0.895133	-0.494379	0.870037
F314	F	1.145133	-0.244379	1.120037
F315	F	1.395133	0.005621	1.370037
F316	F	1.645133	0.255621	1.620037
H317	H	0.548174	-0.442738	0.374712
H318	H	0.798174	-0.192738	0.624712
H319	H	1.048174	0.057262	0.874712
H320	H	1.298174	0.307262	1.124712
F321	F	0.473354	-0.368945	0.418683
F322	F	0.723354	-0.118945	0.668683
F323	F	0.973354	0.131055	0.918683
F324	F	1.223354	0.381055	1.168683
H325	H	0.868239	-0.919730	0.399862
H326	H	1.118239	-0.669730	0.649862
H327	H	1.368239	-0.419730	0.899862
H328	H	1.618239	-0.169730	1.149862
F329	F	0.993049	-0.926954	0.381026
F330	F	1.243049	-0.676954	0.631026
F331	F	1.493049	-0.426954	0.881026
F332	F	1.743049	-0.176954	1.131026
H333	H	0.832676	-0.442591	0.659996
H334	H	1.082676	-0.192591	0.909996
H335	H	1.332676	0.057409	1.159996
H336	H	1.582676	0.307409	1.409996
F337	F	0.793345	-0.927401	0.336264
F338	F	1.043345	-0.677401	0.586264
F339	F	1.293345	-0.427401	0.836264
F340	F	1.543345	-0.177401	1.086264
H341	H	0.914448	-0.235588	0.743150
H342	H	1.164448	0.014412	0.993150
H343	H	1.414448	0.264412	1.243150
H344	H	1.664448	0.514412	1.493150
F345	F	0.136355	-0.454498	0.384866
F346	F	0.386355	-0.204498	0.634866
F347	F	0.636355	0.045502	0.884866
F348	F	0.886355	0.295502	1.134866
H349	H	0.832680	-0.442602	0.541282
H350	H	1.082680	-0.192602	0.791282
H351	H	1.332680	0.057398	1.041282
H352	H	1.582680	0.307398	1.291282
H353	H	0.978139	-0.270682	0.945019
H354	H	1.228139	-0.020682	1.195019
H355	H	1.478139	0.229318	1.445019
H356	H	1.728139	0.479318	1.695019
H357	H	0.832627	-0.442546	1.063632
H358	H	1.082627	-0.192546	1.313632
H359	H	1.332627	0.057454	1.563632
H360	H	1.582627	0.307454	1.813632
F361	F	0.915676	-0.218891	0.870041
F362	F	1.165676	0.031109	1.120041
F363	F	1.415676	0.281109	1.370041
F364	F	1.665676	0.531109	1.620041
F365	F	0.932061	-0.786507	0.187617
F366	F	1.182061	-0.536507	0.437617
F367	F	1.432061	-0.286507	0.687617
F368	F	1.682061	-0.036507	0.937617
F369	F	0.136359	-0.258620	0.219722
F370	F	0.386359	-0.008620	0.469722
F371	F	0.636359	0.241380	0.719722
F372	F	0.886359	0.491380	0.969722
F373	F	0.895159	-0.494396	0.734969
F374	F	1.145159	-0.244396	0.984969
F375	F	1.395159	0.005604	1.234969
F376	F	1.645159	0.255604	1.484969
F377	F	0.822620	-0.454410	0.936733
F378	F	1.072620	-0.204410	1.186733
F379	F	1.322620	0.045590	1.436733
F380	F	1.572620	0.295590	1.686733
F381	F	0.824868	-0.785234	0.217074
F382	F	1.074868	-0.535234	0.467074
F383	F	1.324868	-0.285234	0.717074
F384	F	1.574868	-0.035234	0.967074
H385	H	0.346447	-0.367421	0.404617
H386	H	0.596447	-0.117421	0.654617
H387	H	0.846447	0.132579	0.904617
H388	H	1.096447	0.382579	1.154617
F389	F	0.675070	-0.258739	0.219532
F390	F	0.925070	-0.008739	0.469532
F391	F	1.175070	0.241261	0.719532
F392	F	1.425070	0.491261	0.969532
F393	F	0.271430	-0.258653	0.219673
F394	F	0.521430	-0.008653	0.469673
F395	F	0.771430	0.241347	0.719673
F396	F	1.021430	0.491347	0.969673
F397	F	1.020886	-0.785082	0.277784
F398	F	1.270886	-0.535082	0.527784
F399	F	1.520886	-0.285082	0.777784
F400	F	1.770886	-0.035082	1.027784
F401	F	0.988211	-0.258885	0.533209
F402	F	1.238211	-0.008885	0.783209
F403	F	1.488211	0.241115	1.033209
F404	F	1.738211	0.491115	1.283209
F405	F	0.271425	-0.454541	0.384811
F406	F	0.521425	-0.204541	0.634811
F407	F	0.771425	0.045459	0.884811
F408	F	1.021425	0.295459	1.134811
H409	H	0.346269	-0.345815	0.199807
H410	H	0.596269	-0.095815	0.449807
H411	H	0.846269	0.154185	0.699807
H412	H	1.096269	0.404185	0.949807
H413	H	0.464973	-0.345836	0.199764
H414	H	0.714973	-0.095836	0.449764
H415	H	0.964973	0.154164	0.699764
H416	H	1.214973	0.404164	0.949764
H417	H	0.868121	-0.792500	0.399551
H418	H	1.118121	-0.542500	0.649551
H419	H	1.368121	-0.292500	0.899551
H420	H	1.618121	-0.042500	1.149551
F421	F	0.539995	-0.258716	0.219579
F422	F	0.789995	-0.008716	0.469579
F423	F	1.039995	0.241284	0.719579
F424	F	1.289995	0.491284	0.969579
H425	H	0.984837	-0.792772	0.369204
H426	H	1.234837	-0.542772	0.619204
H427	H	1.484837	-0.292772	0.869204
H428	H	1.734837	-0.042772	1.119204
