data_functionalizedCrystal
_audit_creation_method	'MofGen! by Chris Wilmer'
_symmetry_space_group_name_H-M	'P1'
_symmetry_Int_Tables_number	1
_symmetry_cell_setting	triclinic
loop_
_symmetry_equiv_pos_as_xyz
  x,y,z
_cell_length_a	16.959455
_cell_length_b	29.839131
_cell_length_c	16.959447
_cell_angle_alpha	89.973821
_cell_angle_beta	89.976455
_cell_angle_gamma	90.038723
loop_
_atom_site_label
_atom_site_type_symbol
_atom_site_fract_x
_atom_site_fract_y
_atom_site_fract_z
Zn1	Zn	1.208290	-0.178896	-0.447039
Zn2	Zn	1.708290	0.321104	0.052961
Zn3	Zn	1.208155	-0.254025	-0.314862
Zn4	Zn	1.708155	0.245975	0.185138
Zn5	Zn	1.076111	-0.178905	-0.314863
Zn6	Zn	1.576111	0.321095	0.185137
Zn7	Zn	1.076033	-0.253996	-0.446987
Zn8	Zn	1.576033	0.246004	0.053013
O9	O	1.142147	-0.216455	-0.380938
O10	O	1.642147	0.283545	0.119062
O11	O	1.318883	-0.188870	-0.429528
O12	O	1.818883	0.311130	0.070472
O13	O	1.190615	-0.244076	-0.204251
O14	O	1.690615	0.255924	0.295749
O15	O	1.093734	-0.116037	-0.332419
O16	O	1.593734	0.383963	0.167581
O17	O	1.318784	-0.244067	-0.332417
O18	O	1.818784	0.255933	0.167583
O19	O	1.190845	-0.116030	-0.429528
O20	O	1.690845	0.383970	0.070472
O21	O	1.093603	-0.188886	-0.204252
O22	O	1.593603	0.311114	0.295748
O23	O	0.965490	-0.188858	-0.332368
O24	O	1.465490	0.311142	0.167632
O25	O	1.093601	-0.244018	-0.557605
O26	O	1.593601	0.255982	-0.057605
O27	O	0.965432	-0.244027	-0.429439
O28	O	1.465432	0.255973	0.070561
O29	O	1.190769	-0.188842	-0.557643
O30	O	1.690769	0.311158	-0.057643
O31	O	1.190540	-0.316888	-0.332366
O32	O	1.690540	0.183112	0.167634
O33	O	1.093470	-0.316867	-0.429438
O34	O	1.593470	0.183133	0.070562
C35	C	0.936781	-0.216441	-0.380898
C36	C	1.436781	0.283559	0.119102
C37	C	0.848924	-0.216445	-0.380900
C38	C	1.348924	0.283555	0.119100
C39	C	0.477387	-0.245168	-0.330347
C40	C	0.977387	0.254832	0.169653
C41	C	0.477511	-0.187780	-0.431625
C42	C	0.977511	0.312220	0.068375
C43	C	0.560057	-0.187773	-0.431606
C44	C	1.060057	0.312227	0.068394
C45	C	0.601271	-0.216464	-0.380957
C46	C	1.101271	0.283536	0.119043
C47	C	0.559940	-0.245162	-0.330328
C48	C	1.059940	0.254838	0.169672
C49	C	0.601394	-0.159078	-0.482240
C50	C	1.101394	0.340922	0.017760
C51	C	0.683945	-0.159070	-0.482223
C52	C	1.183945	0.340930	0.017777
C53	C	0.725161	-0.187759	-0.431570
C54	C	1.225161	0.312241	0.068430
C55	C	0.683825	-0.216458	-0.380938
C56	C	1.183825	0.283542	0.119062
C57	C	0.725039	-0.245149	-0.330289
C58	C	1.225039	0.254851	0.169711
C59	C	0.683705	-0.273847	-0.279653
C60	C	1.183705	0.226153	0.220347
C61	C	0.601156	-0.273851	-0.279674
C62	C	1.101156	0.226149	0.220326
C63	C	0.807710	-0.187754	-0.431548
C64	C	1.307710	0.312246	0.068452
C65	C	0.807593	-0.245144	-0.330270
C66	C	1.307593	0.254856	0.169730
C67	C	1.142003	-0.333178	-0.380914
C68	C	1.642003	0.166822	0.119086
C69	C	1.142014	-0.383112	-0.380930
C70	C	1.642014	0.116888	0.119070
C71	C	1.091636	-0.739704	-0.431480
C72	C	1.591636	-0.239704	0.068520
C73	C	1.091531	-0.552031	-0.431455
C74	C	1.591531	-0.052031	0.068545
O75	O	1.048525	-0.527771	-0.474419
O76	O	1.548525	-0.027771	0.025581
N77	N	1.142098	-0.528558	-0.380953
N78	N	1.642098	-0.028558	0.119047
C79	C	1.192698	-0.552005	-0.330458
C80	C	1.692698	-0.052005	0.169542
O81	O	1.235711	-0.527733	-0.287509
O82	O	1.735711	-0.027733	0.212491
C83	C	1.192806	-0.739677	-0.330487
C84	C	1.692806	-0.239677	0.169513
C85	C	1.142230	-0.763148	-0.380986
C86	C	1.642230	-0.263148	0.119014
C87	C	1.041065	-0.763175	-0.481975
C88	C	1.541065	-0.263175	0.018025
C89	C	1.041088	-0.810091	-0.481978
C90	C	1.541088	-0.310091	0.018022
C91	C	1.091683	-0.833535	-0.431485
C92	C	1.591683	-0.333535	0.068515
C93	C	1.142254	-0.810064	-0.380989
C94	C	1.642254	-0.310064	0.119011
C95	C	1.243409	-0.763124	-0.279997
C96	C	1.743409	-0.263124	0.220003
C97	C	1.243433	-0.810045	-0.280010
C98	C	1.743433	-0.310045	0.219990
C99	C	1.192857	-0.833516	-0.330509
C100	C	1.692857	-0.333516	0.169491
C101	C	1.192872	-0.880424	-0.330499
C102	C	1.692872	-0.380424	0.169501
N103	N	1.142305	-0.903897	-0.381000
N104	N	1.642305	-0.403897	0.119000
C105	C	1.091711	-0.880453	-0.431493
C106	C	1.591711	-0.380453	0.068507
C107	C	1.192637	-0.453475	-0.330445
C108	C	1.692637	0.046525	0.169555
C109	C	1.192609	-0.406557	-0.330437
C110	C	1.692609	0.093443	0.169563
C111	C	1.091443	-0.406586	-0.431435
C112	C	1.591443	0.093414	0.068565
C113	C	1.091467	-0.453505	-0.431439
C114	C	1.591467	0.046495	0.068561
C115	C	1.142070	-0.476948	-0.380947
C116	C	1.642070	0.023052	0.119053
C117	C	1.091763	-0.978979	-0.431495
C118	C	1.591763	-0.478979	0.068505
C119	C	1.091789	-1.025898	-0.431490
C120	C	1.591789	-0.525898	0.068510
C121	C	1.192958	-1.025865	-0.330496
C122	C	1.692958	-0.525865	0.169504
C123	C	1.192929	-0.978949	-0.330496
C124	C	1.692929	-0.478949	0.169504
C125	C	1.142330	-0.955508	-0.381002
C126	C	1.642330	-0.455508	0.118998
O127	O	1.235861	-0.904713	-0.287563
O128	O	1.735861	-0.404713	0.212437
O129	O	1.048716	-0.904733	-0.474449
O130	O	1.548716	-0.404733	0.025551
C131	C	1.091612	-0.692789	-0.431477
C132	C	1.591612	-0.192789	0.068523
C133	C	1.142183	-0.669318	-0.380981
C134	C	1.642183	-0.169318	0.119019
C135	C	1.192777	-0.692762	-0.330488
C136	C	1.692777	-0.192762	0.169512
C137	C	1.142155	-0.622400	-0.380973
C138	C	1.642155	-0.122400	0.119027
C139	C	1.091561	-0.598955	-0.431466
C140	C	1.591561	-0.098955	0.068534
C141	C	1.040994	-0.622429	-0.481967
C142	C	1.540994	-0.122429	0.018033
C143	C	1.041018	-0.669345	-0.481970
C144	C	1.541018	-0.169345	0.018030
C145	C	1.243344	-0.669288	-0.279987
C146	C	1.743344	-0.169288	0.220013
C147	C	1.243316	-0.622373	-0.279987
C148	C	1.743316	-0.122373	0.220013
C149	C	1.192721	-0.598928	-0.330481
C150	C	1.692721	-0.098928	0.169519
C151	C	1.348315	-0.216470	-0.380978
C152	C	1.848315	0.283530	0.119022
C153	C	1.436172	-0.216477	-0.380996
C154	C	1.936172	0.283523	0.119004
C155	C	1.142191	-0.216426	-0.587106
C156	C	1.642191	0.283574	-0.087106
C157	C	1.142210	-0.216413	-0.674963
C158	C	1.642210	0.283587	-0.174963
C159	C	1.142313	-0.099277	-0.380980
C160	C	1.642313	0.400723	0.119020
C161	C	1.142384	-0.049343	-0.380997
C162	C	1.642384	0.450657	0.119003
C163	C	1.091629	-0.245135	-0.716218
C164	C	1.591629	0.254865	-0.216218
C165	C	1.192805	-0.187676	-0.716261
C166	C	1.692805	0.312324	-0.216261
C167	C	1.192821	-0.187661	-0.798807
C168	C	1.692821	0.312339	-0.298807
C169	C	1.142240	-0.216383	-0.840062
C170	C	1.642240	0.283617	-0.340062
C171	C	1.091642	-0.245120	-0.798772
C172	C	1.591642	0.254880	-0.298772
C173	C	1.243412	-0.158922	-0.840104
C174	C	1.743412	0.341078	-0.340104
C175	C	1.243430	-0.158906	-0.922655
C176	C	1.743430	0.341094	-0.422655
C177	C	1.192852	-0.187630	-0.963912
C178	C	1.692852	0.312370	-0.463912
C179	C	1.142253	-0.216369	-0.922616
C180	C	1.642253	0.283631	-0.422616
C181	C	1.091672	-0.245090	-0.963871
C182	C	1.591672	0.254910	-0.463871
C183	C	1.041076	-0.273831	-0.922577
C184	C	1.541076	0.226169	-0.422577
C185	C	1.041064	-0.273844	-0.840029
C186	C	1.541064	0.226156	-0.340029
C187	C	1.192864	-0.187617	-1.046460
C188	C	1.692864	0.312383	-0.546460
C189	C	1.091685	-0.245076	-1.046425
C190	C	1.591685	0.254924	-0.546425
C191	C	1.142149	-0.216453	-0.175572
C192	C	1.642149	0.283547	0.324428
C193	C	1.142283	-0.216339	-0.087715
C194	C	1.642283	0.283661	0.412285
H195	H	0.841361	-0.164390	-0.472778
H196	H	1.341361	0.335610	0.027222
H197	H	1.284630	-0.135504	-0.956269
H198	H	1.784630	0.364496	-0.456269
H199	H	1.050437	-0.268536	-0.682593
H200	H	1.550437	0.231464	-0.182593
C201	C	1.292812	-0.130878	-0.724593
C202	C	1.792812	0.369122	-0.224593
C203	C	1.248399	-0.156104	-0.670916
C204	C	1.748399	0.343896	-0.170916
H205	H	1.327131	-0.111385	-0.696595
H206	H	1.827131	0.388615	-0.196595
H207	H	1.323027	-0.150448	-0.756787
H208	H	1.823027	0.349552	-0.256787
H209	H	1.258395	-0.113688	-0.756790
H210	H	1.758395	0.386312	-0.256790
H211	H	1.282817	-0.173297	-0.638722
H212	H	1.782817	0.326703	-0.138722
H213	H	1.218182	-0.136533	-0.638708
H214	H	1.718182	0.363467	-0.138708
H215	H	1.050603	-1.045007	-0.472615
H216	H	1.550603	-0.545007	0.027385
H217	H	0.443949	-0.164424	-0.472865
H218	H	0.943949	0.335576	0.027135
H219	H	1.234052	-0.164213	-1.080078
H220	H	1.734052	0.335787	-0.580078
C221	C	0.991471	-0.448810	-0.531270
C222	C	1.491471	0.051190	-0.031270
C223	C	1.035881	-0.479302	-0.486956
C224	C	1.535881	0.020698	0.013044
H225	H	0.957159	-0.464735	-0.565550
H226	H	1.457159	0.035265	-0.065550
H227	H	0.961249	-0.430542	-0.496793
H228	H	1.461249	0.069458	0.003207
H229	H	1.025891	-0.430478	-0.561530
H230	H	1.525891	0.069522	-0.061530
H231	H	1.001462	-0.497631	-0.456691
H232	H	1.501462	0.002369	0.043309
H233	H	1.066106	-0.497578	-0.521437
H234	H	1.566106	0.002422	-0.021437
C235	C	0.799178	-0.301872	-0.230162
C236	C	1.299178	0.198128	0.269838
C237	C	0.852893	-0.276684	-0.274597
C238	C	1.352893	0.223316	0.225403
H239	H	0.827146	-0.321346	-0.195797
H240	H	1.327146	0.178654	0.304203
H241	H	0.766986	-0.282277	-0.199995
H242	H	1.266986	0.217723	0.300005
H243	H	0.766980	-0.319082	-0.264563
H244	H	1.266980	0.180918	0.235437
H245	H	0.885087	-0.259472	-0.240197
H246	H	1.385087	0.240528	0.259803
H247	H	0.885098	-0.296281	-0.304767
H248	H	1.385098	0.203719	0.195233
C249	C	0.991673	-0.301874	-1.038090
C250	C	1.491673	0.198126	-0.538090
C251	C	1.036082	-0.276648	-1.091770
C252	C	1.536082	0.223352	-0.591770
H253	H	0.957344	-0.321363	-1.066086
H254	H	1.457344	0.178637	-0.566086
H255	H	1.026087	-0.319065	-1.005903
H256	H	1.526087	0.180935	-0.505903
H257	H	0.961461	-0.282301	-1.005886
H258	H	1.461461	0.217699	-0.505886
H259	H	1.066298	-0.296220	-1.123971
H260	H	1.566298	0.203780	-0.623971
H261	H	1.001664	-0.259455	-1.123971
H262	H	1.501664	0.240545	-0.623971
C263	C	0.609803	-0.102361	-0.582363
C264	C	1.109803	0.397639	-0.082363
C265	C	0.556092	-0.127547	-0.537918
C266	C	1.056092	0.372453	-0.037918
H267	H	0.581831	-0.082897	-0.616741
H268	H	1.081831	0.417103	-0.116741
H269	H	0.641992	-0.085146	-0.547976
H270	H	1.141992	0.414854	-0.047976
H271	H	0.642002	-0.121961	-0.612525
H272	H	1.142002	0.378039	-0.112525
H273	H	0.523897	-0.107946	-0.507751
H274	H	1.023897	0.392054	-0.007751
H275	H	0.523889	-0.144763	-0.572309
H276	H	1.023889	0.355237	-0.072309
H277	H	0.443728	-0.268531	-0.289118
H278	H	0.943728	0.231469	0.210882
H279	H	0.717272	-0.297209	-0.238419
H280	H	1.217272	0.202791	0.261581
C281	C	0.991764	-0.983733	-0.531324
C282	C	1.491764	-0.483733	-0.031324
C283	C	1.036142	-0.953216	-0.487009
C284	C	1.536142	-0.453216	0.012991
H285	H	0.957421	-0.967828	-0.565590
H286	H	1.457421	-0.467828	-0.065590
H287	H	1.026195	-1.002004	-0.561592
H288	H	1.526195	-0.502004	-0.061592
H289	H	0.961567	-1.002060	-0.496841
H290	H	1.461567	-0.502060	0.003159
H291	H	1.066343	-0.934891	-0.521491
H292	H	1.566343	-0.434891	-0.021491
H293	H	1.001706	-0.934938	-0.456739
H294	H	1.501706	-0.434938	0.043261
C295	C	1.292611	-0.411252	-0.230611
C296	C	1.792611	0.088748	0.269389
C297	C	1.248198	-0.380760	-0.274921
C298	C	1.748198	0.119240	0.225079
H299	H	1.326936	-0.395327	-0.196343
H300	H	1.826936	0.104673	0.303657
H301	H	1.258201	-0.429579	-0.200345
H302	H	1.758201	0.070421	0.299655
H303	H	1.322829	-0.429525	-0.265096
H304	H	1.822829	0.070475	0.234904
H305	H	1.217976	-0.362490	-0.240436
H306	H	1.717976	0.137510	0.259564
H307	H	1.282613	-0.362426	-0.305189
H308	H	1.782613	0.137574	0.194811
C309	C	0.996112	-0.299373	-0.713470
C310	C	1.496112	0.200627	-0.213470
C311	C	0.985446	-0.305429	-0.794637
C312	C	1.485446	0.194571	-0.294637
H313	H	0.961770	-0.318869	-0.685446
H314	H	1.461770	0.181131	-0.185446
H315	H	1.049202	-0.305954	-0.699955
H316	H	1.549202	0.194046	-0.199955
H317	H	0.984583	-0.269187	-0.699960
H318	H	1.484583	0.230813	-0.199960
H319	H	0.996980	-0.335614	-0.808148
H320	H	1.496980	0.164386	-0.308148
H321	H	0.932343	-0.298851	-0.808157
H322	H	1.432343	0.201149	-0.308157
H323	H	1.284590	-0.135537	-0.806507
H324	H	1.784590	0.364463	-0.306507
H325	H	0.717593	-0.135703	-0.523455
H326	H	1.217593	0.364297	-0.023455
C327	C	0.941098	-0.805393	-0.581813
C328	C	1.441098	-0.305393	-0.081813
C329	C	0.985502	-0.835886	-0.537497
C330	C	1.485502	-0.335886	-0.037497
H331	H	0.906785	-0.821316	-0.616095
H332	H	1.406785	-0.321316	-0.116095
H333	H	0.910876	-0.787123	-0.547338
H334	H	1.410876	-0.287123	-0.047338
H335	H	0.975522	-0.787062	-0.612072
H336	H	1.475522	-0.287062	-0.112072
H337	H	0.951078	-0.854214	-0.507234
H338	H	1.451078	-0.354214	-0.007234
H339	H	1.015726	-0.854163	-0.571977
H340	H	1.515726	-0.354163	-0.071977
H341	H	0.999865	-0.744091	-0.523096
H342	H	1.499865	-0.244091	-0.023096
C343	C	0.474561	-0.299345	-0.234745
C344	C	0.974561	0.200655	0.265255
C345	C	0.555720	-0.305397	-0.224025
C346	C	1.055720	0.194603	0.275975
H347	H	0.446510	-0.318822	-0.200393
H348	H	0.946510	0.181178	0.299607
H349	H	0.461058	-0.269156	-0.223270
H350	H	0.961058	0.230844	0.276730
H351	H	0.461073	-0.305959	-0.287840
H352	H	0.961073	0.194041	0.212160
H353	H	0.569208	-0.298779	-0.170930
H354	H	1.069208	0.201221	0.329070
H355	H	0.569228	-0.335592	-0.235494
H356	H	1.069228	0.164408	0.264506
C357	C	1.046500	-0.334673	-0.476269
C358	C	1.546500	0.165327	0.023731
C359	C	1.035834	-0.380810	-0.486945
C360	C	1.535834	0.119190	0.013055
H361	H	1.012177	-0.318760	-0.510544
H362	H	1.512177	0.181240	-0.010544
H363	H	1.034951	-0.327011	-0.423155
H364	H	1.534951	0.172989	0.076845
H365	H	1.099603	-0.326959	-0.487882
H366	H	1.599603	0.173041	0.012118
H367	H	0.982732	-0.388525	-0.475326
H368	H	1.482732	0.111475	0.024674
H369	H	1.047377	-0.388475	-0.540071
H370	H	1.547377	0.111525	-0.040071
H371	H	1.233845	-0.472558	-0.289325
H372	H	1.733845	0.027442	0.210675
H373	H	1.284643	-0.829130	-0.238895
H374	H	1.784643	-0.329130	0.261105
C375	C	1.343429	-0.767828	-0.180192
C376	C	1.843429	-0.267828	0.319808
C377	C	1.299014	-0.737333	-0.224494
C378	C	1.799014	-0.237333	0.275506
H379	H	1.377764	-0.751905	-0.145931
H380	H	1.877764	-0.251905	0.354069
H381	H	1.309019	-0.786152	-0.149919
H382	H	1.809019	-0.286152	0.350081
H383	H	1.373635	-0.786103	-0.214683
H384	H	1.873635	-0.286103	0.285317
H385	H	1.268803	-0.719059	-0.190003
H386	H	1.768803	-0.219059	0.309997
H387	H	1.333427	-0.719001	-0.254769
H388	H	1.833427	-0.219001	0.245231
C389	C	1.292922	-0.983636	-0.230657
C390	C	1.792922	-0.483636	0.269343
C391	C	1.248513	-0.953147	-0.274979
C392	C	1.748513	-0.453147	0.225021
H393	H	1.327243	-0.967708	-0.196390
H394	H	1.827243	-0.467708	0.303610
H395	H	1.258508	-1.001960	-0.200391
H396	H	1.758508	-0.501960	0.299609
H397	H	1.323143	-1.001911	-0.265135
H398	H	1.823143	-0.501911	0.234865
H399	H	1.218288	-0.934874	-0.240502
H400	H	1.718288	-0.434874	0.259498
H401	H	1.282932	-0.934815	-0.305248
H402	H	1.782932	-0.434815	0.194752
H403	H	1.234148	-1.044962	-0.289383
H404	H	1.734148	-0.544962	0.210617
C405	C	0.941025	-0.664646	-0.581803
C406	C	1.441025	-0.164646	-0.081803
C407	C	0.985429	-0.695140	-0.537487
C408	C	1.485429	-0.195140	-0.037487
H409	H	0.906710	-0.680570	-0.616082
H410	H	1.406710	-0.180570	-0.116082
H411	H	0.910805	-0.646376	-0.547327
H412	H	1.410805	-0.146376	-0.047327
H413	H	0.975448	-0.646317	-0.612063
H414	H	1.475448	-0.146317	-0.112063
H415	H	0.951006	-0.713467	-0.507222
H416	H	1.451006	-0.213467	-0.007222
H417	H	1.015651	-0.713418	-0.571967
H418	H	1.515651	-0.213418	-0.071967
H419	H	0.999795	-0.603333	-0.523078
H420	H	1.499795	-0.103333	-0.023078
H421	H	1.284499	-0.603266	-0.238858
H422	H	1.784499	-0.103266	0.261142
H423	H	1.284546	-0.688372	-0.238869
H424	H	1.784546	-0.188372	0.261131
H425	H	0.999888	-0.297214	-0.956178
H426	H	1.499888	0.202786	-0.456178
