data_functionalizedCrystal
_audit_creation_method	'MofGen! by Chris Wilmer'
_symmetry_space_group_name_H-M	'P1'
_symmetry_Int_Tables_number	1
_symmetry_cell_setting	triclinic
loop_
_symmetry_equiv_pos_as_xyz
  x,y,z
_cell_length_a	14.628931
_cell_length_b	14.560438
_cell_length_c	14.560438
_cell_angle_alpha	60.000518
_cell_angle_beta	90.000382
_cell_angle_gamma	59.999690
loop_
_atom_site_label
_atom_site_type_symbol
_atom_site_fract_x
_atom_site_fract_y
_atom_site_fract_z
Zr1	Zr	0.880619	1.005274	-0.120506
O2	O	0.734656	1.196878	-0.267151
O3	O	0.925364	0.813673	-0.075554
O4	O	0.925362	1.005277	-0.267155
O5	O	0.734661	1.005271	0.075590
O6	O	1.075794	1.005277	-0.267154
O7	O	0.734659	1.005274	-0.075550
O8	O	1.075798	0.662532	0.075584
O9	O	0.734656	1.348016	-0.267148
O10	O	1.056714	0.892480	-0.056379
O11	O	0.944450	0.892478	0.056416
O12	O	0.944447	1.118068	-0.169170
O13	O	0.832183	1.118066	-0.056375
Zr14	Zr	1.120545	1.005269	0.120547
Zr15	Zr	1.120541	1.005274	-0.120506
Zr16	Zr	0.880623	1.005270	0.120546
Zr17	Zr	0.880620	1.246322	-0.120501
Zr18	Zr	1.120544	0.764222	0.120542
O19	O	1.075799	1.196871	0.075595
O20	O	1.075794	1.196877	-0.267151
O21	O	0.734662	1.196872	0.075594
O22	O	1.266508	0.813666	0.267192
O23	O	1.266502	0.813672	-0.075553
O24	O	0.925370	0.813667	0.267192
O25	O	1.266503	1.005272	-0.075550
O26	O	1.075802	1.005267	0.267195
O27	O	0.925370	1.005267	0.267195
O28	O	1.266505	1.005270	0.075591
O29	O	0.925362	1.348016	-0.267148
O30	O	1.075801	0.662528	0.267189
O31	O	1.266507	0.662528	0.267189
O32	O	1.266504	0.662531	0.075585
O33	O	0.734659	1.348013	-0.075544
O34	O	0.925365	1.348012	-0.075544
O35	O	1.056717	0.892476	0.169210
O36	O	1.168981	0.892478	0.056416
O37	O	1.056714	1.118065	-0.056375
O38	O	0.944450	1.118064	0.056420
C39	C	1.000581	0.703758	0.000015
C40	C	1.000581	0.601427	0.000013
C41	C	0.700476	1.005273	0.000020
C42	C	0.598623	1.005273	0.000020
C43	C	1.059179	0.553352	-0.058865
C44	C	1.059184	0.457193	-0.058854
C45	C	0.941983	0.457196	0.058913
C46	C	0.941985	0.553347	0.058908
C47	C	0.608906	0.893366	0.055972
C48	C	0.503637	0.893364	0.055973
C49	C	1.300688	1.005271	0.000021
C50	C	1.402541	1.005271	0.000021
C51	C	1.000577	1.005277	-0.301499
C52	C	1.000576	1.005279	-0.403832
C53	C	1.000582	1.306786	0.000026
C54	C	1.000583	1.409117	0.000028
C55	C	0.941983	1.123024	-0.606938
C56	C	0.941973	1.123032	-0.510791
C57	C	1.059183	0.887511	-0.393023
C58	C	1.059186	0.887504	-0.489170
C59	C	1.000587	1.005266	0.301540
C60	C	1.000588	1.005265	0.403873
C61	C	1.300687	0.703757	0.000015
C62	C	1.402540	0.601426	0.000013
C63	C	1.000586	0.703753	0.301534
C64	C	1.000587	0.601420	0.403865
C65	C	1.300692	0.703752	0.301535
C66	C	1.402546	0.601418	0.403866
C67	C	0.700472	1.306792	-0.301494
C68	C	0.598618	1.409125	-0.403825
C69	C	0.700477	1.306787	0.000026
C70	C	0.598624	1.409118	0.000027
C71	C	1.000578	1.306791	-0.301494
C72	C	1.000576	1.409124	-0.403825
C73	C	1.391791	0.553349	-0.058863
C74	C	1.487497	0.457206	-0.058868
C75	C	1.604696	0.457221	0.058887
C76	C	1.508992	0.553369	0.058886
C77	C	1.059190	0.553340	0.510819
C78	C	1.059178	0.457197	0.606966
C79	C	0.941961	0.457217	0.489193
C80	C	0.941967	0.553365	0.393048
C81	C	1.508998	0.553341	0.393067
C82	C	1.604698	0.457196	0.489222
C83	C	1.487479	0.457212	0.606972
C84	C	1.391782	0.553361	0.510818
H85	H	1.106894	0.592495	-0.106819
F86	F	0.514921	0.768132	0.118580
F87	F	0.485254	1.130503	-0.062587
H88	H	0.393903	1.101083	-0.047889
H89	H	1.305098	0.592510	0.519620
F90	F	0.879585	0.604543	0.279210
H91	H	1.478735	0.418068	-0.106813
H92	H	1.106909	0.791605	-0.480358
H93	H	1.478729	0.418070	0.694062
H94	H	1.106896	0.418056	0.694049
H95	H	1.691374	0.418056	0.480421
F96	F	0.879615	1.248355	-0.720768
H97	H	0.894248	1.218923	-0.519603
H98	H	1.517768	0.592469	0.305985
F99	F	1.121550	0.406034	-0.121523
F100	F	1.121546	0.762189	-0.279187
F101	F	1.121577	0.604482	0.522335
F102	F	0.722275	0.768137	0.118605
H103	H	0.894275	0.418039	0.106862
H104	H	0.894236	0.418077	0.480399
H105	H	1.305117	0.592486	-0.106812
H106	H	1.691379	0.418079	0.106821
H107	H	1.517753	0.592517	0.106830
H108	H	0.894267	0.592489	0.106859
