data_functionalizedCrystal
_audit_creation_method	'MofGen! by Chris Wilmer'
_symmetry_space_group_name_H-M	'P1'
_symmetry_Int_Tables_number	1
_symmetry_cell_setting	triclinic
loop_
_symmetry_equiv_pos_as_xyz
  x,y,z
_cell_length_a	15.944551
_cell_length_b	15.944499
_cell_length_c	13.330367
_cell_angle_alpha	89.989856
_cell_angle_beta	89.999754
_cell_angle_gamma	96.511826
loop_
_atom_site_label
_atom_site_type_symbol
_atom_site_fract_x
_atom_site_fract_y
_atom_site_fract_z
O1	O	-0.108125	1.114555	-0.083473
O2	O	-0.121526	0.869999	-0.083460
O3	O	0.007451	0.998955	-0.083473
O4	O	-0.237102	0.985599	-0.083460
O5	O	0.007453	0.998937	0.083375
O6	O	-0.121523	0.869981	0.083387
O7	O	-0.108122	1.114536	0.083375
Cu8	Cu	-0.114822	0.992257	0.098615
Cu9	Cu	-0.114826	0.992279	-0.098701
O10	O	-0.237099	0.985580	0.083387
C11	C	-0.120976	0.838695	-0.000035
C12	C	-0.119331	0.745447	-0.000031
C13	C	-0.194263	0.453911	-0.000042
C14	C	-0.155313	0.514949	-0.082310
C15	C	-0.113355	0.409810	-0.000054
C16	C	-0.155289	0.514917	0.082188
C17	C	-0.116296	0.574719	-0.000041
C18	C	-0.074382	0.469621	-0.082390
C19	C	-0.074369	0.469582	0.082182
C20	C	-0.035360	0.530603	-0.000107
C21	C	-0.111663	0.314810	-0.000063
C22	C	-0.117981	0.669718	-0.000040
C23	C	-0.268394	0.986144	-0.000035
C24	C	-0.361640	0.987806	-0.000031
C25	C	-0.576481	1.071713	-0.000051
C26	C	-0.637503	1.032740	0.082217
C27	C	-0.532365	0.990814	-0.000040
C28	C	-0.637491	1.032740	-0.082281
C29	C	-0.697277	0.993725	-0.000053
C30	C	-0.592159	0.951819	0.082295
C31	C	-0.592141	0.951830	-0.082277
C32	C	-0.653145	0.912798	0.000010
C33	C	-0.437363	0.989139	-0.000032
C34	C	-0.792278	0.995393	-0.000054
C35	C	0.038746	0.998392	-0.000053
C36	C	0.131992	0.996729	-0.000063
C37	C	-0.108672	1.145840	-0.000053
C38	C	-0.110317	1.239089	-0.000063
N39	N	-0.114819	0.992247	0.237397
N40	N	-0.114822	0.992295	-0.237482
C41	C	-0.171914	0.935175	0.710025
C42	C	-0.057731	1.049406	0.709982
C43	C	-0.057728	1.049396	0.604964
C44	C	-0.114820	0.992276	0.552471
C45	C	-0.171915	0.935165	0.604997
C46	C	-0.000640	1.106512	0.552430
C47	C	-0.000636	1.106505	0.447405
C48	C	-0.057725	1.049380	0.394911
C49	C	-0.114821	0.992266	0.447443
C50	C	-0.171913	0.935146	0.394951
C51	C	-0.229007	0.878028	0.447481
C52	C	-0.229004	0.878040	0.552503
C53	C	-0.057727	1.049368	0.289889
C54	C	-0.171914	0.935137	0.289923
H55	H	-0.040194	0.449650	-0.152020
H56	H	-0.040175	0.449457	0.151732
H57	H	0.031846	0.563780	-0.000154
C58	C	-0.565139	0.906242	-0.174923
C59	C	-0.477538	0.904620	-0.173173
C60	C	-0.452634	0.862630	-0.258504
H61	H	-0.580398	0.935010	-0.233395
H62	H	-0.592403	0.850081	-0.175512
H63	H	-0.450284	0.960772	-0.172594
H64	H	-0.462258	0.875847	-0.114721
H65	H	-0.479897	0.806468	-0.259093
H66	H	-0.467897	0.891401	-0.316969
H67	H	-0.393196	0.861517	-0.257323
C68	C	-0.664138	1.078521	-0.174984
C69	C	-0.624931	1.161666	-0.174599
C70	C	-0.649446	1.203868	-0.259981
H71	H	-0.723669	1.078892	-0.174726
H72	H	-0.647816	1.050381	-0.233428
H73	H	-0.641259	1.189799	-0.116171
H74	H	-0.565401	1.161320	-0.174872
H75	H	-0.633124	1.175728	-0.318425
H76	H	-0.708977	1.204232	-0.259716
H77	H	-0.622842	1.260283	-0.259736
H78	H	-0.189522	0.534984	0.151737
H79	H	-0.218403	0.888619	0.247189
H80	H	-0.657602	1.066949	0.151764
C81	C	-0.290899	0.816051	0.390302
C82	C	-0.278664	0.828264	0.287087
C83	C	-0.335655	0.771183	0.234378
H84	H	-0.347002	0.825115	0.407389
H85	H	-0.281742	0.759976	0.407464
H86	H	-0.287827	0.884327	0.269931
H87	H	-0.222573	0.819193	0.269969
H88	H	-0.326498	0.715107	0.251541
H89	H	-0.391753	0.780252	0.251474
H90	H	-0.327356	0.779456	0.164342
C91	C	-0.290955	0.816131	0.609717
C92	C	-0.278751	0.828386	0.712925
C93	C	-0.335814	0.771382	0.765666
H94	H	-0.281866	0.760032	0.592653
H95	H	-0.347036	0.825261	0.592558
H96	H	-0.222683	0.819249	0.730078
H97	H	-0.287847	0.884473	0.730019
H98	H	-0.391895	0.780512	0.748507
H99	H	-0.326721	0.715287	0.748594
H100	H	-0.327547	0.779694	0.835698
C101	C	-0.200783	0.541829	-0.175127
C102	C	-0.145442	0.597348	-0.232037
C103	C	-0.187301	0.622114	-0.317549
H104	H	-0.247996	0.569320	-0.155480
H105	H	-0.219494	0.493472	-0.214190
H106	H	-0.126743	0.645697	-0.192982
H107	H	-0.098228	0.569875	-0.251710
H108	H	-0.206011	0.573757	-0.356611
H109	H	-0.234512	0.649601	-0.297892
H110	H	-0.149756	0.659780	-0.356177
C111	C	-0.532089	1.161264	0.000256
C112	C	-0.554933	1.203223	0.086591
C113	C	-0.514046	1.285712	0.086919
H114	H	-0.548225	1.190401	-0.057526
H115	H	-0.472715	1.159618	-0.000288
H116	H	-0.614294	1.204874	0.087125
H117	H	-0.538795	1.174112	0.144387
H118	H	-0.454672	1.284066	0.086376
H119	H	-0.530186	1.314841	0.029134
H120	H	-0.529534	1.314189	0.145501
H121	H	-0.218397	0.888667	0.752798
C122	C	-0.283744	0.409346	-0.000294
C123	C	-0.295712	0.358281	-0.085692
C124	C	-0.378123	0.317205	-0.085956
H125	H	-0.322822	0.450096	-0.000985
H126	H	-0.292445	0.375357	0.058145
H127	H	-0.287019	0.392268	-0.144116
H128	H	-0.256654	0.317516	-0.085019
H129	H	-0.386825	0.283216	-0.027517
H130	H	-0.417194	0.357961	-0.086644
H131	H	-0.386252	0.282547	-0.143892
C132	C	-0.565345	0.906282	0.175099
C133	C	-0.477654	0.905307	0.174055
C134	C	-0.452920	0.863378	0.259534
H135	H	-0.592202	0.849972	0.175422
H136	H	-0.581184	0.934824	0.233474
H137	H	-0.461823	0.876764	0.115695
H138	H	-0.450776	0.961605	0.173747
H139	H	-0.468759	0.891919	0.317909
H140	H	-0.479783	0.807070	0.259849
H141	H	-0.393419	0.862717	0.258841
H142	H	-0.011252	1.095916	0.752725
H143	H	0.045853	1.153013	0.404642
H144	H	-0.011247	1.095876	0.247124
H145	H	0.045839	1.153022	0.595173
H146	H	-0.686316	0.845589	0.000060
