data_functionalizedCrystal
_audit_creation_method	'MofGen! by Chris Wilmer'
_symmetry_space_group_name_H-M	'P1'
_symmetry_Int_Tables_number	1
_symmetry_cell_setting	triclinic
loop_
_symmetry_equiv_pos_as_xyz
  x,y,z
_cell_length_a	15.944551
_cell_length_b	15.944551
_cell_length_c	13.330367
_cell_angle_alpha	90.005596
_cell_angle_beta	90.003063
_cell_angle_gamma	83.498738
loop_
_atom_site_label
_atom_site_type_symbol
_atom_site_fract_x
_atom_site_fract_y
_atom_site_fract_z
O1	O	1.114528	0.108331	0.083321
O2	O	1.614528	0.608331	0.583321
O3	O	0.869978	0.121688	0.083346
O4	O	1.369978	0.621688	0.583346
O5	O	0.998931	-0.007265	0.083324
O6	O	1.498931	0.492735	0.583324
O7	O	0.985575	0.237284	0.083343
O8	O	1.485575	0.737284	0.583343
O9	O	0.998913	-0.007268	-0.083523
O10	O	1.498913	0.492732	0.416477
O11	O	0.869960	0.121685	-0.083501
O12	O	1.369960	0.621685	0.416499
O13	O	1.114509	0.108329	-0.083526
O14	O	1.614509	0.608329	0.416474
Cu15	Cu	0.992233	0.115006	-0.098748
Cu16	Cu	1.492233	0.615006	0.401252
Cu17	Cu	0.992255	0.115010	0.098568
Cu18	Cu	1.492255	0.615010	0.598568
O19	O	0.985556	0.237282	-0.083504
O20	O	1.485556	0.737282	0.416496
C21	C	0.838675	0.121132	-0.000074
C22	C	1.338675	0.621132	0.499926
C23	C	0.745429	0.119470	-0.000065
C24	C	1.245429	0.619470	0.499935
C25	C	0.530572	0.035565	-0.000091
C26	C	1.030572	0.535565	0.499909
C27	C	0.469561	0.074529	0.082177
C28	C	0.969561	0.574529	0.582177
C29	C	0.574703	0.116462	-0.000077
C30	C	1.074703	0.616462	0.499923
C31	C	0.469565	0.074545	-0.082322
C32	C	0.969565	0.574545	0.417678
C33	C	0.409790	0.113551	-0.000093
C34	C	0.909790	0.613551	0.499907
C35	C	0.514920	0.155448	0.082259
C36	C	1.014920	0.655448	0.582259
C37	C	0.514931	0.155453	-0.082314
C38	C	1.014931	0.655453	0.417686
C39	C	0.453937	0.194476	-0.000026
C40	C	0.953937	0.694476	0.499974
C41	C	0.669705	0.118137	-0.000067
C42	C	1.169705	0.618137	0.499933
C43	C	0.314789	0.111883	-0.000096
C44	C	0.814789	0.611883	0.499904
C45	C	0.998367	-0.038561	-0.000100
C46	C	1.498367	0.461439	0.499900
C47	C	0.996705	-0.131807	-0.000100
C48	C	1.496705	0.368193	0.499900
C49	C	0.912801	-0.346663	-0.000078
C50	C	1.412801	0.153337	0.499922
C51	C	0.951754	-0.407682	-0.082347
C52	C	1.451754	0.092318	0.417653
C53	C	0.993698	-0.302533	-0.000092
C54	C	1.493698	0.197467	0.499908
C55	C	0.951791	-0.407663	0.082151
C56	C	1.451791	0.092337	0.582151
C57	C	0.990787	-0.467445	-0.000080
C58	C	1.490787	0.032555	0.499920
C59	C	1.032673	-0.362323	-0.082430
C60	C	1.532673	0.137677	0.417570
C61	C	1.032699	-0.362297	0.082142
C62	C	1.532699	0.137703	0.582142
C63	C	1.071711	-0.423298	-0.000148
C64	C	1.571711	0.076702	0.499852
C65	C	0.995372	-0.207530	-0.000100
C66	C	1.495372	0.292470	0.499900
C67	C	0.989119	-0.562446	-0.000079
C68	C	1.489119	-0.062446	0.499921
C69	C	1.145813	0.108885	-0.000103
C70	C	1.645813	0.608885	0.499897
C71	C	1.239059	0.110547	-0.000106
C72	C	1.739059	0.610547	0.499894
C73	C	0.986120	0.268577	-0.000078
C74	C	1.486120	0.768577	0.499922
C75	C	0.987782	0.361823	-0.000071
C76	C	1.487782	0.861823	0.499929
N77	N	0.992223	0.115004	-0.237529
N78	N	1.492223	0.615004	0.262471
C79	C	0.935152	0.172088	-0.710142
C80	C	1.435152	0.672088	-0.210142
C81	C	1.049380	0.057925	-0.710130
C82	C	1.549380	0.557925	-0.210130
C83	C	1.049371	0.057923	-0.605112
C84	C	1.549371	0.557923	-0.105112
C85	C	0.992252	0.115004	-0.552604
C86	C	1.492252	0.615004	-0.052604
C87	C	0.935142	0.172089	-0.605114
C88	C	1.435142	0.672089	-0.105114
C89	C	1.106485	0.000845	-0.552594
C90	C	1.606485	0.500845	-0.052594
C91	C	1.106478	0.000841	-0.447569
C92	C	1.606478	0.500841	0.052431
C93	C	1.049355	0.057919	-0.395059
C94	C	1.549355	0.557919	0.104941
C95	C	0.992242	0.115005	-0.447576
C96	C	1.492242	0.615005	0.052424
C97	C	0.935123	0.172087	-0.395068
C98	C	1.435123	0.672087	0.104932
C99	C	0.878006	0.229170	-0.447583
C100	C	1.378006	0.729170	0.052417
C101	C	0.878019	0.229167	-0.552605
C102	C	1.378019	0.729167	-0.052605
C103	C	1.049342	0.057922	-0.290037
C104	C	1.549342	0.557922	0.209963
C105	C	0.935114	0.172088	-0.290040
C106	C	1.435114	0.672088	0.209960
N107	N	0.992271	0.115006	0.237350
N108	N	1.492271	0.615006	0.737350
H109	H	0.535054	0.189640	-0.151863
H110	H	1.035054	0.689640	0.348137
H111	H	0.449471	0.040313	-0.151870
H112	H	0.949471	0.540313	0.348130
H113	H	1.066853	-0.342334	-0.152059
H114	H	1.566853	0.157666	0.347941
N115	N	0.823857	-0.302542	-0.000164
N116	N	1.323857	0.197458	0.499836
H117	H	0.793401	-0.318922	-0.062362
H118	H	1.293401	0.181078	0.437638
H119	H	0.825673	-0.239434	0.000511
H120	H	1.325673	0.260566	0.500511
N121	N	1.077995	-0.335630	0.174268
N122	N	1.577995	0.164370	0.674268
H123	H	1.038535	-0.294706	0.214767
H124	H	1.538535	0.205294	0.714767
H125	H	1.128831	-0.307454	0.153229
H126	H	1.628831	0.192546	0.653229
N127	N	0.906466	-0.434278	0.174275
N128	N	1.406466	0.065722	0.674275
H129	H	0.846449	-0.406113	0.174203
H130	H	1.346449	0.093887	0.674203
H131	H	0.936484	-0.416964	0.236357
H132	H	1.436484	0.083036	0.736357
N133	N	0.541408	0.200727	0.174494
N134	N	1.041408	0.700727	0.674494
H135	H	0.524524	0.170401	0.236547
H136	H	1.024524	0.670401	0.736547
H137	H	0.512786	0.260567	0.174697
H138	H	1.012786	0.760567	0.674697
N139	N	0.873554	0.233652	-0.766783
N140	N	1.373554	0.733652	-0.266783
H141	H	0.883225	0.293275	-0.748499
H142	H	1.383225	0.793275	-0.248499
H143	H	0.813969	0.223865	-0.748493
H144	H	1.313969	0.723865	-0.248493
N145	N	0.873498	0.233653	-0.233417
N146	N	1.373498	0.733653	0.266583
H147	H	0.883169	0.293276	-0.251688
H148	H	1.383169	0.793276	0.248312
H149	H	0.882185	0.224924	-0.158934
H150	H	1.382185	0.724924	0.341066
H151	H	1.152994	-0.045625	-0.595349
H152	H	1.652994	0.454375	-0.095349
N153	N	0.906432	-0.434314	-0.174478
N154	N	1.406432	0.065686	0.325522
H155	H	0.846415	-0.406151	-0.174415
H156	H	1.346415	0.093849	0.325585
H157	H	0.906188	-0.497627	-0.174083
H158	H	1.406188	0.002373	0.325917
N159	N	1.110984	-0.003631	-0.766768
N160	N	1.610984	0.496369	-0.266768
H161	H	1.078889	-0.040838	-0.810356
H162	H	1.578889	0.459162	-0.310356
H163	H	1.147149	-0.039738	-0.717508
H164	H	1.647149	0.460262	-0.217508
H165	H	0.420779	0.261683	0.000025
H166	H	0.920779	0.761683	0.500025
N167	N	1.160732	-0.467226	-0.000208
N168	N	1.660732	0.032774	0.499792
H169	H	1.191162	-0.450754	-0.062374
H170	H	1.691162	0.049246	0.437626
H171	H	1.159060	-0.530354	0.000420
H172	H	1.659060	-0.030354	0.500420
N173	N	0.816405	0.290739	-0.390946
N174	N	1.316405	0.790739	0.109054
H175	H	0.825073	0.282077	-0.316448
H176	H	1.325073	0.782077	0.183552
H177	H	0.756820	0.280996	-0.409306
H178	H	1.256820	0.780996	0.090694
N179	N	0.574705	-0.053373	-0.000004
N180	N	1.074705	0.446627	0.499996
H181	H	0.557521	-0.084258	-0.061503
H182	H	1.057521	0.415742	0.438497
H183	H	0.558320	-0.083757	0.062233
H184	H	1.058320	0.416243	0.562233
H185	H	1.095850	0.011450	-0.247284
H186	H	1.595850	0.511450	0.252716
H187	H	1.152985	-0.045639	-0.404818
H188	H	1.652985	0.454361	0.095182
N189	N	0.442929	0.029216	0.174300
N190	N	0.942929	0.529216	0.674300
H191	H	0.471089	-0.030803	0.174237
H192	H	0.971089	0.469197	0.674237
H193	H	0.379615	0.028975	0.173892
H194	H	0.879615	0.528975	0.673892
N195	N	0.816418	0.290730	-0.609243
N196	N	1.316418	0.790730	-0.109243
H197	H	0.825096	0.282068	-0.683741
H198	H	1.325096	0.782068	-0.183741
H199	H	0.826118	0.350325	-0.590876
H200	H	1.326118	0.850325	-0.090876
