data_functionalizedCrystal
_audit_creation_method	'MofGen! by Chris Wilmer'
_symmetry_space_group_name_H-M	'P1'
_symmetry_Int_Tables_number	1
_symmetry_cell_setting	triclinic
loop_
_symmetry_equiv_pos_as_xyz
  x,y,z
_cell_length_a	10.654550
_cell_length_b	11.792254
_cell_length_c	9.130313
_cell_angle_alpha	89.998555
_cell_angle_beta	89.996220
_cell_angle_gamma	84.341750
loop_
_atom_site_label
_atom_site_type_symbol
_atom_site_fract_x
_atom_site_fract_y
_atom_site_fract_z
O1	O	1.667391	0.159414	-0.121921
O2	O	1.301870	0.174602	-0.121897
O3	O	1.493493	0.001859	-0.121899
O4	O	1.475769	0.332157	-0.121919
O5	O	1.493490	0.001864	0.121700
O6	O	1.301868	0.174607	0.121702
O7	O	1.667389	0.159418	0.121678
Cu8	Cu	1.484628	0.167013	0.143932
Cu9	Cu	1.484631	0.167008	-0.144151
O10	O	1.475767	0.332162	0.121680
C11	C	1.255074	0.173489	-0.000095
C12	C	1.115640	0.170153	-0.000086
C13	C	1.492375	-0.040432	-0.000100
C14	C	1.489033	-0.166453	-0.000101
C15	C	1.035872	0.271861	-0.000113
C16	C	0.904860	0.268719	-0.000138
C17	C	0.933397	0.062152	-0.000114
C18	C	1.064407	0.065295	-0.000079
C19	C	1.087106	0.376719	-0.000120
C20	C	1.007336	0.478436	-0.000149
C21	C	0.876324	0.475294	-0.000174
C22	C	0.825082	0.370436	-0.000170
C23	C	1.486318	-0.268796	-0.000106
C24	C	1.482923	-0.397190	-0.000119
C25	C	1.714185	0.160531	-0.000127
C26	C	1.853619	0.163868	-0.000146
C27	C	1.476884	0.374453	-0.000122
C28	C	1.480226	0.500473	-0.000131
N29	N	1.484635	0.167016	0.346555
N30	N	1.484634	0.166995	-0.346774
C31	C	1.569508	0.090552	0.423206
C32	C	1.569504	0.090538	0.576543
C33	C	1.399752	0.243464	0.576564
C34	C	1.399751	0.243471	0.423230
C35	C	1.654392	0.014097	0.346531
C36	C	1.739272	-0.062373	0.423183
C37	C	1.739269	-0.062386	0.576519
C38	C	1.654385	0.014070	0.653205
H39	H	1.049067	0.563808	-0.000139
O40	O	1.317135	0.317618	0.650989
C41	C	1.099225	0.382331	0.697872
C42	C	1.192647	0.298266	0.613524
H43	H	0.998557	0.366730	0.667590
H44	H	1.113699	0.369190	0.820648
H45	H	1.116268	0.473372	0.667746
H46	H	1.175661	0.207191	0.643527
H47	H	1.178151	0.311506	0.490769
O48	O	1.821764	-0.136512	0.651142
C49	C	1.993161	-0.159237	0.824179
C50	C	1.899780	-0.075166	0.739791
H51	H	2.056278	-0.109672	0.895848
H52	H	1.938629	-0.216390	0.896062
H53	H	2.053768	-0.213899	0.743005
H54	H	1.839150	-0.020429	0.820859
H55	H	1.954389	-0.018092	0.667886
H56	H	1.330639	0.305734	0.360820
H57	H	1.654381	0.014045	0.778062
O58	O	0.799015	0.574202	-0.000260
C59	C	0.784544	0.779420	-0.000200
C60	C	0.872238	0.667490	-0.000127
H61	H	0.843709	0.854873	-0.000061
H62	H	0.722542	0.783186	-0.102183
H63	H	0.722447	0.783058	0.101708
H64	H	0.934414	0.663777	-0.101966
H65	H	0.934154	0.663770	0.101924
O66	O	1.821526	-0.136728	0.348564
C67	C	1.847135	-0.291616	0.175589
C68	C	1.753859	-0.207428	0.259952
H69	H	1.792464	-0.348814	0.103949
H70	H	1.910223	-0.242195	0.103678
H71	H	1.907785	-0.346218	0.256778
H72	H	1.693126	-0.152805	0.178869
H73	H	1.690858	-0.256917	0.331885
H74	H	0.718401	0.367886	-0.000167
O75	O	1.142032	-0.033425	-0.000254
C76	C	1.306500	-0.149782	-0.126446
C77	C	1.218680	-0.037927	-0.126421
H78	H	1.368473	-0.153470	-0.228457
H79	H	1.368608	-0.153480	-0.024552
H80	H	1.247358	-0.225251	-0.126389
H81	H	1.277723	0.037604	-0.126530
H82	H	1.156567	-0.034329	-0.228307
H83	H	1.193781	0.379289	-0.000106
H84	H	0.891665	-0.023220	-0.000135
H85	H	1.654405	0.014104	0.221677
