data_functionalizedCrystal
_audit_creation_method	'MofGen! by Chris Wilmer'
_symmetry_space_group_name_H-M	'P1'
_symmetry_Int_Tables_number	1
_symmetry_cell_setting	triclinic
loop_
_symmetry_equiv_pos_as_xyz
  x,y,z
_cell_length_a	11.792241
_cell_length_b	9.730223
_cell_length_c	10.654550
_cell_angle_alpha	89.999807
_cell_angle_beta	84.339159
_cell_angle_gamma	90.003985
loop_
_atom_site_label
_atom_site_type_symbol
_atom_site_fract_x
_atom_site_fract_y
_atom_site_fract_z
O1	O	1.507300	-0.114153	0.172130
O2	O	1.177000	-0.114184	0.189870
O3	O	1.349744	-0.114163	-0.001761
O4	O	1.334556	-0.114174	0.363761
O5	O	1.349742	0.114417	-0.001756
O6	O	1.176998	0.114396	0.189875
O7	O	1.507298	0.114427	0.172135
Zn8	Zn	1.342148	0.150703	0.181006
Zn9	Zn	1.342150	-0.150460	0.180999
O10	O	1.334554	0.114406	0.363766
C11	C	1.134705	0.000102	0.188758
C12	C	1.008684	0.000090	0.185423
N13	N	1.342154	0.356240	0.181009
N14	N	1.342153	-0.355997	0.180986
C15	C	0.777958	0.000129	0.179290
C16	C	0.906351	0.000107	0.182697
C17	C	1.549592	0.000138	0.173247
C18	C	1.675614	0.000141	0.176582
C19	C	1.348628	0.000126	-0.048553
C20	C	1.345291	0.000120	-0.187987
C21	C	1.418665	0.428175	0.096184
C22	C	1.418662	0.572058	0.096169
C23	C	1.265633	0.572057	0.265815
C24	C	1.265632	0.428177	0.265823
C25	C	1.495187	0.356238	0.011370
C26	C	1.571705	0.428174	-0.073461
C27	C	1.571702	0.572057	-0.073477
C28	C	1.495181	0.644004	0.011339
C29	C	1.447000	0.000134	-0.267760
C30	C	1.443858	0.000124	-0.398772
C31	C	1.237290	0.000092	-0.370224
C32	C	1.240433	0.000093	-0.239215
C33	C	1.551859	0.000162	-0.216532
C34	C	1.653577	0.000178	-0.296307
C35	C	1.650435	0.000168	-0.427319
C36	C	1.545575	0.000142	-0.478556
C37	C	1.335670	0.000114	0.410558
C38	C	1.339006	0.000111	0.549992
H39	H	1.495199	0.239082	0.011377
H40	H	1.738949	0.000164	-0.254580
O41	O	1.760135	0.000190	-0.513367
H42	H	1.833572	0.000223	-0.455730
O43	O	1.542179	0.000134	-0.619862
H44	H	1.630521	0.000154	-0.666730
O45	O	1.124195	0.000092	-0.425479
H46	H	1.139098	0.000113	-0.529980
O47	O	1.654214	0.350565	-0.164948
H48	H	1.742822	0.378186	-0.148308
O49	O	1.130733	0.000082	-0.153165
H50	H	1.127230	0.093243	-0.092789
H51	H	1.633998	0.630626	-0.142557
O52	O	1.495174	0.799194	0.011330
H53	H	1.561236	0.837133	-0.061901
H54	H	1.554429	0.000174	-0.109857
H55	H	1.203334	0.630646	0.334870
H56	H	1.203328	0.369607	0.334895
