data_functionalizedCrystal
_audit_creation_method	'MofGen! by Chris Wilmer'
_symmetry_space_group_name_H-M	'P1'
_symmetry_Int_Tables_number	1
_symmetry_cell_setting	triclinic
loop_
_symmetry_equiv_pos_as_xyz
  x,y,z
_cell_length_a	16.120530
_cell_length_b	10.686285
_cell_length_c	10.685314
_cell_angle_alpha	89.696502
_cell_angle_beta	91.675659
_cell_angle_gamma	97.480717
loop_
_atom_site_label
_atom_site_type_symbol
_atom_site_fract_x
_atom_site_fract_y
_atom_site_fract_z
Zn1	Zn	1.269519	0.658092	-0.760424
Zn2	Zn	1.290724	0.853577	-0.536090
Zn3	Zn	1.139829	0.631421	-0.541541
Zn4	Zn	1.141472	0.857274	-0.735302
O5	O	1.210386	0.750091	-0.643339
O6	O	1.389070	0.693638	-0.738897
O7	O	1.278895	0.811398	-0.361839
O8	O	1.147471	0.458628	-0.583372
O9	O	1.404649	0.837260	-0.574080
O10	O	1.242753	0.478223	-0.744183
O11	O	1.168033	0.648182	-0.365844
O12	O	1.023309	0.651767	-0.559012
O13	O	1.150271	0.843561	-0.913608
O14	O	1.024516	0.817700	-0.701367
O15	O	1.244346	0.697223	-0.932065
O16	O	1.280488	1.030399	-0.549721
O17	O	1.170833	1.033115	-0.696081
C18	C	0.993644	0.732241	-0.628056
C19	C	0.900921	0.724637	-0.621545
C20	C	1.228161	1.077481	-0.619612
C21	C	1.235840	1.217549	-0.609509
C22	C	1.195126	0.773780	-0.969474
C23	C	1.188623	0.783874	-1.108453
C24	C	0.731153	0.710726	-0.609670
C25	C	0.690461	0.789556	-0.677093
C26	C	0.595996	0.781815	-0.670486
C27	C	0.825626	0.718465	-0.616276
C28	C	1.427975	0.768012	-0.658683
C29	C	1.520698	0.775649	-0.665222
C30	C	1.192563	0.421426	-0.667188
C31	C	1.184968	0.281369	-0.677351
C32	C	1.225630	0.726408	-0.318483
C33	C	1.232275	0.715971	-0.179542
H34	H	0.726568	0.862856	-0.739778
H35	H	1.285265	1.270072	-0.543682
H36	H	1.146272	0.849734	-1.153919
H37	H	1.274613	0.650101	-1.134082
H38	H	0.695047	0.637431	-0.546991
C39	C	1.118200	1.210432	-0.766271
H40	H	1.121632	1.122440	-0.761638
H41	H	1.064187	1.226071	-0.742417
H42	H	1.127603	1.239003	-0.849628
