data_functionalizedCrystal
_audit_creation_method	'MofGen! by Chris Wilmer'
_symmetry_space_group_name_H-M	'P1'
_symmetry_Int_Tables_number	1
_symmetry_cell_setting	triclinic
loop_
_symmetry_equiv_pos_as_xyz
  x,y,z
_cell_length_a	11.026607
_cell_length_b	14.519709
_cell_length_c	9.482900
_cell_angle_alpha	99.350820
_cell_angle_beta	78.636152
_cell_angle_gamma	96.133081
loop_
_atom_site_label
_atom_site_type_symbol
_atom_site_fract_x
_atom_site_fract_y
_atom_site_fract_z
O1	O	1.629894	0.375017	-0.120915
O2	O	1.276492	0.331026	-0.120914
O3	O	1.462561	0.220328	-0.120901
O4	O	1.443825	0.485715	-0.120927
O5	O	1.424766	0.242929	0.120889
O6	O	1.238698	0.353627	0.120876
O7	O	1.592099	0.397617	0.120875
Cu8	Cu	1.411948	0.377686	0.142953
Cu9	Cu	1.456644	0.350958	-0.142992
O10	O	1.406031	0.508316	0.120862
C11	C	1.212367	0.334211	-0.000019
C12	C	1.077600	0.310019	-0.000019
C13	C	1.003940	0.376817	-0.000026
C14	C	0.864652	0.351815	-0.000026
C15	C	1.442790	0.197125	-0.000006
C16	C	1.440173	0.094312	-0.000005
C17	C	1.430544	-0.282175	-0.000043
C18	C	1.433218	-0.177425	-0.000032
C19	C	1.435358	-0.093934	-0.000023
C20	C	1.438033	0.010822	-0.000015
C21	C	1.656226	0.394432	-0.000023
C22	C	1.790994	0.418624	-0.000033
C23	C	1.425802	0.531518	-0.000036
C24	C	1.428421	0.634330	-0.000046
N25	N	1.380519	0.396486	0.344071
N26	N	1.488082	0.332152	-0.344110
C27	C	1.447366	0.356497	0.416275
C28	C	1.421226	0.372147	0.583690
H29	H	1.523943	0.310669	0.354152
H30	H	1.303933	0.442304	0.406195
C31	C	1.318919	0.433104	0.666432
C32	C	1.205237	0.395086	0.629569
C33	C	1.110964	0.451204	0.705778
H34	H	1.336151	0.494567	0.641617
H35	H	1.314837	0.435484	0.767960
H36	H	1.209320	0.392716	0.528064
H37	H	1.187965	0.333629	0.654388
H38	H	1.106883	0.453584	0.807306
H39	H	1.128209	0.512665	0.680957
H40	H	1.033819	0.425412	0.680787
C41	C	1.589927	0.270874	0.572814
C42	C	1.595465	0.267398	0.423280
C43	C	1.689158	0.210860	0.346706
H44	H	1.572324	0.209445	0.597703
H45	H	1.667341	0.296323	0.597403
H46	H	1.518069	0.241946	0.398701
H47	H	1.613085	0.328812	0.398348
H48	H	1.766572	0.236309	0.371295
H49	H	1.671546	0.149435	0.371606
H50	H	1.692936	0.208502	0.245239
H51	H	1.043996	0.452517	-0.000025
C52	C	0.811484	0.250822	0.000055
C53	C	0.906429	0.194044	0.000095
C54	C	0.857494	0.101009	0.000188
H55	H	0.775860	0.230600	-0.084238
H56	H	0.749518	0.246447	0.084407
H57	H	0.968373	0.198415	-0.084249
H58	H	0.942062	0.214236	0.084382
H59	H	0.795527	0.096634	0.084541
H60	H	0.821870	0.080797	-0.084107
H61	H	0.921903	0.062475	0.000229
C62	C	0.844633	0.519504	-0.000146
C63	C	0.972133	0.524245	-0.000193
C64	C	1.021592	0.617155	-0.000330
H65	H	0.805032	0.557340	0.084135
H66	H	0.831315	0.541473	-0.084511
H67	H	0.985442	0.502287	0.084164
H68	H	1.011768	0.486429	-0.084467
H69	H	1.008273	0.639124	-0.084696
H70	H	0.981981	0.654983	0.083952
H71	H	1.108107	0.620382	-0.000376
H72	H	1.037549	0.234316	-0.000048
