data_functionalizedCrystal
_audit_creation_method	'MofGen! by Chris Wilmer'
_symmetry_space_group_name_H-M	'P1'
_symmetry_Int_Tables_number	1
_symmetry_cell_setting	triclinic
loop_
_symmetry_equiv_pos_as_xyz
  x,y,z
_cell_length_a	19.077409
_cell_length_b	19.077432
_cell_length_c	19.076919
_cell_angle_alpha	89.934943
_cell_angle_beta	85.523525
_cell_angle_gamma	90.120568
loop_
_atom_site_label
_atom_site_type_symbol
_atom_site_fract_x
_atom_site_fract_y
_atom_site_fract_z
Zn1	Zn	1.072168	-0.250959	0.344950
Zn2	Zn	1.405502	0.082374	0.678284
Zn3	Zn	1.738835	0.415708	1.011617
Zn4	Zn	1.081524	-0.363355	0.222369
Zn5	Zn	1.414857	-0.030022	0.555702
Zn6	Zn	1.748191	0.303311	0.889035
Zn7	Zn	0.959025	-0.250982	0.231798
Zn8	Zn	1.292358	0.082351	0.565131
Zn9	Zn	1.625691	0.415684	0.898465
Zn10	Zn	0.959362	-0.373137	0.344522
Zn11	Zn	1.292695	-0.039804	0.677855
Zn12	Zn	1.626028	0.293530	1.011188
O13	O	1.018020	-0.309608	0.285910
O14	O	1.351353	0.023725	0.619243
O15	O	1.684686	0.357058	0.952576
O16	O	1.171886	-0.261765	0.324923
O17	O	1.505219	0.071568	0.658256
O18	O	1.838552	0.404902	0.991590
O19	O	1.069048	-0.344365	0.125143
O20	O	1.402382	-0.011031	0.458477
O21	O	1.735715	0.322302	0.791810
O22	O	0.969977	-0.152819	0.250934
O23	O	1.303310	0.180515	0.584267
O24	O	1.636644	0.513848	0.917600
O25	O	1.178759	-0.344342	0.234863
O26	O	1.512093	-0.011009	0.568196
O27	O	1.845426	0.322324	0.901529
O28	O	1.053103	-0.152801	0.334066
O29	O	1.386437	0.180532	0.667400
O30	O	1.719770	0.513865	1.000733
O31	O	0.979049	-0.261805	0.132071
O32	O	1.312382	0.071529	0.465404
O33	O	1.645715	0.404862	0.798738
O34	O	0.860593	-0.271290	0.250518
O35	O	1.193926	0.062044	0.583851
O36	O	1.527260	0.395377	0.917184
O37	O	0.970552	-0.361014	0.443055
O38	O	1.303885	-0.027681	0.776388
O39	O	1.637218	0.305653	1.109721
O40	O	0.860841	-0.361037	0.333335
O41	O	1.194174	-0.027703	0.666669
O42	O	1.527507	0.305630	1.000002
O43	O	1.053430	-0.271250	0.443370
O44	O	1.386764	0.062083	0.776703
O45	O	1.720097	0.395417	1.110036
O46	O	1.069375	-0.462813	0.234447
O47	O	1.402709	-0.129480	0.567780
O48	O	1.736042	0.203853	0.901113
O49	O	0.979623	-0.470000	0.324192
O50	O	1.312957	-0.136667	0.657525
O51	O	1.646290	0.196667	0.990859
C52	C	0.835183	-0.317228	0.292904
C53	C	1.168516	0.016106	0.626237
C54	C	1.501850	0.349439	0.959570
C55	C	0.756965	-0.320505	0.295912
C56	C	1.090298	0.012829	0.629245
C57	C	1.423631	0.346162	0.962578
C58	C	0.316692	-0.343955	0.317521
C59	C	0.650026	-0.010622	0.650855
C60	C	0.983359	0.322712	0.984188
C61	C	0.390187	-0.340880	0.314682
C62	C	0.723521	-0.007547	0.648015
C63	C	1.056854	0.325786	0.981348
C64	C	0.426777	-0.292548	0.270221
C65	C	0.760110	0.040785	0.603554
C66	C	1.093444	0.374119	0.936888
C67	C	0.389868	-0.247292	0.228592
C68	C	0.723202	0.086042	0.561925
C69	C	1.056535	0.419375	0.895258
C70	C	0.316375	-0.250370	0.231428
C71	C	0.649708	0.082963	0.564762
C72	C	0.983041	0.416297	0.898095
C73	C	0.646563	-0.278327	0.257119
C74	C	0.979896	0.055006	0.590452
C75	C	1.313229	0.388340	0.923786
C76	C	0.720061	-0.275251	0.254287
C77	C	1.053394	0.058083	0.587621
C78	C	1.386728	0.391416	0.920954
C79	C	0.720375	-0.368841	0.340376
C80	C	1.053709	-0.035507	0.673710
C81	C	1.387042	0.297826	1.007043
C82	C	0.646880	-0.371912	0.343212
C83	C	0.980213	-0.038578	0.676545
C84	C	1.313547	0.294755	1.009879
C85	C	0.609978	-0.326658	0.301580
C86	C	0.943311	0.006675	0.634914
C87	C	1.276645	0.340009	0.968247
N88	N	0.501901	-0.289403	0.267319
N89	N	0.835234	0.043931	0.600652
N90	N	1.168567	0.377264	0.933985
N91	N	0.534856	-0.329807	0.304479
N92	N	0.868189	0.003526	0.637812
N93	N	1.201523	0.336859	0.971146
C94	C	1.025569	-0.491859	0.278264
C95	C	1.358903	-0.158525	0.611597
C96	C	1.692236	0.174808	0.944931
C97	C	1.028863	-0.569824	0.275014
C98	C	1.362196	-0.236491	0.608348
C99	C	1.695529	0.096842	0.941681
C100	C	0.983652	-0.610220	0.320177
C101	C	1.316985	-0.276886	0.653511
C102	C	1.650318	0.056447	0.986844
C103	C	0.986749	-0.683477	0.317121
C104	C	1.320082	-0.350143	0.650454
C105	C	1.653416	-0.016810	0.983788
C106	C	1.035062	-0.716336	0.268905
C107	C	1.368395	-0.383003	0.602238
C108	C	1.701729	-0.049670	0.935571
C109	C	1.080275	-0.675936	0.223737
C110	C	1.413608	-0.342602	0.557070
C111	C	1.746942	-0.009269	0.890404
C112	C	1.077174	-0.602680	0.226790
C113	C	1.410507	-0.269347	0.560124
C114	C	1.743840	0.063987	0.893457
C115	C	1.049349	-0.935023	0.254763
C116	C	1.382682	-0.601689	0.588096
C117	C	1.716015	-0.268356	0.921429
C118	C	1.052448	-1.008283	0.251714
C119	C	1.385782	-0.674950	0.585047
C120	C	1.719115	-0.341617	0.918381
C121	C	0.958921	-1.015819	0.345097
C122	C	1.292254	-0.682486	0.678431
C123	C	1.625588	-0.349153	1.011764
C124	C	0.955827	-0.942562	0.348149
C125	C	1.289160	-0.609229	0.681483
C126	C	1.622493	-0.275896	1.014816
C127	C	1.001037	-0.902168	0.302979
C128	C	1.334371	-0.568834	0.636313
C129	C	1.667704	-0.235501	0.969646
N130	N	1.038231	-0.791217	0.265781
N131	N	1.371564	-0.457883	0.599114
N132	N	1.704897	-0.124550	0.932447
N133	N	0.997865	-0.827289	0.306100
N134	N	1.331198	-0.493956	0.639434
N135	N	1.664531	-0.160622	0.972767
C136	C	1.201570	-0.301960	0.278889
C137	C	1.534904	0.031373	0.612222
C138	C	1.868237	0.364707	0.945555
C139	C	1.279789	-0.298701	0.275897
C140	C	1.613122	0.034633	0.609230
C141	C	1.946455	0.367966	0.942564
C142	C	1.010985	-0.317221	0.469460
C143	C	1.344318	0.016113	0.802793
C144	C	1.677652	0.349446	1.136126
C145	C	1.007987	-0.320464	0.547678
C146	C	1.341321	0.012869	0.881011
C147	C	1.674654	0.346202	1.214345
C148	C	1.010459	-0.126646	0.293600
C149	C	1.343792	0.206687	0.626933
C150	C	1.677126	0.540020	0.960266
C151	C	1.007237	-0.048679	0.296877
C152	C	1.340570	0.284654	0.630210
C153	C	1.673904	0.617988	0.963543
C154	C	1.025065	-0.301974	0.103074
C155	C	1.358399	0.031360	0.436407
C156	C	1.691732	0.364693	0.769741
C157	C	1.028191	-0.298526	0.024859
C158	C	1.361525	0.034807	0.358193
C159	C	1.694858	0.368140	0.691526
C160	C	1.049727	-0.275255	0.584590
C161	C	1.383060	0.058078	0.917924
C162	C	1.716394	0.391411	1.251257
C163	C	1.046902	-0.278301	0.658085
C164	C	1.380235	0.055032	0.991418
C165	C	1.713568	0.388366	1.324752
C166	C	1.002340	-0.326559	0.694666
C167	C	1.335673	0.006774	1.027999
C168	C	1.669006	0.340107	1.361332
C169	C	0.960595	-0.371771	0.657748
C170	C	1.293929	-0.038437	0.991082
C171	C	1.627262	0.294896	1.324415
C172	C	0.963417	-0.368721	0.584255
C173	C	1.296751	-0.035388	0.917589
C174	C	1.630084	0.297946	1.250922
C175	C	0.989269	-0.340688	0.914449
C176	C	1.322602	-0.007355	1.247782
C177	C	1.655935	0.325979	1.581116
C178	C	0.986451	-0.343736	0.987947
C179	C	1.319785	-0.010402	1.321280
C180	C	1.653118	0.322931	1.654614
C181	C	1.072757	-0.250265	0.988279
C182	C	1.406091	0.083069	1.321612
C183	C	1.739424	0.416402	1.654945
C184	C	1.075579	-0.247222	0.914784
C185	C	1.408912	0.086111	1.248117
C186	C	1.742245	0.419444	1.581451
C187	C	1.033831	-0.292431	0.877873
C188	C	1.367165	0.040903	1.211207
C189	C	1.700498	0.374236	1.544540
N190	N	0.999452	-0.329675	0.769789
N191	N	1.332786	0.003658	1.103122
N192	N	1.666119	0.336991	1.436456
N193	N	1.036716	-0.289311	0.802752
N194	N	1.370049	0.044022	1.136085
N195	N	1.703382	0.377356	1.469418
H196	H	0.419666	-0.207941	0.192388
H197	H	0.752999	0.125392	0.525721
H198	H	1.086332	0.458725	0.859054
N199	N	0.910154	-1.059383	0.393811
N200	N	1.243487	-0.726050	0.727144
N201	N	1.576820	-0.392716	1.060477
H202	H	0.938756	-1.089900	0.424089
H203	H	1.272090	-0.756566	0.757422
H204	H	1.605423	-0.423233	1.090756
H205	H	0.879960	-1.089947	0.365114
H206	H	1.213293	-0.756614	0.698448
H207	H	1.546626	-0.423281	1.031781
H208	H	0.916487	-0.915809	0.387411
H209	H	1.249820	-0.582476	0.720744
H210	H	1.583153	-0.249143	1.054078
N211	N	0.944236	-0.389457	0.874663
N212	N	1.277570	-0.056123	1.207997
N213	N	1.610903	0.277210	1.541330
H214	H	0.975336	-0.419515	0.841709
H215	H	1.308670	-0.086182	1.175042
H216	H	1.642003	0.247151	1.508376
H217	H	0.911615	-0.361000	0.846662
H218	H	1.244948	-0.027667	1.179996
H219	H	1.578281	0.305667	1.513329
H220	H	1.111868	-0.207927	0.885005
H221	H	1.445201	0.125407	1.218338
H222	H	1.778534	0.458740	1.551671
N223	N	1.117781	-0.201505	1.028089
N224	N	1.451114	0.131828	1.361422
N225	N	1.784448	0.465162	1.694755
H226	H	1.109233	-0.210757	1.080197
H227	H	1.442566	0.122576	1.413530
H228	H	1.775900	0.455910	1.746864
H229	H	1.105250	-0.151331	1.017766
H230	H	1.438583	0.182002	1.351099
H231	H	1.771916	0.515335	1.684432
H232	H	0.420231	-0.377733	0.348575
H233	H	0.753565	-0.044400	0.681908
H234	H	1.086898	0.288934	1.015242
N235	N	0.759525	-0.223120	0.206326
N236	N	1.092858	0.110213	0.539659
N237	N	1.426191	0.443546	0.872992
H238	H	0.792442	-0.248948	0.171302
H239	H	1.125775	0.084385	0.504635
H240	H	1.459109	0.417719	0.837969
H241	H	0.787537	-0.190582	0.235215
H242	H	1.120870	0.142752	0.568549
H243	H	1.454203	0.476085	0.901882
N244	N	1.104562	-1.043728	0.199709
N245	N	1.437895	-0.710394	0.533043
N246	N	1.771229	-0.377061	0.866376
H247	H	1.132732	-1.007023	0.171557
H248	H	1.466065	-0.673689	0.504890
H249	H	1.799399	-0.340356	0.838224
H250	H	1.078480	-1.074009	0.166950
H251	H	1.411813	-0.740676	0.500284
H252	H	1.745146	-0.407342	0.833617
N253	N	1.098121	-0.891460	0.206057
N254	N	1.431454	-0.558126	0.539390
N255	N	1.764787	-0.224793	0.872724
H256	H	1.129201	-0.923394	0.175056
H257	H	1.462535	-0.590061	0.508389
H258	H	1.795868	-0.256728	0.841723
H259	H	1.128273	-0.860859	0.234762
H260	H	1.461606	-0.527526	0.568095
H261	H	1.794939	-0.194193	0.901428
N262	N	1.125935	-0.559107	0.178078
N263	N	1.459268	-0.225774	0.511411
N264	N	1.792602	0.107560	0.844745
H265	H	1.157013	-0.591038	0.147070
H266	H	1.490346	-0.257705	0.480404
H267	H	1.823680	0.075629	0.813737
H268	H	1.156091	-0.528500	0.206773
H269	H	1.489424	-0.195167	0.540106
H270	H	1.822757	0.138166	0.873439
H271	H	0.950161	-0.383035	1.017729
H272	H	1.283495	-0.049702	1.351063
H273	H	1.616828	0.283631	1.684396
H274	H	0.949927	-0.716364	0.353891
H275	H	1.283261	-0.383030	0.687224
H276	H	1.616594	-0.049697	1.020558
H277	H	1.119609	-0.702696	0.184475
H278	H	1.452942	-0.369363	0.517808
H279	H	1.786276	-0.036029	0.851142
H280	H	0.944313	-0.583470	0.359443
H281	H	1.277647	-0.250137	0.692776
H282	H	1.610980	0.083196	1.026110
H283	H	1.086017	-0.235960	0.554811
H284	H	1.419350	0.097373	0.888145
H285	H	1.752683	0.430707	1.221478
N286	N	1.091906	-0.229527	0.697899
N287	N	1.425240	0.103807	1.031233
N288	N	1.758573	0.437140	1.364566
H289	H	1.120563	-0.198492	0.663574
H290	H	1.453896	0.134842	0.996907
H291	H	1.787230	0.468175	1.330241
H292	H	1.124483	-0.257976	0.725958
H293	H	1.457817	0.075357	1.059291
H294	H	1.791150	0.408690	1.392625
H295	H	0.924309	-0.411061	0.687539
H296	H	1.257642	-0.077728	1.020872
H297	H	1.590976	0.255605	1.354205
H298	H	0.929421	-0.405528	0.554203
H299	H	1.262754	-0.072195	0.887536
H300	H	1.596088	0.261138	1.220870
H301	H	0.286329	-0.213517	0.197535
H302	H	0.619662	0.119816	0.530868
H303	H	0.952995	0.453149	0.864202
N304	N	0.277230	-0.396083	0.365478
N305	N	0.610563	-0.062750	0.698811
N306	N	0.943897	0.270583	1.032145
H307	H	0.311764	-0.424286	0.391414
H308	H	0.645097	-0.090953	0.724747
H309	H	0.978430	0.242380	1.058080
H310	H	0.249174	-0.428586	0.336593
H311	H	0.582507	-0.095253	0.669927
H312	H	0.915840	0.238081	1.003260
N313	N	0.607421	-0.424055	0.391155
N314	N	0.940755	-0.090721	0.724488
N315	N	1.274088	0.242612	1.057822
H316	H	0.617851	-0.414800	0.441415
H317	H	0.951184	-0.081467	0.774749
H318	H	1.284518	0.251866	1.108082
H319	H	0.622735	-0.473136	0.377474
H320	H	0.956068	-0.139803	0.710807
H321	H	1.289402	0.193531	1.044140
N322	N	0.760176	-0.417652	0.385272
N323	N	1.093510	-0.084319	0.718605
N324	N	1.426843	0.249015	1.051939
H325	H	0.812286	-0.408372	0.376729
H326	H	1.145620	-0.075039	0.710063
H327	H	1.478953	0.258295	1.043396
H328	H	0.749825	-0.467810	0.372624
H329	H	1.083159	-0.134477	0.705957
H330	H	1.416492	0.198856	1.039291
N331	N	0.606766	-0.229519	0.212219
N332	N	0.940099	0.103814	0.545552
N333	N	1.273433	0.437147	0.878885
H334	H	0.641099	-0.198433	0.183626
H335	H	0.974433	0.134900	0.516960
H336	H	1.307766	0.468233	0.850293
H337	H	0.573836	-0.199570	0.243453
H338	H	0.907169	0.133764	0.576786
H339	H	1.240502	0.467097	0.910120
