data_functionalizedCrystal
_audit_creation_method	'MofGen! by Chris Wilmer'
_symmetry_space_group_name_H-M	'P1'
_symmetry_Int_Tables_number	1
_symmetry_cell_setting	triclinic
loop_
_symmetry_equiv_pos_as_xyz
  x,y,z
_cell_length_a	10.540535
_cell_length_b	10.540539
_cell_length_c	9.198806
_cell_angle_alpha	89.998955
_cell_angle_beta	89.998432
_cell_angle_gamma	84.524567
loop_
_atom_site_label
_atom_site_type_symbol
_atom_site_fract_x
_atom_site_fract_y
_atom_site_fract_z
O1	O	1.685890	0.178870	-0.120805
O2	O	1.316476	0.195732	-0.120825
O3	O	1.509611	0.002595	-0.120813
O4	O	1.492755	0.372008	-0.120818
O5	O	1.509596	0.002594	0.120972
O6	O	1.316461	0.195732	0.120960
O7	O	1.685874	0.178870	0.120980
Cu8	Cu	1.501166	0.187301	0.143047
Cu9	Cu	1.501184	0.187301	-0.142892
O10	O	1.492740	0.372007	0.120968
C11	C	1.269165	0.194469	0.000065
C12	C	1.128217	0.190689	0.000057
C13	C	1.508339	-0.044709	0.000077
C14	C	1.504557	-0.185657	0.000069
C15	C	1.091546	0.049675	0.000065
C16	C	0.944946	0.045698	0.000628
C17	C	0.918872	0.255059	0.137876
C18	C	1.065638	0.258060	0.137977
C19	C	1.065539	0.260112	-0.136987
C20	C	0.919193	0.253590	-0.138784
C21	C	1.359640	-0.369081	-0.000482
C22	C	1.363474	-0.222463	0.000063
C23	C	1.572444	-0.247316	0.138144
C24	C	1.567629	-0.393860	0.138260
C25	C	1.570516	-0.394378	-0.136695
C26	C	1.571816	-0.247396	-0.138520
C27	C	1.733185	0.180133	0.000086
C28	C	1.874134	0.183913	0.000085
C29	C	1.494011	0.419311	0.000074
C30	C	1.497793	0.560259	0.000073
N31	N	1.501163	0.187299	0.344161
N32	N	1.501198	0.187293	-0.344006
C33	C	1.582254	0.105849	0.416363
C34	C	1.582274	0.105844	0.583775
H35	H	0.915614	-0.009943	-0.098127
H36	H	0.870145	0.354464	-0.147534
H37	H	1.522143	-0.206537	-0.240664
H38	H	1.674677	-0.223176	-0.146853
H39	H	1.524861	-0.425930	-0.241347
H40	H	1.431773	0.257034	0.593913
H41	H	1.431747	0.257025	0.406284
H42	H	1.651662	0.036113	0.354241
H43	H	1.134998	-0.003569	0.098734
H44	H	1.133522	-0.004475	-0.098734
H45	H	0.916487	-0.009671	0.099988
H46	H	0.871515	0.356825	0.142611
H47	H	1.672420	-0.441605	-0.137618
H48	H	1.088668	0.361434	0.143864
H49	H	1.651704	0.036116	0.645866
H50	H	1.105802	0.210011	0.241375
H51	H	1.108005	0.216110	-0.241465
H52	H	0.890597	0.201815	-0.240724
H53	H	0.887964	0.206247	0.240817
H54	H	1.310056	-0.179859	-0.098915
H55	H	1.087724	0.363863	-0.138321
H56	H	1.304129	-0.399288	0.097974
H57	H	1.309669	-0.180706	0.099200
H58	H	1.303915	-0.397680	-0.099498
H59	H	1.517445	-0.422059	0.241468
H60	H	1.669094	-0.441830	0.144529
H61	H	1.676052	-0.224963	0.143283
H62	H	1.525274	-0.204716	0.240889
