data_functionalizedCrystal
_audit_creation_method	'MofGen! by Chris Wilmer'
_symmetry_space_group_name_H-M	'P1'
_symmetry_Int_Tables_number	1
_symmetry_cell_setting	triclinic
loop_
_symmetry_equiv_pos_as_xyz
  x,y,z
_cell_length_a	17.639617
_cell_length_b	17.641079
_cell_length_c	18.215399
_cell_angle_alpha	101.189158
_cell_angle_beta	78.758603
_cell_angle_gamma	92.179552
loop_
_atom_site_label
_atom_site_type_symbol
_atom_site_fract_x
_atom_site_fract_y
_atom_site_fract_z
Zn1	Zn	1.222257	-0.067942	-0.659377
Zn2	Zn	1.247831	-0.194928	-0.565063
Zn3	Zn	1.095248	-0.093598	-0.517211
Zn4	Zn	1.120867	-0.220505	-0.668969
O5	O	1.171551	-0.144243	-0.602655
O6	O	1.331938	-0.063346	-0.662877
O7	O	1.227571	-0.181520	-0.455733
O8	O	1.090672	0.016062	-0.512029
O9	O	1.350726	-0.156642	-0.593585
O10	O	1.183985	0.034911	-0.616478
O11	O	1.115469	-0.107072	-0.420577
O12	O	0.992358	-0.131873	-0.521330
O13	O	1.134336	-0.200234	-0.770678
O14	O	1.011180	-0.225112	-0.632826
O15	O	1.208827	-0.088146	-0.763631
O16	O	1.252413	-0.304577	-0.602887
O17	O	1.159134	-0.323368	-0.679226
C18	C	0.974210	-0.184053	-0.572927
C19	C	0.889791	-0.201101	-0.560231
C20	C	1.211349	-0.341519	-0.647309
C21	C	1.228444	-0.425901	-0.666447
C22	C	1.301065	-0.534966	-0.747816
C23	C	1.284996	-0.455677	-0.729826
C24	C	1.187937	-0.475408	-0.621035
C25	C	1.203995	-0.554700	-0.639018
C26	C	1.260560	-0.584472	-0.702408
C27	C	1.163490	-0.604207	-0.593611
C28	C	1.179550	-0.683491	-0.611590
C29	C	1.236115	-0.713269	-0.674976
C30	C	1.276621	-0.663757	-0.720388
C31	C	1.106929	-0.574433	-0.530217
C32	C	1.066424	-0.623939	-0.484810
C33	C	1.082480	-0.703226	-0.502792
C34	C	1.139045	-0.733004	-0.566179
C35	C	1.041975	-0.752739	-0.457381
C36	C	1.058035	-0.832023	-0.475360
C37	C	1.155105	-0.812288	-0.584158
C38	C	0.563288	-0.014708	-0.699284
C39	C	0.483967	-0.030747	-0.687343
C40	C	0.503521	-0.127736	-0.615018
C41	C	0.582846	-0.111708	-0.626955
C42	C	0.612722	-0.055193	-0.669088
C43	C	0.632280	-0.152192	-0.596759
C44	C	0.711598	-0.136162	-0.608693
C45	C	0.741480	-0.079648	-0.650822
C46	C	0.692040	-0.039163	-0.681022
C47	C	0.602401	-0.208703	-0.554622
C48	C	0.651836	-0.249187	-0.524426
C49	C	0.731156	-0.233162	-0.536364
C50	C	0.761038	-0.176647	-0.578493
C51	C	0.780596	-0.273647	-0.506165
C52	C	0.859914	-0.257617	-0.518098
C53	C	0.840356	-0.160617	-0.590427
C54	C	1.369662	-0.104279	-0.632499
C55	C	1.454085	-0.087249	-0.645217
C56	C	1.171586	-0.144182	-0.794603
C57	C	1.171602	-0.144155	-0.876400
C58	C	1.131618	0.053808	-0.557846
C59	C	1.114601	0.138205	-0.538751
C60	C	1.210397	-0.085742	-1.060918
C61	C	1.210402	-0.085718	-1.137773
C62	C	1.132836	-0.202440	-1.145101
C63	C	1.132827	-0.202460	-1.068246
C64	C	1.171612	-0.144112	-1.026157
C65	C	1.171626	-0.144067	-1.179867
C66	C	1.171630	-0.144042	-1.263197
C67	C	1.171607	-0.144136	-0.942822
C68	C	1.171548	-0.144241	-0.411448
C69	C	1.171636	-0.144024	-0.329625
H70	H	1.201152	-0.836533	-0.635789
H71	H	1.141882	-0.451158	-0.569420
H72	H	0.806066	-0.066595	-0.660534
C73	C	0.724909	0.023003	-0.727375
N74	N	0.749667	0.069825	-0.762286
C75	C	1.013476	-0.886484	-0.425412
N76	N	0.979913	-0.927504	-0.387788
C77	C	1.089264	-0.487216	-0.510441
N78	N	1.075959	-0.421525	-0.495547
C79	C	0.618962	-0.311353	-0.478082
N80	N	0.594203	-0.358180	-0.443177
C81	C	1.090156	-0.266673	-1.030006
N82	N	1.058015	-0.315034	-1.001203
C83	C	1.253070	-0.021508	-1.176006
N84	N	1.285210	0.026857	-1.204803
H85	H	1.101261	-0.249947	-1.179380
H86	H	1.020370	-0.599689	-0.433195
H87	H	0.864683	-0.114600	-0.624739
C88	C	1.363285	-0.567720	-0.817553
N89	N	1.410147	-0.592391	-0.870077
H90	H	0.443717	0.002228	-0.711931
C91	C	1.253781	-0.800486	-0.694755
N92	N	1.267085	-0.866177	-0.709653
C93	C	0.470647	-0.189902	-0.568673
N94	N	0.445887	-0.236728	-0.533769
H95	H	0.900165	-0.290583	-0.493510
C96	C	1.253054	-0.021552	-1.014620
N97	N	1.285181	0.026801	-0.979750
H98	H	1.322667	-0.688001	-0.772019
C99	C	0.747719	-0.335807	-0.459814
N100	N	0.722957	-0.382627	-0.424903
H101	H	1.317985	-0.415371	-0.766807
C102	C	0.979758	-0.719977	-0.387651
N103	N	0.932894	-0.695302	-0.335130
H104	H	0.587615	0.031309	-0.733596
H105	H	0.537812	-0.221736	-0.544887
