data_functionalizedCrystal
_audit_creation_method	'MofGen! by Chris Wilmer'
_symmetry_space_group_name_H-M	'P1'
_symmetry_Int_Tables_number	1
_symmetry_cell_setting	triclinic
loop_
_symmetry_equiv_pos_as_xyz
  x,y,z
_cell_length_a	10.908878
_cell_length_b	26.809956
_cell_length_c	11.026607
_cell_angle_alpha	90.000385
_cell_angle_beta	95.664596
_cell_angle_gamma	90.023261
loop_
_atom_site_label
_atom_site_type_symbol
_atom_site_fract_x
_atom_site_fract_y
_atom_site_fract_z
O1	O	1.662493	0.041471	0.179084
O2	O	1.309559	0.041474	0.088544
O3	O	1.456775	0.041471	0.304564
O4	O	1.515277	0.041474	-0.036936
O5	O	1.456689	-0.041488	0.304549
O6	O	1.309472	-0.041486	0.088529
O7	O	1.662407	-0.041488	0.179069
Zn8	Zn	1.485926	-0.054658	0.133797
Zn9	Zn	1.486040	0.054644	0.133816
O10	O	1.515191	-0.041485	-0.036951
C11	C	1.263630	-0.000006	0.080075
C12	C	1.126902	-0.000005	0.054876
N13	N	1.485857	-0.129254	0.133786
C14	C	1.056640	-0.000005	0.146821
C15	C	0.915324	-0.000004	0.120779
C16	C	1.420759	-0.526136	0.038184
C17	C	1.420695	-0.317259	0.038171
O18	O	1.365188	-0.290257	-0.043133
N19	N	1.485899	-0.291133	0.133798
C20	C	1.551118	-0.317230	0.229440
O21	O	1.606567	-0.290215	0.310783
C22	C	1.551174	-0.526106	0.229456
C23	C	1.485975	-0.552230	0.133816
C24	C	1.355564	-0.552260	-0.057448
C25	C	1.355587	-0.604476	-0.057447
C26	C	1.420803	-0.630569	0.038185
C27	C	1.485997	-0.604446	0.133817
C28	C	1.616385	-0.552202	0.325101
C29	C	1.616390	-0.604425	0.325098
C30	C	1.551192	-0.630548	0.229458
C31	C	1.551236	-0.682755	0.229450
N32	N	1.486032	-0.708881	0.133823
C33	C	1.420815	-0.682788	0.038190
C34	C	1.551086	-0.207566	0.229423
C35	C	1.551074	-0.155347	0.229419
C36	C	1.420649	-0.155380	0.038150
C37	C	1.420669	-0.207600	0.038152
C38	C	1.485881	-0.233692	0.133796
C39	C	1.420867	-0.792446	0.038199
C40	C	1.420899	-0.844667	0.038206
C41	C	1.551319	-0.844630	0.229477
C42	C	1.551293	-0.792413	0.229467
C43	C	1.486058	-0.766323	0.133822
O44	O	1.606702	-0.709789	0.310718
O45	O	1.365353	-0.709811	-0.043127
C46	C	1.420737	-0.473920	0.038183
C47	C	1.485931	-0.447797	0.133814
C48	C	1.551148	-0.473890	0.229447
C49	C	1.485919	-0.395578	0.133809
C50	C	1.420703	-0.369485	0.038177
C51	C	1.355498	-0.395611	-0.057451
C52	C	1.355520	-0.447827	-0.057450
C53	C	1.616352	-0.447764	0.325075
C54	C	1.616326	-0.395548	0.325065
C55	C	1.551109	-0.369455	0.229433
C56	C	1.708336	-0.000007	0.187538
C57	C	1.845063	-0.000005	0.212737
C58	C	1.445939	-0.000008	0.347589
C59	C	1.413766	-0.000006	0.475811
N60	N	1.486116	0.129240	0.133838
C61	C	1.526026	-0.000005	-0.079976
C62	C	1.558199	-0.000004	-0.208198
C63	C	1.502601	-0.000006	0.567544
C64	C	1.469351	-0.000004	0.700068
H65	H	1.101105	-0.000004	0.244817
C66	C	1.638605	-0.000008	0.541111
C67	C	1.689097	-0.043088	0.468213
C68	C	1.825104	-0.043090	0.441784
C69	C	1.910619	-0.000012	0.488253
C70	C	1.860128	0.043071	0.561155
C71	C	1.724121	0.043073	0.587584
H72	H	1.625793	-0.074980	0.433810
H73	H	1.862480	-0.074983	0.387816
H74	H	2.011300	-0.000013	0.468688
H75	H	1.923433	0.074963	0.595558
H76	H	1.686745	0.074967	0.641552
H77	H	1.368674	0.000000	0.719637
H78	H	1.313096	-0.000002	0.495386
C79	C	1.688095	-0.523474	0.430313
C80	C	1.792403	-0.487552	0.403925
C81	C	1.864113	-0.458824	0.509145
C82	C	1.831516	-0.466018	0.640752
C83	C	1.727203	-0.501941	0.667145
C84	C	1.655492	-0.530669	0.561926
H85	H	1.816538	-0.482226	0.306497
H86	H	1.941333	-0.432232	0.489606
H87	H	1.884600	-0.444752	0.718642
H88	H	1.703067	-0.507268	0.764574
H89	H	1.578272	-0.557262	0.581465
H90	H	0.870864	-0.000001	0.022776
C91	C	1.688050	-0.366815	0.430278
C92	C	1.792350	-0.330891	0.403884
C93	C	1.864060	-0.302160	0.509099
C94	C	1.831471	-0.309354	0.640709
C95	C	1.727165	-0.345280	0.667109
C96	C	1.655455	-0.374010	0.561894
H97	H	1.816479	-0.325564	0.306453
H98	H	1.941274	-0.275565	0.489555
H99	H	1.884555	-0.288085	0.718595
H100	H	1.703036	-0.350606	0.764540
H101	H	1.578242	-0.400605	0.581438
C102	C	1.623020	-0.763677	0.334667
C103	C	1.590444	-0.770871	0.466281
C104	C	1.662163	-0.742139	0.571491
C105	C	1.766456	-0.706214	0.545086
C106	C	1.799037	-0.699018	0.413465
C107	C	1.727319	-0.727749	0.308256
H108	H	1.513236	-0.797467	0.485833
H109	H	1.638044	-0.747466	0.668925
H110	H	1.819546	-0.684945	0.622968
H111	H	1.876246	-0.672422	0.393914
H112	H	1.751437	-0.722422	0.210822
H113	H	1.658877	0.000033	0.772236
H114	H	1.082437	-0.000002	-0.043120
C115	C	1.349173	-0.873402	-0.067001
C116	C	1.277494	-0.844696	-0.172228
C117	C	1.205767	-0.873430	-0.277430
C118	C	1.205721	-0.930868	-0.277404
C119	C	1.277402	-0.959577	-0.172173
C120	C	1.349128	-0.930844	-0.066972
H121	H	1.277526	-0.802174	-0.172251
H122	H	1.152704	-0.852177	-0.355329
H123	H	1.152625	-0.952138	-0.355281
H124	H	1.277370	-1.002100	-0.172151
H125	H	1.402192	-0.952097	0.010927
H126	H	1.367745	-0.771209	-0.039683
C127	C	1.283853	-0.633209	-0.162643
C128	C	1.143681	-0.626053	-0.188803
C129	C	1.071938	-0.654783	-0.294001
C130	C	1.140368	-0.690668	-0.373038
C131	C	1.280548	-0.697825	-0.346880
C132	C	1.352290	-0.669095	-0.241683
H133	H	1.093018	-0.599487	-0.130293
H134	H	0.968167	-0.649484	-0.313364
H135	H	1.087260	-0.711935	-0.450912
H136	H	1.331211	-0.724391	-0.405391
H137	H	1.456061	-0.674394	-0.222319
C138	C	1.348940	-0.236333	-0.067048
C139	C	1.208770	-0.229176	-0.093221
C140	C	1.137035	-0.257906	-0.198424
C141	C	1.205471	-0.293792	-0.277453
C142	C	1.345650	-0.300950	-0.251282
C143	C	1.417384	-0.272221	-0.146079
H144	H	1.158102	-0.202609	-0.034717
H145	H	1.033265	-0.252606	-0.217797
H146	H	1.152369	-0.315059	-0.355330
H147	H	1.396317	-0.327517	-0.309786
H148	H	1.521154	-0.277520	-0.126706
H149	H	0.889522	-0.000003	0.310740
C150	C	1.348902	-0.126671	-0.067043
C151	C	1.244595	-0.090793	-0.040597
C152	C	1.172843	-0.062081	-0.145778
C153	C	1.205399	-0.069247	-0.277404
C154	C	1.309711	-0.105126	-0.303856
C155	C	1.381462	-0.133838	-0.198676
H156	H	1.220491	-0.085487	0.056846
H157	H	1.095625	-0.035521	-0.126196
H158	H	1.152284	-0.047993	-0.355265
H159	H	1.333815	-0.110433	-0.401299
H160	H	1.458681	-0.160399	-0.218258
H161	H	1.302452	-0.531019	-0.135325
H162	H	1.604180	-0.134082	0.307288
C163	C	1.283792	-0.476559	-0.162651
C164	C	1.179488	-0.512478	-0.136239
C165	C	1.107753	-0.541206	-0.241445
C166	C	1.140322	-0.534014	-0.373062
C167	C	1.244631	-0.498093	-0.399479
C168	C	1.316366	-0.469365	-0.294274
H169	H	1.155374	-0.517803	-0.038803
H170	H	1.030537	-0.567797	-0.221888
H171	H	1.087220	-0.555280	-0.450941
H172	H	1.268746	-0.492768	-0.496916
H173	H	1.393583	-0.442774	-0.313831
H174	H	1.604193	-0.228807	0.307311
H175	H	1.669492	-0.625666	0.402987
H176	H	1.604422	-0.865883	0.307337
H177	H	1.302401	-0.374357	-0.135322
H178	H	1.669458	-0.469005	0.402951
