data_functionalizedCrystal
_audit_creation_method	'MofGen! by Chris Wilmer'
_symmetry_space_group_name_H-M	'P1'
_symmetry_Int_Tables_number	1
_symmetry_cell_setting	triclinic
loop_
_symmetry_equiv_pos_as_xyz
  x,y,z
_cell_length_a	8.559649
_cell_length_b	10.654550
_cell_length_c	7.681481
_cell_angle_alpha	95.796615
_cell_angle_beta	85.087270
_cell_angle_gamma	77.131784
loop_
_atom_site_label
_atom_site_type_symbol
_atom_site_fract_x
_atom_site_fract_y
_atom_site_fract_z
O1	O	2.104697	-0.029226	0.146422
O2	O	1.640211	0.035561	0.146426
O3	O	1.883134	-0.180675	0.146417
O4	O	1.861774	0.187011	0.146431
O5	O	1.913033	-0.207344	-0.146441
O6	O	1.670110	0.008892	-0.146433
O7	O	2.134596	-0.055895	-0.146437
Zn8	Zn	1.907100	-0.027735	-0.192932
Zn9	Zn	1.867707	0.007402	0.192922
O10	O	1.891673	0.160342	-0.146428
C11	C	1.595685	0.027136	-0.000003
C12	C	1.418466	0.041751	-0.000002
C13	C	1.896515	-0.240646	-0.000010
C14	C	1.891822	-0.379604	-0.000004
C15	C	2.034852	-0.473865	-0.000010
C16	C	2.030432	-0.604428	0.000002
C17	C	1.739942	-0.546456	0.000020
C18	C	1.744362	-0.415894	0.000020
C19	C	2.182312	-0.437574	-0.000034
C20	C	2.325354	-0.531838	-0.000043
C21	C	2.320934	-0.662401	-0.000030
C22	C	2.173473	-0.698701	-0.000010
C23	C	2.179122	-0.047470	-0.000004
C24	C	2.356339	-0.062083	0.000006
C25	C	1.878291	0.220312	0.000003
C26	C	1.882983	0.359271	0.000008
N27	N	1.933997	-0.051718	-0.456268
N28	N	1.840822	0.031373	0.456257
H29	H	2.185928	-0.331267	-0.000050
C30	C	1.712319	0.145946	-0.442164
C31	C	1.692134	0.164525	-0.239397
C32	C	1.563629	0.279100	-0.137804
C33	C	1.455307	0.375098	-0.238979
C34	C	1.475488	0.356522	-0.441757
C35	C	1.603994	0.241946	-0.543349
H36	H	1.772323	0.093459	-0.164491
H37	H	1.548690	0.292851	0.012306
H38	H	1.360179	0.459914	-0.163774
H39	H	1.395299	0.427588	-0.516662
H40	H	1.618933	0.228196	-0.693459
C41	C	2.062507	-0.166297	-0.557855
C42	C	2.011768	-0.267606	-0.684660
C43	C	2.140275	-0.382183	-0.786247
C44	C	2.319522	-0.395452	-0.761028
C45	C	2.370271	-0.294140	-0.634217
C46	C	2.241763	-0.179563	-0.532631
H47	H	1.879070	-0.257786	-0.703333
H48	H	2.102707	-0.457180	-0.880121
H49	H	2.414651	-0.480268	-0.836229
H50	H	2.502968	-0.303959	-0.615544
H51	H	2.279331	-0.104565	-0.438757
H52	H	1.336076	0.141831	0.000019
H53	H	1.438736	-0.162168	0.000004
H54	H	2.445407	-0.502269	-0.000015
H55	H	2.437403	-0.739146	-0.000019
H56	H	2.169884	-0.805015	0.000019
H57	H	1.619886	-0.576023	0.000034
H58	H	1.627895	-0.339143	0.000023
