data_functionalizedCrystal
_audit_creation_method	'MofGen! by Chris Wilmer'
_symmetry_space_group_name_H-M	'P1'
_symmetry_Int_Tables_number	1
_symmetry_cell_setting	triclinic
loop_
_symmetry_equiv_pos_as_xyz
  x,y,z
_cell_length_a	10.654558
_cell_length_b	27.731996
_cell_length_c	9.130313
_cell_angle_alpha	89.992822
_cell_angle_beta	90.000369
_cell_angle_gamma	83.554852
loop_
_atom_site_label
_atom_site_type_symbol
_atom_site_fract_x
_atom_site_fract_y
_atom_site_fract_z
O1	O	1.664940	0.067904	-0.121800
O2	O	1.299188	0.074368	-0.121810
O3	O	1.493458	0.000809	-0.121773
O4	O	1.470671	0.141464	-0.121837
O5	O	1.493456	0.000811	0.121826
O6	O	1.299186	0.074370	0.121789
O7	O	1.664938	0.067906	0.121798
Cu8	Cu	1.482062	0.071138	0.144036
Cu9	Cu	1.482065	0.071136	-0.144048
O10	O	1.470668	0.141466	0.121762
C11	C	1.252410	0.073894	-0.000011
C12	C	1.113027	0.072471	-0.000013
C13	C	0.916575	0.070471	-0.132798
C14	C	1.047541	0.071803	-0.132800
C15	C	1.047543	0.071802	0.132784
C16	C	0.916580	0.070467	0.132785
C17	C	0.851094	0.069807	-0.265594
C18	C	0.916570	0.070475	-0.398393
C19	C	1.047536	0.071807	-0.398394
C20	C	1.113026	0.072472	-0.265598
C21	C	1.492989	-0.017201	0.000031
C22	C	1.491579	-0.070866	0.000046
C23	C	1.482709	-0.403638	-0.132811
C24	C	1.477355	-0.605330	-0.132837
O25	O	1.476610	-0.631406	-0.245767
N26	N	1.476689	-0.630550	-0.000053
C27	C	1.477353	-0.605344	0.132748
O28	O	1.476650	-0.631423	0.245688
C29	C	1.482698	-0.403653	0.132772
C30	C	1.483377	-0.378436	-0.000021
C31	C	1.483387	-0.378421	-0.265594
C32	C	1.484732	-0.328002	-0.265586
C33	C	1.485400	-0.302799	-0.132796
C34	C	1.484722	-0.328016	-0.000013
C35	C	1.483353	-0.378447	0.265571
C36	C	1.484686	-0.328021	0.265565
C37	C	1.485365	-0.302804	0.132772
C38	C	1.486735	-0.252394	0.132785
N39	N	1.487402	-0.227174	0.000000
C40	C	1.486734	-0.252376	-0.132790
C41	C	1.474549	-0.711235	0.132725
C42	C	1.473215	-0.761657	0.132720
C43	C	1.473215	-0.761640	-0.132866
C44	C	1.474558	-0.711217	-0.132858
C45	C	1.475216	-0.686015	-0.000059
C46	C	1.489560	-0.146492	-0.132764
C47	C	1.490911	-0.096068	-0.132744
C48	C	1.490904	-0.096090	0.132840
C49	C	1.489560	-0.146509	0.132822
C50	C	1.488884	-0.171709	0.000008
O51	O	1.487467	-0.226286	0.245655
O52	O	1.487409	-0.226288	-0.245714
C53	C	1.481364	-0.454058	-0.132819
C54	C	1.480686	-0.479275	-0.000037
C55	C	1.481354	-0.454072	0.132753
C56	C	1.479352	-0.529698	-0.000043
C57	C	1.478685	-0.554900	-0.132833
C58	C	1.479351	-0.529680	-0.265617
C59	C	1.480696	-0.479260	-0.265609
C60	C	1.480688	-0.479293	0.265538
C61	C	1.479344	-0.529712	0.265519
C62	C	1.478676	-0.554915	0.132729
C63	C	1.711717	0.068381	-0.000003
C64	C	1.851099	0.069803	-0.000011
C65	C	1.471138	0.159475	-0.000046
C66	C	1.472548	0.213140	-0.000070
N67	N	1.482069	0.071140	0.346659
N68	N	1.482068	0.071131	-0.346670
C69	C	1.568113	0.038579	0.423327
C70	C	1.568110	0.038573	0.576664
C71	C	1.396014	0.103693	0.576651
C72	C	1.396013	0.103696	0.423317
C73	C	1.654169	0.006022	0.346669
C74	C	1.740221	-0.026541	0.423338
C75	C	1.740218	-0.026547	0.576674
C76	C	1.654163	0.006011	0.653343
H77	H	0.744455	0.068724	-0.265607
C78	C	1.491652	-0.068329	-0.278824
C79	C	1.383496	-0.028535	-0.315348
C80	C	1.384235	-0.000798	-0.461422
C81	C	1.493129	-0.012856	-0.570973
C82	C	1.601293	-0.052651	-0.534452
C83	C	1.600555	-0.080388	-0.388377
H84	H	1.302879	-0.019608	-0.234249
H85	H	1.304164	0.028661	-0.488457
H86	H	1.493676	0.007677	-0.679106
H87	H	1.681911	-0.061579	-0.615550
H88	H	1.680626	-0.109848	-0.361343
H89	H	1.485203	-0.307503	0.373709
H90	H	1.654159	0.006000	0.778200
C91	C	0.844542	0.069735	0.278848
C92	C	0.739411	0.110712	0.315340
C93	C	0.667371	0.109978	0.461404
C94	C	0.700461	0.068266	0.570976
C95	C	0.805597	0.027285	0.534487
C96	C	0.877637	0.028019	0.388423
H97	H	0.714911	0.141592	0.234226
H98	H	0.589542	0.140314	0.488415
H99	H	0.647133	0.067722	0.679102
H100	H	0.830097	-0.003596	0.615601
H101	H	0.955466	-0.002317	0.361411
C102	C	1.834874	-0.062354	0.339011
C103	C	1.834896	-0.062347	0.170350
C104	C	1.929551	-0.098161	0.086028
C105	C	2.024184	-0.133983	0.170367
C106	C	2.024166	-0.133992	0.339038
C107	C	1.929511	-0.098177	0.423360
H108	H	1.764840	-0.035828	0.107908
H109	H	1.929564	-0.098155	-0.038834
H110	H	2.094253	-0.160495	0.107947
H111	H	2.094223	-0.160511	0.401480
H112	H	1.929499	-0.098184	0.548222
C113	C	1.301368	0.139508	0.660981
C114	C	1.301532	0.139571	0.829642
C115	C	1.206887	0.175388	0.913969
C116	C	1.112077	0.211142	0.829635
C117	C	1.111909	0.211080	0.660964
C118	C	1.206554	0.175264	0.576637
H119	H	1.371719	0.113102	0.892079
H120	H	1.207012	0.175433	1.038830
H121	H	1.042015	0.237656	0.892059
H122	H	1.041722	0.237549	0.598526
H123	H	1.206429	0.175218	0.451775
H124	H	1.489019	-0.167043	0.240953
H125	H	0.863241	0.069931	-0.506510
H126	H	1.475091	-0.690720	0.240873
C127	C	1.119580	0.072539	0.278849
C128	C	1.194517	0.115357	0.315337
C129	C	1.266554	0.116097	0.461403
C130	C	1.263654	0.074019	0.570981
C131	C	1.188713	0.031198	0.534495
C132	C	1.116677	0.030458	0.388429
H133	H	1.196667	0.146509	0.234219
H134	H	1.322030	0.147796	0.488412
H135	H	1.316980	0.074567	0.679108
H136	H	1.186564	0.000046	0.615614
H137	H	1.061201	-0.001241	0.361421
H138	H	1.325947	0.130210	0.360893
C139	C	1.491627	-0.068359	0.278902
C140	C	1.382347	-0.070167	0.388432
C141	C	1.383056	-0.042434	0.534493
C142	C	1.493046	-0.012892	0.571026
C143	C	1.602335	-0.011082	0.461494
C144	C	1.601626	-0.038816	0.315432
H145	H	1.300918	-0.092037	0.361391
H146	H	1.302152	-0.043774	0.615576
H147	H	1.493571	0.007638	0.679149
H148	H	1.683763	0.010788	0.488535
H149	H	1.682529	-0.037476	0.234350
H150	H	1.489004	-0.167003	-0.240913
H151	H	1.100845	0.072346	-0.506525
H152	H	1.219668	0.073554	-0.265610
H153	H	1.485281	-0.307474	-0.373720
H154	H	1.481249	-0.458733	-0.373743
H155	H	1.475109	-0.690688	-0.240990
H156	H	1.482839	-0.398935	-0.373733
H157	H	1.472682	-0.782186	0.240853
H158	H	1.472673	-0.782168	-0.240989
H159	H	1.482802	-0.398970	0.373705
H160	H	1.481233	-0.458778	0.373674
H161	H	1.478813	-0.550209	-0.373740
H162	H	1.478801	-0.550240	0.373664
H163	H	1.654182	0.006025	0.221815
H164	H	1.810276	-0.053064	0.639096
