data_functionalizedCrystal
_audit_creation_method	'MofGen! by Chris Wilmer'
_symmetry_space_group_name_H-M	'P1'
_symmetry_Int_Tables_number	1
_symmetry_cell_setting	triclinic
loop_
_symmetry_equiv_pos_as_xyz
  x,y,z
_cell_length_a	12.594517
_cell_length_b	21.295417
_cell_length_c	12.594509
_cell_angle_alpha	90.036245
_cell_angle_beta	90.021327
_cell_angle_gamma	90.030306
loop_
_atom_site_label
_atom_site_type_symbol
_atom_site_fract_x
_atom_site_fract_y
_atom_site_fract_z
Zn1	Zn	1.627160	-0.250594	0.601801
Zn2	Zn	1.627006	-0.355872	0.423797
Zn3	Zn	1.449164	-0.250621	0.423830
Zn4	Zn	1.449101	-0.355829	0.601727
O5	O	1.538108	-0.303229	0.512789
O6	O	1.776085	-0.264566	0.578205
O7	O	1.603377	-0.341940	0.274856
O8	O	1.472866	-0.162528	0.447482
O9	O	1.775972	-0.341914	0.447427
O10	O	1.603639	-0.162508	0.578237
O11	O	1.472717	-0.264612	0.274879
O12	O	1.300210	-0.264570	0.447411
O13	O	1.472759	-0.341839	0.750683
O14	O	1.300164	-0.341865	0.578112
O15	O	1.603578	-0.264524	0.750737
O16	O	1.603316	-0.443956	0.447356
O17	O	1.472610	-0.443924	0.578080
C18	C	1.261567	-0.303216	0.512757
C19	C	1.143261	-0.303226	0.512769
C20	C	1.074002	-0.261127	0.441817
C21	C	1.003167	-0.318547	0.415623
C22	C	1.003298	-0.245834	0.538981
C23	C	1.073984	-0.360676	0.486525
C24	C	1.074121	-0.287924	0.609928
C25	C	1.003318	-0.345384	0.583771
C26	C	1.537968	-0.466780	0.512730
C27	C	1.538006	-0.536748	0.512740
C28	C	1.606125	-0.569611	0.444742
C29	C	1.606175	-0.635353	0.444766
C30	C	1.538087	-0.668231	0.512777
C31	C	1.469963	-0.635361	0.580789
C32	C	1.469923	-0.569619	0.580770
N33	N	1.444976	-0.771496	0.520881
N34	N	1.445018	-0.833948	0.520892
C35	C	1.538206	-0.866306	0.512838
N36	N	1.631353	-0.833853	0.504752
N37	N	1.631311	-0.771396	0.504735
C38	C	1.538123	-0.739516	0.512805
C39	C	1.606385	-0.970454	0.444862
C40	C	1.606436	-1.036197	0.444893
C41	C	1.470215	-1.036203	0.580910
C42	C	1.470173	-0.970461	0.580885
C43	C	1.538256	-0.937590	0.512855
C44	C	1.815729	-0.303242	0.512821
C45	C	1.934034	-0.303247	0.512835
C46	C	1.538179	-0.303174	0.790410
C47	C	1.538209	-0.303150	0.908715
C48	C	1.538277	-0.139038	0.512871
C49	C	1.538349	-0.069070	0.512906
C50	C	1.538098	-0.303238	0.236248
C51	C	1.538274	-0.303084	0.117943
C52	C	1.467079	-0.345178	0.977939
C53	C	1.564193	-0.360559	1.048726
C54	C	1.441171	-0.287731	1.048728
C55	C	1.635374	-0.318561	0.977944
C56	C	1.512287	-0.245707	0.977939
C57	C	1.609468	-0.261066	1.048694
H58	H	1.661565	-0.542849	0.389350
C59	C	1.482588	-0.180140	0.935892
H60	H	1.539397	-0.164047	0.894408
H61	H	1.420519	-0.183152	0.893315
H62	H	1.469538	-0.152764	0.994021
H63	H	1.661914	-1.062953	0.389523
H64	H	1.586154	-0.409109	1.079819
H65	H	1.105039	-0.225561	0.381741
C66	C	0.961056	-0.336049	0.304669
H67	H	0.985251	-0.306090	0.254313
H68	H	0.986298	-0.376538	0.285582
H69	H	0.885634	-0.336302	0.305659
C70	C	1.681100	-0.671510	0.369956
H71	H	1.721636	-0.642517	0.329433
H72	H	1.727472	-0.697115	0.410712
H73	H	1.640406	-0.697195	0.323552
H74	H	1.414527	-0.662134	0.636166
H75	H	1.414451	-0.542862	0.636144
C76	C	1.330278	-0.270147	1.090729
H77	H	1.279808	-0.300073	1.066489
H78	H	1.331251	-0.269872	1.166146
H79	H	1.311351	-0.229650	1.065441
C80	C	1.115741	-0.426275	0.456478
H81	H	1.057486	-0.453664	0.443997
H82	H	1.157688	-0.423324	0.394010
H83	H	1.157801	-0.442311	0.512905
C84	C	1.395324	-1.072360	0.655727
H85	H	1.405101	-1.116221	0.645998
H86	H	1.410857	-1.061542	0.727251
H87	H	1.323806	-1.061634	0.640076
C88	C	1.681283	-0.934293	0.370045
H89	H	1.721873	-0.963283	0.329561
H90	H	1.640580	-0.908692	0.323621
H91	H	1.727621	-0.908603	0.410805
H92	H	0.972477	-0.381035	0.643801
H93	H	1.414699	-0.943702	0.636251
C94	C	1.385885	-0.393263	0.935961
H95	H	1.404504	-0.434035	0.960201
H96	H	1.317104	-0.382733	0.961238
H97	H	1.385976	-0.392693	0.860538
C98	C	1.116266	-0.270399	0.720851
H99	H	1.092109	-0.229578	0.739348
H100	H	1.091014	-0.299894	0.771458
H101	H	1.191687	-0.270895	0.720170
H102	H	0.972192	-0.197296	0.561087
C103	C	1.746317	-0.336188	0.936126
H104	H	1.745612	-0.336116	0.860696
H105	H	1.796871	-0.306482	0.960933
H106	H	1.764907	-0.376843	0.960936
H107	H	1.669717	-0.225496	1.079565
