data_functionalizedCrystal
_audit_creation_method	'MofGen! by Chris Wilmer'
_symmetry_space_group_name_H-M	'P1'
_symmetry_Int_Tables_number	1
_symmetry_cell_setting	triclinic
loop_
_symmetry_equiv_pos_as_xyz
  x,y,z
_cell_length_a	11.026623
_cell_length_b	15.072220
_cell_length_c	15.995350
_cell_angle_alpha	89.994453
_cell_angle_beta	83.960461
_cell_angle_gamma	89.993091
loop_
_atom_site_label
_atom_site_type_symbol
_atom_site_fract_x
_atom_site_fract_y
_atom_site_fract_z
O1	O	-1.610166	0.073776	0.350618
O2	O	-1.256860	0.073777	0.310692
O3	O	-1.443171	0.073776	0.210223
O4	O	-1.423855	0.073777	0.451087
O5	O	-1.443147	-0.073789	0.210236
O6	O	-1.256836	-0.073788	0.310704
O7	O	-1.610142	-0.073789	0.350631
Zn8	Zn	-1.433485	-0.097218	0.330670
Zn9	Zn	-1.433517	0.097206	0.330653
O10	O	-1.423831	-0.073788	0.451099
C11	C	-1.211637	-0.000005	0.303332
C12	C	-1.076923	-0.000004	0.281375
N13	N	-1.433473	-0.229906	0.330682
C14	C	-1.003118	-0.000003	0.342001
C15	C	-0.863884	-0.000002	0.319308
C16	C	-1.433495	-0.410904	0.330666
C17	C	-1.333788	-0.448572	0.384397
C18	C	-1.333447	-0.551398	0.384158
C19	C	-1.433517	-0.589108	0.330652
C20	C	-1.406378	-0.551766	0.239090
C21	C	-1.405650	-0.448909	0.239394
C22	C	-1.560647	-0.448793	0.367753
C23	C	-1.559807	-0.551658	0.369601
C24	C	-1.433532	-0.689821	0.330638
C25	C	-1.433478	-0.310191	0.330673
C26	C	-0.655365	-0.000005	0.357989
C27	C	-0.790080	-0.000001	0.379943
C28	C	-1.442360	-0.000005	0.178914
C29	C	-1.439966	-0.000000	0.085603
N30	N	-1.433539	0.229895	0.330636
C31	C	-1.431369	-0.000003	-0.253440
C32	C	-1.298682	0.000329	-0.226006
C33	C	-1.301076	-0.000004	-0.128955
C34	C	-1.435633	-0.000001	-0.085237
C35	C	-1.501066	-0.084267	-0.116443
C36	C	-1.497733	-0.084337	-0.213581
C37	C	-1.500501	0.083472	-0.213540
C38	C	-1.500469	0.084585	-0.116600
C39	C	-1.438051	-0.000003	0.009825
C40	C	-1.428956	-0.000007	-0.348502
C41	C	-1.424642	-0.000005	0.482408
C42	C	-1.427036	-0.000004	0.575720
H43	H	-1.043009	-0.000008	0.410705
O44	O	-1.630085	0.084239	-0.236081
H45	H	-1.645238	0.025491	-0.275506
O46	O	-0.811068	-0.000003	0.228293
H47	H	-0.709997	0.000003	0.224752
O48	O	-0.842892	0.000002	0.470959
H49	H	-0.943964	0.000008	0.474503
H50	H	-1.037032	0.000018	0.212671
H51	H	-1.580401	-0.576050	0.437061
O52	O	-1.500039	-0.584120	0.183764
H53	H	-1.567083	-0.627264	0.221028
O54	O	-1.354770	-0.584855	0.473478
H55	H	-1.365411	-0.527568	0.517234
O56	O	-1.354745	-0.415856	0.473972
H57	H	-1.436439	-0.372388	0.481154
H58	H	-1.239951	-0.422742	0.358929
H59	H	-1.457129	0.147340	-0.240624
H60	H	-1.475537	-0.423988	0.197206
H61	H	-1.452630	0.146923	-0.096569
O62	O	-1.208501	-0.584027	0.350009
H63	H	-1.148085	-0.526339	0.333602
H64	H	-1.312935	-0.424933	0.209678
O65	O	-1.595339	-0.414451	0.455701
H66	H	-1.682262	-0.377004	0.457560
O67	O	-1.284981	-0.585895	0.199429
H68	H	-1.243790	-0.629441	0.244761
H69	H	-1.595149	-0.088159	-0.231145
O70	O	-1.662666	-0.585656	0.323100
H71	H	-1.647420	-0.564755	0.256281
O72	O	-1.658936	-0.416519	0.316162
H73	H	-1.617507	-0.373701	0.264364
O74	O	-1.232923	0.079995	-0.101576
H75	H	-1.197950	0.119268	-0.157695
H76	H	-1.598595	0.089675	-0.086448
O77	O	-1.228419	0.080357	-0.261164
H78	H	-1.287311	0.120753	-0.298570
O79	O	-1.228724	-0.079274	-0.262478
H80	H	-1.288047	-0.119074	-0.300058
H81	H	-1.249276	-0.060512	-0.108892
H82	H	-1.449999	-0.147329	-0.239070
O83	O	-1.632008	-0.088433	-0.077990
H84	H	-1.651885	-0.030351	-0.036128
O85	O	-1.440855	-0.167340	-0.087920
H86	H	-1.364338	-0.148824	-0.051531
