data_functionalizedCrystal
_audit_creation_method	'MofGen! by Chris Wilmer'
_symmetry_space_group_name_H-M	'P1'
_symmetry_Int_Tables_number	1
_symmetry_cell_setting	triclinic
loop_
_symmetry_equiv_pos_as_xyz
  x,y,z
_cell_length_a	16.992694
_cell_length_b	10.723023
_cell_length_c	16.053802
_cell_angle_alpha	92.591082
_cell_angle_beta	87.249047
_cell_angle_gamma	87.567885
loop_
_atom_site_label
_atom_site_type_symbol
_atom_site_fract_x
_atom_site_fract_y
_atom_site_fract_z
O1	O	1.045091	0.259813	-0.069321
O2	O	0.816791	0.256907	-0.069346
O3	O	0.936207	0.077238	-0.069330
O4	O	0.925675	0.439483	-0.069338
O5	O	0.929634	0.087084	0.069528
O6	O	0.810218	0.266753	0.069512
O7	O	1.038518	0.269659	0.069537
Zn8	Zn	0.923324	0.269769	0.091571
Zn9	Zn	0.931985	0.256797	-0.091380
O10	O	0.919102	0.449329	0.069520
C11	C	0.784272	0.258094	0.000080
C12	C	0.697169	0.246945	0.000070
C13	C	0.647507	0.354505	0.000069
C14	C	0.565663	0.344024	0.000080
C15	C	0.533483	0.225982	0.000088
C16	C	0.583152	0.118414	0.000092
C17	C	0.664993	0.128896	0.000086
C18	C	0.289651	0.182535	0.000111
C19	C	0.207803	0.172060	0.000115
C20	C	0.190320	0.397672	0.000104
C21	C	0.272164	0.408144	0.000094
C22	C	0.321825	0.300577	0.000102
N23	N	0.449827	0.215265	0.000097
N24	N	0.405480	0.311294	0.000099
C25	C	0.932155	0.035595	0.000098
C26	C	0.929862	-0.103157	0.000095
C27	C	0.932245	-0.170111	-0.071838
C28	C	0.929875	-0.313519	-0.071843
C29	C	1.071037	0.268472	0.000109
C30	C	1.158141	0.279620	0.000113
C31	C	0.923155	0.490971	0.000090
C32	C	0.925448	0.629723	0.000088
N33	N	0.917420	0.278623	0.216430
N34	N	0.937896	0.247934	-0.216240
C35	C	0.968250	0.202204	0.260131
C36	C	0.964127	0.208409	0.347538
C37	C	0.909176	0.291041	0.391241
C38	C	0.858341	0.367463	0.347534
C39	C	0.862460	0.361250	0.260130
C40	C	0.891180	0.318143	0.652648
C41	C	0.887065	0.324353	0.740059
C42	C	0.992851	0.165297	0.740056
C43	C	0.996970	0.159097	0.652650
C44	C	0.946131	0.235514	0.608951
N45	N	0.904962	0.297389	0.480584
N46	N	0.950342	0.229159	0.519609
H47	H	0.298359	0.504266	0.000078
H48	H	1.041715	0.091812	0.617068
H49	H	0.926062	-0.152003	0.061677
H50	H	1.013000	0.134922	0.224554
H51	H	0.813595	0.434739	0.383123
H52	H	0.923415	-0.312726	0.061676
H53	H	0.821068	0.423477	0.224549
H54	H	1.005517	0.146182	0.383118
C55	C	0.937372	-0.104136	-0.155033
H56	H	0.938298	-0.016406	-0.144116
H57	H	0.892826	-0.122686	-0.186161
H58	H	0.984169	-0.132606	-0.186145
C59	C	1.048761	0.081235	0.788127
H60	H	1.038435	0.096758	0.846441
H61	H	1.101866	0.099038	0.773795
H62	H	1.040462	-0.003968	0.773810
H63	H	0.842316	0.391646	0.775639
H64	H	0.673700	0.450628	0.000062
C65	C	0.719625	0.010584	0.000087
H66	H	0.772975	0.033733	0.000092
H67	H	0.712092	-0.040923	-0.048331
H68	H	0.707518	-0.034041	0.048520
H69	H	0.849786	0.380368	0.617075
H70	H	0.525231	0.431611	0.000078
H71	H	0.181606	0.075931	0.000120
C72	C	0.135696	0.515989	0.000099
H73	H	0.166583	0.587790	0.000088
H74	H	0.101119	0.520029	0.048522
H75	H	0.105694	0.513153	-0.048329
C76	C	0.344268	0.064215	0.000115
H77	H	0.313379	-0.007586	0.000111
H78	H	0.374272	0.067044	0.048537
H79	H	0.378843	0.060176	-0.048315
H80	H	0.556944	0.022301	0.000110
C81	C	0.932625	-0.391267	-0.155043
H82	H	0.930666	-0.477452	-0.144131
H83	H	0.980117	-0.377124	-0.186160
H84	H	0.888774	-0.367203	-0.186163
