data_functionalizedCrystal
_audit_creation_method	'MofGen! by Chris Wilmer'
_symmetry_space_group_name_H-M	'P1'
_symmetry_Int_Tables_number	1
_symmetry_cell_setting	triclinic
loop_
_symmetry_equiv_pos_as_xyz
  x,y,z
_cell_length_a	6.817900
_cell_length_b	11.102289
_cell_length_c	17.078481
_cell_angle_alpha	95.111625
_cell_angle_beta	99.306161
_cell_angle_gamma	108.605707
loop_
_atom_site_label
_atom_site_type_symbol
_atom_site_fract_x
_atom_site_fract_y
_atom_site_fract_z
V1	V	-4.005700	-0.175542	-0.247361
O2	O	-3.966747	0.008741	-0.242653
O3	O	-3.983201	-0.348365	-0.245670
O4	O	-3.936325	-0.172708	-0.355244
O5	O	-4.013948	-0.168132	-0.132319
V6	V	-4.488690	-0.153516	-0.233602
O7	O	-4.268129	-0.223859	-0.277545
O8	O	-4.676459	-0.105199	-0.203418
O9	O	-4.287983	0.019306	-0.235293
O10	O	-4.645040	-0.337799	-0.238310
O11	O	-4.597839	-0.160927	-0.348644
O12	O	-4.334858	-0.156350	-0.125719
C13	C	-3.835182	-0.390499	-0.241767
C14	C	-3.897933	-0.531783	-0.241103
C15	C	-3.775386	-0.166430	-0.381540
C16	C	-3.800119	-0.165257	-0.469735
C17	C	-4.109727	-0.604627	-0.244749
C18	C	-4.168680	-0.737379	-0.244131
C19	C	-3.804020	-0.724430	-0.236219
C20	C	-3.745073	-0.591682	-0.236842
C21	C	-4.320260	-0.612103	-0.249313
C22	C	-4.379213	-0.744855	-0.248696
C23	C	-3.994021	-0.171049	-0.515211
C24	C	-4.017249	-0.169946	-0.598079
C25	C	-3.846575	-0.163058	-0.635470
C26	C	-3.652655	-0.157261	-0.589988
C27	C	-3.629426	-0.158356	-0.507121
C28	C	-3.896497	-0.159097	-0.882874
C29	C	-3.919744	-0.158006	-0.965748
C30	C	-4.284335	-0.170689	-0.973832
C31	C	-4.261092	-0.171790	-0.890963
C32	C	-4.067172	-0.165986	-0.845488
N33	N	-3.870314	-0.161934	-0.720175
N34	N	-4.043431	-0.167101	-0.760784
C35	C	-4.099346	0.061434	-0.239194
C36	C	-4.015832	0.202717	-0.239863
C37	C	-4.159142	-0.162632	-0.099419
C38	C	-4.113646	-0.163799	-0.011223
H39	H	-3.572618	-0.532379	-0.233883
H40	H	-3.513688	-0.151646	-0.620438
O41	O	-3.441011	-0.152516	-0.462885
C42	C	-3.364126	-0.042222	-0.403933
H43	H	-3.437821	0.031797	-0.423680
H44	H	-3.407392	-0.069753	-0.344651
C45	C	-3.031633	-0.075451	-0.368690
C46	C	-3.122134	0.015465	-0.392947
H47	H	-2.882360	-0.039869	-0.361909
H48	H	-3.083433	-0.149761	-0.408404
H49	H	-3.067709	-0.098386	-0.319290
H50	H	-3.086079	0.038386	-0.442350
H51	H	-3.070322	0.089781	-0.353240
H52	H	-4.175138	-0.174656	-0.635101
O53	O	-3.655562	-0.782642	-0.231935
C54	C	-3.651149	-0.841916	-0.162321
H55	H	-3.717533	-0.793595	-0.116506
H56	H	-3.751058	-0.948142	-0.178522
C57	C	-3.340160	-0.887792	-0.182555
C58	C	-3.421677	-0.828436	-0.126281
H59	H	-3.198614	-0.879483	-0.160325
H60	H	-3.343136	-0.847862	-0.229457
H61	H	-3.423438	-0.976308	-0.196051
H62	H	-3.338416	-0.739918	-0.112794
H63	H	-3.418682	-0.868350	-0.079376
H64	H	-3.780748	-0.152394	-0.996189
H65	H	-4.407441	-0.592813	-0.307012
H66	H	-4.344261	-0.558943	-0.193375
H67	H	-4.485875	-0.802651	-0.307471
O68	O	-4.426703	-0.178539	-0.854523
C69	C	-4.364608	-0.178239	-0.771628
H70	H	-4.223970	-0.213346	-0.760770
H71	H	-4.317989	-0.076434	-0.738331
C72	C	-4.722466	-0.224891	-0.754061
C73	C	-4.549743	-0.268021	-0.740726
H74	H	-4.836667	-0.280267	-0.734997
H75	H	-4.764301	-0.225088	-0.809908
H76	H	-4.683589	-0.140053	-0.726312
H77	H	-4.588614	-0.352850	-0.768482
H78	H	-4.507919	-0.267840	-0.684882
O79	O	-4.472843	-0.176555	-1.017999
C80	C	-4.630626	-0.291234	-1.010954
H81	H	-4.554306	-0.365099	-0.993323
H82	H	-4.718934	-0.270825	-0.962945
C83	C	-4.880526	-0.253570	-1.113581
C84	C	-4.786789	-0.344296	-1.091933
H85	H	-4.976862	-0.286300	-1.163531
H86	H	-4.774228	-0.176306	-1.118326
H87	H	-4.954099	-0.236571	-1.073567
H88	H	-4.713197	-0.361282	-1.131941
H89	H	-4.893079	-0.421565	-1.087197
H90	H	-4.453706	-0.769889	-0.194502
H91	H	-4.133011	-0.176666	-0.484773
H92	H	-3.738621	-0.154416	-0.845861
