data_functionalizedCrystal
_audit_creation_method	'MofGen! by Chris Wilmer'
_symmetry_space_group_name_H-M	'P1'
_symmetry_Int_Tables_number	1
_symmetry_cell_setting	triclinic
loop_
_symmetry_equiv_pos_as_xyz
  x,y,z
_cell_length_a	14.519731
_cell_length_b	10.654550
_cell_length_c	13.596369
_cell_angle_alpha	89.999781
_cell_angle_beta	90.006024
_cell_angle_gamma	95.913108
loop_
_atom_site_label
_atom_site_type_symbol
_atom_site_fract_x
_atom_site_fract_y
_atom_site_fract_z
O1	O	1.224712	-0.164742	0.081793
O2	O	1.724712	0.335258	0.581793
O3	O	0.956338	-0.184101	0.081795
O4	O	1.456338	0.315899	0.581795
O5	O	1.096696	0.008376	0.081788
O6	O	1.596696	0.508376	0.581788
O7	O	1.084355	-0.357219	0.081800
O8	O	1.584355	0.142781	0.581800
O9	O	1.096678	0.008366	-0.081795
O10	O	1.596678	0.508366	0.418205
O11	O	0.956321	-0.184111	-0.081788
O12	O	1.456321	0.315889	0.418212
O13	O	1.224695	-0.164753	-0.081790
O14	O	1.724695	0.335247	0.418210
Zn15	Zn	1.090505	-0.174434	-0.107761
Zn16	Zn	1.590505	0.325566	0.392239
Zn17	Zn	1.090528	-0.174420	0.107766
Zn18	Zn	1.590528	0.325580	0.607766
O19	O	1.084337	-0.357230	-0.081783
O20	O	1.584337	0.142770	0.418217
C21	C	0.921965	-0.183199	0.000003
C22	C	1.421965	0.316801	0.500003
C23	C	0.819571	-0.180481	0.000004
C24	C	1.319571	0.319519	0.500004
C25	C	0.736416	-0.178272	0.000008
C26	C	1.236416	0.321728	0.500008
C27	C	0.632093	-0.175513	0.000008
C28	C	1.132093	0.324487	0.500008
C29	C	0.548942	-0.173322	0.000008
C30	C	1.048942	0.326678	0.500008
C31	C	0.444612	-0.170563	0.000010
C32	C	0.944612	0.329437	0.500010
C33	C	1.095781	0.055160	-0.000003
C34	C	1.595781	0.555160	0.499997
C35	C	1.093070	0.194578	-0.000002
C36	C	1.593070	0.694578	0.499998
C37	C	1.259068	-0.165655	0.000004
C38	C	1.759068	0.334345	0.500004
C39	C	1.361462	-0.168373	0.000010
C40	C	1.861462	0.331627	0.500010
C41	C	1.085252	-0.404014	0.000010
C42	C	1.585252	0.095986	0.500010
C43	C	1.087963	-0.543432	0.000015
C44	C	1.587963	-0.043432	0.500015
N45	N	1.090496	-0.174443	-0.254853
N46	N	1.590496	0.325557	0.245147
C47	C	1.175710	0.274850	-0.000002
C48	C	1.675710	0.774850	0.499998
C49	C	1.173157	0.405846	0.000010
C50	C	1.673157	0.905846	0.500010
C51	C	1.005317	0.376286	0.000018
C52	C	1.505317	0.876286	0.500018
C53	C	1.007871	0.245293	0.000013
C54	C	1.507871	0.745293	0.500013
C55	C	1.090501	-0.174446	-0.343851
C56	C	1.590501	0.325554	0.156149
C57	C	1.090510	-0.174437	-0.455502
C58	C	1.590510	0.325563	0.044498
C59	C	1.090522	-0.174423	-0.544493
C60	C	1.590522	0.325577	-0.044493
C61	C	1.090532	-0.174415	-0.656151
C62	C	1.590532	0.325585	-0.156151
N63	N	1.090544	-0.174401	0.254858
N64	N	1.590544	0.325599	0.754858
H65	H	1.245085	0.233562	-0.000012
H66	H	1.745085	0.733562	0.499988
O67	O	0.927675	0.167128	0.000057
O68	O	1.427675	0.667128	0.500057
C69	C	0.948202	0.040636	0.000030
C70	C	1.448202	0.540636	0.500030
H71	H	1.020678	0.035453	0.030994
H72	H	1.520678	0.535453	0.530994
H73	H	0.944937	0.002762	-0.078449
H74	H	1.444937	0.502762	0.421551
C75	C	0.788115	-0.033007	0.026156
C76	C	1.288115	0.466993	0.526156
C77	C	0.877128	-0.039374	0.064194
C78	C	1.377128	0.460626	0.564194
H79	H	0.744271	-0.082364	0.065732
H80	H	1.244271	0.417636	0.565732
H81	H	0.774284	0.052212	0.026171
H82	H	1.274284	0.552212	0.526171
H83	H	0.785407	-0.064567	-0.039242
H84	H	1.285407	0.435433	0.460758
H85	H	0.879837	-0.007800	0.129587
H86	H	1.379837	0.492200	0.629587
H87	H	0.890957	-0.124591	0.064192
H88	H	1.390957	0.375409	0.564192
O89	O	0.922616	0.425705	0.000155
O90	O	1.422616	0.925705	0.500155
C91	C	0.916117	0.500567	0.084889
C92	C	1.416117	1.000567	0.584889
H93	H	0.988599	0.533020	0.113134
H94	H	1.488599	1.033020	0.613134
H95	H	0.875694	0.442790	0.144214
H96	H	1.375694	0.942790	0.644214
C97	C	0.776689	0.576690	0.024465
C98	C	1.276689	1.076690	0.524465
C99	C	0.865713	0.616559	0.059151
C100	C	1.365713	1.116559	0.559151
H101	H	0.745593	0.648237	0.008591
H102	H	1.245593	1.148237	0.508591
H103	H	0.781064	0.526250	-0.032620
H104	H	1.281064	1.026250	0.467380
H105	H	0.743015	0.528541	0.073908
H106	H	1.243015	1.028541	0.573908
H107	H	0.899389	0.664692	0.009704
H108	H	1.399389	1.164692	0.509704
H109	H	0.861342	0.667009	0.116228
H110	H	1.361342	1.167009	0.616228
O111	O	1.253521	0.483642	-0.000037
O112	O	1.753521	0.983642	0.499963
C113	C	1.329262	0.410784	-0.000024
C114	C	1.829262	0.910784	0.499976
H115	H	1.306473	0.313077	-0.030999
H116	H	1.806473	0.813077	0.469001
H117	H	1.355349	0.401388	0.078452
H118	H	1.855349	0.901388	0.578452
C119	C	1.435529	0.595879	-0.026134
C120	C	1.935529	1.095879	0.473866
C121	C	1.407542	0.475878	-0.064185
C122	C	1.907542	0.975878	0.435815
H123	H	1.483819	0.636034	-0.065707
H124	H	1.983819	1.136034	0.434293
H125	H	1.384502	0.644967	-0.026138
H126	H	1.884502	1.144967	0.473862
H127	H	1.457263	0.588033	0.039262
H128	H	1.957263	1.088033	0.539262
H129	H	1.385798	0.483727	-0.129575
H130	H	1.885798	0.983727	0.370425
H131	H	1.458568	0.426793	-0.064193
H132	H	1.958568	0.926793	0.435807
