data_functionalizedCrystal
_audit_creation_method	'MofGen! by Chris Wilmer'
_symmetry_space_group_name_H-M	'P1'
_symmetry_Int_Tables_number	1
_symmetry_cell_setting	triclinic
loop_
_symmetry_equiv_pos_as_xyz
  x,y,z
_cell_length_a	19.188930
_cell_length_b	9.065218
_cell_length_c	18.266242
_cell_angle_alpha	90.005697
_cell_angle_beta	89.990385
_cell_angle_gamma	95.919667
loop_
_atom_site_label
_atom_site_type_symbol
_atom_site_fract_x
_atom_site_fract_y
_atom_site_fract_z
O1	O	0.102370	-1.956852	-0.060893
O2	O	0.110767	-1.527276	-0.060894
O3	O	0.005009	-1.754461	-0.060879
O4	O	0.208128	-1.729668	-0.060908
O5	O	0.005007	-1.754437	0.060883
O6	O	0.110764	-1.527252	0.060868
O7	O	0.102367	-1.956828	0.060869
Zn8	Zn	0.106565	-1.742036	0.080201
Zn9	Zn	0.106569	-1.742068	-0.080226
O10	O	0.208125	-1.729643	0.060854
C11	C	0.109959	-1.472305	-0.000013
C12	C	0.107546	-1.308546	-0.000013
C13	C	-0.021009	-1.753646	0.000004
C14	C	-0.098533	-1.751236	0.000010
C15	C	0.103176	-2.011799	-0.000013
C16	C	0.105589	-2.175558	-0.000018
C17	C	-0.142421	-1.884540	0.000014
C18	C	-0.215262	-1.882276	0.000003
C19	C	-0.244212	-1.746699	0.000002
C20	C	-0.200314	-1.613377	-0.000007
C21	C	-0.127474	-1.615646	-0.000002
N22	N	-0.353023	-1.643059	0.041439
N23	N	-0.422218	-1.640914	0.041436
C24	C	-0.463674	-1.739858	-0.000013
N25	N	-0.433321	-1.841051	-0.041451
N26	N	-0.364120	-1.843201	-0.041445
C27	C	-0.323194	-1.744225	-0.000004
C28	C	-0.586546	-1.870716	-0.000023
C29	C	-0.659388	-1.868446	-0.000039
C30	C	-0.644438	-1.599544	-0.000041
C31	C	-0.571598	-1.601818	-0.000032
C32	C	-0.542656	-1.737408	-0.000020
C33	C	0.234144	-1.730458	-0.000031
C34	C	0.311667	-1.732869	-0.000042
N35	N	0.106563	-1.742025	0.189688
N36	N	0.106566	-1.742091	-0.189713
C37	C	0.059750	-1.842691	0.771972
C38	C	0.059751	-1.842693	0.695327
C39	C	0.106563	-1.742070	0.657000
C40	C	0.153388	-1.641462	0.695325
C41	C	0.153390	-1.641473	0.771969
N42	N	0.114596	-1.611467	0.536673
N43	N	0.114590	-1.611461	0.463864
C44	C	0.106561	-1.742033	0.426078
N45	N	0.098524	-1.872616	0.463850
N46	N	0.098526	-1.872620	0.536665
C47	C	0.106566	-1.742047	0.573893
C48	C	0.059744	-1.842643	0.304655
C49	C	0.059750	-1.842647	0.228009
C50	C	0.153383	-1.641404	0.228009
C51	C	0.153380	-1.641413	0.304654
C52	C	0.106557	-1.742031	0.342972
H53	H	-0.118862	-1.994948	0.000022
C54	C	-0.523318	-1.455170	-0.000033
N55	N	-0.486954	-1.344708	-0.000036
C56	C	-0.707666	-2.015100	-0.000031
N57	N	-0.744030	-2.125563	-0.000021
C58	C	0.008233	-1.953354	0.814118
N59	N	-0.030574	-2.036699	0.845864
H60	H	-0.668009	-1.489155	-0.000046
C61	C	-0.232160	-1.464243	-0.000003
N62	N	-0.256147	-1.351910	0.000000
H63	H	0.191514	-1.559551	0.803166
H64	H	0.021629	-1.924575	0.196812
H65	H	0.021627	-1.924616	0.664125
H66	H	0.191501	-1.559480	0.196804
C67	C	0.204876	-1.530728	0.346802
N68	N	0.243664	-1.447356	0.378548
C69	C	0.204880	-1.530774	0.653164
N70	N	0.243666	-1.447403	0.621409
H71	H	0.021619	-1.924577	0.335856
H72	H	-0.251003	-1.990832	0.000003
C73	C	-0.079195	-1.468993	-0.000005
N74	N	-0.042830	-1.358533	-0.000005
H75	H	-0.562980	-1.981122	-0.000016
