data_functionalizedCrystal
_audit_creation_method	'MofGen! by Chris Wilmer'
_symmetry_space_group_name_H-M	'P1'
_symmetry_Int_Tables_number	1
_symmetry_cell_setting	triclinic
loop_
_symmetry_equiv_pos_as_xyz
  x,y,z
_cell_length_a	14.971482
_cell_length_b	15.995292
_cell_length_c	14.048226
_cell_angle_alpha	89.999488
_cell_angle_beta	90.004139
_cell_angle_gamma	83.540612
loop_
_atom_site_label
_atom_site_type_symbol
_atom_site_fract_x
_atom_site_fract_y
_atom_site_fract_z
O1	O	1.186798	0.109100	0.079141
O2	O	0.926380	0.122171	0.079145
O3	O	1.063735	-0.006249	0.079145
O4	O	1.049443	0.237519	0.079142
O5	O	1.063722	-0.006247	-0.079177
O6	O	0.926367	0.122172	-0.079176
O7	O	1.186785	0.109101	-0.079180
Zn8	Zn	1.056574	0.115637	-0.104315
Zn9	Zn	1.056591	0.115635	0.104280
O10	O	1.049430	0.237520	-0.079179
C11	C	0.893049	0.121587	-0.000015
C12	C	0.793755	0.119837	-0.000013
C13	C	0.747104	0.119014	-0.086315
C14	C	0.653808	0.117356	-0.086316
C15	C	0.607163	0.116528	-0.000014
C16	C	0.653821	0.117349	0.086294
C17	C	0.747116	0.119001	0.086294
C18	C	0.459363	0.113908	0.086288
C19	C	0.366061	0.112258	0.086289
C20	C	0.366055	0.112264	-0.086322
C21	C	0.459351	0.113915	-0.086322
C22	C	0.506001	0.114738	-0.000013
C23	C	1.063147	-0.037444	-0.000014
C24	C	1.061403	-0.130399	-0.000006
C25	C	1.054992	-0.468144	-0.000015
C26	C	1.154131	-0.444733	-0.000370
C27	C	1.156016	-0.348056	-0.000010
C28	C	1.058173	-0.300585	-0.000011
C29	C	1.008616	-0.329735	0.090396
C30	C	1.007422	-0.426527	0.090468
C31	C	1.005383	-0.426385	-0.089573
C32	C	1.009057	-0.329889	-0.090764
C33	C	1.059966	-0.205887	-0.000006
C34	C	1.053197	-0.562841	-0.000014
C35	C	1.220116	0.109685	-0.000018
C36	C	1.319411	0.111435	-0.000013
C37	C	1.050018	0.268716	-0.000019
C38	C	1.051762	0.361671	-0.000020
N39	N	1.056569	0.115637	-0.246676
C40	C	1.002370	0.064759	-0.703542
C41	C	1.002367	0.064757	-0.603884
C42	C	1.056593	0.115628	-0.554046
C43	C	1.110832	0.166499	-0.603870
C44	C	1.110839	0.166496	-0.703526
C45	C	1.110811	0.166502	-0.396156
C46	C	1.110802	0.166506	-0.296493
C47	C	1.002338	0.064762	-0.296514
C48	C	1.002346	0.064760	-0.396170
C49	C	1.056584	0.115632	-0.445987
N50	N	1.056603	0.115628	0.246641
H51	H	0.497326	0.114595	-0.156597
Cl52	Cl	1.179025	0.230445	-0.766154
H53	H	1.154954	0.207933	-0.255917
Cl54	Cl	0.307409	0.111230	-0.194825
H55	H	0.785075	0.119695	-0.156592
Cl56	Cl	0.595163	0.116336	-0.194815
H57	H	1.041754	-0.453310	0.158050
Cl58	Cl	0.934152	0.000809	-0.233887
Cl59	Cl	1.179001	0.230454	-0.458782
H60	H	1.154987	0.207915	-0.563284
H61	H	0.328086	0.111585	0.156563
H62	H	0.497343	0.114579	0.156570
Cl63	Cl	0.934168	0.000813	-0.458823
H64	H	0.615836	0.116669	0.156563
Cl65	Cl	0.898793	-0.279099	-0.099197
Cl66	Cl	0.805763	0.120032	0.194793
Cl67	Cl	0.895200	-0.449107	0.096809
Cl68	Cl	1.215917	-0.318616	-0.100080
H69	H	1.192339	-0.472692	-0.065205
H70	H	1.192137	-0.473714	0.064100
H71	H	0.936617	-0.297939	0.093756
Cl72	Cl	1.216305	-0.319575	0.100224
H73	H	1.043040	-0.309641	0.157677
H74	H	1.036598	-0.454442	-0.158101
H75	H	1.045142	-0.311287	-0.157647
H76	H	0.932409	-0.440447	-0.090183
Cl77	Cl	0.934193	0.000807	-0.766186
Cl78	Cl	0.934157	0.000831	-0.541260
