data_functionalizedCrystal
_audit_creation_method	'MofGen! by Chris Wilmer'
_symmetry_space_group_name_H-M	'P1'
_symmetry_Int_Tables_number	1
_symmetry_cell_setting	triclinic
loop_
_symmetry_equiv_pos_as_xyz
  x,y,z
_cell_length_a	14.853567
_cell_length_b	17.666332
_cell_length_c	14.853567
_cell_angle_alpha	89.997328
_cell_angle_beta	96.365070
_cell_angle_gamma	90.006378
loop_
_atom_site_label
_atom_site_type_symbol
_atom_site_fract_x
_atom_site_fract_y
_atom_site_fract_z
O1	O	1.196371	0.062890	-0.117706
O2	O	0.933911	0.062902	-0.131727
O3	O	1.072152	0.062898	0.006513
O4	O	1.058130	0.062894	-0.255946
O5	O	1.072128	-0.062999	0.006521
O6	O	0.933887	-0.062995	-0.131720
O7	O	1.196347	-0.063007	-0.117698
Cu8	Cu	1.065115	-0.074496	-0.124708
Cu9	Cu	1.065143	0.074391	-0.124717
O10	O	1.058106	-0.063003	-0.255939
C11	C	0.900311	-0.000045	-0.131088
C12	C	0.800227	-0.000040	-0.129184
N13	N	1.065101	-0.179216	-0.124702
C14	C	0.387693	-0.000056	-0.039019
C15	C	0.366412	-0.000057	-0.203251
C16	C	0.460446	-0.000055	-0.205041
C17	C	0.518108	-0.000052	-0.123819
C18	C	0.481736	-0.000051	-0.040806
C19	C	0.496825	-0.000048	-0.288053
C20	C	0.590864	-0.000045	-0.289846
C21	C	0.648528	-0.000047	-0.208623
C22	C	0.612150	-0.000047	-0.125607
C23	C	0.669812	-0.000044	-0.044384
C24	C	0.633437	-0.000049	0.038633
C25	C	0.539399	-0.000053	0.040417
C26	C	0.742565	-0.000043	-0.210407
C27	C	0.763855	-0.000039	-0.046172
C28	C	1.126334	-0.218827	-0.063519
C29	C	1.126339	-0.298075	-0.063514
C30	C	1.065120	-0.337708	-0.124708
C31	C	1.003876	-0.298087	-0.185896
C32	C	1.003866	-0.218841	-0.185893
N33	N	1.053744	-0.462127	-0.204466
N34	N	1.053759	-0.537408	-0.204467
C35	C	1.065144	-0.576472	-0.124721
N36	N	1.076532	-0.537412	-0.044972
N37	N	1.076522	-0.462124	-0.044973
C38	C	1.065123	-0.423637	-0.124719
C39	C	1.126386	-0.702013	-0.063529
C40	C	1.126385	-0.781262	-0.063523
C41	C	1.003926	-0.781272	-0.185912
C42	C	1.003923	-0.702025	-0.185910
C43	C	1.065157	-0.662400	-0.124719
C44	C	1.229947	-0.000059	-0.118337
C45	C	1.330031	-0.000059	-0.120241
C46	C	1.071504	-0.000048	0.040106
C47	C	1.069601	-0.000042	0.140189
N48	N	1.065164	0.179110	-0.124717
C49	C	1.058754	-0.000055	-0.289531
C50	C	1.060657	-0.000057	-0.389615
C51	C	0.979435	-0.000052	0.552723
C52	C	1.143668	-0.000060	0.574004
C53	C	1.145458	-0.000055	0.479971
C54	C	1.064235	-0.000050	0.422309
C55	C	0.981223	-0.000050	0.458680
C56	C	1.228469	-0.000063	0.443591
C57	C	1.230262	-0.000060	0.349552
C58	C	1.149039	-0.000050	0.291889
C59	C	1.066023	-0.000048	0.328266
C60	C	0.984800	-0.000043	0.270604
C61	C	0.901783	-0.000037	0.306979
C62	C	0.899999	-0.000040	0.401017
C63	C	1.150823	-0.000047	0.197851
C64	C	0.986588	-0.000041	0.176561
H65	H	0.680397	-0.000042	0.104764
C66	C	1.321742	0.064649	0.561689
C67	C	1.317743	-0.000071	0.506974
H68	H	1.376861	0.064645	0.600818
H69	H	1.272051	0.064649	0.596802
H70	H	1.319042	0.108546	0.524549
H71	H	1.320437	-0.043969	0.544114
H72	H	1.367448	-0.000078	0.471858
C73	C	0.838915	0.064681	0.563527
C74	C	0.888186	-0.000042	0.592704
H75	H	0.782584	0.064688	0.588216
H76	H	0.828358	0.064673	0.499278
H77	H	0.872382	0.108576	0.583314
H78	H	0.854722	-0.043938	0.572911
H79	H	0.898740	-0.000042	0.656968
C80	C	0.739258	-0.000027	0.295370
C81	C	0.812504	-0.000033	0.243592
H82	H	0.684144	-0.000029	0.256233
H83	H	0.741982	0.043875	0.332484
H84	H	0.741968	-0.043932	0.332497
H85	H	0.809798	0.043875	0.206469
H86	H	0.809778	-0.043939	0.206462
C87	C	0.949545	-0.580552	-0.240252
C88	C	0.936625	-0.658477	-0.253177
H89	H	0.907991	-0.553669	-0.281779
H90	H	1.009715	-0.567560	-0.250151
H91	H	0.939674	-0.567577	-0.180064
H92	H	0.946502	-0.671453	-0.313364
H93	H	0.876440	-0.671474	-0.243285
H94	H	1.176193	-0.186567	-0.013692
C95	C	1.236940	0.064650	0.692104
C96	C	1.232944	-0.000066	0.637384
H97	H	1.292061	0.064648	0.731231
H98	H	1.187252	0.064643	0.727221
H99	H	1.234233	0.108551	0.654969
H100	H	1.235645	-0.043966	0.674518
H101	H	1.282646	-0.000065	0.602264
C102	C	1.249108	-0.612945	-0.044265
C103	C	1.193750	-0.658482	0.003705
H104	H	1.290717	-0.586087	-0.002766
H105	H	1.212646	-0.577988	-0.080667
H106	H	1.281514	-0.643883	-0.081885
H107	H	1.161339	-0.627544	0.041320
H108	H	1.230216	-0.693443	0.040122
C109	C	0.569881	-0.000049	0.202581
C110	C	0.499415	-0.000050	0.131664
H111	H	0.545192	-0.000049	0.258911
H112	H	0.606121	0.043850	0.198464
H113	H	0.606112	-0.043956	0.198470
H114	H	0.463188	0.043860	0.135771
H115	H	0.463159	-0.043954	0.135783
C116	C	0.882881	-0.773318	-0.306884
C117	C	0.936629	-0.824827	-0.253178
H118	H	0.841329	-0.800211	-0.348405
H119	H	0.920442	-0.742403	-0.339381
H120	H	0.850409	-0.742414	-0.269285
H121	H	0.969106	-0.855727	-0.290776
H122	H	0.899063	-0.855754	-0.220678
C123	C	1.392424	-0.000062	0.380044
C124	C	1.321512	-0.000058	0.309573
H125	H	1.448756	-0.000055	0.355359
H126	H	1.388304	-0.043966	0.416273
H127	H	1.388309	0.043841	0.416284
H128	H	1.325623	-0.043964	0.273336
H129	H	1.325633	0.043850	0.273329
H130	H	1.176245	-0.813514	-0.013696
C131	C	1.248119	0.064666	0.104442
C132	C	1.242063	-0.000054	0.157861
H133	H	1.304448	0.064658	0.079751
H134	H	1.244027	0.108558	0.140690
H135	H	1.199996	0.064665	0.056649
H136	H	1.290183	-0.000051	0.205659
H137	H	1.246164	-0.043958	0.121612
C138	C	0.893330	0.064686	0.058463
C139	C	0.897303	-0.000033	0.113183
H140	H	0.838206	0.064692	0.019341
H141	H	0.943015	0.064675	0.023341
H142	H	0.896059	0.108584	0.095599
H143	H	0.894580	-0.043931	0.076047
H144	H	0.847604	-0.000029	0.148307
H145	H	0.358072	-0.000063	0.028572
H146	H	0.954002	-0.186588	-0.235716
H147	H	0.319459	-0.000054	-0.269379
C148	C	0.810951	0.064685	0.093261
C149	C	0.827236	-0.000033	0.043112
H150	H	0.850085	0.064690	0.148377
H151	H	0.749747	0.064672	0.106204
H152	H	0.821992	0.108584	0.059216
H153	H	0.816189	-0.043932	0.077154
H154	H	0.888454	-0.000027	0.030171
C155	C	1.145773	-0.387210	0.059135
C156	C	1.193650	-0.341632	0.003739
H157	H	1.187329	-0.414095	0.100656
H158	H	1.109315	-0.422144	0.022689
H159	H	1.108215	-0.356297	0.091641
H160	H	1.231203	-0.372546	-0.028772
H161	H	1.230123	-0.306694	0.040190
C162	C	0.449717	0.064678	-0.427478
C163	C	0.433439	-0.000046	-0.377325
H164	H	0.410576	0.064680	-0.482589
H165	H	0.510918	0.064678	-0.440430
H166	H	0.438681	0.108573	-0.393431
H167	H	0.444482	-0.043941	-0.411370
H168	H	0.372224	-0.000052	-0.364376
H169	H	0.620472	-0.000040	-0.357443
C170	C	0.712080	-0.000038	-0.372563
C171	C	0.782550	-0.000038	-0.301650
H172	H	0.736766	-0.000040	-0.428895
H173	H	0.675852	0.043862	-0.368449
H174	H	0.675838	-0.043944	-0.368444
H175	H	0.818788	0.043872	-0.305765
H176	H	0.818793	-0.043942	-0.305765
C177	C	0.949528	-0.419571	-0.240252
C178	C	0.936585	-0.341649	-0.253165
H179	H	0.907985	-0.446462	-0.281785
H180	H	0.939666	-0.432563	-0.180073
H181	H	1.009710	-0.432537	-0.250157
H182	H	0.876405	-0.328682	-0.243253
H183	H	0.946440	-0.328652	-0.313358
H184	H	0.832411	-0.000035	0.430643
