data_functionalizedCrystal
_audit_creation_method	'MofGen! by Chris Wilmer'
_symmetry_space_group_name_H-M	'P1'
_symmetry_Int_Tables_number	1
_symmetry_cell_setting	triclinic
loop_
_symmetry_equiv_pos_as_xyz
  x,y,z
_cell_length_a	12.759401
_cell_length_b	17.640280
_cell_length_c	12.759393
_cell_angle_alpha	78.768122
_cell_angle_beta	89.981433
_cell_angle_gamma	78.799979
loop_
_atom_site_label
_atom_site_type_symbol
_atom_site_fract_x
_atom_site_fract_y
_atom_site_fract_z
Zn1	Zn	1.690822	-0.314645	-0.509510
Zn2	Zn	2.190822	0.185355	-0.009510
Zn3	Zn	1.726246	-0.446842	-0.298339
Zn4	Zn	2.226246	0.053158	0.201661
Zn5	Zn	1.515134	-0.314684	-0.333839
Zn6	Zn	2.015134	0.185316	0.166161
Zn7	Zn	1.550626	-0.446779	-0.473998
Zn8	Zn	2.050626	0.053221	0.026002
O9	O	1.620707	-0.380738	-0.403922
O10	O	2.120707	0.119262	0.096078
O11	O	1.842545	-0.332192	-0.481504
O12	O	2.342545	0.167808	0.018496
O13	O	1.698214	-0.429354	-0.156016
O14	O	2.198214	0.070646	0.343984
O15	O	1.508761	-0.204071	-0.386861
O16	O	2.008761	0.295929	0.113139
O17	O	1.868571	-0.429317	-0.326357
O18	O	2.368571	0.070683	0.173643
O19	O	1.637838	-0.204043	-0.515926
O20	O	2.137838	0.295957	-0.015926
O21	O	1.543111	-0.332258	-0.182097
O22	O	2.043111	0.167742	0.317903
O23	O	1.372818	-0.332196	-0.352426
O24	O	1.872818	0.167804	0.147574
O25	O	1.569251	-0.429208	-0.625741
O26	O	2.069251	0.070792	-0.125741
O27	O	1.398894	-0.429246	-0.455400
O28	O	1.898894	0.070754	0.044600
O29	O	1.672252	-0.332130	-0.651832
O30	O	2.172252	0.167870	-0.151832
O31	O	1.732629	-0.557441	-0.291922
O32	O	2.232629	-0.057441	0.208078
O33	O	1.603601	-0.557395	-0.420977
O34	O	2.103601	-0.057395	0.079023
C35	C	1.347735	-0.380719	-0.403912
C36	C	1.847735	0.119281	0.096088
C37	C	1.230961	-0.380730	-0.403928
C38	C	1.730961	0.119270	0.096072
C39	C	1.162566	-0.330253	-0.484791
C40	C	1.662566	0.169747	0.015209
C41	C	1.052846	-0.330268	-0.484794
C42	C	1.552846	0.169732	0.015206
C43	C	1.079928	-0.431245	-0.323065
C44	C	1.579928	0.068755	0.176935
C45	C	1.189645	-0.431225	-0.323059
C46	C	1.689645	0.068775	0.176941
C47	C	1.146930	-0.271957	-0.578166
C48	C	1.646930	0.228043	-0.078166
C49	C	1.037210	-0.271972	-0.578169
C50	C	1.537210	0.228028	-0.078169
C51	C	1.675839	-0.586097	-0.348767
C52	C	2.175839	-0.086097	0.151233
C53	C	1.699520	-0.673951	-0.325206
C54	C	2.199520	-0.173951	0.174794
C55	C	1.441231	-0.962907	-0.583289
C56	C	1.941231	-0.462907	-0.083289
C57	C	1.463486	-1.045459	-0.561117
C58	C	1.963486	-0.545459	-0.061117
C59	C	1.597926	-1.045442	-0.426868
C60	C	2.097926	-0.545442	0.073132
C61	C	1.575686	-0.962889	-0.449032
C62	C	2.075686	-0.462889	0.050968
C63	C	1.497337	-0.921628	-0.527243
C64	C	1.997337	-0.421628	-0.027243
C65	C	1.631792	-0.921609	-0.392986
C66	C	2.131792	-0.421609	0.107014
C67	C	1.609550	-0.839063	-0.415145
C68	C	2.109550	-0.339063	0.084855
C69	C	1.531202	-0.797796	-0.493350
C70	C	2.031202	-0.297796	0.006650
C71	C	1.475095	-0.839081	-0.549402
C72	C	1.975095	-0.339081	-0.049402
C73	C	1.710135	-0.962872	-0.314770
C74	C	2.210135	-0.462872	0.185230
C75	C	1.766241	-0.921592	-0.258724
C76	C	2.266241	-0.421592	0.241276
C77	C	1.744005	-0.839044	-0.280888
C78	C	2.244005	-0.339044	0.219112
C79	C	1.665657	-0.797777	-0.359093
C80	C	2.165657	-0.297777	0.140907
C81	C	1.800112	-0.797759	-0.224836
C82	C	2.300112	-0.297759	0.275164
C83	C	1.777870	-0.715212	-0.246995
C84	C	2.277870	-0.215212	0.253005
C85	C	1.643415	-0.715231	-0.381252
C86	C	2.143415	-0.215231	0.118748
C87	C	1.894745	-0.380757	-0.403932
C88	C	2.394745	0.119243	0.096068
C89	C	2.011524	-0.380765	-0.403936
C90	C	2.511524	0.119235	0.096064
C91	C	1.620759	-0.380658	-0.677977
C92	C	2.120759	0.119342	-0.177977
C93	C	1.620781	-0.380624	-0.794762
C94	C	2.120781	0.119376	-0.294762
C95	C	1.565389	-0.174576	-0.459315
C96	C	2.065389	0.325424	0.040685
C97	C	1.541815	-0.086722	-0.482920
C98	C	2.041815	0.413278	0.017080
C99	C	1.674422	-0.330070	-0.863213
C100	C	2.174422	0.169930	-0.363213
C101	C	1.674439	-0.330042	-0.972945
C102	C	2.174439	0.169958	-0.472945
C103	C	1.567174	-0.431127	-0.945764
C104	C	2.067174	0.068873	-0.445764
C105	C	1.567151	-0.431151	-0.836035
C106	C	2.067151	0.068849	-0.336035
C107	C	1.736355	-0.271712	-0.878906
C108	C	2.236355	0.228288	-0.378906
C109	C	1.736372	-0.271683	-0.988638
C110	C	2.236372	0.228317	-0.488638
C111	C	1.620700	-0.380760	-0.130948
C112	C	2.120700	0.119240	0.369052
C113	C	1.620822	-0.380571	-0.014223
C114	C	2.120822	0.119429	0.485777
H115	H	1.186906	-0.293949	-0.649500
H116	H	1.686906	0.206051	-0.149500
O117	O	0.971400	-0.194915	-0.560444
O118	O	1.471400	0.305085	-0.060444
H119	H	0.925381	-0.205888	-0.487068
H120	H	1.425381	0.294112	0.012932
O121	O	1.850741	-0.966102	-0.174371
O122	O	2.350741	-0.466102	0.325629
H123	H	1.886014	-0.923527	-0.139118
H124	H	2.386014	-0.423527	0.360882
H125	H	1.513086	-0.730581	-0.511383
H126	H	2.013086	-0.230581	-0.011383
O127	O	1.685732	-0.190634	-0.861242
O128	O	2.185732	0.309366	-0.361242
H129	H	1.660954	-0.150922	-0.939616
H130	H	2.160954	0.349078	-0.439616
H131	H	1.160237	-0.210715	-0.572954
H132	H	1.660237	0.289285	-0.072954
O133	O	1.035358	-0.485706	-0.235850
O134	O	1.535358	0.014294	0.264150
H135	H	1.052714	-0.472064	-0.157087
H136	H	1.552714	0.027936	0.342913
O137	O	1.682449	-1.089959	-0.342542
O138	O	2.182449	-0.589959	0.157458
H139	H	1.645625	-1.127630	-0.278936
H140	H	2.145625	-0.627630	0.221064
H141	H	1.822150	-0.288080	-1.014014
H142	H	2.322150	0.211920	-0.514014
H143	H	1.691627	-0.213522	-1.038300
H144	H	2.191627	0.286478	-0.538300
O145	O	1.263416	-0.485656	-0.235831
O146	O	1.763416	0.014344	0.264169
H147	H	1.216251	-0.520772	-0.179605
H148	H	1.716251	-0.020772	0.320395
O149	O	1.003660	-0.293800	-0.680037
O150	O	1.503660	0.206200	-0.180037
H151	H	1.074251	-0.304483	-0.729901
H152	H	1.574251	0.195517	-0.229901
O153	O	1.390589	-0.794567	-0.633759
O154	O	1.890589	-0.294567	-0.133759
H155	H	1.355305	-0.837137	-0.669010
H156	H	1.855305	-0.337137	-0.169010
H157	H	1.728245	-1.030086	-0.296734
H158	H	2.228245	-0.530086	0.203266
O159	O	1.509331	-0.485624	-0.990278
O160	O	2.009331	0.014376	-0.490278
H161	H	1.518360	-0.477116	-1.078079
H162	H	2.018360	0.022884	-0.578079
O163	O	1.558907	-0.670720	-0.465608
O164	O	2.058907	-0.170720	0.034392
H165	H	1.581132	-0.686519	-0.543841
H166	H	2.081132	-0.186519	-0.043841
H167	H	1.377439	-0.929311	-0.646985
H168	H	1.877439	-0.429311	-0.146985
O169	O	1.846523	-0.300765	-0.826012
O170	O	2.346523	0.199235	-0.326012
H171	H	1.877557	-0.362020	-0.836454
H172	H	2.377557	0.137980	-0.336454
H173	H	1.863896	-0.831366	-0.161150
H174	H	2.363896	-0.331366	0.338850
O175	O	1.402972	-1.089992	-0.621565
O176	O	1.902972	-0.589992	-0.121565
H177	H	1.416667	-1.074113	-0.708304
H178	H	1.916667	-0.574113	-0.208304
O179	O	1.838385	-0.670680	-0.186557
O180	O	2.338385	-0.170680	0.313443
H181	H	1.896612	-0.713238	-0.128459
H182	H	2.396612	-0.213238	0.371541
H183	H	1.523467	-0.472314	-0.780306
H184	H	2.023467	0.027686	-0.280306
