data_functionalizedCrystal
_audit_creation_method	'MofGen! by Chris Wilmer'
_symmetry_space_group_name_H-M	'P1'
_symmetry_Int_Tables_number	1
_symmetry_cell_setting	triclinic
loop_
_symmetry_equiv_pos_as_xyz
  x,y,z
_cell_length_a	21.295420
_cell_length_b	21.295412
_cell_length_c	21.295418
_cell_angle_alpha	90.026512
_cell_angle_beta	89.975831
_cell_angle_gamma	89.976453
loop_
_atom_site_label
_atom_site_type_symbol
_atom_site_fract_x
_atom_site_fract_y
_atom_site_fract_z
Zn1	Zn	0.962358	-0.355930	0.250696
Zn2	Zn	0.962266	-0.250663	0.355964
Zn3	Zn	0.857083	-0.250675	0.250705
Zn4	Zn	0.857055	-0.355895	0.355923
O5	O	0.909691	-0.303291	0.303322
O6	O	1.050435	-0.341976	0.264673
O7	O	0.948287	-0.162575	0.342022
O8	O	0.871099	-0.264657	0.162614
O9	O	1.050368	-0.264637	0.342013
O10	O	0.948444	-0.341988	0.162608
O11	O	0.871010	-0.162584	0.264689
O12	O	0.768990	-0.264623	0.264649
O13	O	0.871050	-0.443989	0.341944
O14	O	0.768969	-0.341927	0.341953
O15	O	0.948416	-0.444015	0.264633
O16	O	0.948259	-0.264603	0.444048
O17	O	0.870961	-0.341916	0.444018
C18	C	0.746139	-0.303273	0.303298
C19	C	0.676171	-0.303280	0.303303
C20	C	0.176747	-0.343636	0.263146
C21	C	0.242490	-0.343636	0.263141
C22	C	0.275331	-0.303305	0.303341
C23	C	0.242425	-0.262983	0.343560
C24	C	0.176684	-0.262989	0.343568
N25	N	0.378522	-0.248186	0.308085
N26	N	0.440974	-0.248183	0.308074
C27	C	0.473406	-0.303287	0.303320
N28	N	0.441028	-0.358396	0.298566
N29	N	0.378570	-0.358399	0.298574
C30	C	0.346617	-0.303295	0.303337
C31	C	0.577590	-0.343610	0.263102
C32	C	0.643334	-0.343611	0.263102
C33	C	0.643268	-0.262952	0.343517
C34	C	0.577525	-0.262957	0.343521
C35	C	0.544690	-0.303285	0.303310
C36	C	0.909740	-0.467481	0.303283
C37	C	0.909761	-0.537449	0.303266
C38	C	0.869533	-0.570311	0.262994
C39	C	0.869531	-0.636053	0.262982
C40	C	0.909768	-0.668932	0.303236
C41	C	0.949998	-0.636063	0.343516
C42	C	0.949995	-0.570321	0.343531
N43	N	0.964872	-0.772170	0.308048
N44	N	0.964874	-0.834622	0.308030
C45	C	0.909779	-0.867007	0.303194
N46	N	0.854682	-0.834581	0.298365
N47	N	0.854681	-0.772123	0.298380
C48	C	0.909775	-0.740217	0.303225
C49	C	0.869546	-0.971154	0.262907
C50	C	0.869542	-1.036897	0.262900
C51	C	0.950015	-1.036905	0.343430
C52	C	0.950013	-0.971163	0.343441
C53	C	0.909779	-0.938291	0.303176
C54	C	1.073881	-0.303309	0.303347
C55	C	1.143849	-0.303317	0.303357
C56	C	0.909614	-0.303268	0.466874
C57	C	0.909639	-0.303279	0.536842
C58	C	0.909678	-0.139739	0.303316
C59	C	0.909779	-0.069771	0.303155
C60	C	0.909785	-0.303328	0.139132
C61	C	0.909825	-0.303343	0.069164
C62	C	0.950043	-0.343637	1.036243
C63	C	0.950024	-0.343627	0.970500
C64	C	0.909776	-0.303330	0.937681
C65	C	0.869556	-0.263028	0.970610
C66	C	0.869580	-0.263035	1.036351
N67	N	0.854639	-0.298439	0.834507
N68	N	0.854618	-0.298437	0.772056
C69	C	0.909702	-0.303307	0.739606
N70	N	0.964810	-0.308192	0.771968
N71	N	0.964830	-0.308197	0.834425
C72	C	0.909746	-0.303318	0.866396
C73	C	0.949904	-0.343592	0.635400
C74	C	0.949886	-0.343578	0.569656
C75	C	0.869412	-0.262982	0.569767
C76	C	0.869435	-0.262993	0.635510
C77	C	0.909680	-0.303301	0.668322
H78	H	0.150017	-0.376477	0.230405
H79	H	0.836784	-0.944388	0.230122
C80	C	0.860845	-1.110859	0.178219
C81	C	0.825317	-1.073027	0.218638
H82	H	0.833539	-1.133168	0.150898
H83	H	0.888277	-1.085232	0.154146
H84	H	0.884805	-1.139841	0.202203
H85	H	0.801359	-1.044042	0.194654
H86	H	0.797873	-1.098656	0.242713
H87	H	0.982640	-0.376388	0.542852
C88	C	0.183223	-0.183261	0.423054
C89	C	0.140518	-0.218662	0.387767
H90	H	0.160894	-0.155893	0.450336
H91	H	0.208867	-0.210644	0.447165
H92	H	0.208865	-0.159230	0.395588
H93	H	0.114879	-0.242697	0.415233
H94	H	0.114863	-0.191275	0.363654
H95	H	0.836644	-0.230168	0.543046
C96	C	0.789992	-0.576911	0.183391
C97	C	0.825303	-0.534179	0.218741
H98	H	0.762684	-0.554602	0.156075
H99	H	0.817435	-0.602565	0.159313
H100	H	0.765900	-0.602540	0.210815
H101	H	0.849399	-0.508553	0.191317
H102	H	0.797857	-0.508513	0.242821
C103	C	0.784869	-0.709964	0.254194
C104	C	0.825313	-0.672185	0.218709
H105	H	0.757571	-0.732266	0.226859
H106	H	0.808832	-0.738947	0.278164
H107	H	0.760768	-0.684298	0.281616
H108	H	0.849418	-0.697852	0.191290
H109	H	0.801348	-0.643199	0.194728
H110	H	0.982818	-0.376455	1.062955
C111	C	1.029552	-0.423314	0.976988
C112	C	0.994226	-0.387931	0.934304
H113	H	1.056835	-0.450669	0.954641
H114	H	1.053665	-0.395919	1.002619
H115	H	1.002111	-0.447359	1.002643
H116	H	1.021666	-0.363882	0.908651
H117	H	0.970111	-0.415329	0.908661
H118	H	0.982759	-0.662837	0.376291
C119	C	1.034699	-1.110851	0.352164
C120	C	0.994253	-1.073033	0.387676
H121	H	1.062013	-1.133151	0.379481
H122	H	1.010738	-1.139834	0.328189
H123	H	1.058783	-1.085211	0.324745
H124	H	0.970165	-1.098673	0.415092
H125	H	1.018216	-1.044046	0.411661
C126	C	0.235959	-0.423355	0.183645
C127	C	0.278662	-0.387957	0.218937
H128	H	0.258290	-0.450714	0.156354
H129	H	0.210323	-0.447391	0.211103
H130	H	0.210309	-0.395965	0.159537
H131	H	0.304309	-0.415347	0.243048
H132	H	0.304309	-0.363919	0.191476
C133	C	0.343173	-0.227155	0.379246
C134	C	0.278522	-0.218649	0.387747
H135	H	0.365456	-0.199782	0.406525
H136	H	0.353964	-0.269428	0.388512
H137	H	0.353947	-0.218013	0.336935
H138	H	0.267748	-0.227795	0.430057
H139	H	0.267728	-0.176366	0.378486
H140	H	0.550739	-0.230122	0.376263
H141	H	0.550855	-0.376447	0.230360
H142	H	0.836786	-0.230216	0.943885
H143	H	0.670119	-0.376448	0.230359
C144	C	0.744011	-0.227129	0.379211
C145	C	0.679360	-0.218620	0.387708
H146	H	0.766294	-0.199758	0.406493
H147	H	0.754798	-0.269403	0.388477
H148	H	0.754789	-0.217987	0.336902
H149	H	0.668582	-0.227767	0.430016
H150	H	0.668568	-0.176337	0.378446
C151	C	0.833735	-0.227226	0.736334
C152	C	0.825216	-0.218709	0.671701
H153	H	0.806437	-0.199883	0.758676
H154	H	0.824506	-0.269510	0.747085
H155	H	0.876040	-0.218050	0.747076
H156	H	0.782913	-0.227890	0.660959
H157	H	0.834441	-0.176416	0.660946
C158	C	0.790032	-0.183370	1.029856
C159	C	0.825364	-0.218745	1.072542
H160	H	0.762732	-0.156032	1.052200
H161	H	0.817463	-0.159314	1.004211
H162	H	0.765931	-0.210776	1.004213
H163	H	0.849468	-0.191339	1.098181
H164	H	0.797929	-0.242803	1.098197
H165	H	0.982756	-0.543566	0.376325
C166	C	0.980502	-0.450221	0.655557
C167	C	0.994136	-0.387898	0.671478
H168	H	1.007809	-0.477573	0.677828
H169	H	0.938208	-0.459382	0.666353
H170	H	0.986254	-0.455974	0.611691
H171	H	0.988379	-0.382143	0.715342
H172	H	1.036440	-0.378733	0.660686
C173	C	1.029562	-0.977777	0.423030
C174	C	0.994242	-0.935038	0.387702
H175	H	1.056869	-0.955473	0.450353
H176	H	1.002123	-1.003399	0.447101
H177	H	1.053654	-1.003436	0.395594
H178	H	0.970146	-0.909381	0.415138
H179	H	1.021683	-0.909404	0.363629
