data_functionalizedCrystal
_audit_creation_method	'MofGen! by Chris Wilmer'
_symmetry_space_group_name_H-M	'P1'
_symmetry_Int_Tables_number	1
_symmetry_cell_setting	triclinic
loop_
_symmetry_equiv_pos_as_xyz
  x,y,z
_cell_length_a	17.699104
_cell_length_b	10.654551
_cell_length_c	16.776229
_cell_angle_alpha	89.996205
_cell_angle_beta	89.991971
_cell_angle_gamma	83.888440
loop_
_atom_site_label
_atom_site_type_symbol
_atom_site_fract_x
_atom_site_fract_y
_atom_site_fract_z
O1	O	1.005079	0.158933	-0.066299
O2	O	0.784834	0.179567	-0.066297
O3	O	0.900020	-0.013577	-0.066299
O4	O	0.889893	0.352077	-0.066298
O5	O	0.900005	-0.013589	0.066278
O6	O	0.784819	0.179555	0.066280
O7	O	1.005064	0.158921	0.066277
Zn8	Zn	0.894939	0.169237	0.087328
Zn9	Zn	0.894959	0.169252	-0.087348
O10	O	0.889878	0.352066	0.066279
C11	C	0.756625	0.178817	-0.000008
C12	C	0.672594	0.176586	-0.000008
C13	C	0.899269	-0.060368	-0.000012
C14	C	0.897044	-0.199772	-0.000017
C15	C	0.148364	0.277373	-0.000016
C16	C	0.227321	0.279462	-0.000018
C17	C	0.275217	0.166080	-0.000018
C18	C	0.244153	0.050600	-0.000024
C19	C	0.165197	0.048512	-0.000027
C20	C	0.562573	0.059017	-0.000011
C21	C	0.641533	0.061114	-0.000005
C22	C	0.624696	0.289968	-0.000002
C23	C	0.545740	0.287880	-0.000005
C24	C	0.514683	0.172401	-0.000015
C25	C	0.429069	0.170137	-0.000014
C26	C	0.360830	0.168342	-0.000013
C27	C	0.896008	-0.265260	-0.072284
C28	C	0.893911	-0.396244	-0.072280
C29	C	0.893888	-0.396242	0.072262
C30	C	0.895980	-0.265259	0.072258
C31	C	0.897072	-0.199773	-0.144559
C32	C	0.896038	-0.265261	-0.216831
C33	C	0.893940	-0.396245	-0.216827
C34	C	0.892878	-0.461741	-0.144551
C35	C	1.033273	0.159671	-0.000013
C36	C	1.117304	0.161903	-0.000019
C37	C	0.890629	0.398856	-0.000009
C38	C	0.892855	0.538261	-0.000009
N39	N	0.894930	0.169225	0.206539
N40	N	0.894974	0.169254	-0.206559
C41	C	0.945951	0.083736	0.248255
C42	C	0.945955	0.083735	0.331707
C43	C	0.894942	0.169230	0.373442
C44	C	0.843916	0.254723	0.331720
C45	C	0.843909	0.254717	0.248269
C46	C	0.843944	0.254748	0.668267
C47	C	0.843957	0.254750	0.751723
C48	C	0.945990	0.083765	0.751705
C49	C	0.945982	0.083759	0.668255
C50	C	0.894954	0.169248	0.626540
C51	C	0.894949	0.169246	0.536051
C52	C	0.894950	0.169238	0.463929
H53	H	0.109371	0.369703	-0.000010
C54	C	0.892723	-0.468294	0.151760
N55	N	0.891849	-0.522564	0.211639
H56	H	0.987537	0.014152	0.785678
C57	C	0.261482	0.406489	-0.000003
N58	N	0.287211	0.502172	0.000012
H59	H	0.802362	0.324330	0.214304
C60	C	0.131033	-0.078515	-0.000028
N61	N	0.105302	-0.174195	-0.000030
H62	H	0.896807	-0.211935	0.131103
H63	H	0.891159	-0.568394	-0.144554
C64	C	0.899307	-0.055672	-0.144569
N65	N	0.900965	0.052870	-0.144577
C66	C	0.493058	0.412610	0.000001
N67	N	0.453379	0.506559	0.000004
H68	H	0.283157	-0.041718	-0.000029
C69	C	1.002070	-0.010318	0.202355
N70	N	1.044338	-0.081166	0.167785
C71	C	0.897206	-0.193212	-0.296329
N72	N	0.898088	-0.138947	-0.356209
H73	H	0.649992	0.383996	0.000003
C74	C	0.528420	-0.068013	-0.000002
N75	N	0.502694	-0.163698	0.000011
H76	H	0.680530	-0.031222	-0.000008
H77	H	0.893090	-0.449559	-0.275674
C78	C	1.002063	-0.010340	0.377592
N79	N	1.044319	-0.081214	0.412151
H80	H	0.987524	0.014146	0.634277
H81	H	0.802413	0.324373	0.785702
C82	C	0.787911	0.348950	0.622391
N83	N	0.745739	0.419966	0.587835
C84	C	0.787794	0.348757	0.377631
N85	N	0.745522	0.419585	0.412210
