data_functionalizedCrystal
_audit_creation_method	'MofGen! by Chris Wilmer'
_symmetry_space_group_name_H-M	'P1'
_symmetry_Int_Tables_number	1
_symmetry_cell_setting	triclinic
loop_
_symmetry_equiv_pos_as_xyz
  x,y,z
_cell_length_a	23.532407
_cell_length_b	19.188933
_cell_length_c	18.266242
_cell_angle_alpha	89.992377
_cell_angle_beta	89.998826
_cell_angle_gamma	97.002877
loop_
_atom_site_label
_atom_site_type_symbol
_atom_site_fract_x
_atom_site_fract_y
_atom_site_fract_z
O1	O	-0.071107	0.925921	-0.060844
O2	O	-0.080677	0.722580	-0.060850
O3	O	0.007026	0.830382	-0.060856
O4	O	-0.158811	0.818119	-0.060838
O5	O	0.007031	0.830364	0.060906
O6	O	-0.080673	0.722562	0.060912
O7	O	-0.071103	0.925903	0.060917
Zn8	Zn	-0.075887	0.824230	0.080247
Zn9	Zn	-0.075893	0.824253	-0.080179
O10	O	-0.158806	0.818101	0.060924
C11	C	-0.080365	0.696561	0.000030
C12	C	-0.079434	0.619059	0.000028
C13	C	-0.072793	0.065835	-0.066338
C14	C	-0.073664	0.138656	-0.066340
C15	C	-0.074100	0.175062	0.000032
C16	C	-0.073650	0.138643	0.066412
C17	C	-0.072773	0.065824	0.066413
N18	N	-0.107882	0.283967	0.049440
N19	N	-0.108717	0.353142	0.049434
C20	C	-0.076741	0.394462	0.000034
N21	N	-0.043906	0.363993	-0.049373
N22	N	-0.043075	0.294812	-0.049370
C23	C	-0.075050	0.254022	0.000038
C24	C	-0.078132	0.509835	-0.066345
C25	C	-0.078999	0.582658	-0.066345
C26	C	-0.078991	0.582642	0.066409
C27	C	-0.078117	0.509821	0.066407
C28	C	-0.077691	0.473421	0.000028
C29	C	-0.180025	0.818422	0.000045
C30	C	-0.243244	0.819361	0.000052
C31	C	-0.642224	0.761455	0.000013
C32	C	-0.701626	0.762327	0.000008
O33	O	-0.738257	0.708647	-0.000020
N34	N	-0.724389	0.826416	0.000011
C35	C	-0.687746	0.889636	0.000011
O36	O	-0.712562	0.944228	0.000012
C37	C	-0.628345	0.888763	0.000011
C38	C	-0.605586	0.824670	0.000016
C39	C	-0.619465	0.697367	0.000017
C40	C	-0.560067	0.696495	0.000024
C41	C	-0.523428	0.759711	0.000026
C42	C	-0.546188	0.823798	0.000022
C43	C	-0.591703	0.951983	0.000006
C44	C	-0.532299	0.951104	0.000005
C45	C	-0.509540	0.887012	0.000010
C46	C	-0.450152	0.886142	0.000031
N47	N	-0.427389	0.822054	0.000029
C48	C	-0.464027	0.758838	0.000026
C49	C	-0.812492	0.891464	0.000010
C50	C	-0.871892	0.892338	0.000015
C51	C	-0.885768	0.765029	0.000011
C52	C	-0.826368	0.764156	0.000011
C53	C	-0.789730	0.827376	0.000007
C54	C	-0.339287	0.757012	0.000040
C55	C	-0.279883	0.756145	0.000050
C56	C	-0.266012	0.883454	0.000050
C57	C	-0.325410	0.884321	0.000045
C58	C	-0.362047	0.821094	0.000037
O59	O	-0.413487	0.939794	0.000056
O60	O	-0.439203	0.704254	0.000015
C61	C	0.028245	0.830061	0.000021
C62	C	0.091464	0.829122	0.000009
C63	C	-0.071415	0.951922	0.000036
C64	C	-0.072346	1.029424	0.000034
N65	N	-0.075883	0.824218	0.189734
N66	N	-0.075893	0.824270	-0.189666
C67	C	-0.037066	0.871969	0.228040
C68	C	-0.037064	0.871973	0.304685
C69	C	-0.075887	0.824234	0.343021
C70	C	-0.114706	0.776474	0.304706
C71	C	-0.114704	0.776467	0.228062
N72	N	-0.126302	0.814997	0.463359
N73	N	-0.126303	0.815009	0.536167
C74	C	-0.075895	0.824253	0.573943
N75	N	-0.025486	0.833500	0.536161
N76	N	-0.025486	0.833492	0.463347
C77	C	-0.075894	0.824237	0.426128
C78	C	-0.037073	0.872011	0.695357
C79	C	-0.037070	0.872011	0.772003
C80	C	-0.114717	0.776515	0.772022
C81	C	-0.114716	0.776513	0.695377
C82	C	-0.075894	0.824264	0.657049
H83	H	-0.074004	0.168289	0.120453
H84	H	-0.077756	0.480175	0.120454
H85	H	-0.005458	0.910893	0.803192
H86	H	-0.005454	0.910859	0.335880
H87	H	-0.146316	0.737603	0.335923
H88	H	-0.005461	0.910892	0.664149
H89	H	-0.072443	0.036203	-0.120389
H90	H	-0.072411	0.036178	0.120462
H91	H	-0.074031	0.168308	-0.120389
H92	H	-0.146314	0.737582	0.196873
H93	H	-0.236170	0.934923	0.000056
H94	H	-0.146326	0.737642	0.803235
H95	H	-0.649290	0.645886	0.000013
H96	H	-0.146326	0.737632	0.664187
H97	H	-0.807842	0.711966	0.000018
H98	H	-0.782664	0.942949	0.000012
H99	H	-0.077782	0.480197	-0.120395
H100	H	-0.005454	0.910849	0.196836
H101	H	-0.261356	0.703951	0.000057
H102	H	-0.079359	0.612304	-0.120395
H103	H	-0.079344	0.612283	0.120451
H104	H	-0.369110	0.705526	0.000034
H105	H	-0.541542	0.644304	0.000021
H106	H	-0.915611	0.713555	0.000010
H107	H	-0.890417	0.944529	0.000023
H108	H	-0.610223	1.004174	0.000001
H109	H	-0.502470	1.002587	-0.000002
H110	H	-0.343941	0.936511	0.000051
