data_functionalizedCrystal
_audit_creation_method	'MofGen! by Chris Wilmer'
_symmetry_space_group_name_H-M	'P1'
_symmetry_Int_Tables_number	1
_symmetry_cell_setting	triclinic
loop_
_symmetry_equiv_pos_as_xyz
  x,y,z
_cell_length_a	12.827893
_cell_length_b	21.295417
_cell_length_c	12.827885
_cell_angle_alpha	89.962947
_cell_angle_beta	89.980728
_cell_angle_gamma	90.029673
loop_
_atom_site_label
_atom_site_type_symbol
_atom_site_fract_x
_atom_site_fract_y
_atom_site_fract_z
Zn1	Zn	1.597566	-0.250579	-0.590796
Zn2	Zn	1.597416	-0.355861	-0.416034
Zn3	Zn	1.422807	-0.250610	-0.416070
Zn4	Zn	1.422749	-0.355814	-0.590734
O5	O	1.510134	-0.303216	-0.503408
O6	O	1.743782	-0.264552	-0.567624
O7	O	1.574216	-0.341932	-0.269803
O8	O	1.446076	-0.162516	-0.439288
O9	O	1.743672	-0.341902	-0.439228
O10	O	1.574471	-0.162494	-0.567659
O11	O	1.445931	-0.264604	-0.269829
O12	O	1.276563	-0.264559	-0.439228
O13	O	1.445977	-0.341822	-0.736978
O14	O	1.276520	-0.341852	-0.567553
O15	O	1.574414	-0.264506	-0.737024
O16	O	1.574159	-0.443944	-0.439168
O17	O	1.445832	-0.443910	-0.567519
C18	C	1.238625	-0.303204	-0.503388
C19	C	1.122471	-0.303214	-0.503405
C20	C	0.950636	-0.264927	-0.440036
C21	C	1.070686	-0.264916	-0.440018
C22	C	1.510001	-0.466768	-0.503355
C23	C	1.510040	-0.536736	-0.503368
C24	C	1.576857	-0.569534	-0.570258
C25	C	1.576893	-0.635276	-0.570284
C26	C	1.510125	-0.668218	-0.503401
C27	C	1.443295	-0.635413	-0.436506
C28	C	1.443253	-0.569672	-0.436489
N29	N	1.502229	-0.771487	-0.411945
N30	N	1.502275	-0.833938	-0.411964
C31	C	1.510247	-0.866293	-0.503448
N32	N	1.518191	-0.833838	-0.594915
N33	N	1.518150	-0.771380	-0.594895
C34	C	1.510163	-0.739504	-0.503412
C35	C	1.577107	-0.970376	-0.570372
C36	C	1.577136	-1.036120	-0.570399
C37	C	1.443543	-1.036255	-0.436612
C38	C	1.443508	-0.970513	-0.436594
C39	C	1.510296	-0.937577	-0.503472
C40	C	1.782704	-0.303229	-0.503429
C41	C	1.898858	-0.303234	-0.503438
C42	C	1.510206	-0.303156	-0.775979
C43	C	1.510236	-0.303130	-0.892132
C44	C	1.510297	-0.139026	-0.503484
C45	C	1.510366	-0.069058	-0.503517
C46	C	1.573798	-0.264864	-0.943939
C47	C	1.573830	-0.264837	-1.063990
C48	C	1.510124	-0.303231	-0.231898
C49	C	1.510296	-0.303079	-0.115746
H50	H	1.115215	-0.232122	-0.385734
C51	C	1.650399	-0.671362	-0.643867
C52	C	1.605108	-0.716544	-0.725885
C53	C	1.678614	-0.752626	-0.799467
C54	C	1.797411	-0.743528	-0.791032
C55	C	1.842708	-0.698345	-0.709010
C56	C	1.769202	-0.662262	-0.635427
H57	H	1.517162	-0.723281	-0.732132
H58	H	1.645082	-0.786074	-0.860185
H59	H	1.851824	-0.770239	-0.845502
H60	H	1.930654	-0.691608	-0.702762
H61	H	1.802735	-0.628814	-0.574710
H62	H	1.628187	-0.232122	-0.899416
H63	H	1.631236	-0.542719	-0.624717
C64	C	1.647350	-0.220576	-1.124168
C65	C	1.638903	-0.149009	-1.109294
C66	C	1.712426	-0.104747	-1.169474
C67	C	1.794395	-0.132051	-1.244529
C68	C	1.802846	-0.203621	-1.259407
C69	C	1.729323	-0.247884	-1.199226
H70	H	1.578221	-0.128794	-1.053730
H71	H	1.706170	-0.051765	-1.158460
H72	H	1.848821	-0.099285	-1.289079
H73	H	1.863527	-0.223837	-1.314970
H74	H	1.735579	-0.300865	-1.210240
C75	C	1.436773	-0.347342	-1.055574
C76	C	1.354803	-0.320037	-0.980520
C77	C	1.281280	-0.364300	-0.920340
C78	C	1.289726	-0.435866	-0.935214
C79	C	1.371700	-0.463175	-1.010272
C80	C	1.445223	-0.418912	-1.070452
H81	H	1.348547	-0.267056	-0.969506
H82	H	1.220598	-0.344084	-0.864777
H83	H	1.235300	-0.468632	-0.890665
H84	H	1.377955	-0.516156	-1.021286
H85	H	1.505905	-0.439128	-1.126015
H86	H	0.906089	-0.232137	-0.385773
H87	H	1.077950	-0.336014	-0.557685
C88	C	1.369849	-0.671646	-0.362931
C89	C	1.369897	-0.743959	-0.362941
C90	C	1.296444	-0.780191	-0.289368
C91	C	1.222944	-0.744111	-0.215786
C92	C	1.222893	-0.671794	-0.215773
C93	C	1.296346	-0.635562	-0.289346
H94	H	1.424309	-0.770671	-0.417414
H95	H	1.296482	-0.833725	-0.289378
H96	H	1.168570	-0.770932	-0.161323
H97	H	1.168481	-0.645081	-0.161301
H98	H	1.296308	-0.582028	-0.289337
H99	H	0.943405	-0.336019	-0.557709
H100	H	1.388841	-0.542967	-0.382018
C101	C	1.650565	-0.934142	-0.643940
C102	C	1.724057	-0.970222	-0.717530
C103	C	1.797517	-0.933990	-0.791096
C104	C	1.797484	-0.861677	-0.791071
C105	C	1.723989	-0.825593	-0.717478
C106	C	1.650530	-0.861825	-0.643912
H107	H	1.724084	-1.023756	-0.717551
H108	H	1.851923	-0.960703	-0.845575
H109	H	1.851864	-0.834856	-0.845529
H110	H	1.723963	-0.772059	-0.717457
H111	H	1.596124	-0.835113	-0.589433
H112	H	1.389172	-1.063076	-0.382161
H113	H	1.631546	-1.062823	-0.624874
H114	H	1.455836	-0.335866	-0.936655
C115	C	1.370017	-0.934433	-0.363000
C116	C	1.378622	-0.943525	-0.244212
C117	C	1.305124	-0.907446	-0.170616
C118	C	1.223023	-0.862274	-0.215808
C119	C	1.214415	-0.853179	-0.334602
C120	C	1.287913	-0.889258	-0.408198
H121	H	1.439401	-0.976966	-0.210752
H122	H	1.311497	-0.914179	-0.082677
H123	H	1.168616	-0.835566	-0.161328
H124	H	1.153636	-0.819738	-0.368061
H125	H	1.281540	-0.882526	-0.496137
