data_functionalizedCrystal
_audit_creation_method	'MofGen! by Chris Wilmer'
_symmetry_space_group_name_H-M	'P1'
_symmetry_Int_Tables_number	1
_symmetry_cell_setting	triclinic
loop_
_symmetry_equiv_pos_as_xyz
  x,y,z
_cell_length_a	11.792241
_cell_length_b	11.792254
_cell_length_c	10.868271
_cell_angle_alpha	89.994692
_cell_angle_beta	89.999893
_cell_angle_gamma	84.196007
loop_
_atom_site_label
_atom_site_type_symbol
_atom_site_fract_x
_atom_site_fract_y
_atom_site_fract_z
O1	O	1.506915	0.155568	-0.102203
O2	O	1.756915	0.405568	0.147797
O3	O	2.006915	0.655568	0.397797
O4	O	2.256915	0.905568	0.647797
O5	O	1.176575	0.171600	-0.102232
O6	O	1.426575	0.421600	0.147768
O7	O	1.676575	0.671600	0.397768
O8	O	1.926575	0.921600	0.647768
O9	O	1.349754	-0.001586	-0.102208
O10	O	1.599754	0.248414	0.147792
O11	O	1.849754	0.498414	0.397792
O12	O	2.099754	0.748414	0.647792
O13	O	1.333736	0.328754	-0.102227
O14	O	1.583736	0.578754	0.147773
O15	O	1.833736	0.828754	0.397773
O16	O	2.083736	1.078754	0.647773
O17	O	1.349740	-0.001592	0.102436
O18	O	1.599740	0.248408	0.352436
O19	O	1.849740	0.498408	0.602436
O20	O	2.099740	0.748408	0.852436
O21	O	1.176561	0.171594	0.102413
O22	O	1.426561	0.421594	0.352413
O23	O	1.676561	0.671594	0.602413
O24	O	1.926561	0.921594	0.852413
O25	O	1.506901	0.155561	0.102441
O26	O	1.756901	0.405561	0.352441
O27	O	2.006901	0.655561	0.602441
O28	O	2.256901	0.905561	0.852441
Zn29	Zn	1.341729	0.163576	0.134919
Zn30	Zn	1.591729	0.413576	0.384919
Zn31	Zn	1.841729	0.663576	0.634919
Zn32	Zn	2.091729	0.913576	0.884919
Zn33	Zn	1.341748	0.163585	-0.134709
Zn34	Zn	1.591748	0.413585	0.115291
Zn35	Zn	1.841748	0.663585	0.365291
Zn36	Zn	2.091748	0.913585	0.615291
O37	O	1.333722	0.328747	0.102418
O38	O	1.583722	0.578747	0.352418
O39	O	1.833722	0.828747	0.602418
O40	O	2.083722	1.078747	0.852418
C41	C	1.134277	0.170590	0.000087
C42	C	1.384277	0.420590	0.250087
C43	C	1.634277	0.670590	0.500087
C44	C	1.884277	0.920590	0.750087
C45	C	1.008263	0.167576	0.000076
C46	C	1.258263	0.417576	0.250076
C47	C	1.508263	0.667576	0.500076
C48	C	1.758263	0.917576	0.750076
C49	C	1.348738	-0.043880	0.000114
C50	C	1.598738	0.206120	0.250114
C51	C	1.848738	0.456120	0.500114
C52	C	2.098738	0.706120	0.750114
C53	C	1.345718	-0.169893	0.000112
C54	C	1.595718	0.080107	0.250112
C55	C	1.845718	0.330107	0.500112
C56	C	2.095718	0.580107	0.750112
C57	C	1.343264	-0.272229	0.000108
C58	C	1.593264	-0.022229	0.250108
C59	C	1.843264	0.227771	0.500108
C60	C	2.093264	0.477771	0.750108
C61	C	1.340196	-0.400616	0.000096
C62	C	1.590196	-0.150616	0.250096
C63	C	1.840196	0.099384	0.500096
C64	C	2.090196	0.349384	0.750096
C65	C	0.777551	0.162033	0.000112
C66	C	1.027551	0.412033	0.250112
C67	C	1.277551	0.662033	0.500112
C68	C	1.527551	0.912033	0.750112
C69	C	0.905936	0.165112	0.000092
C70	C	1.155936	0.415112	0.250092
C71	C	1.405936	0.665112	0.500092
C72	C	1.655936	0.915112	0.750092
C73	C	1.549199	0.156571	0.000120
C74	C	1.799199	0.406571	0.250120
C75	C	2.049199	0.656571	0.500120
C76	C	2.299199	0.906571	0.750120
C77	C	1.675213	0.159586	0.000123
C78	C	1.925213	0.409586	0.250123
C79	C	2.175213	0.659586	0.500123
C80	C	2.425213	0.909586	0.750123
C81	C	1.334738	0.371041	0.000093
C82	C	1.584738	0.621041	0.250093
C83	C	1.834738	0.871041	0.500093
C84	C	2.084738	1.121041	0.750093
C85	C	1.337758	0.497054	0.000086
C86	C	1.587758	0.747054	0.250086
C87	C	1.837758	0.997054	0.500086
C88	C	2.087758	1.247054	0.750086
N89	N	1.341724	0.163569	0.318933
N90	N	1.591724	0.413569	0.568933
N91	N	1.841724	0.663569	0.818933
N92	N	2.091724	0.913569	1.068933
N93	N	1.341761	0.163583	-0.318724
N94	N	1.591761	0.413583	-0.068724
N95	N	1.841761	0.663583	0.181276
N96	N	2.091761	0.913583	0.431276
C97	C	1.341742	0.163583	0.569939
C98	C	1.591742	0.413583	0.819939
C99	C	1.841742	0.663583	1.069939
C100	C	2.091742	0.913583	1.319939
C101	C	1.341728	0.163579	0.430261
C102	C	1.591728	0.413579	0.680261
C103	C	1.841728	0.663579	0.930261
C104	C	2.091728	0.913579	1.180261
