data_functionalizedCrystal
_audit_creation_method	'MofGen! by Chris Wilmer'
_symmetry_space_group_name_H-M	'P1'
_symmetry_Int_Tables_number	1
_symmetry_cell_setting	triclinic
loop_
_symmetry_equiv_pos_as_xyz
  x,y,z
_cell_length_a	29.839135
_cell_length_b	29.839131
_cell_length_c	12.645323
_cell_angle_alpha	90.040367
_cell_angle_beta	90.025719
_cell_angle_gamma	90.037758
loop_
_atom_site_label
_atom_site_type_symbol
_atom_site_fract_x
_atom_site_fract_y
_atom_site_fract_z
Zn1	Zn	0.686784	-0.178819	0.599418
Zn2	Zn	0.686711	-0.253951	0.422110
Zn3	Zn	0.611654	-0.178839	0.422153
Zn4	Zn	0.611623	-0.253926	0.599316
O5	O	0.649193	-0.216384	0.510749
O6	O	0.749642	-0.188788	0.575923
O7	O	0.676737	-0.244006	0.273769
O8	O	0.621663	-0.115970	0.445728
O9	O	0.749588	-0.243987	0.445655
O10	O	0.676862	-0.115955	0.575964
O11	O	0.621592	-0.188822	0.273800
O12	O	0.548783	-0.188798	0.445630
O13	O	0.621611	-0.243945	0.747677
O14	O	0.548760	-0.243964	0.575791
O15	O	0.676832	-0.188764	0.747752
O16	O	0.676707	-0.316815	0.445556
O17	O	0.621540	-0.316797	0.575749
C18	C	0.532471	-0.216381	0.510704
C19	C	0.482536	-0.216390	0.510710
C20	C	0.649125	-0.333107	0.510660
C21	C	0.649136	-0.383041	0.510657
C22	C	0.172918	-0.187686	0.578680
C23	C	-0.014755	-0.187689	0.578710
O24	O	-0.038999	-0.163273	0.636450
N25	N	-0.038249	-0.216385	0.510788
C26	C	-0.014822	-0.245080	0.442850
O27	O	-0.039111	-0.269484	0.385071
C28	C	0.172851	-0.245074	0.442815
C29	C	0.196342	-0.216379	0.510748
C30	C	0.196409	-0.158993	0.646607
C31	C	0.243324	-0.158994	0.646602
C32	C	0.266749	-0.187688	0.578671
C33	C	0.243257	-0.216381	0.510744
C34	C	0.196277	-0.273767	0.374872
C35	C	0.243198	-0.273762	0.374867
C36	C	0.266690	-0.245067	0.442801
C37	C	0.313597	-0.245076	0.442809
N38	N	0.337091	-0.216380	0.510730
C39	C	0.313666	-0.187686	0.578661
C40	C	-0.113352	-0.245081	0.442874
C41	C	-0.160270	-0.245083	0.442884
C42	C	-0.160201	-0.187692	0.578743
C43	C	-0.113282	-0.187692	0.578738
C44	C	-0.089859	-0.216385	0.510796
C45	C	0.412192	-0.187691	0.578648
C46	C	0.459112	-0.187696	0.578641
C47	C	0.459038	-0.245086	0.442779
C48	C	0.412123	-0.245083	0.442789
C49	C	0.388701	-0.216382	0.510728
O50	O	0.337869	-0.269475	0.385091
O51	O	0.337964	-0.163278	0.636415
C52	C	0.126002	-0.187684	0.578684
C53	C	0.102511	-0.216377	0.510757
C54	C	0.125935	-0.245071	0.442826
C55	C	0.055593	-0.216379	0.510767
C56	C	0.032169	-0.187685	0.578698
C57	C	0.055663	-0.158989	0.646619
C58	C	0.102578	-0.158990	0.646615
C59	C	0.102442	-0.273767	0.374904
C60	C	0.055526	-0.273763	0.374915
C61	C	0.032102	-0.245070	0.442846
C62	C	0.677928	-0.692642	0.578660
C63	C	0.677977	-0.880315	0.578724
O64	O	0.702390	-0.904544	0.636476
N65	N	0.649269	-0.903826	0.510867
C66	C	0.620545	-0.880416	0.442995
O67	O	0.596125	-0.904720	0.385288
C68	C	0.620494	-0.692744	0.442937
C69	C	0.649207	-0.669235	0.510791
C70	C	0.706639	-0.669133	0.646509
C71	C	0.706628	-0.622218	0.646488
C72	C	0.677907	-0.598811	0.578619
C73	C	0.649197	-0.622320	0.510770
C74	C	0.591768	-0.669335	0.375071
C75	C	0.591757	-0.622414	0.375065
C76	C	0.620470	-0.598905	0.442918
C77	C	0.620465	-0.551998	0.442880
N78	N	0.649173	-0.528487	0.510736
C79	C	0.677894	-0.551893	0.578606
C80	C	0.620574	-0.978947	0.443028
C81	C	0.620588	-1.025865	0.443041
C82	C	0.678019	-1.025760	0.578772
C83	C	0.678008	-0.978841	0.578753
C84	C	0.649282	-0.955436	0.510885
C85	C	0.677869	-0.453367	0.578557
C86	C	0.677857	-0.406448	0.578527
C87	C	0.620424	-0.406556	0.442801
C88	C	0.620438	-0.453472	0.442826
C89	C	0.649162	-0.476876	0.510713
O90	O	0.596061	-0.527740	0.385167
O91	O	0.702303	-0.527581	0.636321
C92	C	0.677939	-0.739557	0.578681
C93	C	0.649229	-0.763066	0.510832
C94	C	0.620508	-0.739659	0.442963
C95	C	0.649242	-0.809984	0.510845
C96	C	0.677963	-0.833391	0.578714
C97	C	0.706671	-0.809880	0.646571
C98	C	0.706660	-0.762964	0.646550
C99	C	0.591800	-0.763171	0.375106
C100	C	0.591813	-0.810086	0.375131
C101	C	0.620535	-0.833493	0.443001
C102	C	0.766371	-0.216388	0.510796
C103	C	0.816306	-0.216389	0.510815
C104	C	0.649226	-0.216349	0.787255
C105	C	0.649240	-0.216335	0.905085
C106	C	0.649274	-0.099206	0.510862
C107	C	0.649309	-0.049271	0.510911
C108	C	0.649186	-0.216386	0.235320
C109	C	0.649259	-0.216275	0.117490
C110	C	0.614394	-0.250885	1.072602
C111	C	0.614485	-0.251056	0.950042
C112	C	0.696573	-0.229181	0.949603
C113	C	0.696382	-0.229398	1.072201
C114	C	0.637202	-0.168744	1.072312
C115	C	0.636146	-0.169029	0.949705
H116	H	0.478236	-0.164329	0.633964
H117	H	0.478119	-0.268449	0.387473
H118	H	0.121700	-0.135624	0.701933
F119	F	0.589884	-0.478492	0.370596
H120	H	0.177342	-0.135624	0.701925
F121	F	0.731467	-0.197858	1.111021
F122	F	0.708567	-0.953826	0.650972
H123	H	0.568364	-0.603359	0.319799
H124	H	0.723246	-0.204769	0.920486
H125	H	-0.179281	-0.164328	0.634056
F126	F	0.737240	-0.834799	0.718799
F127	F	0.710164	-0.274120	0.909466
F128	F	0.666918	-0.133542	0.909720
H129	H	0.603289	-0.157034	1.103219
F130	F	0.268320	-0.128452	0.718904
F131	F	0.737209	-0.694037	0.718755
H132	H	0.662596	-0.142958	1.101345
F133	F	0.590615	-0.156368	0.911685
F134	F	0.127365	-0.304304	0.302589
H135	H	0.597211	-1.045001	0.387777
H136	H	0.701406	-1.044826	0.634032
H137	H	0.393128	-0.164318	0.633967
F138	F	0.030725	-0.128453	0.718920
H139	H	0.597041	-0.387491	0.387539
H140	H	0.597182	-0.959893	0.387759
H141	H	-0.094158	-0.164325	0.634053
H142	H	-0.179393	-0.268454	0.387578
H143	H	0.568387	-0.688468	0.319817
F144	F	0.737220	-0.737950	0.718771
F145	F	-0.088429	-0.275619	0.370548
H146	H	0.568433	-0.829223	0.319867
H147	H	0.706603	-0.264143	1.100791
H148	H	0.177159	-0.297132	0.319552
H149	H	0.579386	-0.243018	0.919941
H150	H	0.262267	-0.297127	0.319538
F151	F	0.387121	-0.275634	0.370514
H152	H	0.036403	-0.297134	0.319597
H153	H	0.568411	-0.744116	0.319840
F154	F	0.708420	-0.381431	0.650747
H155	H	0.701256	-0.472418	0.633843
F156	F	0.568379	-0.240478	1.111117
H157	H	0.622275	-0.285901	1.103400
H158	H	0.622443	-0.286293	0.920707
H159	H	0.730007	-0.603080	0.701743
