data_functionalizedCrystal
_audit_creation_method	'MofGen! by Chris Wilmer'
_symmetry_space_group_name_H-M	'P1'
_symmetry_Int_Tables_number	1
_symmetry_cell_setting	triclinic
loop_
_symmetry_equiv_pos_as_xyz
  x,y,z
_cell_length_a	14.853567
_cell_length_b	9.198806
_cell_length_c	10.723024
_cell_angle_alpha	89.997988
_cell_angle_beta	84.051400
_cell_angle_gamma	89.999027
loop_
_atom_site_label
_atom_site_type_symbol
_atom_site_fract_x
_atom_site_fract_y
_atom_site_fract_z
O1	O	1.197224	-0.120788	0.162914
O2	O	0.934867	-0.120813	0.182321
O3	O	1.072098	-0.120795	-0.009020
O4	O	1.059994	-0.120807	0.354255
O5	O	1.072087	0.120990	-0.009021
O6	O	0.934856	0.120972	0.182320
O7	O	1.197213	0.120997	0.162913
Cu8	Cu	1.066034	0.143061	0.172617
Cu9	Cu	1.066047	-0.142877	0.172617
O10	O	1.059983	0.120979	0.354254
C11	C	0.901269	0.000077	0.181441
C12	C	0.801171	0.000067	0.178806
C13	C	1.071211	0.000096	-0.055511
C14	C	1.068576	0.000091	-0.194039
N15	N	1.066031	0.344175	0.172616
C16	C	0.387978	0.000104	0.054006
C17	C	0.367897	0.000095	0.281324
C18	C	0.461944	0.000090	0.283802
C19	C	0.519013	0.000090	0.171380
C20	C	0.482034	0.000095	0.056481
C21	C	0.498930	0.000071	0.398699
C22	C	0.592982	0.000064	0.401181
C23	C	0.650052	0.000075	0.288758
C24	C	0.613068	0.000081	0.173854
C25	C	0.670137	0.000081	0.061433
C26	C	0.633155	0.000098	-0.053473
C27	C	0.539104	0.000105	-0.055942
C28	C	0.744103	0.000067	0.291228
C29	C	0.764192	0.000072	0.063907
C30	C	1.230812	0.000104	0.163793
C31	C	1.330910	0.000104	0.166428
N32	N	1.066057	-0.343991	0.172609
C33	C	1.123650	0.416380	0.091925
C34	C	1.123664	0.583792	0.091921
C35	C	1.145363	0.000096	-0.269798
C36	C	1.142641	0.000090	-0.412974
C37	C	1.060870	0.000085	0.400745
C38	C	1.063505	0.000080	0.539273
H39	H	0.679632	0.000088	-0.145006
C40	C	0.977037	0.000079	-0.249597
C41	C	0.952850	0.125626	-0.335088
C42	C	0.861308	0.125614	-0.390642
C43	C	0.793954	0.000056	-0.360704
C44	C	0.818140	-0.125500	-0.275209
C45	C	0.909682	-0.125488	-0.219655
H46	H	1.002711	0.218580	-0.357254
H47	H	0.843404	0.218560	-0.453932
H48	H	0.726189	0.000048	-0.401829
H49	H	0.768279	-0.218454	-0.253043
H50	H	0.927585	-0.218434	-0.156365
H51	H	1.016708	0.406297	0.241690
H52	H	0.810652	0.000077	-0.027642
H53	H	0.508984	0.000153	-0.149492
C54	C	1.190310	0.667664	-0.001411
C55	C	1.257011	0.584134	-0.094914
C56	C	1.323659	0.668009	-0.188249
C57	C	1.323607	0.835414	-0.188081
C58	C	1.256904	0.918954	-0.094574
C59	C	1.190256	0.835079	-0.001239
H60	H	1.257052	0.460202	-0.095041
H61	H	1.373037	0.606166	-0.257469
H62	H	1.372944	0.897503	-0.257173
H63	H	1.256863	1.042886	-0.094447
H64	H	1.140878	0.896922	0.067980
H65	H	0.357863	0.000123	-0.039547
C66	C	0.999408	0.572146	0.265944
C67	C	0.930579	0.466612	0.217222
C68	C	0.863930	0.382737	0.310557
C69	C	0.866111	0.404396	0.452614
C70	C	0.934943	0.509935	0.501343
C71	C	1.001592	0.593810	0.408008
H72	H	0.928962	0.450574	0.112056
H73	H	0.812976	0.304609	0.274483
H74	H	0.816774	0.342307	0.521706
H75	H	0.936560	0.525973	0.606509
H76	H	1.052545	0.671938	0.444082
H77	H	1.213118	0.000111	-0.228661
H78	H	1.208376	0.000101	-0.478071
H79	H	0.452459	0.000056	0.490226
H80	H	0.321427	0.000083	0.372852
H81	H	0.997766	0.000086	-0.395637
H82	H	0.623084	0.000051	0.494744
H83	H	0.774209	0.000056	0.384782
H84	H	1.172967	0.354260	0.022841
