data_functionalizedCrystal
_audit_creation_method	'MofGen! by Chris Wilmer'
_symmetry_space_group_name_H-M	'P1'
_symmetry_Int_Tables_number	1
_symmetry_cell_setting	triclinic
loop_
_symmetry_equiv_pos_as_xyz
  x,y,z
_cell_length_a	6.817900
_cell_length_b	13.563478
_cell_length_c	14.125465
_cell_angle_alpha	110.576185
_cell_angle_beta	100.398878
_cell_angle_gamma	104.707083
loop_
_atom_site_label
_atom_site_type_symbol
_atom_site_fract_x
_atom_site_fract_y
_atom_site_fract_z
V1	V	-4.018664	-0.152538	-0.340476
O2	O	-3.978018	0.008311	-0.292059
O3	O	-3.997468	-0.303400	-0.378480
O4	O	-3.954309	-0.149761	-0.470569
O5	O	-4.021476	-0.146392	-0.199333
V6	V	-4.500835	-0.133349	-0.318695
O7	O	-4.282890	-0.194630	-0.388256
O8	O	-4.686807	-0.091258	-0.270915
O9	O	-4.298825	0.017513	-0.280691
O10	O	-4.658878	-0.294198	-0.367112
O11	O	-4.615420	-0.139496	-0.459839
O12	O	-4.341984	-0.136126	-0.188602
C13	C	-3.849603	-0.340191	-0.383515
C14	C	-3.913453	-0.463520	-0.415455
C15	C	-3.976074	-0.537029	-0.522700
C16	C	-4.036026	-0.652900	-0.552700
C17	C	-4.033379	-0.695275	-0.475458
C18	C	-3.970771	-0.621766	-0.368211
C19	C	-3.910797	-0.505883	-0.338208
C20	C	-3.968102	-0.664128	-0.290965
C21	C	-3.905495	-0.590620	-0.183718
C22	C	-3.845529	-0.474748	-0.153720
C23	C	-3.848176	-0.432374	-0.230962
C24	C	-4.028077	-0.780012	-0.320969
C25	C	-3.962800	-0.748865	-0.136476
C26	C	-3.902848	-0.632994	-0.106476
C27	C	-3.794548	-0.144208	-0.500983
C28	C	-3.823394	-0.142936	-0.607600
C29	C	-3.876266	-0.140603	-0.802803
C30	C	-4.062602	-0.145282	-0.856367
C31	C	-4.092023	-0.143984	-0.964985
C32	C	-3.846837	-0.141901	-0.694175
C33	C	-4.110033	0.054297	-0.275655
C34	C	-4.025421	0.177626	-0.243722
C35	C	-4.165088	-0.141684	-0.158184
C36	C	-4.115480	-0.142950	-0.051565
H37	H	-4.079045	-0.839852	-0.408290
H38	H	-4.200041	-0.150274	-0.820654
H39	H	-3.738846	-0.135624	-0.838519
H40	H	-3.978205	-0.502515	-0.585578
H41	H	-4.082196	-0.789624	-0.499891
H42	H	-4.086997	-0.712744	-0.640021
H43	H	-3.799369	-0.338023	-0.206542
H44	H	-3.851863	-0.573127	-0.019154
H45	H	-3.960632	-0.783365	-0.073579
H46	H	-3.794533	-0.414898	-0.066392
