data_functionalizedCrystal
_audit_creation_method	'MofGen! by Chris Wilmer'
_symmetry_space_group_name_H-M	'P1'
_symmetry_Int_Tables_number	1
_symmetry_cell_setting	triclinic
loop_
_symmetry_equiv_pos_as_xyz
  x,y,z
_cell_length_a	27.732048
_cell_length_b	14.044220
_cell_length_c	12.503572
_cell_angle_alpha	86.156832
_cell_angle_beta	86.516589
_cell_angle_gamma	92.084234
loop_
_atom_site_label
_atom_site_type_symbol
_atom_site_fract_x
_atom_site_fract_y
_atom_site_fract_z
O1	O	0.648762	-0.107201	-0.089184
O2	O	1.148762	0.392799	0.410816
O3	O	0.508774	-0.124338	-0.089216
O4	O	1.008774	0.375662	0.410784
O5	O	0.576666	0.022184	-0.089190
O6	O	1.076666	0.522184	0.410810
O7	O	0.580869	-0.253723	-0.089210
O8	O	1.080869	0.246277	0.410790
O9	O	0.571561	0.011146	0.089450
O10	O	1.071561	0.511146	0.589450
O11	O	0.503669	-0.135375	0.089424
O12	O	1.003669	0.364625	0.589424
O13	O	0.643657	-0.118239	0.089456
O14	O	1.143657	0.381761	0.589456
Cu15	Cu	0.573197	-0.127815	0.105751
Cu16	Cu	1.073197	0.372185	0.605751
Cu17	Cu	0.579234	-0.114762	-0.105511
Cu18	Cu	1.079234	0.385238	0.394489
O19	O	0.575764	-0.264760	0.089430
O20	O	1.075764	0.235240	0.589430
C21	C	0.488197	-0.129496	0.000100
C22	C	0.988197	0.370504	0.500100
C23	C	0.434492	-0.128412	0.000087
C24	C	0.934492	0.371588	0.500087
N25	N	0.568954	-0.136995	0.254342
N26	N	1.068954	0.363005	0.754342
C27	C	0.572274	0.051953	0.000130
C28	C	1.072274	0.551953	0.500130
C29	C	0.566787	0.157098	0.000130
C30	C	1.066787	0.657098	0.500130
C31	C	0.099419	-0.208180	0.000128
C32	C	0.599419	0.291820	0.500128
C33	C	-0.102429	-0.204162	0.000138
C34	C	0.397571	0.295838	0.500138
O35	O	-0.130263	-0.277104	0.000179
O36	O	0.369737	0.222896	0.500179
N37	N	-0.125630	-0.117280	0.000142
N38	N	0.374370	0.382720	0.500142
C39	C	-0.098366	-0.031397	0.000151
C40	C	0.401634	0.468603	0.500151
O41	O	-0.122732	0.042593	0.000166
O42	O	0.377268	0.542593	0.500166
C43	C	0.103481	-0.035417	0.000149
C44	C	0.603481	0.464583	0.500149
C45	C	0.126680	-0.122304	0.000134
C46	C	0.626680	0.377696	0.500134
C47	C	0.122618	-0.295060	0.000114
C48	C	0.622618	0.204940	0.500114
C49	C	0.173077	-0.296063	0.000105
C50	C	0.673077	0.203937	0.500105
C51	C	0.200338	-0.210187	0.000111
C52	C	0.700338	0.289813	0.500111
C53	C	0.177139	-0.123307	0.000125
C54	C	0.677139	0.376693	0.500125
C55	C	0.130744	0.050464	0.000166
C56	C	0.630744	0.550464	0.500166
C57	C	0.181209	0.049451	0.000168
C58	C	0.681209	0.549451	0.500168
C59	C	0.204407	-0.037436	0.000153
C60	C	0.704407	0.462564	0.500153
C61	C	0.254859	-0.038434	0.000123
C62	C	0.754859	0.461566	0.500123
N63	N	0.278060	-0.125316	0.000119
N64	N	0.778060	0.374684	0.500119
C65	C	0.250799	-0.211193	0.000113
C66	C	0.750799	0.288807	0.500113
C67	C	-0.204339	-0.029293	0.000150
C68	C	0.295661	0.470707	0.500150
C69	C	-0.254801	-0.028287	0.000149
C70	C	0.245199	0.471713	0.500149
C71	C	-0.258860	-0.201052	0.000138
C72	C	0.241140	0.298948	0.500138
C73	C	-0.208398	-0.202056	0.000131
C74	C	0.291602	0.297944	0.500131
C75	C	-0.181138	-0.116174	0.000146
C76	C	0.318862	0.383826	0.500146
C77	C	0.356768	-0.213293	0.000094
C78	C	0.856768	0.286707	0.500094
C79	C	0.407232	-0.214289	0.000081
C80	C	0.907232	0.285711	0.500081
C81	C	0.411287	-0.041524	0.000099
C82	C	0.911287	0.458476	0.500099
C83	C	0.360827	-0.040528	0.000106
C84	C	0.860827	0.459472	0.500106
C85	C	0.333569	-0.126420	0.000107
C86	C	0.833569	0.373580	0.500107
O87	O	0.282722	0.034468	0.000094
O88	O	0.782722	0.534468	0.500094
O89	O	0.275173	-0.285173	0.000121
O90	O	0.775173	0.214827	0.500121
C91	C	0.048960	-0.207177	0.000136
C92	C	0.548960	0.292823	0.500136
C93	C	0.025761	-0.120297	0.000150
C94	C	0.525761	0.379703	0.500150
C95	C	0.053021	-0.034421	0.000156
C96	C	0.553021	0.465579	0.500156
C97	C	-0.024701	-0.119292	0.000149
C98	C	0.475299	0.380708	0.500149
C99	C	-0.051961	-0.205168	0.000143
C100	C	0.448039	0.294832	0.500143
C101	C	-0.028760	-0.292050	0.000139
C102	C	0.471240	0.207950	0.500139
C103	C	0.021699	-0.293053	0.000130
C104	C	0.521699	0.206947	0.500130
C105	C	0.029820	0.052461	0.000161
C106	C	0.529820	0.552461	0.500161
C107	C	-0.020639	0.053457	0.000168
C108	C	0.479361	0.553457	0.500168
C109	C	-0.047900	-0.032419	0.000162
C110	C	0.452100	0.467581	0.500162
C111	C	0.664233	-0.113080	0.000138
C112	C	1.164233	0.386920	0.500138
C113	C	0.717939	-0.114164	0.000143
C114	C	1.217939	0.385836	0.500143
C115	C	0.580156	-0.294529	0.000107
C116	C	1.080156	0.205471	0.500107
C117	C	0.585644	-0.399674	0.000100
C118	C	1.085644	0.100326	0.500100
C119	C	0.556756	0.349613	0.000112
C120	C	1.056756	0.849613	0.500112
C121	C	0.595673	0.407816	0.000118
C122	C	1.095673	0.907816	0.500118
C123	C	0.590091	0.514939	0.000108
C124	C	1.090091	1.014939	0.500108
C125	C	0.562337	0.242481	0.000122
C126	C	1.062337	0.742481	0.500122
N127	N	0.583480	-0.105574	-0.254102
N128	N	1.083480	0.394426	0.245898
C129	C	0.562713	-0.150507	0.473455
C130	C	1.062713	0.349493	0.973455
C131	C	0.589720	-0.092065	0.526792
C132	C	1.089720	0.407935	1.026792
C133	C	0.586247	-0.099583	0.648714
C134	C	1.086247	0.400417	1.148714
C135	C	0.566185	-0.142990	0.351522
C136	C	1.066185	0.357010	0.851522
H137	H	0.426118	-0.285045	0.000068
H138	H	0.926118	0.214955	0.500068
H139	H	0.633184	0.377199	0.000055
H140	H	1.133184	0.877199	0.500055
H141	H	-0.189513	-0.272807	0.000125
H142	H	0.310487	0.227193	0.500125
H143	H	0.615450	-0.036385	0.480889
H144	H	1.115450	0.463615	0.980889
H145	H	0.519250	0.380234	0.000101
H146	H	1.019250	0.880234	0.500101
H147	H	0.334579	-0.283235	0.000099
H148	H	0.834579	0.216765	0.500099
H149	H	0.191961	-0.366816	0.000093
H150	H	0.691961	0.133184	0.500093
H151	H	0.536985	-0.206185	0.519352
H152	H	1.036985	0.293815	1.019352
H153	H	-0.281064	-0.270976	0.000133
H154	H	0.218936	0.229024	0.500133
H155	H	0.100427	-0.364995	0.000113
H156	H	0.600427	0.135005	0.500113
H157	H	-0.182149	0.040647	0.000162
H158	H	0.317851	0.540647	0.500162
H159	H	0.111864	0.121216	0.000179
H160	H	0.611864	0.621216	0.500179
H161	H	-0.273684	0.042466	0.000145
H162	H	0.226316	0.542466	0.500145
H163	H	0.040583	-0.363806	0.000119
H164	H	0.540583	0.136194	0.500119
H165	H	0.203401	0.119388	0.000181
H166	H	0.703401	0.619388	0.500181
H167	H	0.433491	0.028394	0.000099
H168	H	0.933491	0.528394	0.500099
H169	H	0.341938	0.030223	0.000103
H170	H	0.841938	0.530223	0.500103
H171	H	-0.039523	0.124217	0.000172
H172	H	0.460477	0.624217	0.500172
H173	H	-0.050964	-0.361973	0.000130
H174	H	0.449036	0.138027	0.500130
H175	H	0.052011	0.122393	0.000168
H176	H	0.552011	0.622393	0.500168
