data_functionalizedCrystal
_audit_creation_method	'MofGen! by Chris Wilmer'
_symmetry_space_group_name_H-M	'P1'
_symmetry_Int_Tables_number	1
_symmetry_cell_setting	triclinic
loop_
_symmetry_equiv_pos_as_xyz
  x,y,z
_cell_length_a	10.968094
_cell_length_b	10.268362
_cell_length_c	11.792253
_cell_angle_alpha	89.993099
_cell_angle_beta	95.539286
_cell_angle_gamma	77.877184
loop_
_atom_site_label
_atom_site_type_symbol
_atom_site_fract_x
_atom_site_fract_y
_atom_site_fract_z
O1	O	1.656704	-0.263451	-0.159168
O2	O	1.293528	-0.181949	-0.174410
O3	O	1.483921	-0.224703	-0.001639
O4	O	1.466311	-0.220697	-0.331939
O5	O	1.483903	-0.441300	-0.001644
O6	O	1.293510	-0.398546	-0.174416
O7	O	1.656686	-0.480048	-0.159174
Cu8	Cu	1.475096	-0.459074	-0.166795
Cu9	Cu	1.475118	-0.202923	-0.166789
O10	O	1.466293	-0.437294	-0.331945
C11	C	1.247024	-0.279814	-0.173305
C12	C	1.108485	-0.248724	-0.169989
N13	N	1.475090	-0.639238	-0.166800
C14	C	0.903515	-0.314927	-0.165074
C15	C	1.046702	-0.347072	-0.168510
C16	C	1.475099	-0.757082	-0.166800
C17	C	1.475115	-0.904924	-0.166790
C18	C	1.703190	-0.382180	-0.160279
C19	C	1.841730	-0.413261	-0.163595
C20	C	1.482803	-0.332757	0.040652
C21	C	1.479482	-0.332024	0.166672
N22	N	1.475134	-0.022761	-0.166775
C23	C	1.476785	-0.331425	0.269014
C24	C	1.473411	-0.330670	0.397408
C25	C	1.467411	-0.329264	0.625764
C26	C	1.470732	-0.330069	0.499744
H27	H	1.099806	-0.455064	-0.169781
C28	C	0.831780	-0.169042	-0.163349
C29	C	0.755761	-0.119639	-0.062813
C30	C	0.684029	0.026250	-0.061089
C31	C	0.688316	0.122736	-0.159900
C32	C	0.764338	0.073336	-0.260443
C33	C	0.836071	-0.072553	-0.262168
H34	H	0.752584	-0.191066	0.010339
H35	H	0.627752	0.062819	0.013341
H36	H	0.635215	0.230732	-0.158623
H37	H	0.767515	0.144762	-0.333596
H38	H	0.892348	-0.109122	-0.336598
C39	C	1.036763	-0.102828	-0.168264
C40	C	0.960746	-0.053418	-0.067728
C41	C	0.889026	0.092476	-0.066004
C42	C	0.893322	0.188958	-0.164815
C43	C	0.969342	0.139549	-0.265359
C44	C	1.041062	-0.006344	-0.267083
H45	H	0.957563	-0.124841	0.005425
H46	H	0.832751	0.129051	0.008426
H47	H	0.840231	0.296957	-0.163539
H48	H	0.972525	0.210973	-0.338512
H49	H	1.097337	-0.042919	-0.341513
C50	C	0.913462	-0.559147	-0.165320
C51	C	0.989480	-0.608552	-0.265856
C52	C	1.061208	-0.754443	-0.267581
C53	C	1.056918	-0.850928	-0.168769
C54	C	0.980897	-0.801525	-0.068226
C55	C	0.909168	-0.655634	-0.066501
H56	H	0.992659	-0.537127	-0.339009
H57	H	1.117485	-0.791014	-0.342010
H58	H	1.110016	-0.958925	-0.170046
H59	H	0.977718	-0.872950	0.004927
H60	H	0.852892	-0.619063	0.007928
