data_functionalizedCrystal
_audit_creation_method	'MofGen! by Chris Wilmer'
_symmetry_space_group_name_H-M	'P1'
_symmetry_Int_Tables_number	1
_symmetry_cell_setting	triclinic
loop_
_symmetry_equiv_pos_as_xyz
  x,y,z
_cell_length_a	16.625548
_cell_length_b	16.625546
_cell_length_c	21.395355
_cell_angle_alpha	90.018476
_cell_angle_beta	90.024527
_cell_angle_gamma	90.023536
loop_
_atom_site_label
_atom_site_type_symbol
_atom_site_fract_x
_atom_site_fract_y
_atom_site_fract_z
Zn1	Zn	1.232712	-0.321072	0.354261
Zn2	Zn	1.232606	-0.455887	0.249484
Zn3	Zn	1.097864	-0.321075	0.249498
Zn4	Zn	1.097844	-0.455869	0.354224
O5	O	1.165257	-0.388476	0.301867
O6	O	1.345530	-0.338962	0.340372
O7	O	1.214696	-0.438013	0.161808
O8	O	1.115805	-0.208242	0.263417
O9	O	1.345452	-0.438010	0.263392
O10	O	1.214877	-0.208240	0.340386
O11	O	1.115702	-0.338967	0.161818
O12	O	0.985029	-0.338949	0.263380
O13	O	1.115771	-0.437979	0.441907
O14	O	0.985014	-0.437982	0.340322
O15	O	1.214857	-0.338944	0.441934
O16	O	1.214677	-0.568717	0.263356
O17	O	1.115668	-0.568704	0.340309
C18	C	0.955766	-0.388464	0.301849
C19	C	0.866145	-0.388479	0.301857
C20	C	0.537969	-0.388484	0.301883
C21	C	0.629277	-0.388480	0.301874
C22	C	0.702054	-0.388482	0.301869
C23	C	0.793368	-0.388477	0.301861
C24	C	1.165180	-0.597967	0.301841
C25	C	1.165221	-0.687588	0.301850
C26	C	1.165362	-1.015763	0.301915
C27	C	1.165320	-0.924455	0.301899
C28	C	1.165291	-0.851678	0.301883
C29	C	1.165251	-0.760364	0.301867
C30	C	1.375565	-0.388488	0.301885
C31	C	1.465187	-0.388493	0.301892
C32	C	1.165324	-0.388459	0.465290
C33	C	1.165352	-0.388452	0.534931
C34	C	1.165355	-0.178167	0.301907
C35	C	1.165397	-0.088546	0.301924
C36	C	1.165236	-0.388434	0.139079
C37	C	1.165364	-0.388214	0.069438
C38	C	1.216944	-0.336883	0.567660
C39	C	1.216943	-0.336848	0.633095
C40	C	1.165358	-0.388397	0.665800
C41	C	1.113756	-0.439971	0.633063
C42	C	1.113753	-0.439998	0.567629
C43	C	1.158965	-0.460998	0.769465
C44	C	1.158974	-0.460972	0.834898
C45	C	1.165363	-0.388312	0.867621
C46	C	1.171761	-0.315676	0.834902
C47	C	1.171758	-0.315704	0.769468
C48	C	1.165356	-0.388373	0.736752
C49	C	1.216957	-0.336701	0.971302
C50	C	1.216950	-0.336665	1.036738
C51	C	1.113767	-0.439794	1.036705
C52	C	1.113770	-0.439823	0.971270
C53	C	1.165369	-0.388278	0.938572
H54	H	1.258954	-0.294850	0.659748
O55	O	1.266985	-0.286512	0.939560
C56	C	1.249414	-0.206142	0.955550
H57	H	1.185002	-0.202058	0.973517
H58	H	1.256376	-0.166330	0.912517
H59	H	1.292654	-0.185047	0.993544
H60	H	1.153770	-0.520117	0.861533
O61	O	1.063614	-0.490177	0.535931
C62	C	1.018065	-0.535654	0.578824
H63	H	1.051086	-0.538424	0.625481
H64	H	1.009438	-0.599191	0.559918
H65	H	0.956839	-0.506123	0.585759
H66	H	1.071753	-0.481940	0.659696
H67	H	1.071758	-0.481759	1.063333
O68	O	1.267086	-0.286731	0.535995
C69	C	1.312637	-0.241221	0.578919
H70	H	1.279614	-0.238410	0.625553
H71	H	1.321267	-0.177700	0.560018
H72	H	1.373860	-0.270749	0.585896
O73	O	1.177850	-0.245192	0.737616
C74	C	1.109199	-0.234815	0.699760
H75	H	1.080644	-0.295882	0.689953
H76	H	1.127418	-0.205449	0.653750
H77	H	1.064023	-0.194725	0.724965
H78	H	1.176965	-0.256510	0.861543
H79	H	1.258962	-0.294666	1.063385
O80	O	1.063631	-0.489999	0.939571
C81	C	1.018083	-0.535475	0.982465
H82	H	1.051110	-0.538253	1.029119
H83	H	1.009448	-0.599010	0.963556
H84	H	0.956861	-0.505939	0.989407
H85	H	1.153547	-0.520152	0.742828
