data_functionalizedCrystal
_audit_creation_method	'MofGen! by Chris Wilmer'
_symmetry_space_group_name_H-M	'P1'
_symmetry_Int_Tables_number	1
_symmetry_cell_setting	triclinic
loop_
_symmetry_equiv_pos_as_xyz
  x,y,z
_cell_length_a	10.723022
_cell_length_b	10.540514
_cell_length_c	9.198806
_cell_angle_alpha	89.999975
_cell_angle_beta	89.996352
_cell_angle_gamma	84.491193
loop_
_atom_site_label
_atom_site_type_symbol
_atom_site_fract_x
_atom_site_fract_y
_atom_site_fract_z
O1	O	1.657261	0.178038	-0.120872
O2	O	1.294116	0.195083	-0.120876
O3	O	1.483990	0.001848	-0.120876
O4	O	1.467387	0.371274	-0.120872
O5	O	1.483975	0.001847	0.120909
O6	O	1.294101	0.195083	0.120909
O7	O	1.657246	0.178038	0.120913
Cu8	Cu	1.475672	0.186560	0.142988
Cu9	Cu	1.475690	0.186561	-0.142951
O10	O	1.467372	0.371273	0.120913
C11	C	1.247608	0.193843	0.000016
C12	C	1.109052	0.190133	0.000014
C13	C	1.482744	-0.045455	0.000013
C14	C	1.479039	-0.186403	0.000002
C15	C	0.890916	0.294420	0.000012
C16	C	1.034121	0.298257	0.000014
C17	C	1.614835	-0.257179	0.000008
C18	C	1.611026	-0.403790	0.000566
C19	C	1.405178	-0.378700	0.137816
C20	C	1.409949	-0.232163	0.137922
C21	C	1.407957	-0.231763	-0.137043
C22	C	1.406647	-0.378742	-0.138844
C23	C	1.703754	0.179278	0.000018
C24	C	1.842310	0.182988	0.000010
C25	C	1.468618	0.418576	0.000021
C26	C	1.472323	0.559524	0.000022
N27	N	1.475669	0.186559	0.344102
N28	N	1.475703	0.186552	-0.344065
C29	C	1.555391	0.105067	0.416299
C30	C	1.555411	0.105063	0.583711
H31	H	0.826512	0.386981	0.000004
O32	O	1.059204	0.076270	0.000267
C33	C	1.099381	0.006785	0.125468
H34	H	1.127147	0.075287	0.212996
H35	H	1.019970	-0.047799	0.167498
H36	H	1.183511	-0.063321	0.097154
O37	O	0.919260	0.072642	-0.000185
C38	C	0.995374	0.067832	-0.125427
H39	H	1.002719	0.168674	-0.167175
H40	H	1.092831	0.021516	-0.097266
H41	H	0.952123	0.009417	-0.213112
H42	H	1.663839	-0.446483	-0.098186
H43	H	1.455717	-0.419764	-0.240786
H44	H	1.407450	0.256329	0.593858
H45	H	1.458976	-0.203963	0.241320
O46	O	1.673786	-0.453839	0.118963
C47	C	1.670572	-0.587246	0.119939
H48	H	1.653955	-0.621910	0.004799
H49	H	1.763690	-0.634467	0.162075
H50	H	1.591477	-0.613238	0.193729
H51	H	1.407425	0.256320	0.406230
H52	H	1.669921	-0.228687	-0.098806
O53	O	1.461712	-0.194069	-0.261727
C54	C	1.373141	-0.115074	-0.341933
H55	H	1.297137	-0.070999	-0.265658
H56	H	1.421676	-0.036169	-0.396717
H57	H	1.328992	-0.174173	-0.428277
O58	O	1.286107	-0.407767	-0.149205
C59	C	1.284188	-0.541119	-0.157799
H60	H	1.373957	-0.589728	-0.108569
H61	H	1.199932	-0.570829	-0.095254
H62	H	1.277120	-0.570630	-0.276520
O63	O	1.083887	0.412163	-0.000180
C64	C	1.043760	0.481613	-0.125424
H65	H	0.953126	0.446352	-0.167173
H66	H	1.026754	0.587182	-0.097264
H67	H	1.118949	0.467467	-0.213107
H68	H	1.669148	-0.226890	0.098604
O69	O	1.290889	-0.174960	0.144740
C70	C	1.222534	-0.211281	0.023193
H71	H	1.267849	-0.305553	-0.021472
H72	H	1.122023	-0.222909	0.057162
H73	H	1.222457	-0.134755	-0.064396
O74	O	1.283688	-0.405423	0.143292
C75	C	1.257507	-0.480512	0.022240
H76	H	1.348437	-0.532082	-0.020588
H77	H	1.191179	-0.553474	0.056150
H78	H	1.211736	-0.416702	-0.066727
O79	O	1.459923	-0.429623	0.260671
C80	C	1.370503	-0.488150	0.343066
H81	H	1.291569	-0.513777	0.268838
H82	H	1.417001	-0.578403	0.395994
H83	H	1.330632	-0.419599	0.430991
O84	O	1.288544	-0.175116	-0.138724
C85	C	1.290723	-0.041662	-0.143970
H86	H	1.383897	-0.017659	-0.191214
H87	H	1.210758	0.001428	-0.215486
H88	H	1.279275	-0.000840	-0.029456
O89	O	1.636658	0.021829	0.342002
C90	C	1.568871	-0.056850	0.253955
H91	H	1.471732	-0.006961	0.231357
H92	H	1.620641	-0.076421	0.146837
H93	H	1.559424	-0.150789	0.312473
O94	O	1.636784	0.021649	0.657611
C95	C	1.615044	-0.104143	0.620556
H96	H	1.567010	-0.104384	0.510016
H97	H	1.708149	-0.166048	0.615485
H98	H	1.552394	-0.143715	0.706201
