data_functionalizedCrystal
_audit_creation_method	'MofGen! by Chris Wilmer'
_symmetry_space_group_name_H-M	'P1'
_symmetry_Int_Tables_number	1
_symmetry_cell_setting	triclinic
loop_
_symmetry_equiv_pos_as_xyz
  x,y,z
_cell_length_a	21.395362
_cell_length_b	13.897448
_cell_length_c	21.395355
_cell_angle_alpha	89.984371
_cell_angle_beta	89.956060
_cell_angle_gamma	90.033571
loop_
_atom_site_label
_atom_site_type_symbol
_atom_site_fract_x
_atom_site_fract_y
_atom_site_fract_z
Zn1	Zn	0.957916	-0.383718	-0.354598
Zn2	Zn	1.457916	0.116282	0.145402
Zn3	Zn	0.957842	-0.544997	-0.249826
Zn4	Zn	1.457842	-0.044997	0.250174
Zn5	Zn	0.853131	-0.383763	-0.249799
Zn6	Zn	1.353131	0.116237	0.250201
Zn7	Zn	0.853124	-0.545017	-0.354531
Zn8	Zn	1.353124	-0.045017	0.145469
O9	O	0.905503	-0.464374	-0.302189
O10	O	1.405503	0.035626	0.197811
O11	O	1.045584	-0.405085	-0.340739
O12	O	1.545584	0.094915	0.159261
O13	O	0.943924	-0.523620	-0.162145
O14	O	1.443924	-0.023620	0.337855
O15	O	0.867065	-0.248775	-0.263718
O16	O	1.367065	0.251225	0.236282
O17	O	1.045530	-0.523576	-0.263764
O18	O	1.545530	-0.023576	0.236236
O19	O	0.944050	-0.248742	-0.340714
O20	O	1.444050	0.251258	0.159286
O21	O	0.866993	-0.405161	-0.162125
O22	O	1.366993	0.094839	0.337875
O23	O	0.765452	-0.405181	-0.263653
O24	O	1.265452	0.094819	0.236347
O25	O	0.867053	-0.523610	-0.442218
O26	O	1.367053	-0.023610	0.057782
O27	O	0.765447	-0.523654	-0.340599
O28	O	1.265447	-0.023654	0.159401
O29	O	0.944043	-0.405104	-0.442267
O30	O	1.444043	0.094896	0.057733
O31	O	0.943918	-0.679982	-0.263698
O32	O	1.443918	-0.179982	0.236302
O33	O	0.866981	-0.679996	-0.340624
O34	O	1.366981	-0.179996	0.159376
C35	C	0.742716	-0.464425	-0.302116
C36	C	1.242716	0.035575	0.197884
C37	C	0.673074	-0.464470	-0.302100
C38	C	1.173074	0.035530	0.197900
C39	C	0.905458	-0.714988	-0.302170
C40	C	1.405458	-0.214988	0.197830
C41	C	0.905495	-0.822202	-0.302184
C42	C	1.405495	-0.322202	0.197816
C43	C	0.640375	-0.526240	-0.342105
C44	C	1.140375	-0.026240	0.157895
C45	C	0.574940	-0.526217	-0.342133
C46	C	1.074940	-0.026217	0.157867
C47	C	0.542206	-0.464433	-0.302144
C48	C	1.042206	0.035567	0.197856
C49	C	0.574913	-0.402650	-0.262136
C50	C	1.074913	0.097350	0.237864
C51	C	0.640348	-0.402669	-0.262114
C52	C	1.140348	0.097331	0.237886
C53	C	0.438480	-0.456662	-0.245739
C54	C	0.938480	0.043338	0.254261
C55	C	0.373047	-0.456650	-0.245760
C56	C	0.873047	0.043350	0.254240
C57	C	0.340385	-0.464370	-0.302214
C58	C	0.840385	0.035630	0.197786
C59	C	0.373165	-0.472121	-0.358647
C60	C	0.873165	0.027879	0.141353
C61	C	0.438599	-0.472140	-0.358625
C62	C	0.938599	0.027860	0.141375
C63	C	0.471254	-0.464405	-0.302164
C64	C	0.971254	0.035595	0.197836
C65	C	0.236734	-0.526118	-0.342253
C66	C	0.736734	-0.026118	0.157747
C67	C	0.171297	-0.526088	-0.342282
C68	C	0.671297	-0.026088	0.157718
C69	C	0.171272	-0.402526	-0.262279
C70	C	0.671272	0.097474	0.237721
C71	C	0.236707	-0.402551	-0.262255
C72	C	0.736707	0.097449	0.237745
C73	C	0.269434	-0.464352	-0.302242
C74	C	0.769434	0.035648	0.197758
C75	C	0.905561	-1.018497	-0.302223
C76	C	1.405561	-0.518497	0.197777
C77	C	0.905523	-0.909265	-0.302203
C78	C	1.405523	-0.409265	0.197797
C79	C	1.068927	-0.464323	-0.302262
C80	C	1.568927	0.035677	0.197738
C81	C	1.138568	-0.464302	-0.302293
C82	C	1.638568	0.035698	0.197707
C83	C	0.905555	-0.464354	-0.465612
C84	C	1.405555	0.035646	0.034388
C85	C	0.905578	-0.464346	-0.535253
C86	C	1.405578	0.035654	-0.035253
C87	C	0.905566	-0.212781	-0.302221
C88	C	1.405566	0.287219	0.197779
C89	C	0.905593	-0.105567	-0.302234
C90	C	1.405593	0.394433	0.197766
C91	C	0.945665	-0.402637	-0.567993
C92	C	1.445665	0.097363	-0.067993
C93	C	0.945664	-0.402596	-0.633429
C94	C	1.445664	0.097404	-0.133429
C95	C	0.905582	-0.464280	-0.666122
C96	C	1.405582	0.035720	-0.166122
C97	C	0.865488	-0.525993	-0.633374
C98	C	1.365488	-0.025993	-0.133374
C99	C	0.865485	-0.526026	-0.567940
C100	C	1.365485	-0.026026	-0.067940
C101	C	0.900619	-0.551135	-0.769788
C102	C	1.400619	-0.051135	-0.269788
C103	C	0.900626	-0.551103	-0.835221
C104	C	1.400626	-0.051103	-0.335221
C105	C	0.905586	-0.464178	-0.867942
C106	C	1.405586	0.035822	-0.367942
C107	C	0.910553	-0.377282	-0.835223
C108	C	1.410553	0.122718	-0.335223
C109	C	0.910550	-0.377315	-0.769788
C110	C	1.410550	0.122685	-0.269788
C111	C	0.905580	-0.464251	-0.737074
C112	C	1.405580	0.035749	-0.237074
C113	C	0.945675	-0.402419	-0.971635
C114	C	1.445675	0.097581	-0.471635
C115	C	0.945669	-0.402376	-1.037072
C116	C	1.445669	0.097624	-0.537072
C117	C	0.865496	-0.525782	-1.037016
C118	C	1.365496	-0.025782	-0.537016
C119	C	0.865498	-0.525817	-0.971580
C120	C	1.365498	-0.025817	-0.471580
C121	C	0.905591	-0.464137	-0.938894
C122	C	1.405591	0.035863	-0.438894
C123	C	0.905488	-0.464324	-0.139401
C124	C	1.405488	0.035676	0.360599
C125	C	0.905587	-0.464060	-0.069760
C126	C	1.405587	0.035940	0.430240
H127	H	0.667017	-0.576562	-0.374666
H128	H	1.167017	-0.076562	0.125334
H129	H	0.832855	-0.575997	-1.063634
H130	H	1.332855	-0.075997	-0.563634
H131	H	0.346364	-0.450344	-0.199808
H132	H	0.846364	0.049656	0.300192
Cl133	Cl	0.916791	-0.267997	-0.876350
Cl134	Cl	1.416791	0.232003	-0.376350
Cl135	Cl	0.996079	-0.324807	-1.078231
Cl136	Cl	1.496079	0.175193	-0.578231
H137	H	0.465285	-0.478449	-0.404575
H138	H	0.965285	0.021551	0.095425
H139	H	0.548258	-0.352343	-0.229578
H140	H	1.048258	0.147657	0.270422
H141	H	0.832859	-0.576073	-0.944923
H142	H	1.332859	-0.076073	-0.444923
H143	H	0.144621	-0.352216	-0.229722
H144	H	0.644621	0.147784	0.270278
Cl145	Cl	0.479534	-0.446960	-0.174761
Cl146	Cl	0.979534	0.053040	0.325239
H147	H	0.666971	-0.352365	-0.229536
H148	H	1.166971	0.147635	0.270464
H149	H	0.978310	-0.352411	-0.541384
H150	H	1.478310	0.147589	-0.041384
H151	H	0.548311	-0.576517	-0.374713
H152	H	1.048311	-0.076517	0.125287
Cl153	Cl	0.277818	-0.324895	-0.211958
Cl154	Cl	0.777818	0.175105	0.288042
Cl155	Cl	0.996072	-0.324875	-0.930541
Cl156	Cl	1.496072	0.175125	-0.430541
H157	H	0.978306	-0.352340	-0.660091
H158	H	1.478306	0.147660	-0.160091
H159	H	0.914593	-0.306560	-0.743151
H160	H	1.414593	0.193440	-0.243151
Cl161	Cl	0.894389	-0.660344	-0.876348
Cl162	Cl	1.394389	-0.160344	-0.376348
Cl163	Cl	0.332112	-0.481821	-0.429623
Cl164	Cl	0.832112	0.018179	0.070377
H165	H	0.896413	-0.621902	-0.743152
H166	H	1.396413	-0.121902	-0.243152
Cl167	Cl	0.815097	-0.603536	-0.674473
Cl168	Cl	1.315097	-0.103536	-0.174473
Cl169	Cl	0.815086	-0.603610	-0.526779
Cl170	Cl	1.315086	-0.103610	-0.026779
H171	H	0.263381	-0.576435	-0.374815
H172	H	0.763381	-0.076435	0.125185
Cl173	Cl	0.130188	-0.603744	-0.392583
Cl174	Cl	0.630188	-0.103744	0.107417
