data_functionalizedCrystal
_audit_creation_method	'MofGen! by Chris Wilmer'
_symmetry_space_group_name_H-M	'P1'
_symmetry_Int_Tables_number	1
_symmetry_cell_setting	triclinic
loop_
_symmetry_equiv_pos_as_xyz
  x,y,z
_cell_length_a	15.944551
_cell_length_b	27.732048
_cell_length_c	14.421503
_cell_angle_alpha	89.999321
_cell_angle_beta	89.996859
_cell_angle_gamma	83.070697
loop_
_atom_site_label
_atom_site_type_symbol
_atom_site_fract_x
_atom_site_fract_y
_atom_site_fract_z
O1	O	1.113714	0.062334	-0.077025
O2	O	0.869064	0.070020	-0.077050
O3	O	0.998987	-0.004187	-0.077019
O4	O	0.983791	0.136540	-0.077056
O5	O	0.998966	-0.004176	0.077204
O6	O	0.869042	0.070031	0.077174
O7	O	1.113693	0.062345	0.077198
Cu8	Cu	0.991366	0.066189	0.091268
Cu9	Cu	0.991391	0.066176	-0.091119
O10	O	0.983769	0.136552	0.077168
C11	C	0.837763	0.069706	0.000059
C12	C	0.744530	0.068749	0.000051
C13	C	0.530305	0.020466	0.000081
C14	C	0.469002	0.042882	-0.075965
C15	C	0.573827	0.067019	0.000062
C16	C	0.469003	0.042904	0.076087
C17	C	0.408936	0.065344	0.000077
C18	C	0.513752	0.089447	-0.076047
C19	C	0.513759	0.089463	0.076074
C20	C	0.452474	0.111912	0.000009
C21	C	0.668816	0.067983	0.000053
C22	C	0.313947	0.064384	0.000080
C23	C	0.998658	-0.022190	0.000095
C24	C	0.997697	-0.075849	0.000103
C25	C	1.068426	-0.414358	0.000062
C26	C	1.064862	-0.616033	0.000049
O27	O	1.129539	-0.647008	0.000015
N28	N	0.987823	-0.635490	0.000042
C29	C	0.911669	-0.604525	0.000032
O30	O	0.846061	-0.625703	0.000017
C31	C	0.915234	-0.402851	0.000039
C32	C	0.992278	-0.383397	0.000055
C33	C	1.145464	-0.394903	0.000077
C34	C	1.146354	-0.344487	0.000086
C35	C	1.070206	-0.313526	0.000079
C36	C	0.993168	-0.332981	0.000064
C37	C	0.839081	-0.371887	0.000023
C38	C	0.839979	-0.321466	0.000022
C39	C	0.917024	-0.302012	0.000038
C40	C	0.917911	-0.251604	0.000065
N41	N	0.994950	-0.232147	0.000072
C42	C	1.071098	-0.263108	0.000079
C43	C	0.909803	-0.710408	0.000031
C44	C	0.908912	-0.760826	0.000031
C45	C	1.062105	-0.772330	0.000045
C46	C	1.062995	-0.721911	0.000052
C47	C	0.986842	-0.690950	0.000038
C48	C	1.072961	-0.157231	0.000097
C49	C	1.073845	-0.106810	0.000109
C50	C	0.920652	-0.095310	0.000090
C51	C	0.919768	-0.145727	0.000083
C52	C	0.995930	-0.176686	0.000083
O53	O	0.853269	-0.220600	0.000089
O54	O	1.136697	-0.241921	0.000074
C55	C	1.067536	-0.464774	0.000054
C56	C	0.990498	-0.484228	0.000039
C57	C	0.914350	-0.453268	0.000032
C58	C	0.989607	-0.534647	0.000039
C59	C	1.065754	-0.565608	0.000045
C60	C	1.142794	-0.546150	0.000052
C61	C	1.143684	-0.495734	0.000061
C62	C	0.837311	-0.472725	0.000025
C63	C	0.836427	-0.523141	0.000018
C64	C	0.912575	-0.554102	0.000024
C65	C	1.144993	0.062658	0.000087
C66	C	1.238227	0.063615	0.000090
C67	C	0.984099	0.154554	0.000051
C68	C	0.985059	0.208213	0.000038
N69	N	0.991354	0.066198	0.219549
N70	N	0.991409	0.066163	-0.219401
C71	C	0.931267	0.100495	0.469189
C72	C	1.007044	0.109880	0.530996
C73	C	0.991374	0.066186	0.408710
C74	C	0.915616	0.056813	0.530997
C75	C	0.991387	0.066176	0.591432
C76	C	1.067190	0.075592	0.469157
C77	C	0.975712	0.022507	0.469153
C78	C	1.051545	0.031872	0.530932
C79	C	0.991366	0.066193	0.303449
C80	C	0.991405	0.066169	0.696691
H81	H	0.533624	0.109141	0.140358
H82	H	1.207476	-0.420107	0.000079
N83	N	1.152077	0.086148	0.433329
H84	H	1.164049	0.119023	0.456373
H85	H	1.197462	0.060365	0.456321
H86	H	0.851544	0.048890	0.558163
N87	N	0.575107	-0.030714	0.000008
H88	H	0.558154	-0.048482	0.056856
H89	H	0.558952	-0.048203	-0.057518
H90	H	1.020304	0.146814	0.558160
H91	H	1.102436	0.002852	0.557872
N92	N	1.144236	-0.805730	0.000042
H93	H	1.193182	-0.785758	0.000042
H94	H	1.147196	-0.826900	0.057212
H95	H	0.418809	0.150587	-0.000044
N96	N	0.442712	0.016799	-0.161115
H97	H	0.471323	-0.017739	-0.161052
H98	H	0.379400	0.016661	-0.160738
N99	N	0.442720	0.016821	0.161246
H100	H	0.471338	-0.017715	0.161183
H101	H	0.459803	0.034096	0.218628
N102	N	0.958126	-0.026403	0.433140
H103	H	0.900850	-0.033450	0.455596
H104	H	0.958851	-0.026096	0.363117
H105	H	0.533491	0.109118	-0.140408
H106	H	1.134979	-0.182432	0.000094
N107	N	1.156945	-0.085827	0.000132
H108	H	1.205047	-0.113094	0.000133
H109	H	1.160663	-0.065156	-0.057036
N110	N	0.825815	-0.781806	0.000039
H111	H	0.777715	-0.754538	0.000035
H112	H	0.822108	-0.802475	-0.057133
H113	H	1.209091	-0.328652	0.000095
H114	H	1.204796	-0.571368	0.000062
N115	N	0.753324	-0.544121	0.000016
H116	H	0.705224	-0.516853	0.000013
H117	H	0.749621	-0.564787	-0.057161
H118	H	0.858655	-0.070093	0.000088
H119	H	0.775301	-0.447521	0.000017
H120	H	1.125732	-0.706075	0.000065
H121	H	0.847786	-0.685203	0.000019
H122	H	0.776344	-0.387718	0.000004
H123	H	0.777965	-0.296260	0.000009
H124	H	0.857033	-0.161567	0.000095
N125	N	1.226781	-0.474755	0.000080
H126	H	1.274879	-0.502025	0.000082
H127	H	1.230503	-0.454086	-0.057090
H128	H	0.880487	0.129533	0.442079
