data_functionalizedCrystal
_audit_creation_method	'MofGen! by Chris Wilmer'
_symmetry_space_group_name_H-M	'P1'
_symmetry_Int_Tables_number	1
_symmetry_cell_setting	triclinic
loop_
_symmetry_equiv_pos_as_xyz
  x,y,z
_cell_length_a	25.639239
_cell_length_b	16.959455
_cell_length_c	16.959447
_cell_angle_alpha	89.981652
_cell_angle_beta	89.968198
_cell_angle_gamma	90.038114
loop_
_atom_site_label
_atom_site_type_symbol
_atom_site_fract_x
_atom_site_fract_y
_atom_site_fract_z
Zn1	Zn	-0.208155	1.208310	-0.446902
Zn2	Zn	-0.295594	1.208181	-0.314717
Zn3	Zn	-0.208173	1.076130	-0.314738
Zn4	Zn	-0.295560	1.076060	-0.446854
O5	O	-0.251871	1.142170	-0.380803
O6	O	-0.219760	1.318904	-0.429378
O7	O	-0.284019	1.190640	-0.204109
O8	O	-0.135006	1.093747	-0.332299
O9	O	-0.284001	1.318809	-0.332262
O10	O	-0.134992	1.190859	-0.429399
O11	O	-0.219791	1.093622	-0.204124
O12	O	-0.219759	0.965510	-0.332253
O13	O	-0.283944	1.093628	-0.557472
O14	O	-0.283962	0.965459	-0.429318
O15	O	-0.219728	1.190791	-0.557506
O16	O	-0.368755	1.190572	-0.332216
O17	O	-0.368730	1.093503	-0.429297
C18	C	-0.251859	0.936804	-0.380783
C19	C	-0.251867	0.848947	-0.380794
C20	C	-0.285267	0.807622	-0.330158
C21	C	-0.218471	0.807719	-0.431435
C22	C	-0.218476	0.725173	-0.431445
C23	C	-0.251875	0.683848	-0.380809
C24	C	-0.285271	0.725069	-0.330164
C25	C	-0.185077	0.683946	-0.482083
C26	C	-0.185079	0.601395	-0.482094
C27	C	-0.218482	0.560069	-0.431462
C28	C	-0.251879	0.601295	-0.380816
C29	C	-0.285279	0.559969	-0.330180
C30	C	-0.318679	0.601194	-0.279537
C31	C	-0.318673	0.683742	-0.279532
C32	C	-0.218488	0.477520	-0.431467
C33	C	-0.285283	0.477416	-0.330186
C34	C	-0.387713	1.142037	-0.380766
C35	C	-0.445827	1.142053	-0.380777
C36	C	-0.806190	1.192846	-0.330339
C37	C	-0.860795	1.192877	-0.330349
O38	O	-0.889032	1.235925	-0.287425
N39	N	-0.888110	1.142309	-0.380855
C40	C	-0.860817	1.091714	-0.431359
O41	O	-0.889065	1.048706	-0.474320
C42	C	-0.806214	1.091688	-0.431352
C43	C	-0.778902	1.142253	-0.380837
C44	C	-0.778878	1.243407	-0.279829
C45	C	-0.724278	1.243375	-0.279817
C46	C	-0.696989	1.192782	-0.330316
C47	C	-0.724301	1.142221	-0.380826
C48	C	-0.778923	1.041097	-0.481860
C49	C	-0.724316	1.041075	-0.481848
C50	C	-0.697004	1.091640	-0.431334
C51	C	-0.642413	1.091596	-0.431313
N52	N	-0.615098	1.142163	-0.380807
C53	C	-0.642386	1.192756	-0.330309
C54	C	-0.975488	1.091773	-0.431371
C55	C	-1.030090	1.091795	-0.431375
C56	C	-1.030064	1.192959	-0.330366
C57	C	-0.975461	1.192933	-0.330359
C58	C	-0.948173	1.142341	-0.380866
C59	C	-0.527721	1.192685	-0.330288
C60	C	-0.473116	1.192646	-0.330279
C61	C	-0.473147	1.091485	-0.431290
C62	C	-0.527747	1.091521	-0.431297
C63	C	-0.555033	1.142127	-0.380793
O64	O	-0.614141	1.048572	-0.474218
O65	O	-0.614132	1.235764	-0.287363
C66	C	-0.115498	1.142325	-0.380856
C67	C	-0.057383	1.142391	-0.380879
C68	C	-0.251830	1.142216	-0.586971
C69	C	-0.251813	1.142236	-0.674828
C70	C	-0.251882	1.348339	-0.380823
C71	C	-0.251887	1.436195	-0.380831
C72	C	-0.285245	1.192759	-0.716095
C73	C	-0.218368	1.091727	-0.716114
C74	C	-0.218353	1.091741	-0.798660
C75	C	-0.251785	1.142263	-0.839927
C76	C	-0.285232	1.192772	-0.798649
C77	C	-0.184911	1.041227	-0.839944
C78	C	-0.184894	1.041238	-0.922495
C79	C	-0.218324	1.091765	-0.963764
C80	C	-0.251771	1.142277	-0.922481
C81	C	-0.285203	1.192799	-0.963748
C82	C	-0.318648	1.243315	-0.922466
C83	C	-0.318661	1.243299	-0.839917
C84	C	-0.218311	1.091781	-1.046313
C85	C	-0.285190	1.192813	-1.046302
C86	C	-0.251873	1.142170	-0.175436
C87	C	-0.251743	1.142304	-0.087580
H88	H	-0.312462	0.841191	-0.288928
H89	H	-0.549986	1.050349	-0.472433
O90	O	-0.182447	0.852285	-0.486046
H91	H	-0.188055	0.916612	-0.477534
H92	H	-0.157883	0.717599	-0.523305
H93	H	-0.450920	1.050290	-0.472404
O94	O	-0.148816	0.986762	-0.967014
H95	H	-0.154422	0.995257	-1.031349
H96	H	-1.052323	1.050612	-0.472502
O97	O	-0.182310	1.037242	-0.671606
H98	H	-0.205715	0.996999	-0.633975
O99	O	-0.321249	1.247310	-1.090805
H100	H	-0.315621	1.238838	-1.155143
H101	H	-1.052292	1.234157	-0.289250
O102	O	-0.946057	1.037183	-0.485830
H103	H	-0.974228	1.002020	-0.520938
H104	H	-0.157884	0.567837	-0.523332
O105	O	-0.354732	1.297777	-0.795388
H106	H	-0.377973	1.332918	-0.837950
H107	H	-0.345870	1.284448	-0.956077
O108	O	-0.182469	0.433054	-0.486082
H109	H	-0.159244	0.475658	-0.521291
H110	H	-0.801151	0.999917	-0.522990
H111	H	-0.191081	1.050650	-1.079921
H112	H	-0.450880	1.233822	-0.289141
H113	H	-0.312474	1.233890	-0.682479
H114	H	-0.549931	1.233895	-0.289165
O115	O	-0.694822	1.297925	-0.225345
H116	H	-0.722978	1.333113	-0.190245
H117	H	-0.801091	1.284611	-0.238706
O118	O	-0.321308	0.432846	-0.275571
H119	H	-0.297876	0.395241	-0.235423
O120	O	-0.946003	1.247478	-0.275885
H121	H	-0.974157	1.282663	-0.240778
H122	H	-0.345865	0.717314	-0.238299
O123	O	-0.148853	0.986743	-0.795432
H124	H	-0.172261	0.946508	-0.757795
O125	O	-0.354702	0.556620	-0.224920
H126	H	-0.349091	0.492294	-0.233437
H127	H	-0.702101	0.999878	-0.522980
