data_functionalizedCrystal
_audit_creation_method	'MofGen! by Chris Wilmer'
_symmetry_space_group_name_H-M	'P1'
_symmetry_Int_Tables_number	1
_symmetry_cell_setting	triclinic
loop_
_symmetry_equiv_pos_as_xyz
  x,y,z
_cell_length_a	14.908571
_cell_length_b	25.639239
_cell_length_c	25.639234
_cell_angle_alpha	89.975416
_cell_angle_beta	86.689494
_cell_angle_gamma	86.734636
loop_
_atom_site_label
_atom_site_type_symbol
_atom_site_fract_x
_atom_site_fract_y
_atom_site_fract_z
Zn1	Zn	1.379064	-0.254380	-0.341653
Zn2	Zn	1.378919	-0.341803	-0.254212
Zn3	Zn	1.228206	-0.249335	-0.249195
Zn4	Zn	1.228124	-0.336730	-0.336582
O5	O	1.303578	-0.295562	-0.295410
O6	O	1.505288	-0.270212	-0.334276
O7	O	1.358901	-0.329549	-0.180381
O8	O	1.248313	-0.176842	-0.261482
O9	O	1.505181	-0.334441	-0.270033
O10	O	1.359147	-0.180549	-0.329410
O11	O	1.248172	-0.261613	-0.176694
O12	O	1.101953	-0.256694	-0.256565
O13	O	1.248173	-0.325795	-0.410421
O14	O	1.101892	-0.320903	-0.320768
O15	O	1.359068	-0.265293	-0.414146
O16	O	1.358821	-0.414292	-0.265117
O17	O	1.248033	-0.410565	-0.325633
C18	C	1.069189	-0.287701	-0.287572
C19	C	0.968917	-0.284350	-0.284231
C20	C	0.780479	-0.345018	-0.344718
C21	C	0.686264	-0.341872	-0.341581
C22	C	0.686269	-0.274908	-0.274822
C23	C	0.780484	-0.278054	-0.277959
C24	C	0.827586	-0.313111	-0.312908
C25	C	0.921803	-0.316260	-0.316042
C26	C	0.921807	-0.249294	-0.249287
C27	C	0.827591	-0.246148	-0.246149
C28	C	1.303427	-0.431400	-0.295381
C29	C	1.303444	-0.489514	-0.295389
C30	C	1.361417	-0.851815	-0.263961
C31	C	1.361451	-0.906420	-0.263970
O32	O	1.410584	-0.936299	-0.237217
N33	N	1.303737	-0.931807	-0.295450
C34	C	1.245990	-0.902584	-0.326929
O35	O	1.196903	-0.929191	-0.353707
C36	C	1.245961	-0.847980	-0.326923
C37	C	1.303672	-0.822597	-0.295436
C38	C	1.419124	-0.826431	-0.232478
C39	C	1.419088	-0.771830	-0.232469
C40	C	1.361344	-0.742611	-0.263944
C41	C	1.303636	-0.767995	-0.295428
C42	C	1.188219	-0.818759	-0.358404
C43	C	1.188195	-0.764151	-0.358396
C44	C	1.245907	-0.738768	-0.326909
C45	C	1.245855	-0.684175	-0.326894
N46	N	1.303570	-0.658789	-0.295413
C47	C	1.361314	-0.688007	-0.263938
C48	C	1.246058	-1.017257	-0.326939
C49	C	1.246083	-1.071860	-0.326943
C50	C	1.361545	-1.075693	-0.263984
C51	C	1.361516	-1.021088	-0.263978
C52	C	1.303773	-0.991871	-0.295459
C53	C	1.361233	-0.573339	-0.263922
C54	C	1.361189	-0.518733	-0.263914
C55	C	1.245730	-0.514905	-0.326875
C56	C	1.245770	-0.569507	-0.326881
C57	C	1.303529	-0.598723	-0.295403
O58	O	1.196750	-0.654262	-0.353635
O59	O	1.410401	-0.661393	-0.237170
C60	C	1.538883	-0.303455	-0.303280
C61	C	1.639156	-0.306818	-0.306633
C62	C	1.303627	-0.295541	-0.431785
C63	C	1.303648	-0.295532	-0.489900
C64	C	1.303755	-0.159195	-0.295452
C65	C	1.303831	-0.101084	-0.295469
C66	C	1.361328	-0.330864	-0.743006
C67	C	1.361319	-0.330874	-0.688402
O68	O	1.410318	-0.360971	-0.661790
N69	N	1.303668	-0.295507	-0.659174
C70	C	1.246016	-0.260130	-0.684555
O71	O	1.196978	-0.230049	-0.654681
C72	C	1.246022	-0.260122	-0.739158
C73	C	1.303683	-0.295489	-0.768383
C74	C	1.418984	-0.366227	-0.772231
C75	C	1.418994	-0.366216	-0.826832
C76	C	1.361349	-0.330841	-0.852208
C77	C	1.303693	-0.295477	-0.822984
C78	C	1.188367	-0.224749	-0.764537
C79	C	1.188377	-0.224744	-0.819144
C80	C	1.246038	-0.260110	-0.848369
C81	C	1.246059	-0.260091	-0.902961
N82	N	1.303710	-0.295458	-0.932188
C83	C	1.361355	-0.330833	-0.906812
C84	C	1.246008	-0.260150	-0.569884
C85	C	1.246006	-0.260154	-0.515281
C86	C	1.361307	-0.330899	-0.519132
C87	C	1.361313	-0.330892	-0.573735
C88	C	1.303659	-0.295517	-0.599111
C89	C	1.361373	-0.330806	-1.021477
C90	C	1.361381	-0.330790	-1.076083
C91	C	1.246077	-0.260047	-1.072227
C92	C	1.246071	-0.260061	-1.017627
C93	C	1.303723	-0.295445	-0.992253
O94	O	1.197082	-0.230010	-0.929608
O95	O	1.410376	-0.360914	-0.936692
C96	C	1.303582	-0.295548	-0.159568
C97	C	1.303736	-0.295415	-0.101459
H98	H	0.960152	-0.344806	-0.344498
C99	C	1.183561	-0.221711	-0.597505
C100	C	1.234682	-0.189917	-0.630586
C101	C	1.177186	-0.154508	-0.656042
H102	H	1.149207	-0.200600	-0.572335
H103	H	1.144241	-0.240374	-0.617511
H104	H	1.273987	-0.171255	-0.610581
H105	H	1.269034	-0.211013	-0.655766
H106	H	1.137866	-0.173171	-0.676049
H107	H	1.142835	-0.133401	-0.630869
H108	H	1.211863	-0.132935	-0.678494
C109	C	1.125659	-0.186328	-0.732908
C110	C	1.075165	-0.155363	-0.766829
C111	C	1.017377	-0.119967	-0.737712
H112	H	1.160084	-0.164654	-0.712764
H113	H	1.086272	-0.205000	-0.710295
H114	H	1.114548	-0.136693	-0.789433
H115	H	1.040722	-0.177022	-0.786973
H116	H	0.977989	-0.138639	-0.715099
H117	H	1.051809	-0.098297	-0.717569
H118	H	0.983104	-0.098957	-0.760722
H119	H	0.818830	-0.373566	-0.373172
C120	C	0.635186	-0.236753	-0.236951
C121	C	0.658163	-0.185810	-0.249210
C122	C	0.611123	-0.150643	-0.214339
H123	H	0.650552	-0.244798	-0.202300
H124	H	0.572317	-0.239404	-0.239639
H125	H	0.721019	-0.183161	-0.246516
H126	H	0.642795	-0.177748	-0.283854
H127	H	0.548253	-0.153294	-0.217028
H128	H	0.626492	-0.158693	-0.179690
H129	H	0.626700	-0.116074	-0.222655
C130	C	1.424232	-0.993467	-0.229881
C131	C	1.481997	-0.963998	-0.261439
C132	C	1.539779	-0.938545	-0.230046
H133	H	1.458707	-1.018637	-0.211129
H134	H	1.389762	-0.971013	-0.205937
H135	H	1.516464	-0.986451	-0.285374
H136	H	1.447547	-0.938820	-0.280191
H137	H	1.505310	-0.916090	-0.206101
H138	H	1.574248	-0.963718	-0.211295
H139	H	1.578974	-0.918543	-0.251452
C140	C	1.183623	-0.221601	-0.985874
C141	C	1.234733	-0.189801	-0.956251
C142	C	1.177229	-0.154364	-0.927005
H143	H	1.144263	-0.240225	-0.963210
H144	H	1.149313	-0.200502	-1.008796
H145	H	1.269027	-0.210898	-0.933332
H146	H	1.274090	-0.171165	-0.978902
H147	H	1.142919	-0.133264	-0.949927
H148	H	1.137872	-0.172992	-0.904344
H149	H	1.211898	-0.132780	-0.906906
H150	H	1.408567	-1.099492	-0.238357
H151	H	1.408266	-0.359690	-0.597527
H152	H	1.199146	-0.231245	-1.092899
C153	C	1.423791	-0.369289	-0.491476
C154	C	1.411418	-0.361733	-0.437402
C155	C	1.468949	-0.397090	-0.411907
H156	H	1.484456	-0.363708	-0.502393
H157	H	1.410530	-0.403983	-0.499940
H158	H	1.424685	-0.327047	-0.428942
H159	H	1.350765	-0.367318	-0.426470
H160	H	1.455688	-0.431784	-0.420371
H161	H	1.529611	-0.391506	-0.422828
H162	H	1.460556	-0.391971	-0.375215
H163	H	0.647913	-0.367853	-0.367485
C164	C	1.423957	-0.369130	-1.107905
C165	C	1.411655	-0.361541	-1.161158
C166	C	1.469293	-0.396843	-1.190486
H167	H	1.410769	-0.403841	-1.098571
H168	H	1.484597	-0.363505	-1.101016
H169	H	1.351029	-0.367170	-1.168044
H170	H	1.424850	-0.326837	-1.170508
H171	H	1.529932	-0.391218	-1.183597
H172	H	1.456100	-0.431551	-1.181148
H173	H	1.460959	-0.391695	-1.226622
H174	H	1.199030	-0.993471	-0.352573
H175	H	1.408267	-0.597121	-0.238291
H176	H	1.141220	-0.839417	-0.384042
C177	C	0.776561	-0.208123	-0.208126
C178	C	0.799441	-0.220196	-0.157138
C179	C	0.752460	-0.185175	-0.122096
H180	H	0.713689	-0.210784	-0.210743
H181	H	0.792058	-0.173511	-0.216322
H182	H	0.783938	-0.254799	-0.148944
H183	H	0.862304	-0.217531	-0.154504
H184	H	0.767957	-0.150564	-0.130293
H185	H	0.689591	-0.187840	-0.124718
H186	H	0.767984	-0.193360	-0.087498
H187	H	1.466084	-0.751166	-0.206831
H188	H	0.960171	-0.223314	-0.223383
C189	C	1.424065	-0.369245	-0.994032
C190	C	1.474569	-0.400200	-1.031322
C191	C	1.532340	-0.435608	-1.006059
H192	H	1.389628	-0.390925	-0.971570
H193	H	1.463447	-0.350584	-0.974067
H194	H	1.435192	-0.418860	-1.051278
H195	H	1.509024	-0.378535	-1.053785
H196	H	1.571723	-0.416947	-0.986094
H197	H	1.497896	-0.457284	-0.983598
H198	H	1.566620	-0.456612	-1.031356
H199	H	1.408184	-0.498067	-0.238272
H200	H	1.465945	-0.395016	-0.850621
C201	C	1.183310	-0.221729	-0.483646
C202	C	1.132819	-0.190758	-0.517564
C203	C	1.075039	-0.155361	-0.488443
H204	H	1.217741	-0.200060	-0.463502
H205	H	1.143921	-0.240400	-0.461034
H206	H	1.172203	-0.172089	-0.540168
H207	H	1.098369	-0.212413	-0.537709
H208	H	1.035650	-0.174032	-0.465830
H209	H	1.109478	-0.133695	-0.468299
H210	H	1.040768	-0.134346	-0.511451
C211	C	1.481855	-0.858055	-0.198243
C212	C	1.532363	-0.824126	-0.170664
C213	C	1.590149	-0.853234	-0.139111
H214	H	1.521241	-0.880646	-0.219516
H215	H	1.447401	-0.878220	-0.174265
H216	H	1.566815	-0.803971	-0.194639
H217	H	1.493001	-0.801536	-0.149382
H218	H	1.555695	-0.873399	-0.115133
H219	H	1.629529	-0.875824	-0.160388
H220	H	1.624420	-0.830218	-0.120392
H221	H	1.199080	-1.092523	-0.352577
H222	H	1.141174	-0.740365	-0.384033
C223	C	1.183076	-0.596974	-0.361121
C224	C	1.132513	-0.559696	-0.388691
C225	C	1.074767	-0.584975	-0.420249
H226	H	1.143724	-0.616998	-0.339851
H227	H	1.217562	-0.619381	-0.385103
H228	H	1.098030	-0.537299	-0.364712
H229	H	1.171842	-0.539670	-0.409971
H230	H	1.109252	-0.607382	-0.444231
H231	H	1.035420	-0.604998	-0.398975
H232	H	1.040459	-0.559687	-0.438963
H233	H	1.465927	-0.395037	-0.751575
C234	C	1.183139	-0.483085	-0.361032
C235	C	1.195487	-0.429834	-0.354293
C236	C	1.137858	-0.400505	-0.385758
H237	H	1.122498	-0.489976	-0.351363
H238	H	1.196326	-0.492417	-0.396621
H239	H	1.182295	-0.420506	-0.318712
H240	H	1.256116	-0.422927	-0.363966
H241	H	1.151045	-0.409837	-0.421347
H242	H	1.077221	-0.407400	-0.376087
H243	H	1.146235	-0.364371	-0.381194
C244	C	1.125667	-0.186418	-0.846717
C245	C	1.067796	-0.214075	-0.876109
C246	C	1.010010	-0.178787	-0.901509
H247	H	1.160101	-0.164775	-0.869220
H248	H	1.091277	-0.165367	-0.821503
H249	H	1.102182	-0.235117	-0.901320
H250	H	1.033342	-0.235716	-0.853619
H251	H	0.975620	-0.157736	-0.876295
H252	H	1.044451	-0.157146	-0.924008
H253	H	0.970732	-0.197547	-0.921450
