data_functionalizedCrystal
_audit_creation_method	'MofGen! by Chris Wilmer'
_symmetry_space_group_name_H-M	'P1'
_symmetry_Int_Tables_number	1
_symmetry_cell_setting	triclinic
loop_
_symmetry_equiv_pos_as_xyz
  x,y,z
_cell_length_a	17.038272
_cell_length_b	15.944551
_cell_length_c	14.421503
_cell_angle_alpha	89.996660
_cell_angle_beta	89.997443
_cell_angle_gamma	92.694853
loop_
_atom_site_label
_atom_site_type_symbol
_atom_site_fract_x
_atom_site_fract_y
_atom_site_fract_z
O1	O	1.037426	-0.182391	-0.076999
O2	O	0.809794	-0.179495	-0.077027
O3	O	0.929826	-0.059112	-0.077004
O4	O	0.917394	-0.302774	-0.077022
O5	O	0.929806	-0.059130	0.077220
O6	O	0.809774	-0.179512	0.077197
O7	O	1.037406	-0.182409	0.077224
Cu8	Cu	0.923588	-0.180962	0.091292
Cu9	Cu	0.923612	-0.180941	-0.091095
O10	O	0.917374	-0.302792	0.077201
C11	C	0.929300	-0.027790	0.000108
C12	C	0.927753	0.065567	0.000108
C13	C	0.780655	-0.176869	0.000082
C14	C	0.693860	-0.169010	0.000072
N15	N	0.923577	-0.180977	0.219574
C16	C	0.643767	-0.241168	0.000067
C17	C	0.562214	-0.233778	0.000080
C18	C	0.530756	-0.154230	0.000092
C19	C	0.580855	-0.082067	0.000099
C20	C	0.662406	-0.089457	0.000092
C21	C	0.284990	-0.128121	0.000118
C22	C	0.203433	-0.120736	0.000122
C23	C	0.184797	-0.272448	0.000105
C24	C	0.266351	-0.279831	0.000093
C25	C	0.316443	-0.207668	0.000105
C26	C	0.447396	-0.146675	0.000102
C27	C	0.399801	-0.215224	0.000101
C28	C	1.066545	-0.185034	0.000114
C29	C	1.153340	-0.192893	0.000118
C30	C	0.917900	-0.334114	0.000088
C31	C	0.919447	-0.427470	0.000081
C32	C	0.849653	0.286000	0.000086
C33	C	0.885910	0.344419	0.076132
C34	C	0.924953	0.236492	0.000101
C35	C	0.885947	0.344418	-0.075920
C36	C	0.922244	0.401598	0.000090
C37	C	0.961231	0.293682	0.076209
C38	C	0.961258	0.293676	-0.075911
C39	C	0.997570	0.352073	0.000153
C40	C	0.926512	0.141379	0.000108
C41	C	0.920691	0.496710	0.000089
N42	N	0.923629	-0.180920	-0.219376
C43	C	0.868065	-0.236614	0.469217
C44	C	0.938714	-0.257966	0.531027
C45	C	0.923596	-0.180958	0.408735
C46	C	0.852965	-0.159628	0.531019
C47	C	0.923608	-0.180942	0.591456
C48	C	0.994281	-0.202350	0.469184
C49	C	0.908486	-0.103975	0.469171
C50	C	0.979186	-0.125298	0.530953
C51	C	0.923588	-0.180970	0.303474
C52	C	0.923625	-0.180930	0.696715
H53	H	0.669373	-0.305944	0.000057
H54	H	0.421774	-0.081906	0.000138
C55	C	1.074995	-0.226826	0.432653
H56	H	1.074489	-0.226713	0.366780
H57	H	1.114464	-0.187539	0.454283
H58	H	1.085817	-0.281342	0.454348
H59	H	0.325766	-0.069360	0.000129
C60	C	0.842880	0.374653	0.162971
H61	H	0.877727	0.409834	0.198777
H62	H	0.798940	0.405251	0.144690
H63	H	0.825435	0.327519	0.199029
C64	C	1.042698	-0.061710	0.567353
H65	H	1.092823	-0.076994	0.546066
H66	H	1.032387	-0.007198	0.545238
H67	H	1.042077	-0.061724	0.633223
C68	C	0.891180	-0.016065	0.432426
H69	H	0.934294	0.005017	0.396181
H70	H	0.845118	-0.019594	0.395254
H71	H	0.883458	0.020621	0.483180
C72	C	0.546253	0.005434	0.000110
H73	H	0.490510	-0.000498	0.000103
H74	H	0.563446	0.035385	0.053892
H75	H	0.563449	0.035394	-0.053677
C76	C	0.765218	0.247035	0.000163
H77	H	0.757133	0.213693	-0.053895
H78	H	0.757490	0.212894	0.053672
H79	H	0.728939	0.290490	0.000744
H80	H	0.703192	-0.030699	0.000096
H81	H	0.425418	-0.279992	0.000097
H82	H	0.177823	-0.055955	0.000131
C83	C	1.082074	0.390844	0.000220
H84	H	1.108686	0.373425	0.054288
H85	H	1.109028	0.372702	-0.053280
H86	H	1.080638	0.450332	-0.000285
H87	H	0.793229	-0.141594	0.558183
C88	C	1.004203	0.263604	0.163161
H89	H	1.004895	0.204061	0.162652
H90	H	1.056589	0.286792	0.163391
H91	H	0.977618	0.281389	0.217088
C92	C	1.004255	0.263412	-0.162753
H93	H	0.977431	0.280677	-0.216736
H94	H	1.056507	0.286977	-0.163294
H95	H	1.005336	0.203902	-0.161817
C96	C	0.955999	-0.345899	0.567738
H97	H	1.002611	-0.342573	0.603965
H98	H	0.913308	-0.366542	0.604920
H99	H	0.962753	-0.382829	0.516967
H100	H	0.854097	0.366777	-0.140216
H101	H	0.821151	-0.283725	0.442110
H102	H	0.291958	-0.344607	0.000073
C103	C	0.129696	-0.351819	0.000104
H104	H	0.076621	-0.336028	0.000117
H105	H	0.139230	-0.384194	-0.053679
H106	H	0.139235	-0.384199	0.053890
C107	C	0.507115	-0.313152	0.000072
H108	H	0.537531	-0.361585	0.000053
H109	H	0.474916	-0.313434	0.053856
H110	H	0.474914	-0.313412	-0.053713
