data_functionalizedCrystal
_audit_creation_method	'MofGen! by Chris Wilmer'
_symmetry_space_group_name_H-M	'P1'
_symmetry_Int_Tables_number	1
_symmetry_cell_setting	triclinic
loop_
_symmetry_equiv_pos_as_xyz
  x,y,z
_cell_length_a	15.944551
_cell_length_b	15.021413
_cell_length_c	15.944493
_cell_angle_alpha	89.990110
_cell_angle_beta	83.486891
_cell_angle_gamma	90.002826
loop_
_atom_site_label
_atom_site_type_symbol
_atom_site_fract_x
_atom_site_fract_y
_atom_site_fract_z
O1	O	1.114506	0.073927	0.108324
O2	O	0.869954	0.073948	0.121680
O3	O	0.998934	0.073945	-0.007276
O4	O	0.985527	0.073931	0.237280
O5	O	0.998913	-0.074120	-0.007258
O6	O	0.869933	-0.074116	0.121699
O7	O	1.114486	-0.074137	0.108342
Zn8	Zn	0.992206	-0.097635	0.115023
Zn9	Zn	0.992233	0.097446	0.114999
O10	O	0.985506	-0.074133	0.237299
C11	C	0.838650	-0.000081	0.121135
C12	C	0.745404	-0.000073	0.119473
C13	C	0.530565	-0.000085	0.035566
C14	C	0.469547	0.072916	0.074520
C15	C	0.574679	-0.000083	0.116465
C16	C	0.469549	-0.073064	0.074558
C17	C	0.409767	-0.000097	0.113555
C18	C	0.514889	0.072979	0.155442
C19	C	0.514897	-0.073067	0.155468
C20	C	0.453897	-0.000048	0.194481
C21	C	0.669681	-0.000074	0.118140
C22	C	0.314766	-0.000099	0.111886
N23	N	0.992194	-0.230772	0.115039
C24	C	0.932545	-0.470454	0.174641
C25	C	1.008442	-0.529796	0.190948
C26	C	0.992215	-0.412379	0.115018
C27	C	0.916339	-0.529779	0.098730
C28	C	0.992229	-0.587803	0.115000
C29	C	1.068151	-0.470415	0.131364
C30	C	0.975998	-0.470392	0.039112
C31	C	1.051950	-0.529708	0.055387
C32	C	0.992206	-0.311322	0.115031
C33	C	0.992247	-0.688859	0.114987
C34	C	1.145790	-0.000106	0.108888
C35	C	1.239036	-0.000108	0.110550
N36	N	0.992252	0.230584	0.114976
C37	C	0.998375	-0.000084	-0.038562
C38	C	0.996733	-0.000072	-0.131810
C39	C	1.072653	-0.000095	-0.367570
C40	C	1.031722	0.072911	-0.418147
C41	C	0.993688	-0.000083	-0.302531
C42	C	1.031683	-0.073069	-0.418105
C43	C	0.990754	-0.000097	-0.467441
C44	C	0.952779	0.072984	-0.351880
C45	C	0.952752	-0.073061	-0.351835
C46	C	0.911763	-0.000037	-0.402379
C47	C	0.995381	-0.000074	-0.207531
C48	C	0.989055	-0.000100	-0.562438
C49	C	0.986064	-0.000103	0.268584
C50	C	0.987707	-0.000109	0.361833
H51	H	0.449461	-0.134778	0.040333
H52	H	0.919424	-0.134780	-0.322866
O53	O	1.112282	-0.560410	-0.004790
C54	C	1.223128	-0.522720	-0.114585
C55	C	1.154845	-0.487829	-0.046459
H56	H	1.257547	-0.464056	-0.148306
H57	H	1.270157	-0.565421	-0.083713
H58	H	1.192184	-0.564525	-0.162215
H59	H	1.185715	-0.445986	0.001192
H60	H	1.107823	-0.445176	-0.077390
O61	O	1.071588	-0.146610	-0.452664
C62	C	1.184945	-0.203842	-0.550644
C63	C	1.139837	-0.120490	-0.511563
H64	H	1.240122	-0.182753	-0.598285
H65	H	1.209450	-0.245376	-0.498752
H66	H	1.138610	-0.245111	-0.583871
H67	H	1.186122	-0.079152	-0.478342
H68	H	1.115317	-0.079022	-0.563491
O69	O	0.538670	0.146627	0.196354
C70	C	0.525574	0.230355	0.326077
C71	C	0.498586	0.146903	0.279856
H72	H	0.493165	0.230616	0.393591
H73	H	0.596955	0.229790	0.327054
H74	H	0.506537	0.292481	0.291776
H75	H	0.517566	0.084734	0.314120
H76	H	0.427207	0.147547	0.278871
O77	O	0.839713	-0.560779	0.082396
C78	C	0.690220	-0.565868	0.126852
C79	C	0.776944	-0.530690	0.145429
H80	H	0.639450	-0.541571	0.177812
H81	H	0.675833	-0.540386	0.062664
H82	H	0.691186	-0.641753	0.126352
H83	H	0.776042	-0.454808	0.145974
H84	H	0.791297	-0.556240	0.209604
O85	O	0.830607	-0.000026	-0.420985
C86	C	0.737894	-0.000638	-0.530279
C87	C	0.829838	-0.000679	-0.509323
H88	H	0.737242	-0.001146	-0.601699
H89	H	0.703966	-0.062296	-0.501884
H90	H	0.704402	0.061630	-0.502756
H91	H	0.863403	-0.062904	-0.536842
H92	H	0.863703	0.061021	-0.537703
O93	O	0.414409	-0.000126	0.274695
C94	C	0.393672	-0.076419	0.408397
C95	C	0.438464	-0.076436	0.317587
H96	H	0.413090	-0.138119	0.443095
H97	H	0.412299	-0.014185	0.442775
H98	H	0.322411	-0.076967	0.406527
H99	H	0.509733	-0.075920	0.319379
H100	H	0.419768	-0.138666	0.283245
O101	O	0.570292	0.000163	-0.044553
C102	C	0.592351	0.077392	-0.177705
C103	C	0.547319	0.077225	-0.086992
H104	H	0.573781	0.139680	-0.212049
H105	H	0.663599	0.076816	-0.175735
H106	H	0.572966	0.015758	-0.212506
H107	H	0.566634	0.138848	-0.052138
H108	H	0.476080	0.077755	-0.089023
H109	H	1.065078	0.134628	-0.447101
O110	O	0.445665	0.146643	0.033773
C111	C	0.442704	0.306954	0.029489
C112	C	0.469804	0.223537	0.075711
H113	H	0.462193	0.369144	0.063387
H114	H	0.474545	0.306936	-0.038244
H115	H	0.371247	0.306531	0.029135
H116	H	0.541250	0.223905	0.076130
H117	H	0.437902	0.223588	0.143420
H118	H	0.535013	-0.134791	0.189664
O119	O	0.872496	-0.439447	0.234946
C120	C	0.821760	-0.434582	0.383101
C121	C	0.889824	-0.469742	0.314893
H122	H	0.835736	-0.459076	0.447752
H123	H	0.821911	-0.358693	0.382216
H124	H	0.757202	-0.459998	0.369816
H125	H	0.954416	-0.444391	0.328132
H126	H	0.889599	-0.545629	0.315795
O127	O	0.913104	0.146679	-0.317384
C128	C	0.870128	0.229341	-0.190246
C129	C	0.915090	0.145852	-0.229204
H130	H	0.871703	0.228690	-0.118945
H131	H	0.903566	0.291501	-0.218121
H132	H	0.801768	0.229609	-0.204833
H133	H	0.983451	0.145498	-0.214632
H134	H	0.881586	0.083730	-0.201328
H135	H	1.132338	-0.444449	0.145210
O136	O	1.024844	-0.561085	0.267455
C137	C	1.043875	-0.690251	0.352919
C138	C	1.025323	-0.654940	0.266228
H139	H	1.044250	-0.766137	0.351962
H140	H	1.108095	-0.664884	0.367316
H141	H	0.992950	-0.665864	0.403682
H142	H	1.076194	-0.679313	0.215410
H143	H	0.961078	-0.680300	0.251903
H144	H	1.140671	-0.000028	-0.351942
O145	O	0.959445	-0.439273	-0.037400
C146	C	0.860736	-0.434204	-0.141090
C147	C	0.879378	-0.469491	-0.054420
H148	H	0.796010	-0.458636	-0.154886
H149	H	0.861450	-0.358317	-0.140541
H150	H	0.910983	-0.459588	-0.192038
H151	H	0.829151	-0.444173	-0.003424
H152	H	0.878694	-0.545377	-0.055040
