data_functionalizedCrystal
_audit_creation_method	'MofGen! by Chris Wilmer'
_symmetry_space_group_name_H-M	'P1'
_symmetry_Int_Tables_number	1
_symmetry_cell_setting	triclinic
loop_
_symmetry_equiv_pos_as_xyz
  x,y,z
_cell_length_a	10.654545
_cell_length_b	11.792254
_cell_length_c	9.730223
_cell_angle_alpha	89.995422
_cell_angle_beta	89.997167
_cell_angle_gamma	84.340838
loop_
_atom_site_label
_atom_site_type_symbol
_atom_site_fract_x
_atom_site_fract_y
_atom_site_fract_z
O1	O	1.667399	0.159394	-0.114277
O2	O	1.301878	0.174588	-0.114283
O3	O	1.493501	0.001842	-0.114270
O4	O	1.475777	0.332140	-0.114290
O5	O	1.493488	0.001837	0.114310
O6	O	1.301866	0.174583	0.114297
O7	O	1.667387	0.159390	0.114303
Zn8	Zn	1.484624	0.166986	0.150592
Zn9	Zn	1.484641	0.166992	-0.150572
O10	O	1.475765	0.332136	0.114290
C11	C	1.255077	0.173471	0.000007
C12	C	1.115643	0.170137	0.000005
C13	C	1.050136	0.168564	0.124604
C14	C	0.919125	0.165412	0.124605
C15	C	0.919139	0.165410	-0.124606
C16	C	1.050149	0.168554	-0.124605
C17	C	1.492378	-0.040454	0.000020
C18	C	1.489036	-0.166474	0.000018
C19	C	1.486321	-0.268817	0.000013
C20	C	1.482926	-0.397212	0.000001
C21	C	1.714188	0.160506	0.000011
C22	C	1.853623	0.163841	0.000004
C23	C	1.476887	0.374431	-0.000002
C24	C	1.480229	0.500452	-0.000010
N25	N	1.484622	0.166981	0.356128
N26	N	1.484653	0.166988	-0.356108
C27	C	1.569502	0.090521	0.428060
C28	C	1.569515	0.090522	0.571943
C29	C	1.399764	0.243451	0.571950
C30	C	1.399746	0.243444	0.428070
H31	H	0.865795	0.164133	0.226066
H32	H	1.330621	0.305707	0.369499
C33	C	0.847090	0.163684	-0.261664
H34	H	0.759681	0.161599	-0.243822
H35	H	0.877688	0.098130	-0.312861
H36	H	0.859436	0.230282	-0.312860
H37	H	1.103457	0.169853	0.226069
C38	C	1.306420	0.327564	0.651090
H39	H	1.318595	0.316627	0.747083
H40	H	1.222518	0.314536	0.627534
H41	H	1.320581	0.403433	0.627489
C42	C	1.122211	0.170288	-0.261671
H43	H	1.064441	0.168912	-0.335884
H44	H	1.182448	0.105443	-0.266843
H45	H	1.164185	0.237595	-0.266850
C46	C	1.662850	0.006406	0.348929
H47	H	1.713393	-0.039138	0.412381
H48	H	1.715399	0.047667	0.292780
H49	H	1.617336	-0.041229	0.292823
C50	C	1.662887	0.006421	0.651062
H51	H	1.713436	-0.039110	0.587605
H52	H	1.617404	-0.041210	0.707207
H53	H	1.715448	0.047703	0.707171
