data_functionalizedCrystal
_audit_creation_method	'MofGen! by Chris Wilmer'
_symmetry_space_group_name_H-M	'P1'
_symmetry_Int_Tables_number	1
_symmetry_cell_setting	triclinic
loop_
_symmetry_equiv_pos_as_xyz
  x,y,z
_cell_length_a	21.295418
_cell_length_b	21.295417
_cell_length_c	21.395356
_cell_angle_alpha	89.969378
_cell_angle_beta	89.957220
_cell_angle_gamma	90.046319
loop_
_atom_site_label
_atom_site_type_symbol
_atom_site_fract_x
_atom_site_fract_y
_atom_site_fract_z
Zn1	Zn	0.962350	-0.250359	-0.354570
Zn2	Zn	0.962254	-0.355628	-0.249787
Zn3	Zn	0.857075	-0.250405	-0.249771
Zn4	Zn	0.857042	-0.355624	-0.354492
O5	O	0.909680	-0.303004	-0.302155
O6	O	1.050427	-0.264306	-0.340709
O7	O	0.948275	-0.341691	-0.162107
O8	O	0.871093	-0.162310	-0.263699
O9	O	1.050356	-0.341646	-0.263725
O10	O	0.948439	-0.162276	-0.340694
O11	O	0.871000	-0.264384	-0.162095
O12	O	0.768981	-0.264380	-0.263624
O13	O	0.871038	-0.341639	-0.442180
O14	O	0.768957	-0.341684	-0.340561
O15	O	0.948407	-0.264302	-0.442237
O16	O	0.948244	-0.443717	-0.263650
O17	O	0.870945	-0.443714	-0.340576
C18	C	0.746129	-0.303037	-0.302083
C19	C	0.676160	-0.303067	-0.302067
C20	C	0.643298	-0.343372	-0.342068
C21	C	0.577555	-0.343356	-0.342096
C22	C	0.544678	-0.303042	-0.302112
C23	C	0.577549	-0.262729	-0.262107
C24	C	0.643290	-0.262741	-0.262085
N25	N	0.441403	-0.298124	-0.247311
N26	N	0.378952	-0.298116	-0.247335
C27	C	0.346603	-0.303002	-0.302178
N28	N	0.379066	-0.307909	-0.356999
N29	N	0.441523	-0.307920	-0.356975
C30	C	0.473393	-0.303024	-0.302132
C31	C	0.242455	-0.343293	-0.342214
C32	C	0.176712	-0.343273	-0.342243
C33	C	0.176706	-0.262649	-0.262248
C34	C	0.242448	-0.262665	-0.262225
C35	C	0.275319	-0.302991	-0.302207
C36	C	0.909598	-0.466556	-0.302120
C37	C	0.909620	-0.536524	-0.302126
C38	C	0.949905	-0.569371	-0.262112
C39	C	0.949935	-0.635114	-0.262126
C40	C	0.909668	-0.668006	-0.302148
C41	C	0.869380	-0.635151	-0.342170
C42	C	0.869356	-0.569410	-0.342159
N43	N	0.854601	-0.771287	-0.306900
N44	N	0.854625	-0.833739	-0.306907
C45	C	0.909738	-0.866081	-0.302184
N46	N	0.964827	-0.833612	-0.297442
N47	N	0.964802	-0.771155	-0.297432
C48	C	0.909690	-0.739292	-0.302164
C49	C	0.950059	-0.970214	-0.262182
C50	C	0.950089	-1.035957	-0.262201
C51	C	0.869529	-1.035994	-0.342242
C52	C	0.869504	-0.970251	-0.342227
C53	C	0.909768	-0.937365	-0.302194
C54	C	1.073871	-0.302971	-0.302228
C55	C	1.143839	-0.302957	-0.302259
C56	C	0.909730	-0.302965	-0.465578
C57	C	0.909751	-0.302948	-0.535219
C58	C	0.909780	-0.138814	-0.302203
C59	C	0.909823	-0.068846	-0.302224
C60	C	0.869525	-0.262690	-0.567917
C61	C	0.869523	-0.262679	-0.633352
C62	C	0.909758	-0.302918	-0.666088
C63	C	0.949987	-0.343184	-0.633383
C64	C	0.949983	-0.343199	-0.567948
C65	C	0.966475	-0.307852	-0.769793
C66	C	0.966479	-0.307832	-0.835226
C67	C	0.909768	-0.302876	-0.867909
C68	C	0.853051	-0.297926	-0.835151
C69	C	0.853047	-0.297941	-0.769716
C70	C	0.909766	-0.302907	-0.737040
C71	C	0.869536	-0.262603	-0.971559
C72	C	0.869533	-0.262596	-1.036995
C73	C	0.950003	-0.343098	-1.037024
C74	C	0.950001	-0.343109	-0.971589
C75	C	0.909768	-0.302858	-0.938860
C76	C	0.909667	-0.302998	-0.139367
C77	C	0.909768	-0.302837	-0.069726
H78	H	0.149956	-0.376093	-0.374821
N79	N	0.826049	-0.934818	-0.385381
H80	H	0.800543	-0.965629	-0.410737
H81	H	0.796922	-0.907595	-0.359833
N82	N	0.993382	-0.670544	-0.218954
H83	H	0.967816	-0.697867	-0.189896
H84	H	1.022548	-0.697735	-0.244492
N85	N	0.826136	-0.219201	-0.936255
H86	H	0.832240	-0.225316	-0.889840
H87	H	0.835959	-0.174239	-0.947715
H88	H	0.670057	-0.376207	-0.374626
H89	H	0.982743	-0.375981	-0.541327
H90	H	1.012660	-0.311883	-0.743188
H91	H	0.550776	-0.229904	-0.229553
H92	H	0.836772	-0.229815	-1.063616
N93	N	1.027649	-0.313171	-0.870555
H94	H	1.063574	-0.316322	-0.839923
H95	H	1.026715	-0.351952	-0.897692
N96	N	0.678739	-0.219263	-0.218943
H97	H	0.647938	-0.193717	-0.193619
H98	H	0.705959	-0.244850	-0.189889
H99	H	0.982898	-1.062701	-0.229618
H100	H	0.149938	-0.229821	-0.229695
H101	H	0.269205	-0.229848	-0.229648
H102	H	0.982765	-0.375861	-1.063677
H103	H	0.982747	-0.375948	-0.660040
H104	H	0.836746	-1.062774	-0.374831
N105	N	0.542100	-0.386829	-0.385244
H106	H	0.572899	-0.412375	-0.410569
H107	H	0.514767	-0.415918	-0.359690
N108	N	0.826140	-0.219272	-0.532616
H109	H	0.800659	-0.193764	-0.563263
H110	H	0.796987	-0.244898	-0.505435
N111	N	0.277914	-0.386778	-0.385339
H112	H	0.305129	-0.415923	-0.359811
H113	H	0.247077	-0.412264	-0.410679
N114	N	0.826134	-0.219257	-0.668630
H115	H	0.800646	-0.193762	-0.637967
H116	H	0.851782	-0.190118	-0.695804
N117	N	0.993340	-0.533901	-0.218944
H118	H	1.018868	-0.564690	-0.193600
H119	H	1.022447	-0.506578	-0.244487
N120	N	0.825950	-0.670624	-0.385339
H121	H	0.832076	-0.717255	-0.379273
H122	H	0.780994	-0.659190	-0.375530
H123	H	0.836550	-0.542665	-0.374745
N124	N	0.993485	-0.934738	-0.219008
H125	H	1.019014	-0.965525	-0.193664
H126	H	1.022591	-0.907406	-0.244543
H127	H	0.806866	-0.293911	-0.743047
N128	N	0.791875	-0.292613	-0.870390
H129	H	0.800479	-0.293370	-0.916813
H130	H	0.763734	-0.329038	-0.858904
H131	H	0.982759	-0.375890	-0.944967
