data_functionalizedCrystal
_audit_creation_method	'MofGen! by Chris Wilmer'
_symmetry_space_group_name_H-M	'P1'
_symmetry_Int_Tables_number	1
_symmetry_cell_setting	triclinic
loop_
_symmetry_equiv_pos_as_xyz
  x,y,z
_cell_length_a	25.639239
_cell_length_b	16.625548
_cell_length_c	25.639243
_cell_angle_alpha	89.989046
_cell_angle_beta	90.014050
_cell_angle_gamma	89.960246
loop_
_atom_site_label
_atom_site_type_symbol
_atom_site_fract_x
_atom_site_fract_y
_atom_site_fract_z
Zn1	Zn	-0.208224	-1.232513	0.295620
Zn2	Zn	0.291776	-0.732513	0.795620
Zn3	Zn	-0.295635	-1.232401	0.208184
Zn4	Zn	0.204365	-0.732401	0.708184
Zn5	Zn	-0.208217	-1.097697	0.208197
Zn6	Zn	0.291783	-0.597697	0.708197
Zn7	Zn	-0.295632	-1.097607	0.295587
Zn8	Zn	0.204368	-0.597607	0.795587
O9	O	-0.251927	-1.165055	0.251897
O10	O	0.248073	-0.665055	0.751897
O11	O	-0.219823	-1.345330	0.284029
O12	O	0.280177	-0.845330	0.784029
O13	O	-0.284038	-1.214523	0.135021
O14	O	0.215962	-0.714523	0.635021
O15	O	-0.135053	-1.115666	0.219813
O16	O	0.364947	-0.615666	0.719813
O17	O	-0.284044	-1.345248	0.219791
O18	O	0.215956	-0.845248	0.719791
O19	O	-0.135058	-1.214714	0.284042
O20	O	0.364942	-0.714714	0.784042
O21	O	-0.219813	-1.115557	0.135030
O22	O	0.280187	-0.615557	0.635030
O23	O	-0.219809	-0.984853	0.219782
O24	O	0.280191	-0.484853	0.719782
O25	O	-0.284038	-1.115512	0.368757
O26	O	0.215962	-0.615512	0.868757
O27	O	-0.284032	-0.984787	0.283987
O28	O	0.215968	-0.484787	0.783987
O29	O	-0.219820	-1.214627	0.368780
O30	O	0.280180	-0.714627	0.868780
O31	O	-0.368800	-1.214435	0.219759
O32	O	0.131200	-0.714435	0.719759
O33	O	-0.368797	-1.115403	0.283974
O34	O	0.131203	-0.615403	0.783974
C35	C	-0.387770	-1.164919	0.251873
C36	C	0.112230	-0.664919	0.751873
C37	C	-0.445884	-1.164935	0.251880
C38	C	0.054116	-0.664935	0.751880
C39	C	-0.251920	-0.955564	0.251882
C40	C	0.248080	-0.455564	0.751882
C41	C	-0.251929	-0.865943	0.251889
C42	C	0.248071	-0.365943	0.751889
C43	C	-0.251929	-1.165072	0.388270
C44	C	0.248071	-0.665072	0.888270
C45	C	-0.251930	-1.165079	0.446384
C46	C	0.248070	-0.665079	0.946384
C47	C	-0.806236	-1.216755	0.218517
C48	C	-0.306236	-0.716755	0.718517
C49	C	-0.860840	-1.216786	0.218524
C50	C	-0.360840	-0.716786	0.718524
O51	O	-0.889067	-1.260705	0.190132
O52	O	-0.389067	-0.760705	0.690132
N53	N	-0.888166	-1.165196	0.251932
N54	N	-0.388166	-0.665196	0.751932
C55	C	-0.860885	-1.113577	0.285338
C56	C	-0.360885	-0.613577	0.785338
O57	O	-0.889142	-1.069699	0.313754
O58	O	-0.389142	-0.569699	0.813754
C59	C	-0.806282	-1.113551	0.285333
C60	C	-0.306282	-0.613551	0.785333
C61	C	-0.778958	-1.165138	0.251920
C62	C	-0.278958	-0.665138	0.751920
C63	C	-0.778912	-1.268339	0.185107
C64	C	-0.278912	-0.768339	0.685107
C65	C	-0.724312	-1.268307	0.185100
C66	C	-0.224312	-0.768307	0.685100
C67	C	-0.697034	-1.216690	0.218502
C68	C	-0.197034	-0.716690	0.718502
C69	C	-0.724358	-1.165106	0.251912
C70	C	-0.224358	-0.665106	0.751912
C71	C	-0.779002	-1.061936	0.318742
C72	C	-0.279002	-0.561936	0.818742
C73	C	-0.724395	-1.061915	0.318734
C74	C	-0.224395	-0.561915	0.818734
C75	C	-0.697072	-1.113502	0.285321
C76	C	-0.197072	-0.613502	0.785321
C77	C	-0.642480	-1.113457	0.285307
C78	C	-0.142480	-0.613457	0.785307
N79	N	-0.615154	-1.165047	0.251900
N80	N	-0.115154	-0.665047	0.751900
C81	C	-0.642431	-1.216664	0.218497
C82	C	-0.142431	-0.716664	0.718497
C83	C	-0.975556	-1.113638	0.285346
C84	C	-0.475556	-0.613638	0.785346
C85	C	-1.030158	-1.113660	0.285348
C86	C	-0.530158	-0.613660	0.785348
C87	C	-1.030109	-1.216870	0.218535
C88	C	-0.530109	-0.716870	0.718535
C89	C	-0.975506	-1.216844	0.218531
C90	C	-0.475506	-0.716844	0.718531
C91	C	-0.948230	-1.165228	0.251939
C92	C	-0.448230	-0.665228	0.751939
C93	C	-0.527766	-1.216591	0.218484
C94	C	-0.027766	-0.716591	0.718484
C95	C	-0.473161	-1.216551	0.218478
C96	C	0.026839	-0.716551	0.718478
C97	C	-0.473215	-1.113344	0.285292
C98	C	0.026785	-0.613344	0.785292
C99	C	-0.527815	-1.113380	0.285297
C100	C	-0.027815	-0.613380	0.785297
C101	C	-0.555090	-1.165010	0.251891
C102	C	-0.055090	-0.665010	0.751891
O103	O	-0.614218	-1.069562	0.313687
O104	O	-0.114218	-0.569562	0.813687
O105	O	-0.614167	-1.260542	0.190091
O106	O	-0.114167	-0.760542	0.690091
C107	C	-0.115554	-1.165213	0.251932
C108	C	0.384446	-0.665213	0.751932
C109	C	-0.057440	-1.165280	0.251948
C110	C	0.442560	-0.665280	0.751948
C111	C	-0.251935	-1.375363	0.251912
C112	C	0.248065	-0.875363	0.751912
C113	C	-0.251938	-1.464985	0.251918
C114	C	0.248062	-0.964985	0.751918
C115	C	-0.251932	-0.537767	0.251911
C116	C	0.248068	-0.037767	0.751911
C117	C	-0.251930	-0.629075	0.251903
C118	C	0.248070	-0.129075	0.751903
C119	C	-0.251931	-0.701852	0.251899
C120	C	0.248069	-0.201852	0.751899
C121	C	-0.251928	-0.793166	0.251892
C122	C	0.248072	-0.293166	0.751892
C123	C	-0.285375	-1.216583	0.697565
C124	C	0.214625	-0.716583	1.197565
C125	C	-0.285376	-1.216585	0.642961
C126	C	0.214624	-0.716585	1.142961
O127	O	-0.313826	-1.260385	0.614713
O128	O	0.186174	-0.760385	1.114713
N129	N	-0.251936	-1.165063	0.615658
N130	N	0.248064	-0.665063	1.115658
C131	C	-0.218496	-1.113531	0.642962
C132	C	0.281504	-0.613531	1.142962
O133	O	-0.190052	-1.069707	0.614725
O134	O	0.309948	-0.569707	1.114725
C135	C	-0.218498	-1.113525	0.697566
C136	C	0.281502	-0.613525	1.197566
C137	C	-0.251937	-1.165056	0.724866
C138	C	0.248063	-0.665056	1.224866
C139	C	-0.318812	-1.268108	0.724865
C140	C	0.181188	-0.768108	1.224865
C141	C	-0.318811	-1.268107	0.779465
C142	C	0.181189	-0.768107	1.279465
C143	C	-0.285372	-1.216580	0.806766
C144	C	0.214628	-0.716580	1.306766
C145	C	-0.251935	-1.165054	0.779466
C146	C	0.248065	-0.665054	1.279466
C147	C	-0.185061	-1.061989	0.724869
C148	C	0.314939	-0.561989	1.224869
C149	C	-0.185066	-1.061987	0.779476
C150	C	0.314934	-0.561987	1.279476
C151	C	-0.218505	-1.113518	0.806776
C152	C	0.281495	-0.613518	1.306776
C153	C	-0.218495	-1.113526	0.861367
C154	C	0.281505	-0.613526	1.361367
N155	N	-0.251936	-1.165047	0.888670
N156	N	0.248064	-0.665047	1.388670
C157	C	-0.285374	-1.216574	0.861369
C158	C	0.214626	-0.716574	1.361369
C159	C	-0.218494	-1.113545	0.528292
C160	C	0.281506	-0.613545	1.028292
C161	C	-0.218489	-1.113555	0.473689
C162	C	0.281511	-0.613555	0.973689
C163	C	-0.285371	-1.216608	0.473691
C164	C	0.214629	-0.716608	0.973691
C165	C	-0.285373	-1.216602	0.528295
C166	C	0.214627	-0.716602	1.028295
C167	C	-0.251935	-1.165067	0.555594
C168	C	0.248065	-0.665067	1.055594
C169	C	-0.285368	-1.216568	0.976034
C170	C	0.214632	-0.716568	1.476034
C171	C	-0.285362	-1.216565	1.030640
C172	C	0.214638	-0.716565	1.530640
C173	C	-0.218482	-1.113509	1.030633
C174	C	0.281518	-0.613509	1.530633
C175	C	-0.218486	-1.113515	0.976032
C176	C	0.281514	-0.613515	1.476032
C177	C	-0.251933	-1.165047	0.948734
C178	C	0.248067	-0.665047	1.448734
O179	O	-0.190061	-1.069746	0.889649
O180	O	0.309939	-0.569746	1.389649
O181	O	-0.313818	-1.260383	0.889613
O182	O	0.186182	-0.760383	1.389613
C183	C	-0.251934	-1.165035	1.116054
C184	C	0.248066	-0.665035	1.616054
C185	C	-0.251923	-1.165037	1.057940
C186	C	0.248077	-0.665037	1.557940
H187	H	-0.450916	-1.258560	0.191267
H188	H	0.049084	-0.758560	0.691267
H189	H	-0.191256	-1.071559	1.052871
H190	H	0.308744	-0.571559	1.552871
Br191	Br	-0.330756	-1.286539	0.565339
Br192	Br	0.169244	-0.786539	1.065339
Br193	Br	-0.564773	-1.286660	0.173147
Br194	Br	-0.064773	-0.786660	0.673147
Br195	Br	-0.687238	-1.338335	0.139758
Br196	Br	-0.187238	-0.838335	0.639758
Br197	Br	-0.436185	-1.043300	0.330624
Br198	Br	0.063815	-0.543300	0.830624
H199	H	-0.801115	-1.310376	0.157907
H200	H	-0.301115	-0.810376	0.657907
H201	H	-0.191254	-1.071602	0.451467
H202	H	0.308746	-0.571602	0.951467
H203	H	-0.191260	-1.071582	0.550516
H204	H	0.308740	-0.571582	1.050516
H205	H	-0.953350	-1.071600	0.312549
H206	H	-0.453350	-0.571600	0.812549
H207	H	-0.953262	-1.258851	0.191323
H208	H	-0.453262	-0.758851	0.691323
H209	H	-0.801239	-1.019924	0.345948
H210	H	-0.301239	-0.519924	0.845948
H211	H	-0.157832	-1.020026	0.702651
H212	H	0.342168	-0.520026	1.202651
Br213	Br	-0.364200	-1.338036	0.816507
Br214	Br	0.135800	-0.838036	1.316507
Br215	Br	-1.067138	-1.286919	0.173200
Br216	Br	-0.567138	-0.786919	0.673200
H217	H	-0.157837	-1.020020	0.801701
H218	H	0.342163	-0.520020	1.301701
Br219	Br	-0.330745	-1.286506	1.067686
Br220	Br	0.169255	-0.786506	1.567686
Br221	Br	-0.687380	-0.991864	0.364078
Br222	Br	-0.187380	-0.491864	0.864078
H223	H	-0.346044	-1.310069	0.702642
H224	H	0.153956	-0.810069	1.202642
Br225	Br	-0.173098	-1.043591	0.938981
Br226	Br	0.326902	-0.543591	1.438981
Br227	Br	-0.564898	-1.043349	0.330631
Br228	Br	-0.064898	-0.543349	0.830631
H229	H	-1.052400	-1.071644	0.312552
H230	H	-0.552400	-0.571644	0.812552
Br231	Br	-0.330761	-1.286505	0.938996
Br232	Br	0.169239	-0.786505	1.438996
Br233	Br	-0.330753	-1.286536	0.436630
Br234	Br	0.169247	-0.786536	0.936630
