data_functionalizedCrystal
_audit_creation_method	'MofGen! by Chris Wilmer'
_symmetry_space_group_name_H-M	'P1'
_symmetry_Int_Tables_number	1
_symmetry_cell_setting	triclinic
loop_
_symmetry_equiv_pos_as_xyz
  x,y,z
_cell_length_a	14.044220
_cell_length_b	14.519709
_cell_length_c	13.596369
_cell_angle_alpha	89.999709
_cell_angle_beta	89.993157
_cell_angle_gamma	91.565489
loop_
_atom_site_label
_atom_site_type_symbol
_atom_site_fract_x
_atom_site_fract_y
_atom_site_fract_z
O1	O	0.124273	-1.233892	-0.081665
O2	O	0.138907	-0.966596	-0.081695
O3	O	-0.006402	-1.096232	-0.081671
O4	O	0.269581	-1.104256	-0.081690
O5	O	-0.006409	-1.096217	0.081912
O6	O	0.138899	-0.966581	0.081887
O7	O	0.124265	-1.233878	0.081918
Zn8	Zn	0.131581	-1.100227	0.107875
Zn9	Zn	0.131591	-1.100246	-0.107653
O10	O	0.269574	-1.104241	0.081893
C11	C	-0.041726	-1.092712	0.000120
C12	C	-0.146969	-1.082235	0.000120
C13	C	0.138221	-0.932174	0.000092
C14	C	0.136177	-0.829628	0.000081
C15	C	0.124951	-1.268300	0.000128
C16	C	0.126995	-1.370846	0.000133
C17	C	-0.339663	-1.063081	0.000104
C18	C	-0.397170	-1.137389	0.000110
C19	C	-0.504392	-1.126731	0.000101
C20	C	-0.232432	-1.073737	0.000113
C21	C	0.304898	-1.107761	0.000100
C22	C	0.410141	-1.118238	0.000093
C23	C	0.128653	-0.454125	0.000126
C24	C	0.130743	-0.558601	0.000113
C25	C	0.132415	-0.641873	0.000103
C26	C	0.134505	-0.746356	0.000092
N27	N	0.131573	-1.100220	0.254967
N28	N	0.131591	-1.100260	-0.254744
C29	C	0.131592	-1.100245	0.656258
C30	C	0.131590	-1.100236	0.544606
C31	C	0.131583	-1.100233	0.455616
C32	C	0.131580	-1.100223	0.343957
H33	H	-0.365878	-1.209010	0.000052
C34	C	-0.351316	-0.918418	-0.083999
C35	C	-0.381902	-0.966399	0.000094
H36	H	-0.377408	-0.858735	-0.084004
H37	H	-0.283766	-0.912984	-0.083988
H38	H	-0.372048	-0.950991	-0.141037
H39	H	-0.361165	-0.933830	0.057132
H40	H	-0.449467	-0.971830	0.000092
