data_functionalizedCrystal
_audit_creation_method	'MofGen! by Chris Wilmer'
_symmetry_space_group_name_H-M	'P1'
_symmetry_Int_Tables_number	1
_symmetry_cell_setting	triclinic
loop_
_symmetry_equiv_pos_as_xyz
  x,y,z
_cell_length_a	19.188933
_cell_length_b	12.837942
_cell_length_c	11.892083
_cell_angle_alpha	94.299957
_cell_angle_beta	93.887914
_cell_angle_gamma	91.012745
loop_
_atom_site_label
_atom_site_type_symbol
_atom_site_fract_x
_atom_site_fract_y
_atom_site_fract_z
O1	O	0.939042	-0.122749	0.093965
O2	O	0.736926	-0.140163	0.093975
O3	O	0.833502	0.019426	0.093963
O4	O	0.842466	-0.282338	0.093977
O5	O	0.825442	0.006148	-0.094043
O6	O	0.728865	-0.153441	-0.094032
O7	O	0.930982	-0.136028	-0.094042
Zn8	Zn	0.828644	-0.146843	-0.123887
Zn9	Zn	0.839264	-0.129348	0.123820
O10	O	0.834406	-0.295616	-0.094030
C11	C	0.706846	-0.146238	-0.000027
C12	C	0.629226	-0.144544	-0.000023
C13	C	0.079534	-0.125217	0.102447
C14	C	0.152468	-0.126802	0.102451
C15	C	0.184545	-0.134838	-0.000031
C16	C	0.143684	-0.141262	-0.102525
C17	C	0.070753	-0.139666	-0.102527
N18	N	0.294512	-0.201700	-0.076310
N19	N	0.363794	-0.203218	-0.076302
C20	C	0.404284	-0.139644	-0.000033
N21	N	0.372875	-0.074506	0.076245
N22	N	0.303586	-0.072993	0.076240
C23	C	0.263627	-0.136568	-0.000041
C24	C	0.524218	-0.134931	0.102460
C25	C	0.597153	-0.136510	0.102460
C26	C	0.588368	-0.150980	-0.102519
C27	C	0.515435	-0.149391	-0.102516
C28	C	0.483365	-0.141371	-0.000024
C29	C	0.826444	0.051394	-0.000039
C30	C	0.817413	0.166430	-0.000037
C31	C	0.961062	-0.129953	-0.000037
C32	C	1.038683	-0.131646	-0.000034
C33	C	0.841464	-0.327584	-0.000025
C34	C	0.850495	-0.442620	-0.000020
N35	N	0.821401	-0.158781	-0.292940
C36	C	0.925982	0.407881	-0.000019
C37	C	0.917500	0.515968	-0.000017
C38	C	0.791968	0.490696	-0.000022
C39	C	0.800450	0.382608	-0.000024
C40	C	0.867459	0.341205	-0.000024
C41	C	0.875940	0.233114	-0.000035
C42	C	0.750409	0.207844	-0.000032
C43	C	0.741927	0.315932	-0.000030
C44	C	0.771050	-0.241965	-0.470472
C45	C	0.776099	-0.233604	-0.352131
C46	C	0.861655	-0.092313	-0.352100
C47	C	0.856606	-0.100674	-0.470441
C48	C	0.811303	-0.175504	-0.529623
C49	C	0.806258	-0.183869	-0.647967
C50	C	0.891810	-0.042574	-0.647934
C51	C	0.896859	-0.034213	-0.529592
N52	N	0.846512	-0.117401	0.292874
H53	H	0.482173	-0.154630	-0.185967
H54	H	0.737413	0.524426	-0.000010
H55	H	0.630414	-0.131267	0.185916
H56	H	0.933743	0.026714	-0.481393
H57	H	0.924589	0.011540	-0.696108
C58	C	0.044261	-0.116369	0.215184
H59	H	0.079042	-0.112754	0.276219
H60	H	0.014682	-0.175856	0.219456
H61	H	0.017306	-0.055014	0.219434
C62	C	0.721201	-0.324246	-0.535576
H63	H	0.697943	-0.362622	-0.483397
H64	H	0.747192	-0.370563	-0.581742
H65	H	0.687699	-0.290301	-0.581740
H66	H	0.169807	-0.147802	-0.185967
H67	H	0.185736	-0.121572	0.185906
H68	H	0.898535	-0.031382	-0.303898
C69	C	0.981872	0.589313	-0.000009
H70	H	0.967226	0.659618	0.000002
H71	H	1.006246	0.572167	-0.065567
H72	H	1.011856	0.581416	0.065565
C73	C	0.686032	0.134499	-0.000029
H74	H	0.700679	0.064195	-0.000022
H75	H	0.656041	0.142395	-0.065588
H76	H	0.661667	0.151649	0.065545
C77	C	0.756427	-0.266174	-0.713071
H78	H	0.759188	-0.261644	-0.792024
H79	H	0.709922	-0.253720	-0.693702
H80	H	0.769438	-0.333943	-0.693663
H81	H	0.687371	0.349658	-0.000025
C82	C	0.025814	-0.146749	-0.215260
H83	H	0.055361	-0.151767	-0.276297
H84	H	-0.001518	-0.086014	-0.219523
H85	H	-0.004121	-0.206857	-0.219517
H86	H	0.498106	-0.128398	0.185916
H87	H	0.930502	0.199406	-0.000039
C88	C	0.623645	-0.159818	-0.215248
H89	H	0.672931	-0.159853	-0.200571
H90	H	0.611192	-0.102113	-0.257360
H91	H	0.608583	-0.222956	-0.257354
C92	C	0.731824	-0.306716	-0.287068
H93	H	0.704126	-0.352481	-0.339268
H94	H	0.702259	-0.266286	-0.240919
H95	H	0.761778	-0.346505	-0.240890
H96	H	0.980542	0.374169	-0.000030
