data_functionalizedCrystal
_audit_creation_method	'MofGen! by Chris Wilmer'
_symmetry_space_group_name_H-M	'P1'
_symmetry_Int_Tables_number	1
_symmetry_cell_setting	triclinic
loop_
_symmetry_equiv_pos_as_xyz
  x,y,z
_cell_length_a	9.065218
_cell_length_b	15.995350
_cell_length_c	8.140239
_cell_angle_alpha	89.998714
_cell_angle_beta	89.997198
_cell_angle_gamma	84.254130
loop_
_atom_site_label
_atom_site_type_symbol
_atom_site_fract_x
_atom_site_fract_y
_atom_site_fract_z
O1	O	1.957507	0.122770	-0.136609
O2	O	1.527985	0.132840	-0.136610
O3	O	1.754487	0.006007	-0.136608
O4	O	1.731005	0.249604	-0.136611
O5	O	1.754475	0.006005	0.136619
O6	O	1.527973	0.132839	0.136617
O7	O	1.957495	0.122769	0.136619
Zn8	Zn	1.742732	0.127803	0.179998
Zn9	Zn	1.742748	0.127806	-0.179990
O10	O	1.730992	0.249602	0.136616
C11	C	1.473015	0.131872	0.000003
C12	C	1.309240	0.128978	0.000002
C13	C	1.753510	-0.025196	0.000003
C14	C	1.750600	-0.118169	-0.000007
C15	C	1.740148	-0.455995	-0.000001
C16	C	1.578837	-0.409785	-0.000615
C17	C	1.581748	-0.313072	0.000001
C18	C	1.745332	-0.288396	-0.000005
C19	C	1.824889	-0.328871	0.156019
C20	C	1.820837	-0.425537	0.156149
C21	C	1.824183	-0.425868	-0.154561
C22	C	1.824145	-0.328923	-0.156623
C23	C	1.748271	-0.193676	-0.000001
C24	C	1.737214	-0.550716	0.000006
C25	C	2.012465	0.123737	0.000002
C26	C	2.176239	0.126631	-0.000008
C27	C	1.731969	0.280805	0.000002
C28	C	1.734880	0.373778	0.000001
N29	N	1.742731	0.127802	0.425681
N30	N	1.742760	0.127801	-0.425673
H31	H	1.514368	-0.428805	-0.112502
C32	C	1.984852	-0.467558	-0.155991
C33	C	2.040734	-0.523742	-0.301258
C34	C	2.201395	-0.565437	-0.302668
C35	C	2.306173	-0.550949	-0.158812
C36	C	2.250293	-0.494763	-0.013534
C37	C	2.089632	-0.453068	-0.012124
H38	H	1.963169	-0.534469	-0.407758
H39	H	2.242760	-0.607030	-0.410213
H40	H	2.425103	-0.581814	-0.159856
H41	H	2.327857	-0.484036	0.092966
H42	H	2.048266	-0.411475	0.095421
H43	H	1.769623	-0.300909	0.272130
H44	H	1.519210	-0.285124	-0.111842
C45	C	1.492106	-0.436906	0.149694
C46	C	1.567111	-0.500773	0.272818
C47	C	1.480384	-0.527896	0.423127
C48	C	1.318651	-0.491153	0.450312
C49	C	1.243637	-0.427283	0.327184
C50	C	1.330364	-0.400159	0.176875
H51	H	1.686843	-0.527976	0.252697
H52	H	1.535915	-0.575178	0.514274
H53	H	1.254450	-0.511232	0.561580
H54	H	1.123905	-0.400080	0.347305
H55	H	1.274833	-0.352877	0.085728
H56	H	1.518780	-0.285686	0.112035
C57	C	1.742436	-0.450862	0.313701
C58	C	1.825389	-0.511564	0.437120
C59	C	1.746983	-0.536882	0.594674
C60	C	1.585623	-0.501499	0.628809
C61	C	1.502661	-0.440794	0.505387
C62	C	1.581068	-0.415475	0.347833
H63	H	1.944845	-0.537759	0.411854
H64	H	1.808398	-0.581821	0.686039
H65	H	1.527582	-0.520241	0.745440
H66	H	1.383205	-0.414598	0.530653
H67	H	1.519653	-0.370537	0.256468
C68	C	1.745653	-0.292717	-0.312610
C69	C	1.832049	-0.245686	-0.439933
C70	C	1.753540	-0.209512	-0.595938
C71	C	1.588636	-0.220369	-0.624620
C72	C	1.502231	-0.267402	-0.497292
C73	C	1.580740	-0.303576	-0.341287
H74	H	1.954129	-0.237648	-0.418705
H75	H	1.817504	-0.174696	-0.690194
H76	H	1.530519	-0.193591	-0.740104
H77	H	1.380151	-0.275441	-0.518520
H78	H	1.516776	-0.338393	-0.247031
H79	H	1.939269	-0.456887	0.163224
H80	H	1.945070	-0.313833	0.161817
C81	C	1.985303	-0.306949	-0.169373
C82	C	2.048445	-0.251575	-0.037198
C83	C	2.209608	-0.229599	-0.049937
C84	C	2.307631	-0.262997	-0.194850
C85	C	2.244491	-0.318374	-0.327035
C86	C	2.083327	-0.340350	-0.314297
H87	H	1.975881	-0.226848	0.070085
H88	H	2.256348	-0.188605	0.047916
H89	H	2.426934	-0.246730	-0.204280
H90	H	2.317054	-0.343101	-0.434318
H91	H	2.036587	-0.381344	-0.412150
H92	H	1.771448	-0.446807	-0.272818
