data_functionalizedCrystal
_audit_creation_method	'MofGen! by Chris Wilmer'
_symmetry_space_group_name_H-M	'P1'
_symmetry_Int_Tables_number	1
_symmetry_cell_setting	triclinic
loop_
_symmetry_equiv_pos_as_xyz
  x,y,z
_cell_length_a	19.121111
_cell_length_b	19.121102
_cell_length_c	19.119690
_cell_angle_alpha	95.029478
_cell_angle_beta	90.012116
_cell_angle_gamma	90.128329
loop_
_atom_site_label
_atom_site_type_symbol
_atom_site_fract_x
_atom_site_fract_y
_atom_site_fract_z
Zn1	Zn	0.305604	-1.080355	-0.456274
Zn2	Zn	0.555604	-0.830355	-0.206274
Zn3	Zn	0.805604	-0.580355	0.043726
Zn4	Zn	1.055604	-0.330355	0.293726
Zn5	Zn	0.427610	-1.070192	-0.343570
Zn6	Zn	0.677610	-0.820192	-0.093570
Zn7	Zn	0.927610	-0.570192	0.156430
Zn8	Zn	1.177610	-0.320192	0.406430
Zn9	Zn	0.305807	-0.957602	-0.333592
Zn10	Zn	0.555807	-0.707602	-0.083592
Zn11	Zn	0.805807	-0.457602	0.166408
Zn12	Zn	1.055807	-0.207602	0.416408
Zn13	Zn	0.417814	-0.958057	-0.455808
Zn14	Zn	0.667814	-0.708057	-0.205808
Zn15	Zn	0.917814	-0.458057	0.044192
Zn16	Zn	1.167814	-0.208057	0.294192
O17	O	0.364209	-1.016551	-0.397311
O18	O	0.614209	-0.766551	-0.147311
O19	O	0.864209	-0.516551	0.102689
O20	O	1.114209	-0.266551	0.352689
O21	O	0.325803	-1.177309	-0.445695
O22	O	0.575803	-0.927309	-0.195695
O23	O	0.825803	-0.677309	0.054305
O24	O	1.075803	-0.427309	0.304305
O25	O	0.415636	-1.050813	-0.243931
O26	O	0.665636	-0.800813	0.006069
O27	O	0.915636	-0.550813	0.256069
O28	O	1.165636	-0.300813	0.506069
O29	O	0.207845	-0.977949	-0.345885
O30	O	0.457845	-0.727949	-0.095885
O31	O	0.707845	-0.477949	0.154115
O32	O	0.957845	-0.227949	0.404115
O33	O	0.415440	-1.169841	-0.362892
O34	O	0.665440	-0.919841	-0.112892
O35	O	0.915440	-0.669841	0.137108
O36	O	1.165440	-0.419841	0.387108
O37	O	0.207696	-1.068135	-0.436019
O38	O	0.457696	-0.818135	-0.186019
O39	O	0.707696	-0.568135	0.063981
O40	O	0.957696	-0.318135	0.313981
O41	O	0.326149	-0.968094	-0.236600
O42	O	0.576149	-0.718094	0.013400
O43	O	0.826149	-0.468094	0.263400
O44	O	1.076149	-0.218094	0.513400
O45	O	0.316651	-0.859361	-0.345433
O46	O	0.566651	-0.609361	-0.095433
O47	O	0.816651	-0.359361	0.154567
O48	O	1.066651	-0.109361	0.404567
O49	O	0.398745	-0.978723	-0.554185
O50	O	0.648745	-0.728723	-0.304185
O51	O	0.898745	-0.478723	-0.054185
O52	O	1.148745	-0.228723	0.195815
O53	O	0.398942	-0.859695	-0.435225
O54	O	0.648942	-0.609695	-0.185225
O55	O	0.898942	-0.359695	0.064775
O56	O	1.148942	-0.109695	0.314775
O57	O	0.316305	-1.068576	-0.554528
O58	O	0.566305	-0.818576	-0.304528
O59	O	0.816305	-0.568576	-0.054528
O60	O	1.066305	-0.318576	0.195472
O61	O	0.524245	-1.051253	-0.362440
O62	O	0.774245	-0.801253	-0.112440
O63	O	1.024245	-0.551253	0.137560
O64	O	1.274245	-0.301253	0.387560
O65	O	0.517049	-0.968868	-0.444900
O66	O	0.767049	-0.718868	-0.194900
O67	O	1.017049	-0.468868	0.055100
O68	O	1.267049	-0.218868	0.305100
C69	C	0.546040	-1.009027	-0.404718
C70	C	0.796040	-0.759027	-0.154718
C71	C	1.046040	-0.509027	0.095282
C72	C	1.296040	-0.259027	0.345282
C73	C	0.623830	-1.005873	-0.407914
C74	C	0.873830	-0.755873	-0.157914
C75	C	1.123830	-0.505873	0.092086
C76	C	1.373830	-0.255873	0.342086
C77	C	0.356756	-0.834039	-0.389196
C78	C	0.606756	-0.584039	-0.139196
C79	C	0.856756	-0.334039	0.110804
C80	C	1.106756	-0.084039	0.360804
C81	C	0.353583	-0.755960	-0.385741
C82	C	0.603583	-0.505960	-0.135741
C83	C	0.853583	-0.255960	0.114259
C84	C	1.103583	-0.005960	0.364259
C85	C	0.356410	-1.024834	-0.580561
C86	C	0.606410	-0.774834	-0.330561
C87	C	0.856410	-0.524834	-0.080561
C88	C	1.106410	-0.274834	0.169439
C89	C	0.353086	-1.028364	-0.658651
C90	C	0.603086	-0.778364	-0.408651
C91	C	0.853086	-0.528364	-0.158651
C92	C	1.103086	-0.278364	0.091349
C93	C	0.664100	-1.047322	-0.366521
C94	C	0.914100	-0.797322	-0.116521
C95	C	1.164100	-0.547322	0.133479
C96	C	1.414100	-0.297322	0.383479
C97	C	0.737191	-1.044360	-0.369530
C98	C	0.987191	-0.794360	-0.119530
C99	C	1.237191	-0.544360	0.130470
C100	C	1.487191	-0.294360	0.380470
C101	C	0.770012	-0.999946	-0.413929
C102	C	1.020012	-0.749946	-0.163929
C103	C	1.270012	-0.499946	0.086071
C104	C	1.520012	-0.249946	0.336071
C105	C	0.729738	-0.958496	-0.455327
C106	C	0.979738	-0.708496	-0.205327
C107	C	1.229738	-0.458496	0.044673
C108	C	1.479738	-0.208496	0.294673
C109	C	0.656647	-0.961462	-0.452321
C110	C	0.906647	-0.711462	-0.202321
C111	C	1.156647	-0.461462	0.047679
C112	C	1.406647	-0.211462	0.297679
C113	C	0.990512	-0.988846	-0.425155
C114	C	1.240512	-0.738846	-0.175155
C115	C	1.490512	-0.488846	0.074845
C116	C	1.740512	-0.238846	0.324845
C117	C	1.063607	-0.985882	-0.428157
C118	C	1.313607	-0.735882	-0.178157
C119	C	1.563607	-0.485882	0.071843
C120	C	1.813607	-0.235882	0.321843
C121	C	1.071056	-1.071748	-0.342361
C122	C	1.321056	-0.821748	-0.092361
C123	C	1.571056	-0.571748	0.157639
C124	C	1.821056	-0.321748	0.407639
C125	C	0.997964	-1.074707	-0.339355
C126	C	1.247964	-0.824707	-0.089355
C127	C	1.497964	-0.574707	0.160645
C128	C	1.747964	-0.324707	0.410645
C129	C	0.957696	-1.033259	-0.380756
C130	C	1.207696	-0.783259	-0.130756
C131	C	1.457696	-0.533259	0.119244
C132	C	1.707696	-0.283259	0.369244
C133	C	0.844724	-0.996916	-0.417005
C134	C	1.094724	-0.746916	-0.167005
C135	C	1.344724	-0.496916	0.082995
C136	C	1.594724	-0.246916	0.332995
C137	C	0.882986	-1.036294	-0.377683
C138	C	1.132986	-0.786294	-0.127683
C139	C	1.382986	-0.536294	0.122317
C140	C	1.632986	-0.286294	0.372317
C141	C	1.181667	-1.024120	-0.389900
C142	C	1.431667	-0.774120	-0.139900
C143	C	1.681667	-0.524120	0.110100
C144	C	1.931667	-0.274120	0.360100
C145	C	1.103877	-1.027331	-0.386764
C146	C	1.353877	-0.777331	-0.136764
C147	C	1.603877	-0.527331	0.113236
C148	C	1.853877	-0.277331	0.363236
C149	C	0.371692	-1.199776	-0.405459
C150	C	0.621692	-0.949776	-0.155459
C151	C	0.871692	-0.699776	0.094541
C152	C	1.121692	-0.449776	0.344541
C153	C	0.374880	-1.277856	-0.408931
C154	C	0.624880	-1.027856	-0.158931
C155	C	0.874880	-0.777856	0.091069
C156	C	1.124880	-0.527856	0.341069
C157	C	0.395008	-0.719464	-0.430800
C158	C	0.645008	-0.469464	-0.180800
C159	C	0.895008	-0.219464	0.069200
C160	C	1.145008	0.030536	0.319200
C161	C	0.392018	-0.646101	-0.427557
C162	C	0.642018	-0.396101	-0.177557
C163	C	0.892018	-0.146101	0.072443
C164	C	1.142018	0.103899	0.322443
C165	C	0.347607	-0.609234	-0.379252
C166	C	0.597607	-0.359234	-0.129252
C167	C	0.847607	-0.109234	0.120748
C168	C	1.097607	0.140766	0.370748
C169	C	0.306177	-0.645735	-0.334191
C170	C	0.556177	-0.395735	-0.084191
C171	C	0.806177	-0.145735	0.165809
C172	C	1.056177	0.104265	0.415809
C173	C	0.309164	-0.719098	-0.337437
C174	C	0.559164	-0.469098	-0.087437
C175	C	0.809164	-0.219098	0.162563
C176	C	1.059164	0.030902	0.412563
C177	C	0.336438	-0.387719	-0.367116
C178	C	0.586438	-0.137719	-0.117116
C179	C	0.836438	0.112281	0.132884
C180	C	1.086438	0.362281	0.382884
C181	C	0.333455	-0.314351	-0.363871
C182	C	0.583455	-0.064351	-0.113871
C183	C	0.833455	0.185649	0.136129
C184	C	1.083455	0.435649	0.386129
C185	C	0.419296	-0.314722	-0.457240
C186	C	0.669296	-0.064722	-0.207240
C187	C	0.919296	0.185278	0.042760
C188	C	1.169296	0.435278	0.292760
C189	C	0.422282	-0.388086	-0.460479
C190	C	0.672282	-0.138086	-0.210479
C191	C	0.922282	0.111914	0.039521
C192	C	1.172282	0.361914	0.289521
C193	C	0.380850	-0.424580	-0.415421
C194	C	0.630850	-0.174580	-0.165421
C195	C	0.880850	0.075420	0.084579
C196	C	1.130850	0.325420	0.334579
C197	C	0.344551	-0.534245	-0.375934
C198	C	0.594551	-0.284245	-0.125934
C199	C	0.844551	-0.034245	0.124066
C200	C	1.094551	0.215755	0.374066
C201	C	0.383902	-0.499568	-0.418742
C202	C	0.633902	-0.249568	-0.168742
C203	C	0.883902	0.000432	0.081258
C204	C	1.133902	0.250432	0.331258
C205	C	0.371929	-1.008344	-0.214774
C206	C	0.621929	-0.758344	0.035226
C207	C	0.871929	-0.508344	0.285226
C208	C	1.121929	-0.258344	0.535226
C209	C	0.375061	-1.004958	-0.136682
C210	C	0.625061	-0.754958	0.113318
C211	C	0.875061	-0.504958	0.363318
C212	C	1.125061	-0.254958	0.613318
C213	C	0.394888	-0.983481	0.305010
C214	C	0.644888	-0.733481	0.555010
C215	C	0.894888	-0.483481	0.805010
C216	C	1.144888	-0.233481	1.055010
C217	C	0.391956	-0.986665	0.231634
C218	C	0.641956	-0.736665	0.481634
C219	C	0.891956	-0.486665	0.731634
C220	C	1.141956	-0.236665	0.981634
C221	C	0.347219	-1.034730	0.194598
C222	C	0.597219	-0.784730	0.444598
C223	C	0.847219	-0.534730	0.694598
C224	C	1.097219	-0.284730	0.944598
C225	C	0.305416	-1.079618	0.230941
C226	C	0.555416	-0.829618	0.480941
C227	C	0.805416	-0.579618	0.730941
C228	C	1.055416	-0.329618	0.980941
C229	C	0.308352	-1.076436	0.304316
C230	C	0.558352	-0.826436	0.554316
C231	C	0.808352	-0.576436	0.804316
C232	C	1.058352	-0.326436	1.054316
C233	C	0.336193	-1.046664	-0.026964
C234	C	0.586193	-0.796664	0.223036
C235	C	0.836193	-0.546664	0.473036
C236	C	1.086193	-0.296664	0.723036
C237	C	0.333259	-1.049841	-0.100343
C238	C	0.583259	-0.799841	0.149657
C239	C	0.833259	-0.549841	0.399657
C240	C	1.083259	-0.299841	0.649657
C241	C	0.419801	-0.956889	-0.099645
C242	C	0.669801	-0.706889	0.150355
C243	C	0.919801	-0.456889	0.400355
C244	C	1.169801	-0.206889	0.650355
C245	C	0.422729	-0.953709	-0.026269
C246	C	0.672729	-0.703709	0.223731
C247	C	0.922729	-0.453709	0.473731
C248	C	1.172729	-0.203709	0.723731
C249	C	0.380929	-0.998599	0.010067
C250	C	0.630929	-0.748599	0.260067
C251	C	0.880929	-0.498599	0.510067
C252	C	1.130929	-0.248599	0.760067
C253	C	0.344220	-1.037985	0.119596
C254	C	0.594220	-0.787985	0.369596
C255	C	0.844220	-0.537985	0.619596
C256	C	1.094220	-0.287985	0.869596
C257	C	0.383933	-0.995347	0.085068
C258	C	0.633933	-0.745347	0.335068
C259	C	0.883933	-0.495347	0.585068
C260	C	1.133933	-0.245347	0.835068
H261	H	0.637382	-1.083485	-0.330363
H262	H	0.887382	-0.833485	-0.080363
H263	H	1.137382	-0.583485	0.169637
H264	H	1.387382	-0.333485	0.419637
Cl265	Cl	0.770999	-0.902664	-0.511148
Cl266	Cl	1.020999	-0.652664	-0.261148
Cl267	Cl	1.270999	-0.402664	-0.011148
Cl268	Cl	1.520999	-0.152664	0.238852
H269	H	0.431175	-0.749476	-0.470134
H270	H	0.681175	-0.499476	-0.220134
H271	H	0.931175	-0.249476	0.029866
H272	H	1.181175	0.000524	0.279866
Cl273	Cl	0.478969	-0.893279	0.020286
Cl274	Cl	0.728969	-0.643279	0.270286
Cl275	Cl	0.978969	-0.393279	0.520286
Cl276	Cl	1.228969	-0.143279	0.770286
H277	H	0.270013	-0.615713	-0.294862
H278	H	0.520013	-0.365713	-0.044862
H279	H	0.770013	-0.115713	0.205138
H280	H	1.020013	0.134287	0.455138
Cl281	Cl	0.885991	-0.941082	-0.472818
Cl282	Cl	1.135991	-0.691082	-0.222818
Cl283	Cl	1.385991	-0.441082	0.027182
Cl284	Cl	1.635991	-0.191082	0.277182
H285	H	0.307794	-1.077118	0.089433
H286	H	0.557794	-0.827118	0.339433
H287	H	0.807794	-0.577118	0.589433
H288	H	1.057794	-0.327118	0.839433
H289	H	0.297282	-0.284337	-0.324539
H290	H	0.547282	-0.034337	-0.074539
H291	H	0.797282	0.215663	0.175461
H292	H	1.047282	0.465663	0.425461
Cl293	Cl	0.841724	-1.092130	-0.321872
Cl294	Cl	1.091724	-0.842130	-0.071872
Cl295	Cl	1.341724	-0.592130	0.178128
Cl296	Cl	1.591724	-0.342130	0.428128
Cl297	Cl	0.288720	-0.487892	-0.315209
Cl298	Cl	0.538720	-0.237892	-0.065209
Cl299	Cl	0.788720	0.012108	0.184791
Cl300	Cl	1.038720	0.262108	0.434791
H301	H	1.103850	-1.105493	-0.308656
H302	H	1.353850	-0.855493	-0.058656
H303	H	1.603850	-0.605493	0.191344
H304	H	1.853850	-0.355493	0.441344
H305	H	0.431309	-0.944333	0.335161
H306	H	0.681309	-0.694333	0.585161
H307	H	0.931309	-0.444333	0.835161
H308	H	1.181309	-0.194333	1.085161
Cl309	Cl	0.444515	-0.930244	0.185954
Cl310	Cl	0.694515	-0.680244	0.435954
Cl311	Cl	0.944515	-0.430244	0.685954
Cl312	Cl	1.194515	-0.180244	0.935954
H313	H	0.769976	-1.078111	-0.335823
H314	H	1.019976	-0.828111	-0.085823
H315	H	1.269976	-0.578111	0.164177
H316	H	1.519976	-0.328111	0.414177
Cl317	Cl	0.257083	-0.764978	-0.280791
Cl318	Cl	0.507083	-0.514978	-0.030791
Cl319	Cl	0.757083	-0.264978	0.219209
Cl320	Cl	1.007083	-0.014978	0.469209
Cl321	Cl	0.444098	-0.600224	-0.484206
Cl322	Cl	0.694098	-0.350224	-0.234206
Cl323	Cl	0.944098	-0.100224	0.015794
Cl324	Cl	1.194098	0.149776	0.265794
Cl325	Cl	0.606023	-0.909355	-0.504362
Cl326	Cl	0.856023	-0.659355	-0.254362
Cl327	Cl	1.106023	-0.409355	-0.004362
Cl328	Cl	1.356023	-0.159355	0.245638
H329	H	0.420059	-0.529589	-0.458075
H330	H	0.670059	-0.279589	-0.208075
H331	H	0.920059	-0.029589	0.041925
H332	H	1.170059	0.220411	0.291925
H333	H	0.453832	-0.920342	-0.129239
H334	H	0.703832	-0.670342	0.120761
H335	H	0.953832	-0.420342	0.370761
H336	H	1.203832	-0.170342	0.620761
H337	H	0.302706	-0.417423	-0.330421
H338	H	0.552706	-0.167423	-0.080421
H339	H	0.802706	0.082577	0.169579
H340	H	1.052706	0.332577	0.419579
H341	H	0.296823	-1.088979	-0.130496
H342	H	0.546823	-0.838979	0.119504
H343	H	0.796823	-0.588979	0.369504
H344	H	1.046823	-0.338979	0.619504
H345	H	0.971243	-1.110872	-0.303202
H346	H	1.221243	-0.860872	-0.053202
H347	H	1.471243	-0.610872	0.196798
H348	H	1.721243	-0.360872	0.446798
Cl349	Cl	0.283641	-1.103095	0.018707
Cl350	Cl	0.533641	-0.853095	0.268707
Cl351	Cl	0.783641	-0.603095	0.518707
Cl352	Cl	1.033641	-0.353095	0.768707
Cl353	Cl	1.104867	-0.930033	-0.483968
Cl354	Cl	1.354867	-0.680033	-0.233968
Cl355	Cl	1.604867	-0.430033	0.016032
Cl356	Cl	1.854867	-0.180033	0.266032
Cl357	Cl	0.249179	-1.140046	0.184381
Cl358	Cl	0.499179	-0.890046	0.434381
Cl359	Cl	0.749179	-0.640046	0.684381
Cl360	Cl	0.999179	-0.390046	0.934381
Cl361	Cl	0.440173	-0.934927	0.131629
Cl362	Cl	0.690173	-0.684927	0.381629
Cl363	Cl	0.940173	-0.434927	0.631629
Cl364	Cl	1.190173	-0.184927	0.881629
Cl365	Cl	0.478118	-0.434427	-0.521207
Cl366	Cl	0.728118	-0.184427	-0.271207
Cl367	Cl	0.978118	0.065573	-0.021207
Cl368	Cl	1.228118	0.315573	0.228793
Cl369	Cl	0.255802	-1.132865	0.349998
Cl370	Cl	0.505802	-0.882865	0.599998
Cl371	Cl	0.755802	-0.632865	0.849998
Cl372	Cl	1.005802	-0.382865	1.099998
Cl373	Cl	0.939898	-0.936739	-0.477201
Cl374	Cl	1.189898	-0.686739	-0.227201
Cl375	Cl	1.439898	-0.436739	0.022799
Cl376	Cl	1.689898	-0.186739	0.272799
Cl377	Cl	0.471379	-0.268839	-0.513880
Cl378	Cl	0.721379	-0.018839	-0.263880
Cl379	Cl	0.971379	0.231161	-0.013880
Cl380	Cl	1.221379	0.481161	0.236120
