data_functionalizedCrystal
_audit_creation_method	'MofGen! by Chris Wilmer'
_symmetry_space_group_name_H-M	'P1'
_symmetry_Int_Tables_number	1
_symmetry_cell_setting	triclinic
loop_
_symmetry_equiv_pos_as_xyz
  x,y,z
_cell_length_a	16.109302
_cell_length_b	9.065218
_cell_length_c	8.140239
_cell_angle_alpha	90.001686
_cell_angle_beta	89.995336
_cell_angle_gamma	95.761167
loop_
_atom_site_label
_atom_site_type_symbol
_atom_site_fract_x
_atom_site_fract_y
_atom_site_fract_z
O1	O	1.104586	-0.189633	-0.136681
O2	O	0.862706	-0.213231	-0.136667
O3	O	0.988646	0.013331	-0.136671
O4	O	0.978647	-0.416196	-0.136677
O5	O	0.988639	0.013334	0.136556
O6	O	0.862699	-0.213229	0.136560
O7	O	1.104579	-0.189631	0.136546
Zn8	Zn	0.983638	-0.201429	0.179934
Zn9	Zn	0.983647	-0.201433	-0.180054
O10	O	0.978639	-0.416193	0.136550
C11	C	0.831720	-0.212274	-0.000052
C12	C	0.739403	-0.209407	-0.000047
C13	C	0.527007	-0.202778	0.148873
C14	C	0.440266	-0.200069	0.148868
C15	C	0.440284	-0.200079	-0.149020
C16	C	0.527024	-0.202778	-0.149012
C17	C	0.570383	-0.204135	-0.000061
C18	C	0.396902	-0.198727	-0.000074
C19	C	0.302854	-0.195790	-0.000081
C20	C	0.664438	-0.207069	-0.000053
C21	C	0.987681	0.068296	-0.000060
C22	C	0.984808	0.232069	-0.000067
C23	C	1.135565	-0.190588	-0.000072
C24	C	1.227882	-0.193454	-0.000088
C25	C	0.979604	-0.471158	-0.000064
C26	C	0.982477	-0.634931	-0.000067
N27	N	0.983638	-0.201426	0.425617
N28	N	0.983654	-0.201424	-0.425737
H29	H	0.404953	-0.198965	0.270145
H30	H	0.562307	-0.203883	0.270159
H31	H	0.404971	-0.198976	-0.270290
C32	C	0.574741	-0.204276	-0.312848
H33	H	0.536495	-0.203103	-0.401559
H34	H	0.614273	-0.119350	-0.319038
H35	H	0.602883	-0.291320	-0.319027
