data_functionalizedCrystal
_audit_creation_method	'MofGen! by Chris Wilmer'
_symmetry_space_group_name_H-M	'P1'
_symmetry_Int_Tables_number	1
_symmetry_cell_setting	triclinic
loop_
_symmetry_equiv_pos_as_xyz
  x,y,z
_cell_length_a	14.853569
_cell_length_b	23.532357
_cell_length_c	13.930277
_cell_angle_alpha	89.989902
_cell_angle_beta	89.994756
_cell_angle_gamma	83.231928
loop_
_atom_site_label
_atom_site_type_symbol
_atom_site_fract_x
_atom_site_fract_y
_atom_site_fract_z
O1	O	1.195533	0.074359	-0.079799
O2	O	1.695533	0.574359	0.420201
O3	O	0.932974	0.083215	-0.079812
O4	O	1.432974	0.583215	0.420188
O5	O	1.072195	-0.004112	-0.079785
O6	O	1.572195	0.495888	0.420215
O7	O	1.056313	0.161686	-0.079826
O8	O	1.556313	0.661686	0.420174
O9	O	1.072175	-0.004114	0.079876
O10	O	1.572175	0.495886	0.579876
O11	O	0.932955	0.083213	0.079850
O12	O	1.432955	0.583213	0.579850
O13	O	1.195514	0.074357	0.079863
O14	O	1.695514	0.574357	0.579863
Zn15	Zn	1.064232	0.078785	0.105206
Zn16	Zn	1.564232	0.578785	0.605206
Zn17	Zn	1.064257	0.078787	-0.105155
Zn18	Zn	1.564257	0.578787	0.394845
O19	O	1.056294	0.161684	0.079836
O20	O	1.556294	0.661684	0.579836
C21	C	0.899381	0.082813	0.000018
C22	C	1.399381	0.582813	0.500018
C23	C	0.799311	0.081610	0.000013
C24	C	1.299311	0.581610	0.500013
C25	C	0.763522	0.029171	0.000023
C26	C	1.263522	0.529171	0.500023
C27	C	0.741069	0.132918	0.000008
C28	C	1.241069	0.632918	0.500008
C29	C	0.647047	0.131790	0.000010
C30	C	1.147047	0.631790	0.500010
C31	C	0.611259	0.079351	0.000019
C32	C	1.111259	0.579351	0.500019
C33	C	0.669492	0.028041	0.000027
C34	C	1.169492	0.528041	0.500027
C35	C	0.588807	0.183099	0.000012
C36	C	1.088807	0.683099	0.500012
C37	C	0.494779	0.181972	0.000014
C38	C	0.994779	0.681972	0.500014
C39	C	0.458990	0.129533	0.000016
C40	C	0.958990	0.629533	0.500016
C41	C	0.517229	0.078221	0.000023
C42	C	1.017229	0.578221	0.500023
C43	C	0.481441	0.025782	0.000033
C44	C	0.981441	0.525782	0.500033
C45	C	0.539679	-0.025531	0.000033
C46	C	1.039679	0.474469	0.500033
C47	C	0.633703	-0.024399	0.000029
C48	C	1.133703	0.475601	0.500029
C49	C	0.364966	0.128401	0.000020
C50	C	0.864966	0.628401	0.500020
C51	C	0.387411	0.024652	0.000037
C52	C	0.887411	0.524652	0.500037
C53	C	1.071788	-0.025331	0.000049
C54	C	1.571788	0.474669	0.500049
C55	C	1.070594	-0.088555	0.000057
C56	C	1.570594	0.411445	0.500057
C57	C	1.063106	-0.480598	-0.087026
C58	C	1.563106	0.019402	0.412974
C59	C	1.061970	-0.540003	-0.087032
C60	C	1.561970	-0.040003	0.412968
O61	O	1.061362	-0.570721	-0.161049
O62	O	1.561362	-0.070721	0.338951
N63	N	1.061397	-0.569717	-0.000001
N64	N	1.561397	-0.069717	0.499999
C65	C	1.061950	-0.540024	0.087040
C66	C	1.561950	-0.040024	0.587040
O67	O	1.061357	-0.570753	0.161066
O68	O	1.561357	-0.070753	0.661066
C69	C	1.063079	-0.480620	0.087045
C70	C	1.563079	0.019380	0.587045
C71	C	1.063661	-0.450909	0.000009
C72	C	1.563661	0.049091	0.500009
C73	C	1.063687	-0.450887	-0.174055
C74	C	1.563687	0.049113	0.325945
C75	C	1.064824	-0.391487	-0.174050
C76	C	1.564824	0.108513	0.325950
C77	C	1.065380	-0.361798	-0.087015
C78	C	1.565380	0.138202	0.412985
C79	C	1.064798	-0.391509	0.000014
C80	C	1.564798	0.108491	0.500014
C81	C	1.063625	-0.450927	0.174085
C82	C	1.563625	0.049073	0.674085
C83	C	1.064753	-0.391519	0.174082
C84	C	1.564753	0.108481	0.674082
C85	C	1.065336	-0.361808	0.087046
C86	C	1.565336	0.138192	0.587046
C87	C	1.066491	-0.302420	0.087055
C88	C	1.566491	0.197580	0.587055
N89	N	1.067064	-0.272705	0.000025
N90	N	1.567064	0.227295	0.500025
C91	C	1.066509	-0.302394	-0.087010
C92	C	1.566509	0.197606	0.412990
C93	C	1.059577	-0.664776	0.087024
C94	C	1.559577	-0.164776	0.587024
C95	C	1.058455	-0.724179	0.087021
C96	C	1.558455	-0.224179	0.587021
C97	C	1.058474	-0.724154	-0.087052
C98	C	1.558474	-0.224154	0.412948
C99	C	1.059603	-0.664750	-0.087047
C100	C	1.559603	-0.164750	0.412953
C101	C	1.060151	-0.635061	-0.000006
C102	C	1.560151	-0.135061	0.499994
C103	C	1.068897	-0.177649	-0.086991
C104	C	1.568897	0.322351	0.413009
C105	C	1.070038	-0.118244	-0.086977
C106	C	1.570038	0.381756	0.413023
C107	C	1.070014	-0.118275	0.087094
C108	C	1.570014	0.381725	0.587094
C109	C	1.068878	-0.177675	0.087081
C110	C	1.568878	0.322325	0.587081
C111	C	1.068317	-0.207361	0.000031
C112	C	1.568317	0.292639	0.500031
O113	O	1.067096	-0.271663	0.161035
O114	O	1.567096	0.228337	0.661035
O115	O	1.067090	-0.271657	-0.161023
O116	O	1.567090	0.228343	0.338977
C117	C	1.229108	0.074759	0.000031
C118	C	1.729108	0.574759	0.500031
C119	C	1.329178	0.075962	0.000029
C120	C	1.829178	0.575962	0.500029
C121	C	1.056700	0.182903	0.000000
C122	C	1.556700	0.682903	0.500000
C123	C	1.057895	0.246127	-0.000015
C124	C	1.557895	0.746127	0.499985
N125	N	1.064221	0.078783	0.248772
N126	N	1.564221	0.578783	0.748772
N127	N	1.064275	0.078785	-0.248721
N128	N	1.564275	0.578785	0.251279
C129	C	1.002608	0.117440	0.701030
C130	C	1.502608	0.617440	1.201030
C131	C	1.125931	0.040129	0.701023
C132	C	1.625931	0.540129	1.201023
C133	C	1.125920	0.040128	0.600527
C134	C	1.625920	0.540128	1.100527
C135	C	1.064253	0.078783	0.550278
C136	C	1.564253	0.578783	1.050278
C137	C	1.002597	0.117441	0.600525
C138	C	1.502597	0.617441	1.100525
C139	C	1.187581	0.001475	0.550273
C140	C	1.687581	0.501475	1.050273
C141	C	1.187573	0.001472	0.449771
C142	C	1.687573	0.501472	0.949771
C143	C	1.125902	0.040125	0.399520
C144	C	1.625902	0.540125	0.899520
C145	C	1.064242	0.078784	0.449773
C146	C	1.564242	0.578784	0.949773
C147	C	1.002576	0.117440	0.399524
C148	C	1.502576	0.617440	0.899524
C149	C	0.940911	0.156096	0.449775
C150	C	1.440911	0.656096	0.949775
C151	C	0.940925	0.156095	0.550274
C152	C	1.440925	0.656095	1.050274
C153	C	1.125888	0.040127	0.299021
C154	C	1.625888	0.540127	0.799021
C155	C	1.002565	0.117440	0.299019
C156	C	1.502565	0.617440	0.799019
H157	H	1.070515	-0.094057	-0.157856
H158	H	1.570515	0.405943	0.342144
H159	H	0.890705	0.187573	0.408851
H160	H	1.390705	0.687573	0.908851
N161	N	0.777620	0.186481	-0.000016
N162	N	1.277620	0.686481	0.499984
N163	N	0.759611	0.221090	-0.067325
N164	N	1.259611	0.721090	0.432675
H165	H	0.785428	0.258921	-0.067344
H166	H	1.285428	0.758921	0.432656
N167	N	1.063009	-0.481273	0.262984
N168	N	1.563009	0.018727	0.762984
N169	N	1.061989	-0.534310	0.262988
N170	N	1.561989	-0.034310	0.762988
H171	H	1.061550	-0.555742	0.325777
H172	H	1.561550	-0.055742	0.825777
H173	H	0.952399	0.148913	0.741947
H174	H	1.452399	0.648913	1.241947
H175	H	1.063232	-0.475054	-0.244934
H176	H	1.563232	0.024946	0.255066
N177	N	1.188933	0.000663	0.752361
N178	N	1.688933	0.500663	1.252361
N179	N	1.188946	0.000677	0.842092
N180	N	1.688946	0.500677	1.342092
H181	H	1.233448	-0.027195	0.878355
H182	H	1.733448	0.472805	1.378355
N183	N	0.625377	0.236655	0.000012
N184	N	1.125377	0.736655	0.500012
N185	N	0.709329	0.237654	0.000003
N186	N	1.209329	0.737654	0.500003
H187	H	0.735162	0.275480	0.000002
H188	H	1.235162	0.775480	0.500002
H189	H	1.065186	-0.367348	0.244963
H190	H	1.565186	0.132652	0.744963
N191	N	1.250568	-0.038016	0.601584
N192	N	1.750568	0.461984	1.101584
N193	N	1.305615	-0.072527	0.556710
N194	N	1.805615	0.427473	1.056710
H195	H	1.350101	-0.100421	0.592951
H196	H	1.850101	0.399579	1.092951
N197	N	1.250581	-0.038015	0.398478
N198	N	1.750581	0.461985	0.898478
N199	N	1.249867	-0.090659	0.409729
N200	N	1.749867	0.409341	0.909729
H201	H	1.294376	-0.118546	0.373510
H202	H	1.794376	0.381454	0.873510
N203	N	0.350873	-0.028919	0.000036
N204	N	0.850873	0.471081	0.500036
N205	N	0.402882	-0.074726	0.000033
N206	N	0.902882	0.425274	0.500033
H207	H	0.377079	-0.112561	0.000032
H208	H	0.877079	0.387439	0.500032
N209	N	0.503118	-0.079095	0.000065
N210	N	1.003118	0.420905	0.500065
N211	N	0.453159	-0.091298	0.067379
N212	N	0.953159	0.408702	0.567379
H213	H	0.427334	-0.129127	0.067404
H214	H	0.927334	0.370873	0.567404
H215	H	1.176098	0.008656	0.258111
H216	H	1.676098	0.508656	0.758111
N217	N	1.068291	-0.208019	0.175993
N218	N	1.568291	0.291981	0.675993
N219	N	1.068788	-0.181501	0.253696
N220	N	1.568788	0.318499	0.753696
H221	H	1.068363	-0.202926	0.316492
H222	H	1.568363	0.297074	0.816492
H223	H	0.890721	0.187568	0.591194
H224	H	1.390721	0.687568	1.091194
H225	H	0.447369	0.223755	0.000012
H226	H	0.947369	0.723755	0.500012
H227	H	0.952345	0.148917	0.258112
H228	H	1.452345	0.648917	0.758112
H229	H	0.317553	0.170179	0.000028
H230	H	0.817553	0.670179	0.500028
H231	H	1.060026	-0.640607	0.157908
H232	H	1.560026	-0.140607	0.657908
N233	N	1.057859	-0.754533	0.175917
N234	N	1.557859	-0.254533	0.675917
N235	N	1.056840	-0.807570	0.175913
N236	N	1.556840	-0.307570	0.675913
H237	H	1.056413	-0.829007	0.238699
H238	H	1.556413	-0.329007	0.738699
H239	H	0.681128	-0.066175	0.000032
H240	H	1.181128	0.433825	0.500032
H241	H	1.058019	-0.748337	-0.157921
H242	H	1.558019	-0.248337	0.342079
H243	H	0.810944	-0.012607	0.000019
H244	H	1.310944	0.487393	0.500019
H245	H	1.068436	-0.201812	-0.157876
H246	H	1.568436	0.298188	0.342124
H247	H	1.065295	-0.367301	-0.244923
H248	H	1.565295	0.132699	0.255077
H249	H	1.060076	-0.640563	-0.157920
H250	H	1.560076	-0.140563	0.342080
N251	N	1.070590	-0.087933	0.175986
N252	N	1.570590	0.412067	0.675986
N253	N	1.071602	-0.034895	0.175967
N254	N	1.571602	0.465105	0.675967
H255	H	1.072005	-0.013464	0.238747
H256	H	1.572005	0.486536	0.738747
