data_functionalizedCrystal
_audit_creation_method	'MofGen! by Chris Wilmer'
_symmetry_space_group_name_H-M	'P1'
_symmetry_Int_Tables_number	1
_symmetry_cell_setting	triclinic
loop_
_symmetry_equiv_pos_as_xyz
  x,y,z
_cell_length_a	14.519709
_cell_length_b	13.596369
_cell_length_c	14.519709
_cell_angle_alpha	90.006965
_cell_angle_beta	96.319855
_cell_angle_gamma	90.005176
loop_
_atom_site_label
_atom_site_type_symbol
_atom_site_fract_x
_atom_site_fract_y
_atom_site_fract_z
O1	O	-1.223863	0.081653	0.120893
O2	O	-0.890529	0.414987	0.454227
O3	O	-0.557196	0.748320	0.787560
O4	O	-0.955386	0.081686	0.135130
O5	O	-0.622052	0.415020	0.468463
O6	O	-0.288719	0.748353	0.801797
O7	O	-1.096742	0.081660	-0.006227
O8	O	-0.763409	0.414994	0.327107
O9	O	-0.430076	0.748327	0.660440
O10	O	-1.082506	0.081680	0.262250
O11	O	-0.749172	0.415013	0.595583
O12	O	-0.415839	0.748346	0.928917
O13	O	-1.096740	-0.081923	-0.006236
O14	O	-0.763407	0.251411	0.327098
O15	O	-0.430073	0.584744	0.660431
O16	O	-0.955383	-0.081896	0.135121
O17	O	-0.622050	0.251437	0.468454
O18	O	-0.288717	0.584770	0.801788
O19	O	-1.223860	-0.081929	0.120885
O20	O	-0.890527	0.251404	0.454218
O21	O	-0.557194	0.584737	0.787551
Zn22	Zn	-1.089621	-0.107885	0.128001
Zn23	Zn	-0.756288	0.225448	0.461335
Zn24	Zn	-0.422955	0.558781	0.794668
Zn25	Zn	-1.089624	0.107642	0.128013
Zn26	Zn	-0.756291	0.440976	0.461346
Zn27	Zn	-0.422958	0.774309	0.794680
O28	O	-1.082504	-0.081903	0.262241
O29	O	-0.749170	0.251430	0.595575
O30	O	-0.415837	0.584763	0.928908
C31	C	-0.921025	-0.000101	0.134462
C32	C	-0.587691	0.333232	0.467795
C33	C	-0.254358	0.666566	0.801129
C34	C	-0.818643	-0.000089	0.132474
C35	C	-0.485310	0.333245	0.465807
C36	C	-0.151977	0.666578	0.799141
C37	C	-1.096078	-0.000131	-0.040591
C38	C	-0.762744	0.333202	0.292742
C39	C	-0.429411	0.666535	0.626076
C40	C	-1.094090	-0.000132	-0.142972
C41	C	-0.760756	0.333202	0.190361
C42	C	-0.427423	0.666535	0.523694
C43	C	-0.443748	-0.000130	0.125154
C44	C	-0.110414	0.333203	0.458488
C45	C	0.222919	0.666536	0.791821
C46	C	-0.548056	-0.000118	0.127187
C47	C	-0.214722	0.333215	0.460520
C48	C	0.118611	0.666548	0.793854
C49	C	-0.631192	-0.000108	0.128814
C50	C	-0.297859	0.333225	0.462147
C51	C	0.035474	0.666558	0.795481
C52	C	-0.735507	-0.000098	0.130847
C53	C	-0.402173	0.333235	0.464180
C54	C	-0.068840	0.666568	0.797514
C55	C	-0.258221	-0.000137	0.121553
C56	C	0.075112	0.333196	0.454886
C57	C	0.408446	0.666529	0.788219
C58	C	-0.360602	-0.000136	0.123541
C59	C	-0.027269	0.333197	0.456874
C60	C	0.306064	0.666531	0.790207
N61	N	-1.089627	0.254734	0.128014
N62	N	-0.756294	0.588067	0.461348
N63	N	-0.422960	0.921401	0.794681
N64	N	-1.089626	-0.254977	0.127993
N65	N	-0.756293	0.078356	0.461326
N66	N	-0.422959	0.411690	0.794660
C67	C	-1.089622	0.656025	0.128004
C68	C	-0.756289	0.989358	0.461338
C69	C	-0.422956	1.322692	0.794671
C70	C	-1.089620	0.544374	0.128010
C71	C	-0.756287	0.877707	0.461343
C72	C	-0.422954	1.211040	0.794677
C73	C	-1.089624	0.455383	0.128009
C74	C	-0.756291	0.788716	0.461342
C75	C	-0.422957	1.122050	0.794676
C76	C	-1.089624	0.343725	0.128015
C77	C	-0.756290	0.677058	0.461349
C78	C	-0.422957	1.010391	0.794682
C79	C	-1.086770	-0.000105	-0.517868
C80	C	-0.753437	0.333228	-0.184535
C81	C	-0.420103	0.666562	0.148799
C82	C	-1.088803	-0.000113	-0.413560
C83	C	-0.755469	0.333221	-0.080227
C84	C	-0.422136	0.666554	0.253107
C85	C	-1.090430	-0.000119	-0.330423
C86	C	-0.757096	0.333214	0.002910
C87	C	-0.423763	0.666547	0.336243
C88	C	-1.092463	-0.000125	-0.226109
C89	C	-0.759129	0.333208	0.107224
C90	C	-0.425796	0.666542	0.440558
C91	C	-1.083168	-0.000109	0.296605
C92	C	-0.749835	0.333224	0.629939
C93	C	-0.416502	0.666557	0.963272
C94	C	-1.085156	-0.000103	0.398987
C95	C	-0.751823	0.333231	0.732320
C96	C	-0.418490	0.666564	1.065653
