data_functionalizedCrystal
_audit_creation_method	'MofGen! by Chris Wilmer'
_symmetry_space_group_name_H-M	'P1'
_symmetry_Int_Tables_number	1
_symmetry_cell_setting	triclinic
loop_
_symmetry_equiv_pos_as_xyz
  x,y,z
_cell_length_a	10.654554
_cell_length_b	15.944551
_cell_length_c	9.730223
_cell_angle_alpha	89.997716
_cell_angle_beta	89.999030
_cell_angle_gamma	83.992790
loop_
_atom_site_label
_atom_site_type_symbol
_atom_site_fract_x
_atom_site_fract_y
_atom_site_fract_z
O1	O	1.666304	0.117992	-0.114318
O2	O	1.300681	0.129228	-0.114315
O3	O	1.493477	0.001393	-0.114304
O4	O	1.473508	0.245827	-0.114329
O5	O	1.493474	0.001396	0.114276
O6	O	1.300679	0.129231	0.114265
O7	O	1.666302	0.117995	0.114262
Zn8	Zn	1.483490	0.123613	0.150555
Zn9	Zn	1.483493	0.123609	-0.150608
O10	O	1.473506	0.245830	0.114251
C11	C	1.253892	0.128403	-0.000025
C12	C	1.114481	0.125933	-0.000024
C13	C	0.932954	0.046019	-0.000034
C14	C	1.063945	0.048340	-0.000020
C15	C	1.034018	0.201209	-0.000027
C16	C	0.903029	0.198887	-0.000031
C17	C	0.950233	-0.042238	-0.000035
C18	C	1.081224	-0.039917	-0.000021
C19	C	1.492647	-0.029904	-0.000014
C20	C	1.490161	-0.123165	-0.000013
C21	C	1.364717	-0.338749	-0.000031
C22	C	1.422968	-0.399427	0.112672
C23	C	1.485665	-0.293917	-0.000024
C24	C	1.422999	-0.399413	-0.112690
C25	C	1.481313	-0.458855	-0.000040
C26	C	1.543949	-0.353366	0.112773
C27	C	1.543963	-0.353346	-0.112690
C28	C	1.602302	-0.414006	0.000040
C29	C	1.488169	-0.198900	-0.000013
C30	C	1.478819	-0.553870	-0.000040
C31	C	1.713090	0.118819	-0.000031
C32	C	1.852501	0.121290	-0.000041
C33	C	1.474336	0.277127	-0.000042
C34	C	1.476821	0.370387	-0.000052
N35	N	1.483497	0.123616	0.356092
N36	N	1.483495	0.123600	-0.356145
C37	C	1.568889	0.067030	0.428023
C38	C	1.568885	0.067020	0.571906
C39	C	1.398095	0.180189	0.571914
C40	C	1.398093	0.180194	0.428034
C41	C	1.667497	0.001695	0.428019
C42	C	1.667494	0.001685	0.571902
H43	H	1.127207	-0.066585	0.098681
N44	N	1.085615	0.280476	-0.000009
N45	N	1.060953	0.331392	0.096341
H46	H	1.097389	0.387377	0.096355
H47	H	1.637770	-0.059326	0.616524
N48	N	1.134143	-0.081641	-0.120015
N49	N	1.064004	-0.112935	-0.204572
H50	H	1.101376	-0.142402	-0.289315
H51	H	1.264324	-0.306024	0.000082
N52	N	1.358785	-0.424988	-0.232203
N53	N	1.245912	-0.397870	-0.252250
H54	H	1.200551	-0.415929	-0.336650
N55	N	1.608078	-0.327703	-0.232219
N56	N	1.621043	-0.251516	-0.250780
H57	H	1.666317	-0.233403	-0.335206
H58	H	0.921315	-0.076755	0.095622
H59	H	0.837528	0.260180	-0.000022
N60	N	1.788337	0.019733	0.620879
N61	N	1.873474	0.032464	0.537393
H62	H	1.958817	0.045211	0.571980
N63	N	1.310847	0.237969	0.645405
N64	N	1.232900	0.210821	0.725683
H65	H	1.171278	0.251629	0.777585
N66	N	1.608072	-0.327909	0.232426
N67	N	1.620286	-0.251688	0.251767
H68	H	1.665568	-0.233706	0.336272
N69	N	1.641602	-0.079289	0.379044
N70	N	1.623351	-0.136350	0.462530
H71	H	1.605045	-0.193540	0.427943
N72	N	1.358782	-0.425019	0.232197
N73	N	1.245911	-0.397910	0.252279
H74	H	1.200571	-0.415982	0.336689
N75	N	0.905990	-0.077517	-0.123826
N76	N	0.849327	-0.142248	-0.118891
H77	H	0.818081	-0.167165	-0.206319
N78	N	1.728357	-0.454865	0.000125
N79	N	1.801380	-0.442727	0.096977
H80	H	1.890406	-0.471584	0.097043
H81	H	1.328550	0.226264	0.369469
N82	N	1.781559	0.027369	0.372059
N83	N	1.885088	-0.013655	0.399029
H84	H	1.965643	0.004486	0.359515
