data_functionalizedCrystal
_audit_creation_method	'MofGen! by Chris Wilmer'
_symmetry_space_group_name_H-M	'P1'
_symmetry_Int_Tables_number	1
_symmetry_cell_setting	triclinic
loop_
_symmetry_equiv_pos_as_xyz
  x,y,z
_cell_length_a	23.532407
_cell_length_b	10.654550
_cell_length_c	9.130313
_cell_angle_alpha	89.995631
_cell_angle_beta	90.001817
_cell_angle_gamma	83.666804
loop_
_atom_site_label
_atom_site_type_symbol
_atom_site_fract_x
_atom_site_fract_y
_atom_site_fract_z
O1	O	0.756252	0.152438	-0.121616
O2	O	0.590532	0.174495	-0.121659
O3	O	0.677202	-0.019393	-0.121628
O4	O	0.669582	0.346327	-0.121648
O5	O	0.677196	-0.019399	0.121971
O6	O	0.590526	0.174489	0.121940
O7	O	0.756246	0.152433	0.121983
Cu8	Cu	0.673386	0.163461	0.144204
Cu9	Cu	0.673393	0.163467	-0.143880
O10	O	0.669576	0.346321	0.121951
C11	C	0.676640	-0.066176	0.000171
C12	C	0.674966	-0.205567	0.000168
C13	C	0.569310	0.173931	0.000135
C14	C	0.506082	0.172242	0.000119
C15	C	0.725996	-0.286669	0.000181
C16	C	0.724419	-0.417640	0.000163
C17	C	0.620779	-0.386393	0.000125
C18	C	0.622356	-0.255425	0.000133
C19	C	0.107657	0.276389	0.000179
C20	C	0.048247	0.274820	0.000188
O21	O	0.012131	0.371366	0.000236
N22	N	0.024869	0.159554	0.000192
C23	C	0.060906	0.045849	0.000202
O24	O	0.035567	-0.052339	0.000208
C25	C	0.120315	0.047419	0.000203
C26	C	0.143689	0.162693	0.000185
C27	C	0.131031	0.391654	0.000162
C28	C	0.190438	0.393222	0.000150
C29	C	0.226470	0.279525	0.000156
C30	C	0.203095	0.164261	0.000173
C31	C	0.156351	-0.066285	0.000224
C32	C	0.215764	-0.064705	0.000226
C33	C	0.239138	0.050569	0.000207
C34	C	0.298534	0.052133	0.000166
N35	N	0.321911	0.167399	0.000162
C36	C	0.285879	0.281095	0.000157
C37	C	-0.063858	0.042560	0.000202
C38	C	-0.123266	0.040989	0.000190
C39	C	-0.135922	0.269961	0.000179
C40	C	-0.076512	0.271531	0.000180
C41	C	-0.040481	0.157827	0.000198
C42	C	0.410637	0.284380	0.000131
C43	C	0.470049	0.285938	0.000113
C44	C	0.482700	0.056967	0.000132
C45	C	0.423293	0.055408	0.000142
C46	C	0.387262	0.169125	0.000147
O47	O	0.334684	-0.044362	0.000125
O48	O	0.311227	0.379267	0.000171
C49	C	0.777469	0.152997	0.000185
C50	C	0.840697	0.154686	0.000192
C51	C	0.670138	0.393104	0.000149
C52	C	0.671812	0.532494	0.000142
N53	N	0.673385	0.163455	0.346826
N54	N	0.673398	0.163462	-0.346503
C55	C	0.711775	0.077637	0.423492
C56	C	0.711781	0.077637	0.576829
C57	C	0.635003	0.249285	0.576821
C58	C	0.634995	0.249278	0.423486
H59	H	0.768834	-0.246079	0.000207
N60	N	0.131150	-0.190617	0.000266
H61	H	0.106781	-0.196396	-0.090030
H62	H	0.163030	-0.262319	0.000336
H63	H	0.765973	-0.483669	0.000170
N64	N	0.521567	-0.065660	0.000155
H65	H	0.513999	-0.115996	-0.090136
H66	H	0.562732	-0.047061	0.000210
H67	H	0.209463	0.487090	0.000134
H68	H	0.603731	0.319162	0.361061
H69	H	0.577945	-0.427004	0.000099
N70	N	0.593600	0.341847	0.659504
H71	H	0.599430	0.328833	0.768275
H72	H	0.600524	0.430859	0.632684
N73	N	0.567314	-0.167938	0.000109
H74	H	0.533746	-0.219393	0.000096
H75	H	0.565708	-0.112923	0.090414
H76	H	0.381308	0.376980	0.000139
N77	N	0.495259	0.410274	0.000078
H78	H	0.463415	0.482059	0.000078
H79	H	0.519638	0.415919	0.090374
N80	N	-0.148477	-0.083337	0.000193
H81	H	-0.135372	-0.133112	-0.090107
H82	H	-0.135358	-0.133013	0.090557
H83	H	-0.057486	0.365397	0.000173
N84	N	0.092173	0.514294	0.000239
H85	H	0.116005	0.587540	0.000256
H86	H	0.067234	0.518686	-0.090043
N87	N	-0.174791	0.392596	0.000173
H88	H	-0.215972	0.374100	0.000180
H89	H	-0.167170	0.442861	0.090476
H90	H	0.404261	-0.038457	0.000136
N91	N	-0.024997	-0.080086	0.000213
H92	H	-0.048825	-0.153336	0.000215
H93	H	-0.000072	-0.084428	-0.090091
N94	N	0.254626	-0.187346	0.000255
H95	H	0.230800	-0.260601	0.000268
H96	H	0.279549	-0.191692	-0.090052
H97	H	0.743033	0.007754	0.361079
N98	N	0.753195	-0.014906	0.659520
H99	H	0.777515	-0.069265	0.587684
H100	H	0.778556	0.032915	0.723115
