data_functionalizedCrystal
_audit_creation_method	'MofGen! by Chris Wilmer'
_symmetry_space_group_name_H-M	'P1'
_symmetry_Int_Tables_number	1
_symmetry_cell_setting	triclinic
loop_
_symmetry_equiv_pos_as_xyz
  x,y,z
_cell_length_a	12.759401
_cell_length_b	12.759399
_cell_length_c	12.827885
_cell_angle_alpha	89.971025
_cell_angle_beta	89.981306
_cell_angle_gamma	90.015446
loop_
_atom_site_label
_atom_site_type_symbol
_atom_site_fract_x
_atom_site_fract_y
_atom_site_fract_z
Zn1	Zn	1.606243	-0.418225	-0.590838
Zn2	Zn	1.606135	-0.593941	-0.416101
Zn3	Zn	1.430546	-0.418276	-0.416114
Zn4	Zn	1.430530	-0.593862	-0.590803
O5	O	1.518364	-0.506076	-0.503464
O6	O	1.753250	-0.441547	-0.567669
O7	O	1.582805	-0.570693	-0.269867
O8	O	1.453905	-0.271248	-0.439312
O9	O	1.753170	-0.570644	-0.439290
O10	O	1.582988	-0.271211	-0.567681
O11	O	1.453800	-0.441632	-0.269876
O12	O	1.283523	-0.441555	-0.439277
O13	O	1.453877	-0.570509	-0.737044
O14	O	1.283511	-0.570558	-0.567620
O15	O	1.582973	-0.441470	-0.737070
O16	O	1.582789	-0.740952	-0.439256
O17	O	1.453773	-0.740893	-0.567608
C18	C	1.518296	-0.779043	-0.503450
C19	C	1.518363	-0.895820	-0.503478
C20	C	1.245396	-0.506054	-0.503447
C21	C	1.128620	-0.506070	-0.503464
C22	C	0.964008	-0.438833	-0.436764
C23	C	1.073732	-0.438811	-0.436754
C24	C	1.073777	-0.573348	-0.570197
C25	C	0.964055	-0.573364	-0.570212
C26	C	0.909126	-0.371577	-0.370041
C27	C	0.963961	-0.304297	-0.303310
C28	C	1.073685	-0.304275	-0.303299
C29	C	1.128574	-0.371533	-0.370021
C30	C	1.451243	-0.950784	-0.436603
C31	C	1.451314	-1.060508	-0.436619
C32	C	1.585629	-1.060294	-0.570396
C33	C	1.585562	-0.950572	-0.570373
C34	C	1.384044	-0.896032	-0.369707
C35	C	1.316918	-0.950996	-0.302827
C36	C	1.316989	-1.060720	-0.302844
C37	C	1.384187	-1.115480	-0.369741
C38	C	1.792397	-0.506099	-0.503482
C39	C	1.909173	-0.506108	-0.503490
C40	C	1.518435	-0.505975	-0.776034
C41	C	1.518466	-0.505932	-0.892188
C42	C	1.518460	-0.232043	-0.503502
C43	C	1.518501	-0.115266	-0.503518
C44	C	1.582353	-0.442067	-0.943985
C45	C	1.582386	-0.442021	-1.064036
C46	C	1.518353	-0.506101	-0.231954
C47	C	1.518526	-0.505848	-0.115802
H48	H	0.819783	-0.371589	-0.370041
C49	C	1.243154	-1.121183	-0.229279
C50	C	1.169241	-1.060954	-0.155701
C51	C	1.095398	-1.121414	-0.082139
C52	C	1.095469	-1.242104	-0.082154
C53	C	1.169385	-1.302340	-0.155735
C54	C	1.243228	-1.241880	-0.229297
H55	H	1.169186	-0.971606	-0.155688
H56	H	1.040681	-1.076822	-0.027670
H57	H	1.040806	-1.286860	-0.027699
H58	H	1.169440	-1.391688	-0.155748
H59	H	1.297945	-1.286472	-0.283766
H60	H	0.919408	-0.628143	-0.624549
H61	H	1.637086	-0.387347	-1.108580
H62	H	1.640218	-0.905820	-0.624829
C63	C	1.656217	-0.368245	-0.883836
C64	C	1.610634	-0.285855	-0.808780
C65	C	1.684502	-0.212032	-0.748633
C66	C	1.803952	-0.220598	-0.763543
C67	C	1.849542	-0.302991	-0.838602
C68	C	1.775674	-0.376815	-0.898749
H69	H	1.522204	-0.279511	-0.797740
H70	H	1.650752	-0.151039	-0.693069
H71	H	1.858633	-0.165950	-0.719018
H72	H	1.937972	-0.309336	-0.849642
H73	H	1.809423	-0.437807	-0.954313
C74	C	1.444626	-0.579721	-1.055641
C75	C	1.362205	-0.534150	-0.980581
C76	C	1.288305	-0.608023	-0.920412
C77	C	1.296826	-0.727468	-0.935303
C78	C	1.379250	-0.773045	-1.010367
C79	C	1.453150	-0.699172	-1.070536
H80	H	1.355895	-0.445724	-0.969555
H81	H	1.227290	-0.574283	-0.864845
H82	H	1.242121	-0.782153	-0.890762
H83	H	1.385561	-0.861471	-1.021393
H84	H	1.514166	-0.732912	-1.126103
H85	H	0.919263	-0.249532	-0.248994
H86	H	1.118328	-0.249484	-0.248971
H87	H	1.217919	-0.371499	-0.370017
H88	H	1.118477	-0.628107	-0.624518
H89	H	1.463787	-0.560569	-0.936719
H90	H	1.262213	-0.906405	-0.248356
H91	H	1.383977	-0.806689	-0.369688
H92	H	1.384246	-1.204825	-0.369742
H93	H	1.640337	-1.104888	-0.624861
