data_functionalizedCrystal
_audit_creation_method	'MofGen! by Chris Wilmer'
_symmetry_space_group_name_H-M	'P1'
_symmetry_Int_Tables_number	1
_symmetry_cell_setting	triclinic
loop_
_symmetry_equiv_pos_as_xyz
  x,y,z
_cell_length_a	6.817900
_cell_length_b	9.582860
_cell_length_c	14.125465
_cell_angle_alpha	93.994443
_cell_angle_beta	100.398878
_cell_angle_gamma	111.206767
loop_
_atom_site_label
_atom_site_type_symbol
_atom_site_fract_x
_atom_site_fract_y
_atom_site_fract_z
V1	V	-4.031033	-0.205771	-0.299801
V2	V	-3.781033	0.044229	-0.049801
V3	V	-3.531033	0.294229	0.200199
V4	V	-3.281033	0.544229	0.450199
O5	O	-3.977344	0.011211	-0.294276
O6	O	-3.727344	0.261211	-0.044276
O7	O	-3.477344	0.511211	0.205724
O8	O	-3.227344	0.761211	0.455724
O9	O	-4.022070	-0.409281	-0.297576
O10	O	-3.772070	-0.159281	-0.047576
O11	O	-3.522070	0.090719	0.202424
O12	O	-3.272070	0.340719	0.452424
O13	O	-3.966452	-0.202025	-0.430634
O14	O	-3.716452	0.047975	-0.180634
O15	O	-3.466452	0.297975	0.069366
O16	O	-3.216452	0.547975	0.319366
O17	O	-4.033347	-0.197480	-0.160296
O18	O	-3.783347	0.052520	0.089704
O19	O	-3.533347	0.302520	0.339704
O20	O	-3.283347	0.552520	0.589704
V21	V	-4.511648	-0.179886	-0.283136
V22	V	-4.261648	0.070114	-0.033136
V23	V	-4.011648	0.320114	0.216864
V24	V	-3.761648	0.570114	0.466864
O25	O	-4.298671	-0.262552	-0.336357
O26	O	-4.048671	-0.012552	-0.086357
O27	O	-3.798671	0.237448	0.163643
O28	O	-3.548671	0.487448	0.413643
O29	O	-4.694207	-0.123105	-0.246581
O30	O	-4.444207	0.126895	0.003419
O31	O	-4.194207	0.376895	0.253419
O32	O	-3.944207	0.626895	0.503419
O33	O	-4.297405	0.023625	-0.285361
O34	O	-4.047405	0.273625	-0.035361
O35	O	-3.797405	0.523625	0.214639
O36	O	-3.547405	0.773625	0.464639
O37	O	-4.682733	-0.396868	-0.288662
O38	O	-4.432733	-0.146868	-0.038662
O39	O	-4.182733	0.103132	0.211338
O40	O	-3.932733	0.353132	0.461338
O41	O	-4.626731	-0.188177	-0.422641
O42	O	-4.376731	0.061823	-0.172641
O43	O	-4.126731	0.311823	0.077359
O44	O	-3.876731	0.561823	0.327359
O45	O	-4.353022	-0.183632	-0.152303
O46	O	-4.103022	0.066368	0.097697
O47	O	-3.853022	0.316368	0.347697
O48	O	-3.603022	0.566368	0.597697
C49	C	-3.877188	-0.458911	-0.292802
C50	C	-3.627188	-0.208911	-0.042802
C51	C	-3.377188	0.041089	0.207198
C52	C	-3.127188	0.291089	0.457198
C53	C	-3.951038	-0.625279	-0.291855
C54	C	-3.701038	-0.375279	-0.041855
C55	C	-3.451038	-0.125279	0.208145
C56	C	-3.201038	0.124721	0.458145
C57	C	-3.806241	-0.194533	-0.462529
C58	C	-3.556241	0.055467	-0.212529
C59	C	-3.306241	0.305467	0.037471
C60	C	-3.056241	0.555467	0.287471
C61	C	-3.834984	-0.192817	-0.569485
C62	C	-3.584984	0.057183	-0.319485
C63	C	-3.334984	0.307183	-0.069485
C64	C	-3.084984	0.557183	0.180515
C65	C	-3.887667	-0.189671	-0.765311
C66	C	-3.637667	0.060329	-0.515311
C67	C	-3.387667	0.310329	-0.265311
C68	C	-3.137667	0.560329	-0.015311
C69	C	-4.074382	-0.195983	-0.817627
C70	C	-3.824382	0.054017	-0.567627
C71	C	-3.574382	0.304017	-0.317627
C72	C	-3.324382	0.554017	-0.067627
C73	C	-4.103698	-0.194232	-0.926591
C74	C	-3.853698	0.055768	-0.676591
C75	C	-3.603698	0.305768	-0.426591
C76	C	-3.353698	0.555768	-0.176591
C77	C	-3.858343	-0.191422	-0.656337
C78	C	-3.608343	0.058578	-0.406337
C79	C	-3.358343	0.308578	-0.156337
C80	C	-3.108343	0.558578	0.093663
C81	C	-4.105631	0.073246	-0.290133
C82	C	-3.855631	0.323246	-0.040133
C83	C	-3.605631	0.573246	0.209867
C84	C	-3.355631	0.823246	0.459867
C85	C	-4.011018	0.239613	-0.291087
C86	C	-3.761018	0.489613	-0.041087
C87	C	-3.511018	0.739613	0.208913
C88	C	-3.261018	0.989613	0.458913
C89	C	-4.176577	-0.191128	-0.120403
C90	C	-3.926577	0.058872	0.129597
C91	C	-3.676577	0.308872	0.379597
C92	C	-3.426577	0.558872	0.629597
C93	C	-4.127071	-0.192837	-0.013447
C94	C	-3.877071	0.057163	0.236553
C95	C	-3.627071	0.307163	0.486553
C96	C	-3.377071	0.557163	0.736553
H97	H	-4.212226	-0.202717	-0.780583
H98	H	-3.962226	0.047283	-0.530583
H99	H	-3.712226	0.297283	-0.280583
H100	H	-3.462226	0.547283	-0.030583
F101	F	-3.707522	-0.180901	-0.813730
F102	F	-3.457522	0.069099	-0.563730
F103	F	-3.207522	0.319099	-0.313730
F104	F	-2.957522	0.569099	-0.063730
