data_functionalizedCrystal
_audit_creation_method	'MofGen! by Chris Wilmer'
_symmetry_space_group_name_H-M	'P1'
_symmetry_Int_Tables_number	1
_symmetry_cell_setting	triclinic
loop_
_symmetry_equiv_pos_as_xyz
  x,y,z
_cell_length_a	14.044220
_cell_length_b	23.532407
_cell_length_c	13.101039
_cell_angle_alpha	93.336507
_cell_angle_beta	86.340132
_cell_angle_gamma	88.018778
loop_
_atom_site_label
_atom_site_type_symbol
_atom_site_fract_x
_atom_site_fract_y
_atom_site_fract_z
O1	O	1.261651	0.134360	-0.085125
O2	O	1.594984	0.467693	0.248208
O3	O	1.928317	0.801027	0.581542
O4	O	0.985730	0.129407	-0.085150
O5	O	1.319063	0.462740	0.248183
O6	O	1.652396	0.796074	0.581516
O7	O	1.132009	0.049404	-0.085118
O8	O	1.465343	0.382737	0.248215
O9	O	1.798676	0.716070	0.581549
O10	O	1.115371	0.214364	-0.085157
O11	O	1.448704	0.547697	0.248176
O12	O	1.782037	0.881030	0.581509
O13	O	1.121514	0.055154	0.085309
O14	O	1.454847	0.388487	0.418643
O15	O	1.788180	0.721821	0.751976
O16	O	0.975234	0.135158	0.085277
O17	O	1.308567	0.468491	0.418611
O18	O	1.641901	0.801824	0.751944
O19	O	1.251155	0.140111	0.085302
O20	O	1.584488	0.473444	0.418636
O21	O	1.917822	0.806777	0.751969
Zn22	Zn	1.111528	0.138547	0.112349
Zn23	Zn	1.444861	0.471881	0.445682
Zn24	Zn	1.778195	0.805214	0.779016
Zn25	Zn	1.125356	0.130971	-0.112197
Zn26	Zn	1.458690	0.464304	0.221137
Zn27	Zn	1.792023	0.797637	0.554470
O28	O	1.104875	0.220114	0.085270
O29	O	1.438209	0.553448	0.418604
O30	O	1.771542	0.886781	0.751937
C31	C	0.945188	0.130115	0.000061
C32	C	1.278521	0.463448	0.333394
C33	C	1.611855	0.796781	0.666727
C34	C	0.840024	0.123648	0.000052
C35	C	1.173357	0.456982	0.333385
C36	C	1.506690	0.790315	0.666718
C37	C	1.126338	0.031040	0.000098
C38	C	1.459671	0.364373	0.333432
C39	C	1.793004	0.697707	0.666765
C40	C	1.125063	-0.032246	0.000106
C41	C	1.458396	0.301087	0.333439
C42	C	1.791730	0.634421	0.666773
C43	C	0.647472	0.111828	0.000075
C44	C	0.980805	0.445161	0.333408
C45	C	1.314139	0.778495	0.666742
C46	C	0.589407	0.157687	0.000068
C47	C	0.922741	0.491020	0.333402
C48	C	1.256074	0.824354	0.666735
C49	C	0.482265	0.151110	0.000081
C50	C	0.815598	0.484443	0.333415
C51	C	1.148932	0.817777	0.666748
C52	C	0.754624	0.118404	0.000062
C53	C	1.087958	0.451738	0.333395
C54	C	1.421291	0.785071	0.666729
C55	C	1.203641	-0.427092	0.000057
C56	C	1.536975	-0.093758	0.333390
C57	C	1.870308	0.239575	0.666724
C58	C	1.202458	-0.486556	0.000049
C59	C	1.535792	-0.153223	0.333382
C60	C	1.869125	0.180110	0.666716
O61	O	1.275300	-0.519354	0.000018
O62	O	1.608634	-0.186021	0.333351
O63	O	1.941967	0.147313	0.666685
N64	N	1.115494	-0.513896	0.000042
N65	N	1.448828	-0.180563	0.333375
N66	N	1.782161	0.152770	0.666709
C67	C	1.029708	-0.481769	0.000032
C68	C	1.363042	-0.148435	0.333365
C69	C	1.696375	0.184898	0.666699
O70	O	0.955630	-0.510484	0.000024
O71	O	1.288964	-0.177151	0.333358
O72	O	1.622297	0.156183	0.666691
C73	C	1.030893	-0.422306	0.000033
C74	C	1.364226	-0.088972	0.333366
C75	C	1.697560	0.244361	0.666699
C76	C	1.117862	-0.394968	0.000050
C77	C	1.451195	-0.061635	0.333384
C78	C	1.784529	0.271698	0.666717
C79	C	1.290603	-0.399754	0.000073
C80	C	1.623937	-0.066421	0.333407
C81	C	1.957270	0.266912	0.666740
C82	C	1.291786	-0.340294	0.000083
C83	C	1.625119	-0.006960	0.333417
C84	C	1.958453	0.326373	0.666750
C85	C	1.206007	-0.308170	0.000077
C86	C	1.539340	0.025163	0.333410
C87	C	1.872673	0.358496	0.666743
C88	C	1.119045	-0.335508	0.000060
C89	C	1.452378	-0.002174	0.333393
C90	C	1.785711	0.331159	0.666727
C91	C	0.945109	-0.390179	0.000016
C92	C	1.278442	-0.056846	0.333349
C93	C	1.611775	0.276487	0.666682
C94	C	0.946301	-0.330712	0.000015
C95	C	1.279634	0.002621	0.333349
C96	C	1.612967	0.335954	0.666682
C97	C	1.033270	-0.303375	0.000033
C98	C	1.366603	0.029958	0.333366
C99	C	1.699936	0.363292	0.666700
C100	C	1.034448	-0.243924	0.000063
C101	C	1.367781	0.089409	0.333397
C102	C	1.701114	0.422743	0.666730
N103	N	1.121412	-0.216584	0.000070
N104	N	1.454745	0.116749	0.333404
N105	N	1.788078	0.450083	0.666737
C106	C	1.207191	-0.248707	0.000077
C107	C	1.540524	0.084626	0.333410
C108	C	1.873858	0.417959	0.666744
C109	C	1.027228	-0.606646	0.000029
C110	C	1.360561	-0.273313	0.333363
C111	C	1.693894	0.060021	0.666696
C112	C	1.026042	-0.666108	0.000036
C113	C	1.359375	-0.332775	0.333369
C114	C	1.692708	0.000559	0.666703
C115	C	1.198792	-0.670891	0.000051
C116	C	1.532125	-0.337558	0.333384
C117	C	1.865459	-0.004225	0.666718
C118	C	1.199977	-0.611428	0.000052
C119	C	1.533310	-0.278095	0.333385
C120	C	1.866643	0.055239	0.666718
C121	C	1.114192	-0.579306	0.000036
C122	C	1.447525	-0.245973	0.333370
C123	C	1.780858	0.087361	0.666703
C124	C	1.209668	-0.123835	0.000099
C125	C	1.543001	0.209498	0.333432
C126	C	1.876335	0.542831	0.666765
C127	C	1.210843	-0.064369	0.000113
C128	C	1.544176	0.268964	0.333446
C129	C	1.877509	0.602297	0.666779
C130	C	1.038093	-0.059591	0.000092
C131	C	1.371426	0.273742	0.333426
C132	C	1.704760	0.607076	0.666759
C133	C	1.036917	-0.119052	0.000084
C134	C	1.370251	0.214281	0.333417
C135	C	1.703584	0.547615	0.666750
C136	C	1.122713	-0.151173	0.000083
C137	C	1.456046	0.182160	0.333417
C138	C	1.789380	0.515494	0.666750
O139	O	0.961644	-0.211090	0.000090
O140	O	1.294977	0.122244	0.333424
O141	O	1.628311	0.455577	0.666757
O142	O	1.281258	-0.219985	0.000071
O143	O	1.614591	0.113348	0.333405
O144	O	1.947925	0.446682	0.666738
C145	C	1.291697	0.139403	0.000089
C146	C	1.625030	0.472736	0.333423
C147	C	1.958363	0.806070	0.666756
C148	C	1.396862	0.145869	0.000091
C149	C	1.730195	0.479202	0.333425
C150	C	2.063528	0.812536	0.666758
C151	C	1.110547	0.238478	0.000052
C152	C	1.443880	0.571811	0.333385
C153	C	1.777214	0.905144	0.666718
C154	C	1.111822	0.301763	0.000037
C155	C	1.445155	0.635097	0.333371
C156	C	1.778489	0.968430	0.666704
N157	N	1.102098	0.143718	0.265595
N158	N	1.435431	0.477051	0.598929
N159	N	1.768764	0.810385	0.932262
N160	N	1.134794	0.125796	-0.265443
N161	N	1.468128	0.459129	0.067890
N162	N	1.801461	0.792462	0.401224
C163	C	1.089267	0.150758	0.474635
C164	C	1.422600	0.484092	0.807968
C165	C	1.755934	0.817425	1.141302
C166	C	1.147622	0.118757	0.525524
C167	C	1.480955	0.452090	0.858857
C168	C	1.814289	0.785424	1.192190
C169	C	1.140483	0.122674	0.641841
C170	C	1.473816	0.456008	0.975174
C171	C	1.807150	0.789341	1.308507
C172	C	1.096405	0.146842	0.358308
C173	C	1.429738	0.480175	0.691641
C174	C	1.763072	0.813508	1.024974
H175	H	0.620163	0.201887	0.000053
H176	H	0.953497	0.535221	0.333386
H177	H	1.286830	0.868554	0.666720
Br178	Br	1.326106	-0.167419	0.000097
Br179	Br	1.659439	0.165914	0.333430
Br180	Br	1.992772	0.499248	0.666764
H181	H	1.268639	-0.697057	0.000052
H182	H	1.601972	-0.363724	0.333386
H183	H	1.935305	-0.030391	0.666719
H184	H	1.281666	-0.042114	0.000130
H185	H	1.614999	0.291219	0.333463
H186	H	1.948333	0.624552	0.666796
H187	H	0.616718	0.067631	0.000091
H188	H	0.950051	0.400964	0.333424
H189	H	1.283385	0.734298	0.666758
H190	H	1.033950	0.181096	0.518420
H191	H	1.367284	0.514429	0.851753
H192	H	1.700617	0.847762	1.185087
Br193	Br	0.918886	-0.156153	0.000083
Br194	Br	1.252219	0.177180	0.333417
Br195	Br	1.585553	0.510514	0.666750
Br196	Br	1.409823	-0.303204	0.000078
Br197	Br	1.743157	0.030130	0.333411
Br198	Br	2.076490	0.363463	0.666745
Br199	Br	1.407035	-0.443340	0.000082
Br200	Br	1.740368	-0.110006	0.333415
Br201	Br	2.073702	0.223327	0.666748
Br202	Br	1.240226	0.068450	0.452544
Br203	Br	1.573559	0.401784	0.785878
Br204	Br	1.906893	0.735117	1.119211
Br205	Br	0.908006	-0.703200	0.000036
Br206	Br	1.241340	-0.369867	0.333370
Br207	Br	1.574673	-0.036533	0.666703
Br208	Br	1.318009	-0.574334	0.000078
Br209	Br	1.651343	-0.241001	0.333411
Br210	Br	1.984676	0.092333	0.666744
H211	H	0.874290	-0.412427	-0.000005
H212	H	1.207623	-0.079094	0.333328
H213	H	1.540956	0.254240	0.666662
Br214	Br	0.829871	-0.287121	-0.000010
Br215	Br	1.163205	0.046212	0.333324
Br216	Br	1.496538	0.379545	0.666657
Br217	Br	0.910793	-0.563057	0.000017
Br218	Br	1.244126	-0.229724	0.333351
Br219	Br	1.577460	0.103610	0.666684
Br220	Br	0.921684	-0.015984	0.000084
Br221	Br	1.255017	0.317349	0.333417
Br222	Br	1.588350	0.650683	0.666750
