data_functionalizedCrystal
_audit_creation_method	'MofGen! by Chris Wilmer'
_symmetry_space_group_name_H-M	'P1'
_symmetry_Int_Tables_number	1
_symmetry_cell_setting	triclinic
loop_
_symmetry_equiv_pos_as_xyz
  x,y,z
_cell_length_a	19.288840
_cell_length_b	14.750779
_cell_length_c	19.288865
_cell_angle_alpha	77.397155
_cell_angle_beta	96.868869
_cell_angle_gamma	77.410996
loop_
_atom_site_label
_atom_site_type_symbol
_atom_site_fract_x
_atom_site_fract_y
_atom_site_fract_z
O1	O	0.906202	0.079997	-0.101716
O2	O	0.703945	0.079965	-0.113417
O3	O	0.810921	0.079963	-0.006432
O4	O	0.799225	0.079999	-0.208700
O5	O	0.841162	-0.079688	0.023808
O6	O	0.734186	-0.079686	-0.083177
O7	O	0.936443	-0.079654	-0.071476
Zn8	Zn	0.840116	-0.105018	-0.072525
Zn9	Zn	0.800272	0.105329	-0.112367
O10	O	0.829466	-0.079652	-0.178460
C11	C	0.693189	0.000135	-0.097922
C12	C	0.616087	0.000122	-0.096797
C13	C	0.563399	0.087150	-0.112743
C14	C	0.490950	0.087162	-0.111683
C15	C	0.471195	0.000140	-0.094663
C16	C	0.523893	-0.086899	-0.078719
C17	C	0.596340	-0.086908	-0.079787
C18	C	0.374495	-0.066525	-0.039658
C19	C	0.302049	-0.066512	-0.038587
C20	C	0.247746	0.000165	-0.091373
C21	C	0.265895	0.066845	-0.145225
C22	C	0.338342	0.066836	-0.146292
C23	C	0.392641	0.000140	-0.093504
C24	C	0.116499	0.087211	-0.106172
C25	C	0.044049	0.087219	-0.105115
C26	C	0.076995	-0.086844	-0.072144
C27	C	0.149443	-0.086850	-0.073208
C28	C	0.169190	0.000181	-0.090219
N29	N	0.867313	-0.248574	-0.045333
C30	C	0.697122	-0.600389	-0.215466
C31	C	0.716185	-0.700889	-0.196416
C32	C	0.810932	-0.700853	-0.101716
C33	C	0.791874	-0.600352	-0.120756
C34	C	0.734969	-0.550128	-0.177632
C35	C	0.829722	-0.550090	-0.082921
C36	C	0.810668	-0.449597	-0.101962
C37	C	0.753767	-0.399366	-0.158837
C38	C	0.715915	-0.449635	-0.196672
C39	C	0.886630	-0.600316	-0.026049
C40	C	0.924478	-0.550055	0.011786
C41	C	0.905421	-0.449560	-0.007251
C42	C	0.848519	-0.399329	-0.064127
C43	C	0.943272	-0.399291	0.030584
C44	C	0.924218	-0.298799	0.011543
C45	C	0.829465	-0.298836	-0.083167
C46	C	0.947198	0.000178	-0.086971
C47	C	1.024299	0.000197	-0.088096
C48	C	0.825666	0.000134	0.034565
C49	C	0.824539	0.000126	0.111670
N50	N	0.773080	0.248885	-0.139554
C51	C	0.814721	0.000178	-0.219458
C52	C	0.815847	0.000193	-0.296564
C53	C	0.887306	0.000131	0.156371
C54	C	0.886243	0.000146	0.228815
C55	C	0.822412	0.000136	0.256559
C56	C	0.759635	0.000137	0.211847
C57	C	0.760698	0.000131	0.139403
C58	C	0.782826	-0.055794	0.375436
C59	C	0.781766	-0.055794	0.447880
C60	C	0.819128	0.000157	0.480000
C61	C	0.857564	0.056097	0.439671
C62	C	0.858628	0.056092	0.367227
C63	C	0.821251	0.000143	0.335112
C64	C	0.880747	0.000180	0.603254
C65	C	0.879679	0.000201	0.675698
C66	C	0.753071	0.000182	0.658730
C67	C	0.754139	0.000171	0.586286
C68	C	0.817979	0.000165	0.558553
H69	H	0.001148	0.158091	-0.118105
H70	H	0.701098	0.000179	0.681317
H71	H	0.418705	-0.120825	0.003330
H72	H	0.448043	0.158033	-0.124669
H73	H	0.930793	0.000211	0.712092
Br74	Br	0.668949	0.000163	0.525616
Br75	Br	0.973941	0.000150	0.118732
Br76	Br	1.020507	-0.467462	0.107761
Br77	Br	0.975588	-0.230584	0.062887
Br78	Br	0.732116	-0.131736	0.331852
Br79	Br	0.277427	-0.157024	0.034482
Br80	Br	0.497084	-0.205001	-0.055628
Br81	Br	0.967387	0.000163	0.565614
H82	H	0.192344	-0.157718	-0.060219
Br83	Br	1.001707	-0.618222	0.088969
H84	H	0.738256	-0.317538	-0.174341
H85	H	0.937357	0.000154	0.265217
Br86	Br	0.619882	-0.532222	-0.292647
Br87	Br	0.664815	-0.769094	-0.247776
H88	H	0.353115	0.121127	-0.190141
Br89	Br	0.910783	0.132011	0.312494
H90	H	0.902144	-0.682144	-0.010550
H91	H	0.639240	-0.157779	-0.066802
H92	H	0.887987	0.101659	0.465821
Br93	Br	0.752226	-0.230669	-0.160349
H94	H	0.707663	0.000131	0.234440
Br95	Br	0.729610	-0.131718	0.502607
Br96	Br	0.675506	0.000127	0.078732
Br97	Br	0.050192	-0.204947	-0.049056
Br98	Br	0.590196	0.205262	-0.135830
Br99	Br	0.888161	-0.769020	-0.024532
Br100	Br	0.192206	0.157340	-0.216870
Br101	Br	0.638676	-0.381468	-0.273854
Br102	Br	0.143304	0.205321	-0.129262
