data_functionalizedCrystal
_audit_creation_method	'MofGen! by Chris Wilmer'
_symmetry_space_group_name_H-M	'P1'
_symmetry_Int_Tables_number	1
_symmetry_cell_setting	triclinic
loop_
_symmetry_equiv_pos_as_xyz
  x,y,z
_cell_length_a	14.395555
_cell_length_b	21.606444
_cell_length_c	21.606444
_cell_angle_alpha	60.000398
_cell_angle_beta	90.000721
_cell_angle_gamma	59.998460
loop_
_atom_site_label
_atom_site_type_symbol
_atom_site_fract_x
_atom_site_fract_y
_atom_site_fract_z
Zr1	Zr	0.894904	0.677423	-0.081168
O2	O	0.746573	0.806548	-0.179995
O3	O	0.940377	0.548302	-0.050875
O4	O	0.940376	0.677424	-0.179993
O5	O	0.746573	0.677424	0.050975
O6	O	1.093250	0.677419	-0.179987
O7	O	0.746574	0.677426	-0.050878
O8	O	1.093252	0.446444	0.050980
O9	O	0.746571	0.908399	-0.179992
O10	O	1.073857	0.601406	-0.037948
O11	O	0.959769	0.601408	0.038059
O12	O	0.959767	0.753432	-0.113959
O13	O	0.845679	0.753433	-0.037952
Zr14	Zr	1.138719	0.677411	0.081284
Zr15	Zr	1.138721	0.677415	-0.081160
Zr16	Zr	0.894903	0.677419	0.081276
Zr17	Zr	0.894902	0.839863	-0.081163
Zr18	Zr	1.138722	0.514971	0.081279
O19	O	1.093246	0.806532	0.050991
O20	O	1.093248	0.806537	-0.179983
O21	O	0.746571	0.806542	0.050979
O22	O	1.287051	0.548286	0.180111
O23	O	1.287053	0.548292	-0.050863
O24	O	0.940375	0.548297	0.180099
O25	O	1.287051	0.677410	-0.050859
O26	O	1.093247	0.677410	0.180109
O27	O	0.940373	0.677415	0.180103
O28	O	1.287050	0.677408	0.050994
O29	O	0.940373	0.908393	-0.179985
O30	O	1.093251	0.446441	0.180101
O31	O	1.287052	0.446435	0.180108
O32	O	1.287054	0.446438	0.050987
O33	O	0.746570	0.908395	-0.050871
O34	O	0.940372	0.908390	-0.050864
O35	O	1.073856	0.601402	0.114075
O36	O	1.187945	0.601401	0.038068
O37	O	1.073855	0.753426	-0.037943
O38	O	0.959766	0.753428	0.038064
C39	C	1.016815	0.474229	0.000051
C40	C	1.016816	0.405269	0.000049
C41	C	1.076367	0.372870	-0.039627
C42	C	1.076371	0.308070	-0.039622
C43	C	1.016817	0.275674	0.000055
C44	C	0.957264	0.308076	0.039737
C45	C	0.957268	0.372870	0.039736
C46	C	0.957251	0.046766	0.039743
C47	C	0.957249	-0.018031	0.039739
C48	C	1.076354	-0.018033	-0.039615
C49	C	1.076357	0.046761	-0.039616
C50	C	1.016810	0.079153	0.000068
C51	C	1.016808	0.149416	0.000064
C52	C	1.016811	0.205418	0.000056
C53	C	0.711834	0.677426	0.000047
C54	C	0.608328	0.677429	0.000044
C55	C	0.485532	0.760320	-0.041394
C56	C	0.454698	0.718884	-0.071428
C57	C	0.454739	0.718862	0.030072
C58	C	0.578857	0.635993	-0.030032
C59	C	0.578895	0.635983	0.071508
C60	C	0.548134	0.594486	0.041492
C61	C	1.321789	0.677408	0.000069
C62	C	1.425296	0.677405	0.000072
C63	C	1.016814	0.677422	-0.203135
C64	C	1.016814	0.677423	-0.272096
C65	C	1.016809	0.880605	0.000065
C66	C	1.016807	0.949565	0.000067
C67	C	1.101034	0.677423	-0.304492
C68	C	1.101037	0.677416	-0.369285
C69	C	1.016816	0.677417	-0.401684
C70	C	0.932592	0.677416	-0.369283
C71	C	0.932594	0.677416	-0.304488
C72	C	0.932582	0.677415	-0.630593
C73	C	0.932584	0.677418	-0.695394
C74	C	1.101025	0.677416	-0.695390
C75	C	1.101027	0.677416	-0.630595
C76	C	1.016808	0.677409	-0.598197
C77	C	1.016806	0.677414	-0.527940
C78	C	1.016811	0.677419	-0.471943
C79	C	1.016810	0.677412	0.203251
C80	C	1.016809	0.677410	0.272212
C81	C	1.321792	0.474220	0.000062
C82	C	1.425300	0.405257	0.000064
C83	C	1.016813	0.474224	0.203244
C84	C	1.016814	0.405262	0.272204
C85	C	1.321790	0.474215	0.203255
C86	C	1.425297	0.405250	0.272218
C87	C	0.711833	0.880619	-0.203139
C88	C	0.608326	0.949584	-0.272102
C89	C	0.711831	0.880614	0.000054
C90	C	0.608324	0.949577	0.000052
C91	C	1.016810	0.880610	-0.203128
C92	C	1.016810	0.949572	-0.272088
C93	C	1.414356	0.372873	-0.039622
C94	C	1.511603	0.308084	-0.039636
C95	C	1.619793	0.275675	0.000041
C96	C	1.630735	0.308064	0.039728
C97	C	1.533489	0.372857	0.039737
C98	C	1.076366	0.372874	0.344274
C99	C	1.076362	0.308087	0.409075
C100	C	1.016812	0.275683	0.401804
C101	C	0.957252	0.308078	0.329726
C102	C	0.957250	0.372869	0.264927
C103	C	1.533469	0.372863	0.264929
C104	C	1.630734	0.308072	0.329721
C105	C	1.619825	0.275665	0.401801
C106	C	1.511642	0.308059	0.409089
C107	C	1.414380	0.372853	0.344298
C108	C	0.500155	0.981979	-0.264813
C109	C	0.402890	1.046790	-0.329605
C110	C	0.413798	1.079200	-0.401685
C111	C	0.521981	1.046802	-0.408973
C112	C	0.619244	0.981997	-0.344182
C113	C	0.619268	0.981967	0.039731
C114	C	0.522021	1.046775	0.039727
C115	C	0.413831	1.079186	0.000048
C116	C	0.402889	1.046794	-0.039636
C117	C	0.500135	0.981992	-0.039635
C118	C	1.076372	0.981954	-0.264792
C119	C	1.076394	1.046743	-0.329581
C120	C	1.016846	1.079152	-0.401664
C121	C	0.957282	1.046762	-0.408958
C122	C	0.957268	0.981971	-0.344170
H123	H	1.124847	0.073139	-0.071928
H124	H	0.864006	0.677412	-0.604221
H125	H	0.401180	0.753918	-0.131853
H126	H	0.863998	0.677417	-0.721772
H127	H	1.542416	0.399215	0.072058
H128	H	0.908760	0.955612	-0.350121
H129	H	1.542373	0.399238	0.206243
H130	H	0.908758	0.399230	0.206246
H131	H	0.864015	0.677415	-0.278112
H132	H	0.530952	1.073138	0.072045
H133	H	1.016867	1.131909	-0.454412
H134	H	1.718812	0.281703	0.323773
H135	H	0.632410	0.600979	0.131919
H136	H	0.314787	1.073193	-0.071941
H137	H	0.460088	0.830412	-0.076491
H138	H	0.908772	0.399250	0.072042
H139	H	1.698968	0.222916	0.000028
H140	H	1.699032	0.222905	0.454552
H141	H	0.491208	0.955622	-0.071945
H142	H	1.124896	1.073107	-0.323627
H143	H	0.573792	0.524337	0.076539
H144	H	1.124867	0.281719	0.467758
H145	H	0.491251	0.955595	-0.206127
H146	H	1.502777	0.281664	0.467786
H147	H	0.908800	1.073160	-0.467657
H148	H	0.334592	1.131969	-0.454436
H149	H	0.401233	0.753910	0.055456
H150	H	1.718836	0.281667	0.072031
H151	H	1.124863	0.955577	-0.206104
H152	H	1.326305	0.399215	0.350244
H153	H	1.124860	0.399250	0.350209
H154	H	1.124845	-0.044417	-0.071925
H155	H	0.632216	0.600985	-0.055485
H156	H	1.326270	0.399260	-0.071941
H157	H	0.314812	1.073158	-0.323656
H158	H	1.124857	0.399247	-0.071941
H159	H	1.502671	0.281720	-0.071953
H160	H	1.016823	0.222926	0.454574
H161	H	0.530850	1.073199	-0.467669
H162	H	0.908751	-0.044406	0.072052
H163	H	0.334656	1.131952	0.000054
H164	H	0.908767	0.281685	0.323817
H165	H	0.707319	0.955621	-0.350126
H166	H	1.169615	0.677415	-0.395660
H167	H	1.124862	0.281691	-0.071929
H168	H	0.908769	0.073129	0.072060
H169	H	0.707353	0.955583	0.072048
H170	H	1.169612	0.677427	-0.278119
H171	H	0.908781	0.281689	0.072047
H172	H	1.169605	0.677419	-0.604219
H173	H	0.864020	0.677411	-0.395664
H174	H	1.169605	0.677417	-0.721773
