data_functionalizedCrystal
_audit_creation_method	'MofGen! by Chris Wilmer'
_symmetry_space_group_name_H-M	'P1'
_symmetry_Int_Tables_number	1
_symmetry_cell_setting	triclinic
loop_
_symmetry_equiv_pos_as_xyz
  x,y,z
_cell_length_a	10.654543
_cell_length_b	9.482900
_cell_length_c	10.654551
_cell_angle_alpha	99.427457
_cell_angle_beta	84.483718
_cell_angle_gamma	80.624197
loop_
_atom_site_label
_atom_site_type_symbol
_atom_site_fract_x
_atom_site_fract_y
_atom_site_fract_z
O1	O	-1.687224	0.120730	-0.156891
O2	O	-1.321750	0.120766	-0.173700
O3	O	-1.512889	0.120746	0.017444
O4	O	-1.496085	0.120750	-0.348034
O5	O	-1.474066	-0.121043	-0.021539
O6	O	-1.282927	-0.121022	-0.212683
O7	O	-1.648400	-0.121059	-0.195873
Cu8	Cu	-1.462119	-0.143118	-0.207837
Cu9	Cu	-1.508032	0.142825	-0.161736
O10	O	-1.457261	-0.121038	-0.387017
C11	C	-1.255541	-0.000123	-0.191958
C12	C	-1.116100	-0.000109	-0.188267
C13	C	-1.036614	-0.000110	-0.300810
C14	C	-0.905589	-0.000131	-0.297340
C15	C	-0.933550	-0.000145	-0.068773
C16	C	-1.064570	-0.000134	-0.072245
N17	N	-1.429835	-0.344234	-0.240262
C18	C	-1.498501	-0.416441	-0.171293
C19	C	-1.471649	-0.583855	-0.198281
C20	C	-0.714610	-0.000159	-0.177620
C21	C	-0.854054	-0.000142	-0.181324
C22	C	-1.492244	-0.000145	0.044751
C23	C	-1.488553	-0.000137	0.184195
N24	N	-1.540325	0.343942	-0.129301
C25	C	-1.507983	0.131664	0.270949
C26	C	-1.504503	0.131667	0.401970
C27	C	-1.462167	-0.131944	0.359470
C28	C	-1.465638	-0.131945	0.228451
C29	C	-1.477908	-0.000141	0.585677
C30	C	-1.481603	-0.000133	0.446235
H31	H	-0.891576	-0.000175	0.025687
H32	H	-1.443514	-0.239257	0.395521
C33	C	-1.152010	-0.000134	0.051568
N34	N	-1.217869	-0.000137	0.144819
H35	H	-1.577162	-0.354321	-0.092261
H36	H	-1.520322	0.238993	0.472601
H37	H	-1.618992	-0.593942	-0.050265
H38	H	-1.392974	-0.645971	-0.277308
H39	H	-1.351164	-0.406356	-0.319285
C40	C	-1.444261	-0.276944	0.133015
N41	N	-1.428157	-0.386153	0.061132
C42	C	-1.093288	-0.000100	-0.428439
N43	N	-1.135970	-0.000101	-0.524575
C44	C	-0.818159	-0.000139	-0.421149
N45	N	-0.752305	-0.000149	-0.514408
H46	H	-1.526637	0.238991	0.234921
