data_functionalizedCrystal
_audit_creation_method	'MofGen! by Chris Wilmer'
_symmetry_space_group_name_H-M	'P1'
_symmetry_Int_Tables_number	1
_symmetry_cell_setting	triclinic
loop_
_symmetry_equiv_pos_as_xyz
  x,y,z
_cell_length_a	21.395362
_cell_length_b	15.299816
_cell_length_c	21.395364
_cell_angle_alpha	80.317202
_cell_angle_beta	90.036401
_cell_angle_gamma	80.369816
loop_
_atom_site_label
_atom_site_type_symbol
_atom_site_fract_x
_atom_site_fract_y
_atom_site_fract_z
Zn1	Zn	1.000980	-0.358925	0.397799
Zn2	Zn	1.500980	0.141075	0.897799
Zn3	Zn	1.019029	-0.509691	0.311174
Zn4	Zn	1.519029	-0.009691	0.811174
Zn5	Zn	0.896210	-0.358929	0.293001
Zn6	Zn	1.396210	0.141071	0.793001
Zn7	Zn	0.914304	-0.509748	0.415886
Zn8	Zn	1.414304	-0.009748	0.915886
O9	O	0.957631	-0.434323	0.354465
O10	O	1.457631	0.065677	0.854465
O11	O	1.091049	-0.378899	0.386345
O12	O	1.591049	0.121101	0.886345
O13	O	1.002718	-0.489669	0.221083
O14	O	1.502718	0.010331	0.721083
O15	O	0.894982	-0.232714	0.291728
O16	O	1.394982	0.267286	0.791728
O17	O	1.104310	-0.489666	0.322701
O18	O	1.604310	0.010334	0.822701
O19	O	0.971956	-0.232711	0.368723
O20	O	1.471956	0.267289	0.868723
O21	O	0.912483	-0.378905	0.207731
O22	O	1.412483	0.121095	0.707731
O23	O	0.810935	-0.378960	0.309266
O24	O	1.310935	0.121040	0.809266
O25	O	0.925821	-0.489763	0.501167
O26	O	1.425821	0.010237	1.001167
O27	O	0.824229	-0.489767	0.399548
O28	O	1.324229	0.010233	0.899548
O29	O	0.989502	-0.378955	0.487879
O30	O	1.489502	0.121045	0.987879
O31	O	1.020263	-0.635913	0.340239
O32	O	1.520263	-0.135913	0.840239
O33	O	0.943322	-0.635955	0.417170
O34	O	1.443322	-0.135955	0.917170
C35	C	0.794849	-0.434371	0.354398
C36	C	1.294849	0.065629	0.854398
C37	C	0.725213	-0.434413	0.354387
C38	C	1.225213	0.065587	0.854387
C39	C	0.699447	-0.492186	0.401346
C40	C	1.199447	0.007814	0.901346
C41	C	0.634009	-0.492164	0.401372
C42	C	1.134009	0.007836	0.901372
C43	C	0.594340	-0.434378	0.354427
C44	C	1.094340	0.065622	0.854427
C45	C	0.620112	-0.376594	0.307464
C46	C	1.120112	0.123406	0.807464
C47	C	0.685548	-0.376611	0.307444
C48	C	1.185548	0.123389	0.807444
C49	C	0.489746	-0.427091	0.297145
C50	C	0.989746	0.072909	0.797145
C51	C	0.424312	-0.427080	0.297165
C52	C	0.924312	0.072920	0.797165
C53	C	0.392512	-0.434319	0.354490
C54	C	0.892512	0.065681	0.854490
C55	C	0.426157	-0.441588	0.411798
C56	C	0.926157	0.058412	0.911798
C57	C	0.491593	-0.441606	0.411778
C58	C	0.991593	0.058394	0.911778
C59	C	0.523385	-0.434352	0.354444
C60	C	1.023385	0.065648	0.854444
C61	C	0.295792	-0.492072	0.401480
C62	C	0.795792	0.007928	0.901480
C63	C	0.230352	-0.492043	0.401506
C64	C	0.730352	0.007957	0.901506
C65	C	0.216457	-0.376478	0.307593
C66	C	0.716457	0.123522	0.807593
C67	C	0.281895	-0.376501	0.307572
C68	C	0.781895	0.123499	0.807572
C69	C	0.321559	-0.434303	0.354516
C70	C	0.821559	0.065697	0.854516
C71	C	0.985731	-0.668660	0.382652
C72	C	1.485731	-0.168660	0.882652
C73	C	0.997810	-0.768910	0.394732
C74	C	1.497810	-0.268910	0.894732
C75	C	0.871712	-1.051802	0.268343
C76	C	1.371712	-0.551802	0.768343
C77	C	0.860360	-0.957612	0.256995
C78	C	1.360360	-0.457612	0.756995
C79	C	0.894721	-0.910432	0.291428
C80	C	1.394721	-0.410432	0.791428
C81	C	0.940437	-0.957451	0.337211
C82	C	1.440437	-0.457451	0.837211
C83	C	0.951787	-1.051650	0.348564
C84	C	1.451787	-0.551650	0.848564
C85	C	0.974796	-0.910280	0.371649
C86	C	1.474796	-0.410280	0.871649
C87	C	1.020512	-0.957299	0.417433
C88	C	1.520512	-0.457299	0.917433
C89	C	1.031860	-1.051489	0.428783
C90	C	1.531860	-0.551489	0.928783
C91	C	0.997498	-1.098669	0.394350
C92	C	1.497498	-0.598669	0.894350
C93	C	0.963447	-0.816081	0.360297
C94	C	1.463447	-0.316081	0.860297
C95	C	1.043522	-0.815929	0.440518
C96	C	1.543522	-0.315929	0.940518
C97	C	1.054874	-0.910119	0.451866
C98	C	1.554874	-0.410119	0.951866
C99	C	1.121048	-0.434276	0.354533
C100	C	1.621048	0.065724	0.854533
C101	C	1.190687	-0.434256	0.354562
C102	C	1.690687	0.065744	0.854562
C103	C	0.957666	-0.434365	0.517893
C104	C	1.457666	0.065635	1.017893
C105	C	0.957681	-0.434383	0.587537
C106	C	1.457681	0.065617	1.087537
C107	C	0.929437	-0.199071	0.326181
C108	C	1.429437	0.300929	0.826181
C109	C	0.917423	-0.098821	0.314128
C110	C	1.417423	0.401179	0.814128
C111	C	0.990835	-0.376694	0.613333
C112	C	1.490835	0.123306	1.113333
C113	C	0.990824	-0.376679	0.678767
C114	C	1.490824	0.123321	1.178767
C115	C	0.957667	-0.434369	0.718403
C116	C	1.457667	0.065631	1.218403
C117	C	0.924506	-0.492062	0.692600
C118	C	1.424506	0.007938	1.192600
C119	C	0.924513	-0.492069	0.627166
C120	C	1.424513	0.007931	1.127166
C121	C	0.962450	-0.515621	0.831850
C122	C	1.462450	-0.015621	1.331850
C123	C	0.962447	-0.515615	0.897282
C124	C	1.462447	-0.015615	1.397282
C125	C	0.957642	-0.434348	0.920222
C126	C	1.457642	0.065652	1.420222
C127	C	0.952852	-0.353084	0.877721
C128	C	1.452852	0.146916	1.377721
C129	C	0.952859	-0.353090	0.812287
C130	C	1.452859	0.146910	1.312287
C131	C	0.957656	-0.434368	0.789356
C132	C	1.457656	0.065632	1.289356
C133	C	0.990785	-0.376639	1.016968
C134	C	1.490785	0.123361	1.516968
C135	C	0.990769	-0.376623	1.082403
C136	C	1.490769	0.123377	1.582403
C137	C	0.924456	-0.492013	1.096235
C138	C	1.424456	0.007987	1.596235
C139	C	0.924468	-0.492021	1.030801
C140	C	1.424468	0.007979	1.530801
C141	C	0.957636	-0.434336	0.991171
C142	C	1.457636	0.065664	1.491171
C143	C	0.957602	-0.434309	1.191676
C144	C	1.457602	0.065691	1.691676
C145	C	0.957612	-0.434312	1.122035
C146	C	1.457612	0.065688	1.622035
H147	H	0.515632	-0.421193	0.250461
H148	H	1.015632	0.078807	0.750461
O149	O	1.026569	-0.314445	0.706607
O150	O	1.526569	0.185555	1.206607
H151	H	1.063272	-0.354798	0.741311
H152	H	1.563272	0.145202	1.241311
O153	O	0.914145	-0.765372	0.310917
O154	O	1.414145	-0.265372	0.810917
H155	H	0.937032	-0.722419	0.273901
H156	H	1.437032	-0.222419	0.773901
H157	H	0.897452	-0.538976	1.128506
H158	H	1.397452	-0.038976	1.628506
H159	H	0.209375	-0.539087	0.439749
H160	H	0.709375	-0.039087	0.939749
H161	H	0.396924	-0.421167	0.250501
H162	H	0.896924	0.078833	0.750501
O163	O	0.834659	-1.102699	0.231212
O164	O	1.334659	-0.602699	0.731212
H165	H	0.783309	-1.084708	0.239731
H166	H	1.283309	-0.584708	0.739731
O167	O	1.080597	-0.765059	0.477656
O168	O	1.580597	-0.265059	0.977656
H169	H	1.047374	-0.722169	0.504329
H170	H	1.547374	-0.222169	1.004329
O171	O	0.967631	-0.603282	0.807115
O172	O	1.467631	-0.103282	1.307115
H173	H	0.966825	-0.589635	0.754476
H174	H	1.466825	-0.089635	1.254476
H175	H	1.006740	-1.175367	0.403584
H176	H	1.506740	-0.675367	0.903584
O177	O	0.882483	-0.808841	0.279180
O178	O	1.382483	-0.308841	0.779180
H179	H	0.866798	-0.784001	0.323426
H180	H	1.366798	-0.284001	0.823426
H181	H	0.966351	-0.581786	0.931882
H182	H	1.466351	-0.081786	1.431882
H183	H	1.069082	-1.089769	0.466065
H184	H	1.569082	-0.589769	0.966065
O185	O	0.811066	-0.906898	0.207609
O186	O	1.311066	-0.406898	0.707609
H187	H	0.789086	-0.955527	0.185565
H188	H	1.289086	-0.455527	0.685565
O189	O	1.104172	-0.960834	0.501254
O190	O	1.604172	-0.460834	1.001254
H191	H	1.106284	-1.034257	0.503365
H192	H	1.606284	-0.534257	1.003365
O193	O	0.888712	-0.554239	1.002964
O194	O	1.388712	-0.054239	1.502964
H195	H	0.852004	-0.513864	0.968274
H196	H	1.352004	-0.013864	1.468274
H197	H	1.017842	-0.329721	0.581070
H198	H	1.517842	0.170279	1.081070
O199	O	0.173676	-0.314148	0.256962
O200	O	0.673676	0.185852	0.756962
H201	H	0.202589	-0.273973	0.224305
H202	H	0.702589	0.226027	0.724305
O203	O	0.947690	-0.265450	0.766445
O204	O	1.447690	0.234550	1.266445
H205	H	0.944345	-0.208934	0.793383
H206	H	1.444345	0.291066	1.293383
H207	H	1.017789	-0.329663	0.984699
H208	H	1.517789	0.170337	1.484699
H209	H	0.948940	-0.286908	0.896396
H210	H	1.448940	0.213092	1.396396
H211	H	0.587809	-0.329542	0.269243
H212	H	1.087809	0.170458	0.769243
H213	H	0.706525	-0.329562	0.269203
H214	H	1.206525	0.170438	0.769203
H215	H	0.897508	-0.539031	0.724876
H216	H	1.397508	-0.039031	1.224876
O217	O	1.026531	-0.314400	1.110231
O218	O	1.526531	0.185600	1.610231
H219	H	1.049600	-0.274299	1.071679
H220	H	1.549600	0.225701	1.571679
O221	O	0.888737	-0.554272	0.599335
O222	O	1.388737	-0.054272	1.099335
H223	H	0.865673	-0.594381	0.637886
H224	H	1.365673	-0.094381	1.137886
H225	H	0.328088	-0.539133	0.439707
H226	H	0.828088	-0.039133	0.939707
H227	H	0.613026	-0.539210	0.439614
H228	H	1.113026	-0.039210	0.939614
O229	O	0.742228	-0.554514	0.451982
O230	O	1.242228	-0.054514	0.951982
H231	H	0.713312	-0.594677	0.484645
H232	H	1.213312	-0.094677	0.984645
H233	H	0.400267	-0.447481	0.458477
H234	H	0.900267	0.052519	0.958477
O235	O	0.527879	-0.449425	0.473584
O236	O	1.027879	0.050575	0.973584
H237	H	0.523023	-0.513643	0.504624
H238	H	1.023023	-0.013643	1.004624
O239	O	0.309694	-0.314212	0.256910
O240	O	0.809694	0.185788	0.756910
H241	H	0.271120	-0.274035	0.224263
H242	H	0.771120	0.225965	0.724263
