data_functionalizedCrystal
_audit_creation_method	'MofGen! by Chris Wilmer'
_symmetry_space_group_name_H-M	'P1'
_symmetry_Int_Tables_number	1
_symmetry_cell_setting	triclinic
loop_
_symmetry_equiv_pos_as_xyz
  x,y,z
_cell_length_a	27.440280
_cell_length_b	21.606444
_cell_length_c	21.606444
_cell_angle_alpha	59.990220
_cell_angle_beta	89.994092
_cell_angle_gamma	59.997005
loop_
_atom_site_label
_atom_site_type_symbol
_atom_site_fract_x
_atom_site_fract_y
_atom_site_fract_z
Zr1	Zr	0.469500	0.677454	-0.081357
O2	O	0.391683	0.806596	-0.180201
O3	O	0.493355	0.548320	-0.051041
O4	O	0.493356	0.677453	-0.180184
O5	O	0.391681	0.677460	0.050795
O6	O	0.573558	0.677443	-0.180188
O7	O	0.391682	0.677463	-0.051058
O8	O	0.573556	0.446447	0.050825
O9	O	0.391683	0.908456	-0.180218
O10	O	0.563383	0.601424	-0.038133
O11	O	0.503529	0.601429	0.037882
O12	O	0.503530	0.753467	-0.114167
O13	O	0.443676	0.753473	-0.038152
Zr14	Zr	0.597412	0.677434	0.081081
Zr15	Zr	0.597413	0.677438	-0.081363
Zr16	Zr	0.469499	0.677450	0.081087
Zr17	Zr	0.469501	0.839909	-0.081384
Zr18	Zr	0.597412	0.514979	0.081108
O19	O	0.573558	0.806568	0.050765
O20	O	0.573559	0.806573	-0.180209
O21	O	0.391682	0.806590	0.050774
O22	O	0.675229	0.548292	0.179925
O23	O	0.675231	0.548297	-0.051049
O24	O	0.493354	0.548314	0.179933
O25	O	0.675231	0.677427	-0.051071
O26	O	0.573556	0.677434	0.179908
O27	O	0.493354	0.677444	0.179912
O28	O	0.675231	0.677425	0.050782
O29	O	0.493357	0.908443	-0.180223
O30	O	0.573555	0.446444	0.179947
O31	O	0.675229	0.446432	0.179942
O32	O	0.675230	0.446435	0.050821
O33	O	0.391683	0.908453	-0.051097
O34	O	0.493356	0.908440	-0.051101
O35	O	0.563382	0.601420	0.113891
O36	O	0.623236	0.601415	0.037877
O37	O	0.563384	0.753458	-0.038158
O38	O	0.503529	0.753464	0.037857
C39	C	0.533455	0.474237	-0.000104
C40	C	0.533455	0.405271	-0.000092
C41	C	0.489270	0.429012	-0.056218
C42	C	0.489271	0.364223	-0.056234
C43	C	0.533456	0.275693	-0.000120
C44	C	0.577646	0.251951	0.056008
C45	C	0.577646	0.316740	0.056020
C46	C	0.577646	-0.009335	0.055961
C47	C	0.577641	-0.074124	0.055946
C48	C	0.489271	0.038148	-0.056293
C49	C	0.489271	0.102936	-0.056281
C50	C	0.533462	0.079190	-0.000156
C51	C	0.533461	0.149442	-0.000140
C52	C	0.533456	0.205441	-0.000132
C53	C	0.373457	0.677464	-0.000131
C54	C	0.319154	0.677470	-0.000128
C55	C	-0.017543	0.677426	-0.056251
C56	C	-0.068561	0.677419	-0.056251
O57	O	-0.094936	0.677388	-0.103956
N58	N	-0.094079	0.677420	-0.000140
C59	C	-0.068573	0.677417	0.055979
O60	O	-0.094963	0.677416	0.103706
C61	C	-0.017554	0.677417	0.055982
C62	C	0.007958	0.677426	-0.000137
C63	C	0.007969	0.677433	-0.112365
C64	C	0.058983	0.677441	-0.112365
C65	C	0.084484	0.677441	-0.056251
C66	C	0.058972	0.677434	-0.000137
C67	C	0.007954	0.677409	0.112104
C68	C	0.058977	0.677408	0.112102
C69	C	0.084489	0.677416	0.055983
C70	C	0.135487	0.677442	0.055976
N71	N	0.161005	0.677442	-0.000135
C72	C	0.135504	0.677441	-0.056248
C73	C	-0.175717	0.677416	0.055969
C74	C	-0.226738	0.677422	0.055964
C75	C	-0.226722	0.677423	-0.056266
C76	C	-0.175702	0.677423	-0.056263
C77	C	-0.150199	0.677416	-0.000142
C78	C	0.242636	0.677459	-0.056245
C79	C	0.293653	0.677470	-0.056242
C80	C	0.293634	0.677465	0.055990
C81	C	0.242620	0.677458	0.055985
C82	C	0.217123	0.677452	-0.000136
O83	O	0.161896	0.677470	0.103659
O84	O	0.161904	0.677431	-0.103962
C85	C	0.693456	0.677424	-0.000145
C86	C	0.747758	0.677417	-0.000148
C87	C	0.533457	0.677449	-0.203331
C88	C	0.533458	0.677450	-0.272292
C89	C	0.533457	0.880650	-0.000172
C90	C	0.533457	0.949617	-0.000184
C91	C	0.577641	0.677446	-0.304693
C92	C	0.577643	0.677440	-0.369486
C93	C	0.533458	0.677444	-0.401880
C94	C	0.489272	0.677445	-0.369474
C95	C	0.489273	0.677445	-0.304679
C96	C	0.489267	0.677445	-0.630784
C97	C	0.489268	0.677447	-0.695585
C98	C	0.577637	0.677440	-0.695591
C99	C	0.577638	0.677440	-0.630796
C100	C	0.533454	0.677436	-0.598393
C101	C	0.533453	0.677441	-0.528136
C102	C	0.533456	0.677445	-0.472139
C103	C	0.533455	0.677439	0.203055
C104	C	0.533455	0.677437	0.272016
C105	C	0.693455	0.474217	-0.000111
C106	C	0.747757	0.405244	-0.000102
C107	C	0.533454	0.474232	0.203089
C108	C	0.533454	0.405264	0.272062
C109	C	0.693454	0.474212	0.203081
C110	C	0.747756	0.405238	0.272052
C111	C	0.373459	0.880675	-0.203357
C112	C	0.319157	0.949650	-0.272328
C113	C	0.373458	0.880670	-0.000165
C114	C	0.319155	0.949643	-0.000174
C115	C	0.533458	0.880655	-0.203365
C116	C	0.533459	0.949623	-0.272338
C117	C	0.742015	0.372858	-0.039781
C118	C	0.793033	0.308060	-0.039788
C119	C	0.849792	0.275643	-0.000111
C120	C	0.855533	0.308036	0.039569
C121	C	0.804516	0.372838	0.039571
C122	C	0.564696	0.372871	0.344135
C123	C	0.564693	0.308077	0.408949
C124	C	0.533451	0.275673	0.401688
C125	C	0.502205	0.308073	0.329607
C126	C	0.502204	0.372870	0.264795
C127	C	0.804505	0.372843	0.264763
C128	C	0.855532	0.308043	0.329562
C129	C	0.849809	0.275634	0.401650
C130	C	0.793053	0.308035	0.408938
C131	C	0.742028	0.372838	0.344139
C132	C	0.262407	0.982052	-0.265039
C133	C	0.211380	1.046872	-0.329838
C134	C	0.217104	1.079285	-0.401926
C135	C	0.273859	1.046880	-0.409214
C136	C	0.324885	0.982065	-0.344415
C137	C	0.324898	0.982036	0.039498
C138	C	0.273880	1.046853	0.039487
C139	C	0.217121	1.079271	-0.000192
C140	C	0.211380	1.046876	-0.039869
C141	C	0.262397	0.982065	-0.039861
C142	C	0.564707	0.982007	-0.265053
C143	C	0.564719	1.046801	-0.329854
C144	C	0.533479	1.079215	-0.401940
C145	C	0.502230	1.046825	-0.409224
C146	C	0.502222	0.982028	-0.344423
H147	H	0.613624	-0.146213	0.101643
H148	H	0.175550	1.132061	-0.454682
Cl149	Cl	0.533459	0.194211	0.483175
Cl150	Cl	0.281111	1.087561	0.089374
H151	H	0.901753	0.281633	0.071872
H152	H	0.476768	0.281680	0.323706
H153	H	0.476773	0.955668	-0.350366
Cl154	Cl	0.152990	1.160747	-0.000192
Cl155	Cl	0.785868	0.267281	0.499568
Cl156	Cl	0.433719	0.394076	-0.126793
Cl157	Cl	0.811716	0.413579	0.174146
H158	H	0.453289	0.175020	-0.101972
Cl159	Cl	0.633198	0.286891	0.126578
Cl160	Cl	0.091035	0.677397	0.182661
H161	H	0.278512	1.073279	-0.467915
H162	H	0.453286	0.677449	-0.721959
H163	H	0.901740	0.281669	0.323614
Cl164	Cl	0.462928	0.413579	0.174191
H165	H	0.371109	0.955646	0.071815
H166	H	0.453290	0.057477	-0.101996
Cl167	Cl	0.785802	0.267348	-0.089671
Cl168	Cl	0.604003	1.087512	-0.320680
H169	H	0.371091	0.955684	-0.350359
H170	H	0.891362	0.222867	0.454407
Cl171	Cl	0.462953	1.087592	-0.499853
Cl172	Cl	0.633196	-0.039197	0.126525
Cl173	Cl	0.670687	0.413549	0.353316
H174	H	0.314404	0.677469	0.101675
H175	H	0.257736	0.955665	-0.206347
Cl176	Cl	0.325722	0.677483	-0.126797
H177	H	0.453297	0.677443	-0.395851
H178	H	0.453295	0.677447	-0.278299
Cl179	Cl	0.140021	1.087636	-0.089744
Cl180	Cl	0.140038	1.087593	-0.320658
H181	H	0.613620	0.677449	-0.278324
Cl182	Cl	0.433721	0.677445	-0.590056
Cl183	Cl	0.255168	0.941345	-0.089734
H184	H	0.695803	0.399251	-0.072100
Cl185	Cl	0.603986	0.941270	-0.174438
H186	H	0.891328	0.222877	-0.000118
H187	H	0.453283	0.501096	-0.101905
H188	H	0.613624	0.179864	0.101694
Cl189	Cl	0.210591	0.677453	-0.126799
Cl190	Cl	0.811745	0.413537	0.089464
Cl191	Cl	0.603979	0.413592	0.353284
H192	H	0.079753	0.677444	-0.158060
H193	H	0.590140	0.281705	0.467634
Cl194	Cl	-0.024081	0.677433	-0.182917
H195	H	-0.154933	0.677429	-0.101959
H196	H	-0.247493	0.677421	-0.101956
H197	H	0.221843	0.677464	0.101676
H198	H	-0.247512	0.677429	0.101654
Cl199	Cl	0.633190	0.677434	-0.410218
Cl200	Cl	-0.143664	0.677418	0.126524
Cl201	Cl	-0.024107	0.677395	0.182658
H202	H	0.533491	1.131978	-0.454699
H203	H	0.613616	0.677441	-0.604424
H204	H	0.613616	0.677438	-0.721978
