data_functionalizedCrystal
_audit_creation_method	'MofGen! by Chris Wilmer'
_symmetry_space_group_name_H-M	'P1'
_symmetry_Int_Tables_number	1
_symmetry_cell_setting	triclinic
loop_
_symmetry_equiv_pos_as_xyz
  x,y,z
_cell_length_a	15.995292
_cell_length_b	15.995292
_cell_length_c	15.072220
_cell_angle_alpha	90.002061
_cell_angle_beta	89.986330
_cell_angle_gamma	83.468616
loop_
_atom_site_label
_atom_site_type_symbol
_atom_site_fract_x
_atom_site_fract_y
_atom_site_fract_z
O1	O	1.111004	0.107692	-0.073800
O2	O	0.867219	0.121071	-0.073796
O3	O	0.995801	-0.007511	-0.073799
O4	O	0.982422	0.236274	-0.073797
O5	O	0.995769	-0.007504	0.073766
O6	O	0.867187	0.121078	0.073769
O7	O	1.110972	0.107699	0.073765
Zn8	Zn	0.989075	0.114390	0.097196
Zn9	Zn	0.989116	0.114380	-0.097227
O10	O	0.982390	0.236281	0.073769
C11	C	0.836008	0.120530	-0.000013
C12	C	0.743055	0.118898	-0.000012
C13	C	0.995240	-0.038703	-0.000019
C14	C	0.993608	-0.131655	-0.000026
C15	C	0.405318	0.112896	-0.000022
C16	C	0.428611	0.205703	-0.000350
C17	C	0.525286	0.207467	-0.000014
C18	C	0.572873	0.115874	-0.000017
C19	C	0.543763	0.069479	0.084246
C20	C	0.446973	0.068362	0.084313
C21	C	0.447154	0.066459	-0.083496
C22	C	0.543646	0.069898	-0.084606
C23	C	0.667569	0.117552	-0.000012
C24	C	0.310622	0.111215	-0.000021
C25	C	0.987607	-0.469393	-0.000018
C26	C	1.080413	-0.446100	0.000310
C27	C	1.082177	-0.349424	-0.000025
C28	C	0.990584	-0.301837	-0.000021
C29	C	0.944204	-0.330933	-0.084284
C30	C	0.943086	-0.427723	-0.084352
C31	C	0.941155	-0.427572	0.083457
C32	C	0.944594	-0.331080	0.084568
C33	C	0.992263	-0.207141	-0.000026
C34	C	0.985926	-0.564088	-0.000019
C35	C	1.142183	0.108240	-0.000020
C36	C	1.235136	0.109873	-0.000027
C37	C	0.982951	0.267473	-0.000014
C38	C	0.984583	0.360426	-0.000013
N39	N	0.989052	0.114396	0.229885
N40	N	0.989146	0.114368	-0.229916
C41	C	0.989115	0.114377	0.589087
C42	C	0.920082	0.182948	0.551482
C43	C	0.920240	0.183198	0.448656
C44	C	0.989083	0.114386	0.410883
C45	C	1.076446	0.133450	0.448173
C46	C	1.076059	0.133938	0.551030
C47	C	0.971563	0.026539	0.551186
C48	C	0.969558	0.027125	0.448323
C49	C	0.989070	0.114390	0.310169
C50	C	0.989133	0.114375	0.689800
H51	H	0.400620	0.241472	-0.060779
H52	H	1.129032	0.085962	0.575904
N53	N	0.850667	-0.446079	0.084220
H54	H	0.839778	-0.481376	0.030787
H55	H	0.839486	-0.477746	0.140161
H56	H	1.016573	-0.026291	0.422613
N57	N	0.979639	-0.465003	0.168062
H58	H	1.027579	-0.509456	0.153133
H59	H	1.001515	-0.419251	0.204625
N60	N	0.586001	-0.019796	0.088408
H61	H	0.566366	-0.048415	0.143090
H62	H	0.570887	-0.051419	0.033783
H63	H	0.905293	0.012657	0.423952
N64	N	0.985682	-0.463264	-0.167781
H65	H	0.985387	-0.526368	-0.168658
H66	H	0.954481	-0.437839	-0.221333
H67	H	0.875040	-0.442259	-0.088167
N68	N	0.411422	0.110937	0.167747
H69	H	0.370186	0.161142	0.151418
H70	H	0.381659	0.069887	0.203552
H71	H	0.877739	-0.298096	0.089660
N72	N	0.834223	0.168160	0.415253
H73	H	0.795861	0.161310	0.467347
H74	H	0.810153	0.217705	0.378133
H75	H	1.021905	-0.024489	0.575503
N76	N	1.146121	0.069055	0.415770
H77	H	1.121665	0.026805	0.376510
H78	H	1.188268	0.098218	0.380879
N79	N	0.854923	-0.288710	-0.088438
H80	H	0.843657	-0.250221	-0.035612
H81	H	0.846798	-0.254780	-0.144913
N82	N	0.888994	0.002266	0.585577
H83	H	0.878976	-0.054272	0.560433
H84	H	0.891010	-0.001132	0.652466
H85	H	0.544318	0.243797	-0.060419
H86	H	1.092286	0.196779	0.422404
H87	H	0.399572	0.241279	0.059741
H88	H	0.543669	0.244027	0.060494
N89	N	0.427707	-0.021768	0.089379
H90	H	0.482069	-0.060597	0.091564
H91	H	0.393725	-0.029699	0.144611
H92	H	0.418834	0.095464	-0.147363
N93	N	0.833780	0.168164	0.584280
H94	H	0.838590	0.116876	0.623837
H95	H	0.808519	0.218892	0.618953
H96	H	1.091529	0.197997	0.575012
H97	H	0.931446	0.248382	0.424042
N98	N	0.570302	0.112157	0.167319
H99	H	0.601174	0.161534	0.150563
H100	H	0.518828	0.132663	0.203428
H101	H	0.931134	0.247765	0.577320
N102	N	0.568266	0.114629	-0.167182
H103	H	0.540585	0.174615	-0.166649
H104	H	0.631414	0.114407	-0.168798
N105	N	0.587332	-0.018660	-0.091358
H106	H	0.626863	-0.030284	-0.039446
H107	H	0.543965	-0.059879	-0.090640
N108	N	1.130281	-0.324237	0.079996
H109	H	1.189752	-0.353178	0.077815
H110	H	1.131461	-0.261241	0.079898
N111	N	0.428646	-0.024030	-0.084259
H112	H	0.393340	-0.034927	-0.030825
H113	H	0.396989	-0.035201	-0.140200
H114	H	0.978366	-0.312518	0.146905
N115	N	1.127787	-0.483181	0.080357
H116	H	1.089553	-0.515443	0.117185
H117	H	1.178121	-0.522451	0.060184
H118	H	1.116000	-0.475128	-0.059781
N119	N	1.130608	-0.325064	-0.080184
H120	H	1.102273	-0.342701	-0.135925
H121	H	1.131953	-0.262092	-0.080664
N122	N	0.986897	-0.304382	-0.167358
H123	H	1.036272	-0.273513	-0.150602
H124	H	1.007409	-0.355851	-0.203464
