data_functionalizedCrystal
_audit_creation_method	'MofGen! by Chris Wilmer'
_symmetry_space_group_name_H-M	'P1'
_symmetry_Int_Tables_number	1
_symmetry_cell_setting	triclinic
loop_
_symmetry_equiv_pos_as_xyz
  x,y,z
_cell_length_a	17.699083
_cell_length_b	10.654550
_cell_length_c	16.776229
_cell_angle_alpha	89.994543
_cell_angle_beta	89.998886
_cell_angle_gamma	83.883959
loop_
_atom_site_label
_atom_site_type_symbol
_atom_site_fract_x
_atom_site_fract_y
_atom_site_fract_z
O1	O	1.005088	0.158809	-0.066174
O2	O	0.784841	0.179470	-0.066200
O3	O	0.900029	-0.013689	-0.066184
O4	O	0.889901	0.351967	-0.066191
O5	O	0.900013	-0.013700	0.066393
O6	O	0.784826	0.179458	0.066376
O7	O	1.005073	0.158797	0.066402
Zn8	Zn	0.894947	0.169126	0.087439
Zn9	Zn	0.894967	0.169141	-0.087237
O10	O	0.889885	0.351955	0.066386
C11	C	0.756632	0.178724	0.000085
C12	C	0.672599	0.176503	0.000075
C13	C	0.624699	0.289883	0.000073
C14	C	0.545743	0.287788	0.000083
C15	C	0.514688	0.172313	0.000090
C16	C	0.562594	0.058924	0.000094
C17	C	0.641549	0.061020	0.000090
C18	C	0.244177	0.050470	0.000114
C19	C	0.165216	0.048383	0.000116
C20	C	0.148371	0.277239	0.000108
C21	C	0.227326	0.279334	0.000103
C22	C	0.275225	0.165946	0.000112
C23	C	0.360839	0.168219	0.000102
C24	C	0.429076	0.170039	0.000094
C25	C	0.899277	-0.060479	0.000103
C26	C	0.897052	-0.199884	0.000100
C27	C	0.964873	-0.280557	0.000111
C28	C	0.962778	-0.411541	0.000105
C29	C	0.825036	-0.381166	0.000082
C30	C	0.827132	-0.250185	0.000082
C31	C	1.034794	-0.230256	0.000129
C32	C	1.102620	-0.310930	0.000141
C33	C	1.100525	-0.441914	0.000135
C34	C	1.030603	-0.492224	0.000118
C35	C	1.033282	0.159543	0.000115
C36	C	1.117314	0.161764	0.000120
C37	C	0.890637	0.398746	0.000097
C38	C	0.892861	0.538151	0.000095
N39	N	0.894938	0.169114	0.206650
N40	N	0.894981	0.169143	-0.206448
C41	C	0.945959	0.083619	0.248374
C42	C	0.945963	0.083618	0.331826
C43	C	0.894950	0.169119	0.373553
C44	C	0.843923	0.254619	0.331822
C45	C	0.843916	0.254613	0.248372
C46	C	0.843951	0.254643	0.668370
C47	C	0.843964	0.254645	0.751826
C48	C	0.945998	0.083648	0.751824
C49	C	0.945991	0.083642	0.668374
C50	C	0.894962	0.169137	0.626651
C51	C	0.894957	0.169135	0.536162
C52	C	0.894958	0.169128	0.464040
H53	H	0.139935	-0.045657	0.000123
N54	N	0.788899	0.346830	0.376829
H55	H	0.818113	0.402378	0.411443
H56	H	0.756586	0.400905	0.337684
H57	H	0.802419	0.324273	0.785798
H58	H	0.987533	0.014023	0.634403
N59	N	1.001037	-0.008570	0.796825
H60	H	0.993303	0.004400	0.856023
H61	H	0.991833	-0.097643	0.782245
N62	N	0.788912	0.346844	0.623374
H63	H	0.756598	0.401008	0.662473
H64	H	0.818164	0.402306	0.588737
N65	N	0.529095	-0.065620	0.000111
H66	H	0.496711	-0.071590	-0.049033
H67	H	0.571461	-0.137061	0.000145
H68	H	1.155752	-0.507596	0.000136
N69	N	0.788882	0.346825	0.203371
H70	H	0.798061	0.435940	0.217881
H71	H	0.796641	0.333737	0.144188
H72	H	0.768109	-0.422140	0.000069
N73	N	0.494046	0.410042	0.000093
H74	H	0.460926	0.414220	0.049249
H75	H	0.525721	0.483483	0.000059
N76	N	0.753991	-0.163147	0.000093
H77	H	0.751794	-0.108111	-0.049050
H78	H	0.709414	-0.214959	0.000123
N79	N	1.000969	-0.008627	0.203375
H80	H	0.993222	0.004335	0.144177
H81	H	1.054739	0.005750	0.217948
N82	N	1.037056	-0.088983	0.000126
H83	H	0.983481	-0.045508	0.000114
H84	H	1.064623	-0.063508	0.049280
H85	H	0.649978	0.383916	0.000067
H86	H	0.252606	0.373366	0.000094
H87	H	0.109361	0.369564	0.000105
N88	N	0.295834	-0.071821	0.000129
H89	H	0.264178	-0.145288	0.000132
H90	H	0.328963	-0.075944	-0.049017
N91	N	0.693212	-0.061273	0.000096
H92	H	0.683156	-0.111665	-0.049047
H93	H	0.747921	-0.042324	0.000126
H94	H	1.028903	-0.598881	0.000104
N95	N	1.178031	-0.256676	0.000158
H96	H	1.169069	-0.161458	0.000164
H97	H	1.207727	-0.286218	0.049312
N98	N	1.001019	-0.008552	0.376830
H99	H	1.033347	-0.062697	0.337734
H100	H	1.034715	0.039512	0.411430
