data_functionalizedCrystal
_audit_creation_method	'MofGen! by Chris Wilmer'
_symmetry_space_group_name_H-M	'P1'
_symmetry_Int_Tables_number	1
_symmetry_cell_setting	triclinic
loop_
_symmetry_equiv_pos_as_xyz
  x,y,z
_cell_length_a	10.540539
_cell_length_b	9.065218
_cell_length_c	8.140239
_cell_angle_alpha	90.001686
_cell_angle_beta	89.999332
_cell_angle_gamma	95.229312
loop_
_atom_site_label
_atom_site_type_symbol
_atom_site_fract_x
_atom_site_fract_y
_atom_site_fract_z
O1	O	1.686653	-0.207930	-0.136529
O2	O	1.317312	-0.227521	-0.136548
O3	O	1.509617	-0.003045	-0.136535
O4	O	1.494349	-0.432406	-0.136542
O5	O	1.509606	-0.003042	0.136692
O6	O	1.317302	-0.227519	0.136679
O7	O	1.686642	-0.207927	0.136698
Zn8	Zn	1.501970	-0.217723	0.180069
Zn9	Zn	1.501984	-0.217726	-0.179919
O10	O	1.494338	-0.432404	0.136685
C11	C	1.269999	-0.226051	0.000063
C12	C	1.129034	-0.221655	0.000055
N13	N	1.501970	-0.217719	0.425752
C14	C	1.508144	0.051936	0.000076
C15	C	1.503757	0.215757	0.000068
C16	C	0.944985	-0.053221	0.000696
C17	C	1.091619	-0.057677	0.000063
C18	C	1.067660	-0.300570	-0.155966
C19	C	0.921094	-0.294973	-0.156080
C20	C	0.920606	-0.298306	0.154630
C21	C	1.067594	-0.299817	0.156675
C22	C	1.733956	-0.209398	0.000084
C23	C	1.874920	-0.213794	0.000081
C24	C	1.495811	-0.487384	0.000070
C25	C	1.500198	-0.651205	0.000068
N26	N	1.501995	-0.217718	-0.425602
H27	H	1.133999	0.004416	0.111906
H28	H	1.108338	-0.242167	0.272100
Cl29	Cl	1.155687	0.038441	-0.173205
Cl30	Cl	0.900467	0.046800	0.173449
Cl31	Cl	0.897981	0.046383	-0.171080
H32	H	0.892673	-0.236651	-0.272706
H33	H	0.873562	-0.412904	-0.163164
H34	H	1.092261	-0.419367	0.166094
Cl35	Cl	1.102895	-0.486477	-0.164975
Cl36	Cl	0.871601	-0.216366	0.337221
Cl37	Cl	1.133099	-0.215939	-0.335241
Cl38	Cl	0.848369	-0.481168	0.156257
