data_functionalizedCrystal
_audit_creation_method	'MofGen! by Chris Wilmer'
_symmetry_space_group_name_H-M	'P1'
_symmetry_Int_Tables_number	1
_symmetry_cell_setting	triclinic
loop_
_symmetry_equiv_pos_as_xyz
  x,y,z
_cell_length_a	23.532407
_cell_length_b	8.559649
_cell_length_c	7.681481
_cell_angle_alpha	94.930900
_cell_angle_beta	84.307441
_cell_angle_gamma	76.313671
loop_
_atom_site_label
_atom_site_type_symbol
_atom_site_fract_x
_atom_site_fract_y
_atom_site_fract_z
O1	O	-0.741120	-0.209300	-0.146206
O2	O	-0.574083	-0.237390	-0.146257
O3	O	-0.672318	0.009491	-0.146225
O4	O	-0.642885	-0.456182	-0.146237
O5	O	-0.684412	0.039946	0.146637
O6	O	-0.586177	-0.206935	0.146605
O7	O	-0.753214	-0.178845	0.146656
Zn8	Zn	-0.671616	-0.188055	0.193129
Zn9	Zn	-0.655681	-0.228181	-0.192729
O10	O	-0.654979	-0.425726	0.146624
C11	C	-0.558943	-0.221448	0.000168
C12	C	-0.495815	-0.219300	0.000148
C13	C	-0.680595	0.084283	0.000203
C14	C	-0.687234	0.261768	0.000196
C15	C	-0.768353	-0.194788	0.000228
C16	C	-0.831481	-0.196937	0.000236
C17	C	-0.091182	-0.351903	0.000224
C18	C	-0.031866	-0.349904	0.000235
O19	O	0.010005	-0.472829	0.000296
N20	N	-0.015363	-0.203135	0.000236
C21	C	-0.058182	-0.058354	0.000244
O22	O	-0.038698	0.066668	0.000248
C23	C	-0.117498	-0.060353	0.000246
C24	C	-0.133996	-0.207133	0.000227
C25	C	-0.107682	-0.498671	0.000207
C26	C	-0.166994	-0.500669	0.000193
C27	C	-0.209807	-0.355899	0.000196
C28	C	-0.193308	-0.209131	0.000213
C29	C	-0.160315	0.084429	0.000267
C30	C	-0.219634	0.082417	0.000270
C31	C	-0.236132	-0.064363	0.000251
C32	C	-0.295433	-0.066359	0.000202
N33	N	-0.311936	-0.213128	0.000201
C34	C	-0.269123	-0.357898	0.000198
C35	C	0.066386	-0.054167	0.000244
C36	C	0.125701	-0.052167	0.000229
C37	C	0.152013	-0.343718	0.000223
C38	C	0.092697	-0.345717	0.000225
C39	C	0.049883	-0.200935	0.000243
C40	C	-0.393684	-0.362084	0.000167
C41	C	-0.453002	-0.364070	0.000145
C42	C	-0.479309	-0.072519	0.000160
C43	C	-0.419995	-0.070533	0.000173
C44	C	-0.377183	-0.215328	0.000182
O45	O	-0.337336	0.056502	0.000148
O46	O	-0.288616	-0.482897	0.000218
C47	C	-0.646702	-0.500519	0.000192
C48	C	-0.640062	-0.678005	0.000188
N49	N	-0.682495	-0.160668	0.456466
N50	N	-0.644807	-0.255554	-0.456067
H51	H	-0.466430	-0.483601	0.000129
H52	H	-0.594598	0.237775	0.000180
H53	H	-0.732702	0.345999	0.000224
O54	O	-0.183103	-0.643121	0.000399
C55	C	-0.222886	-0.637266	0.152082
H56	H	-0.245288	-0.505747	0.202672
H57	H	-0.257616	-0.703914	0.117942
H58	H	-0.197925	-0.697402	0.258285
H59	H	-0.606336	-0.352404	0.468724
H60	H	-0.720972	-0.063824	0.531685
H61	H	-0.072828	-0.616566	0.000211
O62	O	-0.352173	-0.502891	0.000085
C63	C	-0.379468	-0.632840	0.000107
H64	H	-0.423315	-0.597268	-0.055334
H65	H	-0.349619	-0.743060	-0.084932
H66	H	-0.387540	-0.663275	0.140601
H67	H	0.079269	-0.465237	0.000220
O68	O	0.193670	-0.484273	-0.000003
C69	C	0.235030	-0.507628	-0.151696
H70	H	0.234578	-0.386022	-0.202263
H71	H	0.280900	-0.564356	-0.117577
H72	H	0.223057	-0.591391	-0.257907
O73	O	0.141662	0.090489	-0.000008
C74	C	0.125445	0.162883	-0.151706
H75	H	0.088214	0.114706	-0.202284
H76	H	0.109962	0.299717	-0.117591
H77	H	0.165044	0.132768	-0.257909
O78	O	-0.144363	0.227093	0.000065
C79	C	-0.160586	0.299508	-0.151617
H80	H	-0.197814	0.251322	-0.202206
H81	H	-0.176076	0.436338	-0.117476
H82	H	-0.120988	0.269422	-0.257821
O83	O	0.024756	0.086353	-0.000004
C84	C	-0.004061	0.078167	-0.151706
H85	H	0.000559	-0.053955	-0.202267
H86	H	-0.052749	0.142024	-0.117602
H87	H	0.016702	0.139811	-0.257916
H88	H	-0.254492	0.200319	0.000285
H89	H	-0.406561	0.048985	0.000162
H90	H	-0.514177	0.045348	0.000156
