data_functionalizedCrystal
_audit_creation_method	'MofGen! by Chris Wilmer'
_symmetry_space_group_name_H-M	'P1'
_symmetry_Int_Tables_number	1
_symmetry_cell_setting	triclinic
loop_
_symmetry_equiv_pos_as_xyz
  x,y,z
_cell_length_a	16.974885
_cell_length_b	16.956995
_cell_length_c	16.053942
_cell_angle_alpha	92.381106
_cell_angle_beta	83.790486
_cell_angle_gamma	79.731237
loop_
_atom_site_label
_atom_site_type_symbol
_atom_site_fract_x
_atom_site_fract_y
_atom_site_fract_z
O1	O	1.042542	0.101564	-0.000950
O2	O	1.542542	0.601564	0.499050
O3	O	0.810692	0.115274	0.014703
O4	O	1.310692	0.615274	0.514703
O5	O	0.940546	-0.007721	0.005933
O6	O	1.440546	0.492279	0.505933
O7	O	0.912689	0.224559	0.007820
O8	O	1.412689	0.724559	0.507820
O9	O	0.947654	-0.014467	-0.133403
O10	O	1.447654	0.485533	0.366597
O11	O	0.817801	0.108528	-0.124634
O12	O	1.317801	0.608528	0.375366
O13	O	1.049651	0.094818	-0.140286
O14	O	1.549651	0.594818	0.359714
Zn15	Zn	0.934854	0.100602	-0.154582
Zn16	Zn	1.434854	0.600602	0.345418
Zn17	Zn	0.925489	0.109490	0.028999
Zn18	Zn	1.425489	0.609490	0.528999
O19	O	0.919797	0.217813	-0.131516
O20	O	1.419797	0.717813	0.368484
C21	C	0.784719	0.111506	-0.052972
C22	C	1.284719	0.611506	0.447028
C23	C	0.696736	0.110318	-0.047032
C24	C	1.196736	0.610318	0.452968
C25	C	0.201073	0.104008	-0.005388
C26	C	0.701073	0.604008	0.494612
C27	C	0.283743	0.105123	-0.010980
C28	C	0.783743	0.605123	0.489020
C29	C	0.328943	0.102009	-0.089729
C30	C	0.828943	0.602009	0.410271
C31	C	0.291472	0.097772	-0.162890
C32	C	0.791472	0.597772	0.337110
C33	C	0.208805	0.096651	-0.157297
C34	C	0.708805	0.596651	0.342703
C35	C	0.576597	0.104961	-0.114601
C36	C	1.076597	0.604961	0.385399
C37	C	0.659269	0.106084	-0.120188
C38	C	1.159269	0.606084	0.379812
C39	C	0.651535	0.113433	0.031723
C40	C	1.151535	0.613433	0.531723
C41	C	0.568866	0.112317	0.037309
C42	C	1.068866	0.612317	0.537309
C43	C	0.531402	0.108076	-0.035852
C44	C	1.031402	0.608076	0.464148
N45	N	0.413445	0.103151	-0.095447
N46	N	0.913445	0.603151	0.404553
N47	N	0.446904	0.106929	-0.030134
N48	N	0.946904	0.606929	0.469866
C49	C	0.945526	-0.040808	-0.063830
C50	C	1.445526	0.459192	0.436170
C51	C	0.949766	-0.129347	-0.064114
C52	C	1.449766	0.370653	0.435886
C53	C	1.075624	0.098586	-0.072609
C54	C	1.575624	0.598586	0.427391
C55	C	1.163607	0.099774	-0.078544
C56	C	1.663607	0.599774	0.421456
C57	C	0.981488	-0.628787	-0.066252
C58	C	1.481488	-0.128787	0.433748
C59	C	0.977498	-0.545594	-0.065988
C60	C	1.477498	-0.045594	0.434012
C61	C	0.902595	-0.494177	-0.060927
C62	C	1.402595	0.005823	0.439073
C63	C	0.831678	-0.525956	-0.056139
C64	C	1.331678	-0.025956	0.443861
C65	C	0.835669	-0.609148	-0.056410
C66	C	1.335669	-0.109148	0.443590
C67	C	0.882840	-0.244318	-0.059596
C68	C	1.382840	0.255682	0.440404
C69	C	0.878854	-0.161121	-0.059324
C70	C	1.378854	0.338879	0.440676
C71	C	1.024675	-0.180765	-0.069174
C72	C	1.524675	0.319235	0.430826
C73	C	1.028660	-0.263957	-0.069439
C74	C	1.528660	0.236043	0.430561
C75	C	0.957743	-0.295729	-0.064655
C76	C	1.457743	0.204271	0.435345
N77	N	0.898514	-0.409141	-0.060654
N78	N	1.398514	0.090859	0.439346
N79	N	0.961825	-0.380765	-0.064934
N80	N	1.461825	0.119235	0.435066
C81	C	0.914817	0.250900	-0.061751
C82	C	1.414817	0.750900	0.438249
C83	C	0.910576	0.339439	-0.061462
C84	C	1.410576	0.839439	0.438538
N85	N	0.941252	0.094536	-0.279872
N86	N	1.441252	0.594536	0.220128
C87	C	0.974359	0.063235	-0.805728
C88	C	1.474359	0.563235	-0.305728
C89	C	0.969865	0.067488	-0.718019
C90	C	1.469865	0.567488	-0.218019
C91	C	0.910105	0.124053	-0.670296
C92	C	1.410105	0.624053	-0.170296
C93	C	0.854841	0.176374	-0.710285
C94	C	1.354841	0.676374	-0.210285
C95	C	0.859339	0.172123	-0.797993
C96	C	1.359339	0.672123	-0.297993
C97	C	0.890487	0.142606	-0.407569
C98	C	1.390487	0.642606	0.092431
C99	C	0.885991	0.146851	-0.319856
C100	C	1.385991	0.646851	0.180144
C101	C	1.001016	0.037966	-0.327596
C102	C	1.501016	0.537966	0.172404
C103	C	1.005506	0.033717	-0.415304
C104	C	1.505506	0.533717	0.084696
C105	C	0.950245	0.086040	-0.455286
C106	C	1.450245	0.586040	0.044714
N107	N	0.905508	0.128401	-0.580643
N108	N	1.405508	0.628401	-0.080643
N109	N	0.954846	0.081696	-0.544937
N110	N	1.454846	0.581696	-0.044937
N111	N	0.919098	0.115549	0.154288
N112	N	1.419098	0.615549	0.654288
H113	H	0.682047	0.116885	0.091287
H114	H	1.182047	0.616885	0.591287
C115	C	0.820205	0.209035	-0.267358
C116	C	1.320205	0.709035	0.232642
N117	N	0.770642	0.255852	-0.227816
N118	N	1.270642	0.755852	0.272184
C119	C	1.030653	0.009933	-0.674041
C120	C	1.530653	0.509933	-0.174041
N121	N	1.076442	-0.033420	-0.640918
N122	N	1.576442	0.466580	-0.140918
H123	H	0.164275	0.106549	0.058739
H124	H	0.664275	0.606549	0.558739
C125	C	0.341189	0.094380	-0.249515
C126	C	0.841189	0.594380	0.250485
N127	N	0.378632	0.091841	-0.314762
N128	N	0.878632	0.591841	0.185238
H129	H	1.023019	0.017170	-0.844579
H130	H	1.523019	0.517170	-0.344579
H131	H	0.314245	0.108566	0.048592
H132	H	0.814245	0.608566	0.548592
H133	H	1.042483	-0.670645	-0.070366
H134	H	1.542483	-0.170645	0.429634
C135	C	0.798546	0.229672	-0.841974
C136	C	1.298546	0.729672	-0.341974
N137	N	0.752755	0.273021	-0.875099
N138	N	1.252755	0.773021	-0.375099
H139	H	0.845489	0.185208	-0.440115
H140	H	1.345489	0.685208	0.059885
C141	C	0.789104	0.238596	-0.657786
C142	C	1.289104	0.738596	-0.157786
N143	N	0.739587	0.285460	-0.618244
N144	N	1.239587	0.785460	-0.118244
H145	H	0.825094	-0.270176	-0.055691
H146	H	1.325094	0.229824	0.444309
H147	H	0.770690	-0.484086	-0.052024
H148	H	1.270690	0.015914	0.447976
H149	H	1.054168	-0.012342	-0.454159
H150	H	1.554168	0.487658	0.045841
H151	H	0.696069	0.103554	-0.184318
H152	H	1.196069	0.603554	0.315682
H153	H	1.046008	-0.004632	-0.295034
H154	H	1.546008	0.495368	0.204966
H155	H	1.089654	-0.305816	-0.073563
H156	H	1.589654	0.194184	0.426437
C157	C	0.519154	0.115730	0.123939
C158	C	1.019154	0.615730	0.623939
N159	N	0.481711	0.118298	0.189190
N160	N	0.981711	0.618298	0.689190
H161	H	0.546107	0.101496	-0.174174
H162	H	1.046107	0.601496	0.325826
C163	C	1.055507	-0.510647	-0.071258
C164	C	1.555507	-0.010647	0.428742
N165	N	1.114268	-0.484326	-0.075228
N166	N	1.614268	0.015674	0.424772
C167	C	0.167592	0.091997	-0.237775
C168	C	0.667592	0.591997	0.262225
N169	N	0.136551	0.088489	-0.298393
N170	N	0.636551	0.588489	0.201607
C171	C	0.796452	-0.104564	-0.053768
C172	C	1.296452	0.395436	0.446232
N173	N	0.734389	-0.061965	-0.049586
N174	N	1.234389	0.438035	0.450414
C175	C	1.102679	-0.145809	-0.074448
C176	C	1.602679	0.354191	0.425552
N177	N	1.161435	-0.119480	-0.078426
N178	N	1.661435	0.380520	0.421574
C179	C	0.757660	-0.644098	-0.051137
C180	C	1.257660	-0.144098	0.448863
N181	N	0.698901	-0.670421	-0.047168
N182	N	1.198901	-0.170421	0.452832
