data_functionalizedCrystal
_audit_creation_method	'MofGen! by Chris Wilmer'
_symmetry_space_group_name_H-M	'P1'
_symmetry_Int_Tables_number	1
_symmetry_cell_setting	triclinic
loop_
_symmetry_equiv_pos_as_xyz
  x,y,z
_cell_length_a	22.610064
_cell_length_b	23.532407
_cell_length_c	23.532407
_cell_angle_alpha	82.848678
_cell_angle_beta	89.981742
_cell_angle_gamma	90.003678
loop_
_atom_site_label
_atom_site_type_symbol
_atom_site_fract_x
_atom_site_fract_y
_atom_site_fract_z
O1	O	0.049117	-0.755256	-0.069142
O2	O	0.299117	-0.505256	0.180858
O3	O	0.549117	-0.255256	0.430858
O4	O	0.799117	-0.005256	0.680858
O5	O	0.049135	-0.589393	-0.079146
O6	O	0.299135	-0.339393	0.170854
O7	O	0.549135	-0.089393	0.420854
O8	O	0.799135	0.160607	0.670854
O9	O	0.049114	-0.677326	0.008788
O10	O	0.299114	-0.427326	0.258788
O11	O	0.549114	-0.177326	0.508788
O12	O	0.799114	0.072674	0.758788
O13	O	0.049137	-0.667323	-0.157076
O14	O	0.299137	-0.417323	0.092924
O15	O	0.549137	-0.167323	0.342924
O16	O	0.799137	0.082677	0.592924
O17	O	-0.049255	-0.677325	0.008806
O18	O	0.200745	-0.427325	0.258806
O19	O	0.450745	-0.177325	0.508806
O20	O	0.700745	0.072675	0.758806
O21	O	-0.049234	-0.589392	-0.079128
O22	O	0.200766	-0.339392	0.170872
O23	O	0.450766	-0.089392	0.420872
O24	O	0.700766	0.160608	0.670872
O25	O	-0.049252	-0.755255	-0.069124
O26	O	0.200748	-0.505255	0.180876
O27	O	0.450748	-0.255255	0.430876
O28	O	0.700748	-0.005255	0.680876
Zn29	Zn	-0.064862	-0.672323	-0.074123
Zn30	Zn	0.185138	-0.422323	0.175877
Zn31	Zn	0.435138	-0.172323	0.425877
Zn32	Zn	0.685138	0.077677	0.675877
Zn33	Zn	0.064744	-0.672325	-0.074147
Zn34	Zn	0.314744	-0.422325	0.175853
Zn35	Zn	0.564744	-0.172325	0.425853
Zn36	Zn	0.814744	0.077675	0.675853
O37	O	-0.049232	-0.667322	-0.157058
O38	O	0.200768	-0.417322	0.092942
O39	O	0.450768	-0.167322	0.342942
O40	O	0.700768	0.082678	0.592942
C41	C	-0.000048	-0.568176	-0.078882
C42	C	0.249952	-0.318176	0.171118
C43	C	0.499952	-0.068176	0.421118
C44	C	0.749952	0.181824	0.671118
C45	C	-0.000041	-0.504959	-0.078116
C46	C	0.249959	-0.254959	0.171884
C47	C	0.499959	-0.004959	0.421884
C48	C	0.749959	0.245041	0.671884
N49	N	-0.153314	-0.672327	-0.074106
N50	N	0.096686	-0.422327	0.175894
N51	N	0.346686	-0.172327	0.425894
N52	N	0.596686	0.077673	0.675894
N53	N	0.153196	-0.672326	-0.074159
N54	N	0.403196	-0.422326	0.175841
N55	N	0.653196	-0.172326	0.425841
N56	N	0.903196	0.077674	0.675841
C57	C	0.438041	-0.706606	-0.108573
C58	C	0.688041	-0.456606	0.141427
C59	C	0.938041	-0.206606	0.391427
C60	C	1.188041	0.043394	0.641427
C61	C	0.376122	-0.706606	-0.108577
C62	C	0.626122	-0.456606	0.141423
C63	C	0.876122	-0.206606	0.391423
C64	C	1.126122	0.043394	0.641423
O65	O	0.344100	-0.735764	-0.137852
O66	O	0.594100	-0.485764	0.112148
O67	O	0.844100	-0.235764	0.362148
O68	O	1.094100	0.014236	0.612148
N69	N	0.345149	-0.672335	-0.074141
N70	N	0.595149	-0.422335	0.175859
N71	N	0.845149	-0.172335	0.425859
N72	N	1.095149	0.077665	0.675859
C73	C	0.376099	-0.638065	-0.039695
C74	C	0.626099	-0.388065	0.210305
C75	C	0.876099	-0.138065	0.460305
C76	C	1.126099	0.111935	0.710305
O77	O	0.344069	-0.608915	-0.010405
O78	O	0.594069	-0.358915	0.239595
O79	O	0.844069	-0.108915	0.489595
O80	O	1.094069	0.141085	0.739595
C81	C	0.438018	-0.638068	-0.039689
C82	C	0.688018	-0.388068	0.210311
C83	C	0.938018	-0.138068	0.460311
C84	C	1.188018	0.111932	0.710311
C85	C	0.468987	-0.672338	-0.074131
C86	C	0.718987	-0.422338	0.175869
C87	C	0.968987	-0.172338	0.425869
C88	C	1.218987	0.077662	0.675869
C89	C	0.469011	-0.740873	-0.143012
C90	C	0.719011	-0.490873	0.106988
C91	C	0.969011	-0.240873	0.356988
C92	C	1.219011	0.009127	0.606988
C93	C	0.530927	-0.740872	-0.143009
C94	C	0.780927	-0.490872	0.106991
C95	C	1.030927	-0.240872	0.356991
C96	C	1.280927	0.009128	0.606991
C97	C	0.561873	-0.706603	-0.108567
C98	C	0.811873	-0.456603	0.141433
C99	C	1.061873	-0.206603	0.391433
C100	C	1.311873	0.043397	0.641433
C101	C	0.530903	-0.672336	-0.074128
C102	C	0.780903	-0.422336	0.175872
C103	C	1.030903	-0.172336	0.425872
C104	C	1.280903	0.077664	0.675872
C105	C	0.468967	-0.603802	-0.005240
C106	C	0.718967	-0.353802	0.244760
C107	C	0.968967	-0.103802	0.494760
C108	C	1.218967	0.146198	0.744760
C109	C	0.530890	-0.603809	-0.005237
C110	C	0.780890	-0.353809	0.244763
C111	C	1.030890	-0.103809	0.494763
C112	C	1.280890	0.146191	0.744763
C113	C	0.561860	-0.638078	-0.039679
C114	C	0.811860	-0.388078	0.210321
C115	C	1.061860	-0.138078	0.460321
C116	C	1.311860	0.111922	0.710321
C117	C	0.623765	-0.638067	-0.039683
C118	C	0.873765	-0.388067	0.210317
C119	C	1.123765	-0.138067	0.460317
C120	C	1.373765	0.111933	0.710317
N121	N	0.654738	-0.672338	-0.074119
N122	N	0.904738	-0.422338	0.175881
N123	N	1.154738	-0.172338	0.425881
N124	N	1.404738	0.077662	0.675881
C125	C	0.623791	-0.706607	-0.108561
C126	C	0.873791	-0.456607	0.141439
C127	C	1.123791	-0.206607	0.391439
C128	C	1.373791	0.043393	0.641439
C129	C	0.246066	-0.638062	-0.039710
C130	C	0.496066	-0.388062	0.210290
C131	C	0.746066	-0.138062	0.460290
C132	C	0.996066	0.111938	0.710290
C133	C	0.184148	-0.638055	-0.039719
C134	C	0.434148	-0.388055	0.210281
C135	C	0.684148	-0.138055	0.460281
C136	C	0.934148	0.111945	0.710281
C137	C	0.184175	-0.706597	-0.108600
C138	C	0.434175	-0.456597	0.141400
C139	C	0.684175	-0.206597	0.391400
C140	C	0.934175	0.043403	0.641400
C141	C	0.246093	-0.706600	-0.108594
C142	C	0.496093	-0.456600	0.141406
C143	C	0.746093	-0.206600	0.391406
C144	C	0.996093	0.043400	0.641406
C145	C	0.277038	-0.672333	-0.074146
C146	C	0.527038	-0.422333	0.175854
C147	C	0.777038	-0.172333	0.425854
C148	C	1.027038	0.077667	0.675854
C149	C	0.753819	-0.706601	-0.108553
C150	C	1.003819	-0.456601	0.141447
C151	C	1.253819	-0.206601	0.391447
C152	C	1.503819	0.043399	0.641447
C153	C	0.815740	-0.706595	-0.108548
C154	C	1.065740	-0.456595	0.141452
C155	C	1.315740	-0.206595	0.391452
C156	C	1.565740	0.043405	0.641452
C157	C	0.815708	-0.638056	-0.039665
C158	C	1.065708	-0.388056	0.210335
C159	C	1.315708	-0.138056	0.460335
C160	C	1.565708	0.111944	0.710335
C161	C	0.753792	-0.638059	-0.039672
C162	C	1.003792	-0.388059	0.210328
C163	C	1.253792	-0.138059	0.460328
C164	C	1.503792	0.111941	0.710328
C165	C	0.722849	-0.672336	-0.074117
C166	C	0.972849	-0.422336	0.175883
C167	C	1.222849	-0.172336	0.425883
C168	C	1.472849	0.077664	0.675883
O169	O	0.655825	-0.608926	-0.010421
O170	O	0.905825	-0.358926	0.239579
O171	O	1.155825	-0.108926	0.489579
O172	O	1.405825	0.141074	0.739579
O173	O	0.655829	-0.735758	-0.137841
O174	O	0.905829	-0.485758	0.112159
O175	O	1.155829	-0.235758	0.362159
O176	O	1.405829	0.014242	0.612159
C177	C	-0.000072	-0.677071	0.030013
C178	C	0.249928	-0.427071	0.280013
C179	C	0.499928	-0.177071	0.530013
C180	C	0.749928	0.072929	0.780013
C181	C	-0.000076	-0.676305	0.093230
C182	C	0.249924	-0.426305	0.343230
C183	C	0.499924	-0.176305	0.593230
C184	C	0.749924	0.073695	0.843230
C185	C	-0.000069	-0.776472	-0.069388
C186	C	0.249931	-0.526472	0.180612
C187	C	0.499931	-0.276472	0.430612
C188	C	0.749931	-0.026472	0.680612
C189	C	-0.000071	-0.839689	-0.070154
C190	C	0.249929	-0.589689	0.179846
C191	C	0.499929	-0.339689	0.429846
C192	C	0.749929	-0.089689	0.679846
C193	C	-0.000061	-0.105856	-0.125350
C194	C	0.249939	0.144144	0.124650
C195	C	0.499939	0.394144	0.374650
C196	C	0.749939	0.644144	0.624650
C197	C	-0.000065	-0.046456	-0.124638
C198	C	0.249935	0.203544	0.125362
C199	C	0.499935	0.453544	0.375362
C200	C	0.749935	0.703544	0.625362
O201	O	-0.000081	-0.009711	-0.168424
O202	O	0.249919	0.240289	0.081576
O203	O	0.499919	0.490289	0.331576
O204	O	0.749919	0.740289	0.581576
N205	N	-0.000071	-0.023830	-0.072362
N206	N	0.249929	0.226170	0.177638
N207	N	0.499929	0.476170	0.427638
N208	N	0.749929	0.726170	0.677638
C209	C	-0.000080	-0.060607	-0.020794
C210	C	0.249920	0.189393	0.229206
C211	C	0.499920	0.439393	0.479206
C212	C	0.749920	0.689393	0.729206
O213	O	-0.000086	-0.035908	0.023737
O214	O	0.249914	0.214092	0.273737
O215	O	0.499914	0.464092	0.523737
O216	O	0.749914	0.714092	0.773737
C217	C	-0.000080	-0.120006	-0.021506
C218	C	0.249920	0.129994	0.228494
C219	C	0.499920	0.379994	0.478494
C220	C	0.749920	0.629994	0.728494
C221	C	-0.000068	-0.142629	-0.073785
C222	C	0.249932	0.107371	0.176215
C223	C	0.499932	0.357371	0.426215
C224	C	0.749932	0.607371	0.676215
C225	C	-0.000050	-0.128479	-0.177625
C226	C	0.249950	0.121521	0.072375
C227	C	0.499950	0.371521	0.322375
C228	C	0.749950	0.621521	0.572375
C229	C	-0.000045	-0.187876	-0.178336
C230	C	0.249955	0.062124	0.071664
C231	C	0.499955	0.312124	0.321664
C232	C	0.749955	0.562124	0.571664
C233	C	-0.000052	-0.224649	-0.126772
C234	C	0.249948	0.025351	0.123228
C235	C	0.499948	0.275351	0.373228
C236	C	0.749948	0.525351	0.623228
C237	C	-0.000063	-0.202025	-0.074496
C238	C	0.249937	0.047975	0.175504
C239	C	0.499937	0.297975	0.425504
C240	C	0.749937	0.547975	0.675504
C241	C	-0.000093	-0.156783	0.030062
C242	C	0.249907	0.093217	0.280062
C243	C	0.499907	0.343217	0.530062
C244	C	0.749907	0.593217	0.780062
C245	C	-0.000094	-0.216185	0.029345
C246	C	0.249906	0.033815	0.279345
C247	C	0.499906	0.283815	0.529345
C248	C	0.749906	0.533815	0.779345
C249	C	-0.000082	-0.238808	-0.022934
C250	C	0.249918	0.011192	0.227066
C251	C	0.499918	0.261192	0.477066
C252	C	0.749918	0.511192	0.727066
C253	C	-0.000065	-0.298194	-0.023643
C254	C	0.249935	-0.048194	0.226357
C255	C	0.499935	0.201806	0.476357
C256	C	0.749935	0.451806	0.726357
N257	N	-0.000059	-0.320820	-0.075920
N258	N	0.249941	-0.070820	0.174080
N259	N	0.499941	0.179180	0.424080
N260	N	0.749941	0.429180	0.674080
C261	C	-0.000052	-0.284048	-0.127484
C262	C	0.249948	-0.034048	0.122516
C263	C	0.499948	0.215952	0.372516
C264	C	0.749948	0.465952	0.622516
C265	C	-0.000080	0.064135	-0.019302
C266	C	0.249920	0.314135	0.230698
C267	C	0.499920	0.564135	0.480698
C268	C	0.749920	0.814135	0.730698
C269	C	-0.000075	0.123533	-0.018589
C270	C	0.249925	0.373533	0.231411
C271	C	0.499925	0.623533	0.481411
C272	C	0.749925	0.873533	0.731411
C273	C	-0.000061	0.137680	-0.122434
C274	C	0.249939	0.387680	0.127566
C275	C	0.499939	0.637680	0.377566
C276	C	0.749939	0.887680	0.627566
C277	C	-0.000062	0.078281	-0.123146
C278	C	0.249938	0.328281	0.126854
C279	C	0.499938	0.578281	0.376854
C280	C	0.749938	0.828281	0.626854
C281	C	-0.000074	0.041509	-0.071578
C282	C	0.249926	0.291509	0.178422
C283	C	0.499926	0.541509	0.428422
C284	C	0.749926	0.791509	0.678422
C285	C	-0.000042	-0.408784	-0.128974
C286	C	0.249958	-0.158784	0.121026
C287	C	0.499958	0.091216	0.371026
C288	C	0.749958	0.341216	0.621026
C289	C	-0.000034	-0.468186	-0.129680
C290	C	0.249966	-0.218186	0.120320
C291	C	0.499966	0.031814	0.370320
C292	C	0.749966	0.281814	0.620320
C293	C	-0.000051	-0.482329	-0.025836
C294	C	0.249949	-0.232329	0.224164
C295	C	0.499949	0.017671	0.474164
C296	C	0.749949	0.267671	0.724164
C297	C	-0.000055	-0.422932	-0.025129
C298	C	0.249945	-0.172932	0.224871
C299	C	0.499945	0.077068	0.474871
C300	C	0.749945	0.327068	0.724871
C301	C	-0.000052	-0.386160	-0.076702
C302	C	0.249948	-0.136160	0.173298
C303	C	0.499948	0.113840	0.423298
C304	C	0.749948	0.363840	0.673298
O305	O	-0.000052	-0.334974	0.020119
O306	O	0.249948	-0.084974	0.270119
O307	O	0.499948	0.165026	0.520119
O308	O	0.749948	0.415026	0.770119
O309	O	-0.000054	-0.308755	-0.172007
O310	O	0.249946	-0.058755	0.077993
O311	O	0.499946	0.191245	0.327993
O312	O	0.749946	0.441245	0.577993
C313	C	-0.000045	-0.667577	-0.178283
C314	C	0.249955	-0.417577	0.071717
C315	C	0.499955	-0.167577	0.321717
C316	C	0.749955	0.082423	0.571717
C317	C	-0.000036	-0.668343	-0.241500
C318	C	0.249964	-0.418343	0.008500
C319	C	0.499964	-0.168343	0.258500
C320	C	0.749964	0.081657	0.508500
C321	C	-0.000049	-0.723539	0.492333
C322	C	0.249951	-0.473539	0.742333
C323	C	0.499951	-0.223539	0.992333
C324	C	0.749951	0.026461	1.242333
C325	C	-0.000044	-0.722827	0.551733
C326	C	0.249956	-0.472827	0.801733
C327	C	0.499956	-0.222827	1.051733
C328	C	0.749956	0.027173	1.301733
O329	O	-0.000027	-0.766613	0.588478
O330	O	0.249973	-0.516613	0.838478
O331	O	0.499973	-0.266613	1.088478
O332	O	0.749973	-0.016613	1.338478
N333	N	-0.000039	-0.670551	0.574359
N334	N	0.249961	-0.420551	0.824359
N335	N	0.499961	-0.170551	1.074359
N336	N	0.749961	0.079449	1.324359
C337	C	-0.000032	-0.618983	0.537582
C338	C	0.249968	-0.368983	0.787582
C339	C	0.499968	-0.118983	1.037582
C340	C	0.749968	0.131017	1.287582
O341	O	-0.000027	-0.574452	0.562281
O342	O	0.249973	-0.324452	0.812281
O343	O	0.499973	-0.074452	1.062281
O344	O	0.749973	0.175548	1.312281
C345	C	-0.000033	-0.619695	0.478182
C346	C	0.249967	-0.369695	0.728182
C347	C	0.499967	-0.119695	0.978182
C348	C	0.749967	0.130305	1.228182
C349	C	-0.000044	-0.671974	0.455560
C350	C	0.249956	-0.421974	0.705560
C351	C	0.499956	-0.171974	0.955560
C352	C	0.749956	0.078026	1.205560
C353	C	-0.000060	-0.775814	0.469710
C354	C	0.249940	-0.525814	0.719710
C355	C	0.499940	-0.275814	0.969710
C356	C	0.749940	-0.025814	1.219710
C357	C	-0.000065	-0.776525	0.410313
C358	C	0.249935	-0.526525	0.660313
C359	C	0.499935	-0.276525	0.910313
C360	C	0.749935	-0.026525	1.160313
C361	C	-0.000060	-0.724961	0.373540
C362	C	0.249940	-0.474961	0.623540
C363	C	0.499940	-0.224961	0.873540
C364	C	0.749940	0.025039	1.123540
C365	C	-0.000050	-0.672685	0.396164
C366	C	0.249950	-0.422685	0.646164
C367	C	0.499950	-0.172685	0.896164
C368	C	0.749950	0.077315	1.146164
C369	C	-0.000022	-0.568127	0.441406
C370	C	0.249978	-0.318127	0.691406
C371	C	0.499978	-0.068127	0.941406
C372	C	0.749978	0.181873	1.191406
C373	C	-0.000021	-0.568844	0.382004
C374	C	0.249979	-0.318844	0.632004
C375	C	0.499979	-0.068844	0.882004
C376	C	0.749979	0.181156	1.132004
C377	C	-0.000033	-0.621123	0.359381
C378	C	0.249967	-0.371123	0.609381
C379	C	0.499967	-0.121123	0.859381
C380	C	0.749967	0.128877	1.109381
C381	C	-0.000050	-0.621832	0.299995
C382	C	0.249950	-0.371832	0.549995
C383	C	0.499950	-0.121832	0.799995
C384	C	0.749950	0.128168	1.049995
N385	N	-0.000056	-0.674109	0.277369
N386	N	0.249944	-0.424109	0.527369
N387	N	0.499944	-0.174109	0.777369
N388	N	0.749944	0.075891	1.027369
C389	C	-0.000061	-0.725673	0.314141
C390	C	0.249939	-0.475673	0.564141
C391	C	0.499939	-0.225673	0.814141
C392	C	0.749939	0.024327	1.064141
C393	C	-0.000031	-0.617491	0.662324
C394	C	0.249969	-0.367491	0.912324
C395	C	0.499969	-0.117491	1.162324
C396	C	0.749969	0.132509	1.412324
C397	C	-0.000034	-0.616778	0.721722
C398	C	0.249966	-0.366778	0.971722
C399	C	0.499966	-0.116778	1.221722
C400	C	0.749966	0.133222	1.471722
C401	C	-0.000045	-0.720623	0.735869
C402	C	0.249955	-0.470623	0.985869
C403	C	0.499955	-0.220623	1.235869
C404	C	0.749955	0.029377	1.485869
C405	C	-0.000046	-0.721335	0.676470
C406	C	0.249954	-0.471335	0.926470
C407	C	0.499954	-0.221335	1.176470
C408	C	0.749954	0.028665	1.426470
C409	C	-0.000036	-0.669767	0.639698
C410	C	0.249964	-0.419767	0.889698
C411	C	0.499964	-0.169767	1.139698
C412	C	0.749964	0.080233	1.389698
C413	C	-0.000073	-0.727163	0.189405
C414	C	0.249927	-0.477163	0.439405
C415	C	0.499927	-0.227163	0.689405
C416	C	0.749927	0.022837	0.939405
C417	C	-0.000081	-0.727869	0.130003
C418	C	0.249919	-0.477869	0.380003
C419	C	0.499919	-0.227869	0.630003
C420	C	0.749919	0.022131	0.880003
C421	C	-0.000067	-0.624025	0.115860
C422	C	0.249933	-0.374025	0.365860
C423	C	0.499933	-0.124025	0.615860
C424	C	0.749933	0.125975	0.865860
C425	C	-0.000062	-0.623318	0.175257
C426	C	0.249938	-0.373318	0.425257
C427	C	0.499938	-0.123318	0.675257
C428	C	0.749938	0.126682	0.925257
C429	C	-0.000063	-0.674891	0.212029
C430	C	0.249937	-0.424891	0.462029
C431	C	0.499937	-0.174891	0.712029
C432	C	0.749937	0.075109	0.962029
O433	O	-0.000065	-0.578070	0.263215
O434	O	0.249935	-0.328070	0.513215
O435	O	0.499935	-0.078070	0.763215
O436	O	0.749935	0.171930	1.013215
O437	O	-0.000058	-0.770196	0.289434
O438	O	0.249942	-0.520196	0.539434
O439	O	0.499942	-0.270196	0.789434
O440	O	0.749942	-0.020196	1.039434
H441	H	0.840953	-0.734501	-0.136598
H442	H	1.090953	-0.484501	0.113402
H443	H	1.340953	-0.234501	0.363402
H444	H	1.590953	0.015499	0.613402
Br445	Br	-0.000033	-0.545825	0.752416
Br446	Br	0.249967	-0.295825	1.002416
Br447	Br	0.499967	-0.045825	1.252416
Br448	Br	0.749967	0.204175	1.502416
Br449	Br	-0.000097	-0.798825	0.099305
Br450	Br	0.249903	-0.548825	0.349305
Br451	Br	0.499903	-0.298825	0.599305
Br452	Br	0.749903	-0.048825	0.849305
Br453	Br	0.288056	-0.591545	0.007039
Br454	Br	0.538056	-0.341545	0.257039
Br455	Br	0.788056	-0.091545	0.507039
Br456	Br	1.038056	0.158455	0.757039
H457	H	-0.000055	0.059867	-0.165717
H458	H	0.249945	0.309867	0.084283
H459	H	0.499945	0.559867	0.334283
H460	H	0.749945	0.809867	0.584283
H461	H	-0.000065	-0.582043	0.085909
H462	H	0.249935	-0.332043	0.335909
H463	H	0.499935	-0.082043	0.585909
H464	H	0.749935	0.167957	0.835909
H465	H	-0.000041	-0.378852	-0.170970
H466	H	0.249959	-0.128852	0.079030
H467	H	0.499959	0.121148	0.329030
H468	H	0.749959	0.371148	0.579030
Br469	Br	-0.000062	-0.792288	0.645775
Br470	Br	0.249938	-0.542288	0.895775
Br471	Br	0.499938	-0.292288	1.145775
Br472	Br	0.749938	-0.042288	1.395775
Br473	Br	0.711834	-0.753121	-0.155300
Br474	Br	0.961834	-0.503121	0.094700
Br475	Br	1.211834	-0.253121	0.344700
Br476	Br	1.461834	-0.003121	0.594700
Br477	Br	0.142126	-0.591534	0.007015
Br478	Br	0.392126	-0.341534	0.257015
Br479	Br	0.642126	-0.091534	0.507015
Br480	Br	0.892126	0.158466	0.757015
H481	H	0.728575	-0.610147	-0.011633
H482	H	0.978575	-0.360147	0.238367
H483	H	1.228575	-0.110147	0.488367
H484	H	1.478575	0.139853	0.738367
Br485	Br	-0.000074	-0.797156	0.239299
Br486	Br	0.249926	-0.547156	0.489299
Br487	Br	0.499926	-0.297156	0.739299
Br488	Br	0.749926	-0.047156	0.989299
Br489	Br	0.288117	-0.753112	-0.155337
Br490	Br	0.538117	-0.503112	0.094663
Br491	Br	0.788117	-0.253112	0.344663
Br492	Br	1.038117	-0.003112	0.594663
H493	H	0.556137	-0.768780	-0.171053
H494	H	0.806137	-0.518780	0.078947
H495	H	1.056137	-0.268780	0.328947
H496	H	1.306137	-0.018780	0.578947
H497	H	-0.000035	-0.206289	-0.220908
H498	H	0.249965	0.043711	0.029092
H499	H	0.499965	0.293711	0.279092
H500	H	0.749965	0.543711	0.529092
H501	H	0.556082	-0.575904	0.022816
H502	H	0.806082	-0.325904	0.272816
H503	H	1.056082	-0.075904	0.522816
H504	H	1.306082	0.174096	0.772816
H505	H	-0.000013	-0.526850	0.352066
H506	H	0.249987	-0.276850	0.602066
H507	H	0.499987	-0.026850	0.852066
H508	H	0.749987	0.223150	1.102066
Br509	Br	0.857718	-0.591549	0.007073
Br510	Br	1.107718	-0.341549	0.257073
Br511	Br	1.357718	-0.091549	0.507073
Br512	Br	1.607718	0.158451	0.757073
H513	H	-0.000024	-0.486602	-0.172255
H514	H	0.249976	-0.236602	0.077745
H515	H	0.499976	0.013398	0.327745
H516	H	0.749976	0.263398	0.577745
Br517	Br	-0.000064	-0.847480	0.379621
Br518	Br	0.249936	-0.597480	0.629621
Br519	Br	0.499936	-0.347480	0.879621
Br520	Br	0.749936	-0.097480	1.129621
H521	H	0.443821	-0.768781	-0.171059
H522	H	0.693821	-0.518781	0.078941
H523	H	0.943821	-0.268781	0.328941
H524	H	1.193821	-0.018781	0.578941
Br525	Br	-0.000022	-0.547499	0.612424
Br526	Br	0.249978	-0.297499	0.862424
Br527	Br	0.499978	-0.047499	1.112424
Br528	Br	0.749978	0.202501	1.362424
H529	H	-0.000103	-0.138375	0.072634
H530	H	0.249897	0.111625	0.322634
H531	H	0.499897	0.361625	0.572634
H532	H	0.749897	0.611625	0.822634
Br533	Br	0.142164	-0.753106	-0.155342
Br534	Br	0.392164	-0.503106	0.094658
Br535	Br	0.642164	-0.253106	0.344658
Br536	Br	0.892164	-0.003106	0.594658
H537	H	0.443762	-0.575897	0.022807
H538	H	0.693762	-0.325897	0.272807
H539	H	0.943762	-0.075897	0.522807
H540	H	1.193762	0.174103	0.772807
H541	H	-0.000046	-0.098544	-0.219617
H542	H	0.249954	0.151456	0.030383
H543	H	0.499954	0.401456	0.280383
H544	H	0.749954	0.651456	0.530383
Br545	Br	-0.000054	0.187598	-0.192415
Br546	Br	0.249946	0.437598	0.057585
Br547	Br	0.499946	0.687598	0.307585
Br548	Br	0.749946	0.937598	0.557585
H549	H	-0.000069	-0.580748	0.193677
H550	H	0.249931	-0.330748	0.443677
H551	H	0.499931	-0.080748	0.693677
H552	H	0.749931	0.169252	0.943677
Br553	Br	-0.000074	0.154227	0.052364
Br554	Br	0.249926	0.404227	0.302364
Br555	Br	0.499926	0.654227	0.552364
Br556	Br	0.749926	0.904227	0.802364
H557	H	-0.000056	-0.404512	0.017441
H558	H	0.249944	-0.154512	0.267441
H559	H	0.499944	0.095488	0.517441
H560	H	0.749944	0.345488	0.767441
H561	H	-0.000084	0.034198	0.022693
H562	H	0.249916	0.284198	0.272693
H563	H	0.499916	0.534198	0.522693
H564	H	0.749916	0.784198	0.772693
H565	H	-0.000104	-0.246123	0.071339
H566	H	0.249896	0.003877	0.321339
H567	H	0.499896	0.253877	0.571339
H568	H	0.749896	0.503877	0.821339
H569	H	-0.000061	-0.817806	0.499645
H570	H	0.249939	-0.567806	0.749645
H571	H	0.499939	-0.317806	0.999645
H572	H	0.749939	-0.067806	1.249645
H573	H	-0.000047	-0.762610	0.765821
H574	H	0.249953	-0.512610	1.015821
H575	H	0.499953	-0.262610	1.265821
H576	H	0.749953	-0.012610	1.515821
H577	H	-0.000054	-0.512280	0.016146
H578	H	0.249946	-0.262280	0.266146
H579	H	0.499946	-0.012280	0.516146
H580	H	0.749946	0.237720	0.766146
Br581	Br	-0.000004	-0.497171	0.472092
Br582	Br	0.249996	-0.247171	0.722092
Br583	Br	0.499996	0.002829	0.972092
Br584	Br	0.749996	0.252829	1.222092
