data_functionalizedCrystal
_audit_creation_method	'MofGen! by Chris Wilmer'
_symmetry_space_group_name_H-M	'P1'
_symmetry_Int_Tables_number	1
_symmetry_cell_setting	triclinic
loop_
_symmetry_equiv_pos_as_xyz
  x,y,z
_cell_length_a	10.723024
_cell_length_b	14.044220
_cell_length_c	9.198806
_cell_angle_alpha	89.995861
_cell_angle_beta	89.996352
_cell_angle_gamma	88.828373
loop_
_atom_site_label
_atom_site_type_symbol
_atom_site_fract_x
_atom_site_fract_y
_atom_site_fract_z
O1	O	1.670498	0.133040	-0.120888
O2	O	1.308620	0.145774	-0.120893
O3	O	1.484127	0.001387	-0.120876
O4	O	1.494991	0.277427	-0.120905
O5	O	1.484112	0.001387	0.120909
O6	O	1.308604	0.145774	0.120892
O7	O	1.670483	0.133039	0.120898
Cu8	Cu	1.489542	0.139407	0.142972
Cu9	Cu	1.489560	0.139407	-0.142967
O10	O	1.494975	0.277427	0.120881
C11	C	1.262020	0.144847	-0.000001
C12	C	1.123188	0.142075	-0.000003
C13	C	1.056288	0.222866	-0.000012
C14	C	0.912798	0.220002	-0.000013
C15	C	1.479364	-0.033958	0.000017
C16	C	1.465180	-0.139276	0.000019
C17	C	1.439248	-0.332106	-0.000003
C18	C	1.539849	-0.389085	-0.000006
C19	C	1.525420	-0.496383	-0.000017
C20	C	1.453675	-0.224799	0.000009
C21	C	1.717083	0.133966	0.000002
C22	C	1.855914	0.136739	-0.000006
C23	C	1.499738	0.312772	-0.000016
C24	C	1.513923	0.418090	-0.000027
N25	N	1.489539	0.139406	0.344086
N26	N	1.489573	0.139401	-0.344081
C27	C	1.563202	0.078514	0.416290
C28	C	1.563221	0.078511	0.583702
H29	H	0.855286	0.289166	-0.000027
C30	C	0.933600	0.043294	0.000009
N31	N	0.992123	-0.027089	0.000024
C32	C	1.404350	0.209829	0.428005
N33	N	1.340183	0.262874	0.491211
H34	H	1.074234	0.070786	-0.000032
H35	H	1.342291	-0.363906	-0.000008
C36	C	1.670845	-0.346125	0.000017
N37	N	1.769507	-0.313763	0.000042
H38	H	1.626251	0.026381	0.354170
C39	C	1.648424	0.008081	0.667584
N40	N	1.712599	-0.044971	0.730767
H41	H	1.426508	0.191538	0.593836
H42	H	1.105243	0.294155	-0.000011
