data_functionalizedCrystal
_audit_creation_method	'MofGen! by Chris Wilmer'
_symmetry_space_group_name_H-M	'P1'
_symmetry_Int_Tables_number	1
_symmetry_cell_setting	triclinic
loop_
_symmetry_equiv_pos_as_xyz
  x,y,z
_cell_length_a	15.297475
_cell_length_b	15.297327
_cell_length_c	15.296720
_cell_angle_alpha	107.319222
_cell_angle_beta	88.382886
_cell_angle_gamma	88.374454
loop_
_atom_site_label
_atom_site_type_symbol
_atom_site_fract_x
_atom_site_fract_y
_atom_site_fract_z
Zn1	Zn	1.116342	0.695081	0.823122
Zn2	Zn	1.116246	0.823682	0.694497
Zn3	Zn	1.005113	0.644908	0.644396
Zn4	Zn	0.946204	0.814903	0.814406
O5	O	1.045976	0.744644	0.744105
O6	O	1.234042	0.736812	0.830675
O7	O	1.126118	0.782644	0.562870
O8	O	1.044561	0.526600	0.650785
O9	O	1.233972	0.831295	0.736174
O10	O	1.126281	0.563461	0.782095
O11	O	1.044469	0.651299	0.526062
O12	O	0.879585	0.642787	0.642333
O13	O	0.944159	0.816332	0.940543
O14	O	0.836305	0.767682	0.767239
O15	O	1.069159	0.728299	0.946946
O16	O	1.068996	0.947482	0.727722
O17	O	0.944066	0.941032	0.815819
C18	C	0.827423	0.698838	0.698404
C19	C	0.733917	0.679267	0.678877
C20	C	1.000147	0.976666	0.776286
C21	C	0.980613	1.075946	0.790099
C22	C	0.380296	0.884531	0.883671
C23	C	0.468149	0.902925	0.902016
C24	C	0.534595	0.847012	0.846233
C25	C	0.513180	0.772701	0.772102
C26	C	0.425318	0.754309	0.753750
C27	C	0.579617	0.716791	0.716312
C28	C	0.558202	0.642480	0.642181
C29	C	0.470348	0.624091	0.623833
C30	C	0.403902	0.680004	0.679616
C31	C	0.667479	0.735183	0.734664
C32	C	0.712501	0.604961	0.604743
C33	C	0.624648	0.586567	0.586398
C34	C	1.000098	0.776933	0.977057
C35	C	0.980548	0.790693	1.076327
C36	C	1.265382	0.790629	0.789986
C37	C	1.358880	0.810225	0.809537
C38	C	1.092003	0.511723	0.711823
C39	C	1.111617	0.412466	0.698067
C40	C	1.185880	1.369169	0.645759
C41	C	1.204235	1.275889	0.632777
C42	C	1.148331	1.225899	0.672106
C43	C	1.074069	1.269198	0.724420
C44	C	1.055710	1.362485	0.737398
C45	C	1.018160	1.219215	0.763745
C46	C	0.943898	1.262513	0.816059
C47	C	0.925542	1.355791	0.829035
C48	C	0.981446	1.405781	0.789706
C49	C	1.036520	1.125928	0.750767
C50	C	0.906349	1.119243	0.842406
C51	C	0.887995	1.212523	0.855389
C52	C	1.091736	0.712426	0.512061
C53	C	1.111499	0.698449	0.412791
C54	C	1.185768	0.646151	1.369491
C55	C	1.204141	0.633225	1.276224
C56	C	1.148244	0.672591	1.226245
C57	C	1.073971	0.724884	1.269543
C58	C	1.055600	0.737817	1.362821
C59	C	1.018076	0.764257	1.219575
C60	C	0.943803	0.816551	1.262873
C61	C	0.925434	0.829480	1.356142
C62	C	0.981331	0.790115	1.406121
C63	C	1.036448	0.751324	1.126296
C64	C	0.906280	0.842991	1.119626
C65	C	0.887906	0.855916	1.212894
H66	H	0.684906	0.795687	0.795023
H67	H	0.766603	0.559433	0.559318
C68	C	1.247242	0.602850	1.424472
N69	N	1.293546	0.570231	1.465885
H70	H	1.231385	1.409877	0.613736
H71	H	1.096921	0.708746	1.091052
C72	C	0.961133	0.804345	1.508727
N73	N	0.945926	0.815068	1.586012
H74	H	0.827530	1.247790	0.897983
C75	C	0.843734	0.887010	1.403769
N76	N	0.782196	0.930339	1.439639
C77	C	0.844852	1.064258	0.885674
N78	N	0.798536	1.022838	0.918260
C79	C	1.168536	1.123294	0.657842
N80	N	1.183763	1.046011	0.647106
C81	C	0.961257	1.508394	0.803980
N82	N	0.946052	1.585683	0.814727
H83	H	0.607199	0.526062	0.526039
C84	C	1.285909	1.228263	0.575214
N85	N	1.347426	1.192389	0.531850
C86	C	1.168453	0.658362	1.123645
N87	N	1.183674	0.647637	1.046362
C88	C	1.285834	0.575695	1.228600
N89	N	1.347366	0.532356	1.192728
C90	C	0.806206	0.913436	1.260534
N91	N	0.744669	0.956759	1.296417
C92	C	0.491699	0.984666	0.983557
N93	N	0.509437	1.046238	1.044978
C94	C	0.307202	0.946029	0.945021
N95	N	0.252146	0.992353	0.991233
C96	C	0.844788	0.886294	1.064653
N97	N	0.798476	0.918907	1.023241
C98	C	0.307256	0.659762	0.659452
N99	N	0.234460	0.644514	0.644270
H100	H	0.606128	0.861993	0.861175
H101	H	1.096984	1.090683	0.708172
C102	C	0.446795	0.542348	0.542285
N103	N	0.429057	0.480777	0.480864
C104	C	0.843846	1.403414	0.886573
N105	N	0.782312	1.439282	0.929911
