data_functionalizedCrystal
_audit_creation_method	'MofGen! by Chris Wilmer'
_symmetry_space_group_name_H-M	'P1'
_symmetry_Int_Tables_number	1
_symmetry_cell_setting	triclinic
loop_
_symmetry_equiv_pos_as_xyz
  x,y,z
_cell_length_a	10.489741
_cell_length_b	10.489741
_cell_length_c	8.965430
_cell_angle_alpha	89.999293
_cell_angle_beta	89.998843
_cell_angle_gamma	95.460826
loop_
_atom_site_label
_atom_site_type_symbol
_atom_site_fract_x
_atom_site_fract_y
_atom_site_fract_z
O1	O	1.694053	-0.179958	-0.123946
O2	O	1.322858	-0.196851	-0.123969
O3	O	1.516902	-0.002807	-0.123948
O4	O	1.500009	-0.374003	-0.123967
O5	O	1.516886	-0.002820	0.124130
O6	O	1.322841	-0.196864	0.124110
O7	O	1.694037	-0.179971	0.124133
Cu8	Cu	1.508438	-0.188419	0.146773
Cu9	Cu	1.508457	-0.188404	-0.146609
O10	O	1.499993	-0.374016	0.124112
C11	C	1.275318	-0.195582	0.000067
C12	C	1.133688	-0.191765	0.000059
C13	C	1.065548	-0.068300	0.000079
C14	C	0.973430	-0.126617	-0.122237
C15	C	0.973447	-0.126659	0.122349
C16	C	1.043435	-0.250133	-0.122358
C17	C	1.043462	-0.250158	0.122338
C18	C	0.951371	-0.308564	-0.000007
C19	C	1.515618	0.044718	0.000090
C20	C	1.511801	0.186348	0.000087
C21	C	1.741577	-0.181241	0.000093
C22	C	1.883206	-0.185058	0.000092
C23	C	1.501277	-0.421541	0.000070
C24	C	1.505094	-0.563170	0.000063
N25	N	1.508433	-0.188429	0.353122
C26	C	1.388336	0.254488	0.000069
C27	C	1.446652	0.346604	0.122388
C28	C	1.446697	0.346591	-0.122198
C29	C	1.570167	0.276599	0.122508
C30	C	1.570195	0.276576	-0.122189
C31	C	1.628600	0.368665	0.000161
N32	N	1.508471	-0.188384	-0.352958
C33	C	1.418666	-0.278138	0.450418
C34	C	1.534163	-0.303949	0.549838
C35	C	1.392986	-0.162629	0.549830
C36	C	1.623988	-0.214298	0.450352
C37	C	1.482735	-0.072927	0.450336
C38	C	1.598314	-0.098690	0.549711
H39	H	0.901947	-0.410168	-0.000079
C40	C	1.639586	0.235218	-0.260251
C41	C	1.574521	0.270274	-0.387987
C42	C	1.638384	0.232176	-0.515209
H43	H	1.724461	0.275863	-0.261335
H44	H	1.642147	0.144935	-0.258829
H45	H	1.571974	0.360539	-0.389409
H46	H	1.489650	0.229633	-0.386953
H47	H	1.640945	0.141894	-0.513787
H48	H	1.723257	0.272824	-0.516277
H49	H	1.594241	0.255945	-0.601892
C50	C	0.931933	-0.057192	0.260293
C51	C	0.848391	-0.140445	0.344905
C52	C	0.810115	-0.076483	0.471969
H53	H	1.005039	-0.029391	0.318434
H54	H	0.889507	0.014862	0.230943
H55	H	0.890818	-0.212476	0.374257
H56	H	0.775267	-0.168251	0.286808
H57	H	0.767689	-0.004428	0.442619
H58	H	0.883228	-0.048684	0.530097
H59	H	0.753419	-0.132956	0.529386
H60	H	1.286824	0.204837	0.000185
C61	C	1.376847	0.388119	0.260084
C62	C	1.270723	0.450524	0.216331
C63	C	1.206390	0.488793	0.343128
H64	H	1.348926	0.315016	0.318175
H65	H	1.433118	0.444875	0.317677
H66	H	1.214462	0.393771	0.158763
H67	H	1.298608	0.523642	0.158258
H68	H	1.262661	0.545549	0.400721
H69	H	1.178478	0.415683	0.401210
H70	H	1.134385	0.531149	0.313459
H71	H	1.622355	0.245761	0.226035
H72	H	1.342824	-0.354072	0.406821
H73	H	1.394447	0.377561	-0.225620
H74	H	1.555925	-0.401606	0.593543
H75	H	1.721659	-0.236216	0.406840
H76	H	1.674327	-0.022803	0.593034
H77	H	1.730204	0.418089	0.000235
H78	H	0.942422	-0.074371	-0.225643
C79	C	1.131594	0.067119	0.000151
C80	C	1.094562	0.132131	0.127030
C81	C	1.155365	0.256882	0.127126
H82	H	1.221784	0.063924	0.001107
H83	H	1.107746	0.110849	-0.086805
H84	H	1.118417	0.088413	0.213964
H85	H	1.004381	0.135362	0.126101
H86	H	1.131517	0.300612	0.040170
H87	H	1.245553	0.253674	0.128078
H88	H	1.130238	0.301012	0.213204
H89	H	1.295338	-0.140828	0.593530
C90	C	1.084799	-0.319626	-0.260353
C91	C	1.217985	-0.322319	-0.258809
C92	C	1.256140	-0.386306	-0.385913
H93	H	1.044812	-0.404766	-0.260839
H94	H	1.060340	-0.276043	-0.347142
H95	H	1.242432	-0.365905	-0.172043
H96	H	1.258004	-0.237197	-0.258345
H97	H	1.231681	-0.342723	-0.472703
H98	H	1.216145	-0.471442	-0.386389
H99	H	1.346510	-0.388131	-0.384890
C100	C	1.453492	0.057121	0.391788
C101	C	1.342850	0.042500	0.303704
C102	C	1.315866	0.162269	0.249725
H103	H	1.440298	0.112217	0.473287
H104	H	1.523436	0.093180	0.333394
H105	H	1.272922	0.006460	0.362096
H106	H	1.356015	-0.012573	0.222183
H107	H	1.385809	0.198327	0.191331
H108	H	1.302677	0.217356	0.331234
H109	H	1.240800	0.152364	0.189944
H110	H	1.074502	-0.302361	0.225749
