data_functionalizedCrystal
_audit_creation_method	'MofGen! by Chris Wilmer'
_symmetry_space_group_name_H-M	'P1'
_symmetry_Int_Tables_number	1
_symmetry_cell_setting	triclinic
loop_
_symmetry_equiv_pos_as_xyz
  x,y,z
_cell_length_a	23.196402
_cell_length_b	23.196402
_cell_length_c	23.196401
_cell_angle_alpha	60.007332
_cell_angle_beta	90.011299
_cell_angle_gamma	60.002409
loop_
_atom_site_label
_atom_site_type_symbol
_atom_site_fract_x
_atom_site_fract_y
_atom_site_fract_z
Zr1	Zr	0.555419	0.630963	-0.075643
O2	O	0.463357	0.751228	-0.167688
O3	O	0.583632	0.510701	-0.047429
O4	O	0.583616	0.630964	-0.167695
O5	O	0.463396	0.630964	0.047449
O6	O	0.678488	0.630962	-0.167697
O7	O	0.463373	0.630965	-0.047422
O8	O	0.678517	0.415833	0.047437
O9	O	0.463366	0.846092	-0.167684
O10	O	0.666477	0.560164	-0.035394
O11	O	0.595692	0.560165	0.035409
O12	O	0.595673	0.701759	-0.106189
O13	O	0.524888	0.701759	-0.035386
Zr14	Zr	0.706765	0.630957	0.075663
Zr15	Zr	0.706729	0.630959	-0.075646
Zr16	Zr	0.555455	0.630961	0.075666
Zr17	Zr	0.555434	0.782261	-0.075637
Zr18	Zr	0.706749	0.479660	0.075657
O19	O	0.678551	0.751219	0.047449
O20	O	0.678500	0.751223	-0.167693
O21	O	0.463408	0.751225	0.047454
O22	O	0.798827	0.510692	0.167708
O23	O	0.798775	0.510695	-0.047434
O24	O	0.583684	0.510698	0.167713
O25	O	0.798787	0.630957	-0.047429
O26	O	0.678568	0.630956	0.167715
O27	O	0.583696	0.630959	0.167717
O28	O	0.798810	0.630955	0.047442
O29	O	0.583637	0.846089	-0.167687
O30	O	0.678546	0.415831	0.167707
O31	O	0.798817	0.415828	0.167705
O32	O	0.798788	0.415830	0.047434
O33	O	0.463395	0.846090	-0.047414
O34	O	0.583666	0.846087	-0.047417
O35	O	0.666511	0.560162	0.106209
O36	O	0.737296	0.560161	0.035406
O37	O	0.666491	0.701756	-0.035389
O38	O	0.595706	0.701757	0.035414
C39	C	0.631073	0.441710	0.000003
C40	C	0.631066	0.377481	0.000001
C41	C	0.683345	0.295050	0.052260
C42	C	0.683350	0.234690	0.052267
C43	C	0.631081	0.256765	0.000003
C44	C	0.578793	0.339210	-0.052261
C45	C	0.578786	0.399568	-0.052262
C46	C	0.614792	0.201179	-0.063789
C47	C	0.614804	0.140820	-0.063788
C48	C	0.631100	0.070603	0.000006
C49	C	0.647399	0.060743	0.063803
C50	C	0.647391	0.121101	0.063802
C51	C	0.631083	0.191323	-0.000002
C52	C	0.683387	-0.077281	0.052276
C53	C	0.683387	-0.137640	0.052283
C54	C	0.578833	-0.033118	-0.052250
C55	C	0.578830	0.027239	-0.052252
C56	C	0.631111	0.005152	0.000011
C57	C	0.441826	0.630965	0.000014
C58	C	0.377592	0.630967	0.000016
C59	C	0.347407	0.630973	-0.052253
C60	C	0.287056	0.630966	-0.052253
C61	C	0.256883	0.630968	0.000010
C62	C	0.287078	0.630957	0.052288
C63	C	0.347432	0.630956	0.052291
C64	C	0.137517	0.678472	0.016298
C65	C	0.077162	0.678478	0.016291
C66	C	0.070733	0.630967	0.000007
C67	C	0.124662	0.583461	-0.016285
C68	C	0.185016	0.583460	-0.016283
C69	C	0.191440	0.630969	0.000014
C70	C	-0.024891	0.630965	-0.052265
C71	C	-0.085241	0.630953	-0.052260
C72	C	-0.085221	0.630952	0.052279
C73	C	-0.024869	0.630956	0.052277
C74	C	0.005291	0.630967	0.000001
C75	C	0.820357	0.630955	0.000006
C76	C	0.884592	0.630954	0.000005
C77	C	0.631047	0.630963	-0.189254
C78	C	0.631031	0.630964	-0.253489
C79	C	0.631111	0.820210	0.000017
C80	C	0.631117	0.884440	0.000020
C81	C	0.594075	0.704873	-0.320616
C82	C	0.594093	0.704874	-0.380971
C83	C	0.631057	0.630962	-0.374195
C84	C	0.668021	0.557043	-0.307056
C85	C	0.668008	0.557044	-0.246703
C86	C	0.625802	0.574336	-0.441514
C87	C	0.625810	0.574338	-0.501868
C88	C	0.631102	0.630956	-0.560343
C89	C	0.636372	0.687585	-0.558464
C90	C	0.636359	0.687586	-0.498111
C91	C	0.631076	0.630953	-0.439634
C92	C	0.594164	0.704871	-0.692917
C93	C	0.594187	0.704869	-0.753272
C94	C	0.668110	0.557036	-0.679354
C95	C	0.668092	0.557040	-0.619001
C96	C	0.631115	0.630960	-0.625787
C97	C	0.631137	0.630957	0.189274
C98	C	0.631152	0.630956	0.253509
C99	C	0.820338	0.441705	-0.000001
C100	C	0.884566	0.377474	-0.000005
C101	C	0.631118	0.441707	0.189267
C102	C	0.631127	0.377477	0.253500
C103	C	0.820383	0.441703	0.189263
C104	C	0.884627	0.377470	0.253494
C105	C	0.441800	0.820218	-0.189243
C106	C	0.377556	0.884450	-0.253474
C107	C	0.441846	0.820215	0.000021
C108	C	0.377617	0.884446	0.000025
C109	C	0.631066	0.820213	-0.189247
C110	C	0.631057	0.884444	-0.253479
C111	C	0.877762	0.347312	-0.036970
C112	C	0.938106	0.286968	-0.036987
C113	C	1.005253	0.256784	-0.000036
C114	C	1.012056	0.286952	0.036930
C115	C	0.951713	0.347299	0.036944
C116	C	0.668098	0.347312	0.320627
C117	C	0.668103	0.286969	0.380986
C118	C	0.631142	0.256788	0.374216
C119	C	0.594167	0.286958	0.307081
C120	C	0.594157	0.347305	0.246724
C121	C	0.951752	0.347306	0.246699
C122	C	1.012122	0.286961	0.307045
C123	C	1.005365	0.256778	0.374185
C124	C	0.938233	0.286948	0.380979
C125	C	0.877865	0.347296	0.320634
C126	C	0.310432	0.914622	-0.246679
C127	C	0.250062	0.974985	-0.307025
C128	C	0.256819	1.005172	-0.374165
C129	C	0.323951	0.974997	-0.380959
C130	C	0.384319	0.914639	-0.320613
C131	C	0.384421	0.914615	0.036984
C132	C	0.324078	0.974975	0.036985
C133	C	0.256930	1.005162	0.000031
C134	C	0.250128	0.974991	-0.036933
C135	C	0.310471	0.914636	-0.036937
C136	C	0.668025	0.914606	-0.246687
C137	C	0.668031	0.974949	-0.307034
C138	C	0.631063	1.005134	-0.374173
C139	C	0.594093	0.974966	-0.380964
C140	C	0.594092	0.914619	-0.320618
H141	H	0.725915	0.277059	0.094817
H142	H	1.066778	0.262402	0.301501
H143	H	0.932742	0.262364	0.435652
H144	H	0.304920	0.890074	-0.067031
C145	C	0.331573	1.008144	0.077654
H146	H	0.380207	0.981508	0.099670
H147	H	0.309575	1.065120	0.045764
H148	H	0.309572	0.998250	0.112630
C149	C	0.959198	0.380499	0.172853
H150	H	1.007826	0.353891	0.177459
H151	H	0.937188	0.370607	0.147770
H152	H	0.937188	0.437480	0.147777
C153	C	0.253892	0.630964	0.109776
H154	H	0.280518	0.630954	0.140910
H155	H	0.206704	0.678249	0.088307
H156	H	0.253994	0.583675	0.135591
C157	C	0.804031	0.380462	0.328117
H158	H	0.808660	0.353832	0.376747
H159	H	0.778937	0.437440	0.306115
H160	H	0.778950	0.370555	0.306117
C161	C	0.553506	0.786177	-0.700376
H162	H	0.531509	0.830196	-0.749002
H163	H	0.518524	0.789259	-0.678386
H164	H	0.585411	0.789241	-0.678352
C165	C	0.708678	0.475743	-0.299601
H166	H	0.703387	0.486327	-0.345159
H167	H	0.757300	0.445370	-0.274512
H168	H	0.690420	0.445376	-0.274538
C169	C	0.117606	0.531185	-0.034186
H170	H	0.073945	0.537977	-0.031844
H171	H	0.119138	0.547878	-0.080479
H172	H	0.155380	0.475441	-0.001265
H173	H	0.262475	0.630971	-0.094818
C174	C	0.302985	0.881436	-0.172833
H175	H	0.254358	0.908066	-0.177439
H176	H	0.324987	0.824460	-0.147748
H177	H	0.325004	0.891333	-0.147758
C178	C	0.553426	1.008181	-0.454819
H179	H	0.558718	1.048447	-0.489781
H180	H	0.571660	0.964868	-0.460131
H181	H	0.504799	1.031739	-0.460114
H182	H	1.054526	0.207639	0.423316
H183	H	1.066735	0.262367	0.067015
H184	H	0.823093	0.371888	-0.067069
C185	C	0.708781	0.253785	0.454826
H186	H	0.703489	0.213529	0.489807
H187	H	0.757401	0.230239	0.460113
H188	H	0.690533	0.297121	0.460112
C189	C	0.176226	1.008159	-0.299540
H190	H	0.180854	0.981523	-0.250910
H191	H	0.151141	1.065135	-0.321532
H192	H	0.151137	0.998268	-0.321549
C193	C	0.190557	1.071548	0.000042
H194	H	0.149589	1.085213	-0.027262
H195	H	0.190571	1.051762	0.047131
H196	H	0.190562	1.118634	-0.019747
H197	H	0.631069	1.054272	-0.423305
C198	C	1.071624	0.190396	-0.000048
H199	H	1.057948	0.176754	-0.027351
H200	H	1.098932	0.210167	-0.019835
H201	H	1.098931	0.143301	0.047038
C202	C	0.553415	0.881457	-0.328099
H203	H	0.531394	0.908087	-0.376729
H204	H	0.585301	0.824478	-0.306097
H205	H	0.518438	0.891365	-0.306097
H206	H	0.564053	0.371857	0.192068
C207	C	0.331374	1.008201	-0.454815
H208	H	0.285804	1.048461	-0.489775
H209	H	0.356452	1.031746	-0.460122
H210	H	0.356436	0.964874	-0.460115
C211	C	0.176264	1.008196	-0.077572
H212	H	0.141306	1.048454	-0.072265
H213	H	0.170946	1.031744	-0.126197
H214	H	0.170966	0.964870	-0.059313
C215	C	0.190410	1.071553	-0.440539
H216	H	0.149467	1.085187	-0.426870
H217	H	0.190391	1.118648	-0.467849
H218	H	0.190395	1.051763	-0.467838
H219	H	0.660660	0.113070	0.115748
C220	C	0.740859	0.144007	0.109753
H221	H	0.771996	0.139498	0.140876
H222	H	0.719400	0.118282	0.135571
H223	H	0.766672	0.118299	0.088274
H224	H	0.698129	0.890039	-0.192024
C225	C	0.458154	0.881425	-0.328093
H226	H	0.493145	0.841150	-0.282542
H227	H	0.463407	0.857894	-0.353176
H228	H	0.463464	0.924740	-0.353170
H229	H	0.698135	0.999506	-0.301490
C230	C	0.631158	0.190405	0.440610
H231	H	0.603848	0.176750	0.426969
H232	H	0.678249	0.143322	0.467910
H233	H	0.611376	0.210199	0.467909
H234	H	0.439091	0.890041	0.067081
C235	C	0.665320	-0.016487	0.133980
H236	H	0.662981	-0.051018	0.124845
H237	H	0.711617	-0.044535	0.163573
H238	H	0.632404	-0.001550	0.156809
H239	H	0.725954	-0.095266	0.094835
H240	H	0.725958	-0.204762	0.094843
H241	H	0.957263	0.371849	0.067049
C242	C	0.521335	-0.008824	-0.109740
H243	H	0.490196	0.048917	-0.140863
H244	H	0.542799	-0.030194	-0.135557
H245	H	0.495525	-0.030200	-0.088262
C246	C	0.521330	0.117915	-0.109745
H247	H	0.490204	0.122420	-0.140875
H248	H	0.495515	0.143634	-0.088277
H249	H	0.542799	0.143632	-0.135563
H250	H	0.698103	0.496857	-0.192043
H251	H	0.601536	0.148853	-0.115735
C252	C	0.642165	0.749865	-0.496039
H253	H	0.645325	0.783582	-0.539503
H254	H	0.601570	0.782612	-0.488875
H255	H	0.683199	0.721814	-0.458461
H256	H	0.601515	0.258355	-0.115742
H257	H	0.536235	0.357180	-0.094814
H258	H	0.564073	0.262376	0.301579
H259	H	0.371962	0.630979	-0.094818
C260	C	0.521280	0.490245	-0.109754
H261	H	0.490152	0.494751	-0.140883
H262	H	0.495468	0.515963	-0.088285
H263	H	0.542748	0.515962	-0.135574
C264	C	0.244339	0.531199	-0.034192
H265	H	0.231874	0.502897	-0.043886
H266	H	0.250758	0.565443	-0.074468
H267	H	0.286985	0.493000	0.004744
H268	H	-0.000332	0.630970	-0.094829
H269	H	0.932553	0.262413	-0.067090
H270	H	-0.109815	0.630953	-0.094822
H271	H	0.621515	0.528230	-0.503393
C272	C	0.553533	0.786173	-0.827114
H273	H	0.531506	0.830193	-0.822507
H274	H	0.585436	0.789251	-0.852182
H275	H	0.518564	0.789239	-0.852205
C276	C	0.708754	0.380506	0.328084
H277	H	0.703463	0.420763	0.282527
H278	H	0.690507	0.404053	0.353159
H279	H	0.757382	0.337175	0.353162
H280	H	-0.000293	0.630955	0.094836
C281	C	-0.118404	0.630956	0.109767
H282	H	-0.158675	0.630963	0.102278
H283	H	-0.084866	0.583674	0.154885
H284	H	-0.132158	0.678248	0.107596
H285	H	0.033254	0.717164	0.029553
H286	H	0.372009	0.630950	0.094855
C287	C	0.144585	0.730735	0.034212
H288	H	0.188256	0.723925	0.031888
H289	H	0.106819	0.786479	0.001301
H290	H	0.143054	0.714028	0.080511
H291	H	0.563969	0.765064	-0.326148
H292	H	0.563998	0.765061	-0.435636
H293	H	0.640678	0.733691	-0.606077
H294	H	0.698182	0.496856	-0.564342
C295	C	0.619976	0.512056	-0.377197
H296	H	0.616828	0.478340	-0.386964
H297	H	0.660562	0.479307	-0.337267
H298	H	0.578932	0.540105	-0.367691
H299	H	0.698208	0.496856	-0.673836
