data_functionalizedCrystal
_audit_creation_method	'MofGen! by Chris Wilmer'
_symmetry_space_group_name_H-M	'P1'
_symmetry_Int_Tables_number	1
_symmetry_cell_setting	triclinic
loop_
_symmetry_equiv_pos_as_xyz
  x,y,z
_cell_length_a	14.519709
_cell_length_b	14.971482
_cell_length_c	13.448316
_cell_angle_alpha	89.993798
_cell_angle_beta	90.000405
_cell_angle_gamma	96.353624
loop_
_atom_site_label
_atom_site_type_symbol
_atom_site_fract_x
_atom_site_fract_y
_atom_site_fract_z
O1	O	-0.120168	1.187017	-0.082665
O2	O	-0.134563	0.926624	-0.082668
O3	O	0.006877	1.063725	-0.082676
O4	O	-0.261608	1.049917	-0.082658
O5	O	0.006886	1.063707	0.082708
O6	O	-0.134555	0.926607	0.082716
O7	O	-0.120159	1.187000	0.082719
Cu8	Cu	-0.127356	1.056802	0.097818
Cu9	Cu	-0.127366	1.056822	-0.097767
O10	O	-0.261599	1.049900	0.082726
C11	C	-0.133916	0.893291	0.000023
C12	C	-0.131988	0.793992	0.000021
C13	C	-0.131076	0.747338	0.090173
C14	C	-0.129250	0.654038	0.090174
C15	C	-0.128343	0.607394	0.000022
C16	C	-0.129253	0.654056	-0.090137
C17	C	-0.131072	0.747354	-0.090137
C18	C	-0.125464	0.459592	-0.090130
C19	C	-0.123646	0.366286	-0.090131
C20	C	-0.123641	0.366276	0.090180
C21	C	-0.125461	0.459574	0.090180
C22	C	-0.126372	0.506229	0.000021
C23	C	-0.295963	1.050552	0.000037
C24	C	-0.398343	1.052480	0.000043
C25	C	-0.773235	1.059579	0.000004
C26	C	-0.668928	1.057608	0.000015
C27	C	-0.585792	1.056030	0.000025
C28	C	-0.481479	1.054058	0.000034
C29	C	0.041241	1.063073	0.000012
C30	C	0.143621	1.061144	-0.000001
C31	C	-0.120806	1.220333	0.000025
C32	C	-0.122734	1.319632	0.000021
N33	N	-0.127348	1.056794	0.235382
N34	N	-0.127367	1.056837	-0.235332
C35	C	-0.064744	1.117521	0.287420
C36	C	-0.064743	1.117527	0.391523
C37	C	-0.127352	1.056809	0.443587
C38	C	-0.189959	0.996075	0.391543
C39	C	-0.189954	0.996066	0.287441
C40	C	-0.189965	0.996100	0.608523
C41	C	-0.189971	0.996110	0.712631
C42	C	-0.064754	1.117561	0.712604
C43	C	-0.064750	1.117551	0.608503
C44	C	-0.127358	1.056819	0.556466
H45	H	-0.131822	0.785308	0.163585
H46	H	-0.240945	0.946642	0.566157
H47	H	-0.128492	0.616058	0.163584
H48	H	-0.122909	0.328311	-0.163541
Cl49	Cl	-0.268657	0.919717	0.222024
H50	H	-0.126205	0.497549	0.163590
H51	H	-0.122899	0.328285	0.163591
Cl52	Cl	-0.126608	0.518242	-0.203475
Cl53	Cl	-0.128080	0.595422	-0.203471
Cl54	Cl	-0.132215	0.806007	-0.203475
Cl55	Cl	0.013951	1.193910	0.778026
Cl56	Cl	0.013965	1.193861	0.221978
Cl57	Cl	-0.268664	0.919739	0.456993
Cl58	Cl	0.013961	1.193869	0.456943
Cl59	Cl	-0.268681	0.919774	0.778076
H60	H	-0.013774	1.166996	0.566112
