data_functionalizedCrystal
_audit_creation_method	'MofGen! by Chris Wilmer'
_symmetry_space_group_name_H-M	'P1'
_symmetry_Int_Tables_number	1
_symmetry_cell_setting	triclinic
loop_
_symmetry_equiv_pos_as_xyz
  x,y,z
_cell_length_a	17.038272
_cell_length_b	17.019372
_cell_length_c	13.101039
_cell_angle_alpha	90.514652
_cell_angle_beta	93.604737
_cell_angle_gamma	87.242864
loop_
_atom_site_label
_atom_site_type_symbol
_atom_site_fract_x
_atom_site_fract_y
_atom_site_fract_z
O1	O	0.099960	1.052986	0.007623
O2	O	0.599960	1.552986	0.507623
O3	O	0.111648	0.825131	-0.012469
O4	O	0.611648	1.325131	0.487531
O5	O	-0.008016	0.937704	-0.002534
O6	O	0.491984	1.437704	0.497466
O7	O	0.219624	0.940413	-0.002312
O8	O	0.719624	1.440413	0.497688
O9	O	0.000584	0.929628	0.167183
O10	O	0.500584	1.429628	0.667183
O11	O	0.120248	0.817055	0.157248
O12	O	0.620248	1.317055	0.657248
O13	O	0.108560	1.044910	0.177340
O14	O	0.608560	1.544910	0.677340
Zn15	Zn	0.115769	0.929701	0.194240
Zn16	Zn	0.615769	1.429701	0.694240
Zn17	Zn	0.104438	0.940341	-0.029369
Zn18	Zn	0.604438	1.440341	0.470631
O19	O	0.228224	0.932337	0.167405
O20	O	0.728224	1.432337	0.667405
C21	C	0.115336	0.791795	0.069806
C22	C	0.615336	1.291795	0.569806
C23	C	0.113504	0.704495	0.062109
C24	C	0.613504	1.204495	0.562109
C25	C	0.102876	0.210969	0.013864
C26	C	0.602876	0.710969	0.513864
C27	C	0.104599	0.292996	0.021110
C28	C	0.604599	0.792996	0.521110
C29	C	0.110154	0.329599	0.117247
C30	C	0.610154	0.829599	0.617247
C31	C	0.113978	0.284171	0.206143
C32	C	0.613978	0.784171	0.706143
C33	C	0.112250	0.202146	0.198896
C34	C	0.612250	0.702146	0.698896
C35	C	0.115601	0.577042	0.143758
C36	C	0.615601	1.077042	0.643758
C37	C	0.117331	0.659073	0.150998
C38	C	0.617331	1.159073	0.650998
C39	C	0.107950	0.667893	-0.034036
C40	C	0.607950	1.167893	0.465964
C41	C	0.106227	0.585865	-0.041275
C42	C	0.606227	1.085865	0.458725
C43	C	0.110047	0.540444	0.047622
C44	C	0.610047	1.040444	0.547622
C45	C	0.111917	0.413444	0.124656
C46	C	0.611917	0.913444	0.624656
C47	C	0.108279	0.456602	0.040211
C48	C	0.608279	0.956602	0.540211
C49	C	-0.032853	0.931203	0.082107
C50	C	0.467147	1.431203	0.582107
C51	C	-0.119672	0.923853	0.081459
C52	C	0.380328	1.423853	0.581459
C53	C	-0.169545	0.991330	0.087409
C54	C	0.330455	1.491330	0.587409
C55	C	-0.251121	0.984420	0.086790
C56	C	0.248879	1.484420	0.586790
C57	C	-0.282822	0.910033	0.080228
C58	C	0.217178	1.410033	0.580228
C59	C	-0.232943	0.842552	0.074273
C60	C	0.267057	1.342552	0.574273
C61	C	-0.151369	0.849462	0.074885
C62	C	0.348631	1.349462	0.574885
C63	C	-0.528668	0.885618	0.078061
C64	C	-0.028668	1.385618	0.578061
C65	C	-0.610248	0.878712	0.077453
C66	C	-0.110248	1.378712	0.577453
C67	C	-0.628420	1.020582	0.089968
C68	C	-0.128420	1.520582	0.589968
C69	C	-0.546843	1.027486	0.090585
C70	C	-0.046843	1.527486	0.590585
C71	C	-0.496972	0.960005	0.084625
C72	C	0.003028	1.460005	0.584625
C73	C	-0.366205	0.902968	0.079598
C74	C	0.133795	1.402968	0.579598
C75	C	-0.413591	0.967070	0.085248
C76	C	0.086409	1.467070	0.585248
C77	C	0.253061	0.938839	0.082762
C78	C	0.753061	1.438839	0.582762
C79	C	0.339879	0.946189	0.083404
C80	C	0.839879	1.446189	0.583404
C81	C	0.104871	1.078246	0.095062
C82	C	0.604871	1.578246	0.595062
C83	C	0.106703	1.165547	0.102753
C84	C	0.606703	1.665547	0.602753
N85	N	0.123502	0.922444	0.346849
N86	N	0.623502	1.422444	0.846849
N87	N	0.096700	0.947603	-0.181977
N88	N	0.596700	1.447603	0.318023
C89	C	0.134029	0.912573	0.555020
C90	C	0.634029	1.412573	1.055020
C91	C	0.086175	0.957472	0.609858
C92	C	0.586175	1.457472	1.109858
C93	C	0.092032	0.951980	0.725692
C94	C	0.592032	1.451980	1.225692
C95	C	0.128173	0.918064	0.439176
C96	C	0.628173	1.418064	0.939176
H97	H	0.098359	0.181173	-0.064422
H98	H	0.598359	0.681173	0.435578
H99	H	0.104838	0.704883	-0.106410
H100	H	0.604838	1.204883	0.393590
H101	H	-0.291724	1.039367	0.091639
H102	H	0.208276	1.539367	0.591639
H103	H	0.115375	0.165163	0.271279
H104	H	0.615375	0.665163	0.771279
H105	H	0.101478	0.329976	-0.051273
H106	H	0.601478	0.829976	0.448727
H107	H	-0.143740	1.051903	0.092760
H108	H	0.356260	1.551903	0.592760
H109	H	0.101702	0.556069	-0.119559
H110	H	0.601702	1.056069	0.380441
H111	H	0.116441	0.443255	0.202931
H112	H	0.616441	0.943255	0.702931
H113	H	0.040806	1.000038	0.569812
H114	H	0.540806	1.500038	1.069812
H115	H	0.118700	0.540071	0.216144
H116	H	0.618700	1.040071	0.716144
H117	H	0.121860	0.688872	0.229289
H118	H	0.621860	1.188872	0.729289
H119	H	-0.392025	0.842401	0.074257
H120	H	0.107975	1.342401	0.574257
H121	H	-0.110763	0.794516	0.070039
H122	H	0.389237	1.294516	0.570039
H123	H	-0.521039	1.088059	0.095929
H124	H	-0.021039	1.588059	0.595929
H125	H	0.118496	0.313980	0.284420
H126	H	0.618496	0.813980	0.784420
H127	H	0.179396	0.870011	0.595061
H128	H	0.679396	1.370011	1.095061
H129	H	0.103753	0.426796	-0.038063
H130	H	0.603753	0.926796	0.461937
H131	H	-0.669034	1.075521	0.094818
H132	H	-0.169034	1.575521	0.594818
H133	H	-0.636055	0.818134	0.072125
H134	H	-0.136055	1.318134	0.572125
H135	H	-0.258761	0.781984	0.068923
H136	H	0.241239	1.281984	0.568923
H137	H	-0.488072	0.830670	0.073208
H138	H	0.011928	1.330670	0.573208
H139	H	-0.387777	1.027637	0.090569
H140	H	0.112223	1.527637	0.590569
