data_functionalizedCrystal
_audit_creation_method	'MofGen! by Chris Wilmer'
_symmetry_space_group_name_H-M	'P1'
_symmetry_Int_Tables_number	1
_symmetry_cell_setting	triclinic
loop_
_symmetry_equiv_pos_as_xyz
  x,y,z
_cell_length_a	12.594517
_cell_length_b	19.121063
_cell_length_c	12.594509
_cell_angle_alpha	87.594190
_cell_angle_beta	90.021327
_cell_angle_gamma	92.468805
loop_
_atom_site_label
_atom_site_type_symbol
_atom_site_fract_x
_atom_site_fract_y
_atom_site_fract_z
Zn1	Zn	1.609106	-0.279596	0.619881
Zn2	Zn	2.109106	0.220404	1.119881
Zn3	Zn	1.601367	-0.397059	0.449473
Zn4	Zn	2.101367	0.102941	0.949473
Zn5	Zn	1.431108	-0.279626	0.441911
Zn6	Zn	1.931108	0.220374	0.941911
Zn7	Zn	1.423466	-0.397010	0.627400
Zn8	Zn	1.923466	0.102990	1.127400
O9	O	1.516262	-0.338323	0.534666
O10	O	2.016262	0.161677	1.034666
O11	O	1.757025	-0.295185	0.597293
O12	O	2.257025	0.204815	1.097293
O13	O	1.578742	-0.381514	0.299526
O14	O	2.078742	0.118486	0.799526
O15	O	1.461157	-0.181338	0.459208
O16	O	1.961157	0.318662	0.959208
O17	O	1.751339	-0.381485	0.472096
O18	O	2.251339	0.118515	0.972096
O19	O	1.591931	-0.181315	0.589961
O20	O	2.091931	0.318685	1.089961
O21	O	1.453653	-0.295237	0.293971
O22	O	1.953653	0.204763	0.793971
O23	O	1.281149	-0.295189	0.466499
O24	O	1.781149	0.204811	0.966499
O25	O	1.448132	-0.381402	0.775346
O26	O	1.948132	0.118598	1.275346
O27	O	1.275534	-0.381431	0.602777
O28	O	1.775534	0.118569	1.102777
O29	O	1.584521	-0.295138	0.769822
O30	O	2.084521	0.204862	1.269822
O31	O	1.571331	-0.495337	0.479386
O32	O	2.071331	0.004663	0.979386
O33	O	1.440628	-0.495301	0.610109
O34	O	1.940628	0.004699	1.110109
C35	C	1.239722	-0.338309	0.534634
C36	C	1.739722	0.161691	1.034634
C37	C	1.121416	-0.338319	0.534646
C38	C	1.621416	0.161681	1.034646
C39	C	1.055190	-0.291349	0.460657
C40	C	1.555190	0.208651	0.960657
C41	C	0.980217	-0.355414	0.438606
C42	C	1.480217	0.144586	0.938606
C43	C	0.985587	-0.274285	0.556717
C44	C	1.485587	0.225715	1.056717
C45	C	1.047999	-0.402419	0.512547
C46	C	1.547999	0.097581	1.012547
C47	C	1.053378	-0.321246	0.630701
C48	C	1.553378	0.178754	1.130701
C49	C	0.978435	-0.385356	0.608690
C50	C	1.478435	0.114644	1.108690
C51	C	1.504339	-0.520803	0.546407
C52	C	2.004339	-0.020803	1.046407
C53	C	1.499336	-0.598868	0.551466
C54	C	1.999336	-0.098868	1.051466
C55	C	1.565089	-0.635539	0.485838
C56	C	2.065089	-0.135539	0.985838
C57	C	1.560390	-0.708890	0.490602
C58	C	2.060390	-0.208890	0.990602
C59	C	1.489932	-0.745569	0.560988
C60	C	1.989932	-0.245569	1.060988
C61	C	1.424176	-0.708893	0.626623
C62	C	1.924176	-0.208893	1.126623
C63	C	1.428881	-0.635544	0.621864
C64	C	1.928881	-0.135544	1.121864
C65	C	1.472323	-0.967038	0.578765
C66	C	1.972323	-0.467038	1.078765
C67	C	1.467620	-1.040393	0.583517
C68	C	1.967620	-0.540393	1.083517
C69	C	1.603835	-1.040385	0.447497
C70	C	2.103835	-0.540385	0.947497
C71	C	1.608530	-0.967034	0.442740
C72	C	2.108530	-0.467034	0.942740
C73	C	1.542779	-0.930365	0.508378
C74	C	2.042779	-0.430365	1.008378
C75	C	1.485124	-0.820546	0.565857
C76	C	1.985124	-0.320546	1.065857
C77	C	1.547592	-0.855389	0.503514
C78	C	2.047592	-0.355389	1.003514
C79	C	1.793882	-0.338337	0.534699
C80	C	2.293882	0.161663	1.034699
C81	C	1.912187	-0.338343	0.534713
C82	C	2.412187	0.161657	1.034713
C83	C	1.516337	-0.338261	0.812283
C84	C	2.016337	0.161739	1.312283
C85	C	1.516369	-0.338235	0.930587
C86	C	2.016369	0.161765	1.430587
C87	C	1.528260	-0.155130	0.522903
C88	C	2.028260	0.344870	1.022903
C89	C	1.533373	-0.077064	0.517890
C90	C	2.033373	0.422936	1.017890
C91	C	1.516251	-0.338333	0.258126
C92	C	2.016251	0.161667	0.758126
C93	C	1.516438	-0.338162	0.139810
C94	C	2.016438	0.161838	0.639810
C95	C	1.442211	-0.385127	1.002843
C96	C	1.942211	0.114873	1.502843
C97	C	1.538217	-0.402288	1.074740
C98	C	2.038217	0.097712	1.574740
C99	C	1.420442	-0.321032	1.069487
C100	C	1.920442	0.178968	1.569487
C101	C	1.612424	-0.355429	1.000927
C102	C	2.112424	0.144571	1.500927
C103	C	1.494585	-0.274143	0.995667
C104	C	1.994585	0.225857	1.495667
C105	C	1.590659	-0.291280	1.067530
C106	C	2.090659	0.208720	1.567530
H107	H	1.075422	-0.456598	0.493817
H108	H	1.575422	0.043402	0.993817
Cl109	Cl	0.943038	-0.190664	0.585495
Cl110	Cl	1.443038	0.309336	1.085495
H111	H	0.945025	-0.425134	0.671292
H112	H	1.445025	0.074866	1.171292
H113	H	1.653471	-0.251593	1.095834
H114	H	2.153471	0.248407	1.595834
Cl115	Cl	1.107069	-0.230081	0.363947
Cl116	Cl	1.607069	0.269919	0.863947
H117	H	1.085502	-0.306771	0.711878
H118	H	1.585502	0.193229	1.211878
H119	H	0.948119	-0.369870	0.357403
H120	H	1.448119	0.130130	0.857403
H121	H	1.339288	-0.306512	1.099641
H122	H	1.839288	0.193488	1.599641
Cl123	Cl	1.737747	-0.377951	0.954588
Cl124	Cl	2.237747	0.122049	1.454588
H125	H	1.366812	-0.738763	0.683937
H126	H	1.866812	-0.238763	1.183937
Cl127	Cl	1.653663	-0.589436	0.397341
Cl128	Cl	2.153663	-0.089436	0.897341
H129	H	1.613932	-0.738745	0.437161
H130	H	2.113932	-0.238745	0.937161
H131	H	1.556680	-0.456457	1.109336
H132	H	2.056680	0.043543	1.609336
Cl133	Cl	1.389661	-0.920949	0.661280
Cl134	Cl	1.889661	-0.420949	1.161280
H135	H	1.665902	-0.937172	0.385426
H136	H	2.165902	-0.437172	0.885426
H137	H	1.657368	-1.070249	0.394060
H138	H	2.157368	-0.570249	0.894060
Cl139	Cl	1.379024	-1.086503	0.671995
Cl140	Cl	1.879024	-0.586503	1.171995
H141	H	1.375340	-0.605687	0.675306
H142	H	1.875340	-0.105687	1.175306
Cl143	Cl	1.466034	-0.190533	0.942213
Cl144	Cl	1.966034	0.309467	1.442213
H145	H	1.604963	-0.825523	0.446209
H146	H	2.104963	-0.325523	0.946209
H147	H	1.427755	-0.850418	0.623164
H148	H	1.927755	-0.350418	1.123164
H149	H	1.379541	-0.424844	0.974345
H150	H	1.879541	0.075156	1.474345
