data_functionalizedCrystal
_audit_creation_method	'MofGen! by Chris Wilmer'
_symmetry_space_group_name_H-M	'P1'
_symmetry_Int_Tables_number	1
_symmetry_cell_setting	triclinic
loop_
_symmetry_equiv_pos_as_xyz
  x,y,z
_cell_length_a	15.995292
_cell_length_b	17.019294
_cell_length_c	15.072220
_cell_angle_alpha	86.119892
_cell_angle_beta	89.986330
_cell_angle_gamma	83.431263
loop_
_atom_site_label
_atom_site_type_symbol
_atom_site_fract_x
_atom_site_fract_y
_atom_site_fract_z
O1	O	1.110906	0.101456	-0.081557
O2	O	1.610906	0.601456	0.418443
O3	O	0.867109	0.114060	-0.082516
O4	O	1.367109	0.614060	0.417484
O5	O	0.995808	-0.007076	-0.073259
O6	O	1.495808	0.492924	0.426741
O7	O	0.982208	0.222591	-0.090814
O8	O	1.482208	0.722591	0.409186
O9	O	0.995776	-0.007069	0.074306
O10	O	1.495776	0.492931	0.574306
O11	O	0.867078	0.114066	0.065049
O12	O	1.367078	0.614066	0.565049
O13	O	1.110874	0.101462	0.066008
O14	O	1.610874	0.601462	0.566008
Zn15	Zn	0.988971	0.107765	0.088957
Zn16	Zn	1.488971	0.607765	0.588957
Zn17	Zn	0.989013	0.107757	-0.105465
Zn18	Zn	1.489013	0.607757	0.394535
O19	O	0.982176	0.222598	0.056751
O20	O	1.482176	0.722598	0.556751
C21	C	0.835898	0.113550	-0.008694
C22	C	1.335898	0.613550	0.491306
C23	C	0.742947	0.112012	-0.008575
C24	C	1.242947	0.612012	0.491425
C25	C	0.405216	0.106358	-0.008153
C26	C	0.905216	0.606358	0.491847
C27	C	0.428424	0.193791	-0.015165
C28	C	0.928424	0.693791	0.484835
C29	C	0.525098	0.195452	-0.014956
C30	C	1.025098	0.695452	0.485044
C31	C	0.572768	0.109164	-0.008363
C32	C	1.072768	0.609164	0.491637
C33	C	0.543700	0.065456	0.079242
C34	C	1.043700	0.565456	0.579242
C35	C	0.446911	0.064403	0.079389
C36	C	0.946911	0.564403	0.579389
C37	C	0.447093	0.062610	-0.088283
C38	C	0.947093	0.562610	0.411717
C39	C	0.543582	0.065850	-0.089640
C40	C	1.043582	0.565850	0.410360
C41	C	0.667462	0.110745	-0.008478
C42	C	1.167462	0.610745	0.491522
C43	C	0.310522	0.104775	-0.008031
C44	C	0.810522	0.604775	0.491969
C45	C	0.995275	-0.036461	0.002768
C46	C	1.495275	0.463539	0.502768
C47	C	0.993727	-0.124031	0.009457
C48	C	1.493727	0.375969	0.509457
C49	C	0.993019	-0.165171	-0.067838
C50	C	1.493019	0.334829	0.432162
C51	C	0.991559	-0.247451	-0.061551
C52	C	1.491559	0.252549	0.438449
C53	C	0.990813	-0.288591	0.022031
C54	C	1.490813	0.211409	0.522031
C55	C	0.991519	-0.247445	0.099332
C56	C	1.491519	0.252555	0.599332
C57	C	0.992973	-0.165166	0.093044
C58	C	1.492973	0.334834	0.593044
C59	C	0.986416	-0.537022	0.045041
C60	C	1.486416	-0.037022	0.545041
C61	C	0.984965	-0.619307	0.051323
C62	C	1.484965	-0.119307	0.551323
C63	C	0.985003	-0.619307	-0.109561
C64	C	1.485003	-0.119307	0.390439
C65	C	0.986463	-0.537027	-0.115842
C66	C	1.486463	-0.037027	0.384158
C67	C	0.987164	-0.495888	-0.038541
C68	C	1.487164	0.004112	0.461459
C69	C	0.989323	-0.372695	0.028460
C70	C	1.489323	0.127305	0.528460
C71	C	0.988647	-0.411784	-0.044970
C72	C	1.488647	0.088216	0.455030
C73	C	1.142085	0.101972	-0.007816
C74	C	1.642085	0.601972	0.492184
C75	C	1.235036	0.103510	-0.007941
C76	C	1.735036	0.603510	0.492059
C77	C	0.982708	0.251983	-0.019278
C78	C	1.482708	0.751983	0.480722
C79	C	0.984256	0.339553	-0.025972
C80	C	1.484256	0.839553	0.474028
N81	N	0.988948	0.107771	0.221646
N82	N	1.488948	0.607771	0.721646
N83	N	0.989042	0.107745	-0.238153
N84	N	1.489042	0.607745	0.261847
C85	C	0.989011	0.107753	0.580849
C86	C	1.489011	0.607753	1.080849
C87	C	0.919916	0.172353	0.538305
C88	C	1.419916	0.672353	1.038305
C89	C	0.920074	0.172589	0.435461
C90	C	1.420074	0.672589	0.935461
C91	C	0.988979	0.107762	0.402644
C92	C	1.488979	0.607762	0.902644
C93	C	1.076325	0.125722	0.438561
C94	C	1.576325	0.625722	0.938561
C95	C	1.075938	0.126181	0.541384
C96	C	1.575938	0.626181	1.041384
C97	C	0.971539	0.025002	0.549275
C98	C	1.471539	0.525002	1.049275
C99	C	0.969534	0.025554	0.446369
C100	C	1.469534	0.525554	0.946369
C101	C	0.988967	0.107766	0.301930
C102	C	1.488967	0.607766	0.801930
C103	C	0.989029	0.107752	0.681562
C104	C	1.489029	0.607752	1.181562
H105	H	0.544097	0.229679	-0.077978
H106	H	1.044097	0.729679	0.422022
Cl107	Cl	0.403343	0.104808	-0.190116
Cl108	Cl	0.903343	0.604808	0.309884
H109	H	0.543448	0.229895	0.042918
H110	H	1.043448	0.729895	0.542918
Cl111	Cl	0.385159	0.245823	-0.112442
Cl112	Cl	0.885159	0.745823	0.387558
H113	H	0.987071	-0.503536	-0.183903
H114	H	1.487071	-0.003536	0.316097
H115	H	0.563709	0.095814	0.139632
H116	H	1.063709	0.595814	0.639632
H117	H	0.562128	0.097674	-0.154411
H118	H	1.062128	0.597674	0.345589
Cl119	Cl	0.984120	-0.671029	-0.206732
Cl120	Cl	1.484120	-0.171029	0.293268
H121	H	1.016597	-0.024769	0.424507
H122	H	1.516597	0.475231	0.924507
Cl123	Cl	0.936897	0.266635	0.570970
Cl124	Cl	1.436897	0.766635	1.070970
H125	H	0.399353	0.227307	0.042363
H126	H	0.899353	0.727307	0.542363
H127	H	0.420044	0.094679	0.140066
H128	H	0.920044	0.594679	0.640066
Cl129	Cl	0.993862	-0.113447	0.190219
Cl130	Cl	1.493862	0.386553	0.690219
H131	H	0.432435	0.000298	0.088116
H132	H	0.932435	0.500298	0.588116
Cl133	Cl	0.993963	-0.113461	-0.172919
Cl134	Cl	1.493963	0.386539	0.327081
H135	H	0.984353	-0.652801	0.119389
H136	H	1.484353	-0.152801	0.619389
Cl137	Cl	0.937251	0.267409	0.390204
Cl138	Cl	1.437251	0.767409	0.890204
H139	H	0.987004	-0.503538	0.107985
H140	H	1.487004	-0.003538	0.607985
H141	H	1.091349	0.186531	0.560752
H142	H	1.591349	0.686531	1.060752
Cl143	Cl	0.990571	-0.299163	0.204408
Cl144	Cl	1.490571	0.200837	0.704408
Cl145	Cl	0.989590	-0.360065	-0.150042
Cl146	Cl	1.489590	0.139935	0.349958
H147	H	0.854777	0.161832	0.563872
H148	H	1.354777	0.661832	1.063872
H149	H	0.990986	-0.280944	-0.124493
H150	H	1.490986	0.219056	0.375507
Cl151	Cl	0.988381	-0.424420	0.133532
Cl152	Cl	1.488381	0.075580	0.633532
Cl153	Cl	0.819813	0.156124	0.397794
Cl154	Cl	1.319813	0.656124	0.897794
Cl155	Cl	1.157620	0.056223	0.585140
Cl156	Cl	1.657620	0.556223	1.085140
Cl157	Cl	1.157600	0.055011	0.406192
Cl158	Cl	1.657600	0.555011	0.906192
H159	H	1.092107	0.185384	0.408231
H160	H	1.592107	0.685384	0.908231
Cl161	Cl	0.594594	-0.031395	-0.090066
Cl162	Cl	1.094594	0.468605	0.409934
Cl163	Cl	0.875329	-0.001653	0.591409
Cl164	Cl	1.375329	0.498347	1.091409
Cl165	Cl	0.870333	0.004506	0.410352
Cl166	Cl	1.370333	0.504506	0.910352
Cl167	Cl	0.425612	-0.036751	-0.081568
Cl168	Cl	0.925612	0.463249	0.418432
Cl169	Cl	1.049333	-0.049220	0.592493
Cl170	Cl	1.549333	0.450780	1.092493
H171	H	0.575643	0.001959	0.087227
H172	H	1.075643	0.501959	0.587227
