data_functionalizedCrystal
_audit_creation_method	'MofGen! by Chris Wilmer'
_symmetry_space_group_name_H-M	'P1'
_symmetry_Int_Tables_number	1
_symmetry_cell_setting	triclinic
loop_
_symmetry_equiv_pos_as_xyz
  x,y,z
_cell_length_a	18.050590
_cell_length_b	13.032721
_cell_length_c	13.032268
_cell_angle_alpha	103.289627
_cell_angle_beta	97.179226
_cell_angle_gamma	97.191822
loop_
_atom_site_label
_atom_site_type_symbol
_atom_site_fract_x
_atom_site_fract_y
_atom_site_fract_z
Zn1	Zn	1.031259	-0.499313	-0.653851
Zn2	Zn	1.364592	-0.165980	-0.320518
Zn3	Zn	1.697925	0.167354	0.012816
Zn4	Zn	1.031178	-0.654397	-0.498799
Zn5	Zn	1.364511	-0.321064	-0.165466
Zn6	Zn	1.697844	0.012269	0.167868
Zn7	Zn	0.925132	-0.476784	-0.476307
Zn8	Zn	1.258466	-0.143451	-0.142973
Zn9	Zn	1.591799	0.189883	0.190360
Zn10	Zn	0.888983	-0.676839	-0.676389
Zn11	Zn	1.222317	-0.343506	-0.343056
Zn12	Zn	1.555650	-0.010172	-0.009723
O13	O	0.969138	-0.576833	-0.576336
O14	O	1.302471	-0.243500	-0.243003
O15	O	1.635805	0.089833	0.090330
O16	O	1.135171	-0.519922	-0.633264
O17	O	1.468504	-0.186588	-0.299930
O18	O	1.801838	0.146745	0.033403
O19	O	1.032205	-0.612016	-0.347190
O20	O	1.365538	-0.278683	-0.013857
O21	O	1.698872	0.054651	0.319476
O22	O	0.954373	-0.331145	-0.481013
O23	O	1.287706	0.002188	-0.147680
O24	O	1.621039	0.335521	0.185654
O25	O	1.135111	-0.633861	-0.519348
O26	O	1.468445	-0.300528	-0.186014
O27	O	1.801778	0.032805	0.147319
O28	O	1.032343	-0.347697	-0.611454
O29	O	1.365677	-0.014364	-0.278121
O30	O	1.699010	0.318969	0.055213
O31	O	0.954294	-0.481524	-0.330665
O32	O	1.287627	-0.148191	0.002668
O33	O	1.620961	0.185142	0.336001
O34	O	0.816414	-0.503285	-0.502867
O35	O	1.149747	-0.169952	-0.169534
O36	O	1.483081	0.163381	0.163799
O37	O	0.892762	-0.672110	-0.822024
O38	O	1.226095	-0.338777	-0.488691
O39	O	1.559429	-0.005444	-0.155358
O40	O	0.789856	-0.650265	-0.649867
O41	O	1.123189	-0.316932	-0.316534
O42	O	1.456522	0.016402	0.016800
O43	O	0.997291	-0.541683	-0.805466
O44	O	1.330624	-0.208349	-0.472132
O45	O	1.663958	0.124984	-0.138799
O46	O	0.997153	-0.806001	-0.541202
O47	O	1.330486	-0.472668	-0.207869
O48	O	1.663820	-0.139335	0.125465
O49	O	0.892683	-0.822489	-0.671677
O50	O	1.226017	-0.489156	-0.338343
O51	O	1.559350	-0.155823	-0.005010
C52	C	0.776189	-0.576767	-0.576373
C53	C	1.109522	-0.243433	-0.243040
C54	C	1.442855	0.089900	0.090294
C55	C	0.693639	-0.576767	-0.576417
C56	C	1.026972	-0.243433	-0.243084
C57	C	1.360306	0.089900	0.090250
C58	C	0.941005	-0.852786	-0.611349
C59	C	1.274338	-0.519452	-0.278016
C60	C	1.607671	-0.186119	0.055318
C61	C	0.929033	-0.970844	-0.626363
C62	C	1.262367	-0.637510	-0.293029
C63	C	1.595700	-0.304177	0.040304
C64	C	0.975421	-1.015291	-0.568548
C65	C	1.308754	-0.681958	-0.235215
C66	C	1.642087	-0.348625	0.098118
C67	C	0.963049	-1.137310	-0.584065
C68	C	1.296382	-0.803977	-0.250731
C69	C	1.629715	-0.470644	0.082602
C70	C	0.479764	-0.656876	-0.656213
C71	C	0.813097	-0.323543	-0.322879
C72	C	1.146430	0.009791	0.010454
C73	C	0.437556	-0.563345	-0.670048
C74	C	0.770890	-0.230012	-0.336715
C75	C	1.104223	0.103321	-0.003382
C76	C	0.542508	-0.576820	-0.576373
C77	C	0.875841	-0.243486	-0.243039
C78	C	1.209174	0.089847	0.090294
C79	C	0.437628	-0.670406	-0.562543
C80	C	0.770961	-0.337072	-0.229210
C81	C	1.104295	-0.003739	0.104123
C82	C	0.396521	-0.576879	-0.576333
C83	C	0.729854	-0.243546	-0.243000
C84	C	1.063187	0.089787	0.090334
C85	C	0.501388	-0.483244	-0.590252
C86	C	0.834721	-0.149910	-0.256919
C87	C	1.168054	0.183423	0.076414
C88	C	0.501462	-0.590364	-0.482710
C89	C	0.834795	-0.257030	-0.149377
C90	C	1.168128	0.076303	0.183956
C91	C	0.459287	-0.496761	-0.496501
C92	C	0.792620	-0.163428	-0.163167
C93	C	1.125954	0.169905	0.170166
C94	C	0.626607	-0.576787	-0.576399
C95	C	0.959940	-0.243454	-0.243065
C96	C	1.293273	0.089880	0.090268
C97	C	0.312425	-0.576901	-0.576306
C98	C	0.645758	-0.243568	-0.242972
C99	C	0.979091	0.089766	0.090361
C100	C	1.162841	-0.576901	-0.576301
C101	C	1.496174	-0.243568	-0.242967
C102	C	1.829507	0.089766	0.090366
C103	C	1.245385	-0.576930	-0.576285
C104	C	1.578719	-0.243597	-0.242952
C105	C	1.912052	0.089737	0.090381
C106	C	0.941003	-0.611913	-0.853359
C107	C	1.274337	-0.278580	-0.520026
C108	C	1.607670	0.054754	-0.186693
C109	C	0.929014	-0.626862	-0.971410
C110	C	1.262347	-0.293528	-0.638077
C111	C	1.595681	0.039805	-0.304743
C112	C	0.997399	-0.299806	-0.541211
C113	C	1.330733	0.033527	-0.207877
C114	C	1.664066	0.366860	0.125456
C115	C	1.009442	-0.181754	-0.526242
C116	C	1.342776	0.151579	-0.192909
C117	C	1.676109	0.484913	0.140425
C118	C	0.975388	-0.568993	-1.015848
C119	C	1.308721	-0.235660	-0.682515
C120	C	1.642054	0.097673	-0.349181
C121	C	0.962997	-0.584442	-1.137859
C122	C	1.296331	-0.251109	-0.804526
C123	C	1.629664	0.082225	-0.471193
C124	C	0.997214	-0.541814	-0.300381
C125	C	1.330547	-0.208480	0.032952
C126	C	1.663880	0.124853	0.366285
C127	C	1.009377	-0.526566	-0.182293
C128	C	1.342711	-0.193232	0.151040
C129	C	1.676044	0.140101	0.484373
H130	H	0.914175	-1.189588	-0.645057
H131	H	1.247508	-0.856255	-0.311724
H132	H	1.580842	-0.522922	0.021610
H133	H	0.489231	-0.724480	-0.723785
H134	H	0.822565	-0.391147	-0.390451
H135	H	1.155898	-0.057814	-0.057118
O136	O	1.074128	-0.445789	-1.113052
O137	O	1.407462	-0.112456	-0.779719
O138	O	1.740795	0.220877	-0.446386
H139	H	1.067756	-0.365093	-1.123705
H140	H	1.401089	-0.031760	-0.790371
H141	H	1.734423	0.301573	-0.457038
H142	H	0.880135	-0.687835	-1.023693
H143	H	1.213468	-0.354502	-0.690360
H144	H	1.546801	-0.021169	-0.357026
O145	O	0.400564	-0.548291	-0.774917
O146	O	0.733897	-0.214958	-0.441584
O147	O	1.067231	0.118375	-0.108251
H148	H	0.408299	-0.614854	-0.841077
H149	H	0.741633	-0.281520	-0.507743
H150	H	1.074966	0.051813	-0.174410
O151	O	1.074192	-1.112522	-0.445459
O152	O	1.407525	-0.779189	-0.112126
O153	O	1.740859	-0.445856	0.221207
H154	H	1.051562	-1.055192	-0.385010
H155	H	1.384896	-0.721858	-0.051676
H156	H	1.718229	-0.388525	0.281657
O157	O	0.400840	-0.775197	-0.547047
O158	O	0.734173	-0.441864	-0.213714
O159	O	1.067506	-0.108530	0.119620
H160	H	0.427387	-0.786971	-0.469937
H161	H	0.760720	-0.453638	-0.136604
H162	H	1.094054	-0.120304	0.196730
H163	H	0.880163	-1.023125	-0.687351
H164	H	1.213496	-0.689792	-0.354018
H165	H	1.546829	-0.356458	-0.020684
O166	O	1.040176	-0.946057	-0.487785
O167	O	1.373509	-0.612724	-0.154452
O168	O	1.706842	-0.279390	0.178881
H169	H	1.039735	-0.861084	-0.488279
H170	H	1.373069	-0.527751	-0.154946
H171	H	1.706402	-0.194417	0.178387
O172	O	0.538033	-0.378426	-0.605859
O173	O	0.871366	-0.045092	-0.272526
O174	O	1.204700	0.288241	0.060808
H175	H	0.599453	-0.379241	-0.605797
H176	H	0.932786	-0.045907	-0.272464
H177	H	1.266120	0.287426	0.060869
H178	H	1.024261	-0.508009	-0.963564
H179	H	1.357594	-0.174676	-0.630230
H180	H	1.690927	0.158658	-0.296897
O181	O	0.898247	-0.665224	-1.207096
O182	O	1.231581	-0.331891	-0.873763
O183	O	1.564914	0.001443	-0.540429
H184	H	0.898678	-0.664685	-1.292064
H185	H	1.232011	-0.331352	-0.958730
H186	H	1.565345	0.001981	-0.625397
H187	H	0.449968	-0.429016	-0.428957
H188	H	0.783302	-0.095683	-0.095624
H189	H	1.116635	0.237650	0.237710
H190	H	0.529302	-0.601834	-0.403548
H191	H	0.862635	-0.268501	-0.070215
H192	H	1.195969	0.064832	0.263119
