data_functionalizedCrystal
_audit_creation_method	'MofGen! by Chris Wilmer'
_symmetry_space_group_name_H-M	'P1'
_symmetry_Int_Tables_number	1
_symmetry_cell_setting	triclinic
loop_
_symmetry_equiv_pos_as_xyz
  x,y,z
_cell_length_a	25.639242
_cell_length_b	29.839131
_cell_length_c	25.639233
_cell_angle_alpha	89.980415
_cell_angle_beta	89.977834
_cell_angle_gamma	90.036947
loop_
_atom_site_label
_atom_site_type_symbol
_atom_site_fract_x
_atom_site_fract_y
_atom_site_fract_z
Zn1	Zn	0.799215	-0.178962	-0.295739
Zn2	Zn	0.799134	-0.254076	-0.208302
Zn3	Zn	0.711791	-0.178955	-0.208303
Zn4	Zn	0.711732	-0.254059	-0.295692
O5	O	0.755468	-0.216513	-0.252009
O6	O	0.872370	-0.188935	-0.284160
O7	O	0.787539	-0.244115	-0.135137
O8	O	0.723447	-0.116089	-0.219922
O9	O	0.872310	-0.244122	-0.219920
O10	O	0.787677	-0.116094	-0.284161
O11	O	0.723369	-0.188924	-0.135138
O12	O	0.638618	-0.188908	-0.219876
O13	O	0.723346	-0.244093	-0.368864
O14	O	0.638575	-0.244087	-0.284081
O15	O	0.787619	-0.188919	-0.368898
O16	O	0.787482	-0.316941	-0.219875
O17	O	0.723268	-0.316929	-0.284080
C18	C	0.619626	-0.216495	-0.251974
C19	C	0.561512	-0.216499	-0.251971
C20	C	0.201135	-0.245293	-0.285409
C21	C	0.146531	-0.245295	-0.285417
O22	O	0.118282	-0.269755	-0.313817
N23	N	0.119229	-0.216525	-0.252043
C24	C	0.146535	-0.187748	-0.218663
O25	O	0.118299	-0.163276	-0.190277
C26	C	0.201138	-0.187743	-0.218658
C27	C	0.228437	-0.216518	-0.252030
C28	C	0.228434	-0.274065	-0.318778
C29	C	0.283034	-0.274063	-0.318769
C30	C	0.310336	-0.245288	-0.285390
C31	C	0.283037	-0.216516	-0.252021
C32	C	0.228443	-0.158963	-0.185281
C33	C	0.283050	-0.158961	-0.185279
C34	C	0.310349	-0.187736	-0.218651
C35	C	0.364940	-0.187739	-0.218633
N36	N	0.392241	-0.216509	-0.252006
C37	C	0.364939	-0.245283	-0.285385
C38	C	0.031864	-0.187759	-0.218677
C39	C	-0.022738	-0.187766	-0.218679
C40	C	-0.022739	-0.245313	-0.285434
C41	C	0.031865	-0.245308	-0.285429
C42	C	0.059166	-0.216529	-0.252051
C43	C	0.479604	-0.245277	-0.285363
C44	C	0.534210	-0.245273	-0.285350
C45	C	0.534206	-0.187724	-0.218597
C46	C	0.479605	-0.187729	-0.218609
C47	C	0.452306	-0.216507	-0.251996
O48	O	0.393223	-0.163290	-0.190249
O49	O	0.393182	-0.269746	-0.313771
C50	C	0.755374	-0.333236	-0.251983
C51	C	0.755381	-0.383170	-0.251990
C52	C	0.788965	-0.692807	-0.218627
C53	C	0.789030	-0.880480	-0.218647
O54	O	0.817509	-0.904740	-0.190260
N55	N	0.755577	-0.903955	-0.252049
C56	C	0.722108	-0.880509	-0.285450
O57	O	0.693659	-0.904782	-0.313865
C58	C	0.722046	-0.692837	-0.285432
C59	C	0.755498	-0.669364	-0.252024
C60	C	0.822415	-0.669335	-0.185222
C61	C	0.822396	-0.622419	-0.185215
C62	C	0.788928	-0.598976	-0.218613
C63	C	0.755479	-0.622449	-0.252018
C64	C	0.688580	-0.669391	-0.318836
C65	C	0.688568	-0.622470	-0.318829
C66	C	0.722020	-0.598998	-0.285422
C67	C	0.721993	-0.552090	-0.285409
N68	N	0.755446	-0.528615	-0.252007
C69	C	0.788914	-0.552058	-0.218609
C70	C	0.722141	-0.979039	-0.285457
C71	C	0.722156	-1.025957	-0.285461
C72	C	0.789079	-1.025925	-0.218658
C73	C	0.789062	-0.979007	-0.218652
C74	C	0.755595	-0.955565	-0.252055
C75	C	0.788872	-0.453533	-0.218597
C76	C	0.788849	-0.406613	-0.218592
C77	C	0.721928	-0.406649	-0.285396
C78	C	0.721949	-0.453564	-0.285400
C79	C	0.755425	-0.477005	-0.251999
O80	O	0.693533	-0.527802	-0.313784
O81	O	0.817366	-0.527777	-0.190207
C82	C	0.788984	-0.739723	-0.218633
C83	C	0.755535	-0.763195	-0.252038
C84	C	0.722067	-0.739752	-0.285436
C85	C	0.755549	-0.810113	-0.252042
C86	C	0.789017	-0.833556	-0.218644
C87	C	0.822470	-0.810081	-0.185242
C88	C	0.822451	-0.763166	-0.185235
C89	C	0.688614	-0.763227	-0.318838
C90	C	0.688635	-0.810143	-0.318841
C91	C	0.722102	-0.833585	-0.285443
C92	C	0.891841	-0.216531	-0.252045
C93	C	0.949955	-0.216539	-0.252060
C94	C	0.755485	-0.216505	-0.388382
C95	C	0.755492	-0.216502	-0.446496
C96	C	0.755577	-0.099335	-0.252047
C97	C	0.755624	-0.049400	-0.252063
C98	C	0.789002	-0.187687	-0.806883
C99	C	0.789008	-0.187675	-0.861488
O100	O	0.817457	-0.163229	-0.889744
N101	N	0.755550	-0.216396	-0.888779
C102	C	0.722079	-0.245129	-0.861463
O103	O	0.693621	-0.269558	-0.889691
C104	C	0.722071	-0.245139	-0.806860
C105	C	0.755535	-0.216419	-0.779571
C106	C	0.822463	-0.158969	-0.779594
C107	C	0.822457	-0.158982	-0.724994
C108	C	0.788990	-0.187714	-0.697682
C109	C	0.755529	-0.216432	-0.724971
C110	C	0.688598	-0.273869	-0.779545
C111	C	0.688592	-0.273876	-0.724938
C112	C	0.722056	-0.245156	-0.697650
C113	C	0.722056	-0.245176	-0.643058
N114	N	0.755514	-0.216455	-0.615767
C115	C	0.788981	-0.187723	-0.643079
C116	C	0.722100	-0.245106	-0.976134
C117	C	0.722110	-0.245099	-1.030736
C118	C	0.789039	-0.187644	-1.030757
C119	C	0.789030	-0.187653	-0.976153
C120	C	0.755558	-0.216384	-0.948843
C121	C	0.788967	-0.187753	-0.528414
C122	C	0.788959	-0.187770	-0.473808
C123	C	0.722029	-0.245223	-0.473793
C124	C	0.722038	-0.245208	-0.528393
C125	C	0.755509	-0.216470	-0.555702
O126	O	0.693620	-0.269609	-0.614767
O127	O	0.817430	-0.163295	-0.614845
C128	C	0.755482	-0.216488	-0.116167
C129	C	0.755576	-0.216365	-0.058053
H130	H	0.305276	-0.135522	-0.158101
O131	O	0.309604	-0.301948	-0.351220
C132	C	0.341209	-0.276410	-0.385050
H133	H	0.349410	-0.242343	-0.366678
H134	H	0.379594	-0.294718	-0.392025
H135	H	0.320180	-0.271518	-0.423804
O136	O	0.656152	-0.301810	-0.698349
C137	C	0.685890	-0.330845	-0.666781
H138	H	0.725527	-0.315007	-0.658615
H139	H	0.664585	-0.336871	-0.628377
H140	H	0.691605	-0.364133	-0.687824
O141	O	0.560751	-0.273273	-0.317696
C142	C	0.592310	-0.302244	-0.287867
H143	H	0.575832	-0.304969	-0.246684
H144	H	0.592914	-0.336841	-0.306705
H145	H	0.633702	-0.288351	-0.286090
H146	H	0.816279	-0.164266	-0.953939
H147	H	0.849719	-0.829176	-0.158047
O148	O	0.854946	-0.599691	-0.152752
C149	C	0.884478	-0.630451	-0.123272
H150	H	0.886275	-0.663885	-0.144696
H151	H	0.925675	-0.616870	-0.117742
H152	H	0.865365	-0.635471	-0.083541
O153	O	0.453032	-0.159751	-0.186266
C154	C	0.421505	-0.130765	-0.216111
H155	H	0.413330	-0.146667	-0.255696
H156	H	0.383102	-0.124703	-0.194836
H157	H	0.442587	-0.097486	-0.221932
O158	O	0.560792	-0.159837	-0.186150
C159	C	0.592333	-0.185370	-0.152316
H160	H	0.600492	-0.219441	-0.170680
H161	H	0.630743	-0.167064	-0.145351
H162	H	0.571272	-0.190252	-0.113558
H163	H	0.457384	-0.268709	-0.312552
H164	H	0.816220	-0.164350	-0.550642
H165	H	0.816288	-0.164248	-1.053004
O166	O	0.656068	-0.301707	-0.806106
C167	C	0.622317	-0.276121	-0.837678
H168	H	0.640788	-0.242076	-0.845871
H169	H	0.615298	-0.294415	-0.876069
H170	H	0.583573	-0.271184	-0.816625
H171	H	0.694866	-0.268490	-1.052950
O172	O	0.689573	-0.273066	-0.949687
C173	C	0.660039	-0.298404	-0.985489
H174	H	0.681462	-0.299948	-1.024416
H175	H	0.654431	-0.333806	-0.969713
H176	H	0.620344	-0.281950	-0.991289
O177	O	0.058438	-0.273195	-0.317875
C178	C	0.090043	-0.247658	-0.351708
H179	H	0.098240	-0.213589	-0.333340
H180	H	0.128430	-0.265964	-0.358677
H181	H	0.069016	-0.242772	-0.390464
H182	H	0.694794	-0.268599	-0.550613
H183	H	0.694677	-0.387554	-0.312587
H184	H	0.694783	-0.268617	-0.451545
O185	O	-0.049207	-0.273241	-0.317935
C186	C	-0.035844	-0.263480	-0.370065
H187	H	0.003816	-0.246212	-0.371182
H188	H	-0.033991	-0.295931	-0.393443
H189	H	-0.066549	-0.240403	-0.387724
O190	O	0.201866	-0.131003	-0.152927
C191	C	0.170313	-0.102017	-0.182745
H192	H	0.162145	-0.117901	-0.222342
H193	H	0.131909	-0.095989	-0.161461
H194	H	0.191370	-0.068723	-0.188544
O195	O	0.201998	-0.302063	-0.351221
C196	C	0.237812	-0.327444	-0.380677
H197	H	0.276722	-0.328961	-0.359250
H198	H	0.222025	-0.362852	-0.386179
H199	H	0.243650	-0.311045	-0.420422
H200	H	-0.044960	-0.164338	-0.191499
H201	H	0.054089	-0.164324	-0.191493
O202	O	0.821517	-0.159931	-0.447274
C203	C	0.855253	-0.185513	-0.415683
H204	H	0.858460	-0.220893	-0.432134
H205	H	0.895502	-0.169264	-0.415073
H206	H	0.839078	-0.187069	-0.374297
H207	H	0.816089	-0.387503	-0.191385
H208	H	0.694912	-1.045065	-0.312660
H209	H	0.816133	-0.472612	-0.191400
H210	H	0.849706	-0.135594	-0.702780
O211	O	0.821605	-1.048772	-0.186295
C212	C	0.814447	-1.095215	-0.193474
H213	H	0.797251	-1.101607	-0.233788
H214	H	0.853630	-1.113006	-0.190032
H215	H	0.786674	-1.108586	-0.162407
O216	O	0.855013	-0.692108	-0.152867
C217	C	0.888767	-0.719199	-0.182690
H218	H	0.891917	-0.705050	-0.223878
H219	H	0.929032	-0.719672	-0.163854
H220	H	0.872647	-0.754782	-0.184453
O221	O	0.821607	-0.956277	-0.186185
C222	C	0.851135	-0.987035	-0.156699
H223	H	0.852938	-1.020470	-0.178122
H224	H	0.892331	-0.973452	-0.151162
H225	H	0.832016	-0.992055	-0.116971
O226	O	0.689576	-0.956341	-0.317919
C227	C	0.660064	-0.987126	-0.347405
H228	H	0.658288	-1.020579	-0.325986
H229	H	0.618859	-0.973607	-0.352933
H230	H	0.679181	-0.992088	-0.387136
O231	O	0.656082	-0.832961	-0.351222
C232	C	0.622348	-0.860152	-0.321432
H233	H	0.619135	-0.846037	-0.280246
H234	H	0.582101	-0.860708	-0.340305
H235	H	0.638527	-0.895698	-0.319657
O236	O	0.656142	-0.692164	-0.351367
C237	C	0.667530	-0.680653	-0.403483
H238	H	0.709295	-0.667725	-0.406156
H239	H	0.663018	-0.711496	-0.429321
H240	H	0.639487	-0.653430	-0.417113
O241	O	0.656132	-0.599678	-0.351333
C242	C	0.685866	-0.572493	-0.385121
H243	H	0.727049	-0.586595	-0.388394
H244	H	0.666931	-0.571961	-0.425339
H245	H	0.687663	-0.536939	-0.368954
H246	H	0.694712	-0.472677	-0.312605
O247	O	0.854998	-0.740437	-0.152769
C248	C	0.884528	-0.771197	-0.123287
H249	H	0.886330	-0.804631	-0.144713
H250	H	0.925724	-0.757615	-0.117752
H251	H	0.865411	-0.776219	-0.083559
H252	H	0.849716	-0.135570	-0.801826
O253	O	0.656049	-0.740528	-0.351296
C254	C	0.626540	-0.771313	-0.380784
H255	H	0.624766	-0.804767	-0.359368
H256	H	0.585333	-0.757796	-0.386311
H257	H	0.645657	-0.776271	-0.420516
