data_functionalizedCrystal
_audit_creation_method	'MofGen! by Chris Wilmer'
_symmetry_space_group_name_H-M	'P1'
_symmetry_Int_Tables_number	1
_symmetry_cell_setting	triclinic
loop_
_symmetry_equiv_pos_as_xyz
  x,y,z
_cell_length_a	12.645331
_cell_length_b	21.295417
_cell_length_c	12.645323
_cell_angle_alpha	90.033992
_cell_angle_beta	90.022676
_cell_angle_gamma	90.029485
loop_
_atom_site_label
_atom_site_type_symbol
_atom_site_fract_x
_atom_site_fract_y
_atom_site_fract_z
Zn1	Zn	1.620637	-0.250621	0.599379
Zn2	Zn	2.120637	0.249379	1.099379
Zn3	Zn	1.620479	-0.355896	0.422091
Zn4	Zn	2.120479	0.144104	0.922091
Zn5	Zn	1.443351	-0.250643	0.422123
Zn6	Zn	1.943351	0.249357	0.922123
Zn7	Zn	1.443294	-0.355855	0.599306
Zn8	Zn	1.943294	0.144145	1.099306
O9	O	1.531940	-0.303254	0.510725
O10	O	2.031940	0.196746	1.010725
O11	O	1.768963	-0.264595	0.575878
O12	O	2.268963	0.235405	1.075878
O13	O	1.596941	-0.341960	0.273748
O14	O	2.096941	0.158040	0.773748
O15	O	1.466959	-0.162550	0.445681
O16	O	1.966959	0.337450	0.945681
O17	O	1.768847	-0.341939	0.445625
O18	O	2.268847	0.158061	0.945625
O19	O	1.597210	-0.162535	0.575910
O20	O	2.097210	0.337465	1.075910
O21	O	1.466806	-0.264631	0.273772
O22	O	1.966806	0.235369	0.773772
O23	O	1.294996	-0.264591	0.445610
O24	O	1.794996	0.235409	0.945610
O25	O	1.466860	-0.341869	0.747663
O26	O	1.966860	0.158131	1.247663
O27	O	1.294954	-0.341890	0.575786
O28	O	1.794954	0.158110	1.075786
O29	O	1.597154	-0.264555	0.747717
O30	O	2.097154	0.235445	1.247717
O31	O	1.596884	-0.443980	0.445555
O32	O	2.096884	0.056020	0.945555
O33	O	1.466707	-0.443950	0.575754
O34	O	1.966707	0.056050	1.075754
C35	C	1.256510	-0.303239	0.510694
C36	C	1.756510	0.196761	1.010694
C37	C	1.138680	-0.303247	0.510706
C38	C	1.638680	0.196753	1.010706
C39	C	0.971108	-0.254395	0.429265
C40	C	1.471108	0.245605	0.929265
C41	C	1.093667	-0.254521	0.428906
C42	C	1.593667	0.245479	0.928906
C43	C	1.094135	-0.369560	0.480174
C44	C	1.594135	0.130440	0.980174
C45	C	0.971537	-0.369293	0.479618
C46	C	1.471537	0.130707	0.979618
C47	C	0.971537	-0.286418	0.622995
C48	C	1.471537	0.213582	1.122995
C49	C	1.094144	-0.284937	0.622372
C50	C	1.594144	0.215063	1.122372
C51	C	1.531801	-0.466805	0.510666
C52	C	2.031801	0.033195	1.010666
C53	C	1.531839	-0.536773	0.510677
C54	C	2.031839	-0.036773	1.010677
C55	C	1.599682	-0.569635	0.442951
C56	C	2.099682	-0.069635	0.942951
C57	C	1.599732	-0.635377	0.442975
C58	C	2.099732	-0.135377	0.942975
C59	C	1.531919	-0.668256	0.510713
C60	C	2.031919	-0.168256	1.010713
C61	C	1.464071	-0.635386	0.578452
C62	C	1.964071	-0.135386	1.078452
C63	C	1.464031	-0.569645	0.578433
C64	C	1.964031	-0.069645	1.078433
N65	N	1.439183	-0.771521	0.518784
N66	N	1.939183	-0.271521	1.018784
N67	N	1.439224	-0.833972	0.518796
N68	N	1.939224	-0.333972	1.018796
C69	C	1.532038	-0.866331	0.510774
C70	C	2.032038	-0.366331	1.010774
N71	N	1.624811	-0.833879	0.502720
N72	N	2.124811	-0.333879	1.002720
N73	N	1.624768	-0.771421	0.502703
N74	N	2.124768	-0.271421	1.002703
C75	C	1.531956	-0.739541	0.510741
C76	C	2.031956	-0.239541	1.010741
C77	C	1.599941	-0.970478	0.443071
C78	C	2.099941	-0.470478	0.943071
C79	C	1.599993	-1.036221	0.443102
C80	C	2.099993	-0.536221	0.943102
C81	C	1.464322	-1.036229	0.578573
C82	C	1.964322	-0.536229	1.078573
C83	C	1.464280	-0.970487	0.578547
C84	C	1.964280	-0.470487	1.078547
C85	C	1.532088	-0.937615	0.510791
C86	C	2.032088	-0.437615	1.010791
C87	C	1.808445	-0.303269	0.510756
C88	C	2.308445	0.196731	1.010756
C89	C	1.926275	-0.303276	0.510770
C90	C	2.426275	0.196724	1.010770
C91	C	1.532018	-0.303205	0.787230
C92	C	2.032018	0.196795	1.287230
C93	C	1.532052	-0.303184	0.905061
C94	C	2.032052	0.196816	1.405061
C95	C	1.532109	-0.139063	0.510807
C96	C	2.032109	0.360937	1.010807
C97	C	1.532180	-0.069095	0.510842
C98	C	2.032180	0.430905	1.010842
C99	C	1.531923	-0.303257	0.235295
C100	C	2.031923	0.196743	0.735295
C101	C	1.532096	-0.303100	0.117466
C102	C	2.032096	0.196900	0.617466
C103	C	1.449831	-0.351594	1.072591
C104	C	1.949831	0.148406	1.572591
C105	C	1.450046	-0.351833	0.950031
C106	C	1.950046	0.148167	1.450031
C107	C	1.643744	-0.321189	0.949576
C108	C	2.143744	0.178811	1.449576
C109	C	1.643293	-0.321492	1.072174
C110	C	2.143293	0.178508	1.572174
C111	C	1.503635	-0.236500	1.072276
C112	C	2.003635	0.263500	1.572276
C113	C	1.501143	-0.236899	0.949670
C114	C	2.001143	0.263101	1.449670
H115	H	0.940659	-0.238907	0.650759
H116	H	1.440659	0.261093	1.150759
Cl117	Cl	1.374232	-0.215937	0.904763
Cl118	Cl	1.874232	0.284063	1.404763
Cl119	Cl	1.684942	-0.528314	0.357787
Cl120	Cl	2.184942	-0.028314	0.857787
H121	H	1.409112	-1.062998	0.633731
H122	H	1.909112	-0.562998	1.133731
H123	H	1.409031	-0.943729	0.633691
H124	H	1.909031	-0.443729	1.133691
H125	H	1.408783	-0.542889	0.633585
H126	H	1.908783	-0.042889	1.133585
H127	H	1.706664	-0.287705	1.101861
H128	H	2.206664	0.212295	1.601861
H129	H	1.706680	-0.286986	0.920449
H130	H	2.206680	0.213014	1.420449
Cl131	Cl	1.322172	-0.334436	0.903556
Cl132	Cl	1.822172	0.165564	1.403556
H133	H	1.408859	-0.662160	0.633606
H134	H	1.908859	-0.162160	1.133606
H135	H	1.366761	-0.340435	1.102068
H136	H	1.866761	0.159565	1.602068
H137	H	1.123290	-0.406953	0.537674
H138	H	1.623290	0.093047	1.037674
H139	H	1.668285	-0.369365	0.918874
H140	H	2.168285	0.130635	1.418874
H141	H	1.468434	-0.400659	1.103397
H142	H	1.968434	0.099341	1.603397
H143	H	1.655158	-0.943712	0.387902
H144	H	2.155158	-0.443712	0.887902
H145	H	1.423608	-0.220088	1.103185
H146	H	1.923608	0.279912	1.603185
H147	H	1.123266	-0.236138	0.645395
H148	H	1.623266	0.263862	1.145395
Cl149	Cl	1.479111	-0.428055	0.904744
Cl150	Cl	1.979111	0.071945	1.404744
H151	H	1.655246	-1.062976	0.387954
H152	H	2.155246	-0.562976	0.887954
Cl153	Cl	0.925741	-0.427429	0.567264
Cl154	Cl	1.425741	0.072571	1.067264
H155	H	1.654982	-0.662138	0.387825
H156	H	2.154982	-0.162138	0.887825
H157	H	1.556685	-0.198859	0.919059
H158	H	2.056685	0.301141	1.419059
Cl159	Cl	1.680540	-0.396660	1.116331
Cl160	Cl	2.180540	0.103340	1.616331
H161	H	1.563553	-0.200370	1.101300
H162	H	2.063553	0.299630	1.601300
H163	H	1.123787	-0.205348	0.448045
H164	H	1.623787	0.294652	0.948045
H165	H	0.941662	-0.205074	0.448199
H166	H	1.441662	0.294926	0.948199
H167	H	0.940256	-0.265413	0.346591
H168	H	1.440256	0.234587	0.846591
H169	H	0.942886	-0.383589	0.397575
H170	H	1.442886	0.116411	0.897575
Cl171	Cl	1.138872	-0.271721	0.300507
Cl172	Cl	1.638872	0.228279	0.800507
H173	H	1.124789	-0.317942	0.686348
H174	H	1.624789	0.182058	1.186348
Cl175	Cl	1.141449	-0.392012	0.354864
Cl176	Cl	1.641449	0.107988	0.854864
Cl177	Cl	0.926775	-0.341384	0.716756
Cl178	Cl	1.426775	0.158616	1.216756
