data_functionalizedCrystal
_audit_creation_method	'MofGen! by Chris Wilmer'
_symmetry_space_group_name_H-M	'P1'
_symmetry_Int_Tables_number	1
_symmetry_cell_setting	triclinic
loop_
_symmetry_equiv_pos_as_xyz
  x,y,z
_cell_length_a	19.851628
_cell_length_b	23.196402
_cell_length_c	19.851628
_cell_angle_alpha	60.006501
_cell_angle_beta	90.005228
_cell_angle_gamma	59.998845
loop_
_atom_site_label
_atom_site_type_symbol
_atom_site_fract_x
_atom_site_fract_y
_atom_site_fract_z
Zr1	Zr	0.649000	0.630924	-0.088285
O2	O	0.541440	0.751189	-0.195846
O3	O	0.681970	0.510658	-0.055316
O4	O	0.681978	0.630910	-0.195835
O5	O	0.541429	0.630949	0.055522
O6	O	0.792840	0.630898	-0.195822
O7	O	0.541432	0.630938	-0.055327
O8	O	0.792826	0.415791	0.055542
O9	O	0.541443	0.846056	-0.195841
O10	O	0.778770	0.560117	-0.041240
O11	O	0.696032	0.560134	0.041475
O12	O	0.696042	0.701714	-0.123968
O13	O	0.613304	0.701730	-0.041253
Zr14	Zr	0.825806	0.630924	0.088528
Zr15	Zr	0.825812	0.630906	-0.088263
Zr16	Zr	0.648995	0.630941	0.088506
Zr17	Zr	0.649005	0.782226	-0.088277
Zr18	Zr	0.825802	0.479621	0.088520
O19	O	0.792836	0.751189	0.055558
O20	O	0.792844	0.751164	-0.195816
O21	O	0.541433	0.751214	0.055528
O22	O	0.933366	0.510658	0.196089
O23	O	0.933374	0.510633	-0.055285
O24	O	0.681963	0.510684	0.196058
O25	O	0.933378	0.630898	-0.055279
O26	O	0.792828	0.630938	0.196078
O27	O	0.681966	0.630949	0.196064
O28	O	0.933374	0.630910	0.055569
O29	O	0.681985	0.846042	-0.195824
O30	O	0.792821	0.415805	0.196067
O31	O	0.933363	0.415791	0.196084
O32	O	0.933367	0.415777	0.055559
O33	O	0.541439	0.846070	-0.055316
O34	O	0.681981	0.846056	-0.055299
O35	O	0.778765	0.560134	0.124211
O36	O	0.861502	0.560117	0.041495
O37	O	0.778774	0.701714	-0.041233
O38	O	0.696037	0.701730	0.041482
C39	C	0.737397	0.441667	0.000112
C40	C	0.737395	0.377436	0.000109
C41	C	0.780577	0.347257	-0.043071
C42	C	0.780585	0.286895	-0.043064
C43	C	0.737395	0.256727	0.000111
C44	C	0.694211	0.286910	0.043300
C45	C	0.694211	0.347265	0.043299
C46	C	0.665056	0.194705	-0.006061
C47	C	0.665054	0.134355	-0.006066
C48	C	0.737396	0.070573	0.000119
C49	C	0.809740	0.067154	0.006292
C50	C	0.809740	0.127508	0.006291
C51	C	0.737390	0.191283	0.000117
C52	C	0.780591	-0.025058	-0.043055
C53	C	0.780601	-0.085423	-0.043043
C54	C	0.694218	-0.085401	0.043316
C55	C	0.694216	-0.025043	0.043309
C56	C	0.737400	0.005128	0.000119
C57	C	0.516239	0.630946	0.000094
C58	C	0.441177	0.630953	0.000085
C59	C	0.214726	0.708140	-0.044994
C60	C	0.192364	0.669542	-0.077682
C61	C	0.303771	0.630932	0.000109
C62	C	0.192392	0.669535	0.032782
C63	C	0.171039	0.630918	0.000131
C64	C	0.282398	0.592334	-0.032625
C65	C	0.282423	0.592338	0.077883
C66	C	0.260114	0.553684	0.045214
C67	C	0.380233	0.630943	0.000094
C68	C	0.094582	0.630901	0.000145
C69	C	0.958568	0.630901	0.000148
C70	C	1.033629	0.630894	0.000157
C71	C	0.737410	0.630901	-0.221017
C72	C	0.737412	0.630894	-0.296070
C73	C	0.737409	0.820180	0.000131
C74	C	0.737411	0.884412	0.000134
C75	C	0.782516	0.553707	-0.432329
C76	C	0.704724	0.592305	-0.499789
C77	C	0.737404	0.630915	-0.433501
C78	C	0.815181	0.592312	-0.499775
C79	C	0.737403	0.630930	-0.566250
C80	C	0.659566	0.669513	-0.499973
C81	C	0.770079	0.669509	-0.499949
C82	C	0.692240	0.708163	-0.567422
C83	C	0.737406	0.630904	-0.357026
C84	C	0.737393	0.630946	-0.642727
C85	C	0.737397	0.630946	0.221260
C86	C	0.737394	0.630953	0.296312
C87	C	0.958562	0.441645	0.000139
C88	C	1.033621	0.377406	0.000145
C89	C	0.737390	0.441690	0.221250
C90	C	0.737386	0.377465	0.296300
C91	C	0.958555	0.441667	0.221277
C92	C	1.033612	0.377436	0.296336
C93	C	0.516251	0.820180	-0.221035
C94	C	0.441195	0.884412	-0.296093
C95	C	0.516245	0.820202	0.000104
C96	C	0.441186	0.884442	0.000098
C97	C	0.737416	0.820158	-0.221008
C98	C	0.737420	0.884382	-0.296057
C99	C	1.025684	0.347238	-0.043047
C100	C	1.096203	0.286887	-0.043058
C101	C	1.174659	0.256700	0.000128
C102	C	1.182594	0.286874	0.043321
C103	C	1.112075	0.347228	0.043326
C104	C	0.780569	0.347305	0.374738
C105	C	0.780562	0.286968	0.445261
C106	C	0.737376	0.256788	0.437345
C107	C	0.694187	0.286954	0.358898
C108	C	0.694190	0.347295	0.288376
C109	C	1.112055	0.347263	0.288407
C110	C	1.182586	0.286919	0.358926
C111	C	1.174671	0.256744	0.437372
C112	C	1.096220	0.286923	0.445298
C113	C	1.025691	0.347270	0.374781
C114	C	0.362752	0.914592	-0.288165
C115	C	0.292221	0.974955	-0.358683
C116	C	0.300135	1.005133	-0.437129
C117	C	0.378586	0.974950	-0.445056
C118	C	0.449115	0.914592	-0.374538
C119	C	0.449122	0.914615	0.043282
C120	C	0.378603	0.974983	0.043274
C121	C	0.300148	1.005172	0.000085
C122	C	0.292212	0.974996	-0.043104
C123	C	0.362731	0.914633	-0.043100
C124	C	0.780615	0.914543	-0.288114
C125	C	0.780635	0.974880	-0.358624
C126	C	0.737455	1.005060	-0.437076
C127	C	0.694259	0.974894	-0.445018
C128	C	0.694245	0.914553	-0.374508
H129	H	0.815757	-0.000494	-0.078220
H130	H	0.659052	-0.109964	0.078470
H131	H	0.815737	0.371871	0.381199
H132	H	0.815777	0.889979	-0.224241
C133	C	0.915041	0.424765	-0.354045
C134	C	0.833932	0.465583	-0.354248
H135	H	0.946776	0.370361	-0.305843
H136	H	0.938372	0.452069	-0.354604
H137	H	0.914980	0.424170	-0.401546
H138	H	0.833992	0.466183	-0.306750
H139	H	0.810594	0.438271	-0.353681
C140	C	0.308800	1.067464	-0.591501
C141	C	0.387277	1.008120	-0.531289
H142	H	0.314165	1.087935	-0.644737
H143	H	0.279515	1.110785	-0.585309
H144	H	0.279502	1.043912	-0.585297
H145	H	0.416572	1.031674	-0.537489
H146	H	0.416573	0.964792	-0.537483
C147	C	0.896265	0.464414	0.345605
C148	C	0.939468	0.380425	0.383506
H149	H	0.843038	0.484877	0.351003
H150	H	0.890875	0.491020	0.288799
H151	H	0.925579	0.474302	0.371322
H152	H	0.910157	0.370537	0.357785
H153	H	0.944854	0.353810	0.440324
H154	H	0.153557	0.702168	-0.143446
H155	H	0.961808	0.371816	-0.078224
C156	C	0.865963	0.293036	0.523530
C157	C	0.828048	0.253810	0.531483
H158	H	0.895283	0.272561	0.576758
H159	H	0.825101	0.350009	0.494226
H160	H	0.903231	0.283127	0.494222
H161	H	0.790775	0.263723	0.560786
H162	H	0.868915	0.196824	0.560799
H163	H	0.512985	0.890020	-0.381003
C164	C	1.252140	0.120961	0.034199
C165	C	1.252170	0.190350	0.000125
H166	H	1.299992	0.079998	0.034201
H167	H	1.204280	0.134631	0.002295
H168	H	1.252140	0.101190	0.089216
H169	H	1.252163	0.210125	-0.054895
H170	H	1.300042	0.176679	0.032029
H171	H	0.196278	0.773423	-0.083190
H172	H	0.512998	0.890040	0.078457
H173	H	0.385080	0.999543	0.078447
H174	H	0.242734	1.054324	0.000089
H175	H	0.815770	-0.109999	-0.078201
C176	C	1.260924	0.292891	0.128724
C177	C	1.268837	0.253676	0.090802
H178	H	1.314169	0.272392	0.158038
H179	H	1.231615	0.283008	0.165985
H180	H	1.231634	0.349868	0.087864
H181	H	1.298122	0.196699	0.131664
H182	H	1.298158	0.263552	0.053538
H183	H	0.228325	0.999585	-0.078267
C184	C	0.784416	0.170358	0.585385
C185	C	0.737385	0.190455	0.514869
H186	H	0.784428	0.129402	0.633246
H187	H	0.761289	0.217449	0.585370
H188	H	0.839433	0.150579	0.585368
H189	H	0.682366	0.210240	0.514883
H190	H	0.760509	0.143354	0.514885
H191	H	0.677083	0.559679	-0.500470
H192	H	1.089726	0.262327	-0.078231
H193	H	1.118549	0.371783	0.078503
H194	H	0.356292	0.890024	-0.224296
H195	H	1.118514	0.371822	0.224539
C196	C	0.571539	0.713098	-0.428394
C197	C	0.570729	0.713535	-0.499182
H198	H	0.516696	0.740270	-0.427904
H199	H	0.594805	0.740328	-0.428546
H200	H	0.603655	0.658396	-0.380726
H201	H	0.538617	0.768238	-0.546851
H202	H	0.547451	0.686307	-0.499038
H203	H	0.880958	0.559664	-0.500421
C204	C	0.701756	0.993491	-0.574436
C205	C	0.646793	1.008081	-0.531259
H206	H	0.672447	1.013989	-0.627681
H207	H	0.742601	0.936515	-0.545142
H208	H	0.727486	1.020085	-0.579779
H209	H	0.621068	0.981482	-0.525910
H210	H	0.605933	1.065067	-0.560560
H211	H	0.654037	0.773499	-0.625164
H212	H	0.321093	0.559722	-0.060324
H213	H	0.659026	0.262373	0.352464
H214	H	1.089789	0.262346	0.509179
C215	C	0.608834	0.341190	0.210113
C216	C	0.646730	0.380433	0.202157
H217	H	0.579537	0.361644	0.156885
H218	H	0.571556	0.351102	0.239402
H219	H	0.649711	0.284210	0.239436
H220	H	0.605852	0.437412	0.172839
H221	H	0.684011	0.370527	0.172855
C222	C	1.260855	0.292970	0.266451
C223	C	1.268812	0.253747	0.350199
H224	H	1.314087	0.272487	0.261065
H225	H	1.231553	0.349942	0.240742
H226	H	1.231540	0.283069	0.240754
H227	H	1.298123	0.263653	0.375895
H228	H	1.298127	0.196762	0.375920
C229	C	0.270241	0.920707	-0.128460
C230	C	0.353998	0.881460	-0.090561
H231	H	0.264847	0.900224	-0.157757
H232	H	0.244542	0.977674	-0.165732
H233	H	0.244534	0.910825	-0.087588
H234	H	0.379703	0.891347	-0.131433
H235	H	0.379707	0.824479	-0.053285
C236	C	1.322723	0.170293	0.491346
C237	C	1.252204	0.190402	0.514882
H238	H	1.370589	0.129331	0.539196
H239	H	1.322712	0.217379	0.459453
H240	H	1.322700	0.150517	0.459438
H241	H	1.252224	0.210184	0.546785
H242	H	1.252216	0.143307	0.546788
H243	H	0.797738	0.702107	-0.499237
C244	C	0.915125	0.029036	-0.053465
C245	C	0.889265	-0.002953	0.013091
H246	H	0.964214	-0.014247	-0.049271
H247	H	0.925479	0.064484	-0.052579
H248	H	0.873222	0.058555	-0.103682
H249	H	0.931166	-0.032467	0.063308
H250	H	0.878915	-0.038415	0.012212
C251	C	0.213951	0.968865	-0.266209
C252	C	0.205994	1.008115	-0.349957
H253	H	0.160719	0.989333	-0.260822
H254	H	0.243257	0.978755	-0.240495
H255	H	0.243262	0.911889	-0.240516
H256	H	0.176688	1.065091	-0.375648
H257	H	0.176675	0.998232	-0.375682
H258	H	0.242699	1.054279	-0.494543
C259	C	0.371388	0.411306	0.127775
C260	C	0.285225	0.465484	0.096702
H261	H	0.386888	0.356857	0.159554
H262	H	0.393255	0.419993	0.161586
H263	H	0.392453	0.420320	0.083257
H264	H	0.264159	0.456475	0.141221
H265	H	0.263349	0.456794	0.062890
C266	C	0.865988	0.968815	-0.266130
C267	C	0.828108	1.008040	-0.349881
H268	H	0.895289	0.989291	-0.260733
H269	H	0.903259	0.911842	-0.240419
H270	H	0.825101	0.978722	-0.240441
H271	H	0.868996	0.998128	-0.375569
H272	H	0.790834	1.065026	-0.375602
C273	C	0.818588	1.042203	-0.514546
C274	C	0.737473	1.071392	-0.514576
H275	H	0.818598	1.083157	-0.562387
H276	H	0.841695	0.995127	-0.514556
H277	H	0.850478	1.028543	-0.466678
H278	H	0.705584	1.085046	-0.562441
H279	H	0.714355	1.118482	-0.514574
C280	C	0.608851	0.920657	-0.467000
C281	C	0.646749	0.881414	-0.383248
H282	H	0.579524	0.900203	-0.472398
H283	H	0.649724	0.910746	-0.492695
H284	H	0.571593	0.977637	-0.492704
H285	H	0.684012	0.824435	-0.357546
H286	H	0.605871	0.891319	-0.357543
H287	H	0.815751	0.262319	-0.078227
C288	C	0.865962	0.341168	-0.128432
C289	C	0.828055	0.380412	-0.090536
H290	H	0.895277	0.361634	-0.157728
H291	H	0.825096	0.351064	-0.165704
H292	H	0.903233	0.284190	-0.087558
H293	H	0.790779	0.437389	-0.131410
H294	H	0.868925	0.370522	-0.053260
H295	H	0.659049	-0.000468	0.078467
C296	C	0.911606	0.118652	0.083759
C297	C	0.889258	0.123748	0.013088
H298	H	0.960696	0.116334	0.087954
H299	H	0.920769	0.070898	0.131176
H300	H	0.868513	0.165278	0.080066
H301	H	0.932349	0.077119	0.016784
H302	H	0.880099	0.171507	-0.034341
C303	C	0.559683	0.135290	0.053707
C304	C	0.585535	0.138116	-0.012851
H305	H	0.510593	0.137609	0.049519
H306	H	0.549333	0.180357	0.052820
H307	H	0.601588	0.085978	0.103923
H308	H	0.543632	0.187431	-0.063068
H309	H	0.595881	0.093045	-0.011972
C310	C	0.523796	0.308332	-0.086917
C311	C	0.585531	0.264826	-0.012874
H312	H	0.474706	0.351625	-0.091125
H313	H	0.513440	0.272881	-0.087791
H314	H	0.541372	0.330008	-0.132050
H315	H	0.567957	0.243145	0.032260
H316	H	0.595886	0.300284	-0.011992
H317	H	0.659044	0.371837	0.078461
H318	H	0.659045	0.262343	0.078454
C319	C	0.288491	0.588893	0.200737
C320	C	0.334816	0.548332	0.166640
H321	H	0.320838	0.561731	0.255531
H322	H	0.240589	0.588999	0.201352
H323	H	0.272643	0.643457	0.168455
H324	H	0.350659	0.493770	0.198919
H325	H	0.382733	0.548218	0.166030
H326	H	0.153591	0.702186	0.060406
