data_functionalizedCrystal
_audit_creation_method	'MofGen! by Chris Wilmer'
_symmetry_space_group_name_H-M	'P1'
_symmetry_Int_Tables_number	1
_symmetry_cell_setting	triclinic
loop_
_symmetry_equiv_pos_as_xyz
  x,y,z
_cell_length_a	21.395364
_cell_length_b	13.032721
_cell_length_c	21.395355
_cell_angle_alpha	97.165964
_cell_angle_beta	89.975448
_cell_angle_gamma	97.219379
loop_
_atom_site_label
_atom_site_type_symbol
_atom_site_fract_x
_atom_site_fract_y
_atom_site_fract_z
Zn1	Zn	0.926244	-0.415770	-0.385921
Zn2	Zn	0.912860	-0.590511	-0.294450
Zn3	Zn	0.821456	-0.415816	-0.281161
Zn4	Zn	0.808140	-0.590529	-0.399191
O5	O	0.867175	-0.503157	-0.340181
O6	O	1.012149	-0.438923	-0.373795
O7	O	0.900706	-0.567348	-0.205010
O8	O	0.846531	-0.269562	-0.283943
O9	O	1.002315	-0.567304	-0.306591
O10	O	0.923518	-0.269529	-0.360910
O11	O	0.833552	-0.439001	-0.195247
O12	O	0.732010	-0.439019	-0.296811
O13	O	0.823836	-0.567336	-0.485108
O14	O	0.722226	-0.567380	-0.383527
O15	O	0.910606	-0.438941	-0.475359
O16	O	0.887794	-0.736761	-0.319459
O17	O	0.810857	-0.736775	-0.396412
C18	C	0.704383	-0.503207	-0.340167
C19	C	0.634739	-0.503254	-0.340178
C20	C	0.607160	-0.436516	-0.375241
C21	C	0.541727	-0.436488	-0.375242
C22	C	0.503873	-0.503217	-0.340187
C23	C	0.531459	-0.569961	-0.305116
C24	C	0.596892	-0.569979	-0.305112
C25	C	0.392992	-0.597334	-0.342316
C26	C	0.327561	-0.597318	-0.342325
C27	C	0.302057	-0.503160	-0.340196
C28	C	0.341993	-0.409016	-0.338072
C29	C	0.407426	-0.409034	-0.338068
C30	C	0.432922	-0.503204	-0.340187
C31	C	0.203528	-0.436385	-0.375262
C32	C	0.138094	-0.436356	-0.375257
C33	C	0.127827	-0.569838	-0.305136
C34	C	0.193261	-0.569858	-0.305136
C35	C	0.231108	-0.503133	-0.340202
C36	C	0.846445	-0.774688	-0.360831
C37	C	0.837634	-0.890850	-0.369686
C38	C	0.871807	-0.942598	-0.335588
C39	C	0.862701	-1.062658	-0.344739
C40	C	1.030602	-0.503106	-0.340195
C41	C	1.100245	-0.503085	-0.340201
C42	C	0.867229	-0.503135	-0.503603
C43	C	0.867251	-0.503126	-0.573243
C44	C	0.888003	-0.230565	-0.319464
C45	C	0.896878	-0.114402	-0.310636
C46	C	0.912432	-0.436268	-0.600881
C47	C	0.912434	-0.436223	-0.666313
C48	C	0.867262	-0.503055	-0.704106
C49	C	0.822074	-0.569918	-0.676461
C50	C	0.822068	-0.569953	-0.611030
C51	C	0.855130	-0.597159	-0.814938
C52	C	0.855140	-0.597125	-0.880368
C53	C	0.867274	-0.502945	-0.905919
C54	C	0.879412	-0.408796	-0.866031
C55	C	0.879407	-0.408831	-0.800599
C56	C	0.867262	-0.503023	-0.775056
C57	C	0.912459	-0.436032	-1.004505
C58	C	0.912458	-0.435986	-1.069938
C59	C	0.822100	-0.569689	-1.080086
C60	C	0.822099	-0.569727	-1.014653
C61	C	0.867282	-0.502900	-0.976867
C62	C	0.867163	-0.503102	-0.177389
C63	C	0.867284	-0.502817	-0.107727
H64	H	0.637971	-0.382182	-0.403795
F65	F	0.892330	-0.308554	-0.893218
H66	H	0.907807	-0.898019	-0.299622
H67	H	0.785292	-0.624329	-0.707237
H68	H	0.826704	-1.107234	-0.380712
H69	H	0.619346	-0.624328	-0.276558
F70	F	0.842229	-0.697407	-0.787752
H71	H	0.519268	-0.382136	-0.403793
F72	F	0.243810	-0.365366	-0.412578
H73	H	0.932881	-1.069827	-0.274667
F74	F	0.790585	-0.949115	-0.416703
F75	F	0.960517	-0.365140	-0.560669
H76	H	0.949224	-0.381774	-0.688819
F77	F	0.892322	-0.308634	-0.758150
F78	F	0.960544	-0.364906	-0.964287
F79	F	0.491173	-0.640975	-0.267806
H80	H	0.949248	-0.381536	-1.092438
H81	H	0.785314	-0.624094	-1.110856
F82	F	0.774013	-0.640891	-0.985239
H83	H	0.845260	-0.673787	-0.912840
H84	H	0.439939	-0.332379	-0.336336
F85	F	0.314856	-0.308798	-0.335806
H86	H	0.115642	-0.382003	-0.403809
F87	F	0.087546	-0.640851	-0.267823
H88	H	0.785275	-0.624396	-0.588528
H89	H	0.215715	-0.624208	-0.276587
F90	F	0.285063	-0.697514	-0.344595
H91	H	0.413751	-0.674014	-0.344049
