data_functionalizedCrystal
_audit_creation_method	'MofGen! by Chris Wilmer'
_symmetry_space_group_name_H-M	'P1'
_symmetry_Int_Tables_number	1
_symmetry_cell_setting	triclinic
loop_
_symmetry_equiv_pos_as_xyz
  x,y,z
_cell_length_a	10.654562
_cell_length_b	10.654550
_cell_length_c	9.730223
_cell_angle_alpha	90.000193
_cell_angle_beta	90.003039
_cell_angle_gamma	84.487503
loop_
_atom_site_label
_atom_site_type_symbol
_atom_site_fract_x
_atom_site_fract_y
_atom_site_fract_z
O1	O	-1.667825	-0.176469	-0.114377
O2	O	-1.302348	-0.193259	-0.114359
O3	O	-1.493489	-0.002125	-0.114363
O4	O	-1.476683	-0.367603	-0.114373
O5	O	-1.493487	-0.002130	0.114217
O6	O	-1.302346	-0.193264	0.114221
O7	O	-1.667822	-0.176474	0.114203
Zn8	Zn	-1.485084	-0.184870	0.150504
Zn9	Zn	-1.485087	-0.184863	-0.150660
O10	O	-1.476681	-0.367608	0.114207
C11	C	-1.255549	-0.192025	-0.000067
C12	C	-1.116107	-0.188327	-0.000060
C13	C	-1.492254	0.044671	-0.000075
C14	C	-1.488563	0.184114	-0.000079
C15	C	-1.714621	-0.177708	-0.000092
C16	C	-1.854064	-0.181406	-0.000108
C17	C	-1.050575	-0.186604	0.124528
C18	C	-0.919553	-0.183139	0.124505
C19	C	-0.919605	-0.183125	-0.124705
C20	C	-1.050626	-0.186581	-0.124681
C21	C	-1.116056	-0.188351	0.249149
C22	C	-1.050524	-0.186630	0.373747
C23	C	-0.919501	-0.183165	0.373724
C24	C	-0.854011	-0.181421	0.249103
C25	C	-1.477916	-0.414403	-0.000084
C26	C	-1.481608	-0.553847	-0.000088
N27	N	-1.485091	-0.184873	0.356040
C28	C	-1.601103	0.263595	-0.000081
C29	C	-1.597627	0.394615	-0.000090
C30	C	-1.369059	0.366662	-0.000091
C31	C	-1.372537	0.235644	-0.000092
C32	C	-1.717129	0.212064	-0.000068
C33	C	-1.829680	0.291546	-0.000068
C34	C	-1.826203	0.422567	-0.000077
C35	C	-1.710176	0.474106	-0.000087
N36	N	-1.485089	-0.184850	-0.356196
C37	C	-1.569750	-0.100268	0.427965
C38	C	-1.569747	-0.100253	0.571848
C39	C	-1.400421	-0.269459	0.571869
C40	C	-1.400419	-0.269467	0.427989
C41	C	-1.654422	-0.015674	0.356016
C42	C	-1.739089	0.068937	0.427940
C43	C	-1.739086	0.068952	0.571823
C44	C	-1.654415	-0.015644	0.643782
H45	H	-1.222740	-0.191176	0.249181
C46	C	-1.248736	0.148211	-0.000080
N47	N	-1.155486	0.082355	-0.000072
C48	C	-1.720964	0.067940	-0.000058
N49	N	-1.723851	-0.040615	-0.000048
C50	C	-1.241438	0.423362	-0.000080
N51	N	-1.145312	0.466067	-0.000062
C52	C	-1.122562	-0.188574	0.510822
N53	N	-1.176818	-0.190051	0.614071
C54	C	-1.957302	0.234850	-0.000059
N55	N	-2.053430	0.192148	-0.000049
H56	H	-1.917847	0.487279	-0.000091
H57	H	-0.866150	-0.181753	0.475178
H58	H	-1.654411	-0.015616	0.760941
C59	C	-0.709883	-0.177603	0.249085
N60	N	-0.601326	-0.174734	0.249074
C61	C	-1.832203	0.162041	0.650936
N62	N	-1.902342	0.232160	0.710521
H63	H	-1.331487	-0.338334	0.630467
H64	H	-0.866272	-0.181708	-0.226166
C65	C	-1.706359	0.618235	-0.000105
N66	N	-1.703485	0.726791	-0.000113
H67	H	-1.103983	-0.187989	-0.226132
H68	H	-1.331481	-0.338359	0.369428
C69	C	-1.654431	-0.015681	0.197742
N70	N	-1.654436	-0.015687	0.078530
H71	H	-1.808018	0.137819	0.369344
