data_functionalizedCrystal
_audit_creation_method	'MofGen! by Chris Wilmer'
_symmetry_space_group_name_H-M	'P1'
_symmetry_Int_Tables_number	1
_symmetry_cell_setting	triclinic
loop_
_symmetry_equiv_pos_as_xyz
  x,y,z
_cell_length_a	14.908520
_cell_length_b	14.908610
_cell_length_c	14.908308
_cell_angle_alpha	89.826017
_cell_angle_beta	96.360765
_cell_angle_gamma	89.796704
loop_
_atom_site_label
_atom_site_type_symbol
_atom_site_fract_x
_atom_site_fract_y
_atom_site_fract_z
Zn1	Zn	-0.470677	-1.316647	-0.613097
Zn2	Zn	-0.613316	-1.316545	-0.470461
Zn3	Zn	-0.453349	-1.176017	-0.453154
Zn4	Zn	-0.612237	-1.157638	-0.612051
O5	O	-0.537395	-1.241712	-0.537191
O6	O	-0.497302	-1.441990	-0.601857
O7	O	-0.585296	-1.305552	-0.341973
O8	O	-0.329458	-1.202406	-0.467565
O9	O	-0.602099	-1.441916	-0.497063
O10	O	-0.342189	-1.305726	-0.585075
O11	O	-0.467769	-1.202307	-0.329257
O12	O	-0.466723	-1.048222	-0.466551
O13	O	-0.600259	-1.171082	-0.738383
O14	O	-0.583457	-1.034719	-0.583292
O15	O	-0.496256	-1.287905	-0.739151
O16	O	-0.739363	-1.287732	-0.496049
O17	O	-0.738570	-1.170984	-0.600074
C18	C	-0.523093	-1.008967	-0.522930
C19	C	-0.516997	-0.909395	-0.516852
C20	C	-0.447549	-0.776056	-0.447594
C21	C	-0.453272	-0.869613	-0.453301
C22	C	-0.575002	-0.855612	-0.574702
C23	C	-0.569280	-0.762055	-0.568995
C24	C	-0.505552	-0.722280	-0.505438
C25	C	-0.499834	-0.628721	-0.499727
C26	C	-0.621560	-0.614722	-0.621131
C27	C	-0.627283	-0.708280	-0.626838
C28	C	-0.771689	-1.227376	-0.549847
C29	C	-0.871928	-1.221323	-0.555297
C30	C	-1.061064	-1.331630	-0.457316
C31	C	-1.155247	-1.325946	-0.462434
C32	C	-1.154479	-1.204275	-0.570655
C33	C	-1.060296	-1.209959	-0.565537
C34	C	-1.013591	-1.273638	-0.508865
C35	C	-0.919406	-1.279317	-0.503743
C36	C	-0.918641	-1.157651	-0.611968
C37	C	-1.012824	-1.151967	-0.617086
C38	C	-0.302189	-1.256127	-0.524506
C39	C	-0.201958	-1.262270	-0.519100
C40	C	-0.550070	-1.227455	-0.772402
C41	C	-0.555471	-1.221380	-0.872635
C42	C	-0.551745	-0.475367	-0.551500
C43	C	-0.557840	-0.574939	-0.557577
C44	C	-0.457301	-1.331610	-1.061784
C45	C	-0.462373	-1.325905	-1.155962
C46	C	-0.570682	-1.204260	-1.155170
C47	C	-0.565610	-1.209966	-1.060992
C48	C	-0.508919	-1.273643	-1.014303
C49	C	-0.503852	-1.279352	-0.920124
C50	C	-0.612156	-1.157704	-0.919333
C51	C	-0.617228	-1.151999	-1.013510
C52	C	-0.524707	-1.255968	-0.302894
C53	C	-0.519063	-1.262233	-0.202658
H54	H	-0.626882	-0.888013	-0.626450
Br55	Br	-0.713771	-0.762268	-0.713084
H56	H	-0.420338	-1.373105	-1.194618
Br57	Br	-0.856021	-1.365732	-0.426826
H58	H	-1.050864	-1.100124	-0.663229
Br59	Br	-0.854208	-1.078928	-0.681914
Br60	Br	-0.997672	-1.418032	-0.380389
H61	H	-0.616837	-1.152417	-1.193201
H62	H	-0.654189	-1.110506	-0.880663
Br63	Br	-0.426920	-1.365775	-0.856760
Br64	Br	-1.217881	-1.117876	-0.647576
H65	H	-1.193895	-1.373171	-0.420460
Br66	Br	-0.380379	-1.418038	-0.998417
H67	H	-0.395661	-0.743671	-0.395843
H68	H	-0.447943	-0.596338	-0.447977
H69	H	-0.668791	-0.570928	-0.668231
H70	H	-0.663382	-1.100153	-1.051538
H71	H	-0.406037	-0.913394	-0.406202
