data_functionalizedCrystal
_audit_creation_method	'MofGen! by Chris Wilmer'
_symmetry_space_group_name_H-M	'P1'
_symmetry_Int_Tables_number	1
_symmetry_cell_setting	triclinic
loop_
_symmetry_equiv_pos_as_xyz
  x,y,z
_cell_length_a	13.185407
_cell_length_b	16.974901
_cell_length_c	15.455313
_cell_angle_alpha	96.324781
_cell_angle_beta	88.250273
_cell_angle_gamma	67.722600
loop_
_atom_site_label
_atom_site_type_symbol
_atom_site_fract_x
_atom_site_fract_y
_atom_site_fract_z
O1	O	-0.129585	-1.028488	-0.144249
O2	O	0.370415	-0.528488	0.355751
O3	O	-0.148362	-0.793497	-0.127773
O4	O	0.351638	-0.293497	0.372227
O5	O	0.020019	-0.951253	-0.138830
O6	O	0.520019	-0.451253	0.361170
O7	O	-0.297965	-0.870732	-0.133192
O8	O	0.202035	-0.370732	0.366808
O9	O	0.010429	-0.942240	0.006064
O10	O	0.510429	-0.442240	0.506064
O11	O	-0.157951	-0.784484	0.017121
O12	O	0.342049	-0.284484	0.517121
O13	O	-0.139174	-1.019475	0.000645
O14	O	0.360826	-0.519475	0.500645
Cu15	Cu	-0.149438	-0.901157	0.022113
Cu16	Cu	0.350562	-0.401157	0.522113
Cu17	Cu	-0.138097	-0.911815	-0.149241
Cu18	Cu	0.361903	-0.411815	0.350759
O19	O	-0.307554	-0.861719	0.011702
O20	O	0.192446	-0.361719	0.511702
C21	C	-0.152616	-0.759549	-0.053261
C22	C	0.347384	-0.259549	0.446739
C23	C	-0.150995	-0.671823	-0.047110
C24	C	0.349005	-0.171823	0.452890
C25	C	-0.145009	-0.635513	-0.123196
C26	C	0.354991	-0.135513	0.376804
C27	C	-0.143504	-0.553080	-0.117403
C28	C	0.356496	-0.053080	0.382597
C29	C	-0.147976	-0.506959	-0.035524
C30	C	0.352024	-0.006959	0.464476
C31	C	-0.153966	-0.543272	0.040567
C32	C	0.346034	-0.043272	0.540567
C33	C	-0.155479	-0.625702	0.034773
C34	C	0.344521	-0.125702	0.534773
C35	C	-0.144019	-0.259901	-0.009729
C36	C	0.355981	0.240099	0.490271
C37	C	-0.142502	-0.177467	-0.003941
C38	C	0.357498	0.322533	0.496059
C39	C	-0.132042	-0.187279	-0.161912
C40	C	0.367958	0.312721	0.338088
C41	C	-0.133549	-0.269712	-0.167698
C42	C	0.366451	0.230288	0.332302
C43	C	-0.139544	-0.306017	-0.091607
C44	C	0.360456	0.193983	0.408393
N45	N	-0.146434	-0.422699	-0.029602
N46	N	0.353566	0.077301	0.470398
N47	N	-0.141094	-0.390273	-0.097530
N48	N	0.358906	0.109727	0.402470
C49	C	0.055902	-0.954910	-0.066956
C50	C	0.555902	-0.454910	0.433044
C51	C	0.177109	-0.979224	-0.068664
C52	C	0.677109	-0.479224	0.431336
C53	C	0.464963	-0.747178	-0.052400
C54	C	0.964963	-0.247178	0.447600
C55	C	0.351083	-0.724332	-0.050804
C56	C	0.851083	-0.224332	0.449196
C57	C	0.307584	-0.788053	-0.055269
C58	C	0.807584	-0.288053	0.444731
C59	C	0.377976	-0.874624	-0.061330
C60	C	0.877976	-0.374624	0.438670
C61	C	0.491868	-0.897474	-0.062932
C62	C	0.991868	-0.397474	0.437068
C63	C	0.334489	-0.938348	-0.065801
C64	C	0.834489	-0.438348	0.434199
C65	C	0.404881	-1.024920	-0.071862
C66	C	0.904881	-0.524920	0.428138
C67	C	0.518761	-1.047765	-0.073463
C68	C	1.018761	-0.547765	0.426537
C69	C	0.562261	-0.984044	-0.068999
C70	C	1.062261	-0.484044	0.431001
C71	C	0.220597	-0.915499	-0.064198
C72	C	0.720597	-0.415499	0.435802
C73	C	0.247502	-1.065794	-0.074730
C74	C	0.747502	-0.565794	0.425270
C75	C	0.361382	-1.088641	-0.076326
C76	C	0.861382	-0.588641	0.423674
C77	C	0.656563	-0.858062	-0.060172
C78	C	1.156563	-0.358062	0.439828
C79	C	0.535356	-0.833748	-0.058467
C80	C	1.035356	-0.333748	0.441533
N81	N	-0.157413	-0.893666	0.142634
N82	N	0.342587	-0.393666	0.642634
C83	C	-0.134913	-0.053426	-0.073869
C84	C	0.365087	0.446574	0.426131
C85	C	-0.136516	-0.141157	-0.080027
C86	C	0.363484	0.358843	0.419973
N87	N	-0.130113	-0.919314	-0.269762
N88	N	0.369887	-0.419314	0.230238
C89	C	-0.085906	-0.960699	0.183329
C90	C	0.414094	-0.460699	0.683329
C91	C	-0.091947	-0.955039	0.274534
C92	C	0.408053	-0.455039	0.774534
C93	C	-0.169502	-0.882348	0.325041
C94	C	0.330498	-0.382348	0.825041
C95	C	-0.241013	-0.815310	0.284339
C96	C	0.258987	-0.315310	0.784339
C97	C	-0.234966	-0.820968	0.193136
C98	C	0.265034	-0.320968	0.693136
C99	C	-0.195577	-0.857933	0.598334
C100	C	0.304423	-0.357933	1.098334
C101	C	-0.201621	-0.852282	0.689542
C102	C	0.298379	-0.352282	1.189542
C103	C	-0.052553	-0.992011	0.679731
C104	C	0.447447	-0.492011	1.179731
C105	C	-0.046516	-0.997664	0.588526
C106	C	0.453484	-0.497664	1.088526
C107	C	-0.118023	-0.930624	0.547833
C108	C	0.381977	-0.430624	1.047833
N109	N	-0.175682	-0.876563	0.418267
N110	N	0.324318	-0.376563	0.918267
N111	N	-0.111838	-0.936408	0.454609
N112	N	0.388162	-0.436408	0.954609
H113	H	-0.157614	-0.505712	0.107234
H114	H	0.342386	-0.005712	0.607234
C115	C	-0.286938	-0.772312	0.745099
C116	C	0.213062	-0.272312	1.245099
N117	N	-0.351196	-0.712081	0.786944
N118	N	0.148804	-0.212081	1.286944
C119	C	0.273661	-0.629106	-0.044144
C120	C	0.773661	-0.129106	0.455856
N121	N	0.215344	-0.557377	-0.039130
N122	N	0.715344	-0.057377	0.460870
C123	C	-0.140087	-0.686240	-0.213270
C124	C	0.359913	-0.186240	0.286730
N125	N	-0.136383	-0.724443	-0.281116
N126	N	0.363617	-0.224443	0.218884
H127	H	0.016635	-1.056855	0.547405
H128	H	0.516635	-0.556855	1.047405
H129	H	-0.293194	-0.766382	0.160003
H130	H	0.206806	-0.266382	0.660003
C131	C	-0.326315	-0.735344	0.339901
C132	C	0.173685	-0.235344	0.839901
N133	N	-0.390566	-0.675112	0.381749
N134	N	0.109434	-0.175112	0.881749
H135	H	-0.129899	-0.307261	-0.234372
H136	H	0.370101	0.192739	0.265628
H137	H	-0.160358	-0.655262	0.096731
H138	H	0.339642	-0.155262	0.596731
C139	C	-0.136903	-0.513148	-0.201104
C140	C	0.363097	-0.013148	0.298896
N141	N	-0.131926	-0.483074	-0.264152
N142	N	0.368074	0.016926	0.235848
C143	C	-0.125457	-0.147334	-0.245606
C144	C	0.374543	0.352666	0.254394
N145	N	-0.120502	-0.117245	-0.308648
N146	N	0.379498	0.382755	0.191352
C147	C	0.143178	-0.820271	-0.057527
C148	C	0.643178	-0.320271	0.442473
N149	N	0.084866	-0.748541	-0.052499
N150	N	0.584866	-0.248541	0.447501
H151	H	-0.253802	-0.803347	0.565208
H152	H	0.246198	-0.303347	1.065208
C153	C	0.512821	-0.677095	-0.047485
C154	C	1.012821	-0.177095	0.452515
N155	N	0.548868	-0.624304	-0.043779
N156	N	1.048868	-0.124304	0.456221
H157	H	0.005666	-1.046592	0.712872
H158	H	0.505666	-0.546592	1.212872
H159	H	0.418711	-1.159129	-0.081262
H160	H	0.918711	-0.659129	0.418738
H161	H	-0.146175	-0.139907	0.062738
H162	H	0.353825	0.360093	0.562738
H163	H	0.654989	-1.002640	-0.070288
H164	H	1.154989	-0.502640	0.429712
H165	H	0.576073	-1.118258	-0.078407
H166	H	1.076073	-0.618258	0.421593
H167	H	-0.148893	-0.289452	0.052230
H168	H	0.351107	0.210548	0.552230
H169	H	0.212089	-1.117684	-0.078411
H170	H	0.712089	-0.617684	0.421589
C171	C	-0.000588	-1.040664	0.127779
C172	C	0.499412	-0.540664	0.627779
N173	N	0.063680	-1.100895	0.085942
N174	N	0.563680	-0.600895	0.585942
C175	C	-0.013256	-1.028767	0.319296
C176	C	0.486744	-0.528767	0.819296
N177	N	0.046027	-1.084298	0.353010
N178	N	0.546027	-0.584298	0.853010
H179	H	0.214857	-0.769445	-0.053968
H180	H	0.714857	-0.269445	0.446032
