data_functionalizedCrystal
_audit_creation_method	'MofGen! by Chris Wilmer'
_symmetry_space_group_name_H-M	'P1'
_symmetry_Int_Tables_number	1
_symmetry_cell_setting	triclinic
loop_
_symmetry_equiv_pos_as_xyz
  x,y,z
_cell_length_a	15.186229
_cell_length_b	14.971486
_cell_length_c	14.971486
_cell_angle_alpha	83.614129
_cell_angle_beta	89.996046
_cell_angle_gamma	90.001599
loop_
_atom_site_label
_atom_site_type_symbol
_atom_site_fract_x
_atom_site_fract_y
_atom_site_fract_z
O1	O	0.073128	-1.186943	-0.116562
O2	O	0.573128	-0.686943	0.383438
O3	O	0.073152	-0.926543	-0.130520
O4	O	0.573152	-0.426543	0.369480
O5	O	0.073133	-1.063723	0.006659
O6	O	0.573133	-0.563723	0.506659
O7	O	0.073147	-1.049764	-0.253741
O8	O	0.573147	-0.549764	0.246259
O9	O	-0.073324	-1.063713	0.006661
O10	O	0.426676	-0.563713	0.506661
O11	O	-0.073305	-0.926534	-0.130518
O12	O	0.426695	-0.426534	0.369482
O13	O	-0.073330	-1.186934	-0.116560
O14	O	0.426670	-0.686934	0.383440
Zn15	Zn	-0.096571	-1.056733	-0.123539
Zn16	Zn	0.403429	-0.556733	0.376461
Zn17	Zn	0.096393	-1.056745	-0.123541
Zn18	Zn	0.596393	-0.556745	0.376459
O19	O	-0.073311	-1.049755	-0.253739
O20	O	0.426689	-0.549755	0.246261
C21	C	-0.000074	-0.893214	-0.129895
C22	C	0.499926	-0.393214	0.370105
C23	C	-0.000065	-0.793917	-0.128024
C24	C	0.499935	-0.293917	0.371976
C25	C	-0.000095	-1.063094	0.039985
C26	C	0.499905	-0.563094	0.539985
C27	C	-0.000095	-1.061223	0.139282
C28	C	0.499905	-0.561223	0.639282
N29	N	-0.228263	-1.056731	-0.123536
N30	N	0.271737	-0.556731	0.376464
C31	C	-0.453995	-1.117495	-0.062814
C32	C	0.046005	-0.617495	0.437186
C33	C	-0.546184	-1.117498	-0.062812
C34	C	-0.046184	-0.617498	0.437188
C35	C	-0.546177	-0.995983	-0.184262
C36	C	-0.046177	-0.495983	0.315738
C37	C	-0.453989	-0.995977	-0.184259
C38	C	0.046011	-0.495977	0.315741
C39	C	-0.407900	-1.056738	-0.123536
C40	C	0.092100	-0.556738	0.376464
C41	C	-0.592278	-1.056747	-0.123537
C42	C	-0.092278	-0.556747	0.376463
C43	C	-0.692234	-1.056749	-0.123535
C44	C	-0.192234	-0.556749	0.376465
C45	C	-0.307938	-1.056734	-0.123536
C46	C	0.192062	-0.556734	0.376464
N47	N	0.228086	-1.056754	-0.123536
N48	N	0.728086	-0.556754	0.376464
C49	C	-0.000102	-1.220263	-0.117185
C50	C	0.499898	-0.720263	0.382815
C51	C	-0.000105	-1.319561	-0.119056
C52	C	0.499895	-0.819561	0.380944
C53	C	-0.000062	-0.736692	-0.208614
C54	C	0.499938	-0.236692	0.291386
C55	C	-0.000075	-0.643392	-0.206850
C56	C	0.499925	-0.143392	0.293150
C57	C	-0.000085	-0.607320	-0.124497
C58	C	0.499915	-0.107320	0.375503
C59	C	-0.000091	-0.664552	-0.043902
C60	C	0.499909	-0.164552	0.456098
C61	C	-0.000084	-0.757850	-0.045666
C62	C	0.499916	-0.257850	0.454334
C63	C	-0.000103	-0.470090	-0.040231
C64	C	0.499897	0.029910	0.459769
C65	C	-0.000108	-0.376786	-0.038466
C66	C	0.499892	0.123214	0.461534
C67	C	-0.000094	-0.355632	-0.201415
C68	C	0.499906	0.144368	0.298585
C69	C	-0.000087	-0.448930	-0.203179
C70	C	0.499913	0.051070	0.296821
C71	C	-0.000091	-0.506156	-0.122584
C72	C	0.499909	-0.006156	0.377416
C73	C	-0.000080	-1.050384	-0.287065
C74	C	0.499920	-0.550384	0.212935
C75	C	-0.000076	-1.052254	-0.386362
C76	C	0.499924	-0.552254	0.113638
C77	C	-0.000103	-1.141812	0.196507
C78	C	0.499897	-0.641812	0.696507
C79	C	-0.000094	-1.140049	0.289807
C80	C	0.499906	-0.640049	0.789807
C81	C	-0.000083	-1.057696	0.325879
C82	C	0.499917	-0.557696	0.825879
C83	C	-0.000072	-0.977101	0.268646
C84	C	0.499928	-0.477101	0.768646
C85	C	-0.000075	-0.978865	0.175349
C86	C	0.499925	-0.478865	0.675349
C87	C	-0.000069	-0.973430	0.463109
C88	C	0.499931	-0.473430	0.963109
C89	C	-0.000067	-0.971665	0.556413
C90	C	0.499933	-0.471665	1.056413
C91	C	-0.000087	-1.134614	0.577567
C92	C	0.499913	-0.634614	1.077567
C93	C	-0.000090	-1.136378	0.484269
C94	C	0.499910	-0.636378	0.984269
C95	C	-0.000081	-1.055782	0.427043
C96	C	0.499919	-0.555782	0.927043
H97	H	-0.416471	-1.166969	-0.013368
H98	H	0.083529	-0.666969	0.486632
Br99	Br	-0.000098	-1.243995	0.655229
Br100	Br	0.499902	-0.743995	1.155229
Br101	Br	-0.608740	-1.199952	0.019604
Br102	Br	-0.108740	-0.699952	0.519604
Br103	Br	-0.000096	-0.835515	0.063710
Br104	Br	0.499904	-0.335515	0.563710
Br105	Br	-0.000151	-0.327830	0.073300
Br106	Br	0.499849	0.172170	0.573300
Br107	Br	-0.000113	-0.547754	0.069150
Br108	Br	0.499887	-0.047754	0.569150
H109	H	-0.000058	-0.910047	0.298024
H110	H	0.499942	-0.410047	0.798024
Br111	Br	-0.000104	-1.249425	0.367467
Br112	Br	0.499896	-0.749425	0.867467
Br113	Br	-0.000113	-0.615598	0.067865
Br114	Br	0.499887	-0.115598	0.567865
H115	H	-0.000053	-0.766054	-0.275675
H116	H	0.499947	-0.266054	0.224325
H117	H	-0.000105	-1.203437	0.454903
H118	H	0.499895	-0.703437	0.954903
H119	H	-0.583711	-0.946514	-0.233703
H120	H	-0.083711	-0.446514	0.266297
Br121	Br	-0.000130	-1.253584	0.147562
Br122	Br	0.499870	-0.753584	0.647562
H123	H	-0.416456	-0.946497	-0.233707
H124	H	0.083544	-0.446497	0.266293
Br125	Br	-0.000057	-0.859899	0.605368
Br126	Br	0.499943	-0.359899	1.105368
Br127	Br	-0.000053	-0.864048	0.385445
Br128	Br	0.499947	-0.364048	0.885445
Br129	Br	-0.000068	-0.565731	-0.316227
Br130	Br	0.499932	-0.065731	0.183773
H131	H	-0.000071	-0.478296	-0.270239
H132	H	0.499929	0.021704	0.229761
H133	H	-0.000095	-0.309033	-0.267039
H134	H	0.499905	0.190967	0.232961
H135	H	-0.000068	-0.913240	0.128756
H136	H	0.499932	-0.413240	0.628756
