data_functionalizedCrystal
_audit_creation_method	'MofGen! by Chris Wilmer'
_symmetry_space_group_name_H-M	'P1'
_symmetry_Int_Tables_number	1
_symmetry_cell_setting	triclinic
loop_
_symmetry_equiv_pos_as_xyz
  x,y,z
_cell_length_a	15.298852
_cell_length_b	16.120566
_cell_length_c	15.296720
_cell_angle_alpha	82.717833
_cell_angle_beta	91.595671
_cell_angle_gamma	103.014412
loop_
_atom_site_label
_atom_site_type_symbol
_atom_site_fract_x
_atom_site_fract_y
_atom_site_fract_z
Zn1	Zn	-0.514357	-1.278272	-0.491267
Zn2	Zn	-0.014357	-0.778272	0.008733
Zn3	Zn	-0.638434	-1.325199	-0.321540
Zn4	Zn	-0.138434	-0.825199	0.178460
Zn5	Zn	-0.481518	-1.157885	-0.339505
Zn6	Zn	0.018482	-0.657885	0.160495
Zn7	Zn	-0.653756	-1.165988	-0.460958
Zn8	Zn	-0.153756	-0.665988	0.039042
O9	O	-0.572016	-1.231836	-0.403317
O10	O	-0.072016	-0.731836	0.096683
O11	O	-0.538147	-1.401510	-0.473918
O12	O	-0.038147	-0.901510	0.026082
O13	O	-0.597463	-1.319253	-0.202063
O14	O	-0.097463	-0.819253	0.297937
O15	O	-0.361866	-1.150825	-0.379839
O16	O	0.138134	-0.650825	0.120161
O17	O	-0.629306	-1.435987	-0.349220
O18	O	-0.129306	-0.935987	0.150780
O19	O	-0.385993	-1.239273	-0.491338
O20	O	0.114007	-0.739273	0.008662
O21	O	-0.482177	-1.196328	-0.215262
O22	O	0.017823	-0.696328	0.284738
O23	O	-0.497035	-1.041947	-0.350450
O24	O	0.002965	-0.541947	0.149550
O25	O	-0.655420	-1.164634	-0.586839
O26	O	-0.155420	-0.664634	-0.086839
O27	O	-0.623577	-1.047900	-0.439682
O28	O	-0.123577	-0.547900	0.060318
O29	O	-0.553005	-1.247129	-0.609107
O30	O	-0.053005	-0.747129	-0.109107
O31	O	-0.764475	-1.327109	-0.319831
O32	O	-0.264475	-0.827109	0.180169
O33	O	-0.775732	-1.210137	-0.422261
O34	O	-0.275732	-0.710137	0.077739
C35	C	-0.558406	-1.014584	-0.393727
C36	C	-0.058406	-0.514584	0.106273
C37	C	-0.552608	-0.921644	-0.389641
C38	C	-0.052608	-0.421644	0.110359
C39	C	-0.802262	-1.274615	-0.365828
C40	C	-0.302262	-0.774615	0.134172
C41	C	-0.900772	-1.292989	-0.349822
C42	C	-0.400772	-0.792989	0.150178
C43	C	-1.201983	-1.101053	-0.517821
C44	C	-0.701983	-0.601053	-0.017821
C45	C	-1.109429	-1.083792	-0.532865
C46	C	-0.609429	-0.583792	-0.032865
C47	C	-1.057260	-1.136089	-0.487105
C48	C	-0.557260	-0.636089	0.012895
C49	C	-1.097654	-1.205652	-0.426299
C50	C	-0.597654	-0.705652	0.073701
C51	C	-1.190218	-1.222919	-0.411258
C52	C	-0.690218	-0.722919	0.088742
C53	C	-1.045496	-1.257955	-0.380543
C54	C	-0.545496	-0.757955	0.119457
C55	C	-1.085890	-1.327518	-0.319737
C56	C	-0.585890	-0.827518	0.180263
C57	C	-1.178444	-1.344781	-0.304699
C58	C	-0.678444	-0.844781	0.195301
C59	C	-1.230613	-1.292484	-0.350458
C60	C	-0.730613	-0.792484	0.149542
C61	C	-0.952932	-1.240687	-0.395584
C62	C	-0.452932	-0.740687	0.104416
C63	C	-0.941167	-1.362553	-0.289022
C64	C	-0.441167	-0.862553	0.210978
C65	C	-1.033721	-1.379815	-0.273977
C66	C	-0.533721	-0.879815	0.226023
C67	C	-0.542003	-0.751476	-0.382193
C68	C	-0.042003	-0.251476	0.117807
C69	C	-0.602107	-0.713050	-0.424437
C70	C	-0.102107	-0.213050	0.075563
C71	C	-0.596206	-0.618363	-0.420292
C72	C	-0.096206	-0.118363	0.079708
C73	C	-0.547903	-0.846172	-0.386336
C74	C	-0.047903	-0.346172	0.113664
C75	C	-0.340876	-1.188910	-0.440974
C76	C	0.159124	-0.688910	0.059026
C77	C	-0.242378	-1.170618	-0.457020
C78	C	0.257622	-0.670618	0.042980
C79	C	-0.609585	-1.201551	-0.630453
C80	C	-0.109585	-0.701551	-0.130453
C81	C	-0.625595	-1.188645	-0.727245
C82	C	-0.125595	-0.688645	-0.227245
C83	C	-0.585681	-0.449939	-0.412931
C84	C	-0.085681	0.050061	0.087069
C85	C	-0.591505	-0.542888	-0.416990
C86	C	-0.091505	-0.042888	0.083010
C87	C	-0.457440	-1.324077	-1.046458
C88	C	0.042560	-0.824077	-0.546458
C89	C	-0.442401	-1.336208	-0.955517
C90	C	0.057599	-0.836208	-0.455517
C91	C	-0.488197	-1.299318	-0.898445
C92	C	0.011803	-0.799318	-0.398445
C93	C	-0.549037	-1.250296	-0.932322
C94	C	-0.049037	-0.750296	-0.432322
C95	C	-0.564084	-1.238169	-1.023271
C96	C	-0.064084	-0.738169	-0.523271
C97	C	-0.594841	-1.213410	-0.875258
C98	C	-0.094841	-0.713410	-0.375258
C99	C	-0.655681	-1.164388	-0.909134
C100	C	-0.155681	-0.664388	-0.409134
C101	C	-0.670724	-1.152263	-1.000075
C102	C	-0.170724	-0.652263	-0.500075
C103	C	-0.624928	-1.189153	-1.057147
C104	C	-0.124928	-0.689153	-0.557147
C105	C	-0.579794	-1.225537	-0.784309
C106	C	-0.079794	-0.725537	-0.284309
C107	C	-0.686438	-1.139629	-0.761121
C108	C	-0.186438	-0.639629	-0.261121
C109	C	-0.701478	-1.127498	-0.852062
C110	C	-0.201478	-0.627498	-0.352062
C111	C	-0.534533	-1.262040	-0.177078
C112	C	-0.034533	-0.762040	0.322922
C113	C	-0.518284	-1.275061	-0.080335
C114	C	-0.018284	-0.775061	0.419665
H115	H	-0.920051	-1.184049	-0.445093
H116	H	-0.420051	-0.684049	0.054907
F117	F	-0.675152	-0.762994	-0.475784
F118	F	-0.175152	-0.262994	0.024216
F119	F	-0.468959	-0.701531	-0.330855
F120	F	0.031041	-0.201531	0.169145
F121	F	-0.408715	-1.363340	-1.107201
F122	F	0.091285	-0.863340	-0.607201
F123	F	-0.958770	-1.117768	-0.503184
F124	F	-0.458770	-0.617768	-0.003184
H125	H	-0.637170	-1.179278	-1.131200
H126	H	-0.137170	-0.679278	-0.631200
H127	H	-0.720272	-1.112353	-1.027653
H128	H	-0.220272	-0.612353	-0.527653
F129	F	-0.515046	-1.277709	-0.748265
F130	F	-0.015046	-0.777709	-0.248265
H131	H	-0.475948	-1.309199	-0.824398
H132	H	0.024052	-0.809199	-0.324398
F133	F	-0.377653	-1.388380	-0.919469
F134	F	0.122347	-0.888380	-0.419469
F135	F	-1.076723	-1.453849	-0.209267
F136	F	-0.576723	-0.953849	0.290733
F137	F	-0.766228	-1.075327	-0.888127
F138	F	-0.266228	-0.575327	-0.388127
F139	F	-0.735186	-1.100370	-0.700384
F140	F	-0.235186	-0.600370	-0.200384
H141	H	-0.898692	-1.405140	-0.251762
H142	H	-0.398692	-0.905140	0.248238
H143	H	-1.244467	-1.058484	-0.555076
H144	H	-0.744467	-0.558484	-0.055076
F145	F	-1.066446	-1.009763	-0.597579
F146	F	-0.566446	-0.509763	-0.097579
H147	H	-1.305977	-1.306530	-0.338207
H148	H	-0.805977	-0.806530	0.161793
F149	F	-1.221434	-1.418825	-0.239993
F150	F	-0.721434	-0.918825	0.260007
