data_functionalizedCrystal
_audit_creation_method	'MofGen! by Chris Wilmer'
_symmetry_space_group_name_H-M	'P1'
_symmetry_Int_Tables_number	1
_symmetry_cell_setting	triclinic
loop_
_symmetry_equiv_pos_as_xyz
  x,y,z
_cell_length_a	31.640172
_cell_length_b	31.640172
_cell_length_c	20.016444
_cell_angle_alpha	59.997665
_cell_angle_beta	90.005684
_cell_angle_gamma	60.004780
loop_
_atom_site_label
_atom_site_type_symbol
_atom_site_fract_x
_atom_site_fract_y
_atom_site_fract_z
Zr1	Zr	0.407243	0.462537	-0.087581
O2	O	0.339761	0.550716	-0.194271
O3	O	0.427921	0.374367	-0.054876
O4	O	0.427928	0.462538	-0.194254
O5	O	0.339758	0.462542	0.055052
O6	O	0.497485	0.462529	-0.194239
O7	O	0.339754	0.462545	-0.054893
O8	O	0.497472	0.304808	0.055083
O9	O	0.339771	0.620263	-0.194270
O10	O	0.488660	0.410623	-0.040915
O11	O	0.436753	0.410627	0.041125
O12	O	0.436761	0.514437	-0.122975
O13	O	0.384855	0.514441	-0.040935
Zr14	Zr	0.518184	0.462518	0.087792
Zr15	Zr	0.518178	0.462524	-0.087558
Zr16	Zr	0.407248	0.462532	0.087769
Zr17	Zr	0.407258	0.573458	-0.087579
Zr18	Zr	0.518169	0.351598	0.087790
O19	O	0.497506	0.550689	0.055087
O20	O	0.497497	0.550696	-0.194238
O21	O	0.339770	0.550708	0.055054
O22	O	0.585665	0.374340	0.194482
O23	O	0.585657	0.374347	-0.054843
O24	O	0.427929	0.374360	0.194449
O25	O	0.585669	0.462514	-0.054841
O26	O	0.497498	0.462518	0.194465
O27	O	0.427941	0.462526	0.194451
O28	O	0.585672	0.462511	0.055104
O29	O	0.427950	0.620252	-0.194251
O30	O	0.497477	0.304803	0.194462
O31	O	0.585655	0.304792	0.194481
O32	O	0.585651	0.304796	0.055101
O33	O	0.339776	0.620259	-0.054890
O34	O	0.427954	0.620248	-0.054871
O35	O	0.488665	0.410618	0.123186
O36	O	0.540572	0.410614	0.041147
O37	O	0.488674	0.514428	-0.040913
O38	O	0.436767	0.514432	0.041127
C39	C	0.462694	0.323784	0.000103
C40	C	0.462688	0.276695	0.000102
C41	C	0.489818	-0.015349	-0.042711
C42	C	0.489829	-0.192345	-0.042710
O43	O	0.512891	-0.215251	-0.079101
N44	N	0.462734	-0.214472	0.000112
C45	C	0.435636	-0.192350	0.042942
O46	O	0.412595	-0.215236	0.079372
C47	C	0.435629	-0.015358	0.042946
C48	C	0.462722	0.006771	0.000114
C49	C	0.516910	0.006779	-0.085538
C50	C	0.516904	0.051028	-0.085542
C51	C	0.489808	0.073148	-0.042717
C52	C	0.462717	0.051020	0.000110
C53	C	0.408535	0.006760	0.085779
C54	C	0.408537	0.051010	0.085778
C55	C	0.435630	0.073139	0.042946
C56	C	0.435615	0.117388	0.042931
N57	N	0.462711	0.139515	0.000109
C58	C	0.489807	0.117395	-0.042715
C59	C	0.435641	-0.285272	0.042935
C60	C	0.435642	-0.329519	0.042933
C61	C	0.489836	-0.329512	-0.042718
C62	C	0.489832	-0.285261	-0.042720
C63	C	0.462737	-0.263145	0.000113
C64	C	0.489794	0.210321	-0.042720
C65	C	0.489784	0.254575	-0.042722
C66	C	0.435593	0.254562	0.042932
C67	C	0.435600	0.210313	0.042931
C68	C	0.462704	0.188193	0.000104
O69	O	0.412570	0.140317	0.079311
O70	O	0.512855	0.140279	-0.079125
C71	C	0.489824	-0.059598	-0.042707
C72	C	0.462732	-0.081726	0.000120
C73	C	0.435636	-0.059606	0.042945
C74	C	0.462733	-0.125973	0.000118
C75	C	0.489830	-0.148093	-0.042706
C76	C	0.516925	-0.125966	-0.085528
C77	C	0.516920	-0.081718	-0.085532
C78	C	0.408540	-0.081733	0.085767
C79	C	0.408547	-0.125981	0.085766
C80	C	0.435644	-0.148101	0.042942
C81	C	0.323950	0.462545	0.000076
C82	C	0.276855	0.462551	0.000067
C83	C	0.011939	0.408332	0.042957
C84	C	-0.165046	0.408322	0.042973
O85	O	-0.164892	0.362235	0.079432
N86	N	-0.214266	0.462511	0.000137
C87	C	-0.219239	0.516707	-0.042701
O88	O	-0.265165	0.562799	-0.079128
C89	C	-0.042254	0.516717	-0.042712
C90	C	0.006965	0.462524	0.000120
C91	C	0.061156	0.354144	0.085785
C92	C	0.105400	0.354147	0.085777
C93	C	0.100426	0.408339	0.042940
C94	C	0.051209	0.462527	0.000112
C95	C	-0.047228	0.570912	-0.085545
C96	C	-0.002976	0.570910	-0.085542
C97	C	0.046243	0.516717	-0.042710
C98	C	0.090478	0.516722	-0.042733
N99	N	0.139698	0.462533	0.000102
C100	C	0.144672	0.408341	0.042939
C101	C	-0.312156	0.516698	-0.042693
C102	C	-0.356402	0.516696	-0.042692
C103	C	-0.302206	0.408311	0.042983
C104	C	-0.257960	0.408313	0.042976
C105	C	-0.262936	0.462509	0.000142
C106	C	0.237584	0.408352	0.042918
C107	C	0.281829	0.408360	0.042903
C108	C	0.227629	0.516745	-0.042768
C109	C	0.183388	0.516737	-0.042757
C110	C	0.188369	0.462536	0.000092
O111	O	0.090364	0.562785	-0.079166
O112	O	0.190602	0.362257	0.079375
C113	C	-0.032304	0.408329	0.042965
C114	C	-0.081522	0.462518	0.000136
C115	C	-0.086495	0.516710	-0.042701
C116	C	-0.125768	0.462516	0.000137
C117	C	-0.120794	0.408324	0.042974
C118	C	-0.071574	0.354134	0.085810
C119	C	-0.027330	0.354138	0.085802
C120	C	-0.135715	0.570899	-0.085536
C121	C	-0.179957	0.570891	-0.085526
C122	C	-0.174983	0.516700	-0.042689
C123	C	0.601477	0.462510	0.000135
C124	C	0.648572	0.462504	0.000145
C125	C	0.462706	0.462534	-0.219230
C126	C	0.462703	0.462537	-0.293671
C127	C	0.462732	0.601272	0.000108
C128	C	0.462739	0.648361	0.000109
C129	C	0.435622	0.516720	-0.507761
C130	C	0.435626	0.516717	-0.577703
C131	C	0.489808	0.408332	-0.492019
C132	C	0.489806	0.408335	-0.422080
C133	C	0.462710	0.462531	-0.429954
C134	C	0.462716	0.462525	-0.569835
C135	C	0.462721	0.462522	-0.645668
C136	C	0.462706	0.462534	-0.354116
C137	C	0.462721	0.462521	0.219442
C138	C	0.462723	0.462519	0.293882
C139	C	0.601457	0.323766	0.000132
C140	C	0.648546	0.276672	0.000142
C141	C	0.462701	0.323777	0.219439
C142	C	0.462698	0.276686	0.293879
C143	C	0.601465	0.323759	0.219468
C144	C	0.648556	0.276663	0.293918
C145	C	0.323962	0.601296	-0.219257
C146	C	0.276871	0.648393	-0.293707
C147	C	0.323969	0.601290	0.000079
C148	C	0.276880	0.648384	0.000070
C149	C	0.462725	0.601279	-0.219228
C150	C	0.462729	0.648370	-0.293667
C151	C	0.643562	0.254560	-0.042697
C152	C	0.687802	0.210316	-0.042705
C153	C	0.737026	0.188181	0.000131
C154	C	0.742010	0.210297	0.042971
C155	C	0.697770	0.254543	0.042973
C156	C	0.489793	0.254567	0.371679
C157	C	0.489788	0.210327	0.441630
C158	C	0.462689	0.188203	0.433778
C159	C	0.435590	0.210326	0.355970
C160	C	0.435593	0.254569	0.286021
C161	C	0.697770	0.254544	0.286056
C162	C	0.742021	0.210297	0.356003
C163	C	0.737057	0.188168	0.433810
C164	C	0.687838	0.210292	0.441670
C165	C	0.643588	0.254540	0.371725
C166	C	0.227657	0.670518	-0.285845
C167	C	0.183405	0.714778	-0.355792
C168	C	0.188369	0.736909	-0.433599
C169	C	0.237588	0.714783	-0.441459
C170	C	0.281838	0.670526	-0.371513
C171	C	0.281865	0.670500	0.042901
C172	C	0.237624	0.714756	0.042890
C173	C	0.188400	0.736893	0.000051
C174	C	0.183417	0.714775	-0.042785
C175	C	0.227657	0.670523	-0.042778
C176	C	0.489833	0.670479	-0.285790
C177	C	0.489847	0.714720	-0.355727
C178	C	0.462753	0.736854	-0.433541
C179	C	0.435648	0.714739	-0.441417
C180	C	0.435638	0.670496	-0.371481
H181	H	0.538968	0.069041	-0.120416
N182	N	0.406375	0.278412	0.202110
H183	H	0.410487	0.309796	0.158982
H184	H	0.368484	0.296739	0.195623
H185	H	0.511865	0.192314	-0.077593
H186	H	0.413589	0.732767	-0.504783
N187	N	0.406401	0.646653	-0.379983
H188	H	0.389241	0.667391	-0.439892
H189	H	0.379158	0.654360	-0.352844
N190	N	0.682423	0.186460	-0.088900
H191	H	0.699566	0.194163	-0.132009
H192	H	0.644517	0.207202	-0.115974
N193	N	0.222293	0.646661	-0.201931
H194	H	0.257790	0.615267	-0.158805
H195	H	0.202718	0.628345	-0.195457
N196	N	0.519022	0.349884	-0.338152
H197	H	0.514911	0.358111	-0.295042
H198	H	0.556913	0.326215	-0.331661
N199	N	0.140686	0.784622	0.000047
H200	H	0.151318	0.795269	0.033685
H201	H	0.119406	0.769194	0.024402
H202	H	0.511846	0.272592	-0.077604
H203	H	0.413559	0.560849	-0.514178
H204	H	0.511918	0.732721	-0.349298
N205	N	0.130324	0.738636	-0.347304
H206	H	0.133898	0.717893	-0.287398
H207	H	0.110778	0.730944	-0.374465
N208	N	0.140641	0.784635	-0.509040
H209	H	0.140618	0.821354	-0.542709
H210	H	0.108738	0.795239	-0.492182
H211	H	0.321942	0.652480	0.077791
N212	N	0.703152	0.278389	0.089180
H213	H	0.667660	0.309780	0.082685
H214	H	0.722722	0.296708	0.066686
N215	N	0.519064	0.646603	-0.201865
H216	H	0.494218	0.654304	-0.170935
H217	H	0.536237	0.667333	-0.207564
N218	N	0.519025	0.186461	0.525546
H219	H	0.494181	0.194166	0.556477
H220	H	0.536196	0.207196	0.519833
N221	N	0.406424	0.575164	-0.661624
H222	H	0.389265	0.609494	-0.655995
H223	H	0.379182	0.577540	-0.692536
H224	H	0.603517	0.272544	0.378137
H225	H	0.701821	0.272555	0.222708
H226	H	0.603485	0.272582	-0.077589
H227	H	0.241624	0.732808	-0.504818
H228	H	0.782093	0.192289	0.349589
N229	N	0.519031	0.349880	-0.483528
H230	H	0.514921	0.358100	-0.539640
H231	H	0.504799	0.326220	-0.452601
H232	H	0.773045	0.152152	0.000123
N233	N	0.130323	0.738647	-0.088975
H234	H	0.126175	0.704889	-0.066501
H235	H	0.126200	0.757016	-0.148886
N236	N	0.334919	0.646663	-0.379999
H237	H	0.331343	0.667401	-0.439904
H238	H	0.354451	0.602247	-0.352851
H239	H	0.773093	0.152138	0.490758
N240	N	0.222270	0.646669	-0.088970
H241	H	0.239411	0.602254	-0.049684
H242	H	0.239410	0.654405	-0.132073
H243	H	0.462766	0.772879	-0.490481
N244	N	-0.066219	0.295688	0.132012
H245	H	-0.046671	0.271994	0.191931
H246	H	-0.046695	0.272041	0.109486
H247	H	0.782094	0.192268	0.077846
H248	H	-0.298163	0.364185	0.077858
N249	N	0.546138	-0.017075	-0.131731
H250	H	0.563297	0.003664	-0.158857
H251	H	0.521260	-0.009370	-0.174799
N252	N	0.519052	-0.261395	-0.088917
H253	H	0.536215	-0.282124	-0.116046
H254	H	0.546293	-0.269097	-0.049587
N255	N	0.243002	0.738611	0.089088
H256	H	0.262542	0.704852	0.149010
H257	H	0.207490	0.770016	0.082512
N258	N	0.519061	-0.353372	-0.088910
H259	H	0.514948	-0.384760	-0.082408
H260	H	0.556952	-0.371700	-0.066408
H261	H	0.462691	0.152177	0.490742
N262	N	0.406416	-0.353380	0.089123
H263	H	0.389254	-0.332651	0.116253
H264	H	0.431297	-0.397798	0.132187
N265	N	-0.141085	0.629352	-0.131749
H266	H	-0.178981	0.663675	-0.158883
H267	H	-0.123914	0.631711	-0.174812
N268	N	0.406373	0.278424	0.089123
H269	H	0.420589	0.244663	0.149042
H270	H	0.368475	0.296790	0.066593
H271	H	0.413526	0.192306	0.349589
N272	N	0.406409	-0.261422	0.089132
H273	H	0.379141	-0.217005	0.049847
H274	H	0.431287	-0.269164	0.132245
N275	N	0.379321	-0.017108	0.131990
H276	H	0.362163	0.003620	0.159123
H277	H	0.404208	-0.061525	0.175053
H278	H	0.511861	0.272575	0.378088
H279	H	0.386471	0.069015	0.120658
H280	H	0.538982	-0.063704	-0.120409
N281	N	0.406375	0.186445	0.089114
H282	H	0.368470	0.220200	0.066638
H283	H	0.420625	0.168081	0.149023
N284	N	0.546147	-0.149829	-0.131721
H285	H	0.573411	-0.194246	-0.092428
H286	H	0.563280	-0.129059	-0.158855
N287	N	0.379325	-0.149847	0.131968
H288	H	0.362162	-0.129118	0.159097
H289	H	0.404209	-0.194264	0.175033
H290	H	0.386476	-0.063729	0.120643
N291	N	0.682488	0.186421	0.525593
H292	H	0.717991	0.155032	0.568704
H293	H	0.662924	0.168092	0.532073
H294	H	0.321906	0.364227	0.077785
H295	H	0.241647	0.364216	0.077811
H296	H	0.065215	0.310012	0.120673
N297	N	0.158481	0.295692	0.131978
H298	H	0.162625	0.272002	0.191896
H299	H	0.185732	0.303952	0.125421
N300	N	-0.204878	0.349860	0.089181
H301	H	-0.185308	0.347440	0.132286
H302	H	-0.185355	0.347477	0.049848
N303	N	-0.409487	0.575147	-0.088900
H304	H	-0.405918	0.609474	-0.116032
H305	H	-0.429022	0.577507	-0.049572
H306	H	-0.316217	0.560833	-0.077580
N307	N	-0.100308	0.629363	-0.131734
H308	H	-0.104459	0.653062	-0.191652
H309	H	-0.104406	0.652996	-0.109192
N310	N	-0.008345	0.629365	-0.131742
H311	H	-0.046240	0.663691	-0.158872
H312	H	0.008826	0.631731	-0.174806
H313	H	0.143310	0.560866	-0.077645
H314	H	0.012743	0.310008	0.120681
N315	N	0.222272	0.575191	-0.088958
H316	H	0.184379	0.609524	-0.116091
H317	H	0.239446	0.577557	-0.132019
N318	N	-0.233043	0.629346	-0.131729
H319	H	-0.229474	0.663674	-0.158862
H320	H	-0.252573	0.631703	-0.092395
