data_functionalizedCrystal
_audit_creation_method	'MofGen! by Chris Wilmer'
_symmetry_space_group_name_H-M	'P1'
_symmetry_Int_Tables_number	1
_symmetry_cell_setting	triclinic
loop_
_symmetry_equiv_pos_as_xyz
  x,y,z
_cell_length_a	18.215407
_cell_length_b	17.637651
_cell_length_c	18.215399
_cell_angle_alpha	78.756317
_cell_angle_beta	89.982632
_cell_angle_gamma	101.216706
loop_
_atom_site_label
_atom_site_type_symbol
_atom_site_fract_x
_atom_site_fract_y
_atom_site_fract_z
Zn1	Zn	1.065871	-0.314821	-0.356755
Zn2	Zn	1.565871	0.185179	0.143245
Zn3	Zn	1.040917	-0.447039	-0.208779
Zn4	Zn	1.540917	0.052961	0.291221
Zn5	Zn	0.942800	-0.314840	-0.233704
Zn6	Zn	1.442800	0.185160	0.266296
Zn7	Zn	0.917917	-0.446988	-0.331819
Zn8	Zn	1.417917	0.053012	0.168181
O9	O	0.991876	-0.380922	-0.282764
O10	O	1.491876	0.119078	0.217236
O11	O	1.165543	-0.332373	-0.337130
O12	O	1.665543	0.167627	0.162870
O13	O	1.027872	-0.429532	-0.109095
O14	O	1.527872	0.070468	0.390905
O15	O	0.979984	-0.204199	-0.270894
O16	O	1.479984	0.295801	0.229106
O17	O	1.147209	-0.429513	-0.228413
O18	O	1.647209	0.070487	0.271587
O19	O	1.070403	-0.204185	-0.361299
O20	O	1.570403	0.295815	0.138701
O21	O	0.955786	-0.332406	-0.127408
O22	O	1.455786	0.167594	0.372592
O23	O	0.836518	-0.332356	-0.246714
O24	O	1.336518	0.167644	0.253286
O25	O	0.937573	-0.429426	-0.438116
O26	O	1.437573	0.070574	0.061884
O27	O	0.818236	-0.429445	-0.318799
O28	O	1.318236	0.070555	0.181201
O29	O	1.046274	-0.332324	-0.456437
O30	O	1.546274	0.167676	0.043563
O31	O	1.003743	-0.557670	-0.204233
O32	O	1.503743	-0.057670	0.295767
O33	O	0.913375	-0.557633	-0.294630
O34	O	1.413375	-0.057633	0.205370
C35	C	0.800675	-0.380898	-0.282756
C36	C	1.300675	0.119102	0.217244
C37	C	0.718874	-0.380906	-0.282766
C38	C	1.218874	0.119094	0.217234
C39	C	0.540206	-0.330430	-0.339430
C40	C	1.040206	0.169570	0.160570
C41	C	0.463346	-0.330436	-0.339431
C42	C	0.963346	0.169564	0.160569
C43	C	0.444294	-0.431436	-0.226107
C44	C	0.944294	0.068564	0.273893
C45	C	0.521154	-0.431425	-0.226103
C46	C	1.021154	0.068575	0.273897
C47	C	0.569108	-0.380923	-0.282769
C48	C	1.069108	0.119077	0.217231
C49	C	0.415388	-0.380941	-0.282774
C50	C	0.915388	0.119059	0.217226
C51	C	0.332053	-0.380949	-0.282774
C52	C	0.832053	0.119051	0.217226
C53	C	0.652448	-0.380914	-0.282767
C54	C	1.152448	0.119086	0.217233
C55	C	0.953171	-0.586339	-0.244037
C56	C	1.453171	-0.086339	0.255963
C57	C	0.936680	-0.674217	-0.227494
C58	C	1.436680	-0.174217	0.272506
C59	C	1.117635	-0.962906	-0.408672
C60	C	1.617635	-0.462906	0.091328
C61	C	1.102115	-1.045481	-0.393115
C62	C	1.602115	-0.545481	0.106885
C63	C	1.008024	-1.045603	-0.298885
C64	C	1.508024	-0.545603	0.201115
C65	C	1.023538	-0.963026	-0.314432
C66	C	1.523538	-0.463026	0.185568
C67	C	1.078343	-0.921685	-0.369327
C68	C	1.578343	-0.421685	0.130673
C69	C	0.984247	-0.921805	-0.275087
C70	C	1.484247	-0.421805	0.224913
C71	C	0.999757	-0.839235	-0.290636
C72	C	1.499757	-0.339235	0.209364
C73	C	1.054558	-0.797888	-0.345530
C74	C	1.554558	-0.297888	0.154470
C75	C	1.093853	-0.839115	-0.384876
C76	C	1.593853	-0.339115	0.115124
C77	C	0.929438	-0.963148	-0.220196
C78	C	1.429438	-0.463148	0.279804
C79	C	0.890146	-0.921926	-0.180851
C80	C	1.390146	-0.421926	0.319149
C81	C	0.905660	-0.839355	-0.196396
C82	C	1.405660	-0.339355	0.303604
C83	C	0.960461	-0.798008	-0.251290
C84	C	1.460461	-0.298008	0.248710
C85	C	0.866365	-0.798128	-0.157050
C86	C	1.366365	-0.298128	0.342950
C87	C	0.881875	-0.715559	-0.172599
C88	C	1.381875	-0.215559	0.327401
C89	C	0.975971	-0.715438	-0.266839
C90	C	1.475971	-0.215438	0.233161
C91	C	1.183825	-0.380947	-0.282773
C92	C	1.683825	0.119053	0.217227
C93	C	1.265621	-0.380957	-0.282776
C94	C	1.765621	0.119043	0.217224
C95	C	0.991931	-0.380867	-0.474727
C96	C	1.491931	0.119133	0.025273
C97	C	0.991955	-0.380844	-0.556531
C98	C	1.491955	0.119156	-0.056531
C99	C	1.030753	-0.174703	-0.321659
C100	C	1.530753	0.325297	0.178341
C101	C	1.047320	-0.086825	-0.338233
C102	C	1.547320	0.413175	0.161767
C103	C	1.048582	-0.330236	-0.754274
C104	C	1.548582	0.169764	-0.254274
C105	C	1.048595	-0.330213	-0.831137
C106	C	1.548595	0.169787	-0.331137
C107	C	0.935403	-0.431330	-0.812048
C108	C	1.435403	0.068670	-0.312048
C109	C	0.935388	-0.431349	-0.735187
C110	C	1.435388	0.068651	-0.235187
C111	C	0.991981	-0.380803	-0.706302
C112	C	1.491981	0.119197	-0.206302
C113	C	0.992009	-0.380761	-0.860026
C114	C	1.492009	0.119239	-0.360026
C115	C	0.992023	-0.380737	-0.943364
C116	C	1.492023	0.119263	-0.443364
C117	C	0.991967	-0.380826	-0.622959
C118	C	1.491967	0.119174	-0.122959
C119	C	0.991875	-0.380919	-0.091558
C120	C	1.491875	0.119081	0.408442
C121	C	0.992036	-0.380720	-0.009797
C122	C	1.492036	0.119280	0.490203
H123	H	0.439819	-0.289318	-0.385569
H124	H	0.939819	0.210682	0.114431
O125	O	0.880346	-0.480361	-0.688570
O126	O	1.380346	0.019639	-0.188570
C127	C	0.841304	-0.435353	-0.652583
C128	C	1.341304	0.064647	-0.152583
H129	H	0.848498	-0.373079	-0.687494
H130	H	1.348498	0.126921	-0.187494
H131	H	0.779279	-0.463944	-0.646306
H132	H	1.279279	0.036056	-0.146306
H133	H	0.864561	-0.432643	-0.594849
H134	H	1.364561	0.067357	-0.094849
O135	O	1.103493	-0.281017	-0.726271
O136	O	1.603493	0.218983	-0.226271
C137	C	1.102272	-0.202215	-0.759932
C138	C	1.602272	0.297785	-0.259932
H139	H	1.044236	-0.198218	-0.781803
H140	H	1.544236	0.301782	-0.281803
H141	H	1.115964	-0.163165	-0.716757
H142	H	1.615964	0.336835	-0.216757
H143	H	1.145629	-0.181541	-0.808453
H144	H	1.645629	0.318459	-0.308453
O145	O	0.880346	-0.480350	-0.840090
O146	O	1.380346	0.019650	-0.340090
C147	C	0.810249	-0.463084	-0.824543
C148	C	1.310249	0.036916	-0.324543
H149	H	0.818433	-0.399926	-0.815332
H150	H	1.318433	0.100074	-0.315332
H151	H	0.772618	-0.469883	-0.873799
H152	H	1.272618	0.030117	-0.373799
H153	H	0.783016	-0.505480	-0.771928
H154	H	1.283016	-0.005480	-0.271928
H155	H	0.544685	-0.472543	-0.179959
H156	H	1.044685	0.027457	0.320041
O157	O	0.586689	-0.281296	-0.394508
O158	O	1.086689	0.218704	0.105492
C159	C	0.544692	-0.236746	-0.444528
C160	C	1.044692	0.263254	0.055472
H161	H	0.490417	-0.233975	-0.414913
H162	H	0.990417	0.266025	0.085087
H163	H	0.578628	-0.174460	-0.464213
H164	H	1.078628	0.325540	0.035787
H165	H	0.531071	-0.265775	-0.494905
H166	H	1.031071	0.234225	0.005095
O167	O	0.813074	-0.838380	-0.103816
O168	O	1.313074	-0.338380	0.396184
C169	C	0.756535	-0.886125	-0.136687
C170	C	1.256535	-0.386125	0.363313
H171	H	0.780145	-0.898438	-0.190164
H172	H	1.280145	-0.398438	0.309836
H173	H	0.735776	-0.944216	-0.095768
H174	H	1.235776	-0.444216	0.404232
H175	H	0.707966	-0.854331	-0.150709
H176	H	1.207966	-0.354331	0.349291
H177	H	0.916804	-1.030381	-0.207545
H178	H	1.416804	-0.530381	0.292455
H179	H	0.845522	-0.955598	-0.136157
H180	H	1.345522	-0.455598	0.363843
O181	O	1.069492	-0.717680	-0.360642
O182	O	1.569492	-0.217680	0.139358
C183	C	1.004130	-0.690126	-0.384687
C184	C	1.504130	-0.190126	0.115313
H185	H	0.952802	-0.737741	-0.363105
H186	H	1.452802	-0.237741	0.136895
H187	H	1.001443	-0.634912	-0.361883
H188	H	1.501443	-0.134912	0.138117
H189	H	1.005293	-0.675445	-0.448515
H190	H	1.505293	-0.175445	0.051485
H191	H	0.405241	-0.472554	-0.179972
H192	H	0.905241	0.027446	0.320028
H193	H	1.020605	-0.681776	-0.311534
H194	H	1.520605	-0.181776	0.188466
H195	H	1.094684	-0.289034	-0.870194
H196	H	1.594684	0.210966	-0.370194
O197	O	1.170789	-0.922650	-0.462047
O198	O	1.670789	-0.422650	0.037953
C199	C	1.137827	-0.874902	-0.518544
C200	C	1.637827	-0.374902	-0.018544
H201	H	1.084380	-0.862595	-0.494857
H202	H	1.584380	-0.362595	0.005143
H203	H	1.178703	-0.816808	-0.539366
H204	H	1.678703	-0.316808	-0.039366
H205	H	1.123744	-0.906690	-0.567091
H206	H	1.623744	-0.406690	-0.067091
O207	O	1.147095	-0.798827	-0.438152
O208	O	1.647095	-0.298827	0.061848
C209	C	1.152341	-0.717110	-0.443450
C210	C	1.652341	-0.217110	0.056550
H211	H	1.130375	-0.705889	-0.388748
H212	H	1.630375	-0.205889	0.111252
H213	H	1.213364	-0.685686	-0.454403
H214	H	1.713364	-0.185686	0.045597
H215	H	1.117528	-0.693677	-0.491481
H216	H	1.617528	-0.193677	0.008519
O217	O	1.140367	-1.085402	-0.431397
O218	O	1.640367	-0.585402	0.068603
C219	C	1.192041	-1.031203	-0.483202
C220	C	1.692041	-0.531203	0.016798
H221	H	1.205678	-0.972367	-0.464133
H222	H	1.705678	-0.472367	0.035867
H223	H	1.245539	-1.055025	-0.486645
H224	H	1.745539	-0.555025	0.013355
H225	H	1.166692	-1.022391	-0.540718
H226	H	1.666692	-0.522391	-0.040718
H227	H	0.963400	-1.079275	-0.254191
H228	H	1.463400	-0.579275	0.245809
H229	H	0.849879	-0.681996	-0.140560
H230	H	1.349879	-0.181996	0.359440
