data_functionalizedCrystal
_audit_creation_method	'MofGen! by Chris Wilmer'
_symmetry_space_group_name_H-M	'P1'
_symmetry_Int_Tables_number	1
_symmetry_cell_setting	triclinic
loop_
_symmetry_equiv_pos_as_xyz
  x,y,z
_cell_length_a	10.654550
_cell_length_b	10.654549
_cell_length_c	9.130313
_cell_angle_alpha	89.996463
_cell_angle_beta	89.999724
_cell_angle_gamma	84.484854
loop_
_atom_site_label
_atom_site_type_symbol
_atom_site_fract_x
_atom_site_fract_y
_atom_site_fract_z
O1	O	1.667839	0.176399	-0.121687
O2	O	1.302361	0.193205	-0.121713
O3	O	1.493503	0.002063	-0.121693
O4	O	1.476697	0.367541	-0.121707
O5	O	1.493490	0.002057	0.121906
O6	O	1.302348	0.193199	0.121886
O7	O	1.667826	0.176393	0.121912
Cu8	Cu	1.485086	0.184796	0.144141
Cu9	Cu	1.485101	0.184802	-0.143942
O10	O	1.476683	0.367536	0.121892
C11	C	1.255556	0.191968	0.000083
C12	C	1.116113	0.188276	0.000073
C13	C	1.492263	-0.044738	0.000105
C14	C	1.488571	-0.184181	0.000100
C15	C	1.036627	0.300818	0.000073
C16	C	0.905606	0.297341	0.000098
C17	C	0.933570	0.068772	0.000118
C18	C	1.064588	0.072250	0.000103
C19	C	1.597634	-0.394696	0.000098
C20	C	1.601113	-0.263676	0.000109
C21	C	1.372543	-0.235714	0.000093
C22	C	1.369066	-0.366732	0.000092
C23	C	1.714631	0.177630	0.000113
C24	C	1.854074	0.181322	0.000113
C25	C	1.477924	0.414336	0.000091
C26	C	1.481616	0.553780	0.000086
N27	N	1.485084	0.184790	0.346764
N28	N	1.485113	0.184798	-0.346565
C29	C	1.569751	0.100188	0.423425
C30	C	1.569763	0.100189	0.576762
C31	C	1.400437	0.269404	0.576764
C32	C	1.400420	0.269396	0.423429
H33	H	0.840893	0.388984	0.000101
C34	C	0.995822	0.526398	0.000074
C35	C	1.093265	0.428352	0.000060
H36	H	1.030788	0.605133	0.000078
H37	H	0.945298	0.520291	-0.084864
H38	H	0.945307	0.520272	0.085034
H39	H	1.143774	0.434472	-0.084906
H40	H	1.143809	0.434462	0.085006
C41	C	0.745143	-0.038050	0.000134
C42	C	0.876928	-0.058760	0.000131
H43	H	0.710181	-0.116787	0.000131
H44	H	0.717939	0.008325	0.085077
H45	H	0.717936	0.008340	-0.084820
H46	H	0.904137	-0.105143	0.085092
H47	H	0.904144	-0.105156	-0.084820
C48	C	1.178804	-0.171542	-0.125151
C49	C	1.248832	-0.148338	0.000079
H50	H	1.102426	-0.117605	-0.125157
H51	H	1.226338	-0.155808	-0.210078
H52	H	1.160138	-0.256950	-0.125133
H53	H	1.267506	-0.062932	0.000055
H54	H	1.201288	-0.164062	0.085027
C55	C	1.233053	0.436676	0.438821
C56	C	1.307350	0.362402	0.339152
H57	H	1.175603	0.494092	0.386788
H58	H	1.187434	0.383981	0.498639
H59	H	1.285736	0.482343	0.498614
H60	H	1.254667	0.316728	0.279366
H61	H	1.352972	0.415104	0.279309
C62	C	1.737110	-0.067083	0.438830
C63	C	1.662799	0.007179	0.339153
H64	H	1.794548	-0.124511	0.386804
H65	H	1.782743	-0.014381	0.498615
H66	H	1.684434	-0.112737	0.498655
H67	H	1.715475	0.052840	0.279334
H68	H	1.617164	-0.045529	0.279342
H69	H	1.695586	-0.221732	0.000121
H70	H	1.129309	-0.019401	0.000107
H71	H	1.689280	-0.459413	0.000093
H72	H	1.274584	-0.408682	0.000089
H73	H	1.638704	0.031297	0.639175
H74	H	1.331507	0.338290	0.639200
