data_functionalizedCrystal
_audit_creation_method	'MofGen! by Chris Wilmer'
_symmetry_space_group_name_H-M	'P1'
_symmetry_Int_Tables_number	1
_symmetry_cell_setting	triclinic
loop_
_symmetry_equiv_pos_as_xyz
  x,y,z
_cell_length_a	12.784890
_cell_length_b	10.654545
_cell_length_c	11.295483
_cell_angle_alpha	94.137200
_cell_angle_beta	86.328828
_cell_angle_gamma	78.795992
loop_
_atom_site_label
_atom_site_type_symbol
_atom_site_fract_x
_atom_site_fract_y
_atom_site_fract_z
O1	O	1.417465	-0.001378	-0.098988
O2	O	1.108406	0.052362	-0.098997
O3	O	1.270041	-0.158096	-0.098991
O4	O	1.255831	0.209080	-0.098993
O5	O	1.255844	-0.139637	0.099059
O6	O	1.094209	0.070821	0.099054
O7	O	1.403268	0.017081	0.099062
Cu8	Cu	1.247443	0.045636	0.117141
Cu9	Cu	1.264232	0.023806	-0.117076
O10	O	1.241634	0.227539	0.099057
C11	C	1.061734	0.065087	0.000027
C12	C	0.943817	0.075486	0.000024
C13	C	0.765802	0.205824	0.000022
C14	C	0.876595	0.196061	0.000022
C15	C	0.900240	-0.035334	0.000023
C16	C	0.789447	-0.025571	0.000023
C17	C	0.722231	0.095013	0.000024
C18	C	0.611436	0.104776	0.000032
C19	C	0.635083	-0.126619	0.000025
C20	C	0.745876	-0.136382	0.000025
C21	C	1.261899	-0.195540	0.000031
C22	C	1.258777	-0.334611	0.000024
C23	C	1.274267	-0.354746	-0.215896
C24	C	1.280550	-0.430148	-0.323856
C25	C	1.277616	-0.560816	-0.323857
C26	C	1.268396	-0.616083	-0.215887
C27	C	1.262114	-0.540681	-0.107928
C28	C	1.265052	-0.410012	-0.107938
C29	C	1.246616	-0.520545	0.107990
C30	C	1.249557	-0.389878	0.107994
C31	C	1.237396	-0.575812	0.215960
C32	C	1.231121	-0.500411	0.323923
C33	C	1.234057	-0.369736	0.323920
C34	C	1.243275	-0.314476	0.215954
C35	C	1.449940	0.004356	0.000035
C36	C	1.567858	-0.006044	0.000031
C37	C	1.249776	0.264983	0.000031
C38	C	1.252898	0.404053	0.000031
N39	N	1.235641	0.060989	0.281877
N40	N	1.276041	0.008443	-0.281812
C41	C	1.360992	-0.102141	0.531171
C42	C	1.352081	-0.090531	0.655834
C43	C	1.208905	0.095812	0.655870
C44	C	1.217816	0.084202	0.531206
C45	C	1.293863	-0.014777	0.468861
C46	C	1.302778	-0.026380	0.344196
C47	C	1.159597	0.159957	0.344233
C48	C	1.150687	0.171567	0.468897
H49	H	0.912065	0.286295	0.000022
H50	H	0.556709	0.202962	0.000040
H51	H	1.265996	-0.722478	-0.215898
H52	H	1.364701	-0.106970	0.293435
Cl53	Cl	1.055087	0.295989	0.547282
H54	H	1.104939	0.231098	0.293487
H55	H	1.223608	-0.545419	0.411823
H56	H	1.235002	-0.682208	0.215951
Cl57	Cl	0.984755	-0.186911	0.000018
H58	H	1.146983	0.176391	0.706647
H59	H	0.711073	0.304010	0.000037
H60	H	0.599603	-0.216859	-0.000068
Cl61	Cl	0.830384	-0.287964	0.000025
H62	H	1.276669	-0.248353	-0.215906
H63	H	1.288055	-0.385134	-0.411763
H64	H	1.228924	-0.308345	0.411834
Cl65	Cl	1.246971	-0.150209	0.215941
Cl66	Cl	1.285505	-0.655609	-0.459579
H67	H	1.422919	-0.182726	0.480409
Cl68	Cl	1.436473	-0.200369	0.734163
