data_functionalizedCrystal
_audit_creation_method	'MofGen! by Chris Wilmer'
_symmetry_space_group_name_H-M	'P1'
_symmetry_Int_Tables_number	1
_symmetry_cell_setting	triclinic
loop_
_symmetry_equiv_pos_as_xyz
  x,y,z
_cell_length_a	12.759401
_cell_length_b	16.959454
_cell_length_c	12.759393
_cell_angle_alpha	89.969286
_cell_angle_beta	89.981504
_cell_angle_gamma	90.020236
loop_
_atom_site_label
_atom_site_type_symbol
_atom_site_fract_x
_atom_site_fract_y
_atom_site_fract_z
Zn1	Zn	1.606216	-0.314632	-0.593988
Zn2	Zn	1.606094	-0.446833	-0.418310
Zn3	Zn	1.430518	-0.314673	-0.418327
Zn4	Zn	1.430490	-0.446772	-0.593952
O5	O	1.518330	-0.380727	-0.506144
O6	O	1.753221	-0.332177	-0.570692
O7	O	1.582764	-0.429345	-0.271291
O8	O	1.453888	-0.204057	-0.441651
O9	O	1.753131	-0.429304	-0.441622
O10	O	1.582972	-0.204026	-0.570708
O11	O	1.453769	-0.332247	-0.271304
O12	O	1.283493	-0.332188	-0.441616
O13	O	1.453840	-0.429201	-0.740978
O14	O	1.283473	-0.429241	-0.570647
O15	O	1.582945	-0.332118	-0.741004
O16	O	1.582737	-0.557436	-0.441588
O17	O	1.453722	-0.557391	-0.570631
C18	C	1.245362	-0.380713	-0.506130
C19	C	1.128586	-0.380726	-0.506149
C20	C	1.073740	-0.431342	-0.573224
C21	C	0.964016	-0.431352	-0.573235
C22	C	0.963992	-0.330127	-0.439087
C23	C	1.073714	-0.330114	-0.439082
C24	C	1.073753	-0.489786	-0.650670
C25	C	0.964029	-0.489796	-0.650681
C26	C	1.518242	-0.586094	-0.506126
C27	C	1.518300	-0.673950	-0.506154
C28	C	1.451249	-1.045433	-0.573330
C29	C	1.585703	-1.045419	-0.439066
C30	C	1.585666	-0.962873	-0.439056
C31	C	1.518419	-0.921603	-0.506183
C32	C	1.451208	-0.962879	-0.573320
C33	C	1.652869	-0.921591	-0.371913
C34	C	1.652834	-0.839040	-0.371900
C35	C	1.585591	-0.797769	-0.439033
C36	C	1.518378	-0.839050	-0.506173
C37	C	1.451130	-0.797780	-0.573300
C38	C	1.383922	-0.839059	-0.640447
C39	C	1.383965	-0.921607	-0.640453
C40	C	1.585548	-0.715220	-0.439027
C41	C	1.451089	-0.715226	-0.573291
C42	C	1.792363	-0.380743	-0.506159
C43	C	1.909140	-0.380749	-0.506165
C44	C	1.518403	-0.380648	-0.780178
C45	C	1.518435	-0.380614	-0.896954
C46	C	1.518447	-0.174559	-0.506185
C47	C	1.518496	-0.086703	-0.506203
C48	C	1.585669	-0.330058	-0.951832
C49	C	1.585694	-0.330029	-1.061556
C50	C	1.451247	-0.431119	-1.061516
C51	C	1.451218	-0.431143	-0.951793
C52	C	1.663294	-0.271696	-0.951856
C53	C	1.663319	-0.271668	-1.061580
C54	C	1.518317	-0.380750	-0.233177
C55	C	1.518489	-0.380561	-0.116401
H56	H	0.930034	-0.467945	-0.728033
C57	C	0.923754	-0.572468	-0.621047
H58	H	0.849297	-0.572472	-0.621066
H59	H	0.948531	-0.586077	-0.553212
H60	H	0.948577	-0.609854	-0.670597
C61	C	1.773230	-0.293820	-1.101822
H62	H	1.773244	-0.293792	-1.176280
H63	H	1.791368	-0.344838	-1.077002
H64	H	1.822883	-0.256484	-1.077023
C65	C	1.623958	-0.193113	-1.107588
H66	H	1.625290	-0.195781	-1.181948
H67	H	1.668009	-0.151393	-1.084634
H68	H	1.554257	-0.183716	-1.084579
C69	C	1.309955	-0.793660	-0.714286
H70	H	1.269930	-0.830063	-0.754275
H71	H	1.350108	-0.761411	-0.760085
H72	H	1.264179	-0.761506	-0.674044
C73	C	1.659667	-1.090810	-0.365226
H74	H	1.699684	-1.054403	-0.325236
H75	H	1.705434	-1.122973	-0.405456
H76	H	1.619508	-1.123051	-0.319413
H77	H	1.740563	-0.293641	-0.917820
H78	H	1.329246	-0.955225	-0.695119
H79	H	1.396533	-1.079046	-0.628001
H80	H	1.707559	-0.805436	-0.317227
H81	H	1.118365	-0.288892	-0.384470
C82	C	1.377323	-0.486704	-1.121842
H83	H	1.386973	-0.479453	-1.195048
H84	H	1.306735	-0.475138	-1.103858
H85	H	1.392673	-0.539820	-1.103844
C86	C	0.903636	-0.274459	-0.365316
H87	H	0.952017	-0.244308	-0.325372
H88	H	0.860803	-0.304656	-0.319472
H89	H	0.860863	-0.240057	-0.405597
C90	C	1.114033	-0.467727	-0.760635
H91	H	1.056141	-0.458656	-0.805862
H92	H	1.155393	-0.509642	-0.787572
H93	H	1.155403	-0.421259	-0.756309
C94	C	1.377117	-0.669835	-0.647133
H95	H	1.337096	-0.706244	-0.687116
H96	H	1.417265	-0.637586	-0.692938
H97	H	1.331337	-0.637680	-0.606895
C98	C	1.726831	-0.966984	-0.298074
H99	H	1.766842	-0.930579	-0.258077
H100	H	1.772603	-0.999142	-0.338305
H101	H	1.686671	-0.999230	-0.252268
H102	H	1.640263	-0.681615	-0.384352
H103	H	1.396466	-0.472308	-0.907116
C104	C	1.633883	-0.189009	-0.911648
H105	H	1.621797	-0.154987	-0.969570
H106	H	1.689568	-0.168679	-0.870296
H107	H	1.572117	-0.192350	-0.870285
H108	H	1.107760	-0.547906	-0.621387
