data_functionalizedCrystal
_audit_creation_method	'MofGen! by Chris Wilmer'
_symmetry_space_group_name_H-M	'P1'
_symmetry_Int_Tables_number	1
_symmetry_cell_setting	triclinic
loop_
_symmetry_equiv_pos_as_xyz
  x,y,z
_cell_length_a	10.723024
_cell_length_b	9.482944
_cell_length_c	10.723024
_cell_angle_alpha	100.344274
_cell_angle_beta	84.467869
_cell_angle_gamma	100.392601
loop_
_atom_site_label
_atom_site_type_symbol
_atom_site_fract_x
_atom_site_fract_y
_atom_site_fract_z
O1	O	1.674779	0.120883	0.192521
O2	O	1.311627	0.120887	0.209275
O3	O	1.501579	0.120880	0.019321
O4	O	1.484827	0.120891	0.382475
O5	O	1.466378	-0.120913	-0.015676
O6	O	1.276426	-0.120905	0.174278
O7	O	1.639578	-0.120910	0.157524
Cu8	Cu	1.454788	-0.142985	0.162705
Cu9	Cu	1.496417	0.142963	0.204093
O10	O	1.449626	-0.120902	0.347478
C11	C	1.247527	-0.000008	0.190557
C12	C	1.108973	-0.000007	0.186910
C13	C	1.033991	-0.000002	0.293198
C14	C	0.890788	-0.000001	0.289431
N15	N	1.425516	-0.344105	0.133594
C16	C	1.487775	-0.416304	0.195506
C17	C	1.463431	-0.583722	0.171274
C18	C	1.703678	-0.000011	0.176242
C19	C	1.842234	-0.000003	0.179891
C20	C	1.482759	-0.000015	-0.044677
C21	C	1.479112	-0.000010	-0.183231
N22	N	1.525698	0.344083	0.233194
C23	C	1.585400	-0.000009	-0.258213
C24	C	1.581633	-0.000004	-0.401416
C25	C	1.468446	-0.000004	0.411476
C26	C	1.472094	0.000000	0.550031
H27	H	1.075812	-0.000008	0.386983
H28	H	1.354196	-0.406237	0.062646
O29	O	1.610704	-0.581591	0.317843
C30	C	1.712558	-0.346959	0.419089
C31	C	1.616241	-0.430950	0.323210
H32	H	1.717085	-0.225151	0.423440
H33	H	1.681571	-0.376698	0.517096
H34	H	1.810399	-0.376864	0.387642
H35	H	1.518368	-0.401090	0.354539
H36	H	1.647335	-0.401204	0.225225
H37	H	1.559104	-0.354172	0.266445
O38	O	1.697175	-0.000077	-0.208136
C39	C	1.802865	0.000005	-0.019729
C40	C	1.676185	0.000048	-0.076275
H41	H	1.785943	0.000138	0.086892
H42	H	1.843508	-0.101209	-0.066675
H43	H	1.872951	0.101170	-0.037542
H44	H	1.606007	-0.101048	-0.058478
H45	H	1.635647	0.101330	-0.029325
H46	H	1.672623	-0.000010	-0.465849
H47	H	0.826357	0.000009	0.380422
H48	H	1.381097	-0.000010	-0.385545
O49	O	0.919239	0.000188	0.071439
C50	C	1.100686	0.125497	-0.038207
C51	C	1.013583	0.125444	0.084696
H52	H	1.176967	0.226771	-0.027540
H53	H	1.147694	0.024377	-0.056855
H54	H	1.041812	0.125424	-0.121257
H55	H	1.072366	0.125568	0.167822
H56	H	0.966567	0.226555	0.103233
O57	O	1.367326	0.000190	-0.233229
C58	C	1.250049	0.125512	-0.346058
C59	C	1.376729	0.125449	-0.289524
H60	H	1.257600	0.226789	-0.391563
H61	H	1.228104	0.024396	-0.421054
H62	H	1.170619	0.125439	-0.267320
H63	H	1.456240	0.125573	-0.368173
H64	H	1.398564	0.226557	-0.214497
H65	H	1.067156	0.000028	0.093129
H66	H	1.392106	-0.645848	0.100321
