data_functionalizedCrystal
_audit_creation_method	'MofGen! by Chris Wilmer'
_symmetry_space_group_name_H-M	'P1'
_symmetry_Int_Tables_number	1
_symmetry_cell_setting	triclinic
loop_
_symmetry_equiv_pos_as_xyz
  x,y,z
_cell_length_a	19.077105
_cell_length_b	16.120484
_cell_length_c	19.076919
_cell_angle_alpha	95.046610
_cell_angle_beta	90.076224
_cell_angle_gamma	90.738523
loop_
_atom_site_label
_atom_site_type_symbol
_atom_site_fract_x
_atom_site_fract_y
_atom_site_fract_z
Zn1	Zn	1.040337	-0.403262	-0.456942
Zn2	Zn	1.039017	-0.537287	-0.344927
Zn3	Zn	0.928051	-0.392095	-0.334278
Zn4	Zn	0.916861	-0.536784	-0.457659
O5	O	0.981066	-0.467357	-0.398451
O6	O	1.138276	-0.425924	-0.446240
O7	O	1.028428	-0.513564	-0.245000
O8	O	0.948182	-0.276934	-0.345793
O9	O	1.137306	-0.524392	-0.363943
O10	O	1.030678	-0.285138	-0.435913
O11	O	0.946902	-0.406892	-0.237176
O12	O	0.828452	-0.406405	-0.346488
O13	O	0.929109	-0.523535	-0.556078
O14	O	0.820230	-0.512707	-0.437136
O15	O	1.019827	-0.425436	-0.555551
O16	O	1.017576	-0.653863	-0.364638
O17	O	0.927829	-0.653494	-0.447462
C18	C	0.798901	-0.458290	-0.390734
C19	C	0.720969	-0.454433	-0.387451
C20	C	0.680093	-0.508043	-0.433036
C21	C	0.606867	-0.504408	-0.429953
C22	C	0.574519	-0.447165	-0.381281
C23	C	0.615400	-0.393548	-0.335694
C24	C	0.688624	-0.397180	-0.338781
C25	C	0.355979	-0.430354	-0.367000
C26	C	0.282749	-0.426728	-0.363916
C27	C	0.274222	-0.537586	-0.458176
C28	C	0.347448	-0.541217	-0.461255
C29	C	0.388323	-0.487598	-0.415670
N30	N	0.499670	-0.443449	-0.378128
N31	N	0.463169	-0.491310	-0.418828
C32	C	0.971363	-0.683924	-0.407299
C33	C	0.967276	-0.776577	-0.411111
C34	C	0.959816	-0.946215	-0.418084
C35	C	1.002442	-0.987665	-0.378836
C36	C	0.998291	-1.082058	-0.382716
C37	C	0.963966	-0.851814	-0.414205
C38	C	1.163943	-0.476459	-0.406199
C39	C	1.241874	-0.480338	-0.409501
C40	C	0.973367	-0.475675	-0.582072
C41	C	0.970086	-0.479220	-0.660321
C42	C	0.990826	-0.249946	-0.389585
C43	C	0.994984	-0.157298	-0.385807
C44	C	1.015774	-0.429813	-0.696809
C45	C	1.012683	-0.433140	-0.770331
C46	C	0.963906	-0.485879	-0.807364
C47	C	0.918214	-0.535288	-0.770871
C48	C	0.921302	-0.531956	-0.697350
C49	C	0.949602	-0.501317	-1.027278
C50	C	0.946518	-0.504647	-1.100804
C51	C	1.040987	-0.402498	-1.100259
C52	C	1.044074	-0.399174	-1.026737
C53	C	0.998378	-0.448580	-0.990250
N54	N	0.960747	-0.489283	-0.882516
N55	N	1.001535	-0.445171	-0.915099
C56	C	0.988779	-0.459013	-0.215544
C57	C	0.992206	-0.455240	-0.137292
H58	H	0.389251	-0.386700	-0.329877
C59	C	0.506940	-0.338756	-0.289110
C60	C	0.579844	-0.330622	-0.282195
H61	H	0.484992	-0.299909	-0.256077
H62	H	0.493513	-0.328194	-0.335422
H63	H	0.492873	-0.393678	-0.280506
H64	H	0.593912	-0.275701	-0.290804
H65	H	0.593277	-0.341177	-0.235872
C66	C	0.912527	-1.079615	-0.461714
C67	C	0.906339	-0.994002	-0.467370
H68	H	0.879508	-1.109122	-0.492136
H69	H	0.958576	-1.096580	-0.474628
H70	H	0.903680	-1.091204	-0.414541
H71	H	0.915191	-0.982412	-0.514542
H72	H	0.860279	-0.977031	-0.454460
H73	H	0.721905	-0.353521	-0.301664
C74	C	1.108835	-0.329171	-0.703662
C75	C	1.069390	-0.371838	-0.656106
H76	H	1.141931	-0.293374	-0.678533
H77	H	1.132819	-0.368122	-0.734954
H78	H	1.078504	-0.297071	-0.729744
H79	H	1.099720	-0.403944	-0.630028
H80	H	1.045404	-0.332882	-0.624801
C81	C	1.137135	-0.298529	-1.033586
C82	C	1.097687	-0.341197	-0.986032
H83	H	1.170232	-0.262735	-1.008454
H84	H	1.161119	-0.337479	-1.064878
H85	H	1.106807	-0.266426	-1.059667
H86	H	1.128015	-0.373305	-0.959955
H87	H	1.073701	-0.302241	-0.954727
C88	C	1.023979	-0.325232	-0.848832
C89	C	1.062902	-0.378819	-0.810431
H90	H	1.054984	-0.291688	-0.873582
H91	H	0.994499	-0.357115	-0.881412
H92	H	0.996067	-0.290541	-0.817542
H93	H	1.090811	-0.413514	-0.841722
H94	H	1.092394	-0.346933	-0.777848
C95	C	0.577535	-0.549542	-0.549819
C96	C	0.561942	-0.563351	-0.480057
H97	H	0.549804	-0.585939	-0.580750
H98	H	0.567599	-0.493442	-0.557412
H99	H	0.625777	-0.559893	-0.558609
H100	H	0.513701	-0.552993	-0.471265
H101	H	0.571873	-0.619464	-0.472461
H102	H	0.240934	-0.581239	-0.495289
H103	H	1.042052	-0.952260	-0.342319
H104	H	0.878496	-0.578226	-0.801029
C105	C	1.078195	-0.362240	-1.212719
C106	C	1.091206	-0.348184	-1.140367
H107	H	1.109196	-0.328701	-1.237478
H108	H	1.085442	-0.419293	-1.227485
H109	H	1.031126	-0.348243	-1.222264
H110	H	1.138274	-0.362187	-1.130822
H111	H	1.083965	-0.291118	-1.125596
C112	C	0.298530	-0.317498	-0.271057
C113	C	0.247190	-0.363797	-0.310415
H114	H	0.276575	-0.278648	-0.238033
H115	H	0.326593	-0.353953	-0.246762
H116	H	0.327233	-0.288480	-0.301687
H117	H	0.218491	-0.392820	-0.279786
H118	H	0.219116	-0.327337	-0.334712
C119	C	0.853438	-0.605278	-1.093961
C120	C	0.892896	-0.562618	-1.141512
H121	H	0.820335	-0.641061	-1.119094
H122	H	0.883754	-0.637384	-1.067881
H123	H	0.829455	-0.566316	-1.062667
H124	H	0.916884	-0.601580	-1.172804
H125	H	0.862576	-0.530510	-1.167605
H126	H	0.373781	-0.587832	-0.500887
H127	H	0.912403	-0.541559	-0.997580
C128	C	0.757966	-0.528172	-0.531664
C129	C	0.715649	-0.570966	-0.486537
H130	H	0.779918	-0.567020	-0.564692
H131	H	0.729898	-0.491718	-0.555954
H132	H	0.792789	-0.496769	-0.504948
H133	H	0.680823	-0.602365	-0.513253
H134	H	0.743719	-0.607435	-0.462245
C135	C	0.827633	-0.633284	-0.705270
C136	C	0.871092	-0.586281	-0.657240
H137	H	0.796639	-0.666827	-0.680507
H138	H	0.801232	-0.596935	-0.731321
H139	H	0.855556	-0.667977	-0.736548
H140	H	0.843169	-0.551582	-0.625965
H141	H	0.897495	-0.622633	-0.631178
