data_functionalizedCrystal
_audit_creation_method	'MofGen! by Chris Wilmer'
_symmetry_space_group_name_H-M	'P1'
_symmetry_Int_Tables_number	1
_symmetry_cell_setting	triclinic
loop_
_symmetry_equiv_pos_as_xyz
  x,y,z
_cell_length_a	13.101039
_cell_length_b	14.044220
_cell_length_c	14.044220
_cell_angle_alpha	93.188878
_cell_angle_beta	93.667477
_cell_angle_gamma	86.340132
loop_
_atom_site_label
_atom_site_type_symbol
_atom_site_fract_x
_atom_site_fract_y
_atom_site_fract_z
O1	O	0.085109	-1.281968	-0.225348
O2	O	0.418442	-0.948635	0.107985
O3	O	0.751776	-0.615302	0.441318
O4	O	0.085135	-1.005298	-0.217041
O5	O	0.418468	-0.671965	0.116292
O6	O	0.751802	-0.338632	0.449626
O7	O	0.085112	-1.139480	-0.082860
O8	O	0.418446	-0.806147	0.250474
O9	O	0.751779	-0.472813	0.583807
O10	O	0.085132	-1.147787	-0.359530
O11	O	0.418465	-0.814454	-0.026197
O12	O	0.751798	-0.481120	0.307137
O13	O	-0.085316	-1.129854	-0.092504
O14	O	0.248017	-0.796521	0.240829
O15	O	0.581351	-0.463188	0.574162
O16	O	-0.085293	-0.995673	-0.226686
O17	O	0.248040	-0.662339	0.106647
O18	O	0.581373	-0.329006	0.439981
O19	O	-0.085319	-1.272343	-0.234993
O20	O	0.248014	-0.939009	0.098340
O21	O	0.581348	-0.605676	0.431674
Zn22	Zn	-0.112365	-1.132479	-0.232371
Zn23	Zn	0.220968	-0.799146	0.100963
Zn24	Zn	0.554301	-0.465813	0.434296
Zn25	Zn	0.112181	-1.145162	-0.219663
Zn26	Zn	0.445515	-0.811828	0.113670
Zn27	Zn	0.778848	-0.478495	0.447003
O28	O	-0.085296	-1.138161	-0.369175
O29	O	0.248037	-0.804828	-0.035841
O30	O	0.581370	-0.471494	0.297492
C31	C	-0.000076	-0.964864	-0.218228
C32	C	0.333257	-0.631531	0.115106
C33	C	0.666591	-0.298197	0.448439
C34	C	-0.000066	-0.858722	-0.207383
C35	C	0.333267	-0.525388	0.125951
C36	C	0.666600	-0.192055	0.459284
C37	C	-0.000102	-1.131031	-0.052060
C38	C	0.333231	-0.797698	0.281273
C39	C	0.666565	-0.464365	0.614607
C40	C	-0.000102	-1.120187	0.054083
C41	C	0.333231	-0.786854	0.387416
C42	C	0.666565	-0.453520	0.720749
N43	N	-0.265612	-1.123831	-0.241043
N44	N	0.067721	-0.790497	0.092290
N45	N	0.401054	-0.457164	0.425623
C46	C	-0.474653	-1.112065	-0.252851
C47	C	-0.141320	-0.778731	0.080482
C48	C	0.192014	-0.445398	0.413815
C49	C	-0.525538	-1.165580	-0.199179
C50	C	-0.192204	-0.832247	0.134154
C51	C	0.141129	-0.498914	0.467488
C52	C	-0.641855	-1.159034	-0.205749
C53	C	-0.308522	-0.825700	0.127584
C54	C	0.024812	-0.492367	0.460918
C55	C	-0.358325	-1.118610	-0.246282
C56	C	-0.024992	-0.785277	0.087051
C57	C	0.308342	-0.451944	0.420384
N58	N	0.265428	-1.153817	-0.210984
N59	N	0.598762	-0.820484	0.122349
N60	N	0.932095	-0.487151	0.455683
C61	C	-0.000106	-1.312777	-0.233806
C62	C	0.333227	-0.979444	0.099527
C63	C	0.666561	-0.646111	0.432860
C64	C	-0.000109	-1.418920	-0.244651
C65	C	0.333225	-1.085587	0.088682
C66	C	0.666558	-0.752253	0.422016
C67	C	-0.000088	-0.664383	-0.187558
C68	C	0.333245	-0.331049	0.145776
C69	C	0.666579	0.002284	0.479109
C70	C	-0.000087	-0.613253	-0.264472
C71	C	0.333246	-0.279920	0.068861
C72	C	0.666580	0.053414	0.402195
C73	C	-0.000099	-0.505116	-0.253441
C74	C	0.333234	-0.171783	0.079892
C75	C	0.666568	0.161551	0.413226
C76	C	-0.000076	-0.772529	-0.198587
C77	C	0.333257	-0.439196	0.134746
C78	C	0.666591	-0.105863	0.468080
C79	C	-0.000080	-1.146610	-0.399974
C80	C	0.333253	-0.813276	-0.066641
C81	C	0.666587	-0.479943	0.266693
C82	C	-0.000073	-1.157455	-0.506116
C83	C	0.333260	-0.824121	-0.172783
C84	C	0.666594	-0.490788	0.160550
C85	C	-0.000086	-1.100362	0.248421
C86	C	0.333248	-0.767028	0.581755
C87	C	0.666581	-0.433695	0.915088
C88	C	-0.000090	-1.177276	0.299551
C89	C	0.333244	-0.843942	0.632884
C90	C	0.666577	-0.510609	0.966218
C91	C	-0.000080	-1.166245	0.407688
C92	C	0.333253	-0.832911	0.741021
C93	C	0.666586	-0.499578	1.074354
C94	C	-0.000095	-1.111391	0.140275
C95	C	0.333239	-0.778058	0.473608
C96	C	0.666572	-0.444725	0.806941
H97	H	-0.518442	-1.061336	-0.303733
H98	H	-0.185108	-0.728002	0.029600
H99	H	0.148225	-0.394669	0.362934
C100	C	0.000120	-0.614429	-0.088725
C101	C	0.333454	-0.281096	0.244608
C102	C	0.666787	0.052238	0.577941
C103	C	0.087812	-0.562356	-0.072982
C104	C	0.421145	-0.229023	0.260351
C105	C	0.754479	0.104310	0.593684
C106	C	0.088051	-0.516325	0.018054
C107	C	0.421384	-0.182992	0.351387
C108	C	0.754717	0.150342	0.684721
H109	H	-0.059244	-0.572263	-0.084492
H110	H	0.274089	-0.238930	0.248841
H111	H	0.607423	0.094404	0.582175
H112	H	0.000181	-0.660700	-0.041878
H113	H	0.333514	-0.327367	0.291455
H114	H	0.666847	0.005966	0.624788
H115	H	0.087742	-0.516090	-0.119816
H116	H	0.421076	-0.182757	0.213517
H117	H	0.754409	0.150577	0.546850
H118	H	0.147191	-0.604500	-0.077196
H119	H	0.480524	-0.271167	0.256137
H120	H	0.813857	0.062167	0.589471
H121	H	0.088111	-0.562596	0.064901
H122	H	0.421444	-0.229263	0.398234
H123	H	0.754777	0.104070	0.731568
H124	H	0.028682	-0.474164	0.022279
H125	H	0.362016	-0.140831	0.355612
H126	H	0.695349	0.192503	0.688946
H127	H	0.147552	-0.480996	0.028751
H128	H	0.480886	-0.147662	0.362084
H129	H	0.814219	0.185671	0.695418
C130	C	0.000010	-0.663348	-0.363236
C131	C	0.333343	-0.330015	-0.029903
C132	C	0.666676	0.003319	0.303430
C133	C	0.000058	-0.762203	-0.354685
C134	C	0.333391	-0.428870	-0.021352
C135	C	0.666725	-0.095536	0.311982
C136	C	0.000175	-0.808386	-0.445640
C137	C	0.333509	-0.475053	-0.112307
C138	C	0.666842	-0.141720	0.221026
H139	H	-0.059394	-0.642180	-0.400404
H140	H	0.273939	-0.308847	-0.067071
H141	H	0.607272	0.024486	0.266262
H142	H	0.059477	-0.648798	-0.393564
H143	H	0.392811	-0.315464	-0.060230
H144	H	0.726144	0.017869	0.273103
H145	H	-0.059404	-0.776746	-0.324372
H146	H	0.273930	-0.443413	0.008961
H147	H	0.607263	-0.110080	0.342295
H148	H	0.059458	-0.783398	-0.317534
H149	H	0.392791	-0.450065	0.015799
H150	H	0.726124	-0.116731	0.349132
H151	H	0.059643	-0.793836	-0.475968
H152	H	0.392976	-0.460503	-0.142634
H153	H	0.726310	-0.127170	0.190699
H154	H	-0.059230	-0.787211	-0.482801
H155	H	0.274104	-0.453878	-0.149468
H156	H	0.607437	-0.120545	0.183865
H157	H	0.000218	-0.875464	-0.439850
H158	H	0.333551	-0.542131	-0.106517
H159	H	0.666884	-0.208798	0.226816
H160	H	-0.000028	-1.251413	0.262115
H161	H	0.333306	-0.918079	0.595449
H162	H	0.666639	-0.584746	0.928782
C163	C	0.000078	-1.001585	0.298470
C164	C	0.333411	-0.668251	0.631803
C165	C	0.666745	-0.334918	0.965137
C166	C	0.087748	-0.995756	0.360475
C167	C	0.421081	-0.662422	0.693809
C168	C	0.754415	-0.329089	1.027142
C169	C	0.087922	-0.904783	0.406618
C170	C	0.421256	-0.571450	0.739952
C171	C	0.754589	-0.238117	1.073285
H172	H	0.000128	-0.954683	0.252283
H173	H	0.333462	-0.621350	0.585616
H174	H	0.666795	-0.288017	0.918949
H175	H	-0.059322	-0.990736	0.333915
H176	H	0.274011	-0.657403	0.667249
H177	H	0.607344	-0.324070	1.000582
H178	H	0.147133	-1.006593	0.325032
H179	H	0.480466	-0.673260	0.658365
H180	H	0.813800	-0.339927	0.991699
H181	H	0.087717	-1.042636	0.406681
H182	H	0.421050	-0.709303	0.740014
H183	H	0.754383	-0.375969	1.073347
H184	H	0.028522	-0.893935	0.442064
H185	H	0.361855	-0.560602	0.775397
H186	H	0.695189	-0.227268	1.108730
H187	H	0.087970	-0.857889	0.360424
H188	H	0.421303	-0.524556	0.693757
H189	H	0.754636	-0.191223	1.027091
H190	H	0.147400	-0.900819	0.448700
H191	H	0.480733	-0.567486	0.782034
H192	H	0.814067	-0.234152	1.115367
H193	H	-0.481744	-1.216314	-0.148295
H194	H	-0.148411	-0.882981	0.185038
H195	H	0.184923	-0.549647	0.518372
