data_functionalizedCrystal
_audit_creation_method	'MofGen! by Chris Wilmer'
_symmetry_space_group_name_H-M	'P1'
_symmetry_Int_Tables_number	1
_symmetry_cell_setting	triclinic
loop_
_symmetry_equiv_pos_as_xyz
  x,y,z
_cell_length_a	21.295418
_cell_length_b	29.839131
_cell_length_c	29.839125
_cell_angle_alpha	90.017709
_cell_angle_beta	90.031451
_cell_angle_gamma	90.057233
loop_
_atom_site_label
_atom_site_type_symbol
_atom_site_fract_x
_atom_site_fract_y
_atom_site_fract_z
Zn1	Zn	0.962232	-0.178727	0.254239
Zn2	Zn	1.462232	0.321273	0.754239
Zn3	Zn	0.962137	-0.253839	0.179109
Zn4	Zn	1.462137	0.246161	0.679109
Zn5	Zn	0.856977	-0.178744	0.179096
Zn6	Zn	1.356977	0.321256	0.679096
Zn7	Zn	0.856904	-0.253851	0.254185
Zn8	Zn	1.356904	0.246149	0.754185
O9	O	0.909562	-0.216290	0.216657
O10	O	1.409562	0.283710	0.716657
O11	O	1.050308	-0.188678	0.244300
O12	O	1.550308	0.311322	0.744300
O13	O	0.948178	-0.243880	0.116240
O14	O	1.448178	0.256120	0.616240
O15	O	0.871010	-0.115875	0.189081
O16	O	1.371010	0.384125	0.689081
O17	O	1.050239	-0.243862	0.189103
O18	O	1.550239	0.256138	0.689103
O19	O	0.948340	-0.115862	0.244288
O20	O	1.448340	0.384138	0.744288
O21	O	0.870918	-0.188708	0.116230
O22	O	1.370918	0.311292	0.616230
O23	O	0.768878	-0.188720	0.189028
O24	O	1.268878	0.311280	0.689028
O25	O	0.870885	-0.243884	0.317059
O26	O	1.370885	0.256116	0.817059
O27	O	0.768825	-0.243901	0.244196
O28	O	1.268825	0.256099	0.744196
O29	O	0.948269	-0.188690	0.317099
O30	O	1.448269	0.311310	0.817099
O31	O	0.948107	-0.316708	0.189050
O32	O	1.448107	0.183292	0.689050
O33	O	0.870793	-0.316717	0.244208
O34	O	1.370793	0.183283	0.744208
C35	C	0.746011	-0.216314	0.216605
C36	C	1.246011	0.283686	0.716605
C37	C	0.676043	-0.216335	0.216594
C38	C	1.176043	0.283665	0.716594
C39	C	0.909449	-0.333013	0.216635
C40	C	1.409449	0.166987	0.716635
C41	C	0.909458	-0.382947	0.216640
C42	C	1.409458	0.117053	0.716640
C43	C	0.643165	-0.245105	0.245276
C44	C	1.143165	0.254895	0.745276
C45	C	0.577422	-0.245094	0.245297
C46	C	1.077422	0.254906	0.745297
C47	C	0.544560	-0.216317	0.216626
C48	C	1.044560	0.283683	0.716626
C49	C	0.577446	-0.187541	0.187941
C50	C	1.077446	0.312459	0.687941
C51	C	0.643188	-0.187550	0.187925
C52	C	1.143188	0.312450	0.687925
N53	N	0.441297	-0.212799	0.177333
N54	N	0.941297	0.287201	0.677333
N55	N	0.378846	-0.212794	0.177349
N56	N	0.878846	0.287206	0.677349
C57	C	0.346486	-0.216289	0.216674
C58	C	0.846486	0.283711	0.716674
N59	N	0.378936	-0.219799	0.255982
N60	N	0.878936	0.280201	0.755982
N61	N	0.441393	-0.219807	0.255964
N62	N	0.941393	0.280193	0.755964
C63	C	0.473275	-0.216305	0.216641
C64	C	0.973275	0.283695	0.716641
C65	C	0.242322	-0.245049	0.245381
C66	C	0.742322	0.254951	0.745381
C67	C	0.176578	-0.245035	0.245402
C68	C	0.676578	0.254965	0.745402
C69	C	0.176604	-0.187484	0.188042
C70	C	0.676604	0.312516	0.688042
C71	C	0.242346	-0.187496	0.188025
C72	C	0.742346	0.312504	0.688025
C73	C	0.275201	-0.216281	0.216694
C74	C	0.775201	0.283719	0.716694
C75	C	0.949893	-0.692573	0.187978
C76	C	1.449893	-0.192573	0.687978
C77	C	0.949971	-0.880246	0.187996
C78	C	1.449971	-0.380246	0.687996
O79	O	0.984260	-0.904496	0.163609
O80	O	1.484260	-0.404496	0.663609
N81	N	0.909693	-0.903732	0.216691
N82	N	1.409693	-0.403732	0.716691
C83	C	0.869396	-0.880297	0.245386
C84	C	1.369396	-0.380297	0.745386
O85	O	0.835144	-0.904580	0.269796
O86	O	1.335144	-0.404580	0.769796
C87	C	0.869322	-0.692625	0.245370
C88	C	1.369322	-0.192625	0.745370
C89	C	0.909598	-0.669141	0.216670
C90	C	1.409598	-0.169141	0.716670
C91	C	0.990166	-0.669090	0.159280
C92	C	1.490166	-0.169090	0.659280
C93	C	0.990144	-0.622174	0.159275
C94	C	1.490144	-0.122174	0.659275
C95	C	0.949848	-0.598742	0.187966
C96	C	1.449848	-0.098742	0.687966
C97	C	0.909575	-0.622226	0.216664
C98	C	1.409575	-0.122226	0.716664
C99	C	0.829029	-0.669191	0.274067
C100	C	1.329029	-0.169191	0.774067
C101	C	0.829015	-0.622270	0.274062
C102	C	1.329015	-0.122270	0.774062
C103	C	0.869291	-0.598786	0.245361
C104	C	1.369291	-0.098786	0.745361
C105	C	0.869258	-0.551879	0.245350
C106	C	1.369258	-0.051879	0.745350
N107	N	0.909536	-0.528393	0.216655
N108	N	1.409536	-0.028393	0.716655
C109	C	0.949831	-0.551825	0.187963
C110	C	1.449831	-0.051825	0.687963
C111	C	0.869437	-0.978828	0.245391
C112	C	1.369437	-0.478828	0.745391
C113	C	0.869454	-1.025746	0.245395
C114	C	1.369454	-0.525746	0.745395
C115	C	0.950030	-1.025691	0.188005
C116	C	1.450030	-0.525691	0.688005
C117	C	0.950009	-0.978773	0.188000
C118	C	1.450009	-0.478773	0.688000
C119	C	0.909714	-0.955342	0.216696
C120	C	1.409714	-0.455342	0.716696
C121	C	0.949781	-0.453299	0.187953
C122	C	1.449781	0.046701	0.687953
C123	C	0.949753	-0.406379	0.187948
C124	C	1.449753	0.093621	0.687948
C125	C	0.869180	-0.406437	0.245339
C126	C	1.369180	0.093563	0.745339
C127	C	0.869205	-0.453353	0.245343
C128	C	1.369205	0.046647	0.745343
C129	C	0.909510	-0.476782	0.216648
C130	C	1.409510	0.023218	0.716648
O131	O	0.834992	-0.527600	0.269728
O132	O	1.334992	-0.027600	0.769728
O133	O	0.984088	-0.527534	0.163563
O134	O	1.484088	-0.027534	0.663563
C135	C	0.949915	-0.739489	0.187984
C136	C	1.449915	-0.239489	0.687984
C137	C	0.909642	-0.762972	0.216682
C138	C	1.409642	-0.262972	0.716682
C139	C	0.869347	-0.739540	0.245373
C140	C	1.369347	-0.239540	0.745373
C141	C	0.909660	-0.809890	0.216685
C142	C	1.409660	-0.309890	0.716685
C143	C	0.949955	-0.833322	0.187993
C144	C	1.449955	-0.333322	0.687993
C145	C	0.990233	-0.809836	0.159298
C146	C	1.490233	-0.309836	0.659298
C147	C	0.990210	-0.762920	0.159292
C148	C	1.490210	-0.262920	0.659292
C149	C	0.829069	-0.763026	0.274069
C150	C	1.329069	-0.263026	0.774069
C151	C	0.829094	-0.809942	0.274072
C152	C	1.329094	-0.309942	0.774072
C153	C	0.869390	-0.833374	0.245380
C154	C	1.369390	-0.333374	0.745380
C155	C	1.073753	-0.216267	0.216709
C156	C	1.573753	0.283733	0.716709
C157	C	1.143721	-0.216257	0.216731
C158	C	1.643721	0.283743	0.716731
C159	C	0.909580	-0.216286	0.333835
C160	C	1.409580	0.283714	0.833835
C161	C	0.909587	-0.216284	0.383770
C162	C	1.409587	0.283716	0.883770
C163	C	0.909694	-0.099112	0.216689
C164	C	1.409694	0.400888	0.716689
C165	C	0.909750	-0.049177	0.216703
C166	C	1.409750	0.450823	0.716703
C167	C	0.909582	-0.216262	0.099934
C168	C	1.409582	0.283738	0.599934
C169	C	0.909697	-0.216137	0.050000
C170	C	1.409697	0.283863	0.550000
C171	C	0.949923	-0.187470	0.693437
C172	C	1.449923	0.312530	1.193437
C173	C	0.949954	-0.187432	0.881110
C174	C	1.449954	0.312568	1.381110
O175	O	0.984202	-0.162975	0.905395
O176	O	1.484202	0.337025	1.405395
N177	N	0.909670	-0.216164	0.904555
N178	N	1.409670	0.283836	1.404555
C179	C	0.869373	-0.244906	0.881079
C180	C	1.369373	0.255094	1.381079
O181	O	0.835105	-0.269341	0.905326
O182	O	1.335105	0.230659	1.405326
C183	C	0.869339	-0.244942	0.693407
C184	C	1.369339	0.255058	1.193407
C185	C	0.909630	-0.216211	0.669964
C186	C	1.409630	0.283789	1.169964
C187	C	0.990210	-0.158741	0.669994
C188	C	1.490210	0.341259	1.169994
C189	C	0.990204	-0.158752	0.623079
C190	C	1.490204	0.341248	1.123079
C191	C	0.949911	-0.187493	0.599606
C192	C	1.449911	0.312507	1.099606
C193	C	0.909624	-0.216222	0.623049
C194	C	1.409624	0.283778	1.123049
C195	C	0.829039	-0.273681	0.669931
C196	C	1.329039	0.226319	1.169931
C197	C	0.829033	-0.273687	0.623010
C198	C	1.329033	0.226313	1.123010
C199	C	0.869324	-0.244956	0.599568
C200	C	1.369324	0.255044	1.099568
C201	C	0.869325	-0.244975	0.552660
C202	C	1.369325	0.255025	1.052660
N203	N	0.909609	-0.216242	0.529215
N204	N	1.409609	0.283758	1.029215
C205	C	0.949902	-0.187501	0.552688
C206	C	1.449902	0.312499	1.052688
C207	C	0.869394	-0.244886	0.979609
C208	C	1.369394	0.255114	1.479609
C209	C	0.869404	-0.244878	1.026527
C210	C	1.369404	0.255122	1.526527
C211	C	0.949984	-0.187402	1.026555
C212	C	1.449984	0.312598	1.526555
C213	C	0.949978	-0.187413	0.979637
C214	C	1.449978	0.312587	1.479637
C215	C	0.909678	-0.216154	0.956165
C216	C	1.409678	0.283846	1.456165
C217	C	0.949887	-0.187528	0.454162
C218	C	1.449887	0.312472	0.954162
C219	C	0.949880	-0.187544	0.407243
C220	C	1.449880	0.312456	0.907243
C221	C	0.869297	-0.245017	0.407219
C222	C	1.369297	0.254983	0.907219
C223	C	0.869307	-0.245004	0.454134
C224	C	1.369307	0.254996	0.954134
C225	C	0.909604	-0.216255	0.477605
C226	C	1.409604	0.283745	0.977605
O227	O	0.835090	-0.269415	0.528346
O228	O	1.335090	0.230585	1.028346
O229	O	0.984155	-0.163063	0.528432
O230	O	1.484155	0.336937	1.028432
C231	C	0.949929	-0.187458	0.740352
C232	C	1.449929	0.312542	1.240352
C233	C	0.909641	-0.216188	0.763795
C234	C	1.409641	0.283812	1.263795
C235	C	0.869349	-0.244928	0.740322
C236	C	1.369349	0.255072	1.240322
C237	C	0.909651	-0.216179	0.810713
C238	C	1.409651	0.283821	1.310713
C239	C	0.949944	-0.187438	0.834186
C240	C	1.449944	0.312562	1.334186
C241	C	0.990227	-0.158706	0.810741
C242	C	1.490227	0.341294	1.310741
C243	C	0.990222	-0.158718	0.763825
C244	C	1.490222	0.341282	1.263825
C245	C	0.829065	-0.273661	0.763767
C246	C	1.329065	0.226339	1.263767
C247	C	0.829074	-0.273647	0.810683
C248	C	1.329074	0.226353	1.310683
C249	C	0.869367	-0.244907	0.834155
C250	C	1.369367	0.255093	1.334155
H251	H	0.669911	-0.268544	0.268621
H252	H	1.169911	0.231456	0.768621
H253	H	0.149848	-0.164051	0.164700
H254	H	0.649848	0.335949	0.664700
Br255	Br	0.532792	-0.284142	0.284227
Br256	Br	1.032792	0.215858	0.784227
Br257	Br	0.774378	-0.731234	0.313012
Br258	Br	1.274378	-0.231234	0.813012
Br259	Br	0.774335	-0.312692	0.591158
Br260	Br	1.274335	0.187308	1.091158
H261	H	0.796229	-0.297077	0.689010
H262	H	1.296229	0.202923	1.189010
H263	H	0.269116	-0.164070	0.164666
H264	H	0.769116	0.335930	0.664666
H265	H	0.669957	-0.164120	0.164568
H266	H	1.169957	0.335880	0.664568
H267	H	0.550686	-0.164110	0.164598
H268	H	1.050686	0.335890	0.664598
Br269	Br	0.286915	-0.284111	0.284289
Br270	Br	0.786915	0.215889	0.784289
H271	H	0.982692	-0.164147	0.388158
H272	H	1.482692	0.335853	0.888158
H273	H	0.836578	-0.268293	0.960503
H274	H	1.336578	0.231707	1.460503
Br275	Br	1.004572	-0.148510	0.486008
Br276	Br	1.504572	0.351490	0.986008
H277	H	0.149810	-0.268462	0.268761
H278	H	0.649810	0.231538	0.768761
H279	H	0.796266	-0.297048	0.829765
H280	H	1.296266	0.202952	1.329765
Br281	Br	1.004415	-0.374511	0.148994
Br282	Br	1.504415	0.125489	0.648994
Br283	Br	1.004481	-0.485089	0.149010
Br284	Br	1.504481	0.014911	0.649010
Br285	Br	1.044816	-0.590311	0.120329
Br286	Br	1.544816	-0.090311	0.620329
H287	H	0.836505	-0.268403	0.473222
H288	H	1.336505	0.231597	0.973222
Br289	Br	1.044861	-0.700881	0.120337
Br290	Br	1.544861	-0.200881	0.620337
Br291	Br	1.044916	-0.841646	0.120357
Br292	Br	1.544916	-0.341646	0.620357
H293	H	0.982793	-0.164001	1.045675
H294	H	1.482793	0.335999	1.545675
Br295	Br	0.774329	-0.590473	0.313011
Br296	Br	1.274329	-0.090473	0.813011
H297	H	1.023030	-0.135321	0.744743
H298	H	1.523030	0.364679	1.244743
H299	H	0.982805	-0.959655	0.164630
H300	H	1.482805	-0.459655	0.664630
H301	H	0.982840	-1.044778	0.164643
H302	H	1.482840	-0.544778	0.664643
H303	H	0.836652	-1.044862	0.268761
H304	H	1.336652	-0.544862	0.768761
Br305	Br	0.774427	-0.841807	0.313025
Br306	Br	1.274427	-0.341807	0.813025
H307	H	0.836623	-0.959753	0.268760
H308	H	1.336623	-0.459753	0.768760
H309	H	0.796229	-0.688303	0.297436
H310	H	1.296229	-0.188303	0.797436
Br311	Br	1.004660	-0.148420	0.947827
Br312	Br	1.504660	0.351580	1.447827
H313	H	0.836411	-0.472474	0.268714
H314	H	1.336411	0.027526	0.768714
H315	H	0.836370	-0.387352	0.268699
H316	H	1.336370	0.112648	0.768699
Br317	Br	0.814733	-0.283880	1.058336
Br318	Br	1.314733	0.216120	1.558336
Br319	Br	1.044884	-0.119755	0.591271
Br320	Br	1.544884	0.380245	1.091271
Br321	Br	1.044909	-0.119735	0.701842
Br322	Br	1.544909	0.380265	1.201842
H323	H	1.023007	-0.743804	0.135922
H324	H	1.523007	-0.243804	0.635922
H325	H	1.023037	-0.135306	0.829861
H326	H	1.523037	0.364694	1.329861
Br327	Br	0.774374	-0.312669	0.731918
Br328	Br	1.274374	0.187331	1.231918
Br329	Br	0.814616	-0.284020	0.375354
Br330	Br	1.314616	0.215980	0.875354
