data_functionalizedCrystal
_audit_creation_method	'MofGen! by Chris Wilmer'
_symmetry_space_group_name_H-M	'P1'
_symmetry_Int_Tables_number	1
_symmetry_cell_setting	triclinic
loop_
_symmetry_equiv_pos_as_xyz
  x,y,z
_cell_length_a	21.395362
_cell_length_b	19.805405
_cell_length_c	21.395355
_cell_angle_alpha	90.017223
_cell_angle_beta	90.043940
_cell_angle_gamma	90.042604
loop_
_atom_site_label
_atom_site_type_symbol
_atom_site_fract_x
_atom_site_fract_y
_atom_site_fract_z
Zn1	Zn	0.957877	-0.269255	0.354591
Zn2	Zn	0.957787	-0.382425	0.249816
Zn3	Zn	0.853092	-0.269286	0.249793
Zn4	Zn	0.853068	-0.382438	0.354521
O5	O	0.905456	-0.325851	0.302180
O6	O	1.045543	-0.284248	0.340732
O7	O	0.943871	-0.367424	0.162135
O8	O	0.867039	-0.174565	0.263714
O9	O	1.045476	-0.367393	0.263754
O10	O	0.944024	-0.174542	0.340709
O11	O	0.866952	-0.284302	0.162118
O12	O	0.765411	-0.284315	0.263646
O13	O	0.866999	-0.367417	0.442208
O14	O	0.765393	-0.367448	0.340589
O15	O	0.944002	-0.284261	0.442260
O16	O	0.943848	-0.477143	0.263686
O17	O	0.866912	-0.477153	0.340612
C18	C	0.742668	-0.325887	0.302107
C19	C	0.673027	-0.325918	0.302091
C20	C	0.640321	-0.369263	0.342096
C21	C	0.574886	-0.369246	0.342124
C22	C	0.542159	-0.325892	0.302136
C23	C	0.574872	-0.282539	0.262129
C24	C	0.640306	-0.282553	0.262106
C25	C	0.438434	-0.320440	0.245731
C26	C	0.373001	-0.320431	0.245752
C27	C	0.340338	-0.325848	0.302205
C28	C	0.373116	-0.331287	0.358639
C29	C	0.438550	-0.331301	0.358616
C30	C	0.471206	-0.325873	0.302156
C31	C	0.236680	-0.369177	0.342243
C32	C	0.171243	-0.369156	0.342272
C33	C	0.171231	-0.282452	0.262272
C34	C	0.236666	-0.282470	0.262248
C35	C	0.269387	-0.325836	0.302233
C36	C	0.905384	-0.501707	0.302157
C37	C	0.905411	-0.576939	0.302169
C38	C	0.945474	-0.612213	0.342292
C39	C	0.945496	-0.682901	0.342303
C40	C	0.905459	-0.718315	0.302188
C41	C	0.865392	-0.683036	0.262064
C42	C	0.865367	-0.612349	0.262056
C43	C	0.865493	-0.968109	0.262096
C44	C	0.865523	-1.038801	0.262106
C45	C	0.945622	-1.038662	0.342343
C46	C	0.945597	-0.967975	0.342335
C47	C	0.905528	-0.932702	0.302213
C48	C	0.905503	-0.856053	0.302202
C49	C	0.905487	-0.794962	0.302196
C50	C	1.068879	-0.325816	0.302253
C51	C	1.138520	-0.325800	0.302285
C52	C	0.905508	-0.325837	0.465604
C53	C	0.905530	-0.325831	0.535245
C54	C	0.905545	-0.149308	0.302217
C55	C	0.905582	-0.074076	0.302232
C56	C	0.905440	-0.325816	0.139393
C57	C	0.905539	-0.325631	0.069752
C58	C	0.945623	-0.282530	0.567986
C59	C	0.945623	-0.282501	0.633421
C60	C	0.905535	-0.325785	0.666113
C61	C	0.865434	-0.369089	0.633364
C62	C	0.865431	-0.369112	0.567930
C63	C	0.900563	-0.386731	0.769778
C64	C	0.900570	-0.386709	0.835211
C65	C	0.905539	-0.325714	0.867934
C66	C	0.910514	-0.264738	0.835216
C67	C	0.910512	-0.264762	0.769782
C68	C	0.905533	-0.325765	0.737066
C69	C	0.945633	-0.282378	0.971628
C70	C	0.945628	-0.282347	1.037064
C71	C	0.865443	-0.368941	1.037006
C72	C	0.865445	-0.368966	0.971571
C73	C	0.905543	-0.325685	0.938885
H74	H	0.263322	-0.404485	0.374805
C75	C	0.821389	-0.721993	0.217899
N76	N	0.788260	-0.751335	0.184618
H77	H	0.144615	-0.404451	0.374852
C78	C	0.895096	-0.453783	0.871195
N79	N	0.890972	-0.504304	0.898297
H80	H	0.978274	-0.247287	0.541378
H81	H	0.263295	-0.247178	0.229669
C82	C	0.915976	-0.197689	0.733794
N83	N	0.920088	-0.147169	0.706688
H84	H	0.832869	-0.939395	0.229426
C85	C	0.989520	-0.573265	0.386421
N86	N	1.022695	-0.543931	0.419662
H87	H	0.465022	-0.316026	0.199756
C88	C	0.821296	-0.573548	0.217917
N89	N	0.788098	-0.544324	0.184672
C90	C	0.337192	-0.337244	0.420743
N91	N	0.310132	-0.341730	0.467518
C92	C	0.676310	-0.416964	0.386083
N93	N	0.703418	-0.452893	0.419214
H94	H	0.978270	-0.247237	0.660084
H95	H	0.914561	-0.215070	0.861857
H96	H	0.346318	-0.316007	0.199800
H97	H	0.978281	-0.247132	0.945014
H98	H	0.896349	-0.436388	0.743141
H99	H	0.978276	-0.247083	1.063721
C100	C	0.821473	-1.077754	0.217978
N101	N	0.788295	-1.107094	0.184744
H102	H	0.832796	-0.404177	1.063623
H103	H	0.978124	-0.711618	0.374970
H104	H	0.548252	-0.404542	0.374702
H105	H	0.144585	-0.247150	0.229716
C106	C	0.538871	-0.234850	0.218142
N107	N	0.511755	-0.198927	0.185011
C108	C	0.821334	-0.416699	0.669327
N109	N	0.788115	-0.452557	0.696413
C110	C	0.821341	-0.416604	0.935554
N111	N	0.788118	-0.452485	0.908427
C112	C	0.676284	-0.234872	0.218093
N113	N	0.703383	-0.198959	0.184940
C114	C	0.989645	-0.929024	0.386461
N115	N	1.022822	-0.899687	0.419697
H116	H	0.832779	-0.404372	0.541273
H117	H	0.465236	-0.335727	0.404567
C118	C	0.989694	-1.077468	0.386484
N119	N	1.022889	-1.106696	0.419729
