data_functionalizedCrystal
_audit_creation_method	'MofGen! by Chris Wilmer'
_symmetry_space_group_name_H-M	'P1'
_symmetry_Int_Tables_number	1
_symmetry_cell_setting	triclinic
loop_
_symmetry_equiv_pos_as_xyz
  x,y,z
_cell_length_a	13.032831
_cell_length_b	12.594516
_cell_length_c	13.032268
_cell_angle_alpha	82.848693
_cell_angle_beta	89.113023
_cell_angle_gamma	82.816889
loop_
_atom_site_label
_atom_site_type_symbol
_atom_site_fract_x
_atom_site_fract_y
_atom_site_fract_z
Zn1	Zn	1.498550	-0.718827	0.780858
Zn2	Zn	1.998550	-0.218827	1.280858
Zn3	Zn	1.520308	-0.877413	0.608883
Zn4	Zn	2.020308	-0.377413	1.108883
Zn5	Zn	1.348404	-0.674363	0.587098
Zn6	Zn	1.848404	-0.174363	1.087098
Zn7	Zn	1.326556	-0.871658	0.759008
Zn8	Zn	1.826556	-0.371658	1.259008
O9	O	1.423454	-0.785565	0.683962
O10	O	1.923454	-0.285565	1.183962
O11	O	1.645359	-0.760881	0.776307
O12	O	2.145359	-0.260881	1.276307
O13	O	1.515754	-0.834278	0.462076
O14	O	2.015754	-0.334278	0.962076
O15	O	1.368359	-0.531324	0.612827
O16	O	1.868359	-0.031324	1.112827
O17	O	1.661344	-0.877393	0.649958
O18	O	2.161344	-0.377393	1.149958
O19	O	1.478671	-0.563992	0.755182
O20	O	1.978671	-0.063992	1.255182
O21	O	1.389457	-0.685098	0.446070
O22	O	1.889457	-0.185098	0.946070
O23	O	1.201583	-0.679517	0.591641
O24	O	1.701583	-0.179517	1.091641
O25	O	1.331122	-0.867585	0.905824
O26	O	1.831122	-0.367585	1.405824
O27	O	1.185531	-0.824469	0.717943
O28	O	1.685531	-0.324469	1.217943
O29	O	1.457485	-0.755301	0.921877
O30	O	1.957485	-0.255301	1.421877
O31	O	1.494568	-1.025587	0.628771
O32	O	1.994568	-0.525587	1.128771
O33	O	1.352219	-1.021359	0.739067
O34	O	1.852219	-0.521359	1.239067
C35	C	1.156239	-0.746545	0.650057
C36	C	1.656239	-0.246545	1.150057
C37	C	1.041921	-0.729880	0.635577
C38	C	1.541921	-0.229880	1.135577
C39	C	0.983051	-0.794263	0.691519
C40	C	1.483051	-0.294263	1.191519
C41	C	0.864896	-0.777041	0.676555
C42	C	1.364896	-0.277041	1.176555
C43	C	1.423409	-1.062097	0.683938
C44	C	1.923409	-0.562097	1.183938
C45	C	1.423479	-1.180416	0.683974
C46	C	1.923479	-0.680416	1.183974
C47	C	1.500973	-1.251950	0.624067
C48	C	2.000973	-0.751950	1.124067
C49	C	1.514180	-1.336910	0.721120
C50	C	2.014180	-0.836910	1.221120
C51	C	1.410394	-1.306281	0.586998
C52	C	1.910394	-0.806281	1.086998
C53	C	1.436728	-1.263831	0.781082
C54	C	1.936728	-0.763831	1.281082
C55	C	1.332906	-1.233181	0.646891
C56	C	1.832906	-0.733181	1.146891
C57	C	1.346069	-1.318112	0.744004
C58	C	1.846069	-0.818112	1.244004
C59	C	1.691713	-0.824739	0.718000
C60	C	2.191713	-0.324739	1.218000
C61	C	1.806028	-0.841432	0.732505
C62	C	2.306028	-0.341432	1.232505
C63	C	1.389439	-0.815761	0.952210
C64	C	1.889439	-0.315761	1.452210
C65	C	1.374944	-0.828628	1.066522
C66	C	1.874944	-0.328628	1.566522
C67	C	1.423525	-0.507960	0.684012
C68	C	1.923525	-0.007960	1.184012
C69	C	1.423555	-0.389661	0.684033
C70	C	1.923555	0.110339	1.184033
C71	C	1.457397	-0.755419	0.416765
C72	C	1.957397	-0.255419	0.916765
C73	C	1.472091	-0.742281	0.302479
C74	C	1.972091	-0.242281	0.802479
C75	C	1.431004	-0.778809	1.125428
C76	C	1.931004	-0.278809	1.625428
C77	C	1.416023	-0.792107	1.243575
C78	C	1.916023	-0.292107	1.743575
H79	H	0.827828	-0.709161	0.617582
H80	H	1.327828	-0.209161	1.117582
H81	H	0.843094	-0.909303	0.791488
H82	H	1.343094	-0.409303	1.291488
H83	H	1.590807	-1.381932	0.752516
H84	H	2.090807	-0.881932	1.252516
Cl85	Cl	0.984692	-0.625084	0.544529
Cl86	Cl	1.484692	-0.125084	1.044529
H87	H	1.447741	-1.244837	0.863177
H88	H	1.947741	-0.744837	1.363177
H89	H	1.020123	-0.862130	0.750496
H90	H	1.520123	-0.362130	1.250496
H91	H	1.566510	-1.222844	0.573460
H92	H	2.066510	-0.722844	1.073460
Cl93	Cl	1.244926	-1.362788	0.822359
Cl94	Cl	1.744926	-0.862788	1.322359
H95	H	1.531175	-0.689773	1.265449
H96	H	2.031175	-0.189773	1.765449
H97	H	1.256305	-1.188137	0.615470
H98	H	1.756305	-0.688137	1.115470
Cl99	Cl	1.283712	-0.909676	1.123692
Cl100	Cl	1.783712	-0.409676	1.623692
Cl101	Cl	1.393254	-1.335805	0.460341
Cl102	Cl	1.893254	-0.835805	0.960341
H103	H	1.490085	-0.726308	1.088392
H104	H	1.990085	-0.226308	1.588392
Cl105	Cl	1.324787	-0.873158	1.300741
Cl106	Cl	1.824787	-0.373158	1.800741
