data_functionalizedCrystal
_audit_creation_method	'MofGen! by Chris Wilmer'
_symmetry_space_group_name_H-M	'P1'
_symmetry_Int_Tables_number	1
_symmetry_cell_setting	triclinic
loop_
_symmetry_equiv_pos_as_xyz
  x,y,z
_cell_length_a	10.685980
_cell_length_b	12.759400
_cell_length_c	10.686551
_cell_angle_alpha	85.594162
_cell_angle_beta	81.591741
_cell_angle_gamma	94.381445
loop_
_atom_site_label
_atom_site_type_symbol
_atom_site_fract_x
_atom_site_fract_y
_atom_site_fract_z
Zn1	Zn	1.995789	-0.235485	-0.866704
Zn2	Zn	2.495789	0.264515	-0.366704
Zn3	Zn	1.979368	-0.425815	-0.654441
Zn4	Zn	2.479368	0.074185	-0.154441
Zn5	Zn	1.767217	-0.264726	-0.638169
Zn6	Zn	2.267217	0.235274	-0.138169
Zn7	Zn	1.783492	-0.425713	-0.850351
Zn8	Zn	2.283492	0.074287	-0.350351
O9	O	1.881466	-0.337935	-0.752416
O10	O	2.381466	0.162065	-0.252416
O11	O	2.171244	-0.248538	-0.852201
O12	O	2.671244	0.251462	-0.352201
O13	O	1.937542	-0.416726	-0.474650
O14	O	2.437542	0.083274	0.025350
O15	O	1.797599	-0.113820	-0.668518
O16	O	2.297599	0.386180	-0.168518
O17	O	2.159180	-0.388372	-0.696252
O18	O	2.659180	0.111628	-0.196252
O19	O	1.965530	-0.092337	-0.836422
O20	O	2.465530	0.407663	-0.336422
O21	O	1.781675	-0.298375	-0.462695
O22	O	2.281675	0.201625	0.037305
O23	O	1.591742	-0.298276	-0.652661
O24	O	2.091742	0.201724	-0.152661
O25	O	1.825337	-0.388198	-1.030153
O26	O	2.325337	0.111802	-0.530153
O27	O	1.603699	-0.416552	-0.808551
O28	O	2.103699	0.083448	-0.308551
O29	O	1.981311	-0.248439	-1.042167
O30	O	2.481311	0.251561	-0.542167
O31	O	1.953323	-0.572828	-0.680395
O32	O	2.453323	-0.072828	-0.180395
O33	O	1.809414	-0.572753	-0.824330
O34	O	2.309414	-0.072753	-0.324330
C35	C	1.551662	-0.360577	-0.727067
C36	C	2.051662	0.139423	-0.227067
C37	C	1.410573	-0.370287	-0.716252
C38	C	1.910573	0.129713	-0.216252
C39	C	1.881389	-0.610909	-0.752384
C40	C	2.381389	-0.110909	-0.252384
C41	C	1.881475	-0.727678	-0.752422
C42	C	2.381475	-0.227678	-0.252422
C43	C	1.956506	-0.782532	-0.677572
C44	C	2.456506	-0.282532	-0.177572
C45	C	1.956587	-0.892248	-0.677617
C46	C	2.456587	-0.392248	-0.177617
C47	C	1.806596	-0.892247	-0.827365
C48	C	2.306596	-0.392247	-0.327365
C49	C	1.806523	-0.782532	-0.827325
C50	C	2.306523	-0.282532	-0.327325
C51	C	2.031458	-0.727678	-0.602668
C52	C	2.531458	-0.227678	-0.102668
C53	C	2.106494	-0.782532	-0.527811
C54	C	2.606494	-0.282532	-0.027811
C55	C	2.106575	-0.892248	-0.527856
C56	C	2.606575	-0.392248	-0.027856
C57	C	2.031620	-0.947110	-0.602758
C58	C	2.531620	-0.447110	-0.102758
C59	C	2.212558	-0.315205	-0.777866
C60	C	2.712558	0.184795	-0.277866
C61	C	2.353650	-0.305519	-0.788711
C62	C	2.853650	0.194481	-0.288711
C63	C	1.906971	-0.315045	-1.083506
C64	C	2.406971	0.184955	-0.583506
C65	C	1.917840	-0.305291	-1.224596
C66	C	2.417840	0.194709	-0.724596
C67	C	1.881581	-0.063890	-0.752479
C68	C	2.381581	0.436110	-0.252479
C69	C	1.881629	0.052891	-0.752506
C70	C	2.381629	0.552891	-0.252506
C71	C	1.856134	-0.360654	-0.422621
C72	C	2.356134	0.139346	0.077379
C73	C	1.845511	-0.370095	-0.281550
C74	C	2.345511	0.129905	0.218450
H75	H	1.412853	-0.242633	-0.859017
H76	H	1.912853	0.257367	-0.359017
H77	H	2.031397	-0.638342	-0.602619
H78	H	2.531397	-0.138342	-0.102619
F79	F	2.186444	-0.950623	-0.448199
F80	F	2.686444	-0.450623	0.051801
H81	H	1.351363	-0.433170	-0.645933
H82	H	1.851363	0.066830	-0.145933
F83	F	2.186272	-0.724141	-0.448110
F84	F	2.686272	-0.224141	0.051890
F85	F	2.031269	-1.063936	-0.602360
F86	F	2.531269	-0.563936	-0.102360
H87	H	1.745570	-0.936924	-0.888345
H88	H	2.245570	-0.436924	-0.388345
H89	H	1.988089	-0.242347	-1.283781
H90	H	2.488089	0.257653	-0.783781
F91	F	1.753706	-0.452374	-1.204203
F92	F	2.253706	0.047626	-0.704203
F93	F	1.726669	-0.724149	-0.906992
F94	F	2.226669	-0.224149	-0.406992
