data_functionalizedCrystal
_audit_creation_method	'MofGen! by Chris Wilmer'
_symmetry_space_group_name_H-M	'P1'
_symmetry_Int_Tables_number	1
_symmetry_cell_setting	triclinic
loop_
_symmetry_equiv_pos_as_xyz
  x,y,z
_cell_length_a	13.897448
_cell_length_b	11.169417
_cell_length_c	11.169409
_cell_angle_alpha	90.019824
_cell_angle_beta	89.964424
_cell_angle_gamma	89.981429
loop_
_atom_site_label
_atom_site_type_symbol
_atom_site_fract_x
_atom_site_fract_y
_atom_site_fract_z
Zn1	Zn	-0.383914	-1.834901	-0.678516
Zn2	Zn	-0.545250	-1.834765	-0.477821
Zn3	Zn	-0.383973	-1.634187	-0.477850
Zn4	Zn	-0.545171	-1.634169	-0.678466
O5	O	-0.464577	-1.734505	-0.578163
O6	O	-0.405324	-2.002833	-0.651902
O7	O	-0.523914	-1.808108	-0.309875
O8	O	-0.248984	-1.660877	-0.504502
O9	O	-0.523857	-2.002732	-0.504453
O10	O	-0.248940	-1.808341	-0.651930
O11	O	-0.405424	-1.660745	-0.309896
O12	O	-0.405348	-1.466235	-0.504454
O13	O	-0.523723	-1.660846	-0.846423
O14	O	-0.523780	-1.466221	-0.651845
O15	O	-0.405248	-1.808323	-0.846459
O16	O	-0.680221	-1.808090	-0.504404
O17	O	-0.680163	-1.660713	-0.651817
C18	C	-0.464562	-1.422681	-0.578148
C19	C	-0.464579	-1.289281	-0.578170
C20	C	-0.715191	-1.734418	-0.578129
C21	C	-0.822405	-1.734490	-0.578154
C22	C	-0.464470	-1.734597	-0.891206
C23	C	-0.464424	-1.734637	-1.024606
C24	C	-1.018700	-1.734616	-0.578229
C25	C	-0.909468	-1.734543	-0.578191
C26	C	-0.212984	-1.734626	-0.578224
C27	C	-0.105770	-1.734677	-0.578251
C28	C	-0.464592	-2.047548	-0.578180
C29	C	-0.464599	-2.180948	-0.578186
C30	C	-0.464614	-1.734483	-0.266339
C31	C	-0.464388	-1.734676	-0.132939
