data_functionalizedCrystal
_audit_creation_method	'MofGen! by Chris Wilmer'
_symmetry_space_group_name_H-M	'P1'
_symmetry_Int_Tables_number	1
_symmetry_cell_setting	triclinic
loop_
_symmetry_equiv_pos_as_xyz
  x,y,z
_cell_length_a	16.109302
_cell_length_b	27.732048
_cell_length_c	26.210047
_cell_angle_alpha	89.990375
_cell_angle_beta	89.981622
_cell_angle_gamma	83.052218
loop_
_atom_site_label
_atom_site_type_symbol
_atom_site_fract_x
_atom_site_fract_y
_atom_site_fract_z
O1	O	1.102377	0.062131	-0.042458
O2	O	1.602377	0.562131	0.457542
O3	O	0.860219	0.069863	-0.042454
O4	O	1.360219	0.569863	0.457546
O5	O	0.988819	-0.004368	-0.042446
O6	O	1.488819	0.495632	0.457554
O7	O	0.973777	0.136362	-0.042465
O8	O	1.473777	0.636362	0.457535
O9	O	0.988779	-0.004368	0.042412
O10	O	1.488779	0.495632	0.542412
O11	O	0.860179	0.069863	0.042404
O12	O	1.360179	0.569863	0.542404
O13	O	1.102337	0.062131	0.042401
O14	O	1.602337	0.562131	0.542401
Cu15	Cu	0.981254	0.065997	0.050150
Cu16	Cu	1.481254	0.565997	0.550150
Cu17	Cu	0.981302	0.065997	-0.050204
Cu18	Cu	1.481302	0.565997	0.449796
O19	O	0.973737	0.136362	0.042393
O20	O	1.473737	0.636362	0.542393
C21	C	0.829228	0.069550	-0.000025
C22	C	1.329228	0.569550	0.499975
C23	C	0.736944	0.068610	-0.000023
C24	C	1.236944	0.568610	0.499977
C25	C	0.524609	0.066439	0.046228
C26	C	1.024609	0.566439	0.546228
C27	C	0.437899	0.065551	0.046227
C28	C	0.937899	0.565551	0.546227
C29	C	0.437954	0.065554	-0.046290
C30	C	0.937954	0.565554	0.453710
C31	C	0.524662	0.066438	-0.046288
C32	C	1.024662	0.566438	0.453712
C33	C	0.567987	0.066883	-0.000027
C34	C	1.067987	0.566883	0.499973
C35	C	0.394569	0.065111	-0.000031
C36	C	0.894569	0.565111	0.499969
C37	C	0.300555	0.064149	-0.000033
C38	C	0.800555	0.564149	0.499967
C39	C	0.662007	0.067844	-0.000025
C40	C	1.162007	0.567844	0.499975
C41	C	0.988483	-0.022376	-0.000016
C42	C	1.488483	0.477624	0.499984
C43	C	0.987532	-0.076035	-0.000012
C44	C	1.487532	0.423965	0.499988
C45	C	1.057541	-0.414557	-0.000039
C46	C	1.557541	0.085443	0.499961
C47	C	1.054013	-0.616232	-0.000046
C48	C	1.554013	-0.116232	0.499954
O49	O	1.118031	-0.647219	-0.000069
O50	O	1.618031	-0.147219	0.499931
N51	N	0.977759	-0.635675	-0.000044
N52	N	1.477759	-0.135675	0.499956
C53	C	0.902381	-0.604696	-0.000044
C54	C	1.402381	-0.104696	0.499956
O55	O	0.837441	-0.625861	-0.000048
O56	O	1.337441	-0.125861	0.499952
C57	C	0.905910	-0.403022	-0.000041
C58	C	1.405910	0.096978	0.499959
C59	C	0.982169	-0.383582	-0.000037
C60	C	1.482169	0.116418	0.499963
C61	C	1.133794	-0.395117	-0.000036
C62	C	1.633794	0.104883	0.499964
C63	C	1.134675	-0.344701	-0.000031
C64	C	1.634675	0.155299	0.499969
C65	C	1.059303	-0.313726	-0.000030
C66	C	1.559303	0.186274	0.499970
C67	C	0.983050	-0.333167	-0.000033
C68	C	1.483050	0.166833	0.499967
C69	C	0.830533	-0.372044	-0.000045
C70	C	1.330533	0.127956	0.499955
C71	C	0.831422	-0.321623	-0.000045
C72	C	1.331422	0.178377	0.499955
C73	C	0.907681	-0.302183	-0.000041
C74	C	1.407681	0.197817	0.499959
C75	C	0.908559	-0.251776	-0.000027
C76	C	1.408559	0.248224	0.499973
N77	N	0.984813	-0.232333	-0.000028
N78	N	1.484813	0.267667	0.499972
C79	C	1.060185	-0.263308	-0.000030
C80	C	1.560185	0.236692	0.499970
C81	C	0.900534	-0.710577	-0.000045
C82	C	1.400534	-0.210577	0.499955
C83	C	0.899652	-0.760996	-0.000045
C84	C	1.399652	-0.260996	0.499955
C85	C	1.051284	-0.772528	-0.000047
C86	C	1.551284	-0.272528	0.499953
C87	C	1.052165	-0.722109	-0.000044
C88	C	1.552165	-0.222109	0.499956
C89	C	0.976788	-0.691134	-0.000047
C90	C	1.476788	-0.191134	0.499953
C91	C	1.062030	-0.157431	-0.000020
C92	C	1.562030	0.342569	0.499980
C93	C	1.062904	-0.107010	-0.000013
C94	C	1.562904	0.392990	0.499987
C95	C	0.911272	-0.095482	-0.000013
C96	C	1.411272	0.404518	0.499987
C97	C	0.910397	-0.145898	-0.000017
C98	C	1.410397	0.354102	0.499983
C99	C	0.985783	-0.176872	-0.000022
C100	C	1.485783	0.323128	0.499978
O101	O	0.844576	-0.220760	-0.000009
O102	O	1.344576	0.279240	0.499991
O103	O	1.125116	-0.242134	-0.000037
O104	O	1.625116	0.257866	0.499963
C105	C	1.056660	-0.464973	-0.000043
C106	C	1.556660	0.035027	0.499957
C107	C	0.980407	-0.484413	-0.000046
C108	C	1.480407	0.015587	0.499954
C109	C	0.905035	-0.453438	-0.000045
C110	C	1.405035	0.046562	0.499955
C111	C	0.979524	-0.534832	-0.000046
C112	C	1.479524	-0.034832	0.499954
C113	C	1.054896	-0.565807	-0.000048
C114	C	1.554896	-0.065807	0.499952
C115	C	1.131151	-0.546364	-0.000049
C116	C	1.631151	-0.046364	0.499951
C117	C	1.132032	-0.495948	-0.000045
C118	C	1.632032	0.004052	0.499955
C119	C	0.828780	-0.472881	-0.000043
C120	C	1.328780	0.027119	0.499957
C121	C	0.827905	-0.523298	-0.000047
C122	C	1.327905	-0.023298	0.499953
C123	C	0.903277	-0.554273	-0.000049
C124	C	1.403277	-0.054273	0.499951
C125	C	1.133328	0.062444	-0.000030
C126	C	1.633328	0.562444	0.499970
C127	C	1.225611	0.063384	-0.000035
C128	C	1.725611	0.563384	0.499965
C129	C	0.974073	0.154370	-0.000039
C130	C	1.474073	0.654370	0.499961
C131	C	0.975024	0.208029	-0.000047
C132	C	1.475024	0.708029	0.499953
N133	N	0.981227	0.065996	0.120734
N134	N	1.481227	0.565996	0.620734
N135	N	0.981336	0.065994	-0.120788
N136	N	1.481336	0.565994	0.379212
C137	C	1.031338	0.095317	0.473243
C138	C	1.531338	0.595317	0.973243
C139	C	1.031363	0.095317	0.686902
C140	C	1.531363	0.595317	1.186902
O141	O	1.073951	0.120241	0.714520
O142	O	1.573951	0.620241	1.214520
N143	N	0.981321	0.065992	0.713628
N144	N	1.481321	0.565992	1.213628
C145	C	0.931274	0.036663	0.686936
C146	C	1.431274	0.536663	1.186936
O147	O	0.888718	0.011717	0.714571
O148	O	1.388718	0.511717	1.214571
C149	C	0.931255	0.036661	0.473279
C150	C	1.431255	0.536661	0.973279
C151	C	0.981293	0.065992	0.446555
C152	C	1.481293	0.565992	0.946555
C153	C	1.081373	0.124645	0.446520
C154	C	1.581373	0.624645	0.946520
C155	C	1.081363	0.124647	0.393109
C156	C	1.581363	0.624647	0.893109
C157	C	1.031318	0.095321	0.366421
C158	C	1.531318	0.595321	0.866421
C159	C	0.981283	0.065993	0.393144
C160	C	1.481283	0.565993	0.893144
C161	C	0.881213	0.007330	0.446588
C162	C	1.381213	0.507330	0.946588
C163	C	0.881214	0.007331	0.393170
C164	C	1.381214	0.507331	0.893170
C165	C	0.931252	0.036661	0.366447
C166	C	1.431252	0.536661	0.866447
C167	C	0.931228	0.036669	0.313045
C168	C	1.431228	0.536669	0.813045
N169	N	0.981269	0.065994	0.286318
N170	N	1.481269	0.565994	0.786318
C171	C	1.031315	0.095320	0.313006
C172	C	1.531315	0.595320	0.813006
C173	C	0.931287	0.036667	0.799110
C174	C	1.431287	0.536667	1.299110
C175	C	0.931291	0.036668	0.852524
C176	C	1.431291	0.536668	1.352524
C177	C	1.031381	0.095321	0.852486
C178	C	1.531381	0.595321	1.352486
C179	C	1.031372	0.095322	0.799071
C180	C	1.531372	0.595322	1.299071
C181	C	0.981328	0.065992	0.772384
C182	C	1.481328	0.565992	1.272384
C183	C	1.031289	0.095322	0.200839
C184	C	1.531289	0.595322	0.700839
C185	C	1.031272	0.095322	0.147422
C186	C	1.531272	0.595322	0.647422
C187	C	0.931186	0.036667	0.147465
C188	C	1.431186	0.536667	0.647465
C189	C	0.931199	0.036668	0.200877
C190	C	1.431199	0.536668	0.700877
C191	C	0.981257	0.065997	0.227562
C192	C	1.481257	0.565997	0.727562
O193	O	0.888670	0.011754	0.285394
O194	O	1.388670	0.511754	0.785394
O195	O	1.073878	0.120254	0.285362
O196	O	1.573878	0.620254	0.785362
C197	C	1.031348	0.095316	0.526655
C198	C	1.531348	0.595316	1.026655
C199	C	0.981313	0.065988	0.553378
C200	C	1.481313	0.565988	1.053378
C201	C	0.931268	0.036662	0.526690
C202	C	1.431268	0.536662	1.026690
C203	C	0.981317	0.065989	0.606793
C204	C	1.481317	0.565989	1.106793
C205	C	1.031362	0.095315	0.633481
C206	C	1.531362	0.595315	1.133481
C207	C	1.081404	0.124640	0.606754
C208	C	1.581404	0.624640	1.106754
C209	C	1.081394	0.124641	0.553343
C210	C	1.581394	0.624641	1.053343
C211	C	0.881227	0.007337	0.553417
C212	C	1.381227	0.507337	1.053417
C213	C	0.881240	0.007338	0.606828
C214	C	1.381240	0.507338	1.106828
C215	C	0.931285	0.036664	0.633516
C216	C	1.431285	0.536664	1.133516
H217	H	0.402585	0.065190	0.083893
H218	H	0.902585	0.565190	0.583893
H219	H	0.559881	0.066801	0.083897
H220	H	1.059881	0.566801	0.583897
Br221	Br	0.863279	-0.003132	0.237145
Br222	Br	1.363279	0.496868	0.737145
Br223	Br	1.149317	0.164442	0.642984
Br224	Br	1.649317	0.664442	1.142984
H225	H	0.840462	-0.016555	0.371444
H226	H	1.340462	0.483445	0.871444
H227	H	1.125006	-0.091186	-0.000009
H228	H	1.625006	0.408814	0.499991
H229	H	0.402668	0.065192	-0.083954
H230	H	0.902668	0.565192	0.416046
H231	H	0.559982	0.066798	-0.083957
H232	H	1.059982	0.566798	0.416043
Br233	Br	1.155663	-0.695732	-0.000038
Br234	Br	1.655663	-0.195732	0.499962
H235	H	0.840485	-0.016545	0.628582
H236	H	1.340485	0.483455	1.128582
Br237	Br	1.164340	-0.199459	-0.000027
Br238	Br	1.664340	0.300541	0.499973
H239	H	1.196773	-0.328878	-0.000030
H240	H	1.696773	0.171122	0.499970
Br241	Br	0.727031	-0.398414	-0.000052
Br242	Br	1.227031	0.101586	0.499948
Br243	Br	1.099300	0.135120	0.888715
Br244	Br	1.599300	0.635120	1.388715
Br245	Br	1.149260	0.164464	0.356849
Br246	Br	1.649260	0.664464	0.856849
Br247	Br	1.236099	-0.437146	-0.000038
Br248	Br	1.736099	0.062854	0.499962
H249	H	1.112655	-0.797757	-0.000048
H250	H	1.612655	-0.297757	0.499952
H251	H	0.890534	0.012790	0.874278
H252	H	1.390534	0.512790	1.374278
H253	H	0.849907	-0.070253	-0.000010
H254	H	1.349907	0.429747	0.499990
H255	H	0.890438	0.012792	0.125726
H256	H	1.390438	0.512792	0.625726
Br257	Br	0.796153	-0.787372	-0.000038
Br258	Br	1.296153	-0.287372	0.499962
H259	H	0.890533	0.012781	0.777386
H260	H	1.390533	0.512781	1.277386
H261	H	0.839149	-0.685362	-0.000047
H262	H	1.339149	-0.185362	0.499953
Br263	Br	0.729118	-0.279589	-0.000051
Br264	Br	1.229118	0.220411	0.499949
Br265	Br	1.149302	0.164450	0.482729
Br266	Br	1.649302	0.664450	0.982729
H267	H	0.848301	-0.161727	-0.000006
H268	H	1.348301	0.338273	0.499994
Br269	Br	1.233440	-0.588411	-0.000047
Br270	Br	1.733440	-0.088411	0.499953
H271	H	0.840475	-0.016545	0.531693
H272	H	1.340475	0.483455	1.031693
Br273	Br	0.724401	-0.549673	-0.000048
Br274	Br	1.224401	-0.049673	0.499952
H275	H	1.122140	0.148525	0.531589
H276	H	1.622140	0.648525	1.031589
H277	H	1.072052	0.119204	0.222559
H278	H	1.572052	0.619204	0.722559
H279	H	0.767402	-0.447666	-0.000043
H280	H	1.267402	0.052334	0.499957
Br281	Br	1.099177	0.135135	0.111158
Br282	Br	1.599177	0.635135	0.611158
H283	H	1.072117	0.119206	0.777316
H284	H	1.572117	0.619206	1.277316
Br285	Br	0.813297	-0.032477	0.482842
Br286	Br	1.313297	0.467523	0.982842
H287	H	1.194130	-0.480125	-0.000042
H288	H	1.694130	0.019875	0.499958
