data_functionalizedCrystal
_audit_creation_method	'MofGen! by Chris Wilmer'
_symmetry_space_group_name_H-M	'P1'
_symmetry_Int_Tables_number	1
_symmetry_cell_setting	triclinic
loop_
_symmetry_equiv_pos_as_xyz
  x,y,z
_cell_length_a	13.033293
_cell_length_b	19.120786
_cell_length_c	13.032268
_cell_angle_alpha	94.409956
_cell_angle_beta	89.079182
_cell_angle_gamma	99.298280
loop_
_atom_site_label
_atom_site_type_symbol
_atom_site_fract_x
_atom_site_fract_y
_atom_site_fract_z
Zn1	Zn	1.486522	-0.218229	-0.766087
Zn2	Zn	1.986522	0.281771	-0.266087
Zn3	Zn	1.502749	-0.319030	-0.587002
Zn4	Zn	2.002749	0.180970	-0.087002
Zn5	Zn	1.336584	-0.214525	-0.572524
Zn6	Zn	1.836584	0.285475	-0.072524
Zn7	Zn	1.307400	-0.348271	-0.734979
Zn8	Zn	1.807400	0.151729	-0.234979
O9	O	1.408314	-0.275014	-0.665148
O10	O	1.908314	0.224986	-0.165148
O11	O	1.633178	-0.220913	-0.761409
O12	O	2.133178	0.279087	-0.261409
O13	O	1.499712	-0.291380	-0.442146
O14	O	1.999712	0.208620	0.057854
O15	O	1.361897	-0.116857	-0.605159
O16	O	1.861897	0.383143	-0.105159
O17	O	1.645100	-0.294971	-0.629836
O18	O	2.145100	0.205029	-0.129836
O19	O	1.472055	-0.119578	-0.747369
O20	O	1.972055	0.380422	-0.247369
O21	O	1.377632	-0.214600	-0.431509
O22	O	1.877632	0.285400	0.068491
O23	O	1.188210	-0.242954	-0.574996
O24	O	1.688210	0.257046	-0.074996
O25	O	1.312156	-0.344808	-0.882042
O26	O	1.812156	0.155192	-0.382042
O27	O	1.166768	-0.341216	-0.694351
O28	O	1.666768	0.158784	-0.194351
O29	O	1.443756	-0.249267	-0.904896
O30	O	1.943756	0.250733	-0.404896
O31	O	1.471413	-0.421068	-0.599673
O32	O	1.971413	0.078932	-0.099673
O33	O	1.327891	-0.442551	-0.708391
O34	O	1.827891	0.057449	-0.208391
C35	C	1.140020	-0.294857	-0.629728
C36	C	1.640020	0.205143	-0.129728
C37	C	1.025239	-0.303365	-0.614598
C38	C	1.525239	0.196635	-0.114598
C39	C	0.968151	-0.270591	-0.673043
C40	C	1.468151	0.229409	-0.173043
C41	C	0.849518	-0.279384	-0.657407
C42	C	1.349518	0.220616	-0.157407
C43	C	1.398271	-0.457261	-0.652253
C44	C	1.898271	0.042739	-0.152253
C45	C	1.394064	-0.535224	-0.646783
C46	C	1.894064	-0.035224	-0.146783
C47	C	1.449385	-0.573216	-0.718301
C48	C	1.949385	-0.073216	-0.218301
C49	C	1.445428	-0.646471	-0.713163
C50	C	1.945428	-0.146471	-0.213163
C51	C	1.386156	-0.681731	-0.636502
C52	C	1.886156	-0.181731	-0.136502
C53	C	1.330828	-0.643734	-0.564980
C54	C	1.830828	-0.143734	-0.064980
C55	C	1.334780	-0.570481	-0.570124
C56	C	1.834780	-0.070481	-0.070124
C57	C	1.371352	-0.902838	-0.617269
C58	C	1.871352	-0.402838	-0.117269
C59	C	1.367407	-0.976096	-0.612129
C60	C	1.867407	-0.476096	-0.112129
C61	C	1.482006	-0.978828	-0.760314
C62	C	1.982006	-0.478828	-0.260314
C63	C	1.485958	-0.905573	-0.765447
C64	C	1.985958	-0.405573	-0.265447
C65	C	1.430626	-0.867583	-0.693928
C66	C	1.930626	-0.367583	-0.193928
C67	C	1.382112	-0.756609	-0.631246
C68	C	1.882112	-0.256609	-0.131246
C69	C	1.434664	-0.792708	-0.699190
C70	C	1.934664	-0.292708	-0.199190
C71	C	1.677655	-0.255094	-0.700707
C72	C	2.177655	0.244906	-0.200707
C73	C	1.792432	-0.246605	-0.715861
C74	C	2.292432	0.253395	-0.215861
C75	C	1.372890	-0.300712	-0.931567
C76	C	1.872890	0.199288	-0.431567
C77	C	1.357794	-0.311664	-1.045098
C78	C	1.857794	0.188336	-0.545098
C79	C	1.418421	-0.092054	-0.678119
C80	C	1.918421	0.407946	-0.178119
C81	C	1.422728	-0.014088	-0.683647
C82	C	1.922728	0.485912	-0.183647
C83	C	1.416177	-0.269274	-1.107022
C84	C	1.916177	0.230726	-0.607022
C85	C	1.400577	-0.280592	-1.224364
C86	C	1.900577	0.219408	-0.724364
C87	C	1.443662	-0.249360	-0.399777
C88	C	1.943662	0.250640	0.100223
C89	C	1.458968	-0.238196	-0.286286
C90	C	1.958968	0.261804	0.213714
H91	H	1.497656	-0.544512	-0.780723
H92	H	1.997656	-0.044512	-0.280723
H93	H	1.296255	-0.356330	-1.078954
H94	H	1.796255	0.143670	-0.578954
H95	H	1.333856	-0.785325	-0.568825
H96	H	1.833856	-0.285325	-0.068825
H97	H	1.339033	-0.325261	-1.258214
H98	H	1.839033	0.174739	-0.758214
H99	H	0.986288	-0.337932	-0.552982
H100	H	1.486288	0.162068	-0.052982
H101	H	1.490485	-0.677400	-0.771394
H102	H	1.990485	-0.177400	-0.271394
H103	H	1.326301	-0.871912	-0.559034
H104	H	1.826301	-0.371912	-0.059034
H105	H	1.007103	-0.236019	-0.734653
H106	H	1.507103	0.263981	-0.234653
H107	H	1.534222	-0.876866	-0.827870
H108	H	2.034222	-0.376866	-0.327870
H109	H	1.520501	-0.193519	-1.252436
H110	H	2.020501	0.306481	-0.752436
H111	H	0.831378	-0.212030	-0.777474
H112	H	1.331378	0.287970	-0.277474
H113	H	1.527053	-1.009767	-0.818540
H114	H	2.027053	-0.509767	-0.318540
H115	H	1.319136	-1.004803	-0.549700
H116	H	1.819136	-0.504803	-0.049700
H117	H	1.477707	-0.224602	-1.073166
H118	H	1.977707	0.275398	-0.573166
H119	H	0.810571	-0.313953	-0.595787
H120	H	1.310571	0.186047	-0.095787
H121	H	1.289730	-0.539549	-0.511887
H122	H	1.789730	-0.039549	-0.011887
H123	H	1.282562	-0.672449	-0.502564
H124	H	1.782562	-0.172449	-0.002564
H125	H	1.482919	-0.763998	-0.761611
H126	H	1.982919	-0.263998	-0.261611
