data_functionalizedCrystal
_audit_creation_method	'MofGen! by Chris Wilmer'
_symmetry_space_group_name_H-M	'P1'
_symmetry_Int_Tables_number	1
_symmetry_cell_setting	triclinic
loop_
_symmetry_equiv_pos_as_xyz
  x,y,z
_cell_length_a	8.497374
_cell_length_b	8.497374
_cell_length_c	12.827893
_cell_angle_alpha	89.998937
_cell_angle_beta	90.001575
_cell_angle_gamma	90.005237
loop_
_atom_site_label
_atom_site_type_symbol
_atom_site_fract_x
_atom_site_fract_y
_atom_site_fract_z
Zn1	Zn	0.892100	0.628331	1.597591
Zn2	Zn	1.392100	1.128331	2.097591
Zn3	Zn	0.628366	0.892076	1.597583
Zn4	Zn	1.128366	1.392076	2.097583
Zn5	Zn	0.628328	0.628304	1.422886
Zn6	Zn	1.128328	1.128304	1.922886
Zn7	Zn	0.892098	0.892063	1.422861
Zn8	Zn	1.392098	1.392063	1.922861
O9	O	0.760223	0.760193	1.510230
O10	O	1.260223	1.260193	2.010230
O11	O	0.857132	0.663334	1.743826
O12	O	1.357132	1.163334	2.243826
O13	O	0.407598	0.857081	1.574416
O14	O	0.907598	1.357081	2.074416
O15	O	0.663303	0.407545	1.446075
O16	O	1.163303	0.907545	1.946075
O17	O	0.663367	0.857107	1.743820
O18	O	1.163367	1.357107	2.243820
O19	O	0.857095	0.407565	1.574430
O20	O	1.357095	0.907565	2.074430
O21	O	0.407571	0.663289	1.446067
O22	O	0.907571	1.163289	1.946067
O23	O	0.663301	0.663275	1.276647
O24	O	1.163301	1.163275	1.776647
O25	O	1.112860	0.857083	1.446032
O26	O	1.612860	1.357083	1.946032
O27	O	0.857091	0.857057	1.276629
O28	O	1.357091	1.357057	1.776629
O29	O	1.112862	0.663321	1.574406
O30	O	1.612862	1.163321	2.074406
O31	O	0.663365	1.112837	1.574391
O32	O	1.163365	1.612837	2.074391
O33	O	0.857128	1.112827	1.446024
O34	O	1.357128	1.612827	1.946024
C35	C	0.760193	0.760163	1.238720
C36	C	1.260193	1.260163	1.738720
C37	C	0.760217	0.760188	1.122567
C38	C	1.260217	1.260188	1.622567
C39	C	0.664521	0.664199	0.950720
C40	C	1.164521	1.164199	1.450720
C41	C	0.664494	0.664171	1.070770
C42	C	1.164494	1.164171	1.570770
C43	C	1.171703	0.760196	1.510222
C44	C	1.671703	1.260196	2.010222
C45	C	1.350347	0.760213	1.510225
C46	C	1.850347	1.260213	2.010225
C47	C	0.760246	1.170073	1.510217
C48	C	1.260246	1.670073	2.010217
C49	C	0.760220	1.348717	1.510245
C50	C	1.260220	1.848717	2.010245
C51	C	0.760254	0.760225	1.782800
C52	C	1.260254	1.260225	2.282800
C53	C	0.760267	0.760239	1.898953
C54	C	1.260267	1.260239	2.398953
H55	H	0.582576	0.581992	0.906162
H56	H	1.082576	1.081992	1.406162
F57	F	0.867361	0.867675	1.064390
F58	F	1.367361	1.367675	1.564390
H59	H	0.842226	0.842433	0.943511
H60	H	1.342226	1.342433	1.443511
H61	H	0.582516	0.581954	1.115288
H62	H	1.082516	1.081954	1.615288
