data_functionalizedCrystal
_audit_creation_method	'MofGen! by Chris Wilmer'
_symmetry_space_group_name_H-M	'P1'
_symmetry_Int_Tables_number	1
_symmetry_cell_setting	triclinic
loop_
_symmetry_equiv_pos_as_xyz
  x,y,z
_cell_length_a	10.686220
_cell_length_b	19.121063
_cell_length_c	10.686551
_cell_angle_alpha	91.787201
_cell_angle_beta	89.691918
_cell_angle_gamma	96.652836
loop_
_atom_site_label
_atom_site_type_symbol
_atom_site_fract_x
_atom_site_fract_y
_atom_site_fract_z
Zn1	Zn	1.960178	-0.171149	0.576393
Zn2	Zn	1.934959	-0.298212	0.377034
Zn3	Zn	1.733026	-0.189107	0.384180
Zn4	Zn	1.741490	-0.296789	0.602695
O5	O	1.842413	-0.238814	0.485075
O6	O	2.132864	-0.181084	0.535949
O7	O	1.894076	-0.291850	0.203100
O8	O	1.770171	-0.088483	0.401661
O9	O	2.114336	-0.274436	0.389481
O10	O	1.937058	-0.075289	0.542879
O11	O	1.745717	-0.211691	0.208351
O12	O	1.558117	-0.210311	0.427165
O13	O	1.784596	-0.272012	0.774087
O14	O	1.564336	-0.289425	0.587707
O15	O	1.945265	-0.179704	0.754764
O16	O	1.902282	-0.396264	0.414984
O17	O	1.760141	-0.395219	0.580777
C18	C	1.515583	-0.251663	0.511066
C19	C	1.375765	-0.257175	0.522216
C20	C	1.829430	-0.421212	0.499984
C21	C	1.823994	-0.499236	0.506394
C22	C	1.895514	-0.536407	0.423148
C23	C	1.890409	-0.609719	0.429183
C24	C	1.813778	-0.645858	0.518461
C25	C	1.742256	-0.608681	0.601716
C26	C	1.747368	-0.535371	0.595685
C27	C	1.794644	-0.867182	0.540991
C28	C	1.789534	-0.940498	0.547013
C29	C	1.937690	-0.941530	0.374481
C30	C	1.942789	-0.868219	0.368454
C31	C	1.871272	-0.831048	0.451713
C32	C	1.808556	-0.720794	0.524630
C33	C	1.876502	-0.756113	0.445549
C34	C	2.170519	-0.225915	0.458984
C35	C	2.310339	-0.220419	0.447865
C36	C	1.868688	-0.223696	0.811038
C37	C	1.879884	-0.217254	0.949944
C38	C	1.855484	-0.055701	0.470134
C39	C	1.861053	0.022331	0.463766
C40	C	1.816317	-0.253820	0.160371
C41	C	1.805378	-0.260055	0.021430
H42	H	1.324808	-0.292868	0.594399
C43	C	1.995666	-1.054366	0.307136
C44	C	2.016321	-0.982388	0.282987
H45	H	2.044225	-1.079587	0.250657
H46	H	1.908854	-1.070602	0.296471
H47	H	2.019931	-1.061724	0.390653
H48	H	1.992047	-0.975029	0.199472
H49	H	2.103151	-0.966148	0.293641
H50	H	1.952248	-0.175681	0.995015
H51	H	1.361289	-0.184734	0.375679
H52	H	1.957909	-0.506988	0.350444
H53	H	1.948647	-0.639981	0.361394
H54	H	1.727149	-0.969919	0.619734
C55	C	1.988780	-0.853071	0.150149
C56	C	2.027039	-0.828501	0.270323
H57	H	2.040799	-0.828555	0.089568
H58	H	1.903645	-0.845269	0.137528
H59	H	1.995970	-0.902054	0.141847
H60	H	2.019840	-0.779520	0.278628
H61	H	2.112196	-0.836297	0.282948
C62	C	1.647653	-0.873539	0.712103
C63	C	1.716006	-0.826333	0.632486
H64	H	1.599094	-0.848317	0.768581
H65	H	1.704284	-0.897716	0.757954
H66	H	1.593210	-0.906592	0.663768
H67	H	1.770457	-0.793283	0.680820
H68	H	1.659370	-0.802144	0.586631
H69	H	1.679867	-0.638111	0.674412
H70	H	1.689131	-0.505106	0.663474
C71	C	1.769463	-0.361906	0.883569
C72	C	1.707702	-0.316178	0.960595
H73	H	1.709159	-0.396552	0.846000
H74	H	1.826395	-0.384271	0.932332
H75	H	1.814704	-0.335908	0.820121
H76	H	1.662468	-0.342176	1.024048
H77	H	1.650748	-0.293812	0.911828
H78	H	1.938901	-0.726686	0.372863
H79	H	1.746160	-0.750227	0.597317
