data_functionalizedCrystal
_audit_creation_method	'MofGen! by Chris Wilmer'
_symmetry_space_group_name_H-M	'P1'
_symmetry_Int_Tables_number	1
_symmetry_cell_setting	triclinic
loop_
_symmetry_equiv_pos_as_xyz
  x,y,z
_cell_length_a	17.077404
_cell_length_b	16.625546
_cell_length_c	17.077396
_cell_angle_alpha	89.969785
_cell_angle_beta	89.980499
_cell_angle_gamma	90.022693
loop_
_atom_site_label
_atom_site_type_symbol
_atom_site_fract_x
_atom_site_fract_y
_atom_site_fract_z
Zn1	Zn	1.200057	-0.320997	-0.443833
Zn2	Zn	1.199965	-0.455839	-0.312563
Zn3	Zn	1.068789	-0.321025	-0.312581
Zn4	Zn	1.068758	-0.455792	-0.443787
O5	O	1.134392	-0.388413	-0.378191
O6	O	1.309892	-0.338892	-0.426432
O7	O	1.182539	-0.437988	-0.202719
O8	O	1.086253	-0.208189	-0.330019
O9	O	1.309824	-0.437960	-0.329988
O10	O	1.182695	-0.208168	-0.426449
O11	O	1.086164	-0.338940	-0.202732
O12	O	0.958938	-0.338894	-0.329974
O13	O	1.086200	-0.437879	-0.553640
O14	O	0.958915	-0.437906	-0.426370
O15	O	1.182665	-0.338846	-0.553674
O16	O	1.182509	-0.568666	-0.329943
O17	O	1.086111	-0.568630	-0.426353
C18	C	0.930444	-0.388399	-0.378169
C19	C	0.843194	-0.388412	-0.378179
C20	C	0.802213	-0.440045	-0.428292
C21	C	0.720232	-0.440047	-0.428304
C22	C	0.679235	-0.388419	-0.378199
C23	C	0.720222	-0.336780	-0.328084
C24	C	0.802201	-0.336774	-0.328076
C25	C	0.549352	-0.336795	-0.328103
C26	C	0.467368	-0.336801	-0.328110
C27	C	0.467383	-0.440068	-0.428331
C28	C	0.549362	-0.440063	-0.428323
C29	C	0.590344	-0.388425	-0.378207
C30	C	1.134318	-0.597904	-0.378158
C31	C	1.134358	-0.687525	-0.378170
C32	C	1.134495	-1.015701	-0.378252
C33	C	1.134454	-0.924392	-0.378232
C34	C	1.134426	-0.851616	-0.378211
C35	C	1.134386	-0.760302	-0.378191
C36	C	1.339136	-0.388428	-0.378213
C37	C	1.426386	-0.388435	-0.378223
C38	C	1.134440	-0.388354	-0.582936
C39	C	1.134460	-0.388329	-0.670185
C40	C	1.134488	-0.178104	-0.378241
C41	C	1.134529	-0.088483	-0.378263
C42	C	1.184691	-0.336758	-0.711195
C43	C	1.184700	-0.336731	-0.793175
C44	C	1.134482	-0.388280	-0.834145
C45	C	1.084245	-0.439853	-0.793130
C46	C	1.084233	-0.439875	-0.711151
C47	C	1.084277	-0.439804	-0.964000
C48	C	1.084291	-0.439783	-1.045985
C49	C	1.184745	-0.336660	-1.046024
C50	C	1.184732	-0.336682	-0.964045
C51	C	1.134496	-0.388257	-0.923036
C52	C	1.134390	-0.388414	-0.174243
C53	C	1.134522	-0.388212	-0.086994
H54	H	0.433990	-0.294752	-0.287319
H55	H	1.225647	-0.294665	-1.079418
H56	H	1.043354	-0.481822	-0.826494
O57	O	1.035458	-0.489736	-1.085866
C58	C	0.929446	-0.500514	-1.178357
C59	C	0.984718	-0.443856	-1.133258
H60	H	0.888397	-0.463442	-1.216672
H61	H	0.965414	-0.542664	-1.216789
H62	H	0.893571	-0.537386	-1.134945
H63	H	1.020605	-0.406932	-1.176613
H64	H	0.948704	-0.401759	-1.094814
H65	H	1.225605	-0.294739	-0.826561
H66	H	1.225629	-0.294711	-0.930690
O67	O	0.680521	-0.286551	-0.279386
C68	C	0.689165	-0.184163	-0.179943
C69	C	0.734221	-0.240990	-0.235070
H70	H	0.732561	-0.147323	-0.144087
H71	H	0.650833	-0.141998	-0.216020
H72	H	0.650735	-0.221145	-0.138870
H73	H	0.772693	-0.204072	-0.276154
H74	H	0.772503	-0.283157	-0.198944
H75	H	0.686869	-0.482093	-0.469111
H76	H	1.043321	-0.481861	-0.677762
O77	O	1.035466	-0.489993	-0.924284
C78	C	0.935833	-0.592276	-0.932891
C79	C	0.991070	-0.535483	-0.977967
H80	H	0.899912	-0.629058	-0.976275
H81	H	0.971828	-0.634496	-0.894538
H82	H	0.894826	-0.555271	-0.894481
H83	H	1.032088	-0.572423	-1.016420
H84	H	0.955025	-0.493260	-1.016271
H85	H	0.835587	-0.482090	-0.469091
O86	O	0.842101	-0.286733	-0.279356
C87	C	0.934583	-0.275744	-0.173357
C88	C	0.889460	-0.332510	-0.228494
H89	H	0.972871	-0.312734	-0.132211
H90	H	0.973045	-0.233642	-0.209425
H91	H	0.891188	-0.238827	-0.137581
H92	H	0.932798	-0.369481	-0.264282
H93	H	0.850986	-0.374559	-0.192381
O94	O	0.589273	-0.490101	-0.477035
C95	C	0.681838	-0.501069	-0.583018
C96	C	0.636703	-0.444313	-0.527886
H97	H	0.720184	-0.464072	-0.624157
H98	H	0.720244	-0.543167	-0.546946
H99	H	0.638451	-0.537992	-0.618804
H100	H	0.680034	-0.407338	-0.492089
H101	H	0.598286	-0.402269	-0.564004
O102	O	0.427457	-0.490151	-0.476994
C103	C	0.301171	-0.535959	-0.521396
C104	C	0.346293	-0.479186	-0.466266
H105	H	0.235542	-0.527126	-0.512730
H106	H	0.317267	-0.521884	-0.584733
H107	H	0.317307	-0.600947	-0.507501
H108	H	0.330181	-0.414179	-0.480091
H109	H	0.330193	-0.493331	-0.402946
H110	H	1.225587	-0.294783	-0.677843
H111	H	0.582717	-0.294739	-0.287300
