data_functionalizedCrystal
_audit_creation_method	'MofGen! by Chris Wilmer'
_symmetry_space_group_name_H-M	'P1'
_symmetry_Int_Tables_number	1
_symmetry_cell_setting	triclinic
loop_
_symmetry_equiv_pos_as_xyz
  x,y,z
_cell_length_a	27.732048
_cell_length_b	14.853567
_cell_length_c	13.930277
_cell_angle_alpha	90.013053
_cell_angle_beta	90.003081
_cell_angle_gamma	96.861207
loop_
_atom_site_label
_atom_site_type_symbol
_atom_site_fract_x
_atom_site_fract_y
_atom_site_fract_z
O1	O	0.063103	-1.195320	0.079776
O2	O	0.070621	-0.932738	0.079793
O3	O	-0.003496	-1.072184	0.079766
O4	O	0.137221	-1.055874	0.079803
O5	O	-0.003492	-1.072209	-0.079896
O6	O	0.070626	-0.932763	-0.079869
O7	O	0.063108	-1.195345	-0.079886
Zn8	Zn	0.066868	-1.064058	-0.105227
Zn9	Zn	0.066861	-1.064025	0.105134
O10	O	0.137225	-1.055898	-0.079859
C11	C	-0.021503	-1.071854	-0.000068
C12	C	-0.075162	-1.070823	-0.000076
C13	C	0.070283	-0.899167	-0.000036
C14	C	0.069262	-0.799100	-0.000030
N15	N	0.066854	-1.064004	0.248700
C16	C	-0.413622	-1.146736	-0.000032
C17	C	-0.615300	-1.142911	-0.000018
O18	O	-0.646231	-1.212328	0.000019
N19	N	-0.634810	-1.060225	-0.000013
C20	C	-0.603898	-0.978490	-0.000006
O21	O	-0.625120	-0.908073	0.000008
C22	C	-0.402221	-0.982316	-0.000013
C23	C	-0.382714	-1.065007	-0.000027
C24	C	-0.394114	-1.229421	-0.000045
C25	C	-0.343698	-1.230376	-0.000054
C26	C	-0.312790	-1.148647	-0.000049
C27	C	-0.332298	-1.065963	-0.000036
C28	C	-0.371310	-0.900582	0.000002
C29	C	-0.320888	-0.901546	0.000003
C30	C	-0.301381	-0.984237	-0.000012
C31	C	-0.250973	-0.985189	-0.000040
N32	N	-0.231462	-1.067875	-0.000044
C33	C	-0.262371	-1.149604	-0.000049
C34	C	-0.709781	-0.976487	-0.000004
C35	C	-0.760200	-0.975530	-0.000004
C36	C	-0.771599	-1.139952	-0.000015
C37	C	-0.721179	-1.140908	-0.000021
C38	C	-0.690271	-1.059173	-0.000009
C39	C	-0.156492	-1.151604	-0.000068
C40	C	-0.106071	-1.152552	-0.000081
C41	C	-0.094677	-0.988131	-0.000065
C42	C	-0.145094	-0.987183	-0.000057
C43	C	-0.176001	-1.068926	-0.000056
O44	O	-0.220013	-0.915809	-0.000066
O45	O	-0.241139	-1.220011	-0.000042
C46	C	-0.464039	-1.145781	-0.000023
C47	C	-0.483547	-1.063097	-0.000010
C48	C	-0.452638	-0.981367	-0.000005
C49	C	-0.533966	-1.062140	-0.000010
C50	C	-0.564874	-1.143869	-0.000014
C51	C	-0.545364	-1.226555	-0.000019
C52	C	-0.494947	-1.227510	-0.000028
C53	C	-0.472149	-0.898682	-0.000000
C54	C	-0.522566	-0.897733	0.000007
C55	C	-0.553474	-0.979462	0.000003
C56	C	0.155232	-1.056228	-0.000023
C57	C	0.208891	-1.057259	-0.000009
C58	C	0.063446	-1.228915	-0.000055
C59	C	0.064467	-1.328982	-0.000055
C60	C	0.020920	-0.387353	-0.000064
C61	C	0.108973	-0.364639	-0.000040
C62	C	0.109933	-0.458658	-0.000036
C63	C	0.066385	-0.517028	-0.000045
C64	C	0.021878	-0.481380	-0.000058
C65	C	0.154439	-0.494313	-0.000014
C66	C	0.155401	-0.588336	-0.000010
C67	C	0.111853	-0.646708	-0.000026
C68	C	0.067344	-0.611055	-0.000039
C69	C	0.023796	-0.669425	-0.000048
C70	C	-0.020713	-0.633774	-0.000069
C71	C	-0.021670	-0.539752	-0.000074
C72	C	0.112809	-0.740730	-0.000021
C73	C	0.024755	-0.763452	-0.000042
N74	N	0.066871	-1.064086	-0.248793
C75	C	0.099623	-1.002214	0.700982
C76	C	0.034117	-1.125940	0.700927
C77	C	0.034113	-1.125926	0.600431
C78	C	0.066864	-1.064054	0.550206
C79	C	0.099619	-1.002196	0.600477
C80	C	0.001356	-1.187777	0.550153
C81	C	0.001350	-1.187764	0.449651
C82	C	0.034104	-1.125896	0.399424
C83	C	0.066861	-1.064036	0.449701
C84	C	0.099612	-1.002164	0.399476
C85	C	0.132371	-0.940308	0.449751
C86	C	0.132373	-0.940328	0.550250
C87	C	0.034103	-1.125876	0.298925
C88	C	0.099609	-1.002146	0.298971
H89	H	-0.181651	-1.218168	-0.000063
N90	N	-0.086146	-1.237023	-0.000073
N91	N	-0.059280	-1.255892	0.067226
H92	H	-0.045209	-1.315548	0.067234
N93	N	0.133057	-0.938942	0.247656
N94	N	0.133047	-0.938927	0.157925
H95	H	0.156670	-0.894289	0.121683
N96	N	-0.165015	-0.902710	-0.000072
N97	N	-0.137410	-0.829744	-0.000083
H98	H	-0.151476	-0.770083	-0.000091
H99	H	-0.057907	-0.510716	-0.000113
N100	N	0.133084	-0.939020	0.752315
N101	N	0.162321	-0.883783	0.707455
H102	H	0.185954	-0.839150	0.743709
H103	H	-0.015319	-0.358321	-0.000085
H104	H	0.144427	-0.317109	-0.000024
H105	H	0.149048	-0.769753	-0.000006
H106	H	0.159035	-0.889927	0.408846
N107	N	0.198914	-0.434679	0.000025
N108	N	0.198050	-0.350734	0.000029
H109	H	0.229462	-0.308612	0.000063
H110	H	0.159044	-0.889966	0.591190
H111	H	-0.025323	-1.238131	0.408723
N112	N	0.000663	-1.189124	0.752241
N113	N	0.000669	-1.189125	0.841972
H114	H	-0.022959	-1.233751	0.878218
N115	N	-0.576948	-1.310031	-0.000034
N116	N	-0.621963	-1.309153	-0.000030
H117	H	-0.644272	-1.368105	-0.000038
H118	H	-0.538443	-0.830391	0.000011
H119	H	0.007428	-1.176234	0.257996
N120	N	-0.780132	-0.891072	-0.000010
N121	N	-0.806996	-0.872201	-0.067310
H122	H	-0.821072	-0.812550	-0.067311
H123	H	-0.025312	-1.238147	0.591049
N124	N	-0.323784	-1.314852	-0.000065
N125	N	-0.351394	-1.387811	-0.000065
H126	H	-0.337333	-1.447478	-0.000069
H127	H	-0.056169	-0.681311	-0.000070
N128	N	-0.425675	-1.312921	-0.000043
N129	N	-0.408241	-1.386733	-0.000052
H130	H	-0.430527	-1.445711	-0.000056
N131	N	0.200868	-0.624732	-0.000007
N132	N	0.230240	-0.606633	-0.067303
H133	H	0.262352	-0.632336	-0.067305
N134	N	-0.701263	-1.225382	-0.000041
N135	N	-0.728871	-1.298343	-0.000052
H136	H	-0.714808	-1.358008	-0.000066
N137	N	-0.678220	-0.892983	0.000009
N138	N	-0.695652	-0.819169	0.000011
H139	H	-0.673364	-0.760192	0.000016
H140	H	-0.387184	-0.833246	0.000019
N141	N	-0.803168	-1.223447	-0.000023
N142	N	-0.801361	-1.278619	-0.067321
H143	H	-0.823658	-1.337585	-0.067323
H144	H	-0.479069	-1.294846	-0.000039
H145	H	-0.295725	-0.834986	0.000014
H146	H	-0.069502	-0.921590	-0.000065
H147	H	-0.446987	-0.832126	0.000006
H148	H	-0.010707	-0.810972	-0.000053
