data_functionalizedCrystal
_audit_creation_method	'MofGen! by Chris Wilmer'
_symmetry_space_group_name_H-M	'P1'
_symmetry_Int_Tables_number	1
_symmetry_cell_setting	triclinic
loop_
_symmetry_equiv_pos_as_xyz
  x,y,z
_cell_length_a	18.215407
_cell_length_b	14.908178
_cell_length_c	18.215399
_cell_angle_alpha	86.674478
_cell_angle_beta	89.983101
_cell_angle_gamma	93.311509
loop_
_atom_site_label
_atom_site_type_symbol
_atom_site_fract_x
_atom_site_fract_y
_atom_site_fract_z
Zn1	Zn	1.108197	-0.359256	-0.399140
Zn2	Zn	1.101018	-0.510136	-0.268968
Zn3	Zn	0.985128	-0.359278	-0.276093
Zn4	Zn	0.978011	-0.510078	-0.392002
O5	O	1.043088	-0.434687	-0.334051
O6	O	1.210228	-0.379286	-0.381878
O7	O	1.085619	-0.490158	-0.166928
O8	O	1.007437	-0.233021	-0.298384
O9	O	1.204954	-0.490137	-0.286242
O10	O	1.097855	-0.233005	-0.388786
O11	O	1.000476	-0.379323	-0.172162
O12	O	0.881201	-0.379267	-0.291463
O13	O	0.995306	-0.490038	-0.495935
O14	O	0.875971	-0.490059	-0.376621
O15	O	1.090953	-0.379230	-0.501179
O16	O	1.078718	-0.636383	-0.279320
O17	O	0.988345	-0.636340	-0.369713
C18	C	0.851883	-0.434659	-0.334041
C19	C	0.770084	-0.434669	-0.334053
C20	C	0.502318	-0.492471	-0.378324
C21	C	0.579177	-0.492464	-0.378321
C22	C	0.584600	-0.376923	-0.289790
C23	C	0.507742	-0.376936	-0.289790
C24	C	0.466603	-0.434709	-0.334061
C25	C	0.620320	-0.434688	-0.334058
C26	C	0.703654	-0.434679	-0.334054
C27	C	0.383263	-0.434719	-0.334064
C28	C	1.032000	-0.669097	-0.322985
C29	C	1.027323	-0.769379	-0.318276
C30	C	1.112617	-0.957653	-0.403663
C31	C	1.108225	-1.051877	-0.399241
C32	C	1.014146	-1.052052	-0.305013
C33	C	1.018538	-0.957828	-0.309435
C34	C	1.067775	-0.910632	-0.358761
C35	C	1.072170	-0.816407	-0.363180
C36	C	0.978087	-0.816584	-0.268956
C37	C	0.973696	-0.910808	-0.264533
C38	C	1.235040	-0.434715	-0.334061
C39	C	1.316838	-0.434728	-0.334066
C40	C	1.043136	-0.434625	-0.526007
C41	C	1.043157	-0.434598	-0.607807
C42	C	1.054240	-0.199361	-0.345176
C43	C	1.058993	-0.099079	-0.349917
C44	C	1.092979	-0.376847	-0.798735
C45	C	1.092989	-0.376820	-0.875595
C46	C	0.993392	-0.492211	-0.870123
C47	C	0.993379	-0.492232	-0.793265
C48	C	1.043177	-0.434551	-0.757573
C49	C	1.043200	-0.434504	-0.911291
C50	C	1.043210	-0.434476	-0.994626
C51	C	1.043166	-0.434578	-0.674232
C52	C	1.043086	-0.434684	-0.142845
C53	C	1.043220	-0.434456	-0.061057
H54	H	0.618104	-0.329885	-0.253747
H55	H	1.152713	-0.919225	-0.443822
H56	H	0.478662	-0.329897	-0.253742
H57	H	1.112264	-0.777980	-0.403341
H58	H	0.608252	-0.539501	-0.414363
H59	H	1.133526	-0.329877	-0.769677
H60	H	1.144736	-1.090157	-0.435809
H61	H	0.974056	-1.090495	-0.264857
H62	H	0.952850	-0.539174	-0.899193
H63	H	0.933606	-0.949248	-0.224375
H64	H	0.468824	-0.539514	-0.414372
H65	H	1.133542	-0.329830	-0.909107
H66	H	0.952819	-0.539221	-0.759749
H67	H	0.941576	-0.778289	-0.232391
