data_functionalizedCrystal
_audit_creation_method	'MofGen! by Chris Wilmer'
_symmetry_space_group_name_H-M	'P1'
_symmetry_Int_Tables_number	1
_symmetry_cell_setting	triclinic
loop_
_symmetry_equiv_pos_as_xyz
  x,y,z
_cell_length_a	21.395364
_cell_length_b	13.897447
_cell_length_c	21.395355
_cell_angle_alpha	89.985644
_cell_angle_beta	89.975448
_cell_angle_gamma	90.034481
loop_
_atom_site_label
_atom_site_type_symbol
_atom_site_fract_x
_atom_site_fract_y
_atom_site_fract_z
Zn1	Zn	0.957908	-0.383742	-0.354280
Zn2	Zn	1.457908	0.116258	0.145720
Zn3	Zn	0.957831	-0.545021	-0.249510
Zn4	Zn	1.457831	-0.045021	0.250490
Zn5	Zn	0.853123	-0.383784	-0.249516
Zn6	Zn	1.353123	0.116216	0.250484
Zn7	Zn	0.853112	-0.545039	-0.354250
Zn8	Zn	1.353112	-0.045039	0.145750
O9	O	0.905493	-0.464396	-0.301889
O10	O	1.405493	0.035604	0.198111
O11	O	1.045576	-0.405111	-0.340391
O12	O	1.545576	0.094889	0.159609
O13	O	0.943913	-0.523643	-0.161833
O14	O	1.443913	-0.023643	0.338167
O15	O	0.867059	-0.248797	-0.263429
O16	O	1.367059	0.251203	0.236571
O17	O	1.045519	-0.523602	-0.263417
O18	O	1.545519	-0.023602	0.236583
O19	O	0.944044	-0.248766	-0.340398
O20	O	1.444044	0.251234	0.159602
O21	O	0.866985	-0.405183	-0.161838
O22	O	1.366985	0.094817	0.338162
O23	O	0.765444	-0.405200	-0.263400
O24	O	1.265444	0.094800	0.236600
O25	O	0.867042	-0.523632	-0.441932
O26	O	1.367042	-0.023632	0.058068
O27	O	0.765436	-0.523673	-0.340347
O28	O	1.265436	-0.023673	0.159653
O29	O	0.944034	-0.405128	-0.441954
O30	O	1.444034	0.094872	0.058046
O31	O	0.943903	-0.680005	-0.263389
O32	O	1.443903	-0.180005	0.236611
O33	O	0.866967	-0.680018	-0.340341
O34	O	1.366967	-0.180018	0.159659
C35	C	0.742706	-0.464443	-0.301871
C36	C	1.242706	0.035557	0.198129
C37	C	0.673065	-0.464487	-0.301879
C38	C	1.173065	0.035513	0.198121
C39	C	0.640403	-0.402889	-0.342021
C40	C	1.140403	0.097111	0.157979
C41	C	0.574968	-0.402864	-0.342023
C42	C	1.074968	0.097136	0.157977
C43	C	0.542196	-0.464453	-0.301890
C44	C	1.042196	0.035547	0.198110
C45	C	0.574865	-0.526054	-0.261740
C46	C	1.074865	-0.026054	0.238260
C47	C	0.640300	-0.526071	-0.261734
C48	C	1.140300	-0.026071	0.238266
C49	C	0.438483	-0.551319	-0.296857
C50	C	0.938483	-0.051319	0.203143
C51	C	0.373050	-0.551304	-0.296867
C52	C	0.873050	-0.051304	0.203133
C53	C	0.340376	-0.464400	-0.301904
C54	C	0.840376	0.035600	0.198096
C55	C	0.373142	-0.377508	-0.306944
C56	C	0.873142	0.122492	0.193056
C57	C	0.438576	-0.377525	-0.306939
C58	C	0.938576	0.122475	0.193061
C59	C	0.471244	-0.464441	-0.301891
C60	C	0.971244	0.035559	0.198109
C61	C	0.236762	-0.402769	-0.342051
C62	C	0.736762	0.097231	0.157949
C63	C	0.171325	-0.402742	-0.342049
C64	C	0.671325	0.097258	0.157951
C65	C	0.171224	-0.525941	-0.261769
C66	C	0.671224	-0.025941	0.238231
C67	C	0.236659	-0.525960	-0.261768
C68	C	0.736659	-0.025960	0.238232
C69	C	0.269424	-0.464375	-0.301912
C70	C	0.769424	0.035625	0.198088
C71	C	0.905443	-0.715011	-0.301874
C72	C	1.405443	-0.215011	0.198126
C73	C	0.905478	-0.822225	-0.301889
C74	C	1.405478	-0.322225	0.198111
C75	C	0.905508	-0.909294	-0.301903
C76	C	1.405508	-0.409294	0.198097
C77	C	0.905552	-1.018527	-0.301919
C78	C	1.405552	-0.518527	0.198081
C79	C	1.068917	-0.464350	-0.301907
C80	C	1.568917	0.035650	0.198093
C81	C	1.138558	-0.464330	-0.301915
C82	C	1.638558	0.035670	0.198085
C83	C	0.905545	-0.464377	-0.465312
C84	C	1.405545	0.035623	0.034688
C85	C	0.905568	-0.464369	-0.534954
C86	C	1.405568	0.035631	-0.034954
C87	C	0.905562	-0.212803	-0.301917
C88	C	1.405562	0.287197	0.198083
C89	C	0.905591	-0.105590	-0.301929
C90	C	1.405591	0.394410	0.198071
C91	C	0.945656	-0.402661	-0.567679
C92	C	1.445656	0.097339	-0.067679
C93	C	0.945655	-0.402619	-0.633114
C94	C	1.445655	0.097381	-0.133114
C95	C	0.905573	-0.464303	-0.665822
C96	C	1.405573	0.035697	-0.165822
C97	C	0.865476	-0.526015	-0.633089
C98	C	1.365476	-0.026015	-0.133089
C99	C	0.865474	-0.526048	-0.567654
C100	C	1.365474	-0.026048	-0.067654
C101	C	0.900608	-0.551157	-0.769492
C102	C	1.400608	-0.051157	-0.269492
C103	C	0.900614	-0.551126	-0.834925
C104	C	1.400614	-0.051126	-0.334925
C105	C	0.905576	-0.464201	-0.867643
C106	C	1.405576	0.035799	-0.367643
C107	C	0.910545	-0.377304	-0.834920
C108	C	1.410545	0.122696	-0.334920
C109	C	0.910542	-0.377337	-0.769486
C110	C	1.410542	0.122663	-0.269486
C111	C	0.905570	-0.464274	-0.736774
C112	C	1.405570	0.035726	-0.236774
C113	C	0.945666	-0.402443	-0.971321
C114	C	1.445666	0.097557	-0.471321
C115	C	0.945661	-0.402400	-1.036757
C116	C	1.445661	0.097600	-0.536757
C117	C	0.865485	-0.525804	-1.036730
C118	C	1.365485	-0.025804	-0.536730
C119	C	0.865487	-0.525838	-0.971295
C120	C	1.365487	-0.025838	-0.471295
C121	C	0.905581	-0.464159	-0.938594
C122	C	1.405581	0.035841	-0.438594
C123	C	0.905478	-0.464346	-0.139101
C124	C	1.405478	0.035654	0.360899
C125	C	0.905577	-0.464083	-0.069460
C126	C	1.405577	0.035917	0.430540
H127	H	0.465252	-0.306775	-0.311041
H128	H	0.965252	0.193225	0.188959
C129	C	0.337013	-0.646885	-0.291315
C130	C	0.837013	-0.146885	0.208685
N131	N	0.309872	-0.718879	-0.287130
N132	N	0.809872	-0.218879	0.212870
H133	H	0.465081	-0.622092	-0.292754
H134	H	0.965081	-0.122092	0.207246
C135	C	0.272805	-0.335016	-0.386204
C136	C	0.772805	0.164984	0.113796
N137	N	0.299952	-0.283983	-0.419460
N138	N	0.799952	0.216017	0.080540
H139	H	0.914586	-0.306522	-0.861558
H140	H	1.414586	0.193478	-0.361558
C141	C	0.821382	-0.593863	-0.669068
C142	C	1.321382	-0.093863	-0.169068
N143	N	0.788167	-0.644964	-0.696168
N144	N	1.288167	-0.144964	-0.196168
H145	H	0.832847	-0.576093	-0.944649
H146	H	1.332847	-0.076093	-0.444649
H147	H	0.144542	-0.576088	-0.229091
H148	H	0.644542	-0.076088	0.270909
H149	H	0.978309	-0.352215	-0.944694
H150	H	1.478309	0.147785	-0.444694
C151	C	0.135398	-0.334975	-0.386211
C152	C	0.635398	0.165025	0.113789
N153	N	0.108337	-0.283933	-0.419475
N154	N	0.608337	0.216067	0.080525
C155	C	0.538815	-0.593803	-0.217594
C156	C	1.038815	-0.093803	0.282406
N157	N	0.511662	-0.644832	-0.184340
N158	N	1.011662	-0.144832	0.315660
C159	C	0.676228	-0.593841	-0.217575
C160	C	1.176228	-0.093841	0.282425
N161	N	0.703290	-0.644888	-0.184316
N162	N	1.203290	-0.144888	0.315684
H163	H	0.978303	-0.352436	-0.541058
H164	H	1.478303	0.147564	-0.041058
H165	H	0.346540	-0.306742	-0.311046
H166	H	0.846540	0.193258	0.188954
C167	C	0.272588	-0.593731	-0.217612
C168	C	0.772588	-0.093731	0.282388
N169	N	0.299649	-0.644778	-0.184352
N170	N	0.799649	-0.144778	0.315648
H171	H	0.832826	-0.576296	-0.541010
H172	H	1.332826	-0.076296	-0.041010
C173	C	0.989761	-0.334739	-0.669120
C174	C	1.489761	0.165261	-0.169120
N175	N	1.022983	-0.283614	-0.696237
N176	N	1.522983	0.216386	-0.196237
H177	H	0.914586	-0.306583	-0.742846
H178	H	1.414586	0.193417	-0.242846
H179	H	0.978305	-0.352145	-1.063401
H180	H	1.478305	0.147855	-0.563401
H181	H	0.832843	-0.576018	-1.063360
H182	H	1.332843	-0.076018	-0.563360
H183	H	0.896573	-0.621882	-0.861562
H184	H	1.396573	-0.121882	-0.361562
C185	C	0.676441	-0.335132	-0.386173
C186	C	1.176441	0.164868	0.113827
N187	N	0.703586	-0.284092	-0.419426
N188	N	1.203586	0.215908	0.080574
H189	H	0.548370	-0.352699	-0.374711
H190	H	1.048370	0.147301	0.125289
C191	C	0.895161	-0.646790	-0.733508
C192	C	1.395161	-0.146790	-0.233508
N193	N	0.891063	-0.718818	-0.706406
N194	N	1.391063	-0.218818	-0.206406
