data_functionalizedCrystal
_audit_creation_method	'MofGen! by Chris Wilmer'
_symmetry_space_group_name_H-M	'P1'
_symmetry_Int_Tables_number	1
_symmetry_cell_setting	triclinic
loop_
_symmetry_equiv_pos_as_xyz
  x,y,z
_cell_length_a	12.594517
_cell_length_b	19.805405
_cell_length_c	19.805399
_cell_angle_alpha	89.970699
_cell_angle_beta	89.981060
_cell_angle_gamma	90.026210
loop_
_atom_site_label
_atom_site_type_symbol
_atom_site_fract_x
_atom_site_fract_y
_atom_site_fract_z
Zn1	Zn	1.627165	-0.269482	-0.382700
Zn2	Zn	2.127165	0.230518	0.117300
Zn3	Zn	1.627031	-0.382671	-0.269508
Zn4	Zn	2.127031	0.117329	0.230492
Zn5	Zn	1.449177	-0.269501	-0.269526
Zn6	Zn	1.949177	0.230499	0.230474
Zn7	Zn	1.449119	-0.382634	-0.382656
Zn8	Zn	1.949119	0.117366	0.117344
O9	O	1.538123	-0.326072	-0.326098
O10	O	2.038123	0.173928	0.173902
O11	O	1.776093	-0.284505	-0.367696
O12	O	2.276093	0.215495	0.132304
O13	O	1.603406	-0.367681	-0.174794
O14	O	2.103406	0.132319	0.325206
O15	O	1.472867	-0.174782	-0.284564
O16	O	1.972867	0.325218	0.215436
O17	O	1.775995	-0.367664	-0.284535
O18	O	2.275995	0.132336	0.215465
O19	O	1.603635	-0.174768	-0.367713
O20	O	2.103635	0.325232	0.132287
O21	O	1.472737	-0.284536	-0.174807
O22	O	1.972737	0.215464	0.325193
O23	O	1.300223	-0.284501	-0.284522
O24	O	1.800223	0.215499	0.215478
O25	O	1.472769	-0.367602	-0.477379
O26	O	1.972769	0.132398	0.022621
O27	O	1.300181	-0.367619	-0.367639
O28	O	1.800181	0.132381	0.132361
O29	O	1.603579	-0.284469	-0.477411
O30	O	2.103579	0.215531	0.022589
O31	O	1.603351	-0.477383	-0.284492
O32	O	2.103351	0.022617	0.215508
O33	O	1.472640	-0.477356	-0.367622
O34	O	1.972640	0.022644	0.132378
C35	C	1.538003	-0.501928	-0.326065
C36	C	2.038003	-0.001928	0.173935
C37	C	1.538049	-0.577160	-0.326074
C38	C	2.038049	-0.077160	0.173926
C39	C	1.261582	-0.326059	-0.326078
C40	C	1.761582	0.173941	0.173922
C41	C	1.143277	-0.326069	-0.326085
C42	C	1.643277	0.173931	0.173915
C43	C	1.606177	-0.612496	-0.282834
C44	C	2.106177	-0.112496	0.217166
C45	C	1.606222	-0.683184	-0.282848
C46	C	2.106222	-0.183184	0.217152
C47	C	1.538134	-0.718536	-0.326101
C48	C	2.038134	-0.218536	0.173899
C49	C	1.470003	-0.683195	-0.369346
C50	C	1.970003	-0.183195	0.130654
C51	C	1.469964	-0.612508	-0.369333
C52	C	1.969964	-0.112508	0.130667
C53	C	1.470160	-0.968268	-0.369396
C54	C	1.970160	-0.468268	0.130604
C55	C	1.470202	-1.038961	-0.369403
C56	C	1.970202	-0.538961	0.130597
C57	C	1.606418	-1.038945	-0.282911
C58	C	2.106418	-0.538945	0.217089
C59	C	1.606379	-0.968257	-0.282899
C60	C	2.106379	-0.468257	0.217101
C61	C	1.538253	-0.932923	-0.326146
C62	C	2.038253	-0.432923	0.173854
C63	C	1.538206	-0.856275	-0.326130
C64	C	2.038206	-0.356275	0.173870
C65	C	1.538174	-0.795183	-0.326114
C66	C	2.038174	-0.295183	0.173886
C67	C	1.074016	-0.280799	-0.280964
C68	C	1.574016	0.219201	0.219036
C69	C	1.003188	-0.342537	-0.264309
C70	C	1.503188	0.157463	0.235691
C71	C	1.003305	-0.264361	-0.342752
C72	C	1.503305	0.235639	0.157248
C73	C	1.074007	-0.387840	-0.309398
C74	C	1.574007	0.112160	0.190602
C75	C	1.074131	-0.309622	-0.387869
C76	C	1.574131	0.190378	0.112131
C77	C	1.003335	-0.371403	-0.371238
C78	C	1.503335	0.128597	0.128762
C79	C	1.815744	-0.326086	-0.326118
C80	C	2.315744	0.173914	0.173882
C81	C	1.934049	-0.326092	-0.326127
C82	C	2.434049	0.173908	0.173873
C83	C	1.538183	-0.326030	-0.502641
C84	C	2.038183	0.173970	-0.002641
C85	C	1.538208	-0.326011	-0.577873
C86	C	2.038208	0.173989	-0.077873
C87	C	1.538272	-0.149529	-0.326145
C88	C	2.038272	0.350471	0.173855
C89	C	1.538336	-0.074297	-0.326166
C90	C	2.038336	0.425703	0.173834
C91	C	1.606322	-0.282722	-0.613235
C92	C	2.106322	0.217278	-0.113235
C93	C	1.606333	-0.282703	-0.683923
C94	C	2.106333	0.217297	-0.183923
C95	C	1.538235	-0.325976	-0.719248
C96	C	2.038235	0.174024	-0.219248
C97	C	1.470113	-0.369267	-0.683881
C98	C	1.970113	0.130733	-0.183881
C99	C	1.470098	-0.369283	-0.613194
C100	C	1.970098	0.130717	-0.113194
C101	C	1.470173	-0.369204	-0.968955
C102	C	1.970173	0.130796	-0.468955
C103	C	1.470196	-0.369186	-1.039647
C104	C	1.970196	0.130814	-0.539647
C105	C	1.606409	-0.282624	-1.039684
C106	C	2.106409	0.217376	-0.539684
C107	C	1.606393	-0.282639	-0.968996
C108	C	2.106393	0.217361	-0.468996
C109	C	1.538268	-0.325928	-0.933636
C110	C	2.038268	0.174072	-0.433636
C111	C	1.538256	-0.325948	-0.856987
C112	C	2.038256	0.174052	-0.356987
C113	C	1.538252	-0.325960	-0.795895
C114	C	2.038252	0.174040	-0.295895
C115	C	1.538125	-0.326066	-0.150242
C116	C	2.038125	0.173934	0.349758
C117	C	1.538306	-0.325893	-0.075010
C118	C	2.038306	0.174107	0.424990
H119	H	1.661698	-0.711951	-0.247638
H120	H	2.161698	-0.211951	0.252362
H121	H	1.414662	-0.404499	-0.712649
H122	H	1.914662	0.095501	-0.212649
N123	N	1.115137	-0.230138	-0.230365
N124	N	1.615137	0.269862	0.269635
H125	H	1.089329	-0.242663	-0.183721
H126	H	1.589329	0.257337	0.316279
H127	H	1.195320	-0.230206	-0.231071
H128	H	1.695320	0.269794	0.268929
H129	H	1.661801	-0.247454	-0.712712
H130	H	2.161801	0.252546	-0.212712
H131	H	1.661876	-0.247374	-1.068483
H132	H	2.161876	0.252626	-0.568483
N133	N	1.396556	-0.721319	-0.415994
N134	N	1.896556	-0.221319	0.084006
H135	H	1.413034	-0.708978	-0.464363
H136	H	1.913034	-0.208978	0.035637
H137	H	1.406946	-0.771449	-0.409382
H138	H	1.906946	-0.271449	0.090618
H139	H	1.661850	-0.247404	-0.940238
H140	H	2.161850	0.252596	-0.440238
H141	H	0.972029	-0.356463	-0.212078
H142	H	1.472029	0.143537	0.287922
H143	H	1.104935	-0.440051	-0.295261
H144	H	1.604935	0.059949	0.204739
N145	N	1.396664	-0.415883	-0.930839
N146	N	1.896664	0.084117	-0.430839
H147	H	1.413137	-0.464245	-0.943127
H148	H	1.913137	0.035755	-0.443127
H149	H	1.406985	-0.409277	-0.880707
H150	H	1.906985	0.090723	-0.380707
N151	N	1.396744	-0.415862	-1.077750
N152	N	1.896744	0.084138	-0.577750
H153	H	1.353582	-0.443286	-1.044624
H154	H	1.853582	0.056714	-0.544624
H155	H	1.347525	-0.388297	-1.107083
H156	H	1.847525	0.111703	-0.607083
N157	N	1.396640	-0.415974	-0.575046
N158	N	1.896640	0.084026	-0.075046
H159	H	1.347335	-0.388468	-0.545721
H160	H	1.847335	0.111532	-0.045721
H161	H	1.353572	-0.443380	-0.608188
H162	H	1.853572	0.056620	-0.108188
H163	H	1.414688	-0.939505	-0.404608
H164	H	1.914688	-0.439505	0.095392
N165	N	1.396486	-0.574388	-0.415968
N166	N	1.896486	-0.074388	0.084032
H167	H	1.412978	-0.586649	-0.464340
H168	H	1.912978	-0.086649	0.035660
H169	H	1.320481	-0.586748	-0.405356
H170	H	1.820481	-0.086748	0.094644
N171	N	0.962469	-0.422176	-0.421807
N172	N	1.462469	0.077824	0.078193
H173	H	1.024403	-0.445403	-0.444372
H174	H	1.524403	0.054597	0.055628
H175	H	0.917248	-0.456829	-0.397830
H176	H	1.417248	0.043171	0.102170
N177	N	1.679612	-0.574369	-0.236180
N178	N	2.179612	-0.074369	0.263820
H179	H	1.722779	-0.607483	-0.208792
H180	H	2.222779	-0.107483	0.291208
H181	H	1.728826	-0.544997	-0.263757
H182	H	2.228826	-0.044997	0.236243
H183	H	1.105316	-0.295677	-0.440085
H184	H	1.605316	0.204323	0.059915
N185	N	0.962157	-0.195226	-0.361406
N186	N	1.462157	0.304774	0.138594
H187	H	0.987867	-0.161062	-0.327273
H188	H	1.487867	0.338938	0.172727
H189	H	0.989078	-0.182501	-0.407738
H190	H	1.489078	0.317499	0.092262
N191	N	1.679819	-0.930128	-0.236250
N192	N	2.179819	-0.430128	0.263750
H193	H	1.722990	-0.963240	-0.208861
H194	H	2.222990	-0.463240	0.291139
H195	H	1.729029	-0.900758	-0.263832
H196	H	2.229029	-0.400758	0.236168
N197	N	1.679779	-0.236053	-0.575136
N198	N	2.179779	0.263947	-0.075136
H199	H	1.722929	-0.208626	-0.608267
H200	H	2.222929	0.291374	-0.108267
H201	H	1.636475	-0.204734	-0.545810
H202	H	2.136475	0.295266	-0.045810
H203	H	1.661894	-1.067722	-0.247699
H204	H	2.161894	-0.567722	0.252301
N205	N	1.396758	-1.077092	-0.416054
N206	N	1.896758	-0.577092	0.083946
H207	H	1.353595	-1.043983	-0.443450
H208	H	1.853595	-0.543983	0.056550
H209	H	1.440074	-1.106381	-0.447403
H210	H	1.940074	-0.606381	0.052597
