data_functionalizedCrystal
_audit_creation_method	'MofGen! by Chris Wilmer'
_symmetry_space_group_name_H-M	'P1'
_symmetry_Int_Tables_number	1
_symmetry_cell_setting	triclinic
loop_
_symmetry_equiv_pos_as_xyz
  x,y,z
_cell_length_a	18.215407
_cell_length_b	18.215405
_cell_length_c	18.215399
_cell_angle_alpha	90.029420
_cell_angle_beta	90.017368
_cell_angle_gamma	90.021264
loop_
_atom_site_label
_atom_site_type_symbol
_atom_site_fract_x
_atom_site_fract_y
_atom_site_fract_z
Zn1	Zn	1.125077	-0.293042	0.416060
Zn2	Zn	1.458411	0.040291	0.749393
Zn3	Zn	1.791744	0.373625	1.082727
Zn4	Zn	1.124988	-0.416113	0.292990
Zn5	Zn	1.458321	-0.082780	0.626324
Zn6	Zn	1.791655	0.250553	0.959657
Zn7	Zn	1.002010	-0.293060	0.293013
Zn8	Zn	1.335343	0.040274	0.626346
Zn9	Zn	1.668677	0.373607	0.959679
Zn10	Zn	1.001978	-0.416066	0.416021
Zn11	Zn	1.335311	-0.082733	0.749354
Zn12	Zn	1.668645	0.250601	1.082687
O13	O	1.063513	-0.354570	0.354521
O14	O	1.396847	-0.021237	0.687854
O15	O	1.730180	0.312096	1.021188
O16	O	1.228050	-0.309380	0.399742
O17	O	1.561383	0.023953	0.733075
O18	O	1.894716	0.357286	1.066408
O19	O	1.108651	-0.399817	0.190009
O20	O	1.441984	-0.066484	0.523342
O21	O	1.775317	0.266849	0.856676
O22	O	1.018386	-0.190073	0.309361
O23	O	1.351719	0.143260	0.642694
O24	O	1.685052	0.476594	0.976027
O25	O	1.227984	-0.399800	0.309323
O26	O	1.561317	-0.066467	0.642656
O27	O	1.894651	0.266867	0.975990
O28	O	1.108803	-0.190060	0.399763
O29	O	1.442136	0.143273	0.733096
O30	O	1.775470	0.476607	1.066430
O31	O	1.018299	-0.309410	0.190025
O32	O	1.351633	0.023923	0.523359
O33	O	1.684966	0.357256	0.856692
O34	O	0.899021	-0.309364	0.309323
O35	O	1.232355	0.023969	0.642656
O36	O	1.565688	0.357302	0.975989
O37	O	1.018332	-0.399719	0.519010
O38	O	1.351665	-0.066386	0.852344
O39	O	1.684998	0.266947	1.185677
O40	O	0.898998	-0.399736	0.399696
O41	O	1.232331	-0.066403	0.733030
O42	O	1.565665	0.266930	1.066363
O43	O	1.108772	-0.309334	0.519039
O44	O	1.442105	0.023999	0.852372
O45	O	1.775439	0.357332	1.185706
O46	O	1.108620	-0.519091	0.309285
O47	O	1.441953	-0.185758	0.642618
O48	O	1.775286	0.147575	0.975952
O49	O	1.018245	-0.519056	0.399675
O50	O	1.351578	-0.185723	0.733008
O51	O	1.684912	0.147610	1.066341
C52	C	0.872307	-0.354548	0.354508
C53	C	1.205640	-0.021214	0.687841
C54	C	1.538974	0.312119	1.021175
C55	C	0.790508	-0.354556	0.354520
C56	C	1.123842	-0.021222	0.687853
C57	C	1.457175	0.312111	1.021187
C58	C	0.602347	-0.307571	0.401675
C59	C	0.935681	0.025762	0.735009
C60	C	1.269014	0.359096	1.068342
C61	C	0.525489	-0.307577	0.401678
C62	C	0.858822	0.025756	0.735011
C63	C	1.192155	0.359089	1.068344
C64	C	0.525431	-0.401590	0.307379
C65	C	0.858765	-0.068257	0.640713
C66	C	1.192098	0.265076	0.974046
C67	C	0.602289	-0.401580	0.307374
C68	C	0.935622	-0.068246	0.640707
C69	C	1.268955	0.265087	0.974041
C70	C	0.640745	-0.354571	0.354526
C71	C	0.974078	-0.021238	0.687859
C72	C	1.307411	0.312096	1.021193
C73	C	0.487029	-0.354588	0.354534
C74	C	0.820362	-0.021255	0.687867
C75	C	1.153695	0.312079	1.021201
C76	C	0.403695	-0.354595	0.354536
C77	C	0.737028	-0.021262	0.687870
C78	C	1.070362	0.312072	1.021203
C79	C	0.724084	-0.354563	0.354523
C80	C	1.057417	-0.021229	0.687856
C81	C	1.390750	0.312104	1.021189
C82	C	1.063439	-0.545777	0.354489
C83	C	1.396773	-0.212443	0.687823
C84	C	1.730106	0.120890	1.021156
C85	C	1.063475	-0.627575	0.354500
C86	C	1.396808	-0.294242	0.687834
C87	C	1.730141	0.039091	1.021167
C88	C	1.110671	-0.892627	0.307534
C89	C	1.444004	-0.559293	0.640867
C90	C	1.777337	-0.225960	0.974200
C91	C	1.110641	-0.815768	0.307517
C92	C	1.443974	-0.482435	0.640850
C93	C	1.777307	-0.149101	0.974184
C94	C	1.016447	-0.815773	0.401558
C95	C	1.349780	-0.482439	0.734891
C96	C	1.683114	-0.149106	1.068224
C97	C	1.016474	-0.892630	0.401570
C98	C	1.349807	-0.559297	0.734904
C99	C	1.683141	-0.225963	1.068237
C100	C	1.063590	-0.931055	0.354559
C101	C	1.396924	-0.597722	0.687893
C102	C	1.730257	-0.264388	1.021226
C103	C	1.063533	-0.777339	0.354530
C104	C	1.396866	-0.444006	0.687863
C105	C	1.730199	-0.110672	1.021197
C106	C	1.063500	-0.694005	0.354512
C107	C	1.396833	-0.360672	0.687845
C108	C	1.730166	-0.027339	1.021179
C109	C	1.063623	-1.014394	0.354576
C110	C	1.396956	-0.681061	0.687910
C111	C	1.730289	-0.347727	1.021243
C112	C	1.255466	-0.354593	0.354534
C113	C	1.588800	-0.021260	0.687868
C114	C	1.922133	0.312073	1.021201
C115	C	1.337265	-0.354603	0.354540
C116	C	1.670598	-0.021270	0.687873
C117	C	2.003932	0.312063	1.021207
C118	C	1.063558	-0.354519	0.546474
C119	C	1.396892	-0.021186	0.879807
C120	C	1.730225	0.312147	1.213141
C121	C	1.063577	-0.354498	0.628273
C122	C	1.396911	-0.021165	0.961606
C123	C	1.730244	0.312169	1.294940
C124	C	1.063608	-0.162617	0.354569
C125	C	1.396941	0.170716	0.687902
C126	C	1.730275	0.504049	1.021235
C127	C	1.063648	-0.080818	0.354589
C128	C	1.396981	0.252515	0.687922
C129	C	1.730315	0.585848	1.021256
C130	C	1.063511	-0.354568	0.163315
C131	C	1.396844	-0.021234	0.496648
C132	C	1.730178	0.312099	0.829981
C133	C	1.063635	-0.354382	0.081516
C134	C	1.396968	-0.021049	0.414850
C135	C	1.730301	0.312285	0.748183
C136	C	1.110687	-0.307390	0.816483
C137	C	1.444020	0.025943	1.149816
C138	C	1.777353	0.359276	1.483150
C139	C	1.110695	-0.307369	0.893342
C140	C	1.444029	0.025964	1.226675
C141	C	1.777362	0.359298	1.560009
C142	C	1.016520	-0.401492	0.893301
C143	C	1.349853	-0.068158	1.226634
C144	C	1.683187	0.265175	1.559967
C145	C	1.016508	-0.401509	0.816443
C146	C	1.349841	-0.068175	1.149777
C147	C	1.683175	0.265158	1.483110
C148	C	1.063596	-0.354459	0.778036
C149	C	1.396929	-0.021126	1.111370
C150	C	1.730262	0.312207	1.444703
C151	C	1.063616	-0.354421	0.931753
C152	C	1.396950	-0.021087	1.265086
C153	C	1.730283	0.312246	1.598419
C154	C	1.063625	-0.354398	1.015086
C155	C	1.396959	-0.021064	1.348420
C156	C	1.730292	0.312269	1.681753
C157	C	1.063586	-0.354481	0.694697
C158	C	1.396919	-0.021148	1.028031
C159	C	1.730252	0.312186	1.361364
H160	H	0.633553	-0.439854	0.268975
H161	H	0.966886	-0.106520	0.602309
H162	H	1.300219	0.226813	0.935642
H163	H	0.494229	-0.269304	0.440070
H164	H	0.827562	0.064030	0.773404
H165	H	1.160896	0.397363	1.106737
H166	H	0.978087	-0.784479	0.439834
H167	H	1.311420	-0.451146	0.773168
H168	H	1.644754	-0.117813	1.106501
H169	H	1.149035	-0.923910	0.269254
H170	H	1.482369	-0.590577	0.602587
H171	H	1.815702	-0.257243	0.935921
O172	O	1.156307	-0.778325	0.261861
O173	O	1.489640	-0.444992	0.595194
O174	O	1.822973	-0.111659	0.928528
C175	C	1.146194	-0.702249	0.271938
C176	C	1.479527	-0.368915	0.605272
C177	C	1.812860	-0.035582	0.938605
H178	H	1.089379	-0.691776	0.295983
H179	H	1.422713	-0.358443	0.629316
H180	H	1.756046	-0.025109	0.962649
H181	H	1.151212	-0.673075	0.216812
H182	H	1.484545	-0.339742	0.550146
H183	H	1.817879	-0.006409	0.883479
H184	H	1.189811	-0.680377	0.311167
H185	H	1.523145	-0.347044	0.644500
H186	H	1.856478	-0.013710	0.977833
H187	H	0.978156	-0.439837	0.785139
H188	H	1.311489	-0.106504	1.118472
H189	H	1.644822	0.226829	1.451806
H190	H	0.978132	-0.923919	0.439866
H191	H	1.311466	-0.590586	0.773199
H192	H	1.644799	-0.257252	1.106533
O193	O	1.156444	-0.261614	0.779288
O194	O	1.489777	0.071719	1.112621
O195	O	1.823111	0.405052	1.445955
C196	C	1.198021	-0.220078	0.829707
C197	C	1.531354	0.113255	1.163041
C198	C	1.864688	0.446589	1.496374
H199	H	1.167886	-0.217517	0.884490
H200	H	1.501219	0.115816	1.217823
H201	H	1.834553	0.449149	1.551156
H202	H	1.205892	-0.162100	0.807520
H203	H	1.539226	0.171234	1.140853
H204	H	1.872559	0.504567	1.474186
H205	H	1.253904	-0.247028	0.837882
H206	H	1.587237	0.086305	1.171216
H207	H	1.920570	0.419638	1.504549
O208	O	0.639784	-0.261868	0.447371
O209	O	0.973118	0.071465	0.780704
O210	O	1.306451	0.404799	1.114037
C211	C	0.684224	-0.214265	0.405552
C212	C	1.017557	0.119068	0.738885
C213	C	1.350891	0.452401	1.072219
H214	H	0.695714	-0.240151	0.349735
H215	H	1.029047	0.093183	0.683068
H216	H	1.362381	0.426516	1.016402
H217	H	0.738282	-0.204431	0.435543
H218	H	1.071616	0.128903	0.768877
H219	H	1.404949	0.462236	1.102210
H220	H	0.654612	-0.159723	0.397562
H221	H	0.987946	0.173611	0.730895
H222	H	1.321279	0.506944	1.064228
O223	O	0.487960	-0.447233	0.261652
O224	O	0.821293	-0.113899	0.594985
O225	O	1.154626	0.219434	0.928319
C226	C	0.411889	-0.437153	0.271754
C227	C	0.745223	-0.103820	0.605088
C228	C	1.078556	0.229513	0.938421
H229	H	0.401419	-0.413123	0.328592
H230	H	0.734753	-0.079790	0.661925
H231	H	1.068086	0.253544	0.995258
H232	H	0.382666	-0.492276	0.266669
H233	H	0.715999	-0.158943	0.600002
H234	H	1.049332	0.174390	0.933335
H235	H	0.390070	-0.397912	0.228173
H236	H	0.723403	-0.064579	0.561506
H237	H	1.056737	0.268754	0.894840
O238	O	1.156335	-0.261566	0.930719
O239	O	1.489668	0.071767	1.264053
O240	O	1.823001	0.405101	1.597386
C241	C	1.114464	-0.214029	0.975193
C242	C	1.447797	0.119305	1.308526
C243	C	1.781130	0.452638	1.641859
H244	H	1.056500	-0.209487	0.952023
H245	H	1.389834	0.123846	1.285357
H246	H	1.723167	0.457180	1.618690
H247	H	1.141105	-0.157394	0.976079
H248	H	1.474439	0.175939	1.309412
H249	H	1.807772	0.509273	1.642746
H250	H	1.111928	-0.236763	1.033437
H251	H	1.445261	0.096570	1.366770
H252	H	1.778594	0.429904	1.700104
O253	O	0.970855	-0.447173	0.930724
O254	O	1.304188	-0.113840	1.264058
O255	O	1.637521	0.219494	1.597391
C256	C	0.980950	-0.437054	1.006805
C257	C	1.314283	-0.103721	1.340139
C258	C	1.647616	0.229613	1.673472
H259	H	1.037757	-0.412955	1.017318
H260	H	1.371090	-0.079621	1.350651
H261	H	1.704423	0.253712	1.683985
H262	H	0.975937	-0.492172	1.035998
H263	H	1.309270	-0.158838	1.369331
H264	H	1.642604	0.174495	1.702665
H265	H	0.937319	-0.397855	1.028622
H266	H	1.270653	-0.064521	1.361955
H267	H	1.603986	0.268812	1.695288
