data_functionalizedCrystal
_audit_creation_method	'MofGen! by Chris Wilmer'
_symmetry_space_group_name_H-M	'P1'
_symmetry_Int_Tables_number	1
_symmetry_cell_setting	triclinic
loop_
_symmetry_equiv_pos_as_xyz
  x,y,z
_cell_length_a	19.188930
_cell_length_b	19.188924
_cell_length_c	9.730223
_cell_angle_alpha	89.993539
_cell_angle_beta	89.982832
_cell_angle_gamma	83.143372
loop_
_atom_site_label
_atom_site_type_symbol
_atom_site_fract_x
_atom_site_fract_y
_atom_site_fract_z
O1	O	0.926141	0.087168	-0.114738
O2	O	0.722830	0.098902	-0.114644
O3	O	0.830355	-0.008621	-0.114678
O4	O	0.818616	0.194691	-0.114705
O5	O	0.830348	-0.008624	0.113902
O6	O	0.722823	0.098899	0.113935
O7	O	0.926135	0.087165	0.113842
Zn8	Zn	0.824478	0.093032	0.150181
Zn9	Zn	0.824487	0.093035	-0.150983
O10	O	0.818609	0.194688	0.113875
C11	C	0.696815	0.098521	-0.000342
C12	C	0.619311	0.097380	-0.000306
C13	C	0.574385	0.160471	-0.000336
C14	C	0.501562	0.159399	-0.000351
C15	C	0.473667	0.095233	-0.000364
C16	C	0.518602	0.032134	-0.000326
C17	C	0.591424	0.033207	-0.000297
N18	N	0.365690	0.046187	-0.078208
N19	N	0.296511	0.045171	-0.078238
C20	C	0.254258	0.091995	-0.000447
N21	N	0.283795	0.139883	0.077358
N22	N	0.352980	0.140900	0.077382
C23	C	0.394704	0.094062	-0.000394
C24	C	0.130368	0.153928	-0.000492
C25	C	0.057543	0.152854	-0.000498
C26	C	0.074585	0.025586	-0.000487
C27	C	0.147409	0.026663	-0.000466
C28	C	0.175295	0.090835	-0.000475
C29	C	0.829973	-0.034634	-0.000386
C30	C	0.828834	-0.112138	-0.000382
C31	C	0.828306	-0.148536	-0.124981
C32	C	0.827226	-0.221358	-0.124991
C33	C	0.826688	-0.257783	-0.000395
C34	C	0.827212	-0.221376	0.124221
C35	C	0.828285	-0.148554	0.124227
N36	N	0.864733	-0.377447	0.092321
N37	N	0.863715	-0.446626	0.092307
C38	C	0.823454	-0.477192	-0.000407
N39	N	0.784257	-0.435968	-0.093126
N40	N	0.785278	-0.366784	-0.093115
C41	C	0.825524	-0.336746	-0.000388
C42	C	0.821754	-0.592552	-0.125025
C43	C	0.820670	-0.665375	-0.125030
C44	C	0.820663	-0.665393	0.124185
C45	C	0.821740	-0.592570	0.124187
C46	C	0.822289	-0.556154	-0.000422
C47	C	0.952149	0.087546	-0.000463
C48	C	1.029654	0.088687	-0.000508
C49	C	0.818992	0.220700	-0.000419
C50	C	0.820131	0.298205	-0.000432
N51	N	0.824477	0.093029	0.355717
N52	N	0.824493	0.093033	-0.356520
C53	C	0.872105	0.045437	0.427628
C54	C	0.872112	0.045437	0.571511
C55	C	0.776860	0.140626	0.571559
C56	C	0.776850	0.140622	0.427679
H57	H	0.464976	0.210777	-0.000372
H58	H	0.822176	-0.562936	0.225649
H59	H	0.910894	0.006683	0.630058
H60	H	0.910884	0.006682	0.369041
C61	C	0.725125	0.192190	0.649873
C62	C	0.682524	0.155103	0.732555
C63	C	0.634865	0.202582	0.804729
H64	H	0.696688	0.220554	0.586596
H65	H	0.750136	0.221185	0.706046
H66	H	0.657516	0.126121	0.676387
H67	H	0.710942	0.126742	0.795857
H68	H	0.659875	0.231577	0.860902
H69	H	0.606433	0.230943	0.741442
H70	H	0.605959	0.177426	0.860847
H71	H	0.628003	-0.018171	-0.000274
H72	H	0.822197	-0.562900	-0.226489
H73	H	0.020965	0.204232	-0.000514
H74	H	0.153075	0.206181	-0.000479
C75	C	0.196271	-0.041786	-0.000670
C76	C	0.238616	-0.044876	-0.118237
C77	C	0.283643	-0.107919	-0.118458
H78	H	0.169317	-0.080213	-0.000752
H79	H	0.225056	-0.044021	0.079010
H80	H	0.209835	-0.042647	-0.197896
H81	H	0.265585	-0.006463	-0.118180
H82	H	0.312427	-0.110154	-0.038779
H83	H	0.256683	-0.146341	-0.118537
H84	H	0.312384	-0.110021	-0.198219
H85	H	0.820237	-0.695008	-0.226497
H86	H	0.826772	-0.251037	0.225668
H87	H	0.051874	-0.026659	-0.000582
H88	H	0.828751	-0.118890	-0.226448
H89	H	0.828712	-0.118919	0.225694
C90	C	0.826662	-0.260762	-0.260421
C91	C	0.827373	-0.213284	-0.369544
C92	C	0.826850	-0.249554	-0.494320
H93	H	0.785540	-0.283713	-0.265745
H94	H	0.866958	-0.294616	-0.265723
H95	H	0.787082	-0.179443	-0.364244
H96	H	0.868492	-0.190332	-0.364265
H97	H	0.867146	-0.283408	-0.499623
H98	H	0.785727	-0.272503	-0.499630
H99	H	0.827339	-0.217347	-0.568375
H100	H	0.495885	-0.020111	-0.000355
C101	C	0.819928	-0.704866	0.259516
C102	C	0.760121	-0.679118	0.334685
C103	C	0.759411	-0.715469	0.459357
H104	H	0.860759	-0.698407	0.310864
H105	H	0.819172	-0.753452	0.241742
H106	H	0.760883	-0.630543	0.352463
H107	H	0.719281	-0.685577	0.283379
H108	H	0.758655	-0.764055	0.441584
H109	H	0.800244	-0.709008	0.510693
H110	H	0.718829	-0.698009	0.510370
C111	C	0.604797	0.230071	-0.000440
C112	C	0.678189	0.217511	-0.000460
C113	C	0.706229	0.281609	-0.000590
H114	H	0.589423	0.256107	0.079227
H115	H	0.589416	0.256033	-0.080205
H116	H	0.693563	0.191561	0.079296
H117	H	0.693582	0.191486	-0.080122
H118	H	0.690848	0.307571	-0.080355
H119	H	0.690850	0.307640	0.079079
H120	H	0.756028	0.273096	-0.000616
C121	C	0.725060	0.192187	0.349518
C122	C	0.682423	0.155094	0.266992
C123	C	0.634701	0.202567	0.194983
H124	H	0.749999	0.221205	0.293245
H125	H	0.696659	0.220527	0.412934
H126	H	0.710820	0.126766	0.203583
H127	H	0.657468	0.126078	0.323231
H128	H	0.606301	0.230907	0.258399
H129	H	0.659647	0.231583	0.138718
H130	H	0.605763	0.177407	0.138991
