data_functionalizedCrystal
_audit_creation_method	'MofGen! by Chris Wilmer'
_symmetry_space_group_name_H-M	'P1'
_symmetry_Int_Tables_number	1
_symmetry_cell_setting	triclinic
loop_
_symmetry_equiv_pos_as_xyz
  x,y,z
_cell_length_a	10.654550
_cell_length_b	10.540539
_cell_length_c	9.730223
_cell_angle_alpha	90.000775
_cell_angle_beta	89.996251
_cell_angle_gamma	84.505197
loop_
_atom_site_label
_atom_site_type_symbol
_atom_site_fract_x
_atom_site_fract_y
_atom_site_fract_z
O1	O	1.667897	0.178295	-0.114396
O2	O	1.302424	0.195282	-0.114373
O3	O	1.493499	0.002079	-0.114383
O4	O	1.476822	0.371498	-0.114386
O5	O	1.493496	0.002084	0.114197
O6	O	1.302422	0.195287	0.114207
O7	O	1.667895	0.178300	0.114184
Zn8	Zn	1.485158	0.186794	0.150487
Zn9	Zn	1.485161	0.186788	-0.150677
O10	O	1.476820	0.371503	0.114194
C11	C	1.255625	0.194038	-0.000080
C12	C	1.116180	0.190306	-0.000072
C13	C	1.036734	0.304061	-0.000093
C14	C	0.905712	0.300547	-0.000116
C15	C	0.933595	0.069513	-0.000104
C16	C	1.064614	0.073028	-0.000071
C17	C	1.020636	0.437446	-0.000106
C18	C	0.889614	0.433932	-0.000129
C19	C	1.492247	-0.045221	-0.000096
C20	C	1.488505	-0.186168	-0.000103
C21	C	1.345134	-0.369543	-0.000607
C22	C	1.348927	-0.222926	-0.000093
C23	C	1.555675	-0.247847	0.130423
C24	C	1.550912	-0.394389	0.130533
C25	C	1.553753	-0.394914	-0.129405
C26	C	1.555039	-0.247933	-0.131131
C27	C	1.714694	0.179545	-0.000112
C28	C	1.854139	0.183276	-0.000129
C29	C	1.478072	0.418803	-0.000096
C30	C	1.481813	0.559750	-0.000098
N31	N	1.485165	0.186798	0.356024
N32	N	1.485164	0.186774	-0.356213
C33	C	1.569795	0.101277	0.427945
C34	C	1.569791	0.101261	0.571828
C35	C	1.400525	0.272299	0.571855
C36	C	1.400523	0.272308	0.427975
C37	C	1.667523	0.002533	0.427931
C38	C	1.667520	0.002518	0.571814
H39	H	1.056307	0.479916	-0.098793
H40	H	1.764039	0.024268	0.610858
O41	O	1.490041	-0.193690	-0.259050
H42	H	1.410683	-0.123028	-0.229448
H43	H	1.758718	0.033451	0.383299
H44	H	0.891593	-0.025971	-0.000125
O45	O	1.150308	-0.049662	-0.000024
H46	H	1.092436	-0.131798	-0.000038
O47	O	0.829115	0.487332	0.130577
H48	H	0.902996	0.518492	0.199892
O49	O	1.059472	0.506526	0.126645
H50	H	1.107137	0.591165	0.095574
O51	O	0.834339	0.500504	-0.126840
H52	H	0.911188	0.535868	-0.188864
H53	H	1.296074	-0.180306	-0.093659
O54	O	1.309249	0.364546	0.649452
H55	H	1.247733	0.310541	0.715014
O56	O	1.272073	-0.407419	-0.124570
H57	H	1.332389	-0.477049	-0.187144
O58	O	1.272387	-0.409498	0.122701
H59	H	1.333156	-0.479496	0.184350
H60	H	1.295701	-0.181149	0.093636
H61	H	1.656802	-0.223748	-0.139019
O62	O	1.485142	-0.431732	0.259772
H63	H	1.457026	-0.345159	0.321600
O64	O	1.683870	-0.457993	0.138403
H65	H	1.751283	-0.384044	0.142124
H66	H	1.658178	-0.225529	0.135270
H67	H	1.509014	-0.205228	0.227563
H68	H	1.508579	-0.426453	-0.228336
O69	O	1.687294	-0.457521	-0.130599
H70	H	1.702416	-0.520628	-0.039598
H71	H	1.331600	0.341935	0.369418
O72	O	1.627120	-0.119636	0.630937
H73	H	1.605702	-0.184387	0.545925
O74	O	1.639088	-0.126699	0.376150
H75	H	1.545105	-0.147837	0.414185
