data_functionalizedCrystal
_audit_creation_method	'MofGen! by Chris Wilmer'
_symmetry_space_group_name_H-M	'P1'
_symmetry_Int_Tables_number	1
_symmetry_cell_setting	triclinic
loop_
_symmetry_equiv_pos_as_xyz
  x,y,z
_cell_length_a	15.298708
_cell_length_b	15.297327
_cell_length_c	12.759393
_cell_angle_alpha	99.642973
_cell_angle_beta	99.644515
_cell_angle_gamma	107.405650
loop_
_atom_site_label
_atom_site_type_symbol
_atom_site_fract_x
_atom_site_fract_y
_atom_site_fract_z
Zn1	Zn	1.357709	-0.123858	-0.345798
Zn2	Zn	1.330664	-0.279429	-0.206887
Zn3	Zn	1.202172	-0.150853	-0.206862
Zn4	Zn	1.175237	-0.306294	-0.419205
O5	O	1.266446	-0.215109	-0.294688
O6	O	1.484261	-0.121955	-0.296660
O7	O	1.313574	-0.262428	-0.059883
O8	O	1.245396	-0.017112	-0.194560
O9	O	1.464391	-0.236252	-0.194603
O10	O	1.359668	0.002721	-0.296636
O11	O	1.219171	-0.167963	-0.059864
O12	O	1.068460	-0.194013	-0.265741
O13	O	1.199488	-0.282039	-0.556468
O14	O	1.048670	-0.308215	-0.421748
O15	O	1.333549	-0.148004	-0.502536
O16	O	1.287455	-0.413153	-0.265783
O17	O	1.173263	-0.432890	-0.421772
C18	C	1.024821	-0.256959	-0.351708
C19	C	0.921449	-0.274885	-0.376132
C20	C	0.671237	-0.087221	-0.120441
C21	C	0.768361	-0.070373	-0.097494
C22	C	0.806638	-0.121500	-0.167151
C23	C	0.747781	-0.189477	-0.259760
C24	C	0.650649	-0.206321	-0.282714
C25	C	0.786049	-0.240600	-0.329424
C26	C	0.727193	-0.308578	-0.422034
C27	C	0.630070	-0.325419	-0.444983
C28	C	0.591793	-0.274293	-0.375326
C29	C	0.883182	-0.223756	-0.306470
C30	C	0.862594	-0.342857	-0.468743
C31	C	0.765470	-0.359704	-0.491691
C32	C	1.224527	-0.456766	-0.351763
C33	C	1.206679	-0.560133	-0.376195
C34	C	1.394390	-0.810243	-0.120336
C35	C	1.411158	-0.713124	-0.097376
C36	C	1.360040	-0.674871	-0.167079
C37	C	1.292150	-0.733747	-0.259746
C38	C	1.275375	-0.830876	-0.282704
C39	C	1.241026	-0.695505	-0.329446
C40	C	1.173136	-0.754381	-0.422113
C41	C	1.156364	-0.851500	-0.445067
C42	C	1.207482	-0.889753	-0.375365
C43	C	1.257801	-0.598376	-0.306488
C44	C	1.138786	-0.619010	-0.468856
C45	C	1.122018	-0.716129	-0.491816
C46	C	1.509013	-0.173095	-0.237446
C47	C	1.612381	-0.155192	-0.213052
C48	C	1.266531	-0.215007	-0.568684
C49	C	1.266567	-0.214964	-0.685445
C50	C	1.308553	0.027497	-0.237407
C51	C	1.326497	0.130881	-0.212997
C52	C	1.336379	-0.145162	-0.712222
C53	C	1.336401	-0.145119	-0.821933
C54	C	1.196796	-0.284689	-0.878081
C55	C	1.196771	-0.284727	-0.768372
C56	C	1.266426	-0.215133	-0.021729
C57	C	1.266615	-0.214883	0.095135
H58	H	0.640063	-0.045596	-0.063740
Cl59	Cl	1.424119	-0.057457	-0.607974
H60	H	0.512707	-0.288011	-0.394001
H61	H	1.066741	-0.764079	-0.567266
H62	H	1.373697	-0.595792	-0.148378
Cl63	Cl	1.496511	-0.639114	0.019106
H64	H	1.097159	-0.587866	-0.525612
Cl65	Cl	1.424176	-0.057370	-0.855591
H66	H	0.816274	-0.015028	-0.022089
Cl67	Cl	1.108995	-0.372482	-0.734706
Cl68	Cl	0.691468	-0.445163	-0.608106
Cl69	Cl	0.556083	-0.410866	-0.561416
Cl70	Cl	1.109062	-0.372391	-0.982339
H71	H	0.931094	-0.168405	-0.231069
H72	H	0.893758	-0.384485	-0.525467
Cl73	Cl	1.343146	-0.524373	-0.189997
Cl74	Cl	1.458642	-0.858337	-0.032720
H75	H	1.101072	-0.899437	-0.520513
Cl76	Cl	0.928738	-0.100319	-0.138300
Cl77	Cl	1.186027	-1.011914	-0.403887
