data_functionalizedCrystal
_audit_creation_method	'MofGen! by Chris Wilmer'
_symmetry_space_group_name_H-M	'P1'
_symmetry_Int_Tables_number	1
_symmetry_cell_setting	triclinic
loop_
_symmetry_equiv_pos_as_xyz
  x,y,z
_cell_length_a	17.019282
_cell_length_b	23.532407
_cell_length_c	15.500227
_cell_angle_alpha	92.805592
_cell_angle_beta	91.034464
_cell_angle_gamma	83.119776
loop_
_atom_site_label
_atom_site_type_symbol
_atom_site_fract_x
_atom_site_fract_y
_atom_site_fract_z
O1	O	1.045805	0.072736	0.005989
O2	O	0.816942	0.081369	-0.011071
O3	O	0.938274	-0.005838	-0.002011
O4	O	0.924473	0.159942	-0.003071
O5	O	0.930912	-0.000566	0.141328
O6	O	0.809580	0.086640	0.132268
O7	O	1.038443	0.078007	0.149328
Cu8	Cu	0.923339	0.082805	0.153886
Cu9	Cu	0.932046	0.076571	-0.015629
O10	O	0.917111	0.165213	0.140268
C11	C	0.783987	0.083574	0.058417
C12	C	0.696758	0.082286	0.051916
C13	C	0.651769	0.084553	0.126997
C14	C	0.569810	0.083334	0.120891
C15	C	0.532841	0.079852	0.039702
C16	C	0.577836	0.077583	-0.035385
C17	C	0.659794	0.078798	-0.029278
C18	C	0.285581	0.076035	0.017354
C19	C	0.203617	0.074822	0.011252
C20	C	0.195597	0.080572	0.167529
C21	C	0.277556	0.081790	0.173629
C22	C	0.322545	0.079518	0.098542
C23	C	0.449065	0.078607	0.033459
C24	C	0.406319	0.080759	0.104786
C25	C	0.934242	-0.024420	0.069635
C26	C	0.933185	-0.087643	0.069563
C27	C	0.998361	-0.486358	0.074374
C28	C	0.997380	-0.545764	0.074294
O29	O	1.057798	-0.582148	0.078766
N30	N	0.925247	-0.568822	0.068918
C31	C	0.854092	-0.532471	0.063612
O32	O	0.792648	-0.557538	0.059031
C33	C	0.855075	-0.473066	0.063686
C34	C	0.927211	-0.450011	0.069071
C35	C	1.070492	-0.463303	0.079757
C36	C	1.071473	-0.403900	0.079839
C37	C	1.000323	-0.367553	0.074536
C38	C	0.928192	-0.390608	0.069152
C39	C	0.783921	-0.436715	0.058374
C40	C	0.784909	-0.377307	0.058448
C41	C	0.857046	-0.354252	0.063833
C42	C	0.858023	-0.294859	0.063931
N43	N	0.930155	-0.271801	0.069307
C44	C	1.001305	-0.308148	0.074610
C45	C	0.852034	-0.657226	0.063457
C46	C	0.851051	-0.716629	0.063389
C47	C	0.994339	-0.729919	0.074069
C48	C	0.995321	-0.670514	0.074143
C49	C	0.924167	-0.634168	0.068833
C50	C	1.003360	-0.183398	0.074781
C51	C	1.004334	-0.123990	0.074865
C52	C	0.861047	-0.110706	0.064181
C53	C	0.860072	-0.170109	0.064101
C54	C	0.931235	-0.206454	0.069398
O55	O	0.797636	-0.258440	0.059458
O56	O	1.062740	-0.283073	0.079179
C57	C	1.071399	0.075801	0.079838
C58	C	1.158628	0.077089	0.086334
C59	C	0.921144	0.183796	0.068621
C60	C	0.922201	0.247018	0.068687
N61	N	0.917221	0.087189	0.273114
N62	N	0.938171	0.072182	-0.134856
C63	C	0.968651	0.050250	0.322231
C64	C	0.964031	0.053571	0.412459
C65	C	0.907984	0.093834	0.453568
C66	C	0.856548	0.130774	0.404445
C67	C	0.861165	0.127450	0.314218
C68	C	0.891352	0.105799	0.725793
C69	C	0.886741	0.109121	0.816027
C70	C	0.994223	0.031917	0.824035
C71	C	0.998838	0.028599	0.733806
C72	C	0.947400	0.065537	0.684690
C73	C	0.903262	0.097230	0.545796
C74	C	0.952118	0.062137	0.592464
H75	H	0.158958	0.082420	0.228661
H76	H	0.792309	-0.735394	0.059019
Br77	Br	0.821546	0.155929	0.659141
Br78	Br	0.508754	0.086420	0.222793
Br79	Br	0.762171	-0.201398	0.056812
Br80	Br	1.044725	-0.004391	0.266450
H81	H	0.841098	0.141910	0.849493
Br82	Br	1.099939	-0.232715	0.081970
Br83	Br	1.074905	-0.026042	0.678014
H84	H	0.819284	0.157529	0.274228
H85	H	0.810909	0.163555	0.437921
H86	H	0.681862	0.087393	0.193110
H87	H	0.794088	-0.627635	0.059140
H88	H	1.036101	0.001843	0.864033
Br89	Br	0.398892	0.073852	-0.076723
Br90	Br	1.090900	-0.779258	0.081262
H91	H	0.997749	0.029353	0.558990
H92	H	0.307651	0.084623	0.239742
H93	H	0.857628	0.130014	0.579275
H94	H	0.696423	0.076954	-0.090418
H95	H	0.726965	-0.347716	0.054122
H96	H	1.005909	0.023492	0.452450
Br97	Br	0.153443	0.070100	-0.098940
H98	H	0.436424	0.083591	0.170890
Br99	Br	0.764491	-0.061367	0.056985
Br100	Br	0.527669	0.072833	-0.145571
Br101	Br	1.102240	-0.092706	0.082175
Br102	Br	1.167066	-0.512621	0.086954
Br103	Br	1.169379	-0.372622	0.087123
Br104	Br	1.093224	-0.639232	0.081453
H105	H	0.725180	-0.455476	0.053984
H106	H	0.322202	0.074184	-0.043788
