data_functionalizedCrystal
_audit_creation_method	'MofGen! by Chris Wilmer'
_symmetry_space_group_name_H-M	'P1'
_symmetry_Int_Tables_number	1
_symmetry_cell_setting	triclinic
loop_
_symmetry_equiv_pos_as_xyz
  x,y,z
_cell_length_a	19.188930
_cell_length_b	10.654550
_cell_length_c	9.130313
_cell_angle_alpha	89.997153
_cell_angle_beta	89.982405
_cell_angle_gamma	83.814855
loop_
_atom_site_label
_atom_site_type_symbol
_atom_site_fract_x
_atom_site_fract_y
_atom_site_fract_z
O1	O	-0.927170	-0.156777	0.122270
O2	O	-0.723996	-0.177882	0.122170
O3	O	-0.830254	0.015509	0.122213
O4	O	-0.820912	-0.350168	0.122227
O5	O	-0.830246	0.015508	-0.121386
O6	O	-0.723988	-0.177882	-0.121429
O7	O	-0.927162	-0.156777	-0.121329
Cu8	Cu	-0.825574	-0.167330	-0.143621
Cu9	Cu	-0.825584	-0.167329	0.144463
O10	O	-0.820904	-0.350168	-0.121372
C11	C	-0.697977	-0.177199	0.000358
C12	C	-0.620459	-0.175147	0.000319
C13	C	-0.829564	0.062292	0.000414
C14	C	-0.827512	0.201692	0.000415
C15	C	-0.953181	-0.157460	0.000487
C16	C	-1.030699	-0.159512	0.000535
C17	C	-0.576277	-0.288622	0.000346
C18	C	-0.503441	-0.286695	0.000362
C19	C	-0.474789	-0.171286	0.000381
C20	C	-0.518981	-0.057795	0.000345
C21	C	-0.591816	-0.059726	0.000314
N22	N	-0.366235	-0.083070	0.083343
N23	N	-0.297044	-0.081243	0.083376
C24	C	-0.255343	-0.165461	0.000470
N25	N	-0.285444	-0.251594	-0.082451
N26	N	-0.354641	-0.253424	-0.082477
C27	C	-0.395813	-0.169179	0.000413
C28	C	-0.132183	-0.276855	0.000512
C29	C	-0.059345	-0.274922	0.000519
C30	C	-0.074887	-0.046020	0.000517
C31	C	-0.147723	-0.047955	0.000495
C32	C	-0.176366	-0.163376	0.000500
N33	N	-0.825573	-0.167329	-0.346244
C34	C	-0.821594	-0.396951	0.000430
C35	C	-0.823646	-0.536351	0.000439
C36	C	-0.890075	0.282501	0.000447
C37	C	-0.888142	0.413481	0.000464
C38	C	-0.761078	0.382829	0.000412
C39	C	-0.763011	0.251852	0.000405
C40	C	-0.868284	-0.243307	-0.422865
C41	C	-0.868295	-0.243300	-0.576202
C42	C	-0.782878	-0.091333	-0.576283
C43	C	-0.782871	-0.091335	-0.422949
N44	N	-0.825591	-0.167320	0.347085
H45	H	-0.599593	-0.382607	0.000353
H46	H	-0.712062	0.186053	0.000384
N47	N	-0.458297	-0.402610	0.000370
N48	N	-0.461196	-0.479466	-0.102308
H49	H	-0.429315	-0.561331	-0.102303
H50	H	-0.627789	0.032682	0.000293
H51	H	-0.939088	0.479272	0.000493
N52	N	-0.695203	0.434096	0.000370
N53	N	-0.679951	0.503771	-0.102322
H54	H	-0.633426	0.539979	-0.102357
N55	N	-0.911908	-0.320902	-0.344490
N56	N	-0.911899	-0.320893	-0.207586
H57	H	-0.942712	-0.375693	-0.152233
N58	N	-0.161458	-0.394737	0.000484
N59	N	-0.226490	-0.396446	0.000460
H60	H	-0.247165	-0.479701	0.000438
N61	N	-0.911932	-0.320911	-0.654446
N62	N	-0.950056	-0.388747	-0.585935
H63	H	-0.980878	-0.443561	-0.641193
H64	H	-0.023373	-0.367332	0.000533
N65	N	-0.739267	-0.013716	-0.654660
N66	N	-0.739279	-0.013722	-0.791564
H67	H	-0.708477	0.041096	-0.846919
H68	H	-0.183697	0.044449	0.000481
N69	N	-0.489706	0.060082	0.000349
N70	N	-0.424675	0.061791	0.000377
H71	H	-0.403999	0.145046	0.000372
N72	N	-0.045632	0.071872	0.000497
N73	N	-0.006704	0.098483	-0.102182
H74	H	0.013959	0.181749	-0.102207
N75	N	-0.955964	0.231283	0.000453
N76	N	-1.011818	0.303456	0.000480
H77	H	-1.058355	0.267288	0.000485
N78	N	-0.739241	-0.013702	-0.344694
N79	N	-0.701116	0.054139	-0.413194
H80	H	-0.670306	0.108970	-0.357927
