data_functionalizedCrystal
_audit_creation_method	'MofGen! by Chris Wilmer'
_symmetry_space_group_name_H-M	'P1'
_symmetry_Int_Tables_number	1
_symmetry_cell_setting	triclinic
loop_
_symmetry_equiv_pos_as_xyz
  x,y,z
_cell_length_a	13.031981
_cell_length_b	13.033652
_cell_length_c	12.759393
_cell_angle_alpha	97.151529
_cell_angle_beta	97.216555
_cell_angle_gamma	74.807250
loop_
_atom_site_label
_atom_site_type_symbol
_atom_site_fract_x
_atom_site_fract_y
_atom_site_fract_z
Zn1	Zn	-0.216385	-1.570132	0.366219
Zn2	Zn	0.283615	-1.070132	0.866219
Zn3	Zn	-0.394080	-1.547463	0.170717
Zn4	Zn	0.105920	-1.047463	0.670717
Zn5	Zn	-0.239025	-1.392504	0.210303
Zn6	Zn	0.260975	-0.892504	0.710303
Zn7	Zn	-0.416577	-1.369953	0.366106
Zn8	Zn	0.083423	-0.869953	0.866106
O9	O	-0.316517	-1.470013	0.278336
O10	O	0.183483	-0.970013	0.778336
O11	O	-0.221066	-1.715752	0.323766
O12	O	0.278934	-1.215752	0.823766
O13	O	-0.373572	-1.526858	0.028946
O14	O	0.126428	-1.026858	0.528946
O15	O	-0.087350	-1.434992	0.247600
O16	O	0.412650	-0.934992	0.747600
O17	O	-0.351618	-1.699097	0.180131
O18	O	0.148382	-1.199097	0.680131
O19	O	-0.070716	-1.565495	0.362151
O20	O	0.429284	-1.065495	0.862151
O21	O	-0.259654	-1.413010	0.058029
O22	O	0.240346	-0.913010	0.558029
O23	O	-0.281468	-1.240886	0.247490
O24	O	0.218532	-0.740886	0.747490
O25	O	-0.389961	-1.396557	0.513143
O26	O	0.110039	-0.896557	1.013143
O27	O	-0.411915	-1.224317	0.361957
O28	O	0.088085	-0.724317	0.861957
O29	O	-0.242880	-1.543628	0.513227
O30	O	0.257120	-1.043628	1.013227
O31	O	-0.545736	-1.504991	0.180021
O32	O	-0.045736	-1.004991	0.680021
O33	O	-0.562265	-1.374575	0.323573
O34	O	-0.062265	-0.874575	0.823573
C35	C	-0.351591	-1.194064	0.309007
C36	C	0.148409	-0.694064	0.809007
C37	C	-0.366621	-1.076009	0.322151
C38	C	0.133379	-0.576009	0.822151
C39	C	-0.308683	-1.031558	0.271487
C40	C	0.191317	-0.531558	0.771487
C41	C	-0.324216	-0.909542	0.285070
C42	C	0.175784	-0.409542	0.785070
C43	C	-0.592546	-1.434904	0.247509
C44	C	-0.092546	-0.934904	0.747509
C45	C	-0.710620	-1.419982	0.234345
C46	C	-0.210620	-0.919982	0.734345
C47	C	-0.754953	-1.477857	0.285221
C48	C	-0.254953	-0.977857	0.785221
C49	C	-0.876989	-1.462436	0.271617
C50	C	-0.376989	-0.962436	0.771617
C51	C	-0.039406	-1.505287	0.309304
C52	C	0.460594	-1.005287	0.809304
C53	C	0.078682	-1.520319	0.322500
C54	C	0.578682	-1.020319	0.822500
C55	C	-0.316405	-1.470105	0.552372
C56	C	0.183595	-0.970105	1.052372
C57	C	-0.316357	-1.470145	0.669150
C58	C	0.183643	-0.970145	1.169150
C59	C	-0.281299	-0.747040	0.247540
C60	C	0.218701	-0.247040	0.747540
C61	C	-0.266270	-0.865095	0.234400
C62	C	0.233730	-0.365095	0.734400
C63	C	-0.316544	-1.469992	0.005368
C64	C	0.183456	-0.969992	0.505368
C65	C	-0.316266	-1.470196	-0.111399
C66	C	0.183734	-0.970196	0.388601
C67	C	-0.239761	-1.546731	0.724058
C68	C	0.260239	-1.046731	1.224058
C69	C	-0.239712	-1.546755	0.833785
C70	C	0.260288	-1.046755	1.333785
C71	C	-0.392867	-1.393602	0.833686
C72	C	0.107133	-0.893602	1.333686
C73	C	-0.392909	-1.393574	0.723962
C74	C	0.107091	-0.893574	1.223962
H75	H	-0.205167	-0.917367	0.180962
H76	H	0.294833	-0.417367	0.680962
H77	H	-0.427726	-1.023732	0.375578
H78	H	0.072274	-0.523732	0.875578
Br79	Br	-0.135762	-1.650705	0.908297
Br80	Br	0.364238	-1.150705	1.408297
Br81	Br	-0.496757	-1.289693	0.908080
Br82	Br	0.003243	-0.789693	1.408080
Br83	Br	-0.667643	-1.579461	0.374626
Br84	Br	-0.167643	-1.079461	0.874626
Br85	Br	-0.496861	-1.289619	0.649440
Br86	Br	0.003139	-0.789619	1.149440
Br87	Br	-0.206844	-1.118678	0.182421
Br88	Br	0.293156	-0.618678	0.682421
Br89	Br	-0.964298	-1.360804	0.182235
Br90	Br	-0.464298	-0.860804	0.682235
H91	H	-0.385326	-0.857269	0.338501
H92	H	0.114674	-0.357269	0.838501
H93	H	-0.868931	-1.581286	0.376137
H94	H	-0.368931	-1.081286	0.876137
H95	H	-0.763012	-1.359011	0.180722
H96	H	-0.263012	-0.859011	0.680722
Br97	Br	-0.135867	-1.650646	0.649673
Br98	Br	0.364133	-1.150646	1.149673
