data_functionalizedCrystal
_audit_creation_method	'MofGen! by Chris Wilmer'
_symmetry_space_group_name_H-M	'P1'
_symmetry_Int_Tables_number	1
_symmetry_cell_setting	triclinic
loop_
_symmetry_equiv_pos_as_xyz
  x,y,z
_cell_length_a	19.188924
_cell_length_b	19.188905
_cell_length_c	18.266242
_cell_angle_alpha	89.983837
_cell_angle_beta	89.991576
_cell_angle_gamma	83.138260
loop_
_atom_site_label
_atom_site_type_symbol
_atom_site_fract_x
_atom_site_fract_y
_atom_site_fract_z
O1	O	0.087086	0.926158	-0.061005
O2	O	0.098838	0.722844	-0.060980
O3	O	-0.008694	0.830371	-0.060985
O4	O	0.194619	0.818632	-0.061001
O5	O	-0.008700	0.830353	0.060777
O6	O	0.098833	0.722826	0.060782
O7	O	0.087080	0.926140	0.060757
Zn8	Zn	0.092956	0.824480	0.080102
Zn9	Zn	0.092963	0.824504	-0.080325
O10	O	0.194613	0.818613	0.060761
C11	C	0.098458	0.696824	-0.000096
C12	C	0.097324	0.619318	-0.000086
C13	C	-0.034708	0.829982	-0.000103
C14	C	-0.112213	0.828844	-0.000101
C15	C	0.096783	0.582937	-0.066461
C16	C	0.095710	0.510113	-0.066470
C17	C	0.095164	0.473676	-0.000101
C18	C	0.095710	0.510066	0.066282
C19	C	0.096790	0.582887	0.066290
N20	N	0.053733	0.364649	0.049295
N21	N	0.052706	0.295472	0.049283
C22	C	0.091911	0.254269	-0.000118
N23	N	0.132175	0.284858	-0.049519
N24	N	0.133199	0.354041	-0.049510
C25	C	0.093993	0.394713	-0.000101
C26	C	0.090207	0.138924	-0.066507
C27	C	0.089139	0.066098	-0.066513
C28	C	0.089132	0.066054	0.066241
C29	C	0.090208	0.138877	0.066245
C30	C	0.090742	0.175308	-0.000131
C31	C	-0.148609	0.828322	-0.066473
C32	C	-0.221431	0.827242	-0.066479
C33	C	-0.257857	0.826698	-0.000108
C34	C	-0.221452	0.827216	0.066273
C35	C	-0.148630	0.828289	0.066277
N36	N	-0.377526	0.864739	0.049286
N37	N	-0.446704	0.863721	0.049278
C38	C	-0.477266	0.823464	-0.000115
N39	N	-0.436038	0.784271	-0.049510
N40	N	-0.366853	0.785292	-0.049504
C41	C	-0.336821	0.825534	-0.000104
C42	C	-0.592624	0.821770	-0.066498
C43	C	-0.665448	0.820686	-0.066500
C44	C	-0.665468	0.820666	0.066254
C45	C	-0.592645	0.821744	0.066255
C46	C	-0.556228	0.822299	-0.000123
C47	C	0.220627	0.819002	-0.000122
C48	C	0.298132	0.820141	-0.000129
C49	C	0.087461	0.952160	-0.000129
C50	C	0.088594	1.029666	-0.000143
N51	N	0.092950	0.824469	0.189589
N52	N	0.092963	0.824521	-0.189812
C53	C	0.045358	0.872097	0.227896
C54	C	0.045355	0.872102	0.304541
C55	C	0.092956	0.824484	0.342876
C56	C	0.140552	0.776847	0.304559
C57	C	0.140549	0.776839	0.227916
N58	N	0.154764	0.815407	0.463204
N59	N	0.154765	0.815419	0.536012
C60	C	0.092966	0.824504	0.573798
N61	N	0.031165	0.833591	0.536025
N62	N	0.031165	0.833583	0.463211
C63	C	0.092964	0.824487	0.425983
C64	C	0.045366	0.872140	0.695212
C65	C	0.045362	0.872139	0.771858
C66	C	0.140565	0.776888	0.771876
C67	C	0.140563	0.776885	0.695231
C68	C	0.092964	0.824515	0.656904
H69	H	0.097218	0.612594	-0.120509
H70	H	0.006598	0.910888	0.335736
H71	H	0.095267	0.480394	0.120321
Br72	Br	0.094976	0.460726	-0.156556
H73	H	0.179320	0.738105	0.664039
H74	H	0.097231	0.612509	0.120341
Br75	Br	-0.019233	0.936777	0.643195
H76	H	0.090650	0.168586	-0.120554
Br77	Br	-0.099188	0.829072	-0.156557
H78	H	-0.562972	0.822218	-0.120546
Br79	Br	0.205143	0.712195	0.175923
Br80	Br	0.088413	0.016720	-0.156601
Br81	Br	-0.019239	0.936777	0.823851
Br82	Br	0.088402	0.016610	0.156316
H83	H	0.006599	0.910878	0.196692
H84	H	0.179320	0.738115	0.803088
Br85	Br	0.090941	0.188256	0.156330
H86	H	-0.251114	0.826770	0.120313
H87	H	0.179308	0.738075	0.335776
Br88	Br	-0.270837	0.826532	-0.156562
Br89	Br	-0.099231	0.828993	0.156361
Br90	Br	-0.714894	0.819921	0.156331
Br91	Br	-0.543247	0.822448	0.156337
Br92	Br	-0.714843	0.819970	-0.156586
