data_functionalizedCrystal
_audit_creation_method	'MofGen! by Chris Wilmer'
_symmetry_space_group_name_H-M	'P1'
_symmetry_Int_Tables_number	1
_symmetry_cell_setting	triclinic
loop_
_symmetry_equiv_pos_as_xyz
  x,y,z
_cell_length_a	17.019383
_cell_length_b	17.038272
_cell_length_c	16.098524
_cell_angle_alpha	92.876406
_cell_angle_beta	96.939080
_cell_angle_gamma	87.246883
loop_
_atom_site_label
_atom_site_type_symbol
_atom_site_fract_x
_atom_site_fract_y
_atom_site_fract_z
O1	O	1.060396	0.106195	0.145233
O2	O	1.560396	0.606195	0.645233
O3	O	0.830788	0.118143	0.128783
O4	O	1.330788	0.618143	0.628783
O5	O	0.944227	-0.001650	0.136904
O6	O	1.444227	0.498350	0.636904
O7	O	0.946957	0.225988	0.137112
O8	O	1.446957	0.725988	0.637112
O9	O	0.937477	-0.007909	-0.002094
O10	O	1.437477	0.492091	0.497906
O11	O	0.824038	0.111884	-0.010214
O12	O	1.324038	0.611884	0.489786
O13	O	1.053646	0.099936	0.006235
O14	O	1.553646	0.599936	0.506235
Zn15	Zn	0.937770	0.104916	-0.024058
Zn16	Zn	1.437770	0.604916	0.475942
Zn17	Zn	0.946664	0.113163	0.159077
Zn18	Zn	1.446664	0.613163	0.659077
O19	O	0.940207	0.219729	-0.001885
O20	O	1.440207	0.719729	0.498115
C21	C	0.797889	0.114435	0.057170
C22	C	1.297889	0.614435	0.557170
C23	C	0.709917	0.112702	0.050867
C24	C	1.209917	0.612702	0.550867
C25	C	0.672259	0.115302	0.123668
C26	C	1.172259	0.615302	0.623668
C27	C	0.589599	0.113686	0.117733
C28	C	1.089599	0.613686	0.617733
C29	C	0.544598	0.109464	0.038998
C30	C	1.044598	0.609464	0.538998
C31	C	0.582261	0.106867	-0.033808
C32	C	1.082261	0.606867	0.466192
C33	C	0.664919	0.108489	-0.027873
C34	C	1.164919	0.608489	0.472127
C35	C	0.294838	0.104402	0.017288
C36	C	0.794838	0.604402	0.517288
C37	C	0.212174	0.102778	0.011358
C38	C	0.712174	0.602778	0.511358
C39	C	0.219518	0.109598	0.162900
C40	C	0.719518	0.609598	0.662900
C41	C	0.302178	0.111215	0.168828
C42	C	0.802178	0.611215	0.668828
C43	C	0.339834	0.108621	0.096022
C44	C	0.839834	0.608621	0.596022
C45	C	0.460106	0.107810	0.032931
C46	C	0.960106	0.607810	0.532931
C47	C	0.424324	0.110282	0.102091
C48	C	0.924324	0.610282	0.602091
C49	C	0.938369	-0.033914	0.067227
C50	C	1.438369	0.466086	0.567227
C51	C	0.930963	-0.120725	0.066697
C52	C	1.430963	0.379275	0.566697
C53	C	0.998959	-0.170674	0.071567
C54	C	1.498959	0.329326	0.571567
C55	C	0.991996	-0.252241	0.071076
C56	C	1.491996	0.247759	0.571076
C57	C	0.917036	-0.283857	0.065709
C58	C	1.417036	0.216143	0.565709
C59	C	0.849036	-0.233901	0.060841
C60	C	1.349036	0.266099	0.560841
C61	C	0.856000	-0.152336	0.061338
C62	C	1.356000	0.347664	0.561338
C63	C	0.892434	-0.529674	0.063958
C64	C	1.392434	-0.029674	0.563958
C65	C	0.885475	-0.611247	0.063459
C66	C	1.385475	-0.111247	0.563459
C67	C	1.028436	-0.629581	0.073696
C68	C	1.528436	-0.129581	0.573696
C69	C	1.035393	-0.548013	0.074187
C70	C	1.535393	-0.048013	0.574187
C71	C	0.967393	-0.498064	0.069324
C72	C	1.467393	0.001936	0.569324
C73	C	0.909917	-0.367232	0.065204
C74	C	1.409917	0.132768	0.565204
C75	C	0.974513	-0.414690	0.069834
C76	C	1.474513	0.085310	0.569834
C77	C	1.086545	0.103644	0.077851
C78	C	1.586545	0.603644	0.577851
C79	C	1.174517	0.105377	0.084159
C80	C	1.674517	0.605377	0.584159
C81	C	0.946064	0.251993	0.067793
C82	C	1.446064	0.751993	0.567793
C83	C	0.953470	0.338804	0.068329
C84	C	1.453470	0.838804	0.568329
N85	N	0.931706	0.099287	-0.149043
N86	N	1.431706	0.599287	0.350957
C87	C	0.980783	0.144878	-0.189105
C88	C	1.480783	0.644878	0.310895
C89	C	0.976551	0.140936	-0.276598
C90	C	1.476551	0.640936	0.223402
C91	C	0.923238	0.091405	-0.324027
C92	C	1.423238	0.591405	0.175973
C93	C	0.874159	0.045809	-0.283958
C94	C	1.374159	0.545809	0.216042
C95	C	0.878396	0.049748	-0.196466
C96	C	1.378396	0.549748	0.303534
C97	C	0.907890	0.077129	-0.588378
C98	C	1.407890	0.577129	-0.088378
C99	C	0.903656	0.073195	-0.675875
C100	C	1.403656	0.573195	-0.175875
C101	C	1.006050	0.168321	-0.668510
C102	C	1.506050	0.668321	-0.168510
C103	C	1.010278	0.172259	-0.581017
C104	C	1.510278	0.672259	-0.081017
C105	C	0.961202	0.126659	-0.540956
C106	C	1.461202	0.626659	-0.040956
C107	C	0.918910	0.087376	-0.413458
C108	C	1.418910	0.587376	0.086542
C109	C	0.965535	0.130685	-0.451525
C110	C	1.465535	0.630685	0.048475
N111	N	0.952733	0.118786	0.284062
N112	N	1.452733	0.618786	0.784062
H113	H	0.460967	0.113723	0.166197
H114	H	0.960967	0.613723	0.666197
H115	H	1.096433	-0.522277	0.078558
H116	H	1.596433	-0.022277	0.578558
N117	N	0.768186	-0.268001	0.055044
N118	N	1.268186	0.231999	0.555044
H119	H	0.726168	-0.223978	0.052035
H120	H	1.226168	0.276022	0.552035
H121	H	0.764683	-0.299122	0.106140
H122	H	1.264683	0.200878	0.606140
N123	N	0.819093	-0.475808	0.058707
N124	N	1.319093	0.024192	0.558707
H125	H	0.789136	-0.483678	0.107907
H126	H	1.289136	0.016322	0.607907
H127	H	0.784190	-0.488347	0.004825
H128	H	1.284190	0.011653	0.504825
N129	N	1.029520	0.190070	-0.319807
N130	N	1.529520	0.690070	0.180193
H131	H	1.063945	0.222036	-0.276485
H132	H	1.563945	0.722036	0.223515
H133	H	0.995858	0.226576	-0.358420
H134	H	1.495858	0.726576	0.141580
N135	N	1.065333	-0.306117	0.076322
N136	N	1.565333	0.193883	0.576322
H137	H	1.100303	-0.293605	0.130168
H138	H	1.600303	0.206395	0.630168
H139	H	1.095221	-0.298229	0.027076
H140	H	1.595221	0.201771	0.527076
H141	H	0.545614	0.103434	-0.097916
H142	H	1.045614	0.603434	0.402084
H143	H	1.053693	0.212589	-0.542406
H144	H	1.553693	0.712589	-0.042406
H145	H	0.558942	0.115802	0.177015
H146	H	1.058942	0.615802	0.677015
N147	N	0.825466	0.000570	-0.153254
N148	N	1.325466	0.500570	0.346746
H149	H	0.768175	0.015148	-0.172534
H150	H	1.268175	0.515148	0.327466
H151	H	0.836309	0.010599	-0.090642
H152	H	1.336309	0.510599	0.409358
N153	N	0.804622	-0.645350	0.057671
N154	N	1.304622	-0.145350	0.557671
H155	H	0.762600	-0.601331	0.054667
H156	H	1.262600	-0.101331	0.554667
H157	H	0.801129	-0.676472	0.108769
H158	H	1.301129	-0.176472	0.608769
N159	N	0.782663	-0.098457	0.056090
N160	N	1.282663	0.401543	0.556090
H161	H	0.734119	-0.130861	0.052613
H162	H	1.234119	0.369139	0.552613
H163	H	0.779933	-0.066537	0.004547
H164	H	1.279933	0.433463	0.504547
N165	N	0.705542	0.105681	-0.106391
N166	N	1.205542	0.605681	0.393609
H167	H	0.736521	0.154633	-0.107526
H168	H	1.236521	0.654633	0.392474
H169	H	0.664449	0.102730	-0.157127
H170	H	1.164449	0.602730	0.342873
H171	H	0.423457	0.104370	-0.031176
H172	H	0.923457	0.604370	0.468824
N173	N	0.846159	0.019760	-0.727030
N174	N	1.346159	0.519760	-0.227030
H175	H	0.850923	0.024188	-0.788534
H176	H	1.350923	0.524188	-0.288534
H177	H	0.790371	0.035732	-0.715796
H178	H	1.290371	0.535732	-0.215796
N179	N	1.058980	0.217499	-0.711718
N180	N	1.558980	0.717499	-0.211718
H181	H	1.048210	0.207490	-0.774340
H182	H	1.548210	0.707490	-0.274340
H183	H	1.116247	0.202895	-0.692366
H184	H	1.616247	0.702895	-0.192366
N185	N	0.854961	0.027948	-0.545175
N186	N	1.354961	0.527948	-0.045175
H187	H	0.820544	-0.004023	-0.588499
H188	H	1.320544	0.495977	-0.088499
H189	H	0.820317	0.063568	-0.511483
H190	H	1.320317	0.563568	-0.011483
H191	H	0.848884	-0.392983	0.060833
H192	H	1.348884	0.107017	0.560833
N193	N	1.055361	-0.380596	0.075616
N194	N	1.555361	0.119404	0.575616
H195	H	1.063943	-0.344837	0.127574
H196	H	1.563943	0.155163	0.627574
H197	H	1.058868	-0.349529	0.024482
H198	H	1.558868	0.150471	0.524482
H199	H	1.008945	0.171010	-0.412905
H200	H	1.508945	0.671010	0.087095
N201	N	0.720791	0.119860	0.208591
N202	N	1.220791	0.619860	0.708591
H203	H	0.778870	0.120492	0.201307
H204	H	1.278870	0.620492	0.701307
H205	H	0.711093	0.072636	0.240865
H206	H	1.211093	0.572636	0.740865
H207	H	0.830754	0.005476	-0.322581
H208	H	1.330754	0.505476	0.177419
N209	N	0.861403	0.033968	-0.464625
N210	N	1.361403	0.533968	0.035375
H211	H	0.805588	0.049925	-0.453463
H212	H	1.305588	0.549925	0.046537
H213	H	0.873985	-0.022184	-0.448542
H214	H	1.373985	0.477816	0.051458
N215	N	0.178901	0.112409	0.241420
N216	N	0.678901	0.612409	0.741420
H217	H	0.219952	0.115331	0.292198
H218	H	0.719952	0.615331	0.792198
H219	H	0.147915	0.063454	0.242486
H220	H	0.647915	0.563454	0.742486
N221	N	1.038282	0.198304	-0.137954
N222	N	1.538282	0.698304	0.362046
H223	H	1.068731	0.226586	-0.176613
H224	H	1.568731	0.726586	0.323387
H225	H	1.076440	0.165949	-0.099042
H226	H	1.576440	0.665949	0.400958
H227	H	0.338814	0.114647	0.232943
H228	H	0.838814	0.614647	0.732943
H229	H	1.059999	-0.144939	0.075933
H230	H	1.559999	0.355061	0.575933
N231	N	1.101771	-0.683459	0.078943
N232	N	1.601771	-0.183459	0.578943
H233	H	1.104572	-0.715385	0.130491
H234	H	1.604572	-0.215385	0.630491
H235	H	1.150273	-0.651002	0.082383
H236	H	1.650273	-0.151002	0.582383
N237	N	0.335446	0.101608	-0.061235
N238	N	0.835446	0.601608	0.438765
H239	H	0.294393	0.098686	-0.112011
H240	H	0.794393	0.598686	0.387989
H241	H	0.372736	0.053704	-0.061856
H242	H	0.872736	0.553704	0.438144
H243	H	0.175535	0.099362	-0.052761
H244	H	0.675535	0.599362	0.447239
