data_functionalizedCrystal
_audit_creation_method	'MofGen! by Chris Wilmer'
_symmetry_space_group_name_H-M	'P1'
_symmetry_Int_Tables_number	1
_symmetry_cell_setting	triclinic
loop_
_symmetry_equiv_pos_as_xyz
  x,y,z
_cell_length_a	15.944551
_cell_length_b	15.944551
_cell_length_c	15.021413
_cell_angle_alpha	90.003065
_cell_angle_beta	89.997174
_cell_angle_gamma	83.498738
loop_
_atom_site_label
_atom_site_type_symbol
_atom_site_fract_x
_atom_site_fract_y
_atom_site_fract_z
O1	O	1.114529	0.108321	-0.073941
O2	O	0.869979	0.121677	-0.073964
O3	O	0.998932	-0.007276	-0.073944
O4	O	0.985576	0.237274	-0.073961
O5	O	0.998912	-0.007257	0.074121
O6	O	0.869959	0.121695	0.074101
O7	O	1.114508	0.108339	0.074123
Zn8	Zn	0.992230	0.115020	0.097620
Zn9	Zn	0.992257	0.114996	-0.097461
O10	O	0.985555	0.237292	0.074103
C11	C	0.838675	0.121132	0.000066
C12	C	0.745429	0.119470	0.000057
C13	C	0.530572	0.035565	0.000081
C14	C	0.469562	0.074518	-0.072926
C15	C	0.574703	0.116462	0.000068
C16	C	0.469564	0.074556	0.073054
C17	C	0.409790	0.113551	0.000083
C18	C	0.514921	0.155438	-0.072998
C19	C	0.514930	0.155464	0.073047
C20	C	0.453937	0.194476	0.000023
C21	C	0.669705	0.118137	0.000059
C22	C	0.314789	0.111883	0.000085
C23	C	0.998367	-0.038561	0.000089
C24	C	0.996705	-0.131807	0.000089
C25	C	0.912801	-0.346663	0.000069
C26	C	0.951753	-0.407672	0.073077
C27	C	0.993698	-0.302533	0.000082
C28	C	0.951792	-0.407673	-0.072903
C29	C	0.990787	-0.467445	0.000071
C30	C	1.032672	-0.362313	0.073150
C31	C	1.032700	-0.362308	-0.072895
C32	C	1.071711	-0.423298	0.000131
C33	C	0.995372	-0.207530	0.000089
C34	C	0.989119	-0.562446	0.000070
C35	C	1.145813	0.108885	0.000092
C36	C	1.239059	0.110547	0.000094
C37	C	0.986120	0.268577	0.000069
C38	C	0.987782	0.361823	0.000063
N39	N	0.992218	0.115036	0.230758
N40	N	0.992276	0.114973	-0.230598
C41	C	0.932581	0.174636	0.470432
C42	C	1.008481	0.190943	0.529772
C43	C	0.992239	0.115015	0.412365
C44	C	0.916360	0.098727	0.529766
C45	C	0.992253	0.114997	0.587789
C46	C	1.068178	0.131360	0.470398
C47	C	0.976006	0.039111	0.470387
C48	C	1.051962	0.055386	0.529701
C49	C	0.992230	0.115028	0.311307
C50	C	0.992271	0.114984	0.688844
H51	H	0.449470	0.040332	0.134773
H52	H	0.535052	0.189659	0.134767
H53	H	1.138919	-0.456457	0.000178
C54	C	0.541930	0.201609	-0.156477
C55	C	0.507064	0.294360	-0.172972
C56	C	0.534075	0.340526	-0.256450
C57	C	0.595953	0.293942	-0.323434
C58	C	0.630823	0.201186	-0.306940
C59	C	0.603811	0.155019	-0.223462
H60	H	0.461255	0.328849	-0.123385
H61	H	0.508262	0.409191	-0.268659
H62	H	0.615949	0.328117	-0.385229
H63	H	0.676631	0.166696	-0.356527
H64	H	0.629624	0.086355	-0.211253
C65	C	1.078844	-0.335306	0.156630
C66	C	1.032261	-0.273428	0.223614
C67	C	1.078428	-0.246420	0.307094
C68	C	1.171178	-0.281289	0.323589
C69	C	1.217766	-0.343170	0.256603
C70	C	1.171599	-0.370178	0.173123
H71	H	0.963597	-0.247613	0.211405
H72	H	1.043940	-0.200611	0.356682
H73	H	1.205354	-0.261296	0.385385
H74	H	1.286430	-0.368985	0.268811
H75	H	1.206087	-0.415987	0.123535
H76	H	1.066896	-0.342185	-0.134615
H77	H	0.449461	0.040295	-0.134642
H78	H	0.420779	0.261683	-0.000023
C79	C	1.027048	0.277639	0.565039
C80	C	1.110310	0.312275	0.540315
C81	C	1.128869	0.398969	0.575587
C82	C	1.064166	0.451026	0.635583
C83	C	0.980898	0.416390	0.660310
C84	C	0.962339	0.329696	0.625038
H85	H	1.158212	0.273739	0.495900
H86	H	1.190509	0.424609	0.557282
H87	H	1.077904	0.515202	0.661693
H88	H	0.932996	0.454927	0.704725
H89	H	0.900699	0.304057	0.643343
H90	H	0.962240	-0.025051	0.444283
H91	H	0.917574	-0.427758	-0.134630
H92	H	0.882181	0.225096	0.444409
H93	H	0.852184	0.084959	0.555847
H94	H	1.102474	0.004956	0.555561
H95	H	0.845652	-0.313356	0.000136
C96	C	0.575575	-0.055144	-0.000006
C97	C	0.560201	-0.115931	0.076422
C98	C	0.605205	-0.206638	0.076330
C99	C	0.665582	-0.236558	-0.000190
C100	C	0.680958	-0.175770	-0.076624
C101	C	0.635955	-0.085063	-0.076532
H102	H	0.515504	-0.093783	0.133071
H103	H	0.593822	-0.251636	0.132911
H104	H	0.698896	-0.303704	-0.000258
H105	H	0.725656	-0.197917	-0.133274
H106	H	0.647338	-0.040064	-0.133114
C107	C	0.905522	-0.434836	0.156450
C108	C	0.812512	-0.400640	0.172479
C109	C	0.766274	-0.427801	0.255847
C110	C	0.813047	-0.489158	0.323186
C111	C	0.906062	-0.523357	0.307159
C112	C	0.952299	-0.496196	0.223790
H113	H	0.777883	-0.355217	0.122629
H114	H	0.697418	-0.402484	0.267711
H115	H	0.778819	-0.509264	0.384900
H116	H	0.940690	-0.568780	0.357008
H117	H	1.021155	-0.521513	0.211926
C118	C	1.154896	0.150068	0.435326
C119	C	1.170901	0.153572	0.334366
C120	C	1.257616	0.172283	0.299292
C121	C	1.328325	0.187491	0.365178
C122	C	1.312322	0.183988	0.466144
C123	C	1.225608	0.165277	0.501218
H124	H	1.118556	0.142314	0.285588
H125	H	1.269462	0.174876	0.224550
H126	H	1.392517	0.201342	0.339214
H127	H	1.364668	0.195246	0.514922
H128	H	1.213762	0.162684	0.575960
