data_functionalizedCrystal
_audit_creation_method	'MofGen! by Chris Wilmer'
_symmetry_space_group_name_H-M	'P1'
_symmetry_Int_Tables_number	1
_symmetry_cell_setting	triclinic
loop_
_symmetry_equiv_pos_as_xyz
  x,y,z
_cell_length_a	17.077404
_cell_length_b	17.077402
_cell_length_c	17.077396
_cell_angle_alpha	90.029784
_cell_angle_beta	90.018362
_cell_angle_gamma	90.020853
loop_
_atom_site_label
_atom_site_type_symbol
_atom_site_fract_x
_atom_site_fract_y
_atom_site_fract_z
Zn1	Zn	1.200055	-0.312551	0.443812
Zn2	Zn	1.199962	-0.443826	0.312543
Zn3	Zn	1.068786	-0.312573	0.312562
Zn4	Zn	1.068754	-0.443774	0.443769
O5	O	1.134389	-0.378181	0.378171
O6	O	1.309889	-0.329977	0.426408
O7	O	1.182536	-0.426446	0.202698
O8	O	1.086252	-0.202723	0.329999
O9	O	1.309821	-0.426424	0.329966
O10	O	1.182694	-0.202707	0.426427
O11	O	1.086162	-0.330015	0.202713
O12	O	0.958935	-0.329965	0.329957
O13	O	1.086197	-0.426336	0.553622
O14	O	0.958912	-0.426357	0.426354
O15	O	1.182663	-0.329927	0.553653
O16	O	1.182504	-0.553666	0.329924
O17	O	1.086107	-0.553628	0.426335
C18	C	0.930441	-0.378159	0.378154
C19	C	0.843192	-0.378168	0.378165
C20	C	0.802238	-0.328037	0.428459
C21	C	0.720257	-0.328042	0.428463
C22	C	0.679232	-0.378183	0.378176
C23	C	0.720192	-0.428315	0.327876
C24	C	0.802171	-0.428306	0.327869
C25	C	0.549322	-0.428333	0.327895
C26	C	0.467337	-0.428344	0.327903
C27	C	0.467408	-0.328070	0.428489
C28	C	0.549387	-0.328060	0.428482
C29	C	0.590341	-0.378194	0.378183
C30	C	1.134314	-0.582129	0.378140
C31	C	1.134353	-0.669378	0.378153
C32	C	1.184598	-0.710362	0.328005
C33	C	1.184637	-0.792343	0.328025
C34	C	1.134425	-0.833338	0.378190
C35	C	1.084178	-0.792348	0.428343
C36	C	1.084144	-0.710369	0.428326
C37	C	1.084250	-0.963218	0.428372
C38	C	1.084283	-1.045203	0.428388
C39	C	1.184743	-1.045192	0.328072
C40	C	1.184709	-0.963213	0.328055
C41	C	1.134461	-0.922229	0.378207
C42	C	1.339134	-0.378204	0.378190
C43	C	1.426383	-0.378213	0.378197
C44	C	1.134437	-0.378123	0.582916
C45	C	1.134457	-0.378098	0.670166
C46	C	1.134487	-0.173436	0.378220
C47	C	1.134528	-0.086187	0.378241
C48	C	1.134387	-0.378182	0.174224
C49	C	1.134519	-0.377985	0.086974
C50	C	1.184689	-0.327894	0.711173
C51	C	1.184698	-0.327868	0.793154
C52	C	1.134479	-0.378051	0.834125
C53	C	1.084242	-0.428257	0.793112
C54	C	1.084229	-0.428279	0.711133
C55	C	1.084274	-0.428210	0.963982
C56	C	1.084288	-0.428190	1.045966
C57	C	1.184742	-0.327799	1.046003
C58	C	1.184730	-0.327821	0.964024
C59	C	1.134493	-0.378028	0.923016
H60	H	0.582664	-0.469156	0.286934
H61	H	0.433937	-0.469173	0.286955
C62	C	1.239030	-0.665716	0.273569
C63	C	1.228233	-0.585149	0.284270
C64	C	1.278357	-0.543999	0.234130
H65	H	1.291802	-0.679007	0.285059
H66	H	1.227570	-0.679154	0.220803
H67	H	1.239698	-0.571716	0.337025
H68	H	1.175471	-0.571834	0.272775
H69	H	1.266898	-0.557437	0.181364
H70	H	1.331127	-0.557297	0.245624
H71	H	1.271034	-0.489331	0.241379
H72	H	0.686783	-0.469137	0.286927
H73	H	1.043393	-0.469051	1.079323
H74	H	1.225591	-0.929835	0.287204
C75	C	1.029718	-0.482823	0.919599
C76	C	0.985764	-0.526790	0.973024
C77	C	0.935519	-0.577123	0.932167
H78	H	0.995450	-0.452904	0.887609
H79	H	1.059724	-0.517073	0.887641
H80	H	0.955760	-0.492545	1.004968
H81	H	1.020012	-0.556726	1.005015
H82	H	0.965524	-0.611373	0.900209
H83	H	0.901255	-0.547198	0.900178
H84	H	0.905695	-0.606966	0.968409
H85	H	0.686916	-0.287222	0.469419
H86	H	0.582788	-0.287236	0.469435
C87	C	0.846497	-0.482824	0.273236
C88	C	0.793025	-0.526753	0.229213
C89	C	0.833827	-0.576990	0.178882
H90	H	0.878473	-0.452837	0.239015
H91	H	0.878463	-0.517102	0.303184
H92	H	0.761071	-0.492479	0.199268
H93	H	0.761046	-0.556756	0.263414
H94	H	0.865794	-0.611268	0.208830
H95	H	0.865803	-0.546997	0.144666
H96	H	0.797553	-0.606807	0.149012
H97	H	1.043298	-0.825733	0.469191
C98	C	1.239371	-1.089826	0.273806
C99	C	1.228718	-1.170393	0.284616
C100	C	1.279073	-1.211537	0.234690
H101	H	1.228049	-1.076586	0.220986
H102	H	1.292083	-1.076331	0.285438
H103	H	1.176017	-1.183882	0.272979
H104	H	1.240046	-1.183656	0.337426
H105	H	1.331785	-1.198043	0.246322
H106	H	1.267746	-1.198291	0.181874
H107	H	1.271857	-1.266206	0.242024
C108	C	1.029648	-0.918623	0.482697
C109	C	0.979354	-0.871615	0.438199
C110	C	0.929049	-0.830516	0.488212
H111	H	0.999673	-0.954690	0.512591
H112	H	1.059620	-0.886550	0.516910
H113	H	0.949385	-0.903685	0.404000
H114	H	1.009307	-0.835533	0.408307
H115	H	0.959021	-0.798443	0.522425
H116	H	0.899080	-0.866589	0.518103
H117	H	0.894924	-0.798611	0.458028
H118	H	1.225551	-0.825708	0.287190
C119	C	1.029747	-1.089572	0.482947
C120	C	0.985756	-1.036136	0.526886
C121	C	0.935520	-1.076981	0.577163
H122	H	0.995502	-1.121605	0.452988
H123	H	1.059762	-1.121486	0.517217
H124	H	0.955744	-1.004236	0.492621
H125	H	1.019980	-1.004102	0.556860
H126	H	0.965534	-1.108894	0.611434
H127	H	0.901280	-1.109012	0.547199
H128	H	0.905671	-1.040731	0.606988
H129	H	1.043230	-0.677001	0.469162
H130	H	1.225585	-0.287032	0.677821
H131	H	1.225603	-0.286988	0.826539
H132	H	1.225626	-0.286962	0.930668
H133	H	1.225645	-0.286917	1.079396
H134	H	1.043350	-0.469114	0.826477
C135	C	0.422850	-0.273762	0.483146
C136	C	0.375778	-0.318278	0.533367
C137	C	0.334710	-0.268282	0.583722
H138	H	0.458936	-0.243886	0.513171
H139	H	0.390823	-0.239533	0.453207
H140	H	0.407803	-0.352493	0.563302
H141	H	0.339678	-0.348152	0.503363
H142	H	0.302683	-0.234053	0.553783
H143	H	0.370802	-0.238408	0.613741
H144	H	0.302762	-0.298478	0.617797
C145	C	0.846676	-0.273645	0.483187
C146	C	0.826745	-0.290825	0.560823
C147	C	0.867656	-0.240726	0.611259
H148	H	0.901378	-0.280769	0.476089
H149	H	0.833233	-0.220876	0.471841
H150	H	0.840194	-0.343581	0.572165
H151	H	0.772051	-0.283696	0.567946
H152	H	0.854213	-0.187958	0.599913
H153	H	0.922356	-0.247854	0.604154
H154	H	0.854134	-0.252371	0.663940
C155	C	1.029673	-0.482885	0.666748
C156	C	0.985716	-0.526848	0.720173
C157	C	0.935459	-0.577170	0.679316
H158	H	0.995408	-0.452957	0.634763
H159	H	1.059671	-0.517138	0.634786
H160	H	0.955720	-0.492600	0.752122
H161	H	1.019961	-0.556792	0.752160
H162	H	0.965457	-0.611423	0.647354
H163	H	0.901199	-0.547236	0.647332
H164	H	0.905633	-0.607010	0.715558
