data_functionalizedCrystal
_audit_creation_method	'MofGen! by Chris Wilmer'
_symmetry_space_group_name_H-M	'P1'
_symmetry_Int_Tables_number	1
_symmetry_cell_setting	triclinic
loop_
_symmetry_equiv_pos_as_xyz
  x,y,z
_cell_length_a	12.594517
_cell_length_b	12.594516
_cell_length_c	12.594517
_cell_angle_alpha	90.012856
_cell_angle_beta	90.008170
_cell_angle_gamma	90.015485
loop_
_atom_site_label
_atom_site_type_symbol
_atom_site_fract_x
_atom_site_fract_y
_atom_site_fract_z
Zn1	Zn	1.627119	-0.423866	0.601900
Zn2	Zn	1.627054	-0.601835	0.423928
Zn3	Zn	1.449167	-0.423869	0.423926
Zn4	Zn	1.449106	-0.601801	0.601855
O5	O	1.538111	-0.512843	0.512902
O6	O	1.776056	-0.447487	0.578311
O7	O	1.603455	-0.578243	0.274982
O8	O	1.472826	-0.274923	0.447553
O9	O	1.776008	-0.578240	0.447556
O10	O	1.603567	-0.274921	0.578309
O11	O	1.472762	-0.447492	0.274980
O12	O	1.300213	-0.447459	0.447509
O13	O	1.472721	-0.578183	0.750807
O14	O	1.300168	-0.578185	0.578233
O15	O	1.603507	-0.447454	0.750840
O16	O	1.603396	-0.750776	0.447512
O17	O	1.472658	-0.750752	0.578234
C18	C	1.261570	-0.512820	0.512866
C19	C	1.143265	-0.512836	0.512876
C20	C	1.003242	-0.441656	0.441938
C21	C	1.074077	-0.415745	0.539063
C22	C	1.074002	-0.538699	0.415762
C23	C	1.003314	-0.486917	0.610131
C24	C	1.003233	-0.609915	0.486764
C25	C	1.074036	-0.584041	0.583956
C26	C	1.538042	-0.789384	0.512892
C27	C	1.538109	-0.907689	0.512923
C28	C	1.466994	-0.976968	0.583973
C29	C	1.441084	-1.047810	0.486849
C30	C	1.564116	-1.047646	0.610063
C31	C	1.512148	-0.976974	0.415748
C32	C	1.635225	-0.976803	0.539027
C33	C	1.609352	-1.047614	0.441837
C34	C	1.815732	-0.512867	0.512938
C35	C	1.934038	-0.512877	0.512954
C36	C	1.538115	-0.512814	0.790523
C37	C	1.538116	-0.512802	0.908828
C38	C	1.538210	-0.235222	0.512936
C39	C	1.538253	-0.116917	0.512950
C40	C	1.609255	-0.441718	0.978099
C41	C	1.512162	-0.415688	1.048888
C42	C	1.635215	-0.538829	1.048839
C43	C	1.440971	-0.486722	0.978059
C44	C	1.564090	-0.609908	0.978003
C45	C	1.466930	-0.583916	1.048760
C46	C	1.538109	-0.512880	1.236361
C47	C	1.538133	-0.512847	1.118056
H48	H	0.972092	-0.691972	0.464609
Cl49	Cl	1.478132	-0.929250	0.288894
Cl50	Cl	1.478245	-0.288933	1.096966
H51	H	1.104923	-0.644254	0.644047
H52	H	1.406747	-0.945947	0.643970
H53	H	1.359022	-1.079023	0.464792
H54	H	1.669553	-1.078438	0.381694
H55	H	1.105055	-0.560555	0.333600
Cl56	Cl	0.955246	-0.348628	0.349385
H57	H	1.105176	-0.333661	0.561202
H58	H	0.972393	-0.464964	0.692316
H59	H	1.717268	-0.945593	0.561130
H60	H	1.586088	-0.691987	0.946846
H61	H	1.586054	-1.078689	0.692202
H62	H	1.669331	-0.381538	0.947070
Cl63	Cl	1.314161	-0.452630	0.930265
Cl64	Cl	1.373953	-0.676745	1.096384
Cl65	Cl	1.761983	-0.572792	1.096840
