data_functionalizedCrystal
_audit_creation_method	'MofGen! by Chris Wilmer'
_symmetry_space_group_name_H-M	'P1'
_symmetry_Int_Tables_number	1
_symmetry_cell_setting	triclinic
loop_
_symmetry_equiv_pos_as_xyz
  x,y,z
_cell_length_a	21.395362
_cell_length_b	11.169409
_cell_length_c	21.395362
_cell_angle_alpha	89.960205
_cell_angle_beta	90.043376
_cell_angle_gamma	89.956700
loop_
_atom_site_label
_atom_site_type_symbol
_atom_site_fract_x
_atom_site_fract_y
_atom_site_fract_z
Zn1	Zn	0.957870	-0.679208	-0.249122
Zn2	Zn	0.957779	-0.478499	-0.353919
Zn3	Zn	0.853086	-0.478463	-0.249188
Zn4	Zn	0.853060	-0.679064	-0.353895
O5	O	0.905448	-0.578809	-0.301531
O6	O	1.045535	-0.652659	-0.263006
O7	O	0.943864	-0.310544	-0.340063
O8	O	0.867034	-0.505138	-0.161501
O9	O	1.045469	-0.505199	-0.340000
O10	O	0.944019	-0.652625	-0.161453
O11	O	0.866947	-0.310518	-0.263118
O12	O	0.765404	-0.504998	-0.263095
O13	O	0.866990	-0.847033	-0.339960
O14	O	0.765385	-0.652379	-0.340023
O15	O	0.943993	-0.847139	-0.262984
O16	O	0.943839	-0.505059	-0.441593
O17	O	0.866902	-0.652413	-0.441576
C18	C	0.742661	-0.578669	-0.301564
C19	C	0.673020	-0.578638	-0.301594
C20	C	0.640313	-0.655265	-0.341703
C21	C	0.574877	-0.655318	-0.341688
C22	C	0.542151	-0.578724	-0.301569
C23	C	0.574866	-0.502092	-0.261452
C24	C	0.640300	-0.502050	-0.261464
C25	C	0.438427	-0.470678	-0.296541
C26	C	0.372994	-0.470719	-0.296534
C27	C	0.340331	-0.578856	-0.301528
C28	C	0.373108	-0.686957	-0.306544
C29	C	0.438542	-0.686914	-0.306556
C30	C	0.471199	-0.578762	-0.301552
C31	C	0.236671	-0.655547	-0.341623
C32	C	0.171235	-0.655603	-0.341604
C33	C	0.171224	-0.502366	-0.261371
C34	C	0.236660	-0.502321	-0.261388
C35	C	0.269379	-0.578910	-0.301517
C36	C	0.905499	-0.891851	-0.301462
C37	C	0.905520	-1.025251	-0.301432
C38	C	1.068872	-0.578949	-0.301498
C39	C	1.138513	-0.579009	-0.301484
C40	C	0.905375	-0.578751	-0.464319
C41	C	0.905401	-0.578766	-0.533960
C42	C	0.905435	-0.266984	-0.301555
C43	C	0.905535	-0.133585	-0.301408
C44	C	0.945660	-0.502276	-1.035744
C45	C	0.945637	-0.502248	-0.970309
C46	C	0.905537	-0.578895	-0.937598
C47	C	0.865447	-0.655553	-0.970328
C48	C	0.865468	-0.655570	-1.035763
C49	C	0.900529	-0.686986	-0.833889
C50	C	0.900513	-0.686970	-0.768456
C51	C	0.905471	-0.578840	-0.735777
C52	C	0.910458	-0.470722	-0.768540
C53	C	0.910478	-0.470740	-0.833974
C54	C	0.905510	-0.578884	-0.866646
C55	C	0.945529	-0.502150	-0.632103
C56	C	0.945501	-0.502120	-0.566666
C57	C	0.865315	-0.655436	-0.566687
C58	C	0.865340	-0.655455	-0.632122
C59	C	0.905450	-0.578814	-0.664826
C60	C	0.905539	-0.578893	-0.138108
C61	C	0.905578	-0.578929	-0.068466
H62	H	0.465016	-0.382614	-0.292472
Cl63	Cl	0.130117	-0.751949	-0.392028
Cl64	Cl	0.681419	-0.405711	-0.211037
H65	H	0.832702	-0.717878	-0.658765
H66	H	0.666949	-0.717631	-0.374379
H67	H	0.144579	-0.440007	-0.228703
Cl68	Cl	0.331794	-0.334824	-0.290228
H69	H	0.978139	-0.439693	-0.540023
H70	H	0.465227	-0.774933	-0.310638
Cl71	Cl	0.815076	-0.751946	-1.076901
Cl72	Cl	0.533725	-0.405808	-0.211015
Cl73	Cl	0.332053	-0.822912	-0.312820
H74	H	0.832797	-0.717958	-0.943692
Cl75	Cl	0.894249	-0.822888	-0.727276
H76	H	0.978319	-0.439865	-1.062368
Cl77	Cl	0.996027	-0.405871	-0.929163
Cl78	Cl	0.995949	-0.405796	-0.673219
Cl79	Cl	0.533752	-0.751655	-0.392115
Cl80	Cl	0.894208	-0.822919	-0.874964
Cl81	Cl	0.814896	-0.751778	-0.525571
H82	H	0.914537	-0.382707	-0.860646
Cl83	Cl	0.277779	-0.405982	-0.210963
Cl84	Cl	0.277807	-0.751835	-0.392067
H85	H	0.914496	-0.382674	-0.741933
