data_functionalizedCrystal
_audit_creation_method	'MofGen! by Chris Wilmer'
_symmetry_space_group_name_H-M	'P1'
_symmetry_Int_Tables_number	1
_symmetry_cell_setting	triclinic
loop_
_symmetry_equiv_pos_as_xyz
  x,y,z
_cell_length_a	10.654550
_cell_length_b	27.732048
_cell_length_c	9.130313
_cell_angle_alpha	89.993840
_cell_angle_beta	89.996220
_cell_angle_gamma	83.563778
loop_
_atom_site_label
_atom_site_type_symbol
_atom_site_fract_x
_atom_site_fract_y
_atom_site_fract_z
O1	O	1.664980	0.067884	-0.121937
O2	O	1.299230	0.074351	-0.121916
O3	O	1.493465	0.000792	-0.121899
O4	O	1.470746	0.141444	-0.121954
O5	O	1.493462	0.000794	0.121700
O6	O	1.299228	0.074353	0.121683
O7	O	1.664978	0.067886	0.121661
Cu8	Cu	1.482103	0.071120	0.143915
Cu9	Cu	1.482105	0.071117	-0.144169
O10	O	1.470743	0.141446	0.121645
C11	C	1.252451	0.073878	-0.000113
C12	C	1.113067	0.072457	-0.000103
C13	C	1.031761	0.115768	-0.000142
C14	C	0.900796	0.114430	-0.000166
C15	C	0.932457	0.026466	-0.000121
C16	C	1.063419	0.027805	-0.000086
C17	C	1.013480	0.166553	-0.000174
C18	C	0.882516	0.165215	-0.000199
C19	C	1.492987	-0.017217	-0.000096
C20	C	1.491551	-0.070881	-0.000084
C21	C	1.597290	-0.409038	-0.000165
C22	C	1.591962	-0.610731	-0.000185
O23	O	1.688653	-0.641384	-0.000255
N24	N	1.476789	-0.630572	-0.000177
C25	C	1.362940	-0.599986	-0.000173
O26	O	1.264856	-0.621490	-0.000182
C27	C	1.368269	-0.398294	-0.000164
C28	C	1.483449	-0.378456	-0.000157
C29	C	1.712461	-0.389199	-0.000160
C30	C	1.713792	-0.338779	-0.000147
C31	C	1.599951	-0.308197	-0.000139
C32	C	1.484780	-0.328036	-0.000144
C33	C	1.254421	-0.367709	-0.000171
C34	C	1.255764	-0.317284	-0.000172
C35	C	1.370944	-0.297446	-0.000165
C36	C	1.372271	-0.247034	-0.000123
N37	N	1.487444	-0.227193	-0.000131
C38	C	1.601284	-0.257775	-0.000139
C39	C	1.360150	-0.705877	-0.000175
C40	C	1.358817	-0.756300	-0.000175
C41	C	1.587840	-0.767041	-0.000190
C42	C	1.589171	-0.716618	-0.000180
C43	C	1.475323	-0.686036	-0.000184
C44	C	1.604070	-0.151888	-0.000111
C45	C	1.605391	-0.101463	-0.000092
C46	C	1.376369	-0.090726	-0.000085
C47	C	1.375047	-0.141147	-0.000096
C48	C	1.488908	-0.171727	-0.000114
O49	O	1.275631	-0.216352	-0.000070
O50	O	1.699354	-0.236261	-0.000163
C51	C	1.595959	-0.459458	-0.000178
C52	C	1.480788	-0.479296	-0.000183
C53	C	1.366948	-0.448715	-0.000175
C54	C	1.479455	-0.529719	-0.000183
C55	C	1.593296	-0.560301	-0.000191
C56	C	1.708469	-0.540460	-0.000199
C57	C	1.709800	-0.490040	-0.000186
C58	C	1.251774	-0.468556	-0.000167
C59	C	1.250453	-0.518976	-0.000178
C60	C	1.364293	-0.549558	-0.000186
C61	C	1.711757	0.068360	-0.000144
C62	C	1.851141	0.069780	-0.000164
C63	C	1.471221	0.159454	-0.000162
C64	C	1.472657	0.213118	-0.000183
N65	N	1.482110	0.071121	0.346538
N66	N	1.482108	0.071112	-0.346792
C67	C	1.568138	0.038560	0.423197
C68	C	1.568135	0.038554	0.576534
C69	C	1.396071	0.103675	0.576538
C70	C	1.396069	0.103678	0.423204
C71	C	1.667482	0.000964	0.423195
C72	C	1.667479	0.000959	0.576532
H73	H	1.048457	0.182723	-0.105352
O74	O	1.151114	-0.018910	-0.000027
H75	H	1.211498	-0.020399	0.099287
O76	O	1.787615	0.016553	0.360184
H77	H	1.764516	0.049441	0.291786
H78	H	1.801162	-0.565369	-0.000199
O79	O	1.834030	-0.468645	-0.000208
H80	H	1.912955	-0.498388	-0.000235
O81	O	0.821143	0.185546	0.139088
H82	H	0.894515	0.197410	0.212953
H83	H	0.839980	0.184349	-0.102160
O84	O	1.729625	-0.080065	-0.000107
H85	H	1.808558	-0.109805	-0.000137
O86	O	1.726879	-0.184864	-0.000107
H87	H	1.731782	-0.208088	-0.099399
H88	H	1.807584	-0.322632	-0.000148
O89	O	1.835256	-0.422181	-0.000148
H90	H	1.915552	-0.399906	-0.000130
O91	O	0.878911	-0.021693	-0.000108
H92	H	0.774185	-0.015349	-0.000144
H93	H	1.638442	-0.034148	0.624095
H94	H	1.763642	0.009240	0.618139
O95	O	1.051187	0.192854	0.134895
H96	H	1.097467	0.225079	0.101771
O97	O	1.713399	-0.695221	-0.000200
H98	H	1.792328	-0.724962	-0.000217
O99	O	1.710630	-0.800030	-0.000209
H100	H	1.690341	-0.838423	-0.000222
O101	O	1.234588	-0.777696	-0.000163
H102	H	1.155659	-0.747954	-0.000171
H103	H	1.267435	-0.680982	-0.000178
H104	H	1.326007	0.130188	0.360790
H105	H	1.163052	-0.292386	-0.000177
O106	O	1.130190	-0.389099	-0.000183
H107	H	1.051267	-0.359356	-0.000195
O108	O	1.250822	-0.162549	-0.000098
H109	H	1.171887	-0.132810	-0.000097
O110	O	1.253585	-0.057738	-0.000078
H111	H	1.273873	-0.019344	-0.000085
O112	O	1.126215	-0.540371	-0.000182
H113	H	1.047286	-0.510630	-0.000188
H114	H	1.159070	-0.443660	-0.000164
O115	O	1.303281	0.138793	0.659227
H116	H	1.317738	0.133323	0.778729
H117	H	1.647601	-0.036186	0.381591
