data_functionalizedCrystal
_audit_creation_method	'MofGen! by Chris Wilmer'
_symmetry_space_group_name_H-M	'P1'
_symmetry_Int_Tables_number	1
_symmetry_cell_setting	triclinic
loop_
_symmetry_equiv_pos_as_xyz
  x,y,z
_cell_length_a	9.065215
_cell_length_b	8.140239
_cell_length_c	9.065218
_cell_angle_alpha	90.001305
_cell_angle_beta	85.015325
_cell_angle_gamma	90.002779
loop_
_atom_site_label
_atom_site_type_symbol
_atom_site_fract_x
_atom_site_fract_y
_atom_site_fract_z
O1	O	-1.960402	-0.136579	-0.216334
O2	O	-1.460402	0.363421	0.283666
O3	O	-1.531117	-0.136588	-0.234085
O4	O	-1.031117	0.363412	0.265915
O5	O	-1.754633	-0.136580	-0.010567
O6	O	-1.254633	0.363420	0.489433
O7	O	-1.736886	-0.136587	-0.439852
O8	O	-1.236886	0.363413	0.060148
O9	O	-1.754617	0.136647	-0.010566
O10	O	-1.254617	0.636647	0.489434
O11	O	-1.531101	0.136639	-0.234084
O12	O	-1.031101	0.636639	0.265916
O13	O	-1.960386	0.136648	-0.216334
O14	O	-1.460386	0.636648	0.283666
Zn15	Zn	-1.745741	0.180024	-0.225209
Zn16	Zn	-1.245741	0.680024	0.274791
Zn17	Zn	-1.745762	-0.179964	-0.225210
Zn18	Zn	-1.245762	0.320036	0.274790
O19	O	-1.736870	0.136640	-0.439851
O20	O	-1.236870	0.636640	0.060149
C21	C	-1.476122	0.000025	-0.232380
C22	C	-0.976122	0.500025	0.267620
C23	C	-1.312279	0.000021	-0.227282
C24	C	-0.812279	0.500021	0.272718
N25	N	-1.745737	0.425707	-0.225207
N26	N	-1.245737	0.925707	0.274793
C27	C	-1.015381	0.000031	-0.218039
C28	C	-0.515381	0.500031	0.281961
C29	C	-1.179224	0.000021	-0.223136
C30	C	-0.679224	0.500021	0.276864
N31	N	-1.745764	0.574353	-0.225207
N32	N	-1.245764	1.074353	0.274793
C33	C	-1.752919	0.000031	0.044420
C34	C	-1.252919	0.500031	0.544420
C35	C	-1.747819	0.000023	0.208263
C36	C	-1.247819	0.500023	0.708263
C37	C	-1.738584	0.000026	-0.494838
C38	C	-1.238584	0.500026	0.005162
C39	C	-1.743683	0.000023	-0.658681
C40	C	-1.243683	0.500023	-0.158681
