data_functionalizedCrystal
_audit_creation_method	'MofGen! by Chris Wilmer'
_symmetry_space_group_name_H-M	'P1'
_symmetry_Int_Tables_number	1
_symmetry_cell_setting	triclinic
loop_
_symmetry_equiv_pos_as_xyz
  x,y,z
_cell_length_a	17.699077
_cell_length_b	27.732064
_cell_length_c	16.776229
_cell_angle_alpha	89.997427
_cell_angle_beta	89.993415
_cell_angle_gamma	82.965000
loop_
_atom_site_label
_atom_site_type_symbol
_atom_site_fract_x
_atom_site_fract_y
_atom_site_fract_z
O1	O	1.003548	0.061113	-0.066270
O2	O	1.503548	0.561113	0.433730
O3	O	0.783100	0.069068	-0.066273
O4	O	1.283100	0.569068	0.433727
O5	O	0.900164	-0.005281	-0.066275
O6	O	1.400164	0.494719	0.433725
O7	O	0.886484	0.135462	-0.066269
O8	O	1.386484	0.635462	0.433731
O9	O	0.900149	-0.005286	0.066302
O10	O	1.400149	0.494714	0.566302
O11	O	0.783084	0.069064	0.066303
O12	O	1.283084	0.569064	0.566303
O13	O	1.003533	0.061108	0.066306
O14	O	1.503533	0.561108	0.566306
Zn15	Zn	0.893306	0.065085	0.087354
Zn16	Zn	1.393306	0.565085	0.587354
Zn17	Zn	0.893326	0.065091	-0.087321
Zn18	Zn	1.393326	0.565091	0.412679
O19	O	0.886469	0.135458	0.066308
O20	O	1.386469	0.635458	0.566308
C21	C	0.754898	0.068782	0.000014
C22	C	1.254898	0.568782	0.500014
C23	C	0.670887	0.067928	0.000013
C24	C	1.170887	0.567928	0.500013
C25	C	0.631414	0.067523	0.072281
C26	C	1.131414	0.567523	0.572281
C27	C	0.552479	0.066713	0.072282
C28	C	1.052479	0.566713	0.572282
C29	C	0.513016	0.066311	0.000014
C30	C	1.013016	0.566311	0.500014
C31	C	0.552495	0.066715	-0.072260
C32	C	1.052495	0.566715	0.427740
C33	C	0.631429	0.067521	-0.072260
C34	C	1.131429	0.567521	0.427740
C35	C	0.234160	0.063462	-0.072262
C36	C	0.734160	0.563462	0.427738
C37	C	0.155219	0.062657	-0.072256
C38	C	0.655219	0.562657	0.427744
C39	C	0.155209	0.062654	0.072280
C40	C	0.655209	0.562654	0.572280
C41	C	0.234144	0.063460	0.072280
C42	C	0.734144	0.563460	0.572280
C43	C	0.273616	0.063861	0.000007
C44	C	0.773616	0.563861	0.500007
C45	C	0.359207	0.064738	0.000007
C46	C	0.859207	0.564738	0.500007
C47	C	0.427426	0.065438	0.000013
C48	C	0.927426	0.565438	0.500013
C49	C	0.899867	-0.023291	0.000011
C50	C	1.399867	0.476709	0.500011
C51	C	0.898997	-0.076949	0.000003
C52	C	1.398997	0.423051	0.500003
C53	C	0.823892	-0.454291	-0.000001
C54	C	1.323892	0.045709	0.499999
C55	C	0.827096	-0.252619	-0.000002
C56	C	1.327096	0.247381	0.499998
O57	O	0.768816	-0.221575	-0.000034
O58	O	1.268816	0.278425	0.499966
N59	N	0.896513	-0.233243	-0.000001
N60	N	1.396513	0.266757	0.499999
C61	C	0.965133	-0.264288	-0.000005
C62	C	1.465133	0.235712	0.499995
O63	O	1.024250	-0.243180	-0.000012
O64	O	1.524250	0.256820	0.499988
C65	C	0.961929	-0.465959	-0.000010
C66	C	1.461929	0.034041	0.499990
C67	C	0.892507	-0.485332	-0.000002
C68	C	1.392507	0.014668	0.499998
C69	C	0.754476	-0.473664	0.000006
C70	C	1.254476	0.026336	0.500006
C71	C	0.753676	-0.524079	0.000010
C72	C	1.253676	-0.024079	0.500010
C73	C	0.822291	-0.555121	0.000008
C74	C	1.322291	-0.055121	0.500008
C75	C	0.891707	-0.535747	0.000002
C76	C	1.391707	-0.035747	0.500002
C77	C	1.030549	-0.497003	-0.000020
C78	C	1.530549	0.002997	0.499980
C79	C	1.029741	-0.547423	-0.000023
C80	C	1.529741	-0.047423	0.499977
C81	C	0.960320	-0.566797	-0.000015
C82	C	1.460320	-0.066797	0.499985
C83	C	0.959522	-0.617203	0.000005
C84	C	1.459522	-0.117203	0.500005
N85	N	0.890105	-0.636579	0.000004
N86	N	1.390105	-0.136579	0.500004
C87	C	0.821490	-0.605538	0.000006
C88	C	1.321490	-0.105538	0.500006
C89	C	0.966811	-0.158407	-0.000001
C90	C	1.466811	0.341593	0.499999
C91	C	0.967612	-0.107990	0.000002
C92	C	1.467612	0.392010	0.500002
C93	C	0.829574	-0.096324	0.000003
C94	C	1.329574	0.403676	0.500003
C95	C	0.828774	-0.146743	0.000007
C96	C	1.328774	0.353257	0.500007
C97	C	0.897394	-0.177784	-0.000002
C98	C	1.397394	0.322216	0.499998
C99	C	0.819814	-0.711413	0.000016
C100	C	1.319814	-0.211413	0.500016
C101	C	0.819020	-0.761833	0.000024
C102	C	1.319020	-0.261833	0.500024
C103	C	0.957058	-0.773495	0.000018
C104	C	1.457058	-0.273495	0.500018
C105	C	0.957853	-0.723079	0.000014
C106	C	1.457853	-0.223079	0.500014
C107	C	0.889225	-0.692039	0.000011
C108	C	1.389225	-0.192039	0.500011
O109	O	1.017770	-0.648275	0.000029
O110	O	1.517770	-0.148275	0.500029
O111	O	0.762381	-0.626655	-0.000004
O112	O	1.262381	-0.126655	0.499996
C113	C	0.824692	-0.403876	-0.000005
C114	C	1.324692	0.096124	0.499995
C115	C	0.894108	-0.384502	-0.000012
C116	C	1.394108	0.115498	0.499988
C117	C	0.962723	-0.415543	-0.000013
C118	C	1.462723	0.084457	0.499987
C119	C	0.894909	-0.334084	-0.000009
C120	C	1.394909	0.165916	0.499991
C121	C	0.826293	-0.303043	-0.000007
C122	C	1.326293	0.196957	0.499993
C123	C	0.756876	-0.322419	-0.000008
C124	C	1.256876	0.177581	0.499992
C125	C	0.756076	-0.372834	-0.000004
C126	C	1.256076	0.127166	0.499996
C127	C	1.032140	-0.396167	-0.000013
C128	C	1.532140	0.103833	0.499987
C129	C	1.032935	-0.345752	-0.000016
C130	C	1.532935	0.154248	0.499984
C131	C	0.964319	-0.314710	-0.000014
C132	C	1.464319	0.185290	0.499986
C133	C	1.031735	0.061395	0.000017
C134	C	1.531735	0.561395	0.500017
C135	C	1.115746	0.062249	0.000013
C136	C	1.615746	0.562249	0.500013
C137	C	0.886765	0.153468	0.000020
C138	C	1.386765	0.653468	0.500020
C139	C	0.887636	0.207125	0.000022
C140	C	1.387636	0.707125	0.500022
N141	N	0.893298	0.065081	0.206565
N142	N	1.393298	0.565081	0.706565
N143	N	0.893341	0.065092	-0.206532
N144	N	1.393341	0.565092	0.293468
C145	C	0.945150	0.032172	0.248282
C146	C	1.445150	0.532172	0.748282
C147	C	0.945154	0.032172	0.331734
C148	C	1.445154	0.532172	0.831734
C149	C	0.893309	0.065083	0.373468
C150	C	1.393309	0.565083	0.873468
C151	C	0.841452	0.097993	0.331746
C152	C	1.341452	0.597993	0.831746
C153	C	0.841445	0.097991	0.248295
C154	C	1.341445	0.597991	0.748295
C155	C	0.841479	0.098002	0.668293
C156	C	1.341479	0.598002	1.168293
C157	C	0.841492	0.098003	0.751750
C158	C	1.341492	0.598003	1.251750
C159	C	0.945188	0.032184	0.751732
C160	C	1.445188	0.532184	1.251732
C161	C	0.945181	0.032181	0.668281
C162	C	1.445181	0.532181	1.168281
C163	C	0.893322	0.065090	0.626566
C164	C	1.393322	0.565090	1.126566
C165	C	0.893317	0.065089	0.536078
C166	C	1.393317	0.565089	1.036078
C167	C	0.893317	0.065086	0.463955
C168	C	1.393317	0.565086	0.963955
H169	H	0.123062	0.062325	0.131129
H170	H	0.623062	0.562325	0.631129
H171	H	0.697145	-0.539848	0.000009
H172	H	1.197145	-0.039848	0.500009
O173	O	0.117006	0.062244	-0.142533
O174	O	0.617006	0.562244	0.357467
C175	C	0.168767	0.062782	-0.206325
C176	C	0.668767	0.562782	0.293675
H177	H	0.228346	0.048058	-0.185142
H178	H	0.728346	0.548058	0.314858
H179	H	0.151040	0.039091	-0.256866
H180	H	0.651040	0.539091	0.243134
H181	H	0.168771	0.101631	-0.228550
H182	H	0.668771	0.601631	0.271450
O183	O	0.753081	-0.681335	0.000051
O184	O	1.253081	-0.181335	0.500051
C185	C	0.691649	-0.709255	0.000037
C186	C	1.191649	-0.209255	0.500037
H187	H	0.711321	-0.746904	0.025137
H188	H	1.211321	-0.246904	0.525137
H189	H	0.643604	-0.690613	0.038531
H190	H	1.143604	-0.190613	0.538531
H191	H	0.670346	-0.712825	-0.063564
H192	H	1.170346	-0.212825	0.436436
O193	O	1.033543	-0.188489	0.000033
O194	O	1.533543	0.311511	0.500033
C195	C	1.094975	-0.160569	0.000017
C196	C	1.594975	0.339431	0.500017
H197	H	1.075299	-0.122921	0.025116
H198	H	1.575299	0.377079	0.525116
H199	H	1.143013	-0.179212	0.038510
H200	H	1.643013	0.320788	0.538510
H201	H	1.116291	-0.156997	-0.063585
H202	H	1.616291	0.343003	0.436415
O203	O	0.688659	-0.391673	0.000137
O204	O	1.188659	0.108327	0.500137
C205	C	0.684057	-0.420499	0.068788
C206	C	1.184057	0.079501	0.568788
H207	H	0.723461	-0.408622	0.116782
H208	H	1.223461	0.091378	0.616782
H209	H	0.623002	-0.415905	0.091834
H210	H	1.123002	0.084095	0.591834
H211	H	0.701984	-0.460277	0.053264
H212	H	1.201984	0.039723	0.553264
H213	H	0.663566	0.067852	-0.131108
H214	H	1.163566	0.567852	0.368892
O215	O	0.995604	0.000192	0.372133
O216	O	1.495604	0.500192	0.872133
C217	C	1.041356	-0.028860	0.317403
C218	C	1.541356	0.471140	0.817403
H219	H	1.041963	-0.009044	0.257912
H220	H	1.541963	0.490956	0.757912
H221	H	1.101888	-0.036273	0.341499
H222	H	1.601888	0.463727	0.841499
H223	H	1.017215	-0.064753	0.308542
H224	H	1.517215	0.435247	0.808542
H225	H	0.987370	0.005375	0.214307
H226	H	1.487370	0.505375	0.714307
O227	O	0.669760	0.067999	0.142464
O228	O	1.169760	0.567999	0.642464
C229	C	0.706372	0.110305	0.146786
C230	C	1.206372	0.610305	0.646786
H231	H	0.676256	0.139313	0.105777
H232	H	1.176256	0.639313	0.605777
H233	H	0.704218	0.124357	0.210706
H234	H	1.204218	0.624357	0.710706
H235	H	0.768247	0.101456	0.127371
H236	H	1.268247	0.601456	0.627371
O237	O	0.272574	0.063785	0.142432
O238	O	0.772574	0.563785	0.642432
C239	C	0.327280	0.022397	0.146759
C240	C	0.827280	0.522397	0.646759
H241	H	0.342131	0.008571	0.084009
H242	H	0.842131	0.508571	0.584009
H243	H	0.380747	0.032373	0.177346
H244	H	0.880747	0.532373	0.677346
H245	H	0.303200	-0.007218	0.182419
H246	H	0.803200	0.492782	0.682419
H247	H	0.799236	0.124788	0.365731
H248	H	1.299236	0.624788	0.865731
H249	H	1.024142	-0.092221	0.000008
H250	H	1.524142	0.407779	0.500008
O251	O	0.272616	0.063838	-0.142394
O252	O	0.772616	0.563838	0.357606
C253	C	0.350746	0.064647	-0.126905
C254	C	0.850746	0.564647	0.373095
H255	H	0.364839	0.049455	-0.064799
H256	H	0.864839	0.549455	0.435201
H257	H	0.385826	0.041500	-0.173067
H258	H	0.885826	0.541500	0.326933
H259	H	0.364751	0.103640	-0.130326
H260	H	0.864751	0.603640	0.369674
H261	H	1.012923	-0.798777	0.000021
H262	H	1.512923	-0.298777	0.500021
H263	H	0.701007	-0.297136	-0.000002
H264	H	1.201007	0.202864	0.499998
O265	O	0.514247	0.066345	0.142555
O266	O	1.014247	0.566345	0.642555
C267	C	0.566006	0.066865	0.206340
C268	C	1.066006	0.566865	0.706340
H269	H	0.618962	0.082737	0.185150
H270	H	1.118962	0.582737	0.685150
H271	H	0.538114	0.090091	0.256883
H272	H	1.038114	0.590091	0.756883
H273	H	0.582795	0.028188	0.228566
H274	H	1.082795	0.528188	0.728566
H275	H	0.520359	0.066384	-0.131102
H276	H	1.020359	0.566384	0.368898
H277	H	1.087079	-0.481239	-0.000026
H278	H	1.587079	0.018761	0.499974
O279	O	0.791049	0.130006	0.207893
O280	O	1.291049	0.630006	0.707893
C281	C	0.745279	0.159047	0.262621
C282	C	1.245279	0.659047	0.762621
H283	H	0.776307	0.159571	0.322100
H284	H	1.276307	0.659571	0.822100
H285	H	0.733278	0.197658	0.238504
H286	H	1.233278	0.697658	0.738504
H287	H	0.689242	0.143397	0.271512
H288	H	1.189242	0.643397	0.771512
O289	O	0.751628	-0.780709	-0.000079
O290	O	1.251628	-0.280709	0.499921
C291	C	0.747031	-0.809513	-0.068750
C292	C	1.247031	-0.309513	0.431250
H293	H	0.806836	-0.822134	-0.091640
H294	H	1.306836	-0.322134	0.408360
H295	H	0.717251	-0.842496	-0.053305
H296	H	1.217251	-0.342496	0.446695
H297	H	0.713288	-0.787202	-0.116832
H298	H	1.213288	-0.287202	0.383168
H299	H	0.799255	0.124798	0.634335
H300	H	1.299255	0.624798	1.134335
H301	H	0.772245	-0.162513	0.000016
H302	H	1.272245	0.337487	0.500016
H303	H	0.773705	-0.071042	0.000008
H304	H	1.273705	0.428958	0.500008
O305	O	0.687747	-0.443584	0.000045
O306	O	1.187747	0.056416	0.500045
C307	C	0.626318	-0.471506	0.000029
C308	C	1.126318	0.028494	0.500029
H309	H	0.645993	-0.509156	0.025121
H310	H	1.145993	-0.009156	0.525121
H311	H	0.578274	-0.452867	0.038528
H312	H	1.078274	0.047133	0.538528
H313	H	0.605012	-0.475072	-0.063573
H314	H	1.105012	0.024928	0.436427
H315	H	0.799271	0.124804	0.785728
H316	H	1.299271	0.624804	1.285728
H317	H	0.987413	0.005387	0.785705
H318	H	1.487413	0.505387	1.285705
O319	O	1.096471	-0.577507	0.000005
O320	O	1.596471	-0.077507	0.500005
C321	C	1.157908	-0.549591	-0.000022
C322	C	1.657908	-0.049591	0.499978
H323	H	1.138241	-0.511942	0.025077
H324	H	1.638241	-0.011942	0.525077
H325	H	1.205949	-0.568237	0.038464
H326	H	1.705949	-0.068237	0.538464
H327	H	1.179215	-0.546022	-0.063629
H328	H	1.679215	-0.046022	0.436371
H329	H	1.089470	-0.329983	-0.000016
H330	H	1.589470	0.170017	0.499984
O331	O	1.025354	-0.704337	-0.000027
O332	O	1.525354	-0.204337	0.499973
C333	C	1.085743	-0.742549	-0.000006
C334	C	1.585743	-0.242549	0.499994
H335	H	1.064936	-0.776780	-0.025090
H336	H	1.564936	-0.276780	0.474910
H337	H	1.134244	-0.732067	-0.038509
H338	H	1.634244	-0.232067	0.461491
H339	H	1.106882	-0.749700	0.063596
H340	H	1.606882	-0.249700	0.563596
O341	O	1.098867	-0.426248	0.000026
O342	O	1.598867	0.073752	0.500026
C343	C	1.160299	-0.398329	0.000005
C344	C	1.660299	0.101671	0.500005
H345	H	1.140623	-0.360679	0.025097
H346	H	1.640623	0.139321	0.525097
H347	H	1.208336	-0.416970	0.038501
H348	H	1.708336	0.083030	0.538501
H349	H	1.181615	-0.394761	-0.063598
H350	H	1.681615	0.105239	0.436402
H351	H	0.987400	0.005384	0.634304
H352	H	1.487400	0.505384	1.134304
