data_functionalizedCrystal
_audit_creation_method	'MofGen! by Chris Wilmer'
_symmetry_space_group_name_H-M	'P1'
_symmetry_Int_Tables_number	1
_symmetry_cell_setting	triclinic
loop_
_symmetry_equiv_pos_as_xyz
  x,y,z
_cell_length_a	25.639242
_cell_length_b	16.994747
_cell_length_c	25.639233
_cell_angle_alpha	89.993240
_cell_angle_beta	90.022166
_cell_angle_gamma	90.006589
loop_
_atom_site_label
_atom_site_type_symbol
_atom_site_fract_x
_atom_site_fract_y
_atom_site_fract_z
Zn1	Zn	0.799326	-0.314218	0.295835
Zn2	Zn	0.799291	-0.446103	0.208438
Zn3	Zn	0.711902	-0.314207	0.208399
Zn4	Zn	0.711889	-0.446074	0.295828
O5	O	0.755602	-0.380150	0.252125
O6	O	0.872486	-0.331730	0.284261
O7	O	0.787690	-0.428614	0.135268
O8	O	0.723518	-0.203827	0.219984
O9	O	0.872461	-0.428625	0.220051
O10	O	0.787748	-0.203835	0.284223
O11	O	0.723485	-0.331710	0.135239
O12	O	0.638735	-0.331682	0.219977
O13	O	0.723497	-0.428575	0.368994
O14	O	0.638726	-0.428564	0.284211
O15	O	0.787736	-0.331702	0.368999
O16	O	0.787677	-0.556480	0.220044
O17	O	0.723463	-0.556459	0.284249
C18	C	0.619759	-0.380119	0.252090
C19	C	0.561645	-0.380125	0.252087
C20	C	0.755572	-0.585090	0.252149
C21	C	0.755575	-0.674412	0.252147
Zn22	Zn	0.711917	-0.945293	0.208384
Zn23	Zn	0.799349	-0.945283	0.295812
Zn24	Zn	0.711907	-0.813466	0.295819
Zn25	Zn	0.799301	-0.813358	0.208421
O26	O	0.755618	-0.879350	0.252109
O27	O	0.723539	-1.055673	0.219963
O28	O	0.787765	-0.927838	0.368978
O29	O	0.638743	-0.831003	0.284209
O30	O	0.787775	-1.055666	0.284196
O31	O	0.638750	-0.927855	0.219971
O32	O	0.723522	-0.830993	0.368984
O33	O	0.723476	-0.703071	0.284244
O34	O	0.787693	-0.830819	0.135251
O35	O	0.787683	-0.702991	0.220033
O36	O	0.723492	-0.927751	0.135224
O37	O	0.872508	-0.927734	0.284232
O38	O	0.872472	-0.830809	0.220026
C39	C	0.201286	-0.430681	0.285540
C40	C	0.146682	-0.430686	0.285548
O41	O	0.118449	-0.473632	0.313961
N42	N	0.119363	-0.380172	0.252159
C43	C	0.146651	-0.329644	0.218764
O44	O	0.118400	-0.286678	0.190365
C45	C	0.201254	-0.329636	0.218758
C46	C	0.228570	-0.380159	0.252146
C47	C	0.228603	-0.481199	0.318925
C48	C	0.283203	-0.481195	0.318916
C49	C	0.310487	-0.430673	0.285522
C50	C	0.283171	-0.380155	0.252137
C51	C	0.228541	-0.279105	0.185366
C52	C	0.283148	-0.279101	0.185364
C53	C	0.310464	-0.329624	0.218751
C54	C	0.365056	-0.329629	0.218733
N55	N	0.392375	-0.380143	0.252122
C56	C	0.365091	-0.430665	0.285517
C57	C	0.031980	-0.329664	0.218778
C58	C	-0.022622	-0.329676	0.218780
C59	C	-0.022587	-0.430717	0.285565
C60	C	0.032016	-0.430709	0.285560
C61	C	0.059299	-0.380178	0.252167
C62	C	0.479756	-0.430653	0.285495
C63	C	0.534361	-0.430647	0.285481
C64	C	0.534321	-0.329604	0.218698
C65	C	0.479721	-0.329612	0.218709
C66	C	0.452439	-0.380140	0.252112
O67	O	0.393324	-0.286702	0.190336
O68	O	0.393348	-0.473617	0.313916
C69	C	0.891975	-0.380182	0.252161
C70	C	0.950089	-0.380196	0.252176
C71	C	0.755619	-0.380137	0.388498
C72	C	0.755626	-0.380131	0.446612
C73	C	0.755635	-0.174410	0.252098
C74	C	0.755651	-0.085088	0.252087
C75	C	0.755615	-0.380107	0.116283
C76	C	0.755709	-0.379891	0.058169
C77	C	0.789118	-0.329539	0.806984
C78	C	0.789124	-0.329517	0.861588
O79	O	0.817558	-0.286595	0.889832
N80	N	0.755684	-0.379946	0.888895
C81	C	0.722231	-0.430394	0.861595
O82	O	0.693787	-0.473285	0.889835
C83	C	0.722222	-0.430411	0.806991
C84	C	0.755668	-0.379985	0.779687
C85	C	0.822561	-0.279115	0.779680
C86	C	0.822555	-0.279139	0.725079
C87	C	0.789106	-0.329585	0.697783
C88	C	0.755662	-0.380008	0.725087
C89	C	0.688767	-0.480855	0.779692
C90	C	0.688761	-0.480868	0.725085
C91	C	0.722207	-0.430441	0.697781
C92	C	0.722207	-0.430477	0.643190
N93	N	0.755648	-0.380048	0.615883
C94	C	0.789097	-0.329602	0.643179
C95	C	0.722251	-0.430353	0.976265
C96	C	0.722262	-0.430340	1.030868
C97	C	0.789155	-0.329462	1.030857
C98	C	0.789146	-0.329479	0.976254
C99	C	0.755691	-0.379924	0.948958
C100	C	0.789083	-0.329655	0.528514
C101	C	0.789075	-0.329684	0.473909
C102	C	0.722181	-0.430560	0.473924
C103	C	0.722190	-0.430533	0.528524
C104	C	0.755642	-0.380074	0.555818
O105	O	0.693787	-0.473375	0.614911
O106	O	0.817531	-0.286711	0.614932
C107	C	0.891461	-0.879261	0.252133
C108	C	0.949575	-0.879245	0.252159
C109	C	0.755588	-0.879274	0.115736
C110	C	0.755576	-0.879241	0.057622
C111	C	0.619245	-0.879442	0.252086
C112	C	0.561131	-0.879481	0.252077
C113	C	0.755611	-0.879471	0.387952
C114	C	0.755477	-0.879654	0.446065
C115	C	0.976869	-0.929749	0.285572
C116	C	1.031473	-0.929750	0.285597
C117	C	1.058783	-0.879243	0.252210
C118	C	1.031485	-0.828737	0.218793
C119	C	0.976881	-0.828741	0.218766
C120	C	0.722140	-0.929694	0.030314
C121	C	0.722118	-0.929663	-0.024290
C122	C	0.755534	-0.879184	-0.051586
C123	C	0.788971	-0.828726	-0.024274
C124	C	0.788991	-0.828753	0.030330
C125	C	0.533834	-0.829068	0.285518
C126	C	0.479229	-0.829089	0.285509
C127	C	0.451924	-0.879529	0.252061
C128	C	0.479225	-0.929944	0.218616
C129	C	0.533828	-0.929919	0.218623
C130	C	0.722207	-0.828952	0.473337
C131	C	0.722071	-0.829124	0.527941
C132	C	0.755210	-0.879994	0.555273
C133	C	0.788482	-0.930701	0.527998
C134	C	0.788615	-0.930533	0.473394
H135	H	0.556600	-0.471792	0.312670
C136	C	0.563368	-0.984752	0.182298
C137	C	0.527763	-1.028942	0.153019
C138	C	0.554952	-1.079472	0.119555
H139	H	0.584663	-0.954653	0.159475
H140	H	0.584665	-1.019165	0.202286
H141	H	0.506475	-0.994532	0.133033
H142	H	0.506467	-1.059056	0.175829
H143	H	0.576249	-1.113886	0.139542
H144	H	0.576246	-1.049367	0.096735
H145	H	0.530799	-1.109466	0.099688
C146	C	0.563501	-0.774429	0.321898
C147	C	0.594854	-0.819083	0.355421
C148	C	0.622182	-0.768772	0.388945
H149	H	0.584833	-0.740023	0.301966
H150	H	0.539434	-0.744422	0.341839
H151	H	0.618918	-0.849077	0.335481
H152	H	0.573534	-0.853487	0.375365
H153	H	0.598115	-0.738765	0.408887
H154	H	0.643511	-0.734369	0.369009
H155	H	0.643454	-0.799063	0.411698
H156	H	1.053728	-0.787616	0.191610
C157	C	1.061075	-0.984483	0.321972
C158	C	1.047795	-0.967372	0.373706
C159	C	1.075057	-1.017768	0.407230
H160	H	1.052144	-1.037498	0.314353
H161	H	1.097512	-0.977250	0.317244
H162	H	1.011367	-0.974613	0.378431
H163	H	1.056728	-0.914367	0.381342
H164	H	1.111494	-1.010534	0.402502
H165	H	1.066124	-1.070779	0.399606
H166	H	1.066055	-1.006161	0.442335
H167	H	0.694927	-0.970803	0.052531
C168	C	0.312675	-0.224213	0.149045
C169	C	0.277061	-0.179990	0.119800
C170	C	0.304240	-0.129431	0.086332
H171	H	0.333991	-0.189816	0.169012
H172	H	0.333949	-0.254317	0.126204
H173	H	0.255795	-0.149887	0.142638
H174	H	0.255743	-0.214366	0.099823
H175	H	0.325514	-0.159535	0.063491
H176	H	0.325555	-0.095039	0.106304
H177	H	0.280080	-0.099424	0.066482
C178	C	0.685930	-0.773975	0.557452
C179	C	0.656955	-0.729371	0.521824
C180	C	0.623662	-0.678551	0.548989
H181	H	0.662909	-0.803882	0.578651
H182	H	0.706026	-0.739837	0.578841
H183	H	0.636860	-0.763503	0.500444
H184	H	0.679963	-0.699447	0.500624
H185	H	0.643759	-0.644414	0.570378
H186	H	0.600644	-0.708465	0.570187
H187	H	0.604002	-0.648276	0.524820
H188	H	1.103244	-0.879248	0.252237
H189	H	0.954663	-0.787610	0.191558
H190	H	0.849790	-0.238074	0.702853
H191	H	0.695221	-0.787524	0.451090
H192	H	0.755514	-0.879171	-0.096047
H193	H	0.407462	-0.879539	0.252058
C194	C	0.685798	-0.984544	-0.053841
C195	C	0.656557	-1.028777	-0.018246
C196	C	0.623101	-1.079350	-0.045447
H197	H	0.662951	-0.954474	-0.075141
H198	H	0.705791	-1.018928	-0.075134
H199	H	0.636566	-0.994397	0.003038
H200	H	0.679390	-1.058863	0.003055
H201	H	0.643093	-1.113735	-0.066739
H202	H	0.600257	-1.049274	-0.066745
H203	H	0.603260	-1.109374	-0.021300
C204	C	0.449623	-0.774453	0.321914
C205	C	0.462915	-0.791680	0.373641
C206	C	0.435649	-0.741375	0.407192
H207	H	0.458543	-0.721417	0.314346
H208	H	0.413187	-0.781691	0.317157
H209	H	0.499343	-0.784436	0.378395
H210	H	0.453993	-0.844707	0.381224
H211	H	0.399213	-0.748612	0.402436
H212	H	0.444571	-0.688342	0.399620
H213	H	0.444659	-0.753061	0.442293
H214	H	0.755098	-0.880122	0.599734
C215	C	0.825237	-0.774019	-0.054008
C216	C	0.818072	-0.784823	-0.107670
C217	C	0.851480	-0.734455	-0.135079
H218	H	0.817620	-0.720991	-0.045123
H219	H	0.860382	-0.785562	-0.045089
H220	H	0.782935	-0.773274	-0.116586
H221	H	0.825693	-0.837839	-0.116571
H222	H	0.886625	-0.745999	-0.126160
H223	H	0.843859	-0.681431	-0.126190
H224	H	0.846626	-0.741784	-0.171492
C225	C	0.824442	-0.985841	0.557771
C226	C	0.817210	-0.975111	0.611426
C227	C	0.850333	-1.025880	0.638871
H228	H	0.816606	-1.038768	0.548801
H229	H	0.859656	-0.974620	0.548967
H230	H	0.782003	-0.986337	0.620226
H231	H	0.825050	-0.922194	0.620411
H232	H	0.885548	-1.014660	0.630067
H233	H	0.842494	-1.078804	0.629896
H234	H	0.845434	-1.018602	0.675278
C235	C	0.825357	-0.773950	0.059881
C236	C	0.854626	-0.729758	0.024284
C237	C	0.888139	-0.679270	0.051484
H238	H	0.805422	-0.739530	0.081189
H239	H	0.848182	-0.804104	0.081164
H240	H	0.831804	-0.699606	0.003010
H241	H	0.874572	-0.764157	0.002974
H242	H	0.910963	-0.709424	0.072767
H243	H	0.868199	-0.644855	0.072792
H244	H	0.908004	-0.649285	0.027336
H245	H	0.456984	-0.971010	0.191383
H246	H	0.054191	-0.288517	0.191581
H247	H	0.815711	-0.971818	0.451195
H248	H	0.457550	-0.471796	0.312696
C249	C	0.858794	-0.224240	0.809335
C250	C	0.829211	-0.173642	0.840655
C251	C	0.862576	-0.123072	0.867971
H252	H	0.881588	-0.254315	0.830690
H253	H	0.878697	-0.194171	0.785261
H254	H	0.809318	-0.203707	0.864726
H255	H	0.806420	-0.143549	0.819313
H256	H	0.882478	-0.093004	0.843897
H257	H	0.885368	-0.153154	0.889322
H258	H	0.842509	-0.088731	0.889220
C259	C	0.312762	-0.536074	0.355228
C260	C	0.277171	-0.580297	0.384481
C261	C	0.304378	-0.630852	0.417945
H262	H	0.334055	-0.570470	0.335257
H263	H	0.334062	-0.505966	0.378063
H264	H	0.255880	-0.610403	0.361649
H265	H	0.255878	-0.545921	0.404463
H266	H	0.325678	-0.600744	0.440781
H267	H	0.325670	-0.665243	0.397971
H268	H	0.280234	-0.660859	0.437801
C269	C	0.825476	-0.274639	0.946706
C270	C	0.854761	-0.230448	0.982305
C271	C	0.888229	-0.179910	0.955109
H272	H	0.848296	-0.304732	0.925414
H273	H	0.805490	-0.240226	0.925407
H274	H	0.874745	-0.264856	1.003596
H275	H	0.831955	-0.200338	1.003599
H276	H	0.868243	-0.145497	0.933809
H277	H	0.911045	-0.210010	0.933817
H278	H	0.908099	-0.149916	0.979258
H279	H	0.206394	-0.522341	0.346122
C280	C	0.825408	-0.274708	1.060594
C281	C	0.818240	-0.285473	1.114256
C282	C	0.851619	-0.235042	1.141667
H283	H	0.860559	-0.286203	1.051726
H284	H	0.817754	-0.221696	1.051661
H285	H	0.825898	-0.338473	1.123186
H286	H	0.783097	-0.273972	1.123140
H287	H	0.843965	-0.182029	1.132734
H288	H	0.886768	-0.246540	1.132795
H289	H	0.846757	-0.242333	1.178080
H290	H	0.054253	-0.471848	0.312748
H291	H	-0.044812	-0.471852	0.312759
H292	H	0.695032	-0.471411	1.053094
C293	C	0.198799	-0.224366	0.149115
C294	C	0.145137	-0.235201	0.156240
C295	C	0.117723	-0.184809	0.122838
H296	H	0.207683	-0.171344	0.156763
H297	H	0.207714	-0.235868	0.113970
H298	H	0.136225	-0.223694	0.191376
H299	H	0.136238	-0.288213	0.148587
H300	H	0.126639	-0.196310	0.087693
H301	H	0.126612	-0.131789	0.130489
H302	H	0.081311	-0.192158	0.127664
C303	C	-0.052182	-0.274742	0.182506
C304	C	-0.016594	-0.230487	0.153270
C305	C	-0.043803	-0.179861	0.119856
H306	H	-0.073498	-0.304775	0.159653
H307	H	-0.073459	-0.240374	0.202528
H308	H	0.004674	-0.264850	0.133250
H309	H	0.004724	-0.200438	0.176109
H310	H	-0.065079	-0.145493	0.139878
H311	H	-0.065118	-0.209901	0.097007
H312	H	-0.019660	-0.149823	0.100019
H313	H	0.457479	-0.288474	0.191521
C314	C	0.564045	-0.274780	0.182501
C315	C	0.617710	-0.285579	0.189656
C316	C	0.645109	-0.235077	0.156329
H317	H	0.555145	-0.286188	0.147339
H318	H	0.555134	-0.221783	0.190211
H319	H	0.626618	-0.338563	0.181942
H320	H	0.626626	-0.274165	0.224811
H321	H	0.636197	-0.182080	0.164039
H322	H	0.636204	-0.246489	0.121169
H323	H	0.681523	-0.242392	0.161182
H324	H	0.816313	-0.288620	0.451680
H325	H	0.695007	-0.471436	0.954045
C326	C	0.825462	-0.274845	0.558048
C327	C	0.854755	-0.230712	0.522440
C328	C	0.888280	-0.180226	0.549627
H329	H	0.805533	-0.240387	0.579337
H330	H	0.848270	-0.304998	0.579350
H331	H	0.831950	-0.200562	0.501147
H332	H	0.874694	-0.265149	0.501150
H333	H	0.911088	-0.210379	0.570929
H334	H	0.868347	-0.145774	0.570915
H335	H	0.908163	-0.150281	0.525471
C336	C	0.652391	-0.535630	0.809233
C337	C	0.623088	-0.579786	0.773630
C338	C	0.589565	-0.630247	0.800822
H339	H	0.672322	-0.570074	0.830550
H340	H	0.629590	-0.505458	0.830507
H341	H	0.645887	-0.609956	0.752365
H342	H	0.603147	-0.545363	0.752311
H343	H	0.566764	-0.600074	0.822096
H344	H	0.609500	-0.664685	0.822139
H345	H	0.569676	-0.660207	0.776670
C346	C	0.652526	-0.535687	0.695380
C347	C	0.682118	-0.586251	0.664045
C348	C	0.648760	-0.636755	0.636668
H349	H	0.632597	-0.565792	0.719402
H350	H	0.629757	-0.505538	0.674035
H351	H	0.704878	-0.616397	0.685389
H352	H	0.702046	-0.556168	0.640013
H353	H	0.625991	-0.606606	0.615322
H354	H	0.628832	-0.666854	0.660694
H355	H	0.668833	-0.671063	0.615400
H356	H	0.694960	-0.471602	0.550757
H357	H	0.694949	-0.471634	0.451689
H358	H	0.954641	-0.970877	0.312763
