data_functionalizedCrystal
_audit_creation_method	'MofGen! by Chris Wilmer'
_symmetry_space_group_name_H-M	'P1'
_symmetry_Int_Tables_number	1
_symmetry_cell_setting	triclinic
loop_
_symmetry_equiv_pos_as_xyz
  x,y,z
_cell_length_a	17.699104
_cell_length_b	9.616153
_cell_length_c	17.699083
_cell_angle_alpha	89.999090
_cell_angle_beta	96.712734
_cell_angle_gamma	90.004156
loop_
_atom_site_label
_atom_site_type_symbol
_atom_site_fract_x
_atom_site_fract_y
_atom_site_fract_z
O1	O	1.004065	0.115676	-0.095781
O2	O	1.504065	0.615676	0.404219
O3	O	0.783689	0.115673	-0.108217
O4	O	1.283689	0.615673	0.391783
O5	O	0.900103	0.115663	0.008190
O6	O	1.400103	0.615663	0.508190
O7	O	0.887651	0.115687	-0.212188
O8	O	1.387651	0.615687	0.287812
O9	O	0.900095	-0.115629	0.008183
O10	O	1.400095	0.384371	0.508183
O11	O	0.783680	-0.115618	-0.108224
O12	O	1.283680	0.384382	0.391776
O13	O	1.004057	-0.115615	-0.095788
O14	O	1.504057	0.384385	0.404212
Zn15	Zn	0.893867	-0.152339	-0.102007
Zn16	Zn	1.393867	0.347661	0.397993
Zn17	Zn	0.893878	0.152397	-0.101998
Zn18	Zn	1.393878	0.652397	0.398002
O19	O	0.887642	-0.115604	-0.212194
O20	O	1.387642	0.384396	0.287806
C21	C	0.755488	0.000027	-0.107772
C22	C	1.255488	0.500027	0.392228
C23	C	0.671471	0.000026	-0.106427
C24	C	1.171471	0.500026	0.393573
N25	N	0.893865	-0.360313	-0.102012
N26	N	1.393865	0.139687	0.397988
C27	C	0.146600	0.000047	-0.167171
C28	C	0.646600	0.500047	0.332829
C29	C	0.225543	0.000051	-0.168430
C30	C	0.725543	0.500051	0.331570
C31	C	0.274161	0.000043	-0.100095
C32	C	0.774161	0.500043	0.399905
C33	C	0.243831	0.000045	-0.030496
C34	C	0.743831	0.500045	0.469504
C35	C	0.164889	0.000051	-0.029238
C36	C	0.664889	0.500051	0.470762
C37	C	0.562197	0.000024	-0.035569
C38	C	1.062197	0.500024	0.464431
C39	C	0.641144	0.000014	-0.036833
C40	C	1.141144	0.500014	0.463167
C41	C	0.622852	0.000024	-0.174762
C42	C	1.122852	0.500024	0.325238
C43	C	0.543909	0.000029	-0.173503
C44	C	1.043909	0.500029	0.326497
C45	C	0.513587	0.000039	-0.103905
C46	C	1.013587	0.500039	0.396095
C47	C	0.427987	0.000037	-0.102541
C48	C	0.927987	0.500037	0.397459
C49	C	0.359759	0.000035	-0.101459
C50	C	0.859759	0.500035	0.398541
C51	C	0.831564	-0.419349	-0.164273
C52	C	1.331564	0.080651	0.335727
C53	C	0.831356	-0.580517	-0.164098
C54	C	1.331356	-0.080517	0.335902
C55	C	0.877107	-0.581107	-0.022950
C56	C	1.377107	-0.081107	0.477050
C57	C	0.876647	-0.419890	-0.023330
C58	C	1.376647	0.080110	0.476670
C59	C	0.973140	-0.419696	-0.118073
C60	C	1.473140	0.080304	0.381927
C61	C	0.972617	-0.580924	-0.119853
C62	C	1.472617	-0.080924	0.380147
C63	C	1.032258	0.000034	-0.096233
C64	C	1.532258	0.500034	0.403767
C65	C	1.116275	0.000045	-0.097578
C66	C	1.616275	0.500045	0.402422
C67	C	0.899653	0.000017	0.036383
C68	C	1.399653	0.500017	0.536383
C69	C	0.898314	0.000016	0.120402
C70	C	1.398314	0.500016	0.620402
N71	N	0.893887	0.360372	-0.101987
N72	N	1.393887	0.860372	0.398013
C73	C	0.888093	0.000045	-0.240388
C74	C	1.388093	0.500045	0.259612
C75	C	0.889431	0.000054	-0.324406
C76	C	1.389431	0.500054	0.175594
C77	C	0.966647	0.000015	0.169017
C78	C	1.466647	0.500015	0.669017
C79	C	0.965385	0.000028	0.247961
C80	C	1.465385	0.500028	0.747961
C81	C	0.895789	0.000031	0.278287
C82	C	1.395789	0.500031	0.778287
C83	C	0.827451	0.000036	0.229665
C84	C	1.327451	0.500036	0.729665
C85	C	0.828714	0.000034	0.150723
C86	C	1.328714	0.500034	0.650723
C87	C	0.822356	0.000047	0.548028
C88	C	1.322356	0.500047	1.048028
C89	C	0.821098	0.000045	0.626976
C90	C	1.321098	0.500045	1.126976
C91	C	0.959026	0.000041	0.645266
C92	C	1.459026	0.500041	1.145266
C93	C	0.960289	0.000039	0.566324
C94	C	1.460289	0.500039	1.066324
C95	C	0.891952	0.000051	0.517709
C96	C	1.391952	0.500051	1.017709
C97	C	0.893321	0.000041	0.432110
C98	C	1.393321	0.500041	0.932110
C99	C	0.894419	0.000032	0.363885
C100	C	1.394419	0.500032	0.863885
H101	H	0.107020	0.000043	-0.222818
H102	H	0.607020	0.500043	0.277182
H103	H	0.140200	0.000052	0.027432
H104	H	0.640200	0.500052	0.527432
H105	H	0.819980	-0.621521	-0.008471
H106	H	1.319980	-0.121521	0.491529
H107	H	0.920323	-0.380833	0.024401
H108	H	1.420323	0.119167	0.524401
H109	H	1.014670	0.000038	0.684858
H110	H	1.514670	0.500038	1.184858
O111	O	0.491476	0.000038	-0.247210
O112	O	0.991476	0.500038	0.252790
H113	H	0.455071	-0.094236	-0.249941
H114	H	0.955071	0.405764	0.250059
H115	H	0.841282	-0.620086	-0.222843
H116	H	1.341282	-0.120086	0.277157
H117	H	0.250230	0.000066	-0.225100
H118	H	0.750230	0.500066	0.274900
O119	O	0.989501	-0.631589	-0.196869
O120	O	1.489501	-0.131589	0.303131
H121	H	1.045230	-0.589645	-0.209074
H122	H	1.545230	-0.089645	0.290926
O123	O	0.529506	0.000016	0.039499
O124	O	1.029506	0.500016	0.539499
H125	H	0.493992	0.094296	0.043386
H126	H	0.993992	0.594296	0.543386
O127	O	0.755009	0.000021	0.098287
O128	O	1.255009	0.500021	0.598287
H129	H	0.752284	0.094297	0.061887
H130	H	1.252284	0.594297	0.561887
H131	H	0.283422	0.000047	0.025143
H132	H	0.783422	0.500047	0.525143
H133	H	0.647550	0.000022	-0.231432
H134	H	1.147550	0.500022	0.268568
H135	H	0.841314	-0.380590	-0.223221
H136	H	1.341314	0.119410	0.276779
O137	O	1.034550	-0.369126	-0.057935
O138	O	1.534550	0.130874	0.442065
H139	H	1.077288	-0.308517	-0.085298
H140	H	1.577288	0.191483	0.414702
H141	H	0.921304	-0.619391	0.024510
H142	H	1.421304	-0.119391	0.524510
O143	O	0.746031	0.000052	0.659690
O144	O	1.246031	0.500052	1.159690
H145	H	0.713212	0.094334	0.640164
H146	H	1.213212	0.594334	1.140164
O147	O	0.994642	-0.365866	-0.192808
O148	O	1.494642	0.134134	0.307192
H149	H	0.949060	-0.296179	-0.219342
H150	H	1.449060	0.203821	0.280658
O151	O	1.036878	-0.634210	-0.063692
O152	O	1.536878	-0.134210	0.436308
H153	H	1.013600	-0.703666	-0.021978
H154	H	1.513600	-0.203666	0.478022
O155	O	0.752384	0.000044	0.262368
O156	O	1.252384	0.500044	0.762368
H157	H	0.719551	-0.094220	0.242823
H158	H	1.219551	0.405780	0.742823
H159	H	0.680728	0.000011	0.018817
H160	H	1.180728	0.500011	0.518817
O161	O	1.041714	0.000027	0.136314
O162	O	1.541714	0.500027	0.636314
H163	H	1.074545	-0.094232	0.155859
H164	H	1.574545	0.405768	0.655859
O165	O	0.754058	-0.365763	-0.150849
O166	O	1.254058	0.134237	0.349151
H167	H	0.759715	-0.297266	-0.100026
H168	H	1.259715	0.202734	0.399974
O169	O	0.753456	-0.631664	-0.150386
O170	O	1.253456	-0.131664	0.349614
H171	H	0.715785	-0.541246	-0.143857
H172	H	1.215785	-0.041246	0.356143
H173	H	0.818847	-0.382315	-0.009203
H174	H	1.318847	0.117685	0.490797
O175	O	1.039086	0.000003	0.300399
O176	O	1.539086	0.500003	0.800399
H177	H	1.087691	-0.000025	0.266049
H178	H	1.587691	0.499975	0.766049
O179	O	1.035352	0.000055	0.533613
O180	O	1.535352	0.500055	1.033613
H181	H	1.082658	0.000076	0.580682
H182	H	1.582658	0.500076	1.080682
H183	H	0.766711	0.000057	0.508455
H184	H	1.266711	0.500057	1.008455
