data_functionalizedCrystal
_audit_creation_method	'MofGen! by Chris Wilmer'
_symmetry_space_group_name_H-M	'P1'
_symmetry_Int_Tables_number	1
_symmetry_cell_setting	triclinic
loop_
_symmetry_equiv_pos_as_xyz
  x,y,z
_cell_length_a	16.956984
_cell_length_b	13.262975
_cell_length_c	15.455313
_cell_angle_alpha	108.568794
_cell_angle_beta	87.518126
_cell_angle_gamma	80.410903
loop_
_atom_site_label
_atom_site_type_symbol
_atom_site_fract_x
_atom_site_fract_y
_atom_site_fract_z
O1	O	1.061218	0.039205	-0.062888
O2	O	0.828758	0.076641	-0.054059
O3	O	0.952593	-0.097852	-0.095210
O4	O	0.937383	0.213698	-0.021737
O5	O	0.945512	-0.087913	0.051397
O6	O	0.821676	0.086580	0.092547
O7	O	1.054137	0.049145	0.083719
Cu8	Cu	0.937260	0.068770	0.101519
Cu9	Cu	0.945634	0.057015	-0.071859
O10	O	0.930302	0.223638	0.124869
C11	C	0.795493	0.083527	0.019696
C12	C	0.706927	0.089226	0.021040
C13	C	0.675612	-0.006062	-0.001430
C14	C	0.592394	-0.000702	-0.000172
C15	C	0.540491	0.099950	0.023563
C16	C	0.571811	0.195246	0.046032
C17	C	0.655028	0.189883	0.044768
C18	C	0.290505	0.126492	0.029817
C19	C	0.207282	0.131848	0.031082
C20	C	0.227871	-0.064100	-0.015124
C21	C	0.311089	-0.069453	-0.016381
C22	C	0.342401	0.025842	0.006083
N23	N	0.455429	0.105432	0.024852
N24	N	0.427463	0.020358	0.004788
C25	C	0.948848	-0.132561	-0.031266
C26	C	0.948231	-0.250789	-0.059153
C27	C	0.951811	-0.311727	-0.152177
C28	C	0.951241	-0.422812	-0.178399
C29	C	0.947097	-0.472971	-0.111600
C30	C	0.943522	-0.412034	-0.018575
C31	C	0.944086	-0.300937	0.007650
C32	C	0.939372	-0.462181	0.048227
C33	C	0.935798	-0.401244	0.141252
C34	C	0.936362	-0.290157	0.167473
C35	C	0.940506	-0.239998	0.100674
C36	C	0.938809	-0.573278	0.022002
C37	C	0.931084	-0.562488	0.181829
C38	C	0.931654	-0.451403	0.208051
C39	C	1.087401	0.042258	0.009962
C40	C	1.175968	0.036559	0.008612
C41	C	0.934046	0.258346	0.060924
C42	C	0.934664	0.376574	0.088805
N43	N	0.931376	0.077037	0.223464
N44	N	0.951525	0.048740	-0.193807
C45	C	0.984003	0.002930	0.251382
C46	C	0.979561	0.009191	0.343666
C47	C	0.922494	0.089564	0.408033
C48	C	0.869861	0.163674	0.380110
C49	C	0.874300	0.157408	0.287826
C50	C	0.903331	0.116584	0.685986
C51	C	0.898898	0.122847	0.778276
C52	C	1.008597	-0.031639	0.741826
C53	C	1.013034	-0.037894	0.649542
C54	C	0.960399	0.036213	0.621626
N55	N	0.917953	0.095968	0.502363
N56	N	0.964936	0.029803	0.527296
H57	H	0.165023	0.213815	0.050415
H58	H	0.940974	-0.149545	0.122020
Br59	Br	0.792405	0.272748	0.467460
Br60	Br	1.061461	-0.106146	0.164037
H61	H	0.955180	-0.270876	-0.206554
Br62	Br	0.831901	0.217156	0.648105
H63	H	0.202368	-0.141685	-0.033424
Br64	Br	1.090486	-0.146968	0.562187
Br65	Br	0.332990	0.255823	0.060303
H66	H	0.946632	-0.563422	-0.132956
H67	H	0.529545	0.277198	0.065352
H68	H	0.927706	-0.603325	0.236222
Br69	Br	0.931482	-0.207451	0.293723
H70	H	0.831445	0.217752	0.265098
Br71	Br	0.926804	-0.368691	0.334296
Br72	Br	0.549901	-0.130031	-0.030700
H73	H	1.022413	-0.051153	0.366395
H74	H	1.051449	-0.091974	0.764564
Br75	Br	0.697527	0.319209	0.075257
H76	H	0.941717	-0.622882	-0.053740
H77	H	0.852424	0.188301	0.830682
H78	H	0.717867	-0.088024	-0.020754
H79	H	0.353344	-0.151414	-0.035705
H80	H	0.954153	-0.472420	-0.254140
