data_functionalizedCrystal
_audit_creation_method	'MofGen! by Chris Wilmer'
_symmetry_space_group_name_H-M	'P1'
_symmetry_Int_Tables_number	1
_symmetry_cell_setting	triclinic
loop_
_symmetry_equiv_pos_as_xyz
  x,y,z
_cell_length_a	14.853568
_cell_length_b	10.654550
_cell_length_c	9.130313
_cell_angle_alpha	90.000110
_cell_angle_beta	89.997432
_cell_angle_gamma	84.060045
loop_
_atom_site_label
_atom_site_type_symbol
_atom_site_fract_x
_atom_site_fract_y
_atom_site_fract_z
O1	O	-1.197237	-0.163959	-0.121700
O2	O	-0.934882	-0.183490	-0.121724
O3	O	-1.072092	0.009077	-0.121706
O4	O	-1.060028	-0.356526	-0.121718
O5	O	-1.072090	0.009072	0.121893
O6	O	-0.934880	-0.183495	0.121875
O7	O	-1.197235	-0.163964	0.121899
Cu8	Cu	-1.066058	-0.173730	0.144130
Cu9	Cu	-1.066060	-0.173724	-0.143954
O10	O	-1.060026	-0.356532	0.121881
C11	C	-0.901288	-0.182607	0.000073
C12	C	-0.801190	-0.179955	0.000064
C13	C	-0.387984	-0.054354	0.000103
C14	C	-0.367928	-0.283129	0.000094
C15	C	-0.461975	-0.285622	0.000089
C16	C	-0.519031	-0.172480	0.000088
C17	C	-0.482040	-0.056844	0.000093
C18	C	-0.498973	-0.401257	0.000069
C19	C	-0.593025	-0.403755	0.000062
C20	C	-0.650083	-0.290612	0.000072
C21	C	-0.613087	-0.174971	0.000079
C22	C	-0.670143	-0.061829	0.000078
C23	C	-0.633149	0.053814	0.000095
C24	C	-0.539098	0.056299	0.000103
C25	C	-0.744134	-0.293097	0.000064
C26	C	-0.764199	-0.064319	0.000069
C27	C	-0.230830	-0.164846	0.000100
C28	C	-0.330928	-0.167496	0.000103
C29	C	-1.071205	0.055864	0.000092
C30	C	-1.068555	0.195279	0.000086
C31	C	-1.060912	-0.403318	0.000080
C32	C	-1.063563	-0.542733	0.000076
N33	N	-1.066063	-0.173734	0.346752
C34	C	-1.149342	0.275604	0.000098
C35	C	-1.146846	0.406599	0.000088
C36	C	-0.982770	0.376931	0.000060
C37	C	-0.985266	0.245939	0.000060
C38	C	-1.244070	0.292733	0.000120
C39	C	-1.241574	0.423728	0.000110
N40	N	-1.066062	-0.173711	-0.346577
C41	C	-1.126835	-0.088494	0.423412
C42	C	-1.126833	-0.088479	0.576749
C43	C	-1.005283	-0.258955	0.576753
C44	C	-1.005282	-0.258963	0.423418
C45	C	-1.197013	0.009926	0.423411
C46	C	-1.197011	0.009941	0.576748
H47	H	-0.452511	-0.493370	0.000054
O48	O	-1.284141	0.473785	0.121840
C49	C	-1.364311	0.433401	0.343545
C50	C	-1.316116	0.376544	0.205772
H51	H	-1.390192	0.354813	0.411427
H52	H	-1.314722	0.483856	0.411606
H53	H	-1.423759	0.503655	0.309534
H54	H	-1.256671	0.306240	0.239651
H55	H	-1.365764	0.326169	0.137744
O56	O	-0.628994	-0.516057	-0.000220
C57	C	-0.723559	-0.651613	-0.126416
C58	C	-0.682870	-0.524398	-0.126291
H59	H	-0.767141	-0.658387	-0.228318
H60	H	-0.666652	-0.732091	-0.126518
H61	H	-0.767056	-0.658502	-0.024431
H62	H	-0.639382	-0.517385	-0.228258
H63	H	-0.739820	-0.443982	-0.126113
H64	H	-1.266291	-0.010858	0.618370
H65	H	-0.774251	-0.387251	0.000053
O66	O	-1.275094	-0.025942	0.366865
C67	C	-1.375123	-0.189592	0.350409
C68	C	-1.286687	-0.149106	0.414556
H69	H	-1.384514	-0.289183	0.388916
H70	H	-1.434764	-0.121691	0.389008
H71	H	-1.371527	-0.187896	0.225710
H72	H	-1.290193	-0.150810	0.539256
H73	H	-1.227082	-0.217015	0.375842
O74	O	-0.819583	0.045624	-0.000193
C75	C	-0.865452	0.240437	-0.126344
C76	C	-0.802694	0.115963	-0.126246
H77	H	-0.851806	0.297354	-0.228231
H78	H	-0.939046	0.218873	-0.126454
H79	H	-0.851922	0.297278	-0.024345
H80	H	-0.816143	0.059062	-0.228228
H81	H	-0.729121	0.137616	-0.126060
O82	O	-1.275799	0.478355	-0.125417
C83	C	-1.342547	0.446795	-0.361375
C84	C	-1.303832	0.384769	-0.219283
H85	H	-1.365204	0.371157	-0.437317
H86	H	-1.402916	0.517907	-0.334059
H87	H	-1.288115	0.497243	-0.417986
H88	H	-1.358198	0.334253	-0.162603
H89	H	-1.243442	0.313725	-0.246695
H90	H	-0.679616	0.145933	0.000085
H91	H	-0.919482	0.180542	0.000030
H92	H	-0.914959	0.418195	0.000037
H93	H	-0.508968	0.150449	0.000152
H94	H	-0.321467	-0.375244	0.000082
H95	H	-1.281122	0.263762	-0.101815
O96	O	-1.170931	0.118611	0.633244
C97	C	-1.121810	0.322729	0.582332
C98	C	-1.151334	0.199734	0.518154
H99	H	-1.105940	0.388340	0.489314
H100	H	-1.178737	0.370930	0.652540
H101	H	-1.058830	0.299928	0.652676
H102	H	-1.214294	0.222426	0.447745
H103	H	-1.094354	0.151568	0.448030
H104	H	-1.274234	0.257418	0.105304
H105	H	-0.955789	-0.328361	0.361003
H106	H	-0.955796	-0.328345	0.639191
H107	H	-1.181621	0.106298	0.381792
H108	H	-0.357859	0.039799	0.000122
