data_functionalizedCrystal
_audit_creation_method	'MofGen! by Chris Wilmer'
_symmetry_space_group_name_H-M	'P1'
_symmetry_Int_Tables_number	1
_symmetry_cell_setting	triclinic
loop_
_symmetry_equiv_pos_as_xyz
  x,y,z
_cell_length_a	10.967926
_cell_length_b	13.262508
_cell_length_c	9.482900
_cell_angle_alpha	115.010094
_cell_angle_beta	92.549900
_cell_angle_gamma	81.247908
loop_
_atom_site_label
_atom_site_type_symbol
_atom_site_fract_x
_atom_site_fract_y
_atom_site_fract_z
O1	O	1.599235	0.195318	0.357001
O2	O	1.249886	0.197744	0.270434
O3	O	1.443130	0.035875	0.254850
O4	O	1.405991	0.357187	0.372585
O5	O	1.403870	0.068893	0.499861
O6	O	1.210626	0.230762	0.515445
O7	O	1.559975	0.228336	0.602012
Cu8	Cu	1.381716	0.232564	0.581100
Cu9	Cu	1.428145	0.193516	0.291346
O10	O	1.366731	0.390205	0.617596
C11	C	1.185719	0.211582	0.380725
C12	C	1.053013	0.203609	0.344324
C13	C	0.973511	0.217158	0.455018
C14	C	0.836352	0.208918	0.417399
C15	C	1.425029	0.011126	0.361423
C16	C	1.429569	-0.111810	0.313945
C17	C	1.356756	-0.386364	0.714350
C18	C	1.352480	-0.270859	0.758957
C19	C	1.371752	-0.231091	0.647708
C20	C	1.395300	-0.306840	0.491844
C21	C	1.399566	-0.422355	0.447231
C22	C	1.414563	-0.267082	0.380589
C23	C	1.438111	-0.342831	0.224725
C24	C	1.442377	-0.458335	0.180119
C25	C	1.423105	-0.498103	0.291368
C26	C	1.410297	-0.151566	0.425202
C27	C	1.453108	-0.187557	0.158083
C28	C	1.457383	-0.303062	0.113476
C29	C	1.624143	0.214498	0.491718
C30	C	1.756850	0.222470	0.528109
C31	C	1.384833	0.414954	0.511020
C32	C	1.380294	0.537888	0.558488
N33	N	1.349068	0.260027	0.784899
N34	N	1.460803	0.166045	0.087546
C35	C	1.418508	0.201611	0.851399
C36	C	1.391353	0.224470	1.021051
H37	H	1.391113	-0.089901	0.552105
H38	H	1.540357	0.099100	1.018885
H39	H	1.368268	-0.137040	0.684037
H40	H	1.468792	-0.155179	0.067492
H41	H	1.006989	0.234853	0.577636
H42	H	1.311790	0.291406	1.089707
H43	H	0.790321	0.240168	0.650736
C44	C	0.791145	0.185008	0.251740
H45	H	0.704888	0.182614	0.248190
H46	H	0.833066	0.114749	0.180270
H47	H	0.807571	0.242929	0.224575
C48	C	1.007800	0.179700	0.178674
H49	H	0.921543	0.177306	0.175124
H50	H	1.049721	0.109441	0.107203
H51	H	1.024226	0.237621	0.151508
C52	C	1.326593	-0.187546	0.930394
H53	H	1.315740	-0.227772	0.990264
H54	H	1.253835	-0.136338	0.937899
H55	H	1.394256	-0.147140	0.968801
H56	H	1.498058	0.134670	0.782734
H57	H	1.269511	0.326959	0.853560
C58	C	1.335548	-0.430106	0.836707
H59	H	1.320907	-0.368452	0.935922
H60	H	1.406521	-0.479820	0.840315
H61	H	1.266106	-0.469014	0.809384
C62	C	1.427764	-0.625157	0.242286
H63	H	1.444536	-0.664576	0.133525
H64	H	1.350610	-0.639220	0.266076
H65	H	1.491031	-0.650062	0.296964
H66	H	1.461540	-0.520007	0.053202
H67	H	1.476555	-0.364753	-0.013431
