data_functionalizedCrystal
_audit_creation_method	'MofGen! by Chris Wilmer'
_symmetry_space_group_name_H-M	'P1'
_symmetry_Int_Tables_number	1
_symmetry_cell_setting	triclinic
loop_
_symmetry_equiv_pos_as_xyz
  x,y,z
_cell_length_a	29.839135
_cell_length_b	29.839131
_cell_length_c	29.839125
_cell_angle_alpha	90.013540
_cell_angle_beta	90.015488
_cell_angle_gamma	90.044233
loop_
_atom_site_label
_atom_site_type_symbol
_atom_site_fract_x
_atom_site_fract_y
_atom_site_fract_z
Zn1	Zn	0.686719	-0.178886	0.254060
Zn2	Zn	1.020052	0.154447	0.587394
Zn3	Zn	1.353385	0.487781	0.920727
Zn4	Zn	0.686651	-0.253998	0.178936
Zn5	Zn	1.019984	0.079335	0.512269
Zn6	Zn	1.353317	0.412669	0.845602
Zn7	Zn	0.611602	-0.178886	0.178938
Zn8	Zn	0.944935	0.154447	0.512272
Zn9	Zn	1.278268	0.487781	0.845605
Zn10	Zn	0.611549	-0.253993	0.254033
Zn11	Zn	0.944882	0.079340	0.587366
Zn12	Zn	1.278216	0.412674	0.920699
O13	O	0.649130	-0.216441	0.216492
O14	O	0.982463	0.116893	0.549825
O15	O	1.315797	0.450226	0.883158
O16	O	0.749577	-0.188852	0.244105
O17	O	1.082910	0.144482	0.577439
O18	O	1.416243	0.477815	0.910772
O19	O	0.676689	-0.244036	0.116069
O20	O	1.010022	0.089297	0.449402
O21	O	1.343355	0.422630	0.782736
O22	O	0.621617	-0.116019	0.188916
O23	O	0.954950	0.217314	0.522249
O24	O	1.288283	0.550648	0.855583
O25	O	0.749527	-0.244036	0.188912
O26	O	1.082860	0.089297	0.522245
O27	O	1.416193	0.422630	0.855578
O28	O	0.676805	-0.116019	0.244108
O29	O	1.010138	0.217314	0.577441
O30	O	1.343472	0.550648	0.910775
O31	O	0.621550	-0.188852	0.116071
O32	O	0.954884	0.144481	0.449404
O33	O	1.288217	0.477815	0.782738
O34	O	0.548727	-0.188847	0.188889
O35	O	0.882061	0.144486	0.522223
O36	O	1.215394	0.477819	0.855556
O37	O	0.621527	-0.244028	0.316903
O38	O	0.954860	0.089306	0.650237
O39	O	1.288194	0.422639	0.983570
O40	O	0.548689	-0.244028	0.244061
O41	O	0.882022	0.089305	0.577394
O42	O	1.215355	0.422639	0.910727
O43	O	0.676754	-0.188847	0.316924
O44	O	1.010087	0.144486	0.650257
O45	O	1.343420	0.477820	0.983590
O46	O	0.676638	-0.316864	0.188885
O47	O	1.009971	0.016469	0.522218
O48	O	1.343304	0.349802	0.855551
O49	O	0.621461	-0.316861	0.244058
O50	O	0.954794	0.016473	0.577391
O51	O	1.288127	0.349806	0.910725
C52	C	0.532407	-0.216437	0.216473
C53	C	0.865741	0.116896	0.549806
C54	C	1.199074	0.450229	0.883139
C55	C	0.482473	-0.216447	0.216475
C56	C	0.815806	0.116887	0.549808
C57	C	1.149140	0.450220	0.883142
C58	C	0.172853	-0.187750	0.245273
C59	C	0.506186	0.145584	0.578607
C60	C	0.839519	0.478917	0.911940
C61	C	-0.014820	-0.187753	0.245286
C62	C	0.318513	0.145580	0.578620
C63	C	0.651846	0.478914	0.911953
O64	O	-0.039066	-0.163344	0.269750
O65	O	0.294268	0.169990	0.603084
O66	O	0.627601	0.503323	0.936417
N67	N	-0.038312	-0.216441	0.216508
N68	N	0.295021	0.116892	0.549842
N69	N	0.628355	0.450225	0.883175
C70	C	-0.014883	-0.245129	0.187723
C71	C	0.318451	0.088204	0.521056
C72	C	0.651784	0.421538	0.854390
O73	O	-0.039170	-0.269527	0.163242
O74	O	0.294163	0.063806	0.496576
O75	O	0.627496	0.397140	0.829909
C76	C	0.172789	-0.245123	0.187708
C77	C	0.506123	0.088210	0.521041
C78	C	0.839456	0.421544	0.854375
C79	C	0.196279	-0.216436	0.216491
C80	C	0.529612	0.116897	0.549825
C81	C	0.862945	0.450231	0.883158
C82	C	0.196342	-0.159065	0.274054
C83	C	0.529675	0.174269	0.607387
C84	C	0.863009	0.507602	0.940720
C85	C	0.243257	-0.159066	0.274052
C86	C	0.576591	0.174267	0.607385
C87	C	0.909924	0.507601	0.940719
C88	C	0.266684	-0.187752	0.245270
C89	C	0.600017	0.145581	0.578603
C90	C	0.933350	0.478914	0.911937
C91	C	0.243194	-0.216437	0.216489
C92	C	0.576528	0.116896	0.549823
C93	C	0.909861	0.450229	0.883156
C94	C	0.196218	-0.273808	0.158921
C95	C	0.529551	0.059525	0.492254
C96	C	0.862885	0.392859	0.825588
C97	C	0.243139	-0.273803	0.158919
C98	C	0.576472	0.059530	0.492252
C99	C	0.909806	0.392863	0.825586
C100	C	0.266628	-0.245116	0.187702
C101	C	0.599962	0.088217	0.521035
C102	C	0.933295	0.421550	0.854369
C103	C	0.313536	-0.245125	0.187706
C104	C	0.646869	0.088208	0.521039
C105	C	0.980202	0.421542	0.854372
N106	N	0.337028	-0.216437	0.216484
N107	N	0.670361	0.116897	0.549817
N108	N	1.003694	0.450230	0.883150
C109	C	0.313601	-0.187750	0.245266
C110	C	0.646935	0.145583	0.578599
C111	C	0.980268	0.478916	0.911932
C112	C	-0.113413	-0.245130	0.187733
C113	C	0.219920	0.088203	0.521067
C114	C	0.553253	0.421536	0.854400
C115	C	-0.160331	-0.245133	0.187737
C116	C	0.173002	0.088201	0.521071
C117	C	0.506335	0.421534	0.854404
C118	C	-0.160266	-0.187756	0.245300
C119	C	0.173068	0.145578	0.578634
C120	C	0.506401	0.478911	0.911967
C121	C	-0.113347	-0.187756	0.245298
C122	C	0.219986	0.145577	0.578631
C123	C	0.553320	0.478910	0.911965
C124	C	-0.089922	-0.216442	0.216511
C125	C	0.243412	0.116891	0.549845
C126	C	0.576745	0.450225	0.883178
C127	C	0.412127	-0.187755	0.245260
C128	C	0.745461	0.145578	0.578593
C129	C	1.078794	0.478911	0.911927
C130	C	0.459047	-0.187760	0.245257
C131	C	0.792380	0.145573	0.578590
C132	C	1.125714	0.478906	0.911924
C133	C	0.458977	-0.245135	0.187693
C134	C	0.792310	0.088198	0.521026
C135	C	1.125644	0.421531	0.854359
C136	C	0.412062	-0.245132	0.187697
C137	C	0.745395	0.088201	0.521031
C138	C	1.078728	0.421535	0.854364
C139	C	0.388638	-0.216438	0.216482
C140	C	0.721971	0.116895	0.549816
C141	C	1.055305	0.450228	0.883149
O142	O	0.337810	-0.269518	0.163251
O143	O	0.671143	0.063815	0.496584
O144	O	1.004477	0.397149	0.829917
O145	O	0.337897	-0.163349	0.269735
O146	O	0.671230	0.169985	0.603069
O147	O	1.004564	0.503318	0.936402
C148	C	0.125937	-0.187749	0.245275
C149	C	0.459271	0.145585	0.578609
C150	C	0.792604	0.478918	0.911942
C151	C	0.102448	-0.216434	0.216495
C152	C	0.435781	0.116900	0.549828
C153	C	0.769115	0.450233	0.883161
C154	C	0.125874	-0.245120	0.187713
C155	C	0.459207	0.088213	0.521046
C156	C	0.792541	0.421547	0.854379
C157	C	0.055530	-0.216436	0.216499
C158	C	0.388863	0.116898	0.549832
C159	C	0.722197	0.450231	0.883166
C160	C	0.032104	-0.187749	0.245281
C161	C	0.365437	0.145584	0.578614
C162	C	0.698771	0.478917	0.911948
C163	C	0.055596	-0.159061	0.274059
C164	C	0.388929	0.174272	0.607392
C165	C	0.722262	0.507606	0.940726
C166	C	0.102511	-0.159062	0.274057
C167	C	0.435844	0.174271	0.607391
C168	C	0.769178	0.507604	0.940724
C169	C	0.102382	-0.273808	0.158935
C170	C	0.435716	0.059525	0.492268
C171	C	0.769049	0.392858	0.825601
C172	C	0.055467	-0.273805	0.158939
C173	C	0.388800	0.059528	0.492272
C174	C	0.722133	0.392862	0.825606
C175	C	0.032041	-0.245119	0.187721
C176	C	0.365374	0.088215	0.521055
C177	C	0.698707	0.421548	0.854388
C178	C	0.649048	-0.333163	0.216478
C179	C	0.982382	0.000170	0.549811
C180	C	1.315715	0.333503	0.883145
C181	C	0.649054	-0.383098	0.216487
C182	C	0.982388	-0.049764	0.549820
C183	C	1.315721	0.283569	0.883154
C184	C	0.620418	-0.739699	0.245219
C185	C	0.953751	-0.406365	0.578552
C186	C	1.287084	-0.073032	0.911885
C187	C	0.620358	-0.552026	0.245205
C188	C	0.953692	-0.218692	0.578538
C189	C	1.287025	0.114641	0.911871
O190	O	0.595913	-0.527773	0.269625
O191	O	0.929246	-0.194439	0.602958
O192	O	1.262579	0.138894	0.936291
N193	N	0.649102	-0.528543	0.216500
N194	N	0.982435	-0.195210	0.549834
N195	N	1.315769	0.138124	0.883167
C196	C	0.677864	-0.551981	0.187800
C197	C	1.011198	-0.218648	0.521133
C198	C	1.344531	0.114685	0.854467
O199	O	0.702314	-0.527702	0.163388
O200	O	1.035647	-0.194368	0.496722
O201	O	1.368981	0.138965	0.830055
C202	C	0.677926	-0.739654	0.187817
C203	C	1.011259	-0.406320	0.521150
C204	C	1.344592	-0.072987	0.854483
C205	C	0.649177	-0.763134	0.216519
C206	C	0.982510	-0.429800	0.549853
C207	C	1.315844	-0.096467	0.883186
C208	C	0.591672	-0.763179	0.273919
C209	C	0.925005	-0.429846	0.607253
C210	C	1.258339	-0.096512	0.940586
C211	C	0.591685	-0.810094	0.273921
C212	C	0.925019	-0.476761	0.607254
C213	C	1.258352	-0.143428	0.940587
C214	C	0.620445	-0.833530	0.245222
C215	C	0.953778	-0.500196	0.578555
C216	C	1.287111	-0.166863	0.911888
C217	C	0.649190	-0.810049	0.216521
C218	C	0.982524	-0.476716	0.549854
C219	C	1.315857	-0.143383	0.883188
C220	C	0.706690	-0.763091	0.159119
C221	C	1.040023	-0.429758	0.492452
C222	C	1.373357	-0.096424	0.825785
C223	C	0.706703	-0.810012	0.159126
C224	C	1.040037	-0.476679	0.492460
C225	C	1.373370	-0.143345	0.825793
C226	C	0.677955	-0.833492	0.187829
C227	C	1.011288	-0.500159	0.521162
C228	C	1.344622	-0.166826	0.854496
C229	C	0.677963	-0.880400	0.187823
C230	C	1.011296	-0.547067	0.521156
C231	C	1.344630	-0.213733	0.854490
N232	N	0.649220	-0.903883	0.216527
N233	N	0.982553	-0.570549	0.549860
N234	N	1.315886	-0.237216	0.883194
C235	C	0.620460	-0.880447	0.245226
C236	C	0.953794	-0.547114	0.578560
C237	C	1.287127	-0.213781	0.911893
C238	C	0.677829	-0.453451	0.187793
C239	C	1.011163	-0.120117	0.521126
C240	C	1.344496	0.213216	0.854459
C241	C	0.677814	-0.406533	0.187788
C242	C	1.011147	-0.073200	0.521121
C243	C	1.344480	0.260134	0.854454
C244	C	0.620308	-0.406580	0.245193
C245	C	0.953642	-0.073247	0.578526
C246	C	1.286975	0.260086	0.911860
C247	C	0.620322	-0.453499	0.245195
C248	C	0.953655	-0.120166	0.578529
C249	C	1.286989	0.213168	0.911862
C250	C	0.649086	-0.476933	0.216497
C251	C	0.982419	-0.143600	0.549830
C252	C	1.315753	0.189733	0.883163
C253	C	0.620490	-0.978973	0.245227
C254	C	0.953824	-0.645640	0.578560
C255	C	1.287157	-0.312307	0.911894
C256	C	0.620505	-1.025893	0.245225
C257	C	0.953838	-0.692559	0.578558
C258	C	1.287172	-0.359226	0.911891
C259	C	0.678012	-1.025841	0.187821
C260	C	1.011345	-0.692508	0.521155
C261	C	1.344679	-0.359175	0.854488
C262	C	0.677996	-0.978926	0.187822
C263	C	1.011329	-0.645592	0.521155
C264	C	1.344662	-0.312259	0.854488
C265	C	0.649234	-0.955493	0.216528
C266	C	0.982567	-0.622160	0.549862
C267	C	1.315900	-0.288826	0.883195
O268	O	0.702399	-0.904682	0.163419
O269	O	1.035733	-0.571348	0.496753
O270	O	1.369066	-0.238015	0.830086
O271	O	0.596021	-0.904735	0.269641
O272	O	0.929355	-0.571402	0.602975
O273	O	1.262688	-0.238069	0.936308
C274	C	0.620404	-0.692783	0.245217
C275	C	0.953738	-0.359450	0.578550
C276	C	1.287071	-0.026117	0.911884
C277	C	0.649150	-0.669303	0.216516
C278	C	0.982484	-0.335970	0.549850
C279	C	1.315817	-0.002636	0.883183
C280	C	0.677909	-0.692738	0.187817
C281	C	1.011243	-0.359405	0.521150
C282	C	1.344576	-0.026071	0.854484
C283	C	0.649134	-0.622385	0.216512
C284	C	0.982468	-0.289052	0.549845
C285	C	1.315801	0.044282	0.883178
C286	C	0.620375	-0.598950	0.245211
C287	C	0.953709	-0.265617	0.578544
C288	C	1.287042	0.067717	0.911877
C289	C	0.591632	-0.622433	0.273915
C290	C	0.924965	-0.289099	0.607248
C291	C	1.258298	0.044234	0.940581
C292	C	0.591645	-0.669348	0.273916
C293	C	0.924979	-0.336015	0.607250
C294	C	1.258312	-0.002681	0.940583
C295	C	0.706653	-0.669255	0.159113
C296	C	1.039986	-0.335922	0.492446
C297	C	1.373319	-0.002589	0.825780
C298	C	0.706637	-0.622340	0.159114
C299	C	1.039970	-0.289007	0.492447
C300	C	1.373303	0.044327	0.825780
C301	C	0.677878	-0.598905	0.187813
C302	C	1.011211	-0.265571	0.521146
C303	C	1.344544	0.067762	0.854479
C304	C	0.766308	-0.216445	0.216511
C305	C	1.099642	0.116889	0.549845
C306	C	1.432975	0.450222	0.883178
C307	C	0.816243	-0.216446	0.216520
C308	C	1.149576	0.116887	0.549853
C309	C	1.482909	0.450220	0.883186
C310	C	0.649142	-0.216437	0.333670
C311	C	0.982475	0.116897	0.667003
C312	C	1.315809	0.450230	1.000337
C313	C	0.649147	-0.216435	0.383605
C314	C	0.982481	0.116898	0.716938
C315	C	1.315814	0.450232	1.050271
C316	C	0.649224	-0.099262	0.216515
C317	C	0.982558	0.234071	0.549849
C318	C	1.315891	0.567404	0.883182
C319	C	0.649264	-0.049328	0.216525
C320	C	0.982598	0.284005	0.549859
C321	C	1.315931	0.617339	0.883192
C322	C	0.649144	-0.216412	0.099769
C323	C	0.982477	0.116921	0.433103
C324	C	1.315810	0.450254	0.766436
C325	C	0.649226	-0.216288	0.049835
C326	C	0.982559	0.117046	0.383168
C327	C	1.315892	0.450379	0.716502
C328	C	0.677934	-0.187627	0.693262
C329	C	1.011268	0.145706	1.026595
C330	C	1.344601	0.479040	1.359928
C331	C	0.677956	-0.187589	0.880935
C332	C	1.011290	0.145744	1.214268
C333	C	1.344623	0.479078	1.547601
O334	O	0.702399	-0.163138	0.905211
O335	O	1.035732	0.170195	1.238544
O336	O	1.369065	0.503529	1.571878
N337	N	0.649207	-0.216315	0.904390
N338	N	0.982540	0.117019	1.237723
N339	N	1.315874	0.450352	1.571056
C340	C	0.620448	-0.245050	0.880924
C341	C	0.953781	0.088283	1.214257
C342	C	1.287114	0.421617	1.547590
O343	O	0.595991	-0.269479	0.905180
O344	O	0.929325	0.063854	1.238513
O345	O	1.262658	0.397188	1.571847
C346	C	0.620423	-0.245086	0.693251
C347	C	0.953757	0.088247	1.026585
C348	C	1.287090	0.421581	1.359918
C349	C	0.649178	-0.216361	0.669799
C350	C	0.982511	0.116972	1.003132
C351	C	1.315845	0.450305	1.336465
C352	C	0.706686	-0.158905	0.669809
C353	C	1.040020	0.174429	1.003142
C354	C	1.373353	0.507762	1.336476
C355	C	0.706682	-0.158916	0.622893
C356	C	1.040015	0.174417	0.956227
C357	C	1.373349	0.507750	1.289560
C358	C	0.677926	-0.187650	0.599431
C359	C	1.011259	0.145683	0.932764
C360	C	1.344593	0.479016	1.266097
C361	C	0.649174	-0.216373	0.622883
C362	C	0.982507	0.116960	0.956217
C363	C	1.315841	0.450294	1.289550
C364	C	0.591662	-0.273819	0.669786
C365	C	0.924995	0.059515	1.003120
C366	C	1.258329	0.392848	1.336453
C367	C	0.591658	-0.273824	0.622865
C368	C	0.924991	0.059509	0.956199
C369	C	1.258324	0.392842	1.289532
C370	C	0.620412	-0.245100	0.599413
C371	C	0.953746	0.088234	0.932746
C372	C	1.287079	0.421567	1.266079
C373	C	0.620414	-0.245119	0.552505
C374	C	0.953747	0.088215	0.885838
C375	C	1.287080	0.421548	1.219172
N376	N	0.649163	-0.216393	0.529050
N377	N	0.982497	0.116941	0.862383
N378	N	1.315830	0.450274	1.195717
C379	C	0.677919	-0.187659	0.552513
C380	C	1.011253	0.145675	0.885846
C381	C	1.344586	0.479008	1.219179
C382	C	0.620463	-0.245030	0.979454
C383	C	0.953796	0.088303	1.312788
C384	C	1.287130	0.421637	1.646121
C385	C	0.620469	-0.245022	1.026372
C386	C	0.953803	0.088312	1.359706
C387	C	1.287136	0.421645	1.693039
C388	C	0.677978	-0.187560	1.026380
C389	C	1.011311	0.145774	1.359713
C390	C	1.344645	0.479107	1.693047
C391	C	0.677973	-0.187571	0.979461
C392	C	1.011307	0.145763	1.312795
C393	C	1.344640	0.479096	1.646128
C394	C	0.649213	-0.216304	0.955999
C395	C	0.982546	0.117029	1.289333
C396	C	1.315879	0.450363	1.622666
C397	C	0.677909	-0.187685	0.453987
C398	C	1.011242	0.145648	0.787320
C399	C	1.344575	0.478981	1.120654
C400	C	0.677903	-0.187701	0.407067
C401	C	1.011237	0.145632	0.740401
C402	C	1.344570	0.478966	1.073734
C403	C	0.620393	-0.245161	0.407064
C404	C	0.953727	0.088172	0.740397
C405	C	1.287060	0.421506	1.073730
C406	C	0.620400	-0.245147	0.453979
C407	C	0.953734	0.088186	0.787312
C408	C	1.287067	0.421519	1.120646
C409	C	0.649159	-0.216406	0.477440
C410	C	0.982493	0.116927	0.810773
C411	C	1.315826	0.450261	1.144106
O412	O	0.595981	-0.269553	0.528200
O413	O	0.929314	0.063780	0.861533
O414	O	1.262647	0.397113	1.194866
O415	O	0.702365	-0.163226	0.528249
O416	O	1.035698	0.170107	0.861582
O417	O	1.369031	0.503440	1.194915
C418	C	0.677938	-0.187616	0.740177
C419	C	1.011272	0.145718	1.073510
C420	C	1.344605	0.479051	1.406844
C421	C	0.649186	-0.216338	0.763630
C422	C	0.982520	0.116995	1.096963
C423	C	1.315853	0.450329	1.430296
C424	C	0.620430	-0.245072	0.740167
C425	C	0.953763	0.088261	1.073500
C426	C	1.287097	0.421594	1.406834
C427	C	0.649193	-0.216330	0.810548
C428	C	0.982526	0.117003	1.143881
C429	C	1.315860	0.450337	1.477214
C430	C	0.677949	-0.187596	0.834010
C431	C	1.011282	0.145738	1.167344
C432	C	1.344616	0.479071	1.500677
C433	C	0.706699	-0.158870	0.810555
C434	C	1.040032	0.174464	1.143889
C435	C	1.373365	0.507797	1.477222
C436	C	0.706694	-0.158881	0.763640
C437	C	1.040028	0.174452	1.096973
C438	C	1.373361	0.507785	1.430307
C439	C	0.591681	-0.273798	0.763622
C440	C	0.925014	0.059535	1.096955
C441	C	1.258347	0.392869	1.430289
C442	C	0.591687	-0.273785	0.810538
C443	C	0.925021	0.059549	1.143871
C444	C	1.258354	0.392882	1.477204
C445	C	0.620444	-0.245050	0.834000
C446	C	0.953777	0.088283	1.167334
C447	C	1.287110	0.421616	1.500667
H448	H	0.177273	-0.135702	0.297492
H449	H	0.510607	0.197631	0.630825
H450	H	0.843940	0.530964	0.964159
H451	H	0.730046	-0.603225	0.135736
H452	H	1.063379	-0.269892	0.469070
H453	H	1.396713	0.063441	0.802403
C454	C	0.128144	-0.305369	0.127272
C455	C	0.461478	0.027964	0.460605
C456	C	0.794811	0.361298	0.793938
N457	N	0.147547	-0.329144	0.103423
N458	N	0.480880	0.004189	0.436756
N459	N	0.814213	0.337522	0.770089
C460	C	0.029634	-0.305364	0.127271
C461	C	0.362967	0.027970	0.460605
C462	C	0.696300	0.361303	0.793938
N463	N	0.010178	-0.329129	0.103416
N464	N	0.343511	0.004204	0.436750
N465	N	0.676845	0.337537	0.770083
H466	H	0.730096	-0.135525	0.603803
H467	H	1.063430	0.197808	0.937136
H468	H	1.396763	0.531142	1.270469
C469	C	0.588879	-1.051718	0.276802
C470	C	0.922212	-0.718385	0.610135
C471	C	1.255546	-0.385052	0.943469
N472	N	0.565060	-1.071169	0.300586
N473	N	0.898393	-0.737835	0.633920
N474	N	1.231726	-0.404502	0.967253
C475	C	0.269090	-0.127501	0.305710
C476	C	0.602423	0.205832	0.639043
C477	C	0.935756	0.539165	0.972377
N478	N	0.288543	-0.103723	0.329554
N479	N	0.621877	0.229610	0.662887
N480	N	0.955210	0.562944	0.996221
H481	H	0.701393	-0.164164	1.045491
H482	H	1.034726	0.169170	1.378825
H483	H	1.368059	0.502503	1.712158
H484	H	0.701326	-0.164280	0.473083
H485	H	1.034659	0.169053	0.806416
H486	H	1.367992	0.502387	1.139750
C487	C	0.588761	-0.276765	0.381246
C488	C	0.922094	0.056569	0.714579
C489	C	1.255428	0.389902	1.047912
N490	N	0.564932	-0.300566	0.361798
N491	N	0.898265	0.032767	0.695131
N492	N	1.231599	0.366101	1.028465
H493	H	0.568247	-0.297209	0.688873
H494	H	0.901580	0.036124	1.022207
H495	H	1.234913	0.369457	1.355540
H496	H	-0.179452	-0.268497	0.164304
H497	H	0.153881	0.064836	0.497638
H498	H	0.487214	0.398169	0.830971
C499	C	0.738345	-0.835787	0.127553
C500	C	1.071679	-0.502454	0.460886
C501	C	1.405012	-0.169120	0.794220
N502	N	0.762177	-0.855200	0.103771
N503	N	1.095510	-0.521866	0.437104
N504	N	1.428843	-0.188533	0.770438
H505	H	0.568213	-0.603344	0.297281
H506	H	0.901546	-0.270011	0.630615
H507	H	1.234880	0.063323	0.963948
H508	H	0.730103	-0.135503	0.688907
H509	H	1.063436	0.197830	1.022241
H510	H	1.396770	0.531163	1.355574
C511	C	0.709432	-0.380710	0.156205
C512	C	1.042765	-0.047377	0.489538
C513	C	1.376098	0.285957	0.822872
N514	N	0.733248	-0.361262	0.132417
N515	N	1.066582	-0.027928	0.465750
N516	N	1.399915	0.305405	0.799083
H517	H	0.701387	-0.164180	0.960369
H518	H	1.034721	0.169154	1.293703
H519	H	1.368054	0.502487	1.627036
C520	C	0.709622	-0.953097	0.156250
C521	C	1.042956	-0.619763	0.489583
C522	C	1.376289	-0.286430	0.822916
N523	N	0.733449	-0.933645	0.132473
N524	N	1.066782	-0.600312	0.465807
N525	N	1.400115	-0.266979	0.799140
C526	C	0.588840	-0.276624	1.052165
C527	C	0.922174	0.056709	1.385498
C528	C	1.255507	0.390042	1.718832
N529	N	0.565014	-0.300426	1.071590
N530	N	0.898347	0.032907	1.404924
N531	N	1.231680	0.366241	1.738257
H532	H	0.597043	-0.268431	0.960356
H533	H	0.930376	0.064902	1.293689
H534	H	1.263709	0.398235	1.627023
H535	H	0.568253	-0.744102	0.297292
H536	H	0.901586	-0.410769	0.630625
H537	H	1.234920	-0.077436	0.963958
C538	C	0.588700	-0.479323	0.276773
C539	C	0.922033	-0.145990	0.610106
C540	C	1.255366	0.187344	0.943440
N541	N	0.564881	-0.498771	0.300560
N542	N	0.898215	-0.165438	0.633893
N543	N	1.231548	0.167895	0.967226
C544	C	0.738289	-0.695028	0.127537
C545	C	1.071622	-0.361694	0.460870
C546	C	1.404956	-0.028361	0.794203
N547	N	0.762117	-0.714437	0.103749
N548	N	1.095450	-0.381104	0.437082
N549	N	1.428784	-0.047771	0.770416
H550	H	0.568232	-0.297218	0.603765
H551	H	0.901565	0.036115	0.937098
H552	H	1.234899	0.369448	1.270432
C553	C	0.738324	-0.127278	0.737848
C554	C	1.071657	0.206055	1.071181
C555	C	1.404990	0.539388	1.404515
N556	N	0.762147	-0.103471	0.718425
N557	N	1.095480	0.229862	1.051758
N558	N	1.428814	0.563195	1.385091
C559	C	-0.186043	-0.156198	0.276958
C560	C	0.147290	0.177136	0.610292
C561	C	0.480624	0.510469	0.943625
N562	N	-0.205461	-0.132427	0.300799
N563	N	0.127873	0.200906	0.634132
N564	N	0.461206	0.534240	0.967465
C565	C	0.588772	-0.276748	0.479778
C566	C	0.922105	0.056585	0.813111
C567	C	1.255438	0.389918	1.146444
N568	N	0.564945	-0.300548	0.499206
N569	N	0.898279	0.032785	0.832540
N570	N	1.231612	0.366119	1.165873
C571	C	0.560052	-0.305386	0.836330
C572	C	0.893385	0.027948	1.169663
C573	C	1.226719	0.361281	1.502997
N574	N	0.536222	-0.329184	0.855755
N575	N	0.869555	0.004150	1.189089
N576	N	1.202888	0.337483	1.522422
C577	C	0.709470	-0.479223	0.156216
C578	C	1.042803	-0.145889	0.489549
C579	C	1.376137	0.187444	0.822882
N580	N	0.733300	-0.498632	0.132429
N581	N	1.066633	-0.165299	0.465763
N582	N	1.399966	0.168035	0.799096
H583	H	0.478170	-0.164399	0.268697
H584	H	0.811503	0.168934	0.602031
H585	H	1.144836	0.502267	0.935364
H586	H	0.597070	-0.959899	0.268603
H587	H	0.930404	-0.626566	0.601936
H588	H	1.263737	-0.293233	0.935270
H589	H	0.262209	-0.297163	0.135476
H590	H	0.595543	0.036171	0.468809
H591	H	0.928876	0.369504	0.802143
C592	C	0.386368	-0.156193	0.276928
C593	C	0.719701	0.177140	0.610261
C594	C	1.053035	0.510473	0.943595
N595	N	0.366966	-0.132423	0.300782
N596	N	0.700300	0.200910	0.634116
N597	N	1.033633	0.534243	0.967449
C598	C	-0.087652	-0.276691	0.156066
C599	C	0.245682	0.056642	0.489399
C600	C	0.579015	0.389975	0.822732
N601	N	-0.068250	-0.300465	0.132215
N602	N	0.265084	0.032868	0.465548
N603	N	0.598417	0.366201	0.798882
C604	C	0.386223	-0.276693	0.156039
C605	C	0.719556	0.056640	0.489372
C606	C	1.052889	0.389974	0.822705
N607	N	0.366764	-0.300463	0.132190
N608	N	0.700097	0.032871	0.465523
N609	N	1.033430	0.366204	0.798856
C610	C	0.560044	-0.305409	0.737819
C611	C	0.893378	0.027924	1.071153
C612	C	1.226711	0.361257	1.404486
N613	N	0.536215	-0.329222	0.718387
N614	N	0.869548	0.004111	1.051720
N615	N	1.202882	0.337444	1.385053
C616	C	-0.087513	-0.156195	0.276958
C617	C	0.245820	0.177138	0.610291
C618	C	0.579154	0.510471	0.943625
N619	N	-0.068057	-0.132421	0.300804
N620	N	0.265276	0.200913	0.634138
N621	N	0.598609	0.534246	0.967471
C622	C	0.484755	-0.276685	0.156030
C623	C	0.818088	0.056648	0.489364
C624	C	1.151421	0.389982	0.822697
N625	N	0.504172	-0.300445	0.132179
N626	N	0.837505	0.032888	0.465512
N627	N	1.170839	0.366221	0.798845
C628	C	0.738328	-0.127260	0.836374
C629	C	1.071662	0.206073	1.169707
C630	C	1.404995	0.539407	1.503040
N631	N	0.762148	-0.103450	0.855822
N632	N	1.095481	0.229883	1.189155
N633	N	1.428814	0.563217	1.522489
C634	C	0.709644	-1.051629	0.156252
C635	C	1.042977	-0.718296	0.489585
C636	C	1.376310	-0.384962	0.822918
N637	N	0.733470	-1.071053	0.132475
N638	N	1.066804	-0.737720	0.465808
N639	N	1.400137	-0.404387	0.799142
C640	C	0.128343	-0.127500	0.305718
C641	C	0.461677	0.205833	0.639051
C642	C	0.795010	0.539166	0.972385
N643	N	0.147797	-0.103725	0.329565
N644	N	0.481130	0.229609	0.662898
N645	N	0.814464	0.562942	0.996232
H646	H	0.568236	-0.688462	0.297290
H647	H	0.901569	-0.355128	0.630623
H648	H	1.234902	-0.021795	0.963956
H649	H	0.177101	-0.297168	0.135482
H650	H	0.510434	0.036166	0.468815
H651	H	0.843768	0.369499	0.802149
C652	C	0.560063	-0.835917	0.305499
C653	C	0.893396	-0.502583	0.638833
C654	C	1.226729	-0.169250	0.972166
N655	N	0.536244	-0.855363	0.329287
N656	N	0.869577	-0.522030	0.662621
N657	N	1.202910	-0.188696	0.995954
H658	H	0.701321	-0.164310	0.387974
H659	H	1.034654	0.169024	0.721308
H660	H	1.367987	0.502357	1.054641
H661	H	0.036514	-0.135705	0.297496
H662	H	0.369847	0.197628	0.630829
H663	H	0.703181	0.530962	0.964163
H664	H	0.596891	-0.387492	0.268561
H665	H	0.930224	-0.054158	0.601894
H666	H	1.263557	0.279175	0.935227
H667	H	0.730100	-0.743980	0.135747
H668	H	1.063433	-0.410647	0.469080
H669	H	1.396766	-0.077313	0.802413
