data_functionalizedCrystal
_audit_creation_method	'MofGen! by Chris Wilmer'
_symmetry_space_group_name_H-M	'P1'
_symmetry_Int_Tables_number	1
_symmetry_cell_setting	triclinic
loop_
_symmetry_equiv_pos_as_xyz
  x,y,z
_cell_length_a	16.120490
_cell_length_b	16.120444
_cell_length_c	19.076919
_cell_angle_alpha	95.047308
_cell_angle_beta	89.501355
_cell_angle_gamma	90.165174
loop_
_atom_site_label
_atom_site_type_symbol
_atom_site_fract_x
_atom_site_fract_y
_atom_site_fract_z
Zn1	Zn	1.231078	-0.416797	-0.468390
Zn2	Zn	1.481078	-0.166797	-0.218390
Zn3	Zn	1.731078	0.083203	0.031610
Zn4	Zn	1.981078	0.333203	0.281610
Zn5	Zn	1.229513	-0.550806	-0.356362
Zn6	Zn	1.479513	-0.300806	-0.106362
Zn7	Zn	1.729513	-0.050806	0.143638
Zn8	Zn	1.979513	0.199194	0.393638
Zn9	Zn	1.098205	-0.404170	-0.344490
Zn10	Zn	1.348205	-0.154170	-0.094490
Zn11	Zn	1.598205	0.095830	0.155510
Zn12	Zn	1.848205	0.345830	0.405510
Zn13	Zn	1.084959	-0.548714	-0.467750
Zn14	Zn	1.334959	-0.298714	-0.217750
Zn15	Zn	1.584959	-0.048714	0.032250
Zn16	Zn	1.834959	0.201286	0.282250
O17	O	1.160939	-0.480122	-0.409248
O18	O	1.410939	-0.230122	-0.159248
O19	O	1.660939	0.019878	0.090752
O20	O	1.910939	0.269878	0.340752
O21	O	1.346974	-0.440734	-0.458765
O22	O	1.596974	-0.190734	-0.208765
O23	O	1.846974	0.059266	0.041235
O24	O	2.096974	0.309266	0.291235
O25	O	1.216983	-0.526945	-0.256318
O26	O	1.466983	-0.276945	-0.006318
O27	O	1.716983	-0.026945	0.243682
O28	O	1.966983	0.223055	0.493682
O29	O	1.122029	-0.289270	-0.356226
O30	O	1.372029	-0.039270	-0.106226
O31	O	1.622029	0.210730	0.143774
O32	O	1.872029	0.460730	0.393774
O33	O	1.345825	-0.539189	-0.376459
O34	O	1.595825	-0.289189	-0.126459
O35	O	1.845825	-0.039189	0.123541
O36	O	2.095825	0.210811	0.373541
O37	O	1.219650	-0.298547	-0.447254
O38	O	1.469650	-0.048547	-0.197254
O39	O	1.719650	0.201453	0.052746
O40	O	1.969650	0.451453	0.302746
O41	O	1.120511	-0.419212	-0.247596
O42	O	1.370511	-0.169212	0.002404
O43	O	1.620511	0.080788	0.252404
O44	O	1.870511	0.330788	0.502404
O45	O	0.980343	-0.417184	-0.355605
O46	O	1.230343	-0.167184	-0.105605
O47	O	1.480343	0.082816	0.144395
O48	O	1.730343	0.332816	0.394395
O49	O	1.099454	-0.535624	-0.566304
O50	O	1.349454	-0.285624	-0.316304
O51	O	1.599454	-0.035624	-0.066304
O52	O	1.849454	0.214376	0.183696
O53	O	0.970612	-0.523380	-0.446163
O54	O	1.220612	-0.273380	-0.196163
O55	O	1.470612	-0.023380	0.053837
O56	O	1.720612	0.226620	0.303837
O57	O	1.206807	-0.438705	-0.566774
O58	O	1.456807	-0.188705	-0.316774
O59	O	1.706807	0.061295	-0.066774
O60	O	1.956807	0.311295	0.183226
O61	O	1.204139	-0.667103	-0.375838
O62	O	1.454139	-0.417103	-0.125838
O63	O	1.704139	-0.167103	0.124162
O64	O	1.954139	0.082897	0.374162
O65	O	1.097937	-0.665566	-0.457675
O66	O	1.347937	-0.415566	-0.207675
O67	O	1.597937	-0.165566	0.042325
O68	O	1.847937	0.084434	0.292325
C69	C	0.945373	-0.468685	-0.399527
C70	C	1.195373	-0.218685	-0.149527
C71	C	1.445373	0.031315	0.100473
C72	C	1.695373	0.281315	0.350473
C73	C	0.853152	-0.463813	-0.395386
C74	C	1.103152	-0.213813	-0.145386
C75	C	1.353152	0.036187	0.104614
C76	C	1.603152	0.286187	0.354614
C77	C	1.149453	-0.696563	-0.417992
C78	C	1.399453	-0.446563	-0.167992
C79	C	1.649453	-0.196563	0.082008
C80	C	1.899453	0.053437	0.332008
C81	C	1.144614	-0.789163	-0.421759
C82	C	1.394614	-0.539163	-0.171759
C83	C	1.644614	-0.289163	0.078241
C84	C	1.894614	-0.039163	0.328241
C85	C	0.638416	-0.505385	-0.430730
C86	C	0.888416	-0.255385	-0.180730
C87	C	1.138416	-0.005385	0.069270
C88	C	1.388416	0.244615	0.319270
C89	C	0.684306	-0.454927	-0.387825
C90	C	0.934306	-0.204927	-0.137825
C91	C	1.184306	0.045073	0.112175
C92	C	1.434306	0.295073	0.362175
C93	C	0.778260	-0.459873	-0.392033
C94	C	1.028260	-0.209873	-0.142033
C95	C	1.278260	0.040127	0.107967
C96	C	1.528260	0.290127	0.357967
C97	C	0.544453	-0.500440	-0.426522
C98	C	0.794453	-0.250440	-0.176522
C99	C	1.044453	-0.000440	0.073478
C100	C	1.294453	0.249560	0.323478
C101	C	1.186237	-1.000701	-0.389865
C102	C	1.436237	-0.750701	-0.139865
C103	C	1.686237	-0.500701	0.110135
C104	C	1.936237	-0.250701	0.360135
C105	C	1.135794	-0.958700	-0.428645
C106	C	1.385794	-0.708700	-0.178645
C107	C	1.635794	-0.458700	0.071355
C108	C	1.885794	-0.208700	0.321355
C109	C	1.140703	-0.864361	-0.424813
C110	C	1.390703	-0.614361	-0.174813
C111	C	1.640703	-0.364361	0.075187
C112	C	1.890703	-0.114361	0.325187
C113	C	1.181329	-1.095048	-0.393697
C114	C	1.431329	-0.845048	-0.143697
C115	C	1.681329	-0.595048	0.106303
C116	C	1.931329	-0.345048	0.356303
C117	C	1.377346	-0.491603	-0.419007
C118	C	1.627346	-0.241603	-0.169007
C119	C	1.877346	0.008397	0.080993
C120	C	2.127346	0.258397	0.330993
C121	C	1.469565	-0.496496	-0.423166
C122	C	1.719565	-0.246496	-0.173166
C123	C	1.969565	0.003504	0.076834
C124	C	2.219565	0.253504	0.326834
C125	C	1.151827	-0.488340	-0.592784
C126	C	1.401827	-0.238340	-0.342784
C127	C	1.651827	0.011660	-0.092784
C128	C	1.901827	0.261660	0.157216
C129	C	1.147945	-0.491842	-0.670997
C130	C	1.397945	-0.241842	-0.420997
C131	C	1.647945	0.008158	-0.170997
C132	C	1.897945	0.258158	0.079003
C133	C	1.172491	-0.262836	-0.400487
C134	C	1.422491	-0.012836	-0.150487
C135	C	1.672491	0.237164	0.099513
C136	C	1.922491	0.487164	0.349513
C137	C	1.177414	-0.170243	-0.396753
C138	C	1.427414	0.079757	-0.146753
C139	C	1.677414	0.329757	0.103247
C140	C	1.927414	0.579757	0.353247
C141	C	1.202011	-0.443029	-0.707987
C142	C	1.452011	-0.193029	-0.457987
C143	C	1.702011	0.056971	-0.207987
C144	C	1.952011	0.306971	0.042013
C145	C	1.198352	-0.446316	-0.781475
C146	C	1.448352	-0.196316	-0.531475
C147	C	1.698352	0.053684	-0.281475
C148	C	1.948352	0.303684	-0.031475
C149	C	1.140632	-0.498420	-0.817972
C150	C	1.390632	-0.248420	-0.567972
C151	C	1.640632	0.001580	-0.317972
C152	C	1.890632	0.251580	-0.067972
C153	C	1.086560	-0.547235	-0.780977
C154	C	1.336560	-0.297235	-0.530977
C155	C	1.586560	-0.047235	-0.280977
C156	C	1.836560	0.202765	-0.030977
C157	C	1.090215	-0.543943	-0.707489
C158	C	1.340215	-0.293943	-0.457489
C159	C	1.590215	-0.043943	-0.207489
C160	C	1.840215	0.206057	0.042511
C161	C	1.123704	-0.513672	-1.037729
C162	C	1.373704	-0.263672	-0.787729
C163	C	1.623704	-0.013672	-0.537729
C164	C	1.873704	0.236328	-0.287729
C165	C	1.120055	-0.516962	-1.111221
C166	C	1.370055	-0.266962	-0.861221
C167	C	1.620055	-0.016962	-0.611221
C168	C	1.870055	0.233038	-0.361221
C169	C	1.231847	-0.416042	-1.111714
C170	C	1.481847	-0.166042	-0.861714
C171	C	1.731847	0.083958	-0.611714
C172	C	1.981847	0.333958	-0.361714
C173	C	1.235500	-0.412758	-1.038226
C174	C	1.485500	-0.162758	-0.788226
C175	C	1.735500	0.087242	-0.538226
C176	C	1.985500	0.337242	-0.288226
C177	C	1.181425	-0.461569	-1.001237
C178	C	1.431425	-0.211569	-0.751237
C179	C	1.681425	0.038431	-0.501237
C180	C	1.931425	0.288431	-0.251237
N181	N	1.136893	-0.501783	-0.893089
N182	N	1.386893	-0.251783	-0.643089
N183	N	1.636893	-0.001783	-0.393089
N184	N	1.886893	0.248217	-0.143089
N185	N	1.185161	-0.458201	-0.926121
N186	N	1.435161	-0.208201	-0.676121
N187	N	1.685161	0.041799	-0.426121
N188	N	1.935161	0.291799	-0.176121
C189	C	1.170065	-0.471878	-0.226425
C190	C	1.420065	-0.221878	0.023575
C191	C	1.670065	0.028122	0.273575
C192	C	1.920065	0.278122	0.523575
C193	C	1.174121	-0.468150	-0.148211
C194	C	1.424121	-0.218150	0.101789
C195	C	1.674121	0.031850	0.351789
C196	C	1.924121	0.281850	0.601789
H197	H	0.653031	-0.408013	-0.347931
H198	H	0.903031	-0.158013	-0.097931
H199	H	1.153031	0.091987	0.152069
H200	H	1.403031	0.341987	0.402069
H201	H	1.233105	-0.965812	-0.353787
H202	H	1.483105	-0.715812	-0.103787
H203	H	1.733105	-0.465812	0.146213
H204	H	1.983105	-0.215812	0.396213
H205	H	0.669689	-0.552296	-0.470619
H206	H	0.919689	-0.302296	-0.220619
H207	H	1.169689	-0.052296	0.029381
H208	H	1.419689	0.197704	0.279381
Cl209	Cl	1.063422	-1.012568	-0.484347
Cl210	Cl	1.313422	-0.762568	-0.234347
Cl211	Cl	1.563422	-0.512568	0.015653
Cl212	Cl	1.813422	-0.262568	0.265653
H213	H	1.249015	-0.400602	-0.678277
H214	H	1.499015	-0.150602	-0.428277
H215	H	1.749015	0.099398	-0.178277
H216	H	1.999015	0.349398	0.071723
H217	H	1.242380	-0.406569	-0.811589
H218	H	1.492380	-0.156569	-0.561589
H219	H	1.742380	0.093431	-0.311589
H220	H	1.992380	0.343431	-0.061589
H221	H	1.282504	-0.370331	-1.008515
H222	H	1.532504	-0.120331	-0.758515
H223	H	1.782504	0.129669	-0.508515
H224	H	2.032504	0.379669	-0.258515
Cl225	Cl	1.047482	-0.582465	-1.157102
Cl226	Cl	1.297482	-0.332465	-0.907102
Cl227	Cl	1.547482	-0.082465	-0.657102
Cl228	Cl	1.797482	0.167535	-0.407102
Cl229	Cl	1.299819	-0.354680	-1.158219
Cl230	Cl	1.549819	-0.104680	-0.908219
Cl231	Cl	1.799819	0.145320	-0.658219
Cl232	Cl	2.049819	0.395320	-0.408219
Cl233	Cl	1.055725	-0.575036	-0.991237
Cl234	Cl	1.305725	-0.325036	-0.741237
Cl235	Cl	1.555725	-0.075036	-0.491237
Cl236	Cl	1.805725	0.174964	-0.241237
H237	H	1.039560	-0.589657	-0.810698
H238	H	1.289560	-0.339657	-0.560698
H239	H	1.539560	-0.089657	-0.310698
H240	H	1.789560	0.160343	-0.060698
Cl241	Cl	1.022241	-0.605308	-0.660987
Cl242	Cl	1.272241	-0.355308	-0.410987
Cl243	Cl	1.522241	-0.105308	-0.160987
Cl244	Cl	1.772241	0.144692	0.089013
