data_functionalizedCrystal
_audit_creation_method	'MofGen! by Chris Wilmer'
_symmetry_space_group_name_H-M	'P1'
_symmetry_Int_Tables_number	1
_symmetry_cell_setting	triclinic
loop_
_symmetry_equiv_pos_as_xyz
  x,y,z
_cell_length_a	14.044220
_cell_length_b	10.489741
_cell_length_c	12.503572
_cell_angle_alpha	93.559494
_cell_angle_beta	86.164750
_cell_angle_gamma	88.864026
loop_
_atom_site_label
_atom_site_type_symbol
_atom_site_fract_x
_atom_site_fract_y
_atom_site_fract_z
O1	O	1.265220	0.300990	-0.089205
O2	O	0.989177	0.289883	-0.089232
O3	O	1.133479	0.110477	-0.089211
O4	O	1.120918	0.480397	-0.089225
O5	O	1.122627	0.123993	0.089429
O6	O	0.978325	0.303400	0.089408
O7	O	1.254368	0.314507	0.089436
Cu8	Cu	1.115355	0.310188	0.105733
Cu9	Cu	1.128189	0.294203	-0.105530
O10	O	1.110065	0.493914	0.089415
C11	C	0.948403	0.291780	0.000085
C12	C	0.843079	0.277280	0.000074
C13	C	1.127104	0.069607	0.000108
C14	C	1.124266	-0.072311	0.000106
C15	C	0.650235	0.250773	0.000097
C16	C	0.593304	0.353611	0.000097
C17	C	0.485999	0.338862	0.000110
C18	C	0.757550	0.265520	0.000084
C19	C	1.032451	-0.149764	0.000089
C20	C	1.070473	-0.230823	0.088172
C21	C	1.081194	-0.244122	-0.087953
C22	C	1.162321	-0.151494	0.088262
C23	C	1.173035	-0.164791	-0.087943
C24	C	1.211122	-0.245814	0.000162
C25	C	1.295142	0.312610	0.000116
C26	C	1.400466	0.327110	0.000120
C27	C	1.116440	0.534783	0.000093
C28	C	1.119279	0.676700	0.000088
N29	N	1.106335	0.321431	0.254324
N30	N	1.137217	0.282950	-0.254121
C31	C	1.093067	0.337981	0.473438
C32	C	1.150482	0.266404	0.526773
C33	C	1.143099	0.275613	0.648695
C34	C	1.100449	0.328774	0.351504
H35	H	0.618389	0.151662	0.000106
H36	H	1.038372	0.406172	0.519337
O37	O	0.631182	0.471921	-0.000070
C38	C	0.649361	0.665584	-0.092696
C39	C	0.606390	0.531643	-0.092619
H40	H	0.629350	0.713898	-0.167525
H41	H	0.620228	0.725418	-0.017993
H42	H	0.730385	0.656554	-0.092657
H43	H	0.525366	0.540553	-0.092696
H44	H	0.635598	0.471859	-0.167315
H45	H	1.205182	0.198210	0.480868
O46	O	1.224608	-0.129826	-0.176884
C47	C	1.240192	-0.137434	-0.370286
C48	C	1.181696	-0.177095	-0.269639
H49	H	1.205532	-0.175656	-0.445303
H50	H	1.242412	-0.028774	-0.369073
H51	H	1.315988	-0.178586	-0.370985
H52	H	1.105873	-0.136030	-0.268874
H53	H	1.179555	-0.285760	-0.270891
O54	O	0.942360	-0.099693	0.000370
C55	C	0.786562	-0.076294	0.093512
C56	C	0.888557	-0.133050	0.093335
H57	H	0.743027	-0.103264	0.168655
H58	H	0.789553	0.032181	0.092815
H59	H	0.751576	-0.115861	0.019143
H60	H	0.923602	-0.093582	0.167692
H61	H	0.885501	-0.241524	0.093976
H62	H	1.027100	-0.260141	0.162633
O63	O	1.040218	-0.292713	-0.176715
C64	C	0.992510	-0.481891	-0.276700
C65	C	1.038923	-0.427038	-0.176128
H66	H	0.991466	-0.590501	-0.276271
H67	H	0.916305	-0.442340	-0.276591
H68	H	1.035466	-0.453432	-0.351742
H69	H	0.996043	-0.455477	-0.101034
H70	H	1.115136	-0.466586	-0.176333
O71	O	1.203165	-0.103082	0.177171
C72	C	1.251715	0.085819	0.276891
C73	C	1.205429	0.031162	0.176170
H74	H	1.253579	0.194360	0.276104
H75	H	1.208281	0.058206	0.351894
H76	H	1.327622	0.045334	0.277204
H77	H	1.129527	0.071618	0.175754
H78	H	1.248934	0.058764	0.101213
H79	H	1.286677	-0.287570	0.000218
