data_functionalizedCrystal
_audit_creation_method	'MofGen! by Chris Wilmer'
_symmetry_space_group_name_H-M	'P1'
_symmetry_Int_Tables_number	1
_symmetry_cell_setting	triclinic
loop_
_symmetry_equiv_pos_as_xyz
  x,y,z
_cell_length_a	12.759401
_cell_length_b	19.805405
_cell_length_c	12.759393
_cell_angle_alpha	89.965059
_cell_angle_beta	89.981433
_cell_angle_gamma	90.025770
loop_
_atom_site_label
_atom_site_type_symbol
_atom_site_fract_x
_atom_site_fract_y
_atom_site_fract_z
Zn1	Zn	1.606168	-0.269441	-0.593959
Zn2	Zn	1.606025	-0.382645	-0.418268
Zn3	Zn	1.430470	-0.269474	-0.418298
Zn4	Zn	1.430421	-0.382591	-0.593910
O5	O	1.518271	-0.326038	-0.506109
O6	O	1.753170	-0.284466	-0.570661
O7	O	1.582698	-0.367670	-0.271251
O8	O	1.453856	-0.174753	-0.441632
O9	O	1.753065	-0.367637	-0.441582
O10	O	1.582941	-0.174728	-0.570690
O11	O	1.453718	-0.284523	-0.271273
O12	O	1.283442	-0.284470	-0.441585
O13	O	1.453774	-0.367545	-0.740937
O14	O	1.283407	-0.367577	-0.570606
O15	O	1.582894	-0.284414	-0.740973
O16	O	1.582651	-0.477355	-0.441535
O17	O	1.453636	-0.477315	-0.570578
C18	C	1.245304	-0.326022	-0.506094
C19	C	1.128527	-0.326031	-0.506113
C20	C	1.073712	-0.282806	-0.573428
C21	C	0.963988	-0.282819	-0.573435
C22	C	0.963903	-0.369289	-0.438807
C23	C	1.073625	-0.369272	-0.438796
C24	C	1.073761	-0.232885	-0.651158
C25	C	0.964037	-0.232898	-0.651164
C26	C	1.518151	-0.501894	-0.506071
C27	C	1.518196	-0.577126	-0.506089
C28	C	1.585371	-0.612399	-0.573342
C29	C	1.585409	-0.683087	-0.573362
C30	C	1.518276	-0.718501	-0.506122
C31	C	1.451094	-0.683223	-0.438867
C32	C	1.451052	-0.612536	-0.438853
C33	C	1.451263	-0.968296	-0.438921
C34	C	1.451313	-1.038988	-0.438937
C35	C	1.585620	-1.038848	-0.573429
C36	C	1.585577	-0.968161	-0.573416
C37	C	1.518392	-0.932889	-0.506164
C38	C	1.518350	-0.856240	-0.506145
C39	C	1.518323	-0.795148	-0.506135
C40	C	1.792304	-0.326054	-0.506124
C41	C	1.909081	-0.326061	-0.506130
C42	C	1.518344	-0.325969	-0.780142
C43	C	1.518376	-0.325940	-0.896919
C44	C	1.518420	-0.149495	-0.506170
C45	C	1.518483	-0.074263	-0.506196
C46	C	1.585618	-0.282650	-0.951801
C47	C	1.585643	-0.282625	-1.061525
C48	C	1.451181	-0.369188	-1.061475
C49	C	1.451151	-0.369208	-0.951753
C50	C	1.663252	-0.232676	-0.951831
C51	C	1.663277	-0.232651	-1.061556
C52	C	1.518258	-0.326057	-0.233141
C53	C	1.518430	-0.325895	-0.116365
H54	H	1.103545	-0.180442	-0.629509
H55	H	0.934287	-0.247004	-0.732499
H56	H	1.118251	-0.404464	-0.383972
O57	O	1.628427	-0.173233	-1.102060
C58	C	1.524985	-0.161359	-1.067848
H59	H	1.509948	-0.190714	-0.992445
H60	H	1.513807	-0.105106	-1.052645
H61	H	1.467554	-0.178653	-1.130788
O62	O	1.114349	-0.255239	-0.743385
C63	C	1.080148	-0.213114	-0.825654
H64	H	1.057610	-0.161622	-0.792762
H65	H	1.145993	-0.206763	-0.885268
H66	H	1.009187	-0.236893	-0.865457
O67	O	1.385945	-0.578196	-0.373470
C68	C	1.445767	-0.537318	-0.305637
H69	H	1.525361	-0.526666	-0.342755
H70	H	1.402947	-0.487642	-0.291514
H71	H	1.457367	-0.564590	-0.227793
O72	O	0.923517	-0.173403	-0.616754
C73	C	0.957843	-0.120549	-0.682421
H74	H	0.980386	-0.141914	-0.762244
H75	H	0.892068	-0.082151	-0.692460
H76	H	1.028827	-0.094843	-0.645660
H77	H	1.640322	-1.067575	-0.628192
O78	O	0.910684	-0.411387	-0.373476
C79	C	0.937460	-0.478861	-0.396265
H80	H	1.017140	-0.480284	-0.436643
H81	H	0.941172	-0.509153	-0.320356
H82	H	0.875719	-0.501708	-0.450221
H83	H	1.640117	-0.711804	-0.628118
O84	O	1.650676	-0.933791	-0.638883
C85	C	1.627683	-0.951040	-0.743577
H86	H	1.543761	-0.970516	-0.748809
H87	H	1.636673	-0.904524	-0.795481
H88	H	1.684021	-0.992026	-0.771098
O89	O	1.650615	-0.578105	-0.638762
C90	C	1.709928	-0.624400	-0.698108
H91	H	1.666923	-0.674810	-0.701712
H92	H	1.721072	-0.603933	-0.780894
H93	H	1.789749	-0.631892	-0.659711
H94	H	1.396447	-0.404414	-1.106134
H95	H	1.396641	-1.067821	-0.384181
O96	O	1.385982	-0.934144	-0.373483
C97	C	1.326731	-0.980562	-0.314154
H98	H	1.369799	-1.030928	-0.310576
H99	H	1.315567	-0.960188	-0.231358
H100	H	1.246917	-0.988103	-0.352549
O101	O	1.385831	-0.717697	-0.373695
C102	C	1.317950	-0.758584	-0.433458
H103	H	1.354966	-0.769116	-0.513112
H104	H	1.303927	-0.808319	-0.390659
H105	H	1.240067	-0.731380	-0.444928
H106	H	1.396393	-0.404457	-0.907072
H107	H	1.641500	-0.180257	-0.922080
O108	O	1.755428	-0.255183	-0.911340
C109	C	1.773808	-0.321822	-0.945509
H110	H	1.728279	-0.331466	-1.020892
H111	H	1.861127	-0.329059	-0.960734
H112	H	1.746883	-0.358828	-0.882535
O113	O	1.760260	-0.249478	-1.097222
C114	C	1.753469	-0.308514	-1.158546
H115	H	1.670231	-0.314212	-1.189762
H116	H	1.810543	-0.304800	-1.227069
H117	H	1.774140	-0.354266	-1.108398
