data_functionalizedCrystal
_audit_creation_method	'MofGen! by Chris Wilmer'
_symmetry_space_group_name_H-M	'P1'
_symmetry_Int_Tables_number	1
_symmetry_cell_setting	triclinic
loop_
_symmetry_equiv_pos_as_xyz
  x,y,z
_cell_length_a	6.817900
_cell_length_b	11.102188
_cell_length_c	10.992410
_cell_angle_alpha	91.892541
_cell_angle_beta	108.764651
_cell_angle_gamma	108.603875
loop_
_atom_site_label
_atom_site_type_symbol
_atom_site_fract_x
_atom_site_fract_y
_atom_site_fract_z
V1	V	-4.113410	-0.175839	-0.400593
O2	O	-4.072416	0.008450	-0.392967
O3	O	-4.090164	-0.348659	-0.397854
O4	O	-4.091015	-0.173134	-0.575306
O5	O	-4.071560	-0.168290	-0.214287
V6	V	-4.590408	-0.153796	-0.378309
O7	O	-4.388979	-0.224192	-0.449474
O8	O	-4.765036	-0.105443	-0.329428
O9	O	-4.390447	0.019024	-0.381049
O10	O	-4.748799	-0.338084	-0.385935
O11	O	-4.749655	-0.161345	-0.564616
O12	O	-4.389597	-0.156501	-0.203597
C13	C	-3.940443	-0.390789	-0.391534
C14	C	-4.002898	-0.532071	-0.390459
C15	C	-3.971516	-0.580297	-0.272295
C16	C	-4.030222	-0.713048	-0.271290
C17	C	-4.151685	-0.749338	-0.506622
C18	C	-4.092993	-0.616589	-0.507626
C19	C	-3.941526	-0.166888	-0.617890
C20	C	-4.004666	-0.165820	-0.760719
C21	C	-3.871835	-0.156089	-0.955842
C22	C	-3.806277	-0.157727	-0.807359
C23	C	-4.202084	-0.291130	-0.837823
C24	C	-4.266403	-0.290022	-0.986389
C25	C	-4.145326	-0.047376	-0.948357
C26	C	-4.074620	-0.046782	-0.799344
C27	C	-4.203511	0.061147	-0.387365
C28	C	-4.120296	0.202429	-0.388449
C29	C	-4.202427	-0.162751	-0.161006
C30	C	-4.118525	-0.163812	-0.018176
H31	H	-3.658252	-0.067623	-0.754018
H32	H	-4.042866	0.047782	-0.968716
H33	H	-4.225043	-0.818168	-0.602015
H34	H	-4.155901	-0.379511	-0.812217
H35	H	-4.352410	-0.301578	-0.809019
O36	O	-4.123854	-0.569900	-0.622510
C37	C	-4.350008	-0.619497	-0.699919
H38	H	-4.433646	-0.712773	-0.667765
H39	H	-4.368248	-0.639253	-0.806158
H40	H	-4.431001	-0.546574	-0.688433
O41	O	-3.732830	-0.047836	-0.978478
C42	C	-3.856564	0.022605	-1.050973
H43	H	-4.033134	-0.044599	-1.105803
H44	H	-3.778266	0.068095	-1.123296
H45	H	-3.858346	0.101278	-0.982445
O46	O	-3.737826	-0.258982	-0.777612
C47	C	-3.874654	-0.341408	-0.719741
H48	H	-3.955631	-0.285204	-0.675756
H49	H	-3.770980	-0.381956	-0.640100
H50	H	-4.007988	-0.423716	-0.796567
H51	H	-4.250421	-0.378186	-1.032660
H52	H	-3.898156	-0.511485	-0.176890
O53	O	-3.841996	-0.256004	-1.013181
C54	C	-4.043084	-0.332830	-1.109457
H55	H	-4.186667	-0.317985	-1.087212
H56	H	-4.059240	-0.438307	-1.110475
H57	H	-4.045949	-0.304323	-1.208534
H58	H	-4.324289	-0.051930	-0.989198
H59	H	-4.004665	-0.752306	-0.175070
H60	H	-4.448353	-0.300919	-1.029021
H61	H	-3.931808	0.045918	-0.746986
O62	O	-4.244014	-0.045135	-0.760350
C63	C	-4.303225	-0.152068	-0.696953
H64	H	-4.249163	-0.230615	-0.730099
H65	H	-4.490047	-0.190235	-0.722137
H66	H	-4.218350	-0.121826	-0.587359
