data_functionalizedCrystal
_audit_creation_method	'MofGen! by Chris Wilmer'
_symmetry_space_group_name_H-M	'P1'
_symmetry_Int_Tables_number	1
_symmetry_cell_setting	triclinic
loop_
_symmetry_equiv_pos_as_xyz
  x,y,z
_cell_length_a	6.817900
_cell_length_b	9.582860
_cell_length_c	14.858340
_cell_angle_alpha	92.657606
_cell_angle_beta	104.519754
_cell_angle_gamma	111.206767
loop_
_atom_site_label
_atom_site_type_symbol
_atom_site_fract_x
_atom_site_fract_y
_atom_site_fract_z
V1	V	-4.078393	-0.208009	-0.289789
V2	V	-3.745060	0.125324	0.043544
V3	V	-3.411726	0.458657	0.376878
O4	O	-4.023831	0.009014	-0.284448
O5	O	-3.690498	0.342347	0.048885
O6	O	-3.357164	0.675680	0.382219
O7	O	-4.069078	-0.411503	-0.287639
O8	O	-3.735744	-0.078170	0.045695
O9	O	-3.402411	0.255163	0.379028
O10	O	-4.034480	-0.205241	-0.416253
O11	O	-3.701146	0.128093	-0.082920
O12	O	-3.367813	0.461426	0.250414
O13	O	-4.058669	-0.198677	-0.154943
O14	O	-3.725335	0.134657	0.178390
O15	O	-3.392002	0.467990	0.511724
V16	V	-4.556375	-0.182000	-0.273681
V17	V	-4.223042	0.151333	0.059652
V18	V	-3.889708	0.484667	0.392986
O19	O	-4.351806	-0.265063	-0.325124
O20	O	-4.018472	0.068270	0.008210
O21	O	-3.685139	0.401604	0.341543
O22	O	-4.733159	-0.124946	-0.238346
O23	O	-4.399826	0.208387	0.094987
O24	O	-4.066493	0.541720	0.428320
O25	O	-4.342483	0.021494	-0.275832
O26	O	-4.009150	0.354827	0.057502
O27	O	-3.675817	0.688160	0.390835
O28	O	-4.728333	-0.399023	-0.279022
O29	O	-4.395000	-0.065690	0.054311
O30	O	-4.061667	0.267644	0.387645
O31	O	-4.693496	-0.191333	-0.408527
O32	O	-4.360163	0.142001	-0.075194
O33	O	-4.026829	0.475334	0.258140
O34	O	-4.377081	-0.184769	-0.147217
O35	O	-4.043748	0.148565	0.186116
O36	O	-3.710415	0.481898	0.519450
C37	C	-3.923442	-0.461097	-0.283023
C38	C	-3.590108	-0.127764	0.050310
C39	C	-3.256775	0.205569	0.383643
C40	C	-3.997142	-0.627459	-0.282108
C41	C	-3.663809	-0.294125	0.051225
C42	C	-3.330475	0.039208	0.384559
C43	C	-3.879307	-0.197987	-0.447083
C44	C	-3.545974	0.135346	-0.113750
C45	C	-3.212640	0.468680	0.219584
C46	C	-3.924945	-0.197070	-0.550467
C47	C	-3.591612	0.136264	-0.217133
C48	C	-3.258279	0.469597	0.116200
C49	C	-3.962006	-0.196323	-0.634426
C50	C	-3.628673	0.137010	-0.301093
C51	C	-3.295339	0.470343	0.032241
C52	C	-4.008515	-0.195380	-0.739756
C53	C	-3.675181	0.137953	-0.406422
C54	C	-3.341848	0.471286	-0.073089
C55	C	-4.045598	-0.194629	-0.823708
C56	C	-3.712265	0.138705	-0.490375
C57	C	-3.378932	0.472038	-0.157042
C58	C	-4.092112	-0.193689	-0.929045
C59	C	-3.758779	0.139645	-0.595712
C60	C	-3.425445	0.472978	-0.262378
C61	C	-4.151463	0.071080	-0.280444
C62	C	-3.818130	0.404413	0.052889
C63	C	-3.484796	0.737746	0.386223
C64	C	-4.057001	0.237440	-0.281366
C65	C	-3.723668	0.570773	0.051968
C66	C	-3.390335	0.904107	0.385301
C67	C	-4.195597	-0.192027	-0.116382
C68	C	-3.862264	0.141306	0.216951
C69	C	-3.528930	0.474639	0.550284
C70	C	-4.129196	-0.192937	-0.012997
C71	C	-3.795862	0.140396	0.320336
C72	C	-3.462529	0.473730	0.653669
