data_functionalizedCrystal
_audit_creation_method	'MofGen! by Chris Wilmer'
_symmetry_space_group_name_H-M	'P1'
_symmetry_Int_Tables_number	1
_symmetry_cell_setting	triclinic
loop_
_symmetry_equiv_pos_as_xyz
  x,y,z
_cell_length_a	12.759401
_cell_length_b	12.759399
_cell_length_c	19.805399
_cell_angle_alpha	90.023653
_cell_angle_beta	90.015559
_cell_angle_gamma	90.015542
loop_
_atom_site_label
_atom_site_type_symbol
_atom_site_fract_x
_atom_site_fract_y
_atom_site_fract_z
Zn1	Zn	1.606221	-0.418279	0.382666
Zn2	Zn	1.606123	-0.593972	0.269485
Zn3	Zn	1.430532	-0.418309	0.269498
Zn4	Zn	1.430510	-0.593918	0.382640
O5	O	1.518346	-0.506119	0.326072
O6	O	1.753229	-0.441595	0.367657
O7	O	1.582799	-0.570705	0.174770
O8	O	1.453887	-0.271284	0.284526
O9	O	1.753157	-0.570676	0.284504
O10	O	1.582965	-0.271262	0.367670
O11	O	1.453793	-0.441647	0.174780
O12	O	1.283508	-0.441594	0.284501
O13	O	1.453850	-0.570583	0.477360
O14	O	1.283492	-0.570613	0.367626
O15	O	1.582944	-0.441542	0.477379
O16	O	1.582778	-0.740986	0.284479
O17	O	1.453755	-0.740946	0.367613
C18	C	1.245379	-0.506101	0.326063
C19	C	1.128602	-0.506119	0.326075
C20	C	1.073778	-0.439028	0.369439
C21	C	0.964054	-0.439038	0.369444
C22	C	0.963988	-0.573240	0.282717
C23	C	1.073710	-0.573224	0.282710
C24	C	0.814133	-0.315206	0.393776
C25	C	0.759305	-0.248124	0.437151
C26	C	0.794957	-0.232124	0.503211
C27	C	0.885434	-0.283222	0.525908
C28	C	0.940256	-0.350311	0.482537
C29	C	0.904606	-0.366291	0.416468
C30	C	1.223633	-0.697058	0.258384
C31	C	1.278457	-0.764153	0.215015
C32	C	1.242808	-0.780164	0.148955
C33	C	1.152328	-0.729085	0.126260
C34	C	1.097503	-0.661989	0.169629
C35	C	1.133160	-0.645977	0.235688
C36	C	1.518282	-0.779087	0.326057
C37	C	1.518351	-0.895863	0.326073
C38	C	1.585609	-0.950711	0.282834
C39	C	1.585677	-1.060435	0.282857
C40	C	1.451218	-1.060454	0.369359
C41	C	1.451157	-0.950732	0.369339
C42	C	1.709688	-1.210308	0.258769
C43	C	1.776937	-1.265160	0.215519
C44	C	1.793107	-1.229607	0.149478
C45	C	1.742013	-1.139204	0.126673
C46	C	1.674756	-1.084358	0.169918
C47	C	1.658605	-1.119909	0.235969
C48	C	1.327144	-0.800857	0.393420
C49	C	1.259881	-0.746009	0.436663
C50	C	1.243700	-0.781560	0.502706
C51	C	1.294776	-0.871966	0.525508
C52	C	1.362039	-0.926814	0.482266
C53	C	1.378222	-0.891256	0.416224
C54	C	1.792380	-0.506138	0.326082
C55	C	1.909156	-0.506146	0.326086
C56	C	1.518405	-0.506053	0.502615
C57	C	1.518430	-0.506025	0.577847
C58	C	1.518440	-0.232086	0.326102
C59	C	1.518479	-0.115309	0.326115
C60	C	1.518348	-0.506109	0.150216
C61	C	1.518527	-0.505842	0.074985
C62	C	1.585651	-0.438830	0.613202
C63	C	1.585662	-0.438799	0.683891
C64	C	1.518457	-0.505970	0.719223
C65	C	1.451228	-0.573168	0.683863
C66	C	1.451213	-0.573192	0.613175
C67	C	1.451288	-0.573070	0.968936
C68	C	1.451310	-0.573043	1.039628
C69	C	1.585736	-0.438677	1.039651
C70	C	1.585721	-0.438702	0.968964
C71	C	1.518490	-0.505895	0.933610
C72	C	1.518477	-0.505926	0.856962
C73	C	1.518473	-0.505945	0.795870
H74	H	1.252674	-0.684018	0.312175
O75	O	0.999921	-0.606877	0.145151
H76	H	0.940650	-0.666003	0.129874
O77	O	1.301945	-0.852532	0.102179
H78	H	1.249629	-0.917319	0.085921
O79	O	1.378724	-0.645486	0.930808
H80	H	1.331984	-0.692174	0.967254
H81	H	1.640324	-0.906040	0.247605
H82	H	0.919281	-0.627876	0.247412
O83	O	1.619683	-0.986834	0.145336
H84	H	1.570212	-0.954662	0.186507
O85	O	1.344607	-0.762507	0.322187
H86	H	1.319836	-0.824100	0.285946
H87	H	1.755176	-1.110270	0.072892
H88	H	1.818539	-1.338766	0.234094
O89	O	1.378740	-0.645616	0.721969
H90	H	1.296287	-0.627584	0.708401
O91	O	1.865640	-1.288762	0.102828
H92	H	1.930426	-1.236419	0.086655
H93	H	1.640476	-0.383961	1.068445
H94	H	1.118469	-0.384383	0.404748
H95	H	1.123297	-0.742126	0.072469
H96	H	0.685638	-0.206520	0.418665
O97	O	1.376045	-0.819267	0.239482
H98	H	1.435328	-0.760143	0.254743
H99	H	1.396464	-0.627899	0.584390
O100	O	1.658172	-0.366327	0.722021
H101	H	1.646887	-0.377584	0.777110
H102	H	1.696539	-1.239258	0.312547
H103	H	0.785105	-0.328215	0.339983
H104	H	1.640381	-0.384135	0.584440
H105	H	1.013924	-0.391909	0.501015
H106	H	1.396509	-1.105141	0.404584
O107	O	1.417142	-1.024321	0.506858
H108	H	1.394600	-1.039827	0.560048
H109	H	0.914447	-0.270198	0.579703
O110	O	0.735824	-0.159765	0.549991
H111	H	0.775809	-0.157228	0.599743
O112	O	1.378810	-0.645482	1.077741
H113	H	1.332047	-0.692201	1.041282
H114	H	1.281602	-0.900913	0.579286
H115	H	1.188925	-0.736893	0.537913
H116	H	1.218298	-0.672390	0.418093
H117	H	1.640450	-0.384008	0.940200
