data_functionalizedCrystal
_audit_creation_method	'MofGen! by Chris Wilmer'
_symmetry_space_group_name_H-M	'P1'
_symmetry_Int_Tables_number	1
_symmetry_cell_setting	triclinic
loop_
_symmetry_equiv_pos_as_xyz
  x,y,z
_cell_length_a	25.639242
_cell_length_b	25.639240
_cell_length_c	12.759393
_cell_angle_alpha	89.956284
_cell_angle_beta	89.976769
_cell_angle_gamma	90.025061
loop_
_atom_site_label
_atom_site_type_symbol
_atom_site_fract_x
_atom_site_fract_y
_atom_site_fract_z
Zn1	Zn	0.799292	-0.208230	-0.594005
Zn2	Zn	0.799211	-0.295676	-0.418286
Zn3	Zn	0.711855	-0.208245	-0.418331
Zn4	Zn	0.711823	-0.295624	-0.593915
O5	O	0.755545	-0.251944	-0.506134
O6	O	0.872447	-0.219845	-0.570714
O7	O	0.787603	-0.284106	-0.271271
O8	O	0.723501	-0.135077	-0.441692
O9	O	0.872387	-0.284091	-0.441614
O10	O	0.787741	-0.135067	-0.570758
O11	O	0.723423	-0.219870	-0.271304
O12	O	0.638686	-0.219820	-0.441604
O13	O	0.723446	-0.284004	-0.740948
O14	O	0.638662	-0.284018	-0.570605
O15	O	0.787710	-0.219795	-0.741014
O16	O	0.787572	-0.368834	-0.441527
O17	O	0.723368	-0.368797	-0.570561
C18	C	0.619703	-0.251915	-0.506100
C19	C	0.561589	-0.251916	-0.506111
C20	C	0.310434	-0.218550	-0.573479
C21	C	0.365039	-0.218545	-0.573473
O22	O	0.393309	-0.190153	-0.630745
N23	N	0.392315	-0.251938	-0.506146
C24	C	0.364984	-0.285341	-0.438829
O25	O	0.393199	-0.313744	-0.381562
C26	C	0.310381	-0.285349	-0.438841
C27	C	0.283107	-0.251950	-0.506164
C28	C	0.283161	-0.185155	-0.640798
C29	C	0.228560	-0.185159	-0.640803
C30	C	0.201233	-0.218559	-0.573488
C31	C	0.228507	-0.251955	-0.506169
C32	C	0.283051	-0.318755	-0.371529
C33	C	0.228444	-0.318760	-0.371547
C34	C	0.201170	-0.285361	-0.438871
C35	C	0.146579	-0.285360	-0.438858
N36	N	0.119303	-0.251967	-0.506185
C37	C	0.146630	-0.218567	-0.573500
C38	C	0.479655	-0.285324	-0.438810
C39	C	0.534257	-0.285314	-0.438792
C40	C	0.534308	-0.218518	-0.573438
C41	C	0.479705	-0.218526	-0.573450
C42	C	0.452378	-0.251931	-0.506137
C43	C	0.031965	-0.218579	-0.573503
C44	C	-0.022640	-0.218585	-0.573499
C45	C	-0.022687	-0.285382	-0.438857
C46	C	0.031914	-0.285374	-0.438857
C47	C	0.059238	-0.251971	-0.506189
O48	O	0.118275	-0.313738	-0.381619
O49	O	0.118409	-0.190173	-0.630767
C50	C	0.755472	-0.387786	-0.506052
C51	C	0.755488	-0.445900	-0.506052
C52	C	0.789012	-0.806219	-0.573460
C53	C	0.789027	-0.860824	-0.573482
O54	O	0.817442	-0.889023	-0.630710
N55	N	0.755618	-0.888183	-0.506236
C56	C	0.722188	-0.860935	-0.438972
O57	O	0.693772	-0.889220	-0.381776
C58	C	0.722170	-0.806331	-0.438956
C59	C	0.755585	-0.778975	-0.506199
C60	C	0.822424	-0.778863	-0.640699
C61	C	0.822409	-0.724262	-0.640676
C62	C	0.788982	-0.697018	-0.573414
C63	C	0.755570	-0.724375	-0.506176
C64	C	0.688737	-0.779084	-0.371698
C65	C	0.688722	-0.724477	-0.371689
C66	C	0.722137	-0.697121	-0.438932
C67	C	0.722128	-0.642530	-0.438892
N68	N	0.755538	-0.615171	-0.506138
C69	C	0.788964	-0.642415	-0.573399
C70	C	0.722227	-0.975605	-0.439010
C71	C	0.722246	-1.030208	-0.439019
C72	C	0.789086	-1.030093	-0.573531
C73	C	0.789068	-0.975489	-0.573516
C74	C	0.755636	-0.948246	-0.506256
C75	C	0.788931	-0.527750	-0.573345
C76	C	0.788915	-0.473145	-0.573313
C77	C	0.722074	-0.473264	-0.438806
C78	C	0.722092	-0.527865	-0.438833
C79	C	0.755522	-0.555106	-0.506112
O80	O	0.693726	-0.614296	-0.381696
O81	O	0.817371	-0.614123	-0.630594
C82	C	0.891918	-0.251972	-0.506169
C83	C	0.950032	-0.251985	-0.506184
C84	C	0.755583	-0.251892	-0.780168
C85	C	0.755600	-0.251870	-0.896945
C86	C	0.755634	-0.115571	-0.506240
C87	C	0.755672	-0.057457	-0.506285
C88	C	0.789075	-0.218412	-1.061574
C89	C	0.789065	-0.218432	-0.951850
C90	C	0.722146	-0.285294	-0.951769
C91	C	0.722159	-0.285276	-1.061491
C92	C	0.850721	-0.199790	-0.801936
C93	C	0.884169	-0.166362	-0.747116
C94	C	0.892234	-0.115341	-0.782773
C95	C	0.866844	-0.097739	-0.873250
C96	C	0.833393	-0.131164	-0.928066
C97	C	0.825337	-0.182192	-0.892409
C98	C	0.660502	-0.303913	-1.211407
C99	C	0.627048	-0.337336	-1.266224
C100	C	0.618977	-0.388358	-1.230568
C101	C	0.644358	-0.405958	-1.140088
C102	C	0.677812	-0.372535	-1.085270
C103	C	0.685884	-0.321514	-1.120934
C104	C	0.755538	-0.251957	-0.233167
C105	C	0.755623	-0.251832	-0.116391
H106	H	0.556458	-0.312505	-0.383958
O107	O	0.824962	-0.443644	-0.645840
H108	H	0.801547	-0.418752	-0.699240
O109	O	0.825109	-0.945984	-0.646037
H110	H	0.848354	-0.974108	-0.692805
O111	O	0.652695	-0.808583	-0.299175
H112	H	0.611655	-0.798122	-0.317133
H113	H	0.054206	-0.191378	-0.628331
H114	H	-0.044946	-0.312574	-0.384047
H115	H	0.694900	-0.312522	-0.907057
H116	H	0.457409	-0.312526	-0.383986
H117	H	0.812715	-0.116830	-1.001721
H118	H	0.694887	-0.550139	-0.384071
O119	O	0.198974	-0.354790	-0.298935
H120	H	0.156422	-0.349188	-0.310248
H121	H	0.054121	-0.312566	-0.384027
O122	O	0.312628	-0.149120	-0.713398
H123	H	0.302160	-0.158129	-0.795822
H124	H	0.816149	-0.549923	-0.628137
O125	O	0.652662	-0.695094	-0.299141
H126	H	0.676070	-0.670223	-0.245726
O127	O	0.686020	-0.443875	-0.366263
H128	H	0.691622	-0.401311	-0.377560
O129	O	0.825171	-0.182348	-1.120792
H130	H	0.848435	-0.159117	-1.064236
H131	H	0.849617	-0.701992	-0.695433
H132	H	0.457502	-0.191329	-0.628270
H133	H	0.849644	-0.801039	-0.695477
H134	H	0.206359	-0.157965	-0.695629
O135	O	0.825135	-1.059482	-0.646095
H136	H	0.819525	-1.102046	-0.634813
O137	O	0.686210	-1.059712	-0.366487
H138	H	0.662963	-1.031588	-0.319722
H139	H	0.695004	-0.953427	-0.384231
H140	H	0.873409	-0.056190	-0.902268
H141	H	0.698479	-0.386870	-1.011597
O142	O	0.928313	-0.079286	-0.723657
H143	H	0.944615	-0.100097	-0.654760
O144	O	0.563787	-0.182496	-0.646055
H145	H	0.606337	-0.188110	-0.634739
O146	O	0.842027	-0.254822	-0.763472
H147	H	0.854393	-0.282807	-0.824972
H148	H	0.904841	-0.180698	-0.673449
H149	H	0.637787	-0.447504	-1.111057
H150	H	0.305247	-0.345952	-0.316707
H151	H	0.591750	-0.415576	-1.275233
H152	H	0.606365	-0.322995	-1.339874
O153	O	0.669205	-0.248879	-1.249863
H154	H	0.685810	-0.249955	-1.330182
O155	O	-0.052058	-0.182562	-0.646117
H156	H	-0.023879	-0.159341	-0.692930
