data_functionalizedCrystal
_audit_creation_method	'MofGen! by Chris Wilmer'
_symmetry_space_group_name_H-M	'P1'
_symmetry_Int_Tables_number	1
_symmetry_cell_setting	triclinic
loop_
_symmetry_equiv_pos_as_xyz
  x,y,z
_cell_length_a	10.908878
_cell_length_b	23.532407
_cell_length_c	10.065875
_cell_angle_alpha	98.725374
_cell_angle_beta	83.443480
_cell_angle_gamma	71.466769
loop_
_atom_site_label
_atom_site_type_symbol
_atom_site_fract_x
_atom_site_fract_y
_atom_site_fract_z
O1	O	1.723885	-0.098224	-0.113431
O2	O	2.223885	0.401776	0.386569
O3	O	1.349457	-0.053700	-0.113455
O4	O	1.849457	0.446300	0.386545
O5	O	1.547955	-0.159931	-0.113404
O6	O	2.047955	0.340069	0.386596
O7	O	1.525387	0.008007	-0.113482
O8	O	2.025387	0.508007	0.386518
O9	O	1.510104	-0.139607	0.113575
O10	O	2.010104	0.360393	0.613575
O11	O	1.311605	-0.033376	0.113524
O12	O	1.811605	0.466624	0.613524
O13	O	1.686033	-0.077900	0.113548
O14	O	2.186033	0.422100	0.613548
Zn15	Zn	1.492810	-0.052411	0.149574
Zn16	Zn	1.992810	0.447589	0.649574
Zn17	Zn	1.542681	-0.079189	-0.149481
Zn18	Zn	2.042681	0.420811	0.350519
O19	O	1.487535	0.028331	0.113497
O20	O	1.987535	0.528331	0.613497
C21	C	1.282637	-0.039377	0.000032
C22	C	1.782637	0.460623	0.500032
C23	C	1.139928	-0.026985	0.000024
C24	C	1.639928	0.473015	0.500024
C25	C	1.091492	-0.072201	0.000044
C26	C	1.591492	0.427799	0.500044
C27	C	0.943995	-0.059394	0.000037
C28	C	1.443995	0.440606	0.500037
C29	C	1.528453	-0.170932	0.000092
C30	C	2.028453	0.329068	0.500092
C31	C	1.526721	-0.233988	0.000113
C32	C	2.026721	0.266012	0.500113
C33	C	1.402134	-0.488675	0.000020
C34	C	1.902134	0.011325	0.500020
C35	C	1.403739	-0.429422	0.000030
C36	C	1.903739	0.070578	0.500030
O37	O	1.304902	-0.383568	-0.000019
O38	O	1.804902	0.116432	0.499981
N39	N	1.521747	-0.417674	0.000054
N40	N	2.021747	0.082326	0.500054
C41	C	1.638161	-0.465186	0.000053
C42	C	2.138161	0.034814	0.500053
O43	O	1.738684	-0.449753	0.000072
O44	O	2.238684	0.050247	0.500072
C45	C	1.636557	-0.524438	0.000032
C46	C	2.136557	-0.024438	0.500032
C47	C	1.518539	-0.536180	0.000023
C48	C	2.018539	-0.036180	0.500023
C49	C	1.284126	-0.500418	0.000009
C50	C	1.784126	-0.000418	0.500009
C51	C	1.282522	-0.559667	0.000001
C52	C	1.782522	-0.059667	0.500001
C53	C	1.398926	-0.607173	0.000004
C54	C	1.898926	-0.107173	0.500004
C55	C	1.516935	-0.595429	0.000015
C56	C	2.016935	-0.095429	0.500015
C57	C	1.752971	-0.571949	0.000022
C58	C	2.252971	-0.071949	0.500022
C59	C	1.751357	-0.631204	0.000000
C60	C	2.251357	-0.131204	0.500000
C61	C	1.633339	-0.642946	-0.000009
C62	C	2.133339	-0.142946	0.499991
C63	C	1.631735	-0.702183	0.000010
C64	C	2.131735	-0.202183	0.500010
N65	N	1.513726	-0.713931	-0.000014
N66	N	2.013726	-0.213931	0.499986
C67	C	1.397322	-0.666425	-0.000017
C68	C	1.897322	-0.166425	0.499983
C69	C	1.641521	-0.340750	0.000093
C70	C	2.141521	0.159250	0.500093
C71	C	1.643125	-0.281498	0.000123
C72	C	2.143125	0.218502	0.500123
C73	C	1.408702	-0.245738	0.000098
C74	C	1.908702	0.254262	0.500098
C75	C	1.407098	-0.304991	0.000078
C76	C	1.907098	0.195009	0.500078
C77	C	1.523513	-0.352497	0.000070
C78	C	2.023513	0.147503	0.500070
C79	C	1.393962	-0.790853	-0.000032
C80	C	1.893962	-0.290853	0.499968
C81	C	1.392367	-0.850109	-0.000035
C82	C	1.892367	-0.350109	0.499965
C83	C	1.626790	-0.885863	-0.000017
C84	C	2.126790	-0.385863	0.499983
C85	C	1.628384	-0.826613	-0.000008
C86	C	2.128384	-0.326613	0.499992
C87	C	1.511961	-0.779108	-0.000020
C88	C	2.011961	-0.279108	0.499980
O89	O	1.730521	-0.748067	0.000054
O90	O	2.230521	-0.248067	0.500054
O91	O	1.296819	-0.681869	-0.000054
O92	O	1.796819	-0.181869	0.499946
C93	C	1.752854	-0.092224	0.000058
C94	C	2.252854	0.407776	0.500058
C95	C	1.895565	-0.104616	0.000057
C96	C	2.395565	0.395384	0.500057
C97	C	1.507038	0.039331	-0.000002
C98	C	2.007038	0.539331	0.499998
C99	C	1.508771	0.102386	-0.000032
C100	C	2.008771	0.602386	0.499968
N101	N	1.458783	-0.034138	0.353671
N102	N	1.958783	0.465862	0.853671
N103	N	1.576718	-0.097468	-0.353577
N104	N	2.076718	0.402532	0.146423
C105	C	1.530834	-0.072834	0.421468
C106	C	2.030834	0.427166	0.921468
C107	C	1.504656	-0.058766	0.578629
C108	C	2.004656	0.441234	1.078629
H109	H	0.876270	-0.011200	0.000008
H110	H	1.376270	0.488800	0.500008
Cl111	Cl	1.196052	-0.146607	0.000076
Cl112	Cl	1.696052	0.353393	0.500076
H113	H	1.310996	-0.314545	0.000076
H114	H	1.810996	0.185455	0.500076
H115	H	1.423580	-0.015221	0.636928
H116	H	1.923580	0.484779	1.136928
H117	H	1.657784	-0.141017	0.588123
H118	H	2.157784	0.358983	1.088123
H119	H	1.377712	0.009405	0.411976
H120	H	1.877712	0.509405	0.911976
H121	H	1.189331	-0.461743	0.000002
H122	H	1.689331	0.038257	0.500002
H123	H	0.963290	-0.152812	0.000070
H124	H	1.463290	0.347188	0.500070
H125	H	1.296257	-0.859663	-0.000036
H126	H	1.796257	-0.359663	0.499964
Cl127	Cl	1.035371	0.047420	-0.000022
Cl128	Cl	1.535371	0.547420	0.499978
Cl129	Cl	1.791494	-0.266743	0.000155
Cl130	Cl	2.291494	0.233257	0.500155
Cl131	Cl	1.897718	-0.690925	-0.000015
Cl132	Cl	2.397718	-0.190925	0.499985
H133	H	1.299158	-0.752180	-0.000043
H134	H	1.799158	-0.252180	0.499957
Cl135	Cl	1.787883	-0.400467	0.000100
Cl136	Cl	2.287883	0.099533	0.500100
H137	H	1.849075	-0.562401	0.000028
H138	H	2.349075	-0.062401	0.500028
H139	H	1.186421	-0.569221	-0.000019
H140	H	1.686421	-0.069221	0.499981
H141	H	1.724481	-0.817051	0.000020
H142	H	2.224481	-0.317051	0.500020
Cl143	Cl	1.655708	-0.140164	0.331460
Cl144	Cl	2.155708	0.359836	0.831460
Cl145	Cl	1.773117	-0.945593	-0.000004
Cl146	Cl	2.273117	-0.445593	0.499996
H147	H	1.313919	-0.207047	0.000097
H148	H	1.813919	0.292953	0.500097
