data_functionalizedCrystal
_audit_creation_method	'MofGen! by Chris Wilmer'
_symmetry_space_group_name_H-M	'P1'
_symmetry_Int_Tables_number	1
_symmetry_cell_setting	triclinic
loop_
_symmetry_equiv_pos_as_xyz
  x,y,z
_cell_length_a	13.033293
_cell_length_b	13.897447
_cell_length_c	13.032268
_cell_angle_alpha	82.850929
_cell_angle_beta	90.920818
_cell_angle_gamma	97.189355
loop_
_atom_site_label
_atom_site_type_symbol
_atom_site_fract_x
_atom_site_fract_y
_atom_site_fract_z
Zn1	Zn	1.498451	-0.300099	0.781486
Zn2	Zn	1.520188	-0.438718	0.609515
Zn3	Zn	1.348311	-0.295006	0.587662
Zn4	Zn	1.326438	-0.478928	0.759555
O5	O	1.423347	-0.378188	0.684554
O6	O	1.645254	-0.303791	0.776997
O7	O	1.515640	-0.400694	0.462707
O8	O	1.368285	-0.160697	0.613405
O9	O	1.661224	-0.405633	0.650651
O10	O	1.478591	-0.164439	0.755807
O11	O	1.389363	-0.295109	0.446652
O12	O	1.201490	-0.334100	0.592140
O13	O	1.331004	-0.474167	0.906373
O14	O	1.185420	-0.469227	0.718429
O15	O	1.457382	-0.342782	0.922486
O16	O	1.494430	-0.579036	0.629385
O17	O	1.352082	-0.608579	0.739619
C18	C	1.156139	-0.405475	0.650534
C19	C	1.041822	-0.417175	0.636005
C20	C	0.982942	-0.372106	0.692137
C21	C	0.864790	-0.384197	0.677122
C22	C	1.423267	-0.628808	0.684520
C23	C	1.423322	-0.736019	0.684552
C24	C	1.423368	-0.823086	0.684581
C25	C	1.423437	-0.932315	0.684617
C26	C	1.691599	-0.350795	0.718708
C27	C	1.805912	-0.339121	0.733262
C28	C	1.389328	-0.413528	0.952787
C29	C	1.374831	-0.428587	1.067091
C30	C	1.423453	-0.126590	0.684615
C31	C	1.423498	-0.019373	0.684641
C32	C	1.457293	-0.342910	0.417373
C33	C	1.471989	-0.327558	0.303095
C34	C	1.430897	-0.370295	1.126024
C35	C	1.415915	-0.385859	1.244164
H36	H	1.004761	-0.464710	0.576829
H37	H	1.531079	-0.266120	1.266092
H38	H	0.842969	-0.291575	0.792435
C39	C	1.294999	-0.511577	1.117074
C40	C	1.330231	-0.592419	1.196606
C41	C	1.250396	-0.675411	1.246586
C42	C	1.135330	-0.677561	1.217034
C43	C	1.100092	-0.596716	1.137498
C44	C	1.179927	-0.513724	1.087518
H45	H	1.415415	-0.590831	1.218486
H46	H	1.276482	-0.735258	1.305464
H47	H	1.076232	-0.738996	1.254032
H48	H	1.014908	-0.598305	1.115618
H49	H	1.153841	-0.453877	1.028640
C50	C	1.510731	-0.287307	1.076038
C51	C	1.475500	-0.206466	0.996504
C52	C	1.555337	-0.123477	0.946522
C53	C	1.670403	-0.121330	0.976073
C54	C	1.705639	-0.202174	1.055611
C55	C	1.625803	-0.285163	1.105594
H56	H	1.390316	-0.208053	0.974625
H57	H	1.529252	-0.063631	0.887642
H58	H	1.729503	-0.059897	0.939073
H59	H	1.790823	-0.200588	1.077490
H60	H	1.651887	-0.345010	1.164473
H61	H	0.827733	-0.431735	0.617942
C62	C	1.336079	-0.468853	1.294142
C63	C	1.371311	-0.549695	1.373674
C64	C	1.291476	-0.632687	1.423654
C65	C	1.176410	-0.634836	1.394102
C66	C	1.141172	-0.553991	1.314566
C67	C	1.221007	-0.470999	1.264586
H68	H	1.456495	-0.548106	1.395554
H69	H	1.317562	-0.692533	1.482532
H70	H	1.117312	-0.696272	1.431100
H71	H	1.055988	-0.555580	1.292686
H72	H	1.194921	-0.411152	1.205708
H73	H	1.020005	-0.324564	0.751307
