data_functionalizedCrystal
_audit_creation_method	'MofGen! by Chris Wilmer'
_symmetry_space_group_name_H-M	'P1'
_symmetry_Int_Tables_number	1
_symmetry_cell_setting	triclinic
loop_
_symmetry_equiv_pos_as_xyz
  x,y,z
_cell_length_a	27.732048
_cell_length_b	12.837942
_cell_length_c	11.295501
_cell_angle_alpha	85.830212
_cell_angle_beta	85.376349
_cell_angle_gamma	88.735798
loop_
_atom_site_label
_atom_site_type_symbol
_atom_site_fract_x
_atom_site_fract_y
_atom_site_fract_z
O1	O	-0.650218	-0.129420	0.098870
O2	O	-0.510354	-0.148163	0.098906
O3	O	-0.577184	0.012062	0.098881
O4	O	-0.583387	-0.289645	0.098894
O5	O	-0.570800	0.024420	-0.099168
O6	O	-0.503969	-0.135805	-0.099144
O7	O	-0.643833	-0.117062	-0.099180
Cu8	Cu	-0.573318	-0.125305	-0.117245
Cu9	Cu	-0.580869	-0.139920	0.116971
O10	O	-0.577003	-0.277287	-0.099155
C11	C	-0.489135	-0.141591	-0.000115
C12	C	-0.435422	-0.140407	-0.000101
C13	C	-0.571897	0.056828	-0.000142
C14	C	-0.565647	0.171805	-0.000139
C15	C	-0.665052	-0.123634	-0.000157
C16	C	-0.718765	-0.124818	-0.000163
C17	C	-0.100927	-0.227628	-0.000149
C18	C	0.100951	-0.223232	-0.000160
O19	O	0.128256	-0.302990	-0.000208
N20	N	0.124781	-0.128226	-0.000162
C21	C	0.098140	-0.034312	-0.000169
O22	O	0.123042	0.046598	-0.000183
C23	C	-0.103737	-0.038709	-0.000167
C24	C	-0.127565	-0.133721	-0.000153
C25	C	-0.124756	-0.322633	-0.000136
C26	C	-0.175223	-0.323732	-0.000127
C27	C	-0.201860	-0.229825	-0.000131
C28	C	-0.178032	-0.134820	-0.000143
C29	C	-0.130377	0.055205	-0.000182
C30	C	-0.180849	0.054098	-0.000185
C31	C	-0.204677	-0.040915	-0.000171
C32	C	-0.255136	-0.042011	-0.000138
N33	N	-0.278967	-0.137017	-0.000136
C34	C	-0.252329	-0.230924	-0.000132
C35	C	0.204128	-0.032011	-0.000168
C36	C	0.254597	-0.030912	-0.000166
C37	C	0.257404	-0.219832	-0.000159
C38	C	0.206934	-0.220931	-0.000152
C39	C	0.180297	-0.127017	-0.000166
C40	C	-0.358313	-0.233224	-0.000112
C41	C	-0.408784	-0.234314	-0.000098
C42	C	-0.411587	-0.045394	-0.000111
C43	C	-0.361120	-0.044303	-0.000119
C44	C	-0.334484	-0.138226	-0.000123
O45	O	-0.282472	0.037704	-0.000103
O46	O	-0.277240	-0.311821	-0.000144
C47	C	-0.050461	-0.226530	-0.000158
C48	C	-0.026632	-0.131525	-0.000171
C49	C	-0.053270	-0.037618	-0.000174
C50	C	0.023837	-0.130426	-0.000169
C51	C	0.050475	-0.224332	-0.000166
C52	C	0.026644	-0.319338	-0.000164
C53	C	-0.023823	-0.320437	-0.000155
C54	C	-0.029439	0.057388	-0.000176
C55	C	0.021028	0.058479	-0.000184
C56	C	0.047666	-0.035428	-0.000181
C57	C	-0.582291	-0.322053	-0.000129
C58	C	-0.588540	-0.437030	-0.000125
N59	N	-0.568011	-0.115024	-0.281981
C60	C	-0.640777	0.413966	-0.000133
C61	C	-0.634907	0.521998	-0.000130
C62	C	-0.548040	0.495901	-0.000120
C63	C	-0.553909	0.387869	-0.000123
C64	C	-0.600279	0.346906	-0.000132
C65	C	-0.606148	0.238873	-0.000144
C66	C	-0.519281	0.212778	-0.000126
C67	C	-0.513412	0.320810	-0.000122
C68	C	-0.624379	-0.224249	-0.531280
C69	C	-0.620372	-0.216471	-0.655943
C70	C	-0.555992	-0.091686	-0.655972
C71	C	-0.559999	-0.099463	-0.531309
C72	C	-0.594194	-0.165748	-0.468967
C73	C	-0.598198	-0.173531	-0.344302
C74	C	-0.533821	-0.048741	-0.344333
C75	C	-0.529814	-0.040963	-0.468996
N76	N	-0.586179	-0.150193	0.281707
H77	H	-0.428183	-0.311688	-0.000085
C78	C	-0.462409	0.365876	-0.000120
H79	H	-0.464712	0.439821	-0.000126
H80	H	-0.447746	0.338496	0.068940
H81	H	-0.443303	0.347126	-0.069197
H82	H	-0.103072	-0.399108	-0.000138
H83	H	-0.626039	-0.227508	-0.293546
H84	H	0.279101	-0.296295	-0.000157
C85	C	-0.661991	-0.297155	-0.462701
H86	H	-0.679397	-0.330879	-0.517668
H87	H	-0.645958	-0.348154	-0.414067
H88	H	-0.683830	-0.257399	-0.414073
H89	H	-0.501975	0.013008	-0.519772
H90	H	-0.336632	-0.309705	-0.000119
H91	H	-0.510288	0.529272	-0.000100
C92	C	-0.474730	0.139015	-0.000129
H93	H	-0.446275	0.178888	-0.000134
H94	H	-0.477436	0.092008	0.068929
H95	H	-0.472991	0.100652	-0.069208
C96	C	-0.653574	-0.280827	-0.724484
H97	H	-0.674509	-0.321422	-0.669497
H98	H	-0.672285	-0.235018	-0.773115
H99	H	-0.634409	-0.325766	-0.773112
H100	H	-0.528158	-0.037708	-0.706752
H101	H	-0.667885	0.576595	-0.000127
H102	H	-0.678532	0.380615	-0.000152
C103	C	-0.500613	0.015613	-0.275793
H104	H	-0.479673	0.056194	-0.330780
H105	H	-0.519771	0.060545	-0.227153
H106	H	-0.481900	-0.030212	-0.227173
C107	C	-0.201430	-0.428243	-0.000120
H108	H	-0.235304	-0.415463	-0.000110
H109	H	-0.190355	-0.462562	-0.069183
H110	H	-0.194802	-0.471180	0.068955
C111	C	0.180727	-0.325443	-0.000147
H112	H	0.203825	-0.381207	-0.000151
H113	H	0.158872	-0.334114	0.068913
H114	H	0.163325	-0.325492	-0.069224
C115	C	0.280803	0.073601	-0.000170
H116	H	0.257706	0.129367	-0.000184
H117	H	0.298210	0.073656	0.068892
H118	H	0.302654	0.082268	-0.069246
H119	H	0.182445	0.044470	-0.000179
H120	H	-0.110984	0.132575	-0.000195
C121	C	-0.210149	0.157403	-0.000196
H122	H	-0.243620	0.143149	-0.000200
H123	H	-0.204676	0.192089	0.068861
H124	H	-0.200231	0.200697	-0.069276
C125	C	-0.334908	0.060207	-0.000121
H126	H	-0.358003	0.115976	-0.000125
H127	H	-0.317497	0.060255	0.068935
H128	H	-0.313059	0.068874	-0.069203
H129	H	-0.433285	0.031062	-0.000109
H130	H	-0.043219	-0.397806	-0.000145
C131	C	0.055952	-0.422633	-0.000164
H132	H	0.089422	-0.408360	-0.000180
H133	H	0.046040	-0.465943	0.068899
H134	H	0.050483	-0.457309	-0.069238
H135	H	0.040424	0.135855	-0.000186
C136	C	-0.058734	0.160691	-0.000170
H137	H	-0.037310	0.217422	-0.000164
H138	H	-0.076261	0.168513	-0.069227
H139	H	-0.080700	0.159878	0.068910
H140	H	-0.643904	0.205524	-0.000155
