data_functionalizedCrystal
_audit_creation_method	'MofGen! by Chris Wilmer'
_symmetry_space_group_name_H-M	'P1'
_symmetry_Int_Tables_number	1
_symmetry_cell_setting	triclinic
loop_
_symmetry_equiv_pos_as_xyz
  x,y,z
_cell_length_a	14.044202
_cell_length_b	14.971486
_cell_length_c	13.448316
_cell_angle_alpha	89.999959
_cell_angle_beta	90.010379
_cell_angle_gamma	88.403416
loop_
_atom_site_label
_atom_site_type_symbol
_atom_site_fract_x
_atom_site_fract_y
_atom_site_fract_z
O1	O	-0.123533	-1.196681	-0.082595
O2	O	0.376467	-0.696681	0.417405
O3	O	-0.138327	-0.937447	-0.082624
O4	O	0.361673	-0.437447	0.417376
O5	O	0.007059	-1.063169	-0.082583
O6	O	0.507059	-0.563169	0.417417
O7	O	-0.268919	-1.070959	-0.082636
O8	O	0.231081	-0.570959	0.417364
O9	O	0.007058	-1.063155	0.082801
O10	O	0.507058	-0.563155	0.582801
O11	O	-0.138328	-0.937433	0.082760
O12	O	0.361672	-0.437433	0.582760
O13	O	-0.123534	-1.196668	0.082789
O14	O	0.376466	-0.696668	0.582789
Cu15	Cu	-0.130931	-1.067049	0.097875
Cu16	Cu	0.369069	-0.567049	0.597875
Cu17	Cu	-0.130930	-1.067065	-0.097710
Cu18	Cu	0.369070	-0.567065	0.402290
O19	O	-0.268920	-1.070946	0.082748
O20	O	0.231080	-0.570946	0.582748
C21	C	0.042377	-1.059754	0.000114
C22	C	0.542377	-0.559754	0.500114
C23	C	0.147614	-1.049590	0.000127
C24	C	0.647614	-0.549590	0.500127
C25	C	-0.137666	-0.904063	0.000065
C26	C	0.362334	-0.404063	0.500065
C27	C	-0.135683	-0.804610	0.000055
C28	C	0.364317	-0.304610	0.500055
C29	C	0.397840	-1.103089	0.000107
C30	C	0.897840	-0.603089	0.500107
C31	C	0.340293	-1.031021	0.000103
C32	C	0.840293	-0.531021	0.500103
C33	C	0.233077	-1.041355	0.000116
C34	C	0.733077	-0.541355	0.500116
C35	C	0.505066	-1.092757	0.000094
C36	C	1.005066	-0.592757	0.500094
C37	C	-0.124195	-1.230051	0.000098
C38	C	0.375805	-0.730051	0.500098
C39	C	-0.126178	-1.329505	0.000102
C40	C	0.373822	-0.829505	0.500102
C41	C	0.695762	-1.074358	0.000063
C42	C	1.195762	-0.574358	0.500063
C43	C	0.590524	-1.084517	0.000084
C44	C	1.090524	-0.584517	0.500084
N45	N	-0.130932	-1.067045	0.235440
N46	N	0.369068	-0.567045	0.735440
C47	C	-0.221094	-0.754116	0.000040
C48	C	0.278906	-0.254116	0.500040
C49	C	-0.219225	-0.660669	0.000055
C50	C	0.280775	-0.160669	0.500055
C51	C	-0.131945	-0.617718	0.000078
C52	C	0.368055	-0.117718	0.500078
C53	C	-0.046528	-0.668219	0.000096
C54	C	0.453472	-0.168219	0.500096
C55	C	-0.048398	-0.761664	0.000088
C56	C	0.451602	-0.261664	0.500088
C57	C	-0.042638	-0.473450	0.000110
C58	C	0.457362	0.026550	0.500110
C59	C	-0.040767	-0.379999	0.000117
C60	C	0.459233	0.120001	0.500117
C61	C	-0.213465	-0.372455	0.000077
C62	C	0.286535	0.127545	0.500077
C63	C	-0.215334	-0.465900	0.000069
C64	C	0.284666	0.034100	0.500069
C65	C	-0.129917	-0.516394	0.000085
C66	C	0.370083	-0.016394	0.500085
N67	N	-0.130922	-1.067076	-0.235275
N68	N	0.369078	-0.567076	0.264725
C69	C	-0.073330	-1.008235	0.712692
C70	C	0.426670	-0.508235	1.212692
C71	C	-0.073327	-1.008232	0.608589
C72	C	0.426673	-0.508232	1.108589
C73	C	-0.130922	-1.067066	0.556521
C74	C	0.369078	-0.567066	1.056521
C75	C	-0.188515	-1.125914	0.608561
C76	C	0.311485	-0.625914	1.108561
C77	C	-0.188512	-1.125920	0.712663
C78	C	0.311488	-0.625920	1.212663
C79	C	-0.188519	-1.125893	0.391581
C80	C	0.311481	-0.625893	0.891581
C81	C	-0.188523	-1.125886	0.287473
C82	C	0.311477	-0.625886	0.787473
C83	C	-0.073334	-1.008205	0.287508
C84	C	0.426666	-0.508205	0.787508
C85	C	-0.073331	-1.008212	0.391609
C86	C	0.426669	-0.508212	0.891609
C87	C	-0.130926	-1.067058	0.443642
C88	C	0.369074	-0.567058	0.943642
H89	H	0.371547	-0.961561	0.000092
H90	H	0.871547	-0.461561	0.500092
Br91	Br	-0.339551	-0.812397	-0.000002
Br92	Br	0.160449	-0.312397	0.499998
H93	H	-0.288775	-0.619560	0.000041
H94	H	0.211225	-0.119560	0.500041
Br95	Br	0.345750	-1.218856	0.000131
Br96	Br	0.845750	-0.718856	0.500131
Br97	Br	-0.333787	-0.524190	0.000023
Br98	Br	0.166213	-0.024190	0.500023
H99	H	-0.235425	-1.173791	0.245081
H100	H	0.264575	-0.673791	0.745081
H101	H	-0.283015	-0.331338	0.000069
H102	H	0.216985	0.168662	0.500069
H103	H	0.021152	-0.802776	0.000100
H104	H	0.521152	-0.302776	0.500100
Br105	Br	0.077685	-0.321708	0.000181
Br106	Br	0.577685	0.178292	0.500181
H107	H	-0.026436	-0.960321	0.755079
H108	H	0.473564	-0.460321	1.255079
Br109	Br	-0.266673	-1.205767	0.537898
Br110	Br	0.233327	-0.705767	1.037898
Br111	Br	0.073287	-0.541978	0.000137
Br112	Br	0.573287	-0.041978	0.500137
Br113	Br	0.071925	-0.609930	0.000137
Br114	Br	0.571925	-0.109930	0.500137
Br115	Br	0.004805	-0.928346	0.537976
Br116	Br	0.504805	-0.428346	1.037976
H117	H	-0.026438	-0.960300	0.434000
H118	H	0.473562	-0.460300	0.934000
Br119	Br	0.004827	-0.928338	0.216893
Br120	Br	0.504827	-0.428338	0.716893
Br121	Br	-0.266678	-1.205763	0.462197
Br122	Br	0.233322	-0.705763	0.962197
Br123	Br	-0.266667	-1.205786	0.783280
Br124	Br	0.233333	-0.705786	1.283280
