data_functionalizedCrystal
_audit_creation_method	'MofGen! by Chris Wilmer'
_symmetry_space_group_name_H-M	'P1'
_symmetry_Int_Tables_number	1
_symmetry_cell_setting	triclinic
loop_
_symmetry_equiv_pos_as_xyz
  x,y,z
_cell_length_a	6.817900
_cell_length_b	15.300992
_cell_length_c	10.773894
_cell_angle_alpha	96.209485
_cell_angle_beta	96.645922
_cell_angle_gamma	104.175078
loop_
_atom_site_label
_atom_site_type_symbol
_atom_site_fract_x
_atom_site_fract_y
_atom_site_fract_z
V1	V	-3.952239	-0.121441	-0.389310
O2	O	-3.937688	0.009245	-0.381512
O3	O	-3.907615	-0.244077	-0.387019
O4	O	-3.869808	-0.118077	-0.558932
O5	O	-3.975757	-0.117627	-0.208410
V6	V	-4.439787	-0.105987	-0.367628
O7	O	-4.204668	-0.155343	-0.436872
O8	O	-4.637556	-0.072085	-0.320066
O9	O	-4.261205	0.016649	-0.369918
O10	O	-4.571735	-0.236673	-0.375425
O11	O	-4.533666	-0.109801	-0.548528
O12	O	-4.299011	-0.109351	-0.198006
C13	C	-3.754636	-0.274020	-0.380973
C14	C	-3.799210	-0.374267	-0.380231
C15	C	-3.802437	-0.409459	-0.265609
C16	C	-3.844338	-0.503652	-0.264916
C17	C	-3.882999	-0.562651	-0.378845
C18	C	-3.879777	-0.527453	-0.493476
C19	C	-3.837890	-0.433262	-0.494169
C20	C	-3.967076	-0.723777	-0.492025
C21	C	-4.008962	-0.817975	-0.491333
C22	C	-3.973525	-0.794167	-0.262772
C23	C	-3.931638	-0.699976	-0.263465
C24	C	-3.928415	-0.664784	-0.378096
C25	C	-3.706409	-0.113293	-0.600263
C26	C	-3.720321	-0.111354	-0.738933
C27	C	-3.898499	-0.114715	-0.806805
C28	C	-3.912882	-0.112711	-0.950127
C29	C	-4.077527	0.046587	-0.375961
C30	C	-4.012189	0.146833	-0.376711
C31	C	-4.125755	-0.114138	-0.156667
C32	C	-4.091081	-0.116072	-0.017997
H33	H	-3.900148	-0.651940	-0.170693
Cl34	Cl	-4.310180	-0.122787	-0.943908
H35	H	-4.040393	-0.119070	-0.758806
H36	H	-3.911271	-0.575498	-0.586240
Cl37	Cl	-3.753824	-0.335297	-0.122375
Cl38	Cl	-3.833847	-0.389021	-0.638271
Cl39	Cl	-3.693775	-0.105971	-1.024213
H40	H	-3.846968	-0.532301	-0.171580
Cl41	Cl	-3.977564	-0.838407	-0.118664
H42	H	-4.040437	-0.866010	-0.584104
H43	H	-3.964488	-0.695129	-0.585371
H44	H	-3.578422	-0.106988	-0.786929
