data_functionalizedCrystal
_audit_creation_method	'MofGen! by Chris Wilmer'
_symmetry_space_group_name_H-M	'P1'
_symmetry_Int_Tables_number	1
_symmetry_cell_setting	triclinic
loop_
_symmetry_equiv_pos_as_xyz
  x,y,z
_cell_length_a	12.784905
_cell_length_b	17.699092
_cell_length_c	16.776229
_cell_angle_alpha	90.001732
_cell_angle_beta	90.006240
_cell_angle_gamma	78.196844
loop_
_atom_site_label
_atom_site_type_symbol
_atom_site_fract_x
_atom_site_fract_y
_atom_site_fract_z
O1	O	1.410305	0.004741	0.066293
O2	O	1.910305	0.504741	0.566293
O3	O	1.100768	0.037159	0.066292
O4	O	1.600768	0.537159	0.566292
O5	O	1.264277	-0.089802	0.066291
O6	O	1.764277	0.410198	0.566291
O7	O	1.246796	0.131703	0.066294
O8	O	1.746796	0.631703	0.566294
O9	O	1.264259	-0.089802	-0.066286
O10	O	1.764259	0.410198	0.433714
O11	O	1.100749	0.037160	-0.066284
O12	O	1.600749	0.537160	0.433716
O13	O	1.410287	0.004742	-0.066284
O14	O	1.910287	0.504742	0.433716
Zn15	Zn	1.255515	0.020951	-0.087333
Zn16	Zn	1.755515	0.520951	0.412667
Zn17	Zn	1.255539	0.020950	0.087342
Zn18	Zn	1.755539	0.520950	0.587342
O19	O	1.246777	0.131704	-0.066282
O20	O	1.746777	0.631704	0.433718
C21	C	1.061154	0.039268	0.000004
C22	C	1.561154	0.539268	0.500004
C23	C	0.943144	0.045541	0.000004
C24	C	1.443144	0.545541	0.500004
C25	C	0.747085	-0.082270	0.000016
C26	C	1.247085	0.417730	0.500016
C27	C	0.636205	-0.076379	0.000016
C28	C	1.136205	0.423621	0.500016
C29	C	0.610502	0.063213	0.000010
C30	C	1.110502	0.563213	0.500010
C31	C	0.721382	0.057322	0.000010
C32	C	1.221382	0.557322	0.500010
C33	C	0.789670	-0.015422	0.000012
C34	C	1.289670	0.484578	0.500012
C35	C	0.900552	-0.021312	0.000006
C36	C	1.400552	0.478688	0.500006
C37	C	0.874848	0.118280	0.000005
C38	C	1.374848	0.618280	0.500005
C39	C	0.763968	0.124171	0.000005
C40	C	1.263968	0.624171	0.500005
C41	C	1.263640	-0.117958	0.000004
C42	C	1.763640	0.382042	0.500004
C43	C	1.261756	-0.201855	0.000007
C44	C	1.761756	0.298145	0.500007
C45	C	1.260884	-0.241266	0.072276
C46	C	1.760884	0.258734	0.572276
C47	C	1.259107	-0.320094	0.072277
C48	C	1.759107	0.179906	0.572277
C49	C	1.258211	-0.359511	0.000008
C50	C	1.758211	0.140489	0.500008
C51	C	1.259080	-0.320094	-0.072266
C52	C	1.759080	0.179906	0.427734
C53	C	1.260849	-0.241266	-0.072266
C54	C	1.760849	0.258734	0.427734
C55	C	1.251944	-0.637999	-0.072267
C56	C	1.751944	-0.137999	0.427733
C57	C	1.250178	-0.716833	-0.072261
C58	C	1.750178	-0.216833	0.427739
C59	C	1.250202	-0.716827	0.072276
C60	C	1.750202	-0.216827	0.572276
C61	C	1.251971	-0.637999	0.072275
C62	C	1.751971	-0.137999	0.572275
C63	C	1.252835	-0.598588	0.000002
C64	C	1.752835	-0.098588	0.500002
C65	C	1.254759	-0.513113	0.000002
C66	C	1.754759	-0.013113	0.500002
C67	C	1.256294	-0.444986	0.000008
C68	C	1.756294	0.055014	0.500008
C69	C	1.449901	0.002633	0.000006
C70	C	1.949901	0.502633	0.500006
C71	C	1.567910	-0.003640	0.000012
C72	C	2.067910	0.496360	0.500012
C73	C	1.247414	0.159860	0.000007
C74	C	1.747414	0.659860	0.500007
C75	C	1.249298	0.243756	0.000008
C76	C	1.749298	0.743756	0.500008
N77	N	1.255506	0.020951	-0.206545
N78	N	1.755506	0.520951	0.293455
C79	C	1.319859	0.062649	-0.248257
C80	C	1.819859	0.562649	0.251743
C81	C	1.319870	0.062645	-0.331710
C82	C	1.819870	0.562645	0.168290
C83	C	1.255523	0.020948	-0.373448
C84	C	1.755523	0.520948	0.126552
C85	C	1.191168	-0.020755	-0.331729
C86	C	1.691168	0.479245	0.168271
C87	C	1.191163	-0.020755	-0.248278
C88	C	1.691163	0.479245	0.251722
C89	C	1.191190	-0.020755	-0.668276
C90	C	1.691190	0.479245	-0.168276
C91	C	1.191198	-0.020750	-0.751733
C92	C	1.691198	0.479250	-0.251733
C93	C	1.319897	0.062645	-0.751707
C94	C	1.819897	0.562645	-0.251707
C95	C	1.319892	0.062644	-0.668257
C96	C	1.819892	0.562644	-0.168257
C97	C	1.255542	0.020939	-0.626545
C98	C	1.755542	0.520939	-0.126545
C99	C	1.255531	0.020942	-0.536057
C100	C	1.755531	0.520942	-0.036057
C101	C	1.255527	0.020948	-0.463934
C102	C	1.755527	0.520948	0.036066
N103	N	1.255557	0.020944	0.206553
N104	N	1.755557	0.520944	0.706553
H105	H	0.802686	-0.141501	0.000012
H106	H	1.302686	0.358499	0.500012
H107	H	1.261544	-0.209176	-0.131114
H108	H	1.761544	0.290824	0.368886
H109	H	0.601537	-0.130814	0.000021
H110	H	1.101537	0.369186	0.500021
C111	C	0.707924	0.244970	0.068153
C112	C	1.207924	0.744970	0.568153
C113	C	0.688898	0.204127	0.000004
C114	C	1.188898	0.704127	0.500004
H115	H	0.661574	0.294330	0.068151
H116	H	1.161574	0.794330	0.568151
H117	H	0.780045	0.251029	0.068144
H118	H	1.280045	0.751029	0.568144
H119	H	0.695038	0.217253	0.114382
H120	H	1.195038	0.717253	0.614382
H121	H	0.701792	0.231841	-0.046226
H122	H	1.201792	0.731841	0.453774
H123	H	0.616759	0.198070	0.000005
H124	H	1.116759	0.698070	0.500005
C125	C	1.033403	0.171238	0.000032
C126	C	1.533403	0.671238	0.500032
C127	C	0.921659	0.191767	0.000023
C128	C	1.421659	0.691767	0.500023
H129	H	1.062300	0.216605	0.000052
H130	H	1.562300	0.716605	0.500052
H131	H	1.056846	0.141610	-0.046203
H132	H	1.556846	0.641610	0.453797
H133	H	1.056845	0.141585	0.046262
H134	H	1.556845	0.641585	0.546262
H135	H	0.898216	0.221414	-0.046211
H136	H	1.398216	0.721414	0.453789
H137	H	0.898206	0.221406	0.046263
H138	H	1.398206	0.721406	0.546263
C139	C	1.165800	-0.394207	0.156169
C140	C	1.665800	0.105793	0.656169
C141	C	1.258164	-0.363403	0.151725
C142	C	1.758164	0.136597	0.651725
H143	H	1.165221	-0.420936	0.205224
H144	H	1.665221	0.079064	0.705224
H145	H	1.165012	-0.428972	0.113145
H146	H	1.665012	0.071028	0.613145
H147	H	1.104527	-0.353601	0.153163
H148	H	1.604527	0.146399	0.653163
H149	H	1.319438	-0.404010	0.154725
H150	H	1.819438	0.095990	0.654725
H151	H	1.258962	-0.328636	0.194761
H152	H	1.758962	0.171364	0.694761
C153	C	1.462883	0.058028	-0.845528
C154	C	1.962883	0.558028	-0.345528
C155	C	1.390648	0.108481	-0.797557
C156	C	1.890648	0.608481	-0.297557
H157	H	1.506562	0.086327	-0.873827
H158	H	2.006562	0.586327	-0.373827
H159	H	1.424564	0.033202	-0.882326
H160	H	1.924564	0.533202	-0.382326
H161	H	1.506525	0.020346	-0.812958
H162	H	2.006525	0.520346	-0.312958
H163	H	1.347000	0.146160	-0.830128
H164	H	1.847000	0.646160	-0.330128
H165	H	1.428970	0.133319	-0.760755
H166	H	1.928970	0.633319	-0.260755
C167	C	1.165739	-0.394237	-0.156117
C168	C	1.665739	0.105763	0.343883
C169	C	1.258099	-0.363424	-0.151703
C170	C	1.758099	0.136576	0.348297
H171	H	1.165144	-0.420990	-0.205158
H172	H	1.665144	0.079010	0.294842
H173	H	1.104470	-0.353639	-0.153121
H174	H	1.604470	0.146361	0.346879
H175	H	1.164977	-0.428989	-0.113071
H176	H	1.664977	0.071011	0.386929
H177	H	1.258857	-0.328667	-0.194747
H178	H	1.758857	0.171333	0.305253
H179	H	1.319385	-0.404026	-0.154708
H180	H	1.819385	0.095974	0.345292
C181	C	1.161159	-0.599242	-0.195488
C182	C	1.661159	-0.099242	0.304512
C183	C	1.252927	-0.594700	-0.151714
C184	C	1.752927	-0.094700	0.348286
H185	H	1.161780	-0.572516	-0.244542
H186	H	1.661780	-0.072516	0.255458
H187	H	1.099488	-0.576458	-0.165811
H188	H	1.599488	-0.076458	0.334189
H189	H	1.159984	-0.651835	-0.205811
H190	H	1.659984	-0.151835	0.294189
H191	H	1.254098	-0.542107	-0.141387
H192	H	1.754098	-0.042107	0.358613
H193	H	1.314614	-0.617481	-0.181398
H194	H	1.814614	-0.117481	0.318602
C195	C	1.326224	0.164037	-0.154411
C196	C	1.826224	0.664037	0.345589
C197	C	1.390590	0.108487	-0.202384
C198	C	1.890590	0.608487	0.297616
H199	H	1.369895	0.192338	-0.126097
H200	H	1.869895	0.692338	0.373903
H201	H	1.287909	0.139204	-0.117625
H202	H	1.787909	0.639204	0.382375
H203	H	1.277228	0.198251	-0.186980
H204	H	1.777228	0.698251	0.313020
H205	H	1.439581	0.074269	-0.169814
H206	H	1.939581	0.574269	0.330186
H207	H	1.428923	0.133322	-0.239174
H208	H	1.928923	0.633322	0.260826
C209	C	1.447067	0.145094	-0.323302
C210	C	1.947067	0.645094	0.176698
C211	C	1.390600	0.108488	-0.377560
C212	C	1.890600	0.608488	0.122440
H213	H	1.490728	0.173401	-0.351610
H214	H	1.990728	0.673401	0.148390
H215	H	1.490718	0.107411	-0.290752
H216	H	1.990718	0.607411	0.209248
H217	H	1.398045	0.179308	-0.290757
H218	H	1.898045	0.679308	0.209243
H219	H	1.439622	0.074270	-0.410102
H220	H	1.939622	0.574270	0.089898
H221	H	1.346945	0.146175	-0.410124
H222	H	1.846945	0.646175	0.089876
C223	C	1.260719	-0.249184	0.215148
C224	C	1.760719	0.250816	0.715148
C225	C	1.261866	-0.197942	0.151717
C226	C	1.761866	0.302058	0.651717
H227	H	1.261316	-0.222436	0.264192
H228	H	1.761316	0.277564	0.764192
H229	H	1.321993	-0.289776	0.212144
H230	H	1.821993	0.210224	0.712144
H231	H	1.198056	-0.270082	0.212133
H232	H	1.698056	0.229918	0.712133
H233	H	1.324533	-0.177048	0.154728
H234	H	1.824533	0.322952	0.654728
H235	H	1.200585	-0.157336	0.154723
H236	H	1.700585	0.342664	0.654723
H237	H	1.372286	0.096602	-0.634278
H238	H	1.872286	0.596602	-0.134278
C239	C	0.554450	0.184003	0.068170
C240	C	1.054450	0.684003	0.568170
C241	C	0.535423	0.143166	0.000017
C242	C	1.035423	0.643166	0.500017
H243	H	0.508092	0.233360	0.068177
H244	H	1.008092	0.733360	0.568177
H245	H	0.626568	0.190070	0.068158
H246	H	1.126568	0.690070	0.568158
H247	H	0.541575	0.156278	0.114397
H248	H	1.041575	0.656278	0.614397
H249	H	0.548306	0.170888	-0.046210
H250	H	1.048306	0.670888	0.453790
H251	H	0.463288	0.137102	0.000022
H252	H	0.963288	0.637102	0.500022
H253	H	1.252707	-0.605910	0.131124
H254	H	1.752707	-0.105910	0.631124
H255	H	1.138781	-0.054710	-0.365719
H256	H	1.638781	0.445290	0.134281
C257	C	1.247486	-0.837660	0.136468
C258	C	1.747486	-0.337660	0.636468
C259	C	1.249237	-0.760148	0.151722
C260	C	1.749237	-0.260148	0.651722
H261	H	1.246886	-0.864401	0.185514
H262	H	1.746886	-0.364401	0.685514
H263	H	1.309154	-0.860427	0.106778
H264	H	1.809154	-0.360427	0.606778
H265	H	1.185217	-0.840721	0.106775
H266	H	1.685217	-0.340721	0.606775
H267	H	1.311510	-0.757087	0.181411
H268	H	1.811510	-0.257087	0.681411
H269	H	1.187562	-0.737375	0.181424
H270	H	1.687562	-0.237375	0.681424
H271	H	1.249445	-0.748924	-0.131114
H272	H	1.749445	-0.248924	0.368886
H273	H	1.138760	-0.054710	-0.214317
H274	H	1.638760	0.445290	0.285683
C275	C	1.013183	-0.038817	-0.642644
C276	C	1.513183	0.461183	-0.142644
C277	C	1.120431	-0.066586	-0.622446
C278	C	1.620431	0.433414	-0.122446
H279	H	0.969493	-0.067109	-0.614348
H280	H	1.469493	0.432891	-0.114348
H281	H	1.004002	-0.044779	-0.698314
H282	H	1.504002	0.455221	-0.198314
H283	H	0.993316	0.014268	-0.628956
H284	H	1.493316	0.514268	-0.128956
H285	H	1.140300	-0.119671	-0.636140
H286	H	1.640300	0.380329	-0.136140
H287	H	1.129617	-0.060632	-0.566764
H288	H	1.629617	0.439368	-0.066764
C289	C	0.914816	-0.158700	0.000027
C290	C	1.414816	0.341300	0.500027
C291	C	0.975617	-0.101270	0.000016
C292	C	1.475617	0.398730	0.500016
H293	H	0.961158	-0.208063	0.000040
H294	H	1.461158	0.291937	0.500040
H295	H	0.871034	-0.153506	-0.046204
H296	H	1.371034	0.346494	0.453796
H297	H	0.871035	-0.153485	0.046261
H298	H	1.371035	0.346515	0.546261
H299	H	1.019393	-0.106482	-0.046222
H300	H	1.519393	0.393518	0.453778
H301	H	1.019417	-0.106466	0.046251
H302	H	1.519417	0.393534	0.546251
H303	H	1.138796	-0.054708	-0.785713
H304	H	1.638796	0.445292	-0.285713
