data_functionalizedCrystal
_audit_creation_method	'MofGen! by Chris Wilmer'
_symmetry_space_group_name_H-M	'P1'
_symmetry_Int_Tables_number	1
_symmetry_cell_setting	triclinic
loop_
_symmetry_equiv_pos_as_xyz
  x,y,z
_cell_length_a	12.759394
_cell_length_b	12.759401
_cell_length_c	12.759393
_cell_angle_alpha	89.982394
_cell_angle_beta	89.968780
_cell_angle_gamma	90.019110
loop_
_atom_site_label
_atom_site_type_symbol
_atom_site_fract_x
_atom_site_fract_y
_atom_site_fract_z
Zn1	Zn	-0.418096	1.606265	-0.593921
Zn2	Zn	-0.593812	1.606156	-0.418239
Zn3	Zn	-0.418160	1.430564	-0.418267
Zn4	Zn	-0.593747	1.430556	-0.593887
O5	O	-0.505954	1.518385	-0.506079
O6	O	-0.441405	1.753272	-0.570620
O7	O	-0.570565	1.582821	-0.271222
O8	O	-0.271131	1.453921	-0.441594
O9	O	-0.570503	1.753192	-0.441547
O10	O	-0.271083	1.583008	-0.570647
O11	O	-0.441515	1.453815	-0.271242
O12	O	-0.441452	1.283542	-0.441560
O13	O	-0.570392	1.453906	-0.740913
O14	O	-0.570454	1.283536	-0.570587
O15	O	-0.441342	1.582999	-0.740938
O16	O	-0.740824	1.582813	-0.441513
O17	O	-0.740776	1.453800	-0.570561
C18	C	-0.778921	1.518322	-0.506053
C19	C	-0.895698	1.518391	-0.506078
C20	C	-0.505954	1.245418	-0.506074
C21	C	-0.505979	1.128641	-0.506096
C22	C	-0.505853	1.518464	-0.780112
C23	C	-0.505810	1.518497	-0.896889
C24	C	-0.895694	1.652833	-0.371801
C25	C	-0.950553	1.720082	-0.304675
C26	C	-1.060275	1.720143	-0.304704
C27	C	-1.115140	1.652951	-0.371868
C28	C	-1.060281	1.585703	-0.438993
C29	C	-0.950557	1.585647	-0.438955
C30	C	-1.060284	1.451268	-0.573274
C31	C	-0.950563	1.451200	-0.573241
C32	C	-1.115150	1.384076	-0.640437
C33	C	-1.060291	1.316821	-0.707560
C34	C	-0.950562	1.316761	-0.707527
C35	C	-0.895704	1.383951	-0.640367
C36	C	-0.231920	1.518477	-0.506127
C37	C	-0.115143	1.518516	-0.506148
C38	C	-0.505954	1.792418	-0.506084
C39	C	-0.505954	1.909195	-0.506087
C40	C	-0.438744	1.964101	-0.573287
C41	C	-0.438759	2.073825	-0.573295
C42	C	-0.573196	2.073728	-0.438893
C43	C	-0.573186	1.964006	-0.438891
C44	C	-0.438603	1.585721	-0.951766
C45	C	-0.438557	1.585739	-1.061490
C46	C	-0.572935	1.451306	-1.061451
C47	C	-0.572974	1.451284	-0.951728
C48	C	-0.505978	1.518367	-0.233111
C49	C	-0.505725	1.518537	-0.116335
H50	H	-0.905872	1.774791	-0.249993
H51	H	-0.627621	1.396586	-1.106114
H52	H	-0.384000	1.919477	-0.628001
H53	H	-0.627702	1.396535	-0.907046
H54	H	-0.627932	2.118369	-0.384183
H55	H	-0.806353	1.652776	-0.371758
H56	H	-0.383910	1.640448	-0.907119
C57	C	-1.120626	1.794113	-0.230864
C58	C	-1.060288	1.868021	-0.156988
C59	C	-1.120640	1.941988	-0.083148
C60	C	-1.241330	1.942048	-0.083184
C61	C	-1.301675	1.868137	-0.157063
C62	C	-1.241323	1.794169	-0.230903
H63	H	-0.970940	1.867979	-0.156958
H64	H	-1.075968	1.996702	-0.028457
H65	H	-1.286006	1.996803	-0.028523
H66	H	-1.391023	1.868179	-0.157093
H67	H	-1.285995	1.739456	-0.285594
H68	H	-1.104970	1.262124	-0.762244
C69	C	-0.364824	2.134221	-0.647213
C70	C	-0.290875	2.073926	-0.721123
C71	C	-0.216937	2.134322	-0.795045
C72	C	-0.216948	2.255012	-0.795059
C73	C	-0.290898	2.315313	-0.721147
C74	C	-0.364836	2.254917	-0.647224
H75	H	-0.290865	1.984578	-0.721115
H76	H	-0.162194	2.089682	-0.849760
H77	H	-0.162214	2.299720	-0.849781
H78	H	-0.290908	2.404661	-0.721154
H79	H	-0.419580	2.299557	-0.592509
C80	C	-0.647121	1.903603	-0.364964
C81	C	-0.601622	1.828162	-0.282490
C82	C	-0.675556	1.767758	-0.208570
C83	C	-0.794991	1.782796	-0.217125
C84	C	-0.840496	1.858240	-0.299602
C85	C	-0.766562	1.918643	-0.373522
H86	H	-0.513204	1.817027	-0.276155
H87	H	-0.641869	1.711909	-0.147515
H88	H	-0.849721	1.738081	-0.162405
H89	H	-0.928914	1.869374	-0.305938
H90	H	-0.800249	1.974492	-0.434577
H91	H	-1.204481	1.653017	-0.371894
H92	H	-1.204491	1.384136	-0.640460
C93	C	-0.890222	1.242785	-0.781369
C94	C	-0.814682	1.288231	-0.863866
C95	C	-0.754346	1.214254	-0.937710
C96	C	-0.769550	1.094830	-0.929055
C97	C	-0.845094	1.049378	-0.846555
C98	C	-0.905430	1.123355	-0.772712
H99	H	-0.803423	1.376641	-0.870276
H100	H	-0.698423	1.247901	-0.998782
H101	H	-0.724886	1.040067	-0.983719
H102	H	-0.856352	0.960968	-0.840145
H103	H	-0.961352	1.089708	-0.711639
H104	H	-0.383829	1.640478	-1.106166
H105	H	-0.806363	1.383902	-0.640328
