data_functionalizedCrystal
_audit_creation_method	'MofGen! by Chris Wilmer'
_symmetry_space_group_name_H-M	'P1'
_symmetry_Int_Tables_number	1
_symmetry_cell_setting	triclinic
loop_
_symmetry_equiv_pos_as_xyz
  x,y,z
_cell_length_a	14.908571
_cell_length_b	12.645330
_cell_length_c	14.908308
_cell_angle_alpha	86.731360
_cell_angle_beta	89.824947
_cell_angle_gamma	86.708920
loop_
_atom_site_label
_atom_site_type_symbol
_atom_site_fract_x
_atom_site_fract_y
_atom_site_fract_z
Zn1	Zn	1.345359	-0.553229	0.587594
Zn2	Zn	1.353958	-0.720908	0.437238
Zn3	Zn	1.203672	-0.532867	0.428592
Zn4	Zn	1.194986	-0.719648	0.578890
O5	O	1.274494	-0.631663	0.508078
O6	O	1.472326	-0.584520	0.574911
O7	O	1.341256	-0.687969	0.310266
O8	O	1.222503	-0.387225	0.449708
O9	O	1.478645	-0.707714	0.464445
O10	O	1.326600	-0.402184	0.566526
O11	O	1.230841	-0.549816	0.303914
O12	O	1.076692	-0.548595	0.441267
O13	O	1.207699	-0.705567	0.705869
O14	O	1.070311	-0.685823	0.551691
O15	O	1.318177	-0.583299	0.712264
O16	O	1.332834	-0.869084	0.456004
O17	O	1.216038	-0.868159	0.560075
C18	C	1.040876	-0.614864	0.494597
C19	C	0.940932	-0.607704	0.488851
C20	C	0.746540	-0.737345	0.592883
C21	C	0.652633	-0.730621	0.587487
C22	C	0.659211	-0.587528	0.472668
C23	C	0.753118	-0.594251	0.478064
C24	C	0.796778	-0.669164	0.538172
C25	C	0.890687	-0.675892	0.543563
C26	C	0.897263	-0.532794	0.428750
C27	C	0.803357	-0.526070	0.423354
C28	C	1.274450	-0.907088	0.508055
C29	C	1.274512	-1.024924	0.508079
C30	C	1.347885	-1.193009	0.442461
C31	C	1.348101	-1.070476	0.442644
C32	C	1.294736	-1.077205	0.604337
C33	C	1.295308	-1.199819	0.604000
C34	C	1.180833	-1.183876	0.478372
C35	C	1.181411	-1.061168	0.476273
C36	C	1.509023	-0.648529	0.521613
C37	C	1.608966	-0.655716	0.527381
C38	C	1.261010	-0.646564	0.742604
C39	C	1.255264	-0.652914	0.842545
C40	C	1.274561	-0.355165	0.508123
C41	C	1.274590	-0.237338	0.508143
C42	C	1.287976	-0.616747	0.274468
C43	C	1.293896	-0.610111	0.174538
C44	C	1.359506	-0.537503	1.037005
C45	C	1.354110	-0.543466	1.130909
C46	C	1.239073	-0.670796	1.124257
C47	C	1.244469	-0.664833	1.030353
C48	C	1.304688	-0.598186	0.986731
C49	C	1.310088	-0.592229	0.892826
C50	C	1.195047	-0.719553	0.886176
C51	C	1.189651	-0.725515	0.980079
H52	H	0.767795	-0.465076	0.374418
O53	O	1.384237	-1.044757	0.637297
H54	H	1.414451	-0.991428	0.585288
H55	H	0.782089	-0.798347	0.641820
H56	H	1.359123	-0.537963	0.857310
O57	O	0.951446	-0.459244	0.369737
H58	H	1.024081	-0.476498	0.383588
H59	H	1.398746	-0.494049	1.171838
H60	H	1.190045	-0.725056	1.159791
H61	H	1.161385	-1.208869	0.409117
O62	O	1.424458	-0.465635	0.989944
H63	H	1.408022	-0.382468	1.007078
O64	O	0.612129	-0.506727	0.407837
H65	H	0.634206	-0.521593	0.338282
H66	H	1.140620	-0.779775	1.015609
O67	O	1.135912	-0.785007	0.831954
H68	H	1.149775	-0.769662	0.759327
O69	O	1.227269	-1.239062	0.671424
H70	H	1.176041	-1.282043	0.636510
O71	O	0.598491	-0.804210	0.646494
H72	H	0.553081	-0.756743	0.689884
H73	H	1.124298	-1.029651	0.520164
O74	O	0.937784	-0.756679	0.608396
H75	H	0.887069	-0.802950	0.645540
H76	H	1.336081	-1.034830	0.371442
H77	H	1.336078	-1.216920	0.371064
O78	O	1.439537	-1.241703	0.468853
H79	H	1.433115	-1.297339	0.528548
H80	H	1.417655	-1.047156	0.462770
O81	O	1.161064	-1.015011	0.382408
H82	H	1.217017	-0.966451	0.358502
H83	H	1.363677	-1.234641	0.628581
O84	O	1.225874	-1.038453	0.671221
H85	H	1.176388	-0.981379	0.636482
O86	O	1.108619	-1.221902	0.541594
H87	H	1.123858	-1.200378	0.610839
