data_functionalizedCrystal
_audit_creation_method	'MofGen! by Chris Wilmer'
_symmetry_space_group_name_H-M	'P1'
_symmetry_Int_Tables_number	1
_symmetry_cell_setting	triclinic
loop_
_symmetry_equiv_pos_as_xyz
  x,y,z
_cell_length_a	10.489741
_cell_length_b	19.288840
_cell_length_c	17.766277
_cell_angle_alpha	89.983415
_cell_angle_beta	90.002761
_cell_angle_gamma	96.167405
loop_
_atom_site_label
_atom_site_type_symbol
_atom_site_fract_x
_atom_site_fract_y
_atom_site_fract_z
O1	O	-0.158958	0.922430	-0.062714
O2	O	-0.180455	0.720311	-0.062687
O3	O	0.015997	0.825970	-0.062703
O4	O	-0.355409	0.816771	-0.062699
O5	O	0.016006	0.825951	0.062485
O6	O	-0.180445	0.720292	0.062501
O7	O	-0.158948	0.922411	0.062474
Cu8	Cu	-0.169695	0.821350	0.073918
Cu9	Cu	-0.169707	0.821372	-0.074132
O10	O	-0.355399	0.816753	0.062490
C11	C	-0.179763	0.694420	-0.000090
C12	C	-0.177703	0.617302	-0.000080
C13	C	-0.176718	0.581102	-0.068322
C14	C	-0.174768	0.508642	-0.068331
C15	C	-0.173777	0.472387	-0.000094
C16	C	-0.174769	0.508595	0.068157
C17	C	-0.176732	0.581053	0.068164
C18	C	-0.095956	0.362529	0.052173
C19	C	-0.093985	0.290073	0.052163
C20	C	-0.167728	0.248902	-0.000114
C21	C	-0.243425	0.280197	-0.052394
C22	C	-0.245388	0.352655	-0.052387
C23	C	-0.171649	0.393818	-0.000095
C24	C	-0.164631	0.134133	-0.068371
C25	C	-0.162689	0.061671	-0.068378
C26	C	-0.162676	0.061626	0.068112
C27	C	-0.164631	0.134086	0.068117
C28	C	-0.165602	0.170335	-0.000127
C29	C	-0.402920	0.817457	-0.000104
C30	C	-0.544502	0.819535	-0.000103
C31	C	-0.611110	0.886763	-0.000118
C32	C	-0.703950	0.854996	0.061610
C33	C	-0.703938	0.854999	-0.061816
C34	C	-0.635476	0.787741	0.061676
C35	C	-0.635455	0.787753	-0.061805
C36	C	-0.728268	0.755937	-0.000062
C37	C	0.063517	0.825266	-0.000111
C38	C	0.205099	0.823187	-0.000117
C39	C	-0.159639	0.948302	-0.000125
C40	C	-0.161699	1.025420	-0.000140
N41	N	-0.169686	0.821340	0.178049
N42	N	-0.169706	0.821388	-0.178262
C43	C	-0.082740	0.868141	0.217429
C44	C	-0.082734	0.868145	0.296230
C45	C	-0.169696	0.821354	0.335649
C46	C	-0.256649	0.774544	0.296260
C47	C	-0.256644	0.774537	0.217460
C48	C	-0.285910	0.812835	0.460489
C49	C	-0.285917	0.812847	0.539288
C50	C	-0.169712	0.821373	0.578696
C51	C	-0.053494	0.829901	0.539294
C52	C	-0.053489	0.829894	0.460494
C53	C	-0.169711	0.821357	0.421095
C54	C	-0.082752	0.868181	0.703521
C55	C	-0.082744	0.868180	0.782325
C56	C	-0.256670	0.774583	0.782353
C57	C	-0.256667	0.774581	0.703551
C58	C	-0.169709	0.821383	0.664140
H59	H	-0.177509	0.610612	-0.123892
O60	O	-0.173632	0.473405	-0.134578
C61	C	-0.060888	0.398991	-0.213810
C62	C	-0.062030	0.438846	-0.138752
H63	H	0.029346	0.371052	-0.217216
H64	H	-0.149145	0.359105	-0.217241
H65	H	-0.061985	0.437357	-0.262569
H66	H	-0.060890	0.400533	-0.089951
H67	H	0.026219	0.478742	-0.135387
H68	H	-0.011931	0.906248	0.185343
O69	O	-0.599398	0.753863	-0.124112
C70	C	-0.667326	0.694132	-0.238729
C71	C	-0.708336	0.732505	-0.168201
H72	H	-0.755382	0.676841	-0.274387
H73	H	-0.597027	0.730631	-0.273060
H74	H	-0.619204	0.646470	-0.220921
H75	H	-0.756512	0.780166	-0.185943
H76	H	-0.778576	0.695959	-0.133887
H77	H	-0.165424	0.163560	0.123687
O78	O	0.001847	0.913662	0.665349
C79	C	0.174308	1.006522	0.673636
C80	C	0.078589	0.955042	0.716957
H81	H	0.236360	1.040001	0.715342
H82	H	0.237967	0.976252	0.636778
H83	H	0.119385	1.041460	0.636708
H84	H	0.133407	0.920091	0.753926
H85	H	0.014930	0.985356	0.753767
H86	H	-0.303479	0.246677	-0.094960
H87	H	-0.734307	0.883433	0.113790
O88	O	-0.341021	0.729033	0.820600
C89	C	-0.416395	0.608639	0.844718
C90	C	-0.320779	0.660151	0.801366
H91	H	-0.400081	0.552938	0.829171
H92	H	-0.401467	0.616620	0.907813
H93	H	-0.518498	0.618233	0.829224
H94	H	-0.218639	0.650589	0.816797
H95	H	-0.335820	0.652159	0.738281
H96	H	-0.011930	0.906257	0.328299
O97	O	-0.319039	0.382940	-0.103191
C98	C	-0.467012	0.365510	-0.206921
C99	C	-0.383678	0.331122	-0.149418
H100	H	-0.519274	0.323632	-0.244320
H101	H	-0.540096	0.394615	-0.175881
H102	H	-0.403279	0.403755	-0.243167
H103	H	-0.447308	0.292846	-0.113155
H104	H	-0.310585	0.302062	-0.180505
O105	O	-0.165652	0.169238	-0.134727
C106	C	-0.165410	0.161640	-0.270104
C107	C	-0.164274	0.121799	-0.195012
H108	H	-0.164269	0.123305	-0.318864
H109	H	-0.255592	0.189625	-0.273556
H110	H	-0.077111	0.201502	-0.273480
H111	H	-0.252512	0.081905	-0.191585
H112	H	-0.074035	0.093863	-0.191592
H113	H	-0.778951	0.700613	-0.000021
O114	O	-0.173860	0.473483	0.134509
C115	C	-0.173980	0.481089	0.269887
C116	C	-0.175034	0.520936	0.194795
H117	H	-0.174901	0.519439	0.318647
H118	H	-0.262320	0.441261	0.273349
H119	H	-0.083837	0.453067	0.273253
H120	H	-0.265118	0.549000	0.191378
H121	H	-0.086634	0.560724	0.191364
O122	O	-0.340966	0.729057	0.665257
C123	C	-0.368586	0.634365	0.576286
C124	C	-0.272974	0.685872	0.619620
H125	H	-0.313652	0.599446	0.539366
H126	H	-0.430729	0.600872	0.617956
H127	H	-0.432173	0.664685	0.539413
H128	H	-0.209303	0.655608	0.656494
H129	H	-0.210920	0.719365	0.577909
O130	O	-0.739958	0.889045	-0.124053
C131	C	-0.720752	0.996516	-0.194352
C132	C	-0.679838	0.958031	-0.123852
H133	H	-0.672185	1.052302	-0.194204
H134	H	-0.691181	0.968456	-0.246976
H135	H	-0.829268	0.997291	-0.194041
H136	H	-0.571329	0.957245	-0.124090
H137	H	-0.709503	0.986104	-0.071258
O138	O	-0.020430	0.259786	0.103018
C139	C	0.127628	0.277232	0.206704
C140	C	0.044360	0.311619	0.149163
H141	H	0.180053	0.319125	0.244018
H142	H	0.063956	0.239030	0.243034
H143	H	0.200591	0.248082	0.175619
H144	H	-0.028613	0.340807	0.180187
H145	H	0.108113	0.349783	0.112836
O146	O	0.059511	0.838149	0.422336
C147	C	0.290041	0.855098	0.430648
C148	C	0.162163	0.845744	0.473955
H149	H	0.373068	0.861255	0.472363
H150	H	0.298398	0.807421	0.393799
H151	H	0.293319	0.903596	0.393712
H152	H	0.158798	0.797272	0.510931
H153	H	0.153858	0.893457	0.510757
O154	O	-0.341299	0.729121	0.334464
C155	C	-0.563276	0.689548	0.358610
C156	C	-0.467554	0.741024	0.315286
H157	H	-0.665374	0.699163	0.343133
H158	H	-0.547023	0.633821	0.343127
H159	H	-0.548284	0.697582	0.421692
H160	H	-0.482489	0.733054	0.252194
H161	H	-0.483832	0.796732	0.330832
O162	O	-0.599340	0.753756	0.123928
C163	C	-0.498126	0.656665	0.172538
C164	C	-0.538955	0.695092	0.101977
H165	H	-0.449321	0.609219	0.154816
H166	H	-0.428516	0.693270	0.207169
H167	H	-0.586411	0.639034	0.207872
H168	H	-0.450747	0.712727	0.066584
H169	H	-0.608609	0.658462	0.067402
H170	H	-0.380545	0.805880	0.428411
H171	H	-0.380548	0.805907	0.571363
O172	O	0.059377	0.838060	0.577592
C173	C	0.197303	0.788449	0.666609
C174	C	0.069454	0.779108	0.623270
H175	H	0.205480	0.740801	0.703562
H176	H	0.280406	0.794502	0.624941
H177	H	0.200632	0.836991	0.703449
H178	H	0.065999	0.730565	0.586429
H179	H	-0.013590	0.773096	0.664978
H180	H	-0.011936	0.906289	0.814388
H181	H	-0.327447	0.736425	0.185396
H182	H	-0.161895	0.032198	-0.123951
O183	O	-0.161544	0.026506	0.134448
C184	C	-0.050419	0.011601	0.251080
C185	C	-0.051552	0.051441	0.175987
H186	H	0.038514	0.031735	0.284678
H187	H	-0.139981	0.019937	0.284787
H188	H	-0.048912	-0.046407	0.239339
H189	H	-0.053014	0.109461	0.187659
H190	H	0.038004	0.043047	0.142303
H191	H	-0.035902	0.396045	0.094747
O192	O	-0.177508	0.616308	0.134410
C193	C	-0.069190	0.705384	0.213645
C194	C	-0.068173	0.665520	0.138587
H195	H	0.019211	0.745170	0.217054
H196	H	-0.159286	0.733441	0.217074
H197	H	-0.068213	0.667010	0.262404
H198	H	-0.069104	0.703847	0.089786
H199	H	0.021915	0.637452	0.135224
H200	H	-0.560203	0.942037	-0.000064
