data_functionalizedCrystal
_audit_creation_method	'MofGen! by Chris Wilmer'
_symmetry_space_group_name_H-M	'P1'
_symmetry_Int_Tables_number	1
_symmetry_cell_setting	triclinic
loop_
_symmetry_equiv_pos_as_xyz
  x,y,z
_cell_length_a	15.995350
_cell_length_b	15.186229
_cell_length_c	16.109304
_cell_angle_alpha	90.001468
_cell_angle_beta	83.477506
_cell_angle_gamma	90.000317
loop_
_atom_site_label
_atom_site_type_symbol
_atom_site_fract_x
_atom_site_fract_y
_atom_site_fract_z
O1	O	1.110957	0.073148	0.107166
O2	O	0.867178	0.073166	0.120399
O3	O	0.995763	0.073157	-0.007246
O4	O	0.982372	0.073157	0.234812
O5	O	0.995753	-0.073300	-0.007249
O6	O	0.867168	-0.073291	0.120397
O7	O	1.110947	-0.073309	0.107163
Zn8	Zn	0.989056	-0.096553	0.113779
Zn9	Zn	0.989069	0.096410	0.113783
O10	O	0.982362	-0.073300	0.234809
C11	C	0.835978	-0.000060	0.119851
C12	C	0.743029	-0.000054	0.118211
N13	N	0.989053	-0.228246	0.113776
C14	C	1.046014	-0.546168	0.057273
C15	C	1.046011	-0.453979	0.057274
C16	C	0.932115	-0.453981	0.170288
C17	C	0.932122	-0.546169	0.170291
C18	C	0.989070	-0.592260	0.113779
C19	C	0.989061	-0.407883	0.113777
C20	C	0.989058	-0.307927	0.113777
C21	C	0.989075	-0.692223	0.113779
C22	C	0.405283	-0.000072	0.112320
C23	C	0.452741	-0.000399	0.021413
C24	C	0.549430	-0.000062	0.023054
C25	C	0.572842	-0.000063	0.115242
C26	C	0.531749	0.083567	0.160082
C27	C	0.435114	0.083631	0.157798
C28	C	0.434763	-0.082918	0.159673
C29	C	0.531709	-0.084017	0.159652
C30	C	0.667539	-0.000056	0.116898
C31	C	0.310585	-0.000074	0.110667
C32	C	1.142146	-0.000081	0.107711
C33	C	1.235096	-0.000082	0.109352
C34	C	0.995215	-0.000069	-0.038223
C35	C	0.993588	-0.000063	-0.130518
N36	N	0.989078	0.228103	0.113780
C37	C	0.989833	0.079768	-0.342855
C38	C	0.988296	0.079767	-0.429576
C39	C	0.988289	-0.079909	-0.429576
C40	C	0.989820	-0.079907	-0.342856
C41	C	0.990596	-0.000066	-0.299499
C42	C	0.987529	-0.000069	-0.472939
C43	C	0.985862	-0.000070	-0.566965
C44	C	0.992261	-0.000065	-0.205466
C45	C	0.982910	-0.000072	0.265785
C46	C	0.984537	-0.000072	0.358081
H47	H	1.092381	-0.416453	0.011262
N48	N	0.987544	0.161318	-0.473863
N49	N	1.045682	0.179124	-0.529913
H50	H	1.045155	0.236724	-0.561190
N51	N	0.987496	-0.161452	-0.473879
N52	N	0.986129	-0.161444	-0.551307
H53	H	0.985570	-0.219036	-0.582596
H54	H	0.885752	-0.583700	0.216309
N55	N	0.990628	0.161327	-0.298579
N56	N	0.989947	0.232601	-0.337305
H57	H	0.990507	0.290206	-0.306038
N58	N	0.990591	-0.161469	-0.298575
N59	N	0.989903	-0.232748	-0.337295
H60	H	0.990443	-0.290349	-0.306021
H61	H	0.577864	-0.060013	-0.012193
N62	N	0.429513	-0.075672	-0.024127
N63	N	0.354411	-0.087119	-0.036034
H64	H	0.338008	-0.140298	-0.068181
N65	N	1.104187	-0.593236	-0.000456
N66	N	1.155025	-0.552067	-0.050904
H67	H	1.196113	-0.585306	-0.091677
N68	N	0.873953	-0.406885	0.228006
N69	N	0.873953	-0.324575	0.227996
H70	H	0.832874	-0.291313	0.268759
H71	H	0.433160	0.059246	-0.014756
N72	N	0.584389	0.075278	-0.021459
N73	N	0.537366	0.127779	-0.053829
H74	H	0.562054	0.180993	-0.085267
N75	N	0.412169	0.162061	0.116782
N76	N	0.467499	0.216369	0.090038
H77	H	0.451299	0.271762	0.061068
N78	N	0.394643	0.088391	0.241527
N79	N	0.437796	0.091661	0.301460
H80	H	0.409218	0.095025	0.360594
N81	N	0.549447	0.087460	0.245047
N82	N	0.592648	0.028501	0.273566
H83	H	0.605149	0.031247	0.333573
N84	N	0.567387	0.161643	0.121032
N85	N	0.623037	0.155910	0.060187
H86	H	0.648216	0.211049	0.032610
H87	H	0.414231	-0.146308	0.129952
H88	H	0.559030	-0.145887	0.126919
H89	H	0.547056	-0.089069	0.226878
H90	H	0.402984	-0.083484	0.226698
