data_functionalizedCrystal
_audit_creation_method	'MofGen! by Chris Wilmer'
_symmetry_space_group_name_H-M	'P1'
_symmetry_Int_Tables_number	1
_symmetry_cell_setting	triclinic
loop_
_symmetry_equiv_pos_as_xyz
  x,y,z
_cell_length_a	21.295420
_cell_length_b	21.295417
_cell_length_c	18.101390
_cell_angle_alpha	89.962939
_cell_angle_beta	89.980592
_cell_angle_gamma	90.026289
loop_
_atom_site_label
_atom_site_type_symbol
_atom_site_fract_x
_atom_site_fract_y
_atom_site_fract_z
Zn1	Zn	0.962323	-0.250656	-0.418713
Zn2	Zn	1.212323	-0.000656	-0.168713
Zn3	Zn	1.462323	0.249344	0.081287
Zn4	Zn	1.712323	0.499344	0.331287
Zn5	Zn	0.962235	-0.355936	-0.294863
Zn6	Zn	1.212235	-0.105936	-0.044863
Zn7	Zn	1.462235	0.144064	0.205137
Zn8	Zn	1.712235	0.394064	0.455137
Zn9	Zn	0.857056	-0.250677	-0.294886
Zn10	Zn	1.107056	-0.000677	-0.044886
Zn11	Zn	1.357056	0.249323	0.205114
Zn12	Zn	1.607056	0.499323	0.455114
Zn13	Zn	0.857016	-0.355884	-0.418663
Zn14	Zn	1.107016	-0.105884	-0.168663
Zn15	Zn	1.357016	0.144116	0.081337
Zn16	Zn	1.607016	0.394116	0.331337
O17	O	0.909657	-0.303288	-0.356781
O18	O	1.159657	-0.053288	-0.106781
O19	O	1.409657	0.196712	0.143219
O20	O	1.659657	0.446712	0.393219
O21	O	1.050401	-0.264635	-0.402296
O22	O	1.300401	-0.014635	-0.152296
O23	O	1.550401	0.235365	0.097704
O24	O	1.800401	0.485365	0.347704
O25	O	0.948263	-0.342004	-0.191233
O26	O	1.198263	-0.092004	0.058767
O27	O	1.448263	0.157996	0.308767
O28	O	1.698263	0.407996	0.558767
O29	O	0.871073	-0.162585	-0.311343
O30	O	1.121073	0.087415	-0.061343
O31	O	1.371073	0.337415	0.188657
O32	O	1.621073	0.587415	0.438657
O33	O	1.050336	-0.341984	-0.311303
O34	O	1.300336	-0.091984	-0.061303
O35	O	1.550336	0.158016	0.188697
O36	O	1.800336	0.408016	0.438697
O37	O	0.948413	-0.162569	-0.402318
O38	O	1.198413	0.087431	-0.152318
O39	O	1.448413	0.337431	0.097682
O40	O	1.698413	0.587431	0.347682
O41	O	0.870988	-0.264671	-0.191250
O42	O	1.120988	-0.014671	0.058750
O43	O	1.370988	0.235329	0.308750
O44	O	1.620988	0.485329	0.558750
O45	O	0.768961	-0.264620	-0.311294
O46	O	1.018961	-0.014620	-0.061294
O47	O	1.268961	0.235380	0.188706
O48	O	1.518961	0.485380	0.438706
O49	O	0.871005	-0.341894	-0.522302
O50	O	1.121005	-0.091894	-0.272302
O51	O	1.371005	0.158106	-0.022302
O52	O	1.621005	0.408106	0.227698
O53	O	0.768932	-0.341914	-0.402232
O54	O	1.018932	-0.091914	-0.152232
O55	O	1.268932	0.158086	0.097768
O56	O	1.518932	0.408086	0.347768
O57	O	0.948374	-0.264584	-0.522339
O58	O	1.198374	-0.014584	-0.272339
O59	O	1.448374	0.235416	-0.022339
O60	O	1.698374	0.485416	0.227661
O61	O	0.948224	-0.444019	-0.311254
O62	O	1.198224	-0.194019	-0.061254
O63	O	1.448224	0.055981	0.188746
O64	O	1.698224	0.305981	0.438746
O65	O	0.870920	-0.443980	-0.402210
O66	O	1.120920	-0.193980	-0.152210
O67	O	1.370920	0.056020	0.097790
O68	O	1.620920	0.306020	0.347790
C69	C	0.746106	-0.303264	-0.356760
C70	C	0.996106	-0.053264	-0.106760
C71	C	1.246106	0.196736	0.143240
C72	C	1.496106	0.446736	0.393240
C73	C	0.676138	-0.303269	-0.356769
C74	C	0.926138	-0.053269	-0.106769
C75	C	1.176138	0.196731	0.143231
C76	C	1.426138	0.446731	0.393231
C77	C	0.176713	-0.263108	-0.404249
C78	C	0.426713	-0.013108	-0.154249
C79	C	0.676713	0.236892	0.095751
C80	C	0.926713	0.486892	0.345751
C81	C	0.242455	-0.263103	-0.404249
C82	C	0.492455	-0.013103	-0.154249
C83	C	0.742455	0.236897	0.095751
C84	C	0.992455	0.486897	0.345751
C85	C	0.275298	-0.303307	-0.356798
C86	C	0.525298	-0.053307	-0.106798
C87	C	0.775298	0.196693	0.143202
C88	C	1.025298	0.446693	0.393202
C89	C	0.242393	-0.343531	-0.309358
C90	C	0.492393	-0.093531	-0.059358
C91	C	0.742393	0.156469	0.190642
C92	C	0.992393	0.406469	0.440642
C93	C	0.176652	-0.343539	-0.309364
C94	C	0.426652	-0.093539	-0.059364
C95	C	0.676652	0.156461	0.190636
C96	C	0.926652	0.406461	0.440636
N97	N	0.378493	-0.308058	-0.291953
N98	N	0.628493	-0.058058	-0.041953
N99	N	0.878493	0.191942	0.208047
N100	N	1.128493	0.441942	0.458047
N101	N	0.440945	-0.308047	-0.291948
N102	N	0.690945	-0.058047	-0.041948
N103	N	0.940945	0.191953	0.208052
N104	N	1.190945	0.441953	0.458052
C105	C	0.473373	-0.303287	-0.356777
C106	C	0.723373	-0.053287	-0.106777
C107	C	0.973373	0.196713	0.143223
C108	C	1.223373	0.446713	0.393223
N109	N	0.440991	-0.298526	-0.421610
N110	N	0.690991	-0.048526	-0.171610
N111	N	0.940991	0.201474	0.078390
N112	N	1.190991	0.451474	0.328390
N113	N	0.378534	-0.298534	-0.421614
N114	N	0.628534	-0.048534	-0.171614
N115	N	0.878534	0.201466	0.078386
N116	N	1.128534	0.451466	0.328386
C117	C	0.346584	-0.303303	-0.356786
C118	C	0.596584	-0.053303	-0.106786
C119	C	0.846584	0.196697	0.143214
C120	C	1.096584	0.446697	0.393214
C121	C	0.577556	-0.263064	-0.404218
C122	C	0.827556	-0.013064	-0.154218
C123	C	1.077556	0.236936	0.095782
C124	C	1.327556	0.486936	0.345782
C125	C	0.643299	-0.263063	-0.404219
C126	C	0.893299	-0.013063	-0.154219
C127	C	1.143299	0.236937	0.095781
C128	C	1.393299	0.486937	0.345781
C129	C	0.643236	-0.343488	-0.309321
C130	C	0.893236	-0.093488	-0.059321
C131	C	1.143236	0.156512	0.190679
C132	C	1.393236	0.406512	0.440679
C133	C	0.577494	-0.343492	-0.309327
C134	C	0.827494	-0.093492	-0.059327
C135	C	1.077494	0.156508	0.190673
C136	C	1.327494	0.406508	0.440673
C137	C	0.544657	-0.303276	-0.356774
C138	C	0.794657	-0.053276	-0.106774
C139	C	1.044657	0.196724	0.143226
C140	C	1.294657	0.446724	0.393226
C141	C	0.909575	-0.466840	-0.356740
C142	C	1.159575	-0.216840	-0.106740
C143	C	1.409575	0.033160	0.143260
C144	C	1.659575	0.283160	0.393260
C145	C	0.909597	-0.536808	-0.356747
C146	C	1.159597	-0.286808	-0.106747
C147	C	1.409597	-0.036808	0.143253
C148	C	1.659597	0.213192	0.393253
C149	C	0.949885	-0.569674	-0.309435
C150	C	1.199885	-0.319674	-0.059435
C151	C	1.449885	-0.069674	0.190565
C152	C	1.699885	0.180326	0.440565
C153	C	0.949915	-0.635416	-0.309452
C154	C	1.199915	-0.385416	-0.059452
C155	C	1.449915	-0.135416	0.190548
C156	C	1.699915	0.114584	0.440548
C157	C	0.909645	-0.668290	-0.356773
C158	C	1.159645	-0.418290	-0.106773
C159	C	1.409645	-0.168290	0.143227
C160	C	1.659645	0.081710	0.393227
C161	C	0.869354	-0.635417	-0.404094
C162	C	1.119354	-0.385417	-0.154094
C163	C	1.369354	-0.135417	0.095906
C164	C	1.619354	0.114583	0.345906
C165	C	0.869330	-0.569675	-0.404081
C166	C	1.119330	-0.319675	-0.154081
C167	C	1.369330	-0.069675	0.095919
C168	C	1.619330	0.180325	0.345919
N169	N	0.854578	-0.771552	-0.362411
N170	N	1.104578	-0.521552	-0.112411
N171	N	1.354578	-0.271552	0.137589
N172	N	1.604578	-0.021552	0.387589
N173	N	0.854602	-0.834003	-0.362419
N174	N	1.104602	-0.584003	-0.112419
N175	N	1.354602	-0.334003	0.137581
N176	N	1.604602	-0.084003	0.387581
C177	C	0.909716	-0.866365	-0.356815
C178	C	1.159716	-0.616365	-0.106815
C179	C	1.409716	-0.366365	0.143185
C180	C	1.659716	-0.116365	0.393185
N181	N	0.964805	-0.833916	-0.351189
N182	N	1.214805	-0.583916	-0.101189
N183	N	1.464805	-0.333916	0.148811
N184	N	1.714805	-0.083916	0.398811
N185	N	0.964780	-0.771459	-0.351177
N186	N	1.214780	-0.521459	-0.101177
N187	N	1.464780	-0.271459	0.148823
N188	N	1.714780	-0.021459	0.398823
C189	C	0.909667	-0.739576	-0.356792
C190	C	1.159667	-0.489576	-0.106792
C191	C	1.409667	-0.239576	0.143208
C192	C	1.659667	0.010424	0.393208
C193	C	0.950039	-0.970517	-0.309519
C194	C	1.200039	-0.720517	-0.059519
C195	C	1.450039	-0.470517	0.190481
C196	C	1.700039	-0.220517	0.440481
C197	C	0.950070	-1.036260	-0.309541
C198	C	1.200070	-0.786260	-0.059541
C199	C	1.450070	-0.536260	0.190459
C200	C	1.700070	-0.286260	0.440459
C201	C	0.869503	-1.036259	-0.404179
C202	C	1.119503	-0.786259	-0.154179
C203	C	1.369503	-0.536259	0.095821
C204	C	1.619503	-0.286259	0.345821
C205	C	0.869478	-0.970517	-0.404161
C206	C	1.119478	-0.720517	-0.154161
C207	C	1.369478	-0.470517	0.095839
C208	C	1.619478	-0.220517	0.345839
C209	C	0.909745	-0.937649	-0.356827
C210	C	1.159745	-0.687649	-0.106827
C211	C	1.409745	-0.437649	0.143173
C212	C	1.659745	-0.187649	0.393173
C213	C	1.073848	-0.303313	-0.356803
C214	C	1.323848	-0.053313	-0.106803
C215	C	1.573848	0.196687	0.143197
C216	C	1.823848	0.446687	0.393197
C217	C	1.143816	-0.303323	-0.356812
C218	C	1.393816	-0.053323	-0.106812
C219	C	1.643816	0.196677	0.143188
C220	C	1.893816	0.446677	0.393188
C221	C	0.909695	-0.303231	-0.549943
C222	C	1.159695	-0.053231	-0.299943
C223	C	1.409695	0.196769	-0.049943
C224	C	1.659695	0.446769	0.200057
C225	C	0.909711	-0.303206	-0.632257
C226	C	1.159711	-0.053206	-0.382257
C227	C	1.409711	0.196794	-0.132257
C228	C	1.659711	0.446794	0.117743
C229	C	0.909757	-0.139098	-0.356838
C230	C	1.159757	0.110902	-0.106838
C231	C	1.409757	0.360902	0.143162
C232	C	1.659757	0.610902	0.393162
C233	C	0.909800	-0.069130	-0.356863
C234	C	1.159800	0.180870	-0.106863
C235	C	1.409800	0.430870	0.143137
C236	C	1.659800	0.680870	0.393137
C237	C	0.909745	-0.303167	-0.931348
C238	C	1.159745	-0.053167	-0.681348
C239	C	1.409745	0.196833	-0.431348
C240	C	1.659745	0.446833	-0.181348
C241	C	0.958583	-0.254697	-0.900046
C242	C	1.208583	-0.004697	-0.650046
C243	C	1.458583	0.245303	-0.400046
C244	C	1.708583	0.495303	-0.150046
C245	C	0.958431	-0.254517	-0.814428
C246	C	1.208431	-0.004517	-0.564428
C247	C	1.458431	0.245483	-0.314428
C248	C	1.708431	0.495483	-0.064428
C249	C	0.909728	-0.303186	-0.782966
C250	C	1.159728	-0.053186	-0.532966
C251	C	1.409728	0.196814	-0.282966
C252	C	1.659728	0.446814	-0.032966
C253	C	0.843413	-0.285159	-0.814041
C254	C	1.093413	-0.035159	-0.564041
C255	C	1.343413	0.214841	-0.314041
C256	C	1.593413	0.464841	-0.064041
C257	C	0.843705	-0.284795	-0.899686
C258	C	1.093705	-0.034795	-0.649686
C259	C	1.343705	0.215205	-0.399686
C260	C	1.593705	0.465205	-0.149686
C261	C	0.926638	-0.369790	-0.899755
C262	C	1.176638	-0.119790	-0.649755
C263	C	1.426638	0.130210	-0.399755
C264	C	1.676638	0.380210	-0.149755
C265	C	0.928093	-0.369450	-0.814105
C266	C	1.178093	-0.119450	-0.564105
C267	C	1.428093	0.130550	-0.314105
C268	C	1.678093	0.380550	-0.064105
C269	C	0.909715	-0.303199	-0.699106
C270	C	1.159715	-0.053199	-0.449106
C271	C	1.409715	0.196801	-0.199106
C272	C	1.659715	0.446801	0.050894
C273	C	0.909754	-0.303153	-1.015208
C274	C	1.159754	-0.053153	-0.765208
C275	C	1.409754	0.196847	-0.515208
C276	C	1.659754	0.446847	-0.265208
C277	C	0.909656	-0.303300	-0.164371
C278	C	1.159656	-0.053300	0.085629
C279	C	1.409656	0.196700	0.335629
C280	C	1.659656	0.446700	0.585629
C281	C	0.909762	-0.303147	-0.082057
C282	C	1.159762	-0.053147	0.167943
C283	C	1.409762	0.196853	0.417943
C284	C	1.659762	0.446853	0.667943
H285	H	0.269245	-0.230352	-0.442877
H286	H	0.519245	0.019648	-0.192877
H287	H	0.769245	0.269648	0.057123
H288	H	1.019245	0.519648	0.307123
H289	H	0.806079	-0.318563	-0.920391
H290	H	1.056079	-0.068563	-0.670391
H291	H	1.306079	0.181437	-0.420391
H292	H	1.556079	0.431437	-0.170391
F293	F	0.141770	-0.220310	-0.454751
F294	F	0.391770	0.029690	-0.204751
F295	F	0.641770	0.279690	0.045249
F296	F	0.891770	0.529690	0.295249
F297	F	1.023070	-0.269268	-0.926976
F298	F	1.273070	-0.019268	-0.676976
F299	F	1.523070	0.230732	-0.426976
F300	F	1.773070	0.480732	-0.176976
H301	H	0.149868	-0.376289	-0.270734
H302	H	0.399868	-0.126289	-0.020734
H303	H	0.649868	0.123711	0.229266
H304	H	0.899868	0.373711	0.479266
H305	H	0.947249	-0.205161	-0.793960
H306	H	1.197249	0.044839	-0.543960
H307	H	1.447249	0.294839	-0.293960
H308	H	1.697249	0.544839	-0.043960
H309	H	0.550819	-0.230318	-0.442852
H310	H	0.800819	0.019682	-0.192852
H311	H	1.050819	0.269682	0.057148
H312	H	1.300819	0.519682	0.307148
F313	F	0.678311	-0.220262	-0.454716
F314	F	0.928311	0.029738	-0.204716
F315	F	1.178311	0.279738	0.045284
F316	F	1.428311	0.529738	0.295284
H317	H	0.982675	-0.542915	-0.270895
H318	H	1.232675	-0.292915	-0.020895
H319	H	1.482675	-0.042915	0.229105
H320	H	1.732675	0.207085	0.479105
F321	F	1.022707	-0.269266	-0.786965
F322	F	1.272707	-0.019266	-0.536965
F323	F	1.522707	0.230734	-0.286965
F324	F	1.772707	0.480734	-0.036965
H325	H	0.982881	-1.063018	-0.271015
H326	H	1.232881	-0.813018	-0.021015
H327	H	1.482881	-0.563018	0.228985
H328	H	1.732881	-0.313018	0.478985
H329	H	0.829385	-0.236094	-0.919681
H330	H	1.079385	0.013906	-0.669681
H331	H	1.329385	0.263906	-0.419681
H332	H	1.579385	0.513906	-0.169681
F333	F	0.542481	-0.386288	-0.258827
F334	F	0.792481	-0.136288	-0.008827
F335	F	1.042481	0.113712	0.241173
F336	F	1.292481	0.363712	0.491173
F337	F	0.826595	-0.935537	-0.454514
F338	F	1.076595	-0.685537	-0.204514
F339	F	1.326595	-0.435537	0.045486
F340	F	1.576595	-0.185537	0.295486
H341	H	0.806037	-0.319375	-0.793659
H342	H	1.056037	-0.069375	-0.543659
H343	H	1.306037	0.180625	-0.293659
H344	H	1.556037	0.430625	-0.043659
H345	H	0.828832	-0.236999	-0.792607
H346	H	1.078832	0.013001	-0.542607
H347	H	1.328832	0.263001	-0.292607
H348	H	1.578832	0.513001	-0.042607
H349	H	0.669976	-0.376228	-0.270692
H350	H	0.919976	-0.126228	-0.020692
H351	H	1.169976	0.123772	0.229308
H352	H	1.419976	0.373772	0.479308
F353	F	0.944156	-0.190545	-0.928203
F354	F	1.194156	0.059455	-0.678203
F355	F	1.444156	0.309455	-0.428203
F356	F	1.694156	0.559455	-0.178203
F357	F	0.988760	-0.391222	-0.927993
F358	F	1.238760	-0.141222	-0.677993
F359	F	1.488760	0.108778	-0.427993
F360	F	1.738760	0.358778	-0.177993
H361	H	0.891069	-0.405906	-0.920002
H362	H	1.141069	-0.155906	-0.670002
H363	H	1.391069	0.094094	-0.420002
H364	H	1.641069	0.344094	-0.170002
F365	F	0.991883	-0.387218	-0.787563
F366	F	1.241883	-0.137218	-0.537563
F367	F	1.491883	0.112782	-0.287563
F368	F	1.741883	0.362782	-0.037563
F369	F	0.884976	-0.419192	-0.786113
F370	F	1.134976	-0.169192	-0.536113
F371	F	1.384976	0.080808	-0.286113
F372	F	1.634976	0.330808	-0.036113
F373	F	0.826499	-0.670404	-0.454459
F374	F	1.076499	-0.420404	-0.204459
F375	F	1.326499	-0.170404	0.045541
F376	F	1.576499	0.079596	0.295541
H377	H	0.836522	-0.542915	-0.442609
H378	H	1.086522	-0.292915	-0.192609
H379	H	1.336522	-0.042915	0.057391
H380	H	1.586522	0.207085	0.307391
H381	H	0.982724	-0.662181	-0.270925
H382	H	1.232724	-0.412181	-0.020925
H383	H	1.482724	-0.162181	0.229075
H384	H	1.732724	0.087819	0.479075
F385	F	0.992894	-0.935534	-0.259142
F386	F	1.242894	-0.685534	-0.009142
F387	F	1.492894	-0.435534	0.240858
F388	F	1.742894	-0.185534	0.490858
F389	F	0.277348	-0.386321	-0.258860
F390	F	0.527348	-0.136321	-0.008860
F391	F	0.777348	0.113679	0.241140
F392	F	1.027348	0.363679	0.491140
H393	H	0.836718	-1.063025	-0.442712
H394	H	1.086718	-0.813025	-0.192712
H395	H	1.336718	-0.563025	0.057288
H396	H	1.586718	-0.313025	0.307288
