data_functionalizedCrystal
_audit_creation_method	'MofGen! by Chris Wilmer'
_symmetry_space_group_name_H-M	'P1'
_symmetry_Int_Tables_number	1
_symmetry_cell_setting	triclinic
loop_
_symmetry_equiv_pos_as_xyz
  x,y,z
_cell_length_a	10.654550
_cell_length_b	16.992695
_cell_length_c	9.730223
_cell_angle_alpha	89.995280
_cell_angle_beta	89.999957
_cell_angle_gamma	87.576577
loop_
_atom_site_label
_atom_site_type_symbol
_atom_site_fract_x
_atom_site_fract_y
_atom_site_fract_z
O1	O	1.677361	0.110190	-0.114188
O2	O	1.312790	0.120688	-0.114214
O3	O	1.493614	0.001288	-0.114190
O4	O	1.496537	0.229590	-0.114212
O5	O	1.493601	0.001285	0.114390
O6	O	1.312777	0.120685	0.114366
O7	O	1.677349	0.110187	0.114391
Zn8	Zn	1.495061	0.115435	0.150671
Zn9	Zn	1.495078	0.115439	-0.150493
O10	O	1.496525	0.229586	0.114368
C11	C	1.265919	0.119916	0.000073
C12	C	1.126277	0.117609	0.000064
C13	C	1.052866	0.187910	0.000061
C14	C	0.921658	0.185738	0.000085
C15	C	0.937282	0.042959	0.000109
C16	C	1.068488	0.045132	0.000095
C17	C	1.489848	-0.027946	0.000099
C18	C	1.478628	-0.115051	0.000098
C19	C	1.586879	-0.164703	0.000107
C20	C	1.576330	-0.246547	0.000093
C21	C	1.457529	-0.278738	0.000080
C22	C	1.349270	-0.229080	0.000067
C23	C	1.359820	-0.147237	0.000071
C24	C	1.413802	-0.522573	0.000058
C25	C	1.403260	-0.604422	0.000059
C26	C	1.630321	-0.621884	0.000082
C27	C	1.640861	-0.540039	0.000094
C28	C	1.532602	-0.490388	0.000074
N29	N	1.446743	-0.362395	0.000071
N30	N	1.543389	-0.406733	0.000074
C31	C	1.724220	0.110959	0.000102
C32	C	1.863862	0.113265	0.000102
C33	C	1.500291	0.258821	0.000075
C34	C	1.511510	0.345926	0.000068
N35	N	1.495059	0.115432	0.356207
N36	N	1.495089	0.115437	-0.356030
C37	C	1.575159	0.062584	0.428144
C38	C	1.575171	0.062584	0.572026
C39	C	1.414980	0.168287	0.572024
C40	C	1.414962	0.168282	0.428144
H41	H	0.861892	0.242984	0.000086
H42	H	1.718458	-0.662318	0.000096
N43	N	1.243053	-0.093691	0.000085
H44	H	1.242367	-0.059353	0.084824
H45	H	1.242427	-0.059388	-0.084702
N46	N	1.715016	-0.129986	0.000134
H47	H	1.781990	-0.173863	0.000135
H48	H	1.724346	-0.096404	-0.084600
N49	N	1.115188	0.266082	0.000030
H50	H	1.088946	0.296912	0.084765
H51	H	1.209431	0.256731	-0.000035
N52	N	1.661527	0.005564	0.350574
H53	H	1.610014	-0.029452	0.290902
H54	H	1.720157	0.035908	0.290934
H55	H	0.890215	-0.016050	0.000142
H56	H	1.128262	-0.012119	0.000101
H57	H	1.640394	0.019550	0.630593
H58	H	1.664480	-0.286971	0.000104
H59	H	1.737601	-0.513836	0.000105
N60	N	1.275119	-0.639145	0.000043
H61	H	1.208137	-0.595273	0.000026
H62	H	1.265814	-0.672720	-0.084695
H63	H	1.325649	-0.482157	0.000042
N64	N	1.221132	-0.263795	0.000044
H65	H	1.230872	-0.323176	0.000048
H66	H	1.173395	-0.245678	0.084778
N67	N	1.328595	0.225288	0.649613
H68	H	1.340761	0.217274	0.751677
H69	H	1.348683	0.281028	0.624445
N70	N	1.328554	0.225278	0.350543
H71	H	1.277821	0.258762	0.417944
H72	H	1.380120	0.260240	0.290823
