data_functionalizedCrystal
_audit_creation_method	'MofGen! by Chris Wilmer'
_symmetry_space_group_name_H-M	'P1'
_symmetry_Int_Tables_number	1
_symmetry_cell_setting	triclinic
loop_
_symmetry_equiv_pos_as_xyz
  x,y,z
_cell_length_a	15.995350
_cell_length_b	9.065218
_cell_length_c	8.140239
_cell_angle_alpha	90.002802
_cell_angle_beta	89.998714
_cell_angle_gamma	95.745870
loop_
_atom_site_label
_atom_site_type_symbol
_atom_site_fract_x
_atom_site_fract_y
_atom_site_fract_z
O1	O	0.122770	-1.957507	-0.136609
O2	O	0.132840	-1.527985	-0.136610
O3	O	0.006007	-1.754487	-0.136608
O4	O	0.249604	-1.731005	-0.136611
O5	O	0.006005	-1.754475	0.136619
O6	O	0.132839	-1.527973	0.136617
O7	O	0.122769	-1.957495	0.136619
Zn8	Zn	0.127803	-1.742732	0.179998
Zn9	Zn	0.127806	-1.742748	-0.179990
O10	O	0.249602	-1.730992	0.136616
C11	C	0.131872	-1.473015	0.000003
C12	C	0.128978	-1.309240	0.000002
C13	C	-0.025196	-1.753510	0.000003
C14	C	-0.118169	-1.750600	-0.000007
C15	C	0.123737	-2.012465	0.000002
C16	C	0.126631	-2.176239	-0.000008
C17	C	-0.455995	-1.740148	-0.000001
C18	C	-0.409785	-1.578837	-0.000615
C19	C	-0.313072	-1.581748	0.000001
C20	C	-0.288396	-1.745332	-0.000005
C21	C	-0.328871	-1.824889	0.156019
C22	C	-0.425537	-1.820837	0.156149
C23	C	-0.425868	-1.824183	-0.154561
C24	C	-0.328923	-1.824145	-0.156623
C25	C	-0.193676	-1.748271	-0.000001
C26	C	-0.550716	-1.737214	0.000006
C27	C	0.280805	-1.731969	0.000002
C28	C	0.373778	-1.734880	0.000001
N29	N	0.127802	-1.742731	0.425681
N30	N	0.127801	-1.742760	-0.425673
H31	H	-0.285124	-1.519210	-0.111842
N32	N	-0.449052	-1.748006	0.302436
N33	N	-0.485561	-1.632682	0.292742
H34	H	-0.502165	-1.581237	0.396057
N35	N	-0.464859	-1.969409	0.165047
N36	N	-0.420884	-2.075757	0.171152
H37	H	-0.448650	-2.180685	0.177448
H38	H	-0.428805	-1.514368	-0.112502
H39	H	-0.313833	-1.945070	0.161817
H40	H	-0.429866	-1.514644	0.110649
N41	N	-0.464572	-1.973388	-0.155852
N42	N	-0.514139	-2.017813	-0.043558
H43	H	-0.541474	-2.123187	-0.044451
H44	H	-0.446807	-1.771448	-0.272818
H45	H	-0.302115	-1.765979	-0.272045
H46	H	-0.300909	-1.769623	0.272130
N47	N	-0.308498	-1.973786	-0.168454
N48	N	-0.263543	-2.025014	-0.061162
H49	H	-0.249113	-2.130701	-0.069510
H50	H	-0.285686	-1.518780	0.112035
