data_functionalizedCrystal
_audit_creation_method	'MofGen! by Chris Wilmer'
_symmetry_space_group_name_H-M	'P1'
_symmetry_Int_Tables_number	1
_symmetry_cell_setting	triclinic
loop_
_symmetry_equiv_pos_as_xyz
  x,y,z
_cell_length_a	19.288864
_cell_length_b	19.288865
_cell_length_c	17.766277
_cell_angle_alpha	89.988397
_cell_angle_beta	89.976791
_cell_angle_gamma	83.136245
loop_
_atom_site_label
_atom_site_type_symbol
_atom_site_fract_x
_atom_site_fract_y
_atom_site_fract_z
O1	O	0.921353	0.086649	-0.062844
O2	O	1.171353	0.336649	0.187156
O3	O	1.421353	0.586649	0.437156
O4	O	1.671353	0.836649	0.687156
O5	O	0.719092	0.098337	-0.062794
O6	O	0.969092	0.348337	0.187206
O7	O	1.219092	0.598337	0.437206
O8	O	1.469092	0.848337	0.687206
O9	O	0.826067	-0.008637	-0.062806
O10	O	1.076067	0.241363	0.187194
O11	O	1.326067	0.491363	0.437194
O12	O	1.576067	0.741363	0.687194
O13	O	0.814378	0.193623	-0.062832
O14	O	1.064378	0.443623	0.187168
O15	O	1.314378	0.693623	0.437168
O16	O	1.564378	0.943623	0.687168
O17	O	0.826048	-0.008643	0.062383
O18	O	1.076048	0.241357	0.312383
O19	O	1.326048	0.491357	0.562383
O20	O	1.576048	0.741357	0.812383
O21	O	0.719074	0.098332	0.062395
O22	O	0.969074	0.348332	0.312395
O23	O	1.219074	0.598332	0.562395
O24	O	1.469074	0.848332	0.812395
O25	O	0.921334	0.086643	0.062344
O26	O	1.171334	0.336643	0.312344
O27	O	1.421334	0.586643	0.562344
O28	O	1.671334	0.836643	0.812344
Cu29	Cu	0.820202	0.092487	0.073800
Cu30	Cu	1.070202	0.342487	0.323800
Cu31	Cu	1.320202	0.592487	0.573800
Cu32	Cu	1.570202	0.842487	0.823800
Cu33	Cu	0.820224	0.092494	-0.074250
Cu34	Cu	1.070224	0.342494	0.175750
Cu35	Cu	1.320224	0.592494	0.425750
Cu36	Cu	1.570224	0.842494	0.675750
O37	O	0.814360	0.193618	0.062356
O38	O	1.064360	0.443618	0.312356
O39	O	1.314360	0.693618	0.562356
O40	O	1.564360	0.943618	0.812356
C41	C	0.693207	0.097959	-0.000193
C42	C	0.943207	0.347959	0.249807
C43	C	1.193207	0.597959	0.499807
C44	C	1.443207	0.847959	0.749807
C45	C	0.616103	0.096830	-0.000173
C46	C	0.866103	0.346830	0.249827
C47	C	1.116103	0.596830	0.499827
C48	C	1.366103	0.846830	0.749827
C49	C	0.571407	0.159598	-0.000193
C50	C	0.821407	0.409598	0.249807
C51	C	1.071407	0.659598	0.499807
C52	C	1.321407	0.909598	0.749807
C53	C	0.498960	0.158537	-0.000201
C54	C	0.748960	0.408537	0.249799
C55	C	0.998960	0.658537	0.499799
C56	C	1.248960	0.908537	0.749799
C57	C	0.471212	0.094705	-0.000205
C58	C	0.721212	0.344705	0.249795
C59	C	0.971212	0.594705	0.499795
C60	C	1.221212	0.844705	0.749795
C61	C	0.515918	0.031929	-0.000180
C62	C	0.765918	0.281929	0.249820
C63	C	1.015918	0.531929	0.499820
C64	C	1.265918	0.781929	0.749820
C65	C	0.588364	0.032991	-0.000164
C66	C	0.838364	0.282991	0.249836
C67	C	1.088364	0.532991	0.499836
C68	C	1.338364	0.782991	0.749836
C69	C	0.362957	0.044527	-0.044082
C70	C	0.612957	0.294527	0.205918
C71	C	0.862957	0.544527	0.455918
C72	C	1.112957	0.794527	0.705918
C73	C	0.290512	0.043468	-0.044103
C74	C	0.540512	0.293468	0.205897
C75	C	0.790512	0.543468	0.455897
C76	C	1.040512	0.793468	0.705897
C77	C	0.247767	0.091425	-0.000250
C78	C	0.497767	0.341425	0.249750
C79	C	0.747767	0.591425	0.499750
C80	C	0.997767	0.841425	0.749750
C81	C	0.277473	0.140454	0.043614
C82	C	0.527473	0.390454	0.293614
C83	C	0.777473	0.640454	0.543614
C84	C	1.027473	0.890454	0.793614
C85	C	0.349918	0.141517	0.043630
C86	C	0.599918	0.391517	0.293630
C87	C	0.849918	0.641517	0.543630
C88	C	1.099918	0.891517	0.793630
C89	C	0.392658	0.093546	-0.000221
C90	C	0.642658	0.343546	0.249779
C91	C	0.892658	0.593546	0.499779
C92	C	1.142658	0.843546	0.749779
C93	C	0.124514	0.153047	-0.000278
C94	C	0.374514	0.403047	0.249722
C95	C	0.624514	0.653047	0.499722
C96	C	0.874514	0.903047	0.749722
C97	C	0.052066	0.151984	-0.000281
C98	C	0.302066	0.401984	0.249719
C99	C	0.552066	0.651984	0.499719
C100	C	0.802066	0.901984	0.749719
C101	C	0.069026	0.025374	-0.000267
C102	C	0.319026	0.275374	0.249733
C103	C	0.569026	0.525374	0.499733
C104	C	0.819026	0.775374	0.749733
C105	C	0.141473	0.026439	-0.000256
C106	C	0.391473	0.276439	0.249744
C107	C	0.641473	0.526439	0.499744
C108	C	0.891473	0.776439	0.749744
C109	C	0.169212	0.090278	-0.000265
C110	C	0.419212	0.340278	0.249735
C111	C	0.669212	0.590278	0.499735
C112	C	0.919212	0.840278	0.749735
C113	C	0.825682	-0.034516	-0.000209
C114	C	1.075682	0.215484	0.249791
C115	C	1.325682	0.465484	0.499791
C116	C	1.575682	0.715484	0.749791
C117	C	0.824553	-0.111620	-0.000202
C118	C	1.074553	0.138380	0.249798
C119	C	1.324553	0.388380	0.499798
C120	C	1.574553	0.638380	0.749798
C121	C	0.887321	-0.156316	-0.000214
C122	C	1.137321	0.093684	0.249786
C123	C	1.387321	0.343684	0.499786
C124	C	1.637321	0.593684	0.749786
C125	C	0.886260	-0.228763	-0.000226
C126	C	1.136260	0.021237	0.249774
C127	C	1.386260	0.271237	0.499774
C128	C	1.636260	0.521237	0.749774
C129	C	0.822428	-0.256511	-0.000210
C130	C	1.072428	-0.006511	0.249790
C131	C	1.322428	0.243489	0.499790
C132	C	1.572428	0.493489	0.749790
C133	C	0.759652	-0.211805	-0.000203
C134	C	1.009652	0.038195	0.249797
C135	C	1.259652	0.288195	0.499797
C136	C	1.509652	0.538195	0.749797
C137	C	0.760714	-0.139359	-0.000198
C138	C	1.010714	0.110641	0.249802
C139	C	1.260714	0.360641	0.499802
C140	C	1.510714	0.610641	0.749802
C141	C	0.772242	-0.364800	0.043653
C142	C	1.022242	-0.114800	0.293653
C143	C	1.272242	0.135200	0.543653
C144	C	1.522242	0.385200	0.793653
C145	C	0.771182	-0.437245	0.043654
C146	C	1.021182	-0.187245	0.293654
C147	C	1.271182	0.062755	0.543654
C148	C	1.521182	0.312755	0.793654
C149	C	0.819148	-0.479956	-0.000226
C150	C	1.069148	-0.229956	0.249774
C151	C	1.319148	0.020044	0.499774
C152	C	1.569148	0.270044	0.749774
C153	C	0.868186	-0.450216	-0.044097
C154	C	1.118186	-0.200216	0.205903
C155	C	1.368186	0.049784	0.455903
C156	C	1.618186	0.299784	0.705903
C157	C	0.869249	-0.377771	-0.044093
C158	C	1.119249	-0.127771	0.205907
C159	C	1.369249	0.122229	0.455907
C160	C	1.619249	0.372229	0.705907
C161	C	0.821269	-0.335065	-0.000215
C162	C	1.071269	-0.085065	0.249785
C163	C	1.321269	0.164935	0.499785
C164	C	1.571269	0.414935	0.749785
C165	C	0.880770	-0.603209	-0.000252
C166	C	1.130770	-0.353209	0.249748
C167	C	1.380770	-0.103209	0.499748
C168	C	1.630770	0.146791	0.749748
C169	C	0.879707	-0.675657	-0.000268
C170	C	1.129707	-0.425657	0.249732
C171	C	1.379707	-0.175657	0.499732
C172	C	1.629707	0.074343	0.749732
C173	C	0.753097	-0.658697	-0.000238
C174	C	1.003097	-0.408697	0.249762
C175	C	1.253097	-0.158697	0.499762
C176	C	1.503097	0.091303	0.749762
C177	C	0.754162	-0.586250	-0.000229
C178	C	1.004162	-0.336250	0.249771
C179	C	1.254162	-0.086250	0.499771
C180	C	1.504162	0.163750	0.749771
C181	C	0.818001	-0.558511	-0.000232
C182	C	1.068001	-0.308511	0.249768
C183	C	1.318001	-0.058511	0.499768
C184	C	1.568001	0.191489	0.749768
C185	C	0.947220	0.087022	-0.000258
C186	C	1.197220	0.337022	0.249742
C187	C	1.447220	0.587022	0.499742
C188	C	1.697220	0.837022	0.749742
C189	C	1.024324	0.088151	-0.000283
C190	C	1.274324	0.338151	0.249717
C191	C	1.524324	0.588151	0.499717
C192	C	1.774324	0.838151	0.749717
C193	C	0.814745	0.219497	-0.000242
C194	C	1.064745	0.469497	0.249758
C195	C	1.314745	0.719497	0.499758
C196	C	1.564745	0.969497	0.749758
C197	C	0.815874	0.296601	-0.000254
C198	C	1.065874	0.546601	0.249746
C199	C	1.315874	0.796601	0.499746
C200	C	1.565874	1.046601	0.749746
N201	N	0.820192	0.092482	0.177931
N202	N	1.070192	0.342482	0.427931
N203	N	1.320192	0.592482	0.677931
N204	N	1.570192	0.842482	0.927931
N205	N	0.820241	0.092493	-0.178380
N206	N	1.070241	0.342493	0.071620
N207	N	1.320241	0.592493	0.321620
N208	N	1.570241	0.842493	0.571620
C209	C	0.867575	0.045137	0.217312
C210	C	1.117575	0.295137	0.467312
C211	C	1.367575	0.545137	0.717312
C212	C	1.617575	0.795137	0.967312
C213	C	0.867579	0.045134	0.296114
C214	C	1.117579	0.295134	0.546114
C215	C	1.367579	0.545134	0.796114
C216	C	1.617579	0.795134	1.046114
C217	C	0.820206	0.092488	0.335531
C218	C	1.070206	0.342488	0.585531
C219	C	1.320206	0.592488	0.835531
C220	C	1.570206	0.842488	1.085531
C221	C	0.772814	0.139837	0.296140
C222	C	1.022814	0.389837	0.546140
C223	C	1.272814	0.639837	0.796140
C224	C	1.522814	0.889837	1.046140
C225	C	0.772807	0.139834	0.217340
C226	C	1.022807	0.389834	0.467340
C227	C	1.272807	0.639834	0.717340
C228	C	1.522807	0.889834	0.967340
C229	C	0.810908	0.155775	0.460362
C230	C	1.060908	0.405775	0.710362
C231	C	1.310908	0.655775	0.960362
C232	C	1.560908	0.905775	1.210362
C233	C	0.810920	0.155779	0.539161
C234	C	1.060920	0.405779	0.789161
C235	C	1.310920	0.655779	1.039161
C236	C	1.560920	0.905779	1.289161
C237	C	0.820225	0.092496	0.578577
C238	C	1.070225	0.342496	0.828577
C239	C	1.320225	0.592496	1.078577
C240	C	1.570225	0.842496	1.328577
C241	C	0.829533	0.029207	0.539185
C242	C	1.079533	0.279207	0.789185
C243	C	1.329533	0.529207	1.039185
C244	C	1.579533	0.779207	1.289185
C245	C	0.829525	0.029204	0.460385
C246	C	1.079525	0.279204	0.710385
C247	C	1.329525	0.529204	0.960385
C248	C	1.579525	0.779204	1.210385
C249	C	0.820209	0.092496	0.420977
C250	C	1.070209	0.342496	0.670977
C251	C	1.320209	0.592496	0.920977
C252	C	1.570209	0.842496	1.170977
C253	C	0.867616	0.045143	0.703405
C254	C	1.117616	0.295143	0.953405
C255	C	1.367616	0.545143	1.203405
C256	C	1.617616	0.795143	1.453405
C257	C	0.867615	0.045139	0.782208
C258	C	1.117615	0.295139	1.032208
C259	C	1.367615	0.545139	1.282208
C260	C	1.617615	0.795139	1.532208
C261	C	0.772853	0.139848	0.782233
C262	C	1.022853	0.389848	1.032233
C263	C	1.272853	0.639848	1.282233
C264	C	1.522853	0.889848	1.532233
C265	C	0.772850	0.139846	0.703431
C266	C	1.022850	0.389846	0.953431
C267	C	1.272850	0.639846	1.203431
C268	C	1.522850	0.889846	1.453431
C269	C	0.820235	0.092495	0.664022
C270	C	1.070235	0.342495	0.914022
C271	C	1.320235	0.592495	1.164022
C272	C	1.570235	0.842495	1.414022
H273	H	0.015674	0.203099	-0.000293
H274	H	0.265674	0.453099	0.249707
H275	H	0.515674	0.703099	0.499707
H276	H	0.765674	0.953099	0.749707
H277	H	0.593987	0.211580	-0.000202
H278	H	0.843987	0.461580	0.249798
H279	H	1.093987	0.711580	0.499798
H280	H	1.343987	0.961580	0.749798
H281	H	0.909176	-0.353560	-0.079815
H282	H	1.159176	-0.103560	0.170185
H283	H	1.409176	0.146440	0.420185
H284	H	1.659176	0.396440	0.670185
H285	H	0.701123	-0.681288	-0.000229
H286	H	0.951123	-0.431288	0.249771
H287	H	1.201123	-0.181288	0.499771
H288	H	1.451123	0.068712	0.749771
H289	H	0.937375	-0.265162	-0.000238
H290	H	1.187375	-0.015162	0.249762
H291	H	1.437375	0.234838	0.499762
H292	H	1.687375	0.484838	0.749762
H293	H	0.906166	0.006578	0.328185
H294	H	1.156166	0.256578	0.578185
H295	H	1.406166	0.506578	0.828185
H296	H	1.656166	0.756578	1.078185
H297	H	0.734220	0.178389	0.185274
H298	H	0.984220	0.428389	0.435274
H299	H	1.234220	0.678389	0.685274
H300	H	1.484220	0.928389	0.935274
H301	H	0.907245	-0.484991	-0.079829
H302	H	1.157245	-0.234991	0.170171
H303	H	1.407245	0.015009	0.420171
H304	H	1.657245	0.265009	0.670171
H305	H	0.624756	-0.018124	-0.000148
H306	H	0.874756	0.231876	0.249852
H307	H	1.124756	0.481876	0.499852
H308	H	1.374756	0.731876	0.749852
H309	H	0.837102	-0.022328	0.428315
H310	H	1.087102	0.227672	0.678315
H311	H	1.337102	0.477672	0.928315
H312	H	1.587102	0.727672	1.178315
H313	H	0.932751	-0.580622	-0.000258
H314	H	1.182751	-0.330622	0.249742
H315	H	1.432751	-0.080622	0.499742
H316	H	1.682751	0.169378	0.749742
H317	H	0.837110	-0.022324	0.571277
H318	H	1.087110	0.227676	0.821277
H319	H	1.337110	0.477676	1.071277
H320	H	1.587110	0.727676	1.321277
H321	H	0.703049	-0.549857	-0.000215
H322	H	0.953049	-0.299857	0.249785
H323	H	1.203049	-0.049857	0.499785
H324	H	1.453049	0.200143	0.749785
H325	H	0.906198	0.006585	0.671317
H326	H	1.156198	0.256585	0.921317
H327	H	1.406198	0.506585	1.171317
H328	H	1.656198	0.756585	1.421317
H329	H	0.266331	0.003548	-0.079822
H330	H	0.516331	0.253548	0.170178
H331	H	0.766331	0.503548	0.420178
H332	H	1.016331	0.753548	0.670178
H333	H	0.734269	0.178402	0.671364
H334	H	0.984269	0.428402	0.921364
H335	H	1.234269	0.678402	1.171364
H336	H	1.484269	0.928402	1.421364
H337	H	0.906198	0.006581	0.814274
H338	H	1.156198	0.256581	1.064274
H339	H	1.406198	0.506581	1.314274
H340	H	1.656198	0.756581	1.564274
H341	H	0.462561	0.209652	-0.000216
H342	H	0.712561	0.459652	0.249784
H343	H	0.962561	0.709652	0.499784
H344	H	1.212561	0.959652	0.749784
H345	H	0.177866	-0.024674	-0.000244
H346	H	0.427866	0.225326	0.249756
H347	H	0.677866	0.475326	0.499756
H348	H	0.927866	0.725326	0.749756
H349	H	0.803345	0.207313	0.571228
H350	H	1.053345	0.457313	0.821228
H351	H	1.303345	0.707313	1.071228
H352	H	1.553345	0.957313	1.321228
H353	H	0.374102	0.181436	0.079347
H354	H	0.624102	0.431436	0.329347
H355	H	0.874102	0.681436	0.579347
H356	H	1.124102	0.931436	0.829347
H357	H	0.930822	-0.712049	-0.000282
H358	H	1.180822	-0.462049	0.249718
H359	H	1.430822	-0.212049	0.499718
H360	H	1.680822	0.037951	0.749718
H361	H	0.734278	0.178402	0.814325
H362	H	0.984278	0.428402	1.064325
H363	H	1.234278	0.678402	1.314325
H364	H	1.484278	0.928402	1.564325
H365	H	0.803318	0.207311	0.428276
H366	H	1.053318	0.457311	0.678276
H367	H	1.303318	0.707311	0.928276
H368	H	1.553318	0.957311	1.178276
H369	H	0.731249	-0.461453	0.079371
H370	H	0.981249	-0.211453	0.329371
H371	H	1.231249	0.038547	0.579371
H372	H	1.481249	0.288547	0.829371
H373	H	0.242670	0.179505	0.079324
H374	H	0.492670	0.429505	0.329324
H375	H	0.742670	0.679505	0.579324
H376	H	0.992670	0.929505	0.829324
H377	H	0.147101	0.205028	-0.000274
H378	H	0.397101	0.455028	0.249726
H379	H	0.647101	0.705028	0.499726
H380	H	0.897101	0.955028	0.749726
H381	H	0.734241	0.178392	0.328237
H382	H	0.984241	0.428392	0.578237
H383	H	1.234241	0.678392	0.828237
H384	H	1.484241	0.928392	1.078237
H385	H	0.046435	-0.026600	-0.000317
H386	H	0.296435	0.223400	0.249683
H387	H	0.546435	0.473400	0.499683
H388	H	0.796435	0.723400	0.749683
H389	H	0.733180	-0.330029	0.079389
H390	H	0.983180	-0.080029	0.329389
H391	H	1.233180	0.169971	0.579389
H392	H	1.483180	0.419971	0.829389
H393	H	0.493322	-0.020044	-0.000193
H394	H	0.743322	0.229956	0.249807
H395	H	0.993322	0.479956	0.499807
H396	H	1.243322	0.729956	0.749807
H397	H	0.397755	0.005473	-0.079797
H398	H	0.647755	0.255473	0.170203
H399	H	0.897755	0.505473	0.420203
H400	H	1.147755	0.755473	0.670203
H401	H	0.939303	-0.133736	-0.000220
H402	H	1.189303	0.116264	0.249780
H403	H	1.439303	0.366264	0.499780
H404	H	1.689303	0.616264	0.749780
H405	H	0.707679	-0.234401	-0.000192
H406	H	0.957679	0.015599	0.249808
H407	H	1.207679	0.265599	0.499808
H408	H	1.457679	0.515599	0.749808
H409	H	0.906158	0.006579	0.185228
H410	H	1.156158	0.256579	0.435228
H411	H	1.406158	0.506579	0.685228
H412	H	1.656158	0.756579	0.935228
H413	H	0.709599	-0.102967	-0.000188
H414	H	0.959599	0.147033	0.249812
H415	H	1.209599	0.397033	0.499812
H416	H	1.459599	0.647033	0.749812
