data_functionalizedCrystal
_audit_creation_method	'MofGen! by Chris Wilmer'
_symmetry_space_group_name_H-M	'P1'
_symmetry_Int_Tables_number	1
_symmetry_cell_setting	triclinic
loop_
_symmetry_equiv_pos_as_xyz
  x,y,z
_cell_length_a	16.109301
_cell_length_b	17.699083
_cell_length_c	15.186229
_cell_angle_alpha	89.995368
_cell_angle_beta	89.999362
_cell_angle_gamma	83.372248
loop_
_atom_site_label
_atom_site_type_symbol
_atom_site_fract_x
_atom_site_fract_y
_atom_site_fract_z
O1	O	1.102963	0.097285	-0.073175
O2	O	0.860880	0.109391	-0.073189
O3	O	0.988761	-0.006841	-0.073174
O4	O	0.975082	0.213517	-0.073190
O5	O	0.988753	-0.006843	0.073284
O6	O	0.860872	0.109390	0.073268
O7	O	1.102955	0.097283	0.073283
Zn8	Zn	0.981912	0.103336	0.096529
Zn9	Zn	0.981923	0.103338	-0.096435
O10	O	0.975074	0.213516	0.073267
C11	C	0.829902	0.108900	0.000038
C12	C	0.737609	0.107430	0.000033
C13	C	0.515224	0.172981	0.000038
C14	C	0.428506	0.171594	0.000044
C15	C	0.448618	0.033688	0.000050
C16	C	0.535334	0.035076	0.000051
C17	C	0.568635	0.104725	0.000040
C18	C	0.395200	0.101949	0.000046
C19	C	0.301177	0.100445	0.000052
C20	C	0.662664	0.106230	0.000036
C21	C	0.988267	-0.035040	0.000055
C22	C	0.986796	-0.119060	0.000055
C23	C	1.061860	-0.167574	0.000061
C24	C	1.060473	-0.246519	0.000053
C25	C	0.984022	-0.276949	0.000046
C26	C	0.908953	-0.228429	0.000038
C27	C	0.910341	-0.149485	0.000039
C28	C	0.903356	-0.546800	0.000030
C29	C	0.901974	-0.625750	0.000031
C30	C	1.053488	-0.643834	0.000044
C31	C	1.054876	-0.564890	0.000046
C32	C	0.979807	-0.516377	0.000033
C33	C	0.981312	-0.430776	0.000040
C34	C	0.982517	-0.362549	0.000045
C35	C	1.133933	0.097774	0.000054
C36	C	1.226226	0.099244	0.000053
C37	C	0.975568	0.241714	0.000037
C38	C	0.977039	0.325734	0.000031
N39	N	0.981910	0.103334	0.228221
N40	N	0.981931	0.103334	-0.228128
C41	C	1.038555	0.051884	0.453951
C42	C	1.038558	0.051882	0.546141
C43	C	0.925280	0.154787	0.546136
C44	C	0.925274	0.154785	0.453948
C45	C	0.981916	0.103334	0.407858
C46	C	0.981925	0.103334	0.592236
C47	C	0.981927	0.103333	0.692192
C48	C	0.981913	0.103334	0.307896
H49	H	0.421494	-0.023018	0.000064
H50	H	1.084675	0.009988	0.416427
H51	H	0.842230	-0.507310	0.000020
C52	C	1.100863	-0.004712	0.596844
C53	C	1.163172	-0.061298	0.546145
C54	C	1.225479	-0.117895	0.596848
C55	C	1.225478	-0.117906	0.698251
C56	C	1.163167	-0.061319	0.748957
C57	C	1.100860	-0.004722	0.698253
H58	H	1.163175	-0.061291	0.471075
H59	H	1.271606	-0.159784	0.559312
H60	H	1.271602	-0.159803	0.735785
H61	H	1.163164	-0.061326	0.824026
H62	H	1.054733	0.037168	0.735789
H63	H	0.542334	0.229694	0.000036
H64	H	1.124115	-0.142805	0.000072
C65	C	0.824855	-0.261899	0.000022
C66	C	0.823324	-0.348734	0.000020
C67	C	0.739224	-0.382202	0.000003
C68	C	0.656655	-0.328835	-0.000011
C69	C	0.658183	-0.241995	-0.000009
C70	C	0.742283	-0.208527	0.000007
H71	H	0.884449	-0.388244	0.000030
H72	H	0.738093	-0.446486	0.000002
H73	H	0.594399	-0.353610	-0.000023
H74	H	0.597057	-0.202486	-0.000020
H75	H	0.743413	-0.144243	0.000009
H76	H	0.839715	-0.650523	0.000027
C77	C	0.862982	0.211388	0.596836
C78	C	0.863029	0.211438	0.698239
C79	C	0.800731	0.268042	0.748936
C80	C	0.738386	0.324596	0.698229
C81	C	0.738336	0.324547	0.596820
C82	C	0.800634	0.267943	0.546124
H83	H	0.909183	0.169572	0.735780
H84	H	0.800768	0.268078	0.824005
H85	H	0.692269	0.366497	0.735758
H86	H	0.692182	0.366413	0.559279
H87	H	0.800597	0.267907	0.471054
H88	H	1.121597	-0.286017	0.000060
H89	H	0.385022	0.227175	0.000044
H90	H	0.879148	0.196682	0.416417
H91	H	1.117130	-0.540119	0.000056
C92	C	1.136067	-0.697201	0.000047
C93	C	1.155944	-0.753969	0.076096
C94	C	1.238521	-0.807333	0.076103
C95	C	1.301220	-0.803929	0.000060
C96	C	1.281345	-0.747159	-0.075995
C97	C	1.198768	-0.693794	-0.076001
H98	H	1.109529	-0.756491	0.132393
H99	H	1.253233	-0.849359	0.132404
H100	H	1.362348	-0.843433	0.000065
H101	H	1.327760	-0.744637	-0.132291
H102	H	1.184056	-0.651769	-0.132302
H103	H	0.849216	-0.109986	0.000034
H104	H	0.578824	-0.020510	0.000055
