data_functionalizedCrystal
_audit_creation_method	'MofGen! by Chris Wilmer'
_symmetry_space_group_name_H-M	'P1'
_symmetry_Int_Tables_number	1
_symmetry_cell_setting	triclinic
loop_
_symmetry_equiv_pos_as_xyz
  x,y,z
_cell_length_a	16.625548
_cell_length_b	18.101397
_cell_length_c	16.625539
_cell_angle_alpha	89.970842
_cell_angle_beta	89.979432
_cell_angle_gamma	90.020834
loop_
_atom_site_label
_atom_site_type_symbol
_atom_site_fract_x
_atom_site_fract_y
_atom_site_fract_z
Zn1	Zn	1.232696	-0.294807	-0.455905
Zn2	Zn	1.566029	0.038526	-0.122571
Zn3	Zn	1.899362	0.371860	0.210762
Zn4	Zn	1.232605	-0.418656	-0.321070
Zn5	Zn	1.565938	-0.085323	0.012264
Zn6	Zn	1.899272	0.248010	0.345597
Zn7	Zn	1.097857	-0.294835	-0.321085
Zn8	Zn	1.431191	0.038498	0.012248
Zn9	Zn	1.764524	0.371831	0.345582
Zn10	Zn	1.097834	-0.418614	-0.455860
Zn11	Zn	1.431168	-0.085280	-0.122526
Zn12	Zn	1.764501	0.248053	0.210807
O13	O	1.165248	-0.356728	-0.388480
O14	O	1.498581	-0.023395	-0.055146
O15	O	1.831915	0.309939	0.278187
O16	O	1.345516	-0.311242	-0.438031
O17	O	1.678849	0.022091	-0.104698
O18	O	2.012183	0.355425	0.228636
O19	O	1.214702	-0.402261	-0.208239
O20	O	1.548036	-0.068927	0.125094
O21	O	1.881369	0.264406	0.458427
O22	O	1.115792	-0.191199	-0.338994
O23	O	1.449125	0.142135	-0.005661
O24	O	1.782458	0.475468	0.327672
O25	O	1.345450	-0.402233	-0.338968
O26	O	1.678783	-0.068900	-0.005635
O27	O	2.012116	0.264433	0.327698
O28	O	1.214857	-0.191178	-0.438046
O29	O	1.548190	0.142155	-0.104712
O30	O	1.881523	0.475489	0.228621
O31	O	1.115704	-0.311290	-0.208251
O32	O	1.449037	0.022043	0.125083
O33	O	1.782371	0.355377	0.458416
O34	O	0.985022	-0.311249	-0.338951
O35	O	1.318355	0.022085	-0.005618
O36	O	1.651689	0.355418	0.327716
O37	O	1.115752	-0.402161	-0.568698
O38	O	1.449085	-0.068828	-0.235365
O39	O	1.782419	0.264506	0.097969
O40	O	0.985005	-0.402188	-0.437969
O41	O	1.318338	-0.068855	-0.104636
O42	O	1.651672	0.264478	0.228698
O43	O	1.214834	-0.311201	-0.568731
O44	O	1.548167	0.022133	-0.235398
O45	O	1.881501	0.355466	0.097936
O46	O	1.214680	-0.522283	-0.338925
O47	O	1.548013	-0.188950	-0.005591
O48	O	1.881347	0.144383	0.327742
O49	O	1.115664	-0.522252	-0.437954
O50	O	1.448998	-0.188919	-0.104621
O51	O	1.782331	0.144414	0.228712
C52	C	0.955757	-0.356717	-0.388457
C53	C	1.289091	-0.023384	-0.055124
C54	C	1.622424	0.309949	0.278209
C55	C	0.866136	-0.356731	-0.388467
C56	C	1.199469	-0.023397	-0.055133
C57	C	1.532803	0.309936	0.278200
C58	C	1.165182	-0.549139	-0.388451
C59	C	1.498515	-0.215805	-0.055117
C60	C	1.831848	0.117528	0.278216
C61	C	1.165227	-0.631453	-0.388465
C62	C	1.498560	-0.298119	-0.055132
C63	C	1.831894	0.035214	0.278202
C64	C	0.537960	-0.356736	-0.388501
C65	C	0.871294	-0.023402	-0.055168
C66	C	1.204627	0.309931	0.278165
C67	C	0.629269	-0.356732	-0.388489
C68	C	0.962602	-0.023399	-0.055156
C69	C	1.295936	0.309934	0.278178
C70	C	0.702045	-0.356734	-0.388483
C71	C	1.035379	-0.023400	-0.055150
C72	C	1.368712	0.309933	0.278183
C73	C	0.793360	-0.356729	-0.388472
C74	C	1.126693	-0.023396	-0.055139
C75	C	1.460026	0.309937	0.278194
C76	C	1.165276	-0.782161	-0.388492
C77	C	1.498609	-0.448828	-0.055159
C78	C	1.831943	-0.115494	0.278174
C79	C	1.227635	-0.813503	-0.326246
C80	C	1.560969	-0.480170	0.007087
C81	C	1.894302	-0.146837	0.340421
C82	C	1.227480	-0.899122	-0.326017
C83	C	1.560814	-0.565789	0.007316
C84	C	1.894147	-0.232455	0.340649
C85	C	1.165326	-0.930544	-0.388519
C86	C	1.498659	-0.597210	-0.055186
C87	C	1.831992	-0.263877	0.278147
C88	C	1.080290	-0.899529	-0.365648
C89	C	1.413623	-0.566196	-0.032314
C90	C	1.746957	-0.232862	0.301019
C91	C	1.080622	-0.813884	-0.365180
C92	C	1.413956	-0.480551	-0.031847
C93	C	1.747289	-0.147218	0.301487
C94	C	1.187220	-0.813654	-0.473773
C95	C	1.520553	-0.480320	-0.140439
C96	C	1.853886	-0.146987	0.192894
C97	C	1.189123	-0.899303	-0.473334
C98	C	1.522456	-0.565970	-0.140001
C99	C	1.855790	-0.232637	0.193333
C100	C	1.165348	-1.014403	-0.388536
C101	C	1.498682	-0.681070	-0.055203
C102	C	1.832015	-0.347736	0.278131
C103	C	1.165247	-0.698302	-0.388474
C104	C	1.498581	-0.364968	-0.055141
C105	C	1.831914	-0.031635	0.278193
C106	C	1.375557	-0.356739	-0.388503
C107	C	1.708890	-0.023406	-0.055170
C108	C	2.042224	0.309927	0.278164
C109	C	1.465178	-0.356744	-0.388513
C110	C	1.798511	-0.023411	-0.055179
C111	C	2.131845	0.309923	0.278154
C112	C	1.165301	-0.356673	-0.598789
C113	C	1.498634	-0.023340	-0.265455
C114	C	1.831967	0.309994	0.067878
C115	C	1.165323	-0.356649	-0.688410
C116	C	1.498656	-0.023316	-0.355077
C117	C	1.831990	0.310017	-0.021743
C118	C	1.165337	-0.163566	-0.388527
C119	C	1.498670	0.169767	-0.055193
C120	C	1.832003	0.503101	0.278140
C121	C	1.165375	-0.081252	-0.388547
C122	C	1.498708	0.252081	-0.055213
C123	C	1.832041	0.585415	0.278120
C124	C	1.165360	-0.356566	-1.016586
C125	C	1.498693	-0.023233	-0.683252
C126	C	1.832027	0.310100	-0.349919
C127	C	1.165347	-0.356592	-0.925277
C128	C	1.498681	-0.023259	-0.591944
C129	C	1.832014	0.310075	-0.258611
C130	C	1.165342	-0.356609	-0.852501
C131	C	1.498675	-0.023275	-0.519167
C132	C	1.832009	0.310058	-0.185834
C133	C	1.165328	-0.356633	-0.761186
C134	C	1.498662	-0.023299	-0.427853
C135	C	1.831995	0.310034	-0.094520
C136	C	1.165242	-0.356730	-0.178989
C137	C	1.498576	-0.023396	0.154344
C138	C	1.831909	0.309937	0.487678
C139	C	1.165376	-0.356544	-0.089368
C140	C	1.498709	-0.023211	0.243965
C141	C	1.832043	0.310122	0.577298
H142	H	1.290529	-0.920089	-0.340304
H143	H	1.623862	-0.586756	-0.006970
H144	H	1.957195	-0.253422	0.326363
H145	H	1.032575	-0.919884	-0.409599
H146	H	1.365908	-0.586550	-0.076265
H147	H	1.699241	-0.253217	0.257068
H148	H	1.032566	-0.793153	-0.408558
H149	H	1.365899	-0.459820	-0.075224
H150	H	1.699233	-0.126486	0.258109
Br151	Br	1.293421	-0.933088	-0.502096
Br152	Br	1.626754	-0.599755	-0.168763
Br153	Br	1.960088	-0.266422	0.164571
H154	H	1.147049	-0.920689	-0.522187
H155	H	1.480382	-0.587355	-0.188854
H156	H	1.813716	-0.254022	0.144479
Br157	Br	1.111536	-0.779854	-0.551074
Br158	Br	1.444870	-0.446520	-0.217740
Br159	Br	1.778203	-0.113187	0.115593
Br160	Br	1.333031	-0.779099	-0.349774
Br161	Br	1.666364	-0.445765	-0.016441
Br162	Br	1.999697	-0.112432	0.316893
Br163	Br	1.203698	-0.777722	-0.221524
Br164	Br	1.537032	-0.444389	0.111809
Br165	Br	1.870365	-0.111055	0.445143
H166	H	1.212953	-0.919664	-0.262836
H167	H	1.546286	-0.586331	0.070497
H168	H	1.879619	-0.252998	0.403831
Br169	Br	1.048826	-0.935369	-0.262909
Br170	Br	1.382159	-0.602035	0.070424
Br171	Br	1.715492	-0.268702	0.403757
Br172	Br	1.288796	-0.777577	-0.508509
Br173	Br	1.622129	-0.444243	-0.175176
Br174	Br	1.955462	-0.110910	0.158157
Br175	Br	1.049668	-0.780678	-0.261292
Br176	Br	1.383001	-0.447344	0.072041
Br177	Br	1.716335	-0.114011	0.405375
