data_functionalizedCrystal
_audit_creation_method	'MofGen! by Chris Wilmer'
_symmetry_space_group_name_H-M	'P1'
_symmetry_Int_Tables_number	1
_symmetry_cell_setting	triclinic
loop_
_symmetry_equiv_pos_as_xyz
  x,y,z
_cell_length_a	12.827893
_cell_length_b	25.639239
_cell_length_c	12.827885
_cell_angle_alpha	90.035982
_cell_angle_beta	90.019272
_cell_angle_gamma	90.038657
loop_
_atom_site_label
_atom_site_type_symbol
_atom_site_fract_x
_atom_site_fract_y
_atom_site_fract_z
Zn1	Zn	1.597500	-0.208126	0.590804
Zn2	Zn	2.097500	0.291874	1.090804
Zn3	Zn	1.597324	-0.295571	0.416045
Zn4	Zn	2.097324	0.204429	0.916045
Zn5	Zn	1.422742	-0.208151	0.416077
Zn6	Zn	1.922742	0.291849	0.916077
Zn7	Zn	1.422656	-0.295532	0.590745
Zn8	Zn	1.922656	0.204468	1.090745
O9	O	1.510055	-0.251845	0.503418
O10	O	2.010055	0.248155	1.003418
O11	O	1.743713	-0.219731	0.567633
O12	O	2.243713	0.280269	1.067633
O13	O	1.574127	-0.284002	0.269813
O14	O	2.074127	0.215998	0.769813
O15	O	1.446034	-0.134983	0.439293
O16	O	1.946034	0.365017	0.939293
O17	O	1.743583	-0.283977	0.439238
O18	O	2.243583	0.216023	0.939238
O19	O	1.574428	-0.134964	0.567664
O20	O	2.074428	0.365036	1.067664
O21	O	1.445862	-0.219775	0.269837
O22	O	1.945862	0.280225	0.769837
O23	O	1.276494	-0.219737	0.439236
O24	O	1.776494	0.280263	0.939236
O25	O	1.445888	-0.283911	0.736989
O26	O	1.945888	0.216089	1.236989
O27	O	1.276431	-0.283935	0.567564
O28	O	1.776431	0.216065	1.067564
O29	O	1.574345	-0.219694	0.737032
O30	O	2.074345	0.280306	1.237032
O31	O	1.574044	-0.368731	0.439181
O32	O	2.074044	0.131269	0.939181
O33	O	1.445716	-0.368702	0.567533
O34	O	1.945716	0.131298	1.067533
C35	C	1.238546	-0.251835	0.503398
C36	C	1.738546	0.248165	1.003398
C37	C	1.122392	-0.251843	0.503414
C38	C	1.622392	0.248157	1.003414
C39	C	1.070604	-0.283660	0.566817
C40	C	1.570604	0.216340	1.066817
C41	C	0.950554	-0.283670	0.566835
C42	C	1.450554	0.216330	1.066835
C43	C	1.509880	-0.387688	0.503370
C44	C	2.009880	0.112312	1.003370
C45	C	1.509900	-0.445802	0.503384
C46	C	2.009900	0.054198	1.003384
C47	C	1.577050	-0.806167	0.436699
C48	C	2.077050	-0.306167	0.936699
C49	C	1.577090	-0.860771	0.436713
C50	C	2.077090	-0.360771	0.936713
O51	O	1.634001	-0.889010	0.379962
O52	O	2.134001	-0.389010	0.879962
N53	N	1.510239	-0.888084	0.503487
N54	N	2.010239	-0.388084	1.003487
C55	C	1.443350	-0.860790	0.570259
C56	C	1.943350	-0.360790	1.070259
O57	O	1.386493	-0.889035	0.627057
O58	O	1.886493	-0.389035	1.127057
C59	C	1.443316	-0.806186	0.570249
C60	C	1.943316	-0.306186	1.070249
C61	C	1.510164	-0.778876	0.503463
C62	C	2.010164	-0.278876	1.003463
C63	C	1.643893	-0.778857	0.369920
C64	C	2.143893	-0.278857	0.869920
C65	C	1.643851	-0.724256	0.369904
C66	C	2.143851	-0.224256	0.869904
C67	C	1.576966	-0.696966	0.436669
C68	C	2.076966	-0.196966	0.936669
C69	C	1.510122	-0.724276	0.503448
C70	C	2.010122	-0.224276	1.003448
C71	C	1.376433	-0.778893	0.637026
C72	C	1.876433	-0.278893	1.137026
C73	C	1.376405	-0.724286	0.637011
C74	C	1.876405	-0.224286	1.137011
C75	C	1.443253	-0.696976	0.570225
C76	C	1.943253	-0.196976	1.070225
C77	C	1.443194	-0.642385	0.570198
C78	C	1.943194	-0.142385	1.070198
N79	N	1.510045	-0.615072	0.503424
N80	N	2.010045	-0.115072	1.003424
C81	C	1.576931	-0.642363	0.436659
C82	C	2.076931	-0.142363	0.936659
C83	C	1.443429	-0.975460	0.570275
C84	C	1.943429	-0.475460	1.070275
C85	C	1.443458	-1.030063	0.570280
C86	C	1.943458	-0.530063	1.070280
C87	C	1.577199	-1.030040	0.436735
C88	C	2.077199	-0.530040	0.936735
C89	C	1.577165	-0.975437	0.436726
C90	C	2.077165	-0.475437	0.936726
C91	C	1.510281	-0.948148	0.503501
C92	C	2.010281	-0.448148	1.003501
C93	C	1.576837	-0.527698	0.436632
C94	C	2.076837	-0.027698	0.936632
C95	C	1.576786	-0.473092	0.436620
C96	C	2.076786	0.026908	0.936620
C97	C	1.443049	-0.473119	0.570168
C98	C	1.943049	0.026881	1.070168
C99	C	1.443095	-0.527720	0.570177
C100	C	1.943095	-0.027720	1.070177
C101	C	1.509998	-0.555008	0.503405
C102	C	2.009998	-0.055008	1.003405
O103	O	1.386315	-0.614112	0.626923
O104	O	1.886315	-0.114112	1.126923
O105	O	1.633789	-0.614110	0.379880
O106	O	2.133789	-0.114110	0.879880
C107	C	1.782626	-0.251856	0.503438
C108	C	2.282626	0.248144	1.003438
C109	C	1.898779	-0.251860	0.503447
C110	C	2.398779	0.248140	1.003447
C111	C	1.510127	-0.251795	0.775988
C112	C	2.010127	0.248205	1.275988
C113	C	1.510157	-0.251773	0.892141
C114	C	2.010157	0.248227	1.392141
C115	C	1.510260	-0.115472	0.503489
C116	C	2.010260	0.384528	1.003489
C117	C	1.510348	-0.057358	0.503519
C118	C	2.010348	0.442642	1.003519
C119	C	1.510045	-0.251857	0.231908
C120	C	2.010045	0.248143	0.731908
C121	C	1.510217	-0.251731	0.115755
C122	C	2.010217	0.248269	0.615755
C123	C	1.573729	-0.219991	0.943947
C124	C	2.073729	0.280009	1.443947
C125	C	1.573761	-0.219968	1.063998
C126	C	2.073761	0.280032	1.563998
H127	H	0.906017	-0.310911	0.621113
H128	H	1.406017	0.189089	1.121113
H129	H	0.943309	-0.224621	0.449159
H130	H	1.443309	0.275379	0.949159
H131	H	1.388665	-0.549957	0.624562
H132	H	1.888665	-0.049957	1.124562
N133	N	1.063409	-0.215772	0.431517
N134	N	1.563409	0.284228	0.931517
H135	H	1.018164	-0.191591	0.474114
H136	H	1.518164	0.308409	0.974114
H137	H	1.018142	-0.237058	0.383080
H138	H	1.518142	0.262942	0.883080
N139	N	1.648891	-0.443637	0.364587
N140	N	2.148891	0.056363	0.864587
H141	H	1.691272	-0.469214	0.322300
H142	H	2.191272	0.030786	0.822300
H143	H	1.697211	-0.420941	0.407165
H144	H	2.197211	0.079059	0.907165
N145	N	1.649278	-0.945988	0.364701
N146	N	2.149278	-0.445988	0.864701
H147	H	1.697671	-0.923295	0.407208
H148	H	2.197671	-0.423295	0.907208
H149	H	1.606757	-0.923400	0.316240
H150	H	2.106757	-0.423400	0.816240
H151	H	1.455748	-0.278964	0.936665
H152	H	1.955748	0.221036	1.436665
N153	N	1.648985	-0.557129	0.364615
N154	N	2.148985	-0.057129	0.864615
H155	H	1.723635	-0.547579	0.380903
H156	H	2.223635	-0.047579	0.880903
H157	H	1.632692	-0.547649	0.289964
H158	H	2.132692	-0.047649	0.789964
H159	H	1.698366	-0.801071	0.315552
H160	H	2.198366	-0.301071	0.815552
H161	H	1.698288	-0.702024	0.315525
H162	H	2.198288	-0.202024	0.815525
N163	N	1.129585	-0.319738	0.638703
N164	N	1.629585	0.180262	1.138703
H165	H	1.174920	-0.298497	0.687160
H166	H	1.674920	0.201503	1.187160
H167	H	1.174763	-0.343910	0.596019
H168	H	1.674763	0.156090	1.096019
H169	H	1.631665	-1.052270	0.382375
H170	H	2.131665	-0.552270	0.882375
H171	H	1.389013	-1.052294	0.624654
H172	H	1.889013	-0.552294	1.124654
N173	N	1.371277	-0.946028	0.642292
N174	N	1.871277	-0.446028	1.142292
H175	H	1.328935	-0.971620	0.684588
H176	H	1.828935	-0.471620	1.184588
H177	H	1.322923	-0.923414	0.599707
H178	H	1.822923	-0.423414	1.099707
H179	H	1.321993	-0.801120	0.691405
H180	H	1.821993	-0.301120	1.191405
H181	H	1.455792	-0.278945	1.071210
H182	H	1.955792	0.221055	1.571210
H183	H	1.628127	-0.192795	0.899424
H184	H	2.128127	0.307205	1.399424
N185	N	1.304267	-0.694853	0.709037
N186	N	1.804267	-0.194853	1.209037
H187	H	1.261930	-0.720442	0.751342
H188	H	1.761930	-0.220442	1.251342
H189	H	1.255908	-0.672239	0.666455
H190	H	1.755908	-0.172239	1.166455
H191	H	1.388588	-0.450891	0.624524
H192	H	1.888588	0.049109	1.124524
N193	N	1.645866	-0.183925	1.123000
N194	N	2.145866	0.316075	1.623000
H195	H	1.635671	-0.189018	1.200396
H196	H	2.135671	0.310982	1.700396
H197	H	1.629670	-0.146578	1.103995
H198	H	2.129670	0.353422	1.603995
