data_functionalizedCrystal
_audit_creation_method	'MofGen! by Chris Wilmer'
_symmetry_space_group_name_H-M	'P1'
_symmetry_Int_Tables_number	1
_symmetry_cell_setting	triclinic
loop_
_symmetry_equiv_pos_as_xyz
  x,y,z
_cell_length_a	17.639044
_cell_length_b	17.640280
_cell_length_c	13.033431
_cell_angle_alpha	95.470456
_cell_angle_beta	84.509181
_cell_angle_gamma	70.392877
loop_
_atom_site_label
_atom_site_type_symbol
_atom_site_fract_x
_atom_site_fract_y
_atom_site_fract_z
Zn1	Zn	1.335165	-0.591583	0.075337
Zn2	Zn	1.338219	-0.704567	-0.130387
Zn3	Zn	1.182647	-0.549007	-0.047175
Zn4	Zn	1.225215	-0.701514	0.075382
O5	O	1.270311	-0.636668	-0.006711
O6	O	1.446692	-0.625667	0.013203
O7	O	1.301045	-0.667392	-0.256736
O8	O	1.183785	-0.443546	0.003882
O9	O	1.448936	-0.708676	-0.137941
O10	O	1.295840	-0.474826	0.093891
O11	O	1.186747	-0.553103	-0.195601
O12	O	1.077171	-0.550141	0.003926
O13	O	1.256337	-0.703471	0.212763
O14	O	1.108446	-0.662187	0.093969
O15	O	1.337117	-0.622706	0.212730
O16	O	1.342322	-0.815271	-0.137897
O17	O	1.259298	-0.813028	0.013281
C18	C	1.063996	-0.601214	0.057982
C19	C	0.975740	-0.586068	0.085675
C20	C	0.850202	-0.521596	0.203466
C21	C	0.933132	-0.535833	0.177435
C22	C	0.935426	-0.622083	0.019908
C23	C	0.852493	-0.607850	0.045923
C24	C	0.809887	-0.557607	0.137704
C25	C	0.812178	-0.643860	-0.019838
C26	C	0.729253	-0.629632	0.006178
C27	C	0.686643	-0.579393	0.097956
C28	C	0.726962	-0.543378	0.163720
C29	C	0.854786	-0.694108	-0.111615
C30	C	0.814472	-0.730119	-0.177377
C31	C	0.731545	-0.715886	-0.151365
C32	C	0.688934	-0.665647	-0.059587
C33	C	0.691225	-0.751901	-0.217129
C34	C	0.608300	-0.737672	-0.191113
C35	C	0.606009	-0.651418	-0.033570
C36	C	1.305785	-0.842965	-0.071318
C37	C	1.321037	-0.931236	-0.098947
C38	C	1.154810	-1.215765	0.203439
C39	C	1.169140	-1.298706	0.177445
C40	C	1.255671	-1.301003	0.020131
C41	C	1.241351	-1.218061	0.046114
C42	C	1.190920	-1.175449	0.137768
C43	C	1.277461	-1.177745	-0.019557
C44	C	1.263139	-1.094810	0.006422
C45	C	1.212708	-1.052191	0.098071
C46	C	1.176598	-1.092514	0.163747
C47	C	1.327888	-1.220358	-0.111215
C48	C	1.363997	-1.180042	-0.176885
C49	C	1.349680	-1.097106	-0.150904
C50	C	1.299249	-1.054488	-0.059255
C51	C	1.385790	-1.056784	-0.216580
C52	C	1.371469	-0.973849	-0.190602
C53	C	1.284927	-0.971552	-0.033276
C54	C	1.477432	-0.672261	-0.071656
C55	C	1.565695	-0.687429	-0.099332
C56	C	1.301134	-0.667497	0.249366
C57	C	1.314269	-0.680634	0.358490
C58	C	1.234724	-0.429571	0.058163
C59	C	1.219558	-0.341319	0.085808
C60	C	1.277152	-0.643520	0.550180
C61	C	1.263570	-0.629939	0.437396
C62	C	1.239603	-0.605974	0.738206
C63	C	1.226460	-0.592832	0.629085
H64	H	0.965952	-0.506502	0.230990
O65	O	0.855975	-0.778871	-0.266513
C66	C	0.984751	-0.839056	-0.376385
C67	C	0.937846	-0.783814	-0.275416
H68	H	1.050955	-0.843083	-0.383604
H69	H	0.956548	-0.812685	-0.446040
H70	H	0.981478	-0.902348	-0.374222
H71	H	0.941101	-0.720509	-0.277476
H72	H	0.966061	-0.810251	-0.205804
H73	H	0.571315	-0.610495	0.041158
H74	H	1.330604	-0.696974	0.566123
O75	O	1.198655	-0.971595	0.123265
C76	C	1.098949	-0.836529	0.159164
C77	C	1.114751	-0.927776	0.130605
H78	H	1.031112	-0.801077	0.165128
H79	H	1.133359	-0.814970	0.096484
H80	H	1.120679	-0.825996	0.237103
H81	H	1.093017	-0.938379	0.052692
H82	H	1.080353	-0.949290	0.193349
O83	O	1.162625	-0.529044	0.610260
C84	C	1.045867	-0.412241	0.684016
C85	C	1.118119	-0.484460	0.705478
H86	H	1.009874	-0.376165	0.760984
H87	H	1.004813	-0.435777	0.637647
H88	H	1.069464	-0.371283	0.637514
H89	H	1.094594	-0.525446	0.752009
H90	H	1.159159	-0.460868	0.751799
O91	O	1.199698	-0.566238	0.418446
C92	C	1.054229	-0.500686	0.441362
C93	C	1.126486	-0.572875	0.462878
H94	H	0.995020	-0.506019	0.477293
H95	H	1.054567	-0.501085	0.353798
H96	H	1.059616	-0.441473	0.477130
H97	H	1.121147	-0.632126	0.427175
H98	H	1.126124	-0.572405	0.550453
O99	O	1.413083	-1.221509	-0.265816
C100	C	1.534837	-1.331950	-0.341858
C101	C	1.479333	-1.285048	-0.241060
H102	H	1.588404	-1.383342	-0.321880
H103	H	1.558254	-1.288940	-0.384354
H104	H	1.498904	-1.358324	-0.393976
H105	H	1.515212	-1.258670	-0.188863
H106	H	1.455912	-1.328092	-0.198645
H107	H	1.400872	-0.941023	-0.244078
H108	H	0.725928	-0.792815	-0.291851
O109	O	0.569250	-0.772686	-0.255130
C110	C	0.580278	-0.859782	-0.414099
C111	C	0.624597	-0.820159	-0.341709
H112	H	0.625010	-0.898186	-0.484104
H113	H	0.529010	-0.810461	-0.441820
H114	H	0.554008	-0.900078	-0.369916
H115	H	0.650917	-0.779869	-0.385823
H116	H	0.675823	-0.869521	-0.313986
H117	H	0.619121	-0.567812	0.119139
O118	O	1.378033	-0.744340	0.377673
C119	C	1.449670	-0.815998	0.507576
C120	C	1.377434	-0.743816	0.485997
H121	H	1.449199	-0.815609	0.595153
H122	H	1.508919	-0.810652	0.471814
H123	H	1.444336	-0.875213	0.471721
H124	H	1.382689	-0.684566	0.521850
H125	H	1.318213	-0.749235	0.521737
H126	H	1.243868	-0.936857	0.041364
H127	H	1.135538	-1.057819	0.238387
H128	H	1.113750	-1.181070	0.278079
O129	O	0.976929	-0.670835	-0.069229
C130	C	1.105704	-0.731020	-0.179100
C131	C	1.058799	-0.675778	-0.078131
H132	H	1.171909	-0.735048	-0.186320
H133	H	1.077502	-0.704649	-0.248755
H134	H	1.102431	-0.794313	-0.176938
H135	H	1.062055	-0.612473	-0.080192
H136	H	1.087015	-0.702215	-0.008519
O137	O	1.134029	-1.337755	0.241387
C138	C	1.046646	-1.326712	0.400147
C139	C	1.086371	-1.282394	0.327843
H140	H	1.008092	-1.281969	0.470052
H141	H	1.095919	-1.377924	0.428034
H142	H	1.006473	-1.353048	0.355833
H143	H	1.126538	-1.256008	0.372088
H144	H	1.037057	-1.231224	0.299954
O145	O	0.808937	-0.472795	0.292683
C146	C	0.815393	-0.388700	0.446168
C147	C	0.862226	-0.443958	0.345179
H148	H	0.858453	-0.365356	0.488629
H149	H	0.789058	-0.424709	0.498236
H150	H	0.763973	-0.335077	0.426362
H151	H	0.913682	-0.497591	0.364890
H152	H	0.888502	-0.407891	0.293140
H153	H	0.922305	-0.705677	-0.132805
O154	O	0.685698	-0.494577	0.252938
C155	C	0.692154	-0.410482	0.406423
C156	C	0.738987	-0.465740	0.305434
H157	H	0.735214	-0.387138	0.448884
H158	H	0.665819	-0.446491	0.458491
H159	H	0.640733	-0.356859	0.386616
H160	H	0.790443	-0.519373	0.325144
H161	H	0.765263	-0.429673	0.253394
O162	O	1.304653	-1.342526	-0.068846
C163	C	1.365004	-1.471290	-0.178647
C164	C	1.309534	-1.424372	-0.077833
H165	H	1.368954	-1.537467	-0.185957
H166	H	1.428313	-1.468084	-0.176329
H167	H	1.338760	-1.443032	-0.248335
H168	H	1.335704	-1.452596	-0.008092
H169	H	1.246232	-1.427575	-0.080242
O170	O	1.434773	-1.098309	-0.305556
C171	C	1.495119	-1.227075	-0.415355
C172	C	1.439651	-1.180154	-0.314541
H173	H	1.499067	-1.293251	-0.422663
H174	H	1.558429	-1.223870	-0.413037
H175	H	1.468877	-1.198817	-0.485043
H176	H	1.465820	-1.208378	-0.244799
H177	H	1.376348	-1.183355	-0.316949
H178	H	1.339549	-1.287890	-0.132361
