data_functionalizedCrystal
_audit_creation_method	'MofGen! by Chris Wilmer'
_symmetry_space_group_name_H-M	'P1'
_symmetry_Int_Tables_number	1
_symmetry_cell_setting	triclinic
loop_
_symmetry_equiv_pos_as_xyz
  x,y,z
_cell_length_a	23.532407
_cell_length_b	22.610064
_cell_length_c	23.532409
_cell_angle_alpha	89.992888
_cell_angle_beta	82.849119
_cell_angle_gamma	90.002839
loop_
_atom_site_label
_atom_site_type_symbol
_atom_site_fract_x
_atom_site_fract_y
_atom_site_fract_z
O1	O	0.755264	0.049107	0.069127
O2	O	0.589401	0.049124	0.079130
O3	O	0.677333	0.049116	-0.008803
O4	O	0.667331	0.049115	0.157060
O5	O	0.677318	-0.049254	-0.008790
O6	O	0.589385	-0.049245	0.079143
O7	O	0.755248	-0.049262	0.069140
Zn8	Zn	0.672314	-0.064872	0.074143
Zn9	Zn	0.672335	0.064734	0.074127
O10	O	0.667316	-0.049254	0.157073
C11	C	0.568177	-0.000059	0.078882
C12	C	0.504960	-0.000052	0.078116
N13	N	0.672305	-0.153324	0.074155
C14	C	0.105857	-0.000079	0.125349
C15	C	0.046457	-0.000083	0.124638
O16	O	0.009713	-0.000104	0.168424
N17	N	0.023830	-0.000081	0.072362
C18	C	0.060608	-0.000083	0.020794
O19	O	0.035908	-0.000083	-0.023737
C20	C	0.120007	-0.000083	0.021506
C21	C	0.142630	-0.000078	0.073785
C22	C	0.128481	-0.000075	0.177625
C23	C	0.187877	-0.000070	0.178336
C24	C	0.224649	-0.000069	0.126772
C25	C	0.202026	-0.000074	0.074496
C26	C	0.156783	-0.000089	-0.030062
C27	C	0.216185	-0.000090	-0.029345
C28	C	0.238808	-0.000085	0.022934
C29	C	0.298195	-0.000068	0.023643
N30	N	0.320821	-0.000070	0.075920
C31	C	0.284049	-0.000070	0.127484
C32	C	-0.064135	-0.000082	0.019302
C33	C	-0.123533	-0.000078	0.018589
C34	C	-0.137679	-0.000079	0.122434
C35	C	-0.078280	-0.000079	0.123146
C36	C	-0.041508	-0.000084	0.071578
C37	C	0.408785	-0.000060	0.128974
C38	C	0.468187	-0.000052	0.129680
C39	C	0.482329	-0.000055	0.025836
C40	C	0.422932	-0.000059	0.025129
C41	C	0.386161	-0.000063	0.076702
O42	O	0.334973	-0.000049	-0.020119
O43	O	0.308757	-0.000078	0.172007
C44	C	0.711273	-0.561969	0.035196
C45	C	0.711276	-0.623889	0.035192
O46	O	0.744384	-0.655911	0.002076
N47	N	0.672334	-0.654862	0.074115
C48	C	0.633384	-0.623911	0.113041
O49	O	0.600261	-0.655941	0.146147
C50	C	0.633378	-0.561992	0.113042
C51	C	0.672326	-0.531023	0.074120
C52	C	0.750218	-0.531000	-0.003724
C53	C	0.750215	-0.469085	-0.003719
C54	C	0.711268	-0.438138	0.035206
C55	C	0.672324	-0.469107	0.074125
C56	C	0.594425	-0.531042	0.151965
C57	C	0.594423	-0.469119	0.151962
C58	C	0.633371	-0.438150	0.113040
C59	C	0.633375	-0.376245	0.113054
N60	N	0.672316	-0.345273	0.074131
C61	C	0.711263	-0.376219	0.035207
C62	C	0.633397	-0.753944	0.113035
C63	C	0.633404	-0.815862	0.113037
C64	C	0.711296	-0.815836	0.035187
C65	C	0.711291	-0.753918	0.035188
C66	C	0.672338	-0.722972	0.074112
C67	C	0.711256	-0.246192	0.035220
C68	C	0.711251	-0.184271	0.035230
C69	C	0.633358	-0.184302	0.113078
C70	C	0.633364	-0.246218	0.113071
C71	C	0.672315	-0.277161	0.074137
O72	O	0.600282	-0.344184	0.146151
O73	O	0.744376	-0.344182	0.002101
C74	C	0.776472	-0.000078	0.069388
C75	C	0.839689	-0.000081	0.070154
C76	C	0.677071	-0.000067	-0.030013
C77	C	0.676304	-0.000063	-0.093230
N78	N	0.672349	0.153186	0.074111
C79	C	0.673054	0.053561	-0.366482
C80	C	0.673765	0.053561	-0.307081
O81	O	0.674161	0.099162	-0.276363
N82	N	0.674109	-0.000061	-0.277372
C83	C	0.673747	-0.053687	-0.307067
O84	O	0.674105	-0.099296	-0.276343
C85	C	0.673040	-0.053686	-0.366467
C86	C	0.672690	-0.000060	-0.396172
C87	C	0.672705	0.107182	-0.396187
C88	C	0.671992	0.107182	-0.455583
C89	C	0.671628	0.053560	-0.485274
C90	C	0.671977	-0.000061	-0.455568
C91	C	0.672682	-0.107311	-0.396161
C92	C	0.671974	-0.107306	-0.455565
C93	C	0.671625	-0.053680	-0.485270
C94	C	0.670901	-0.053682	-0.544655
N95	N	0.670557	-0.000060	-0.574364
C96	C	0.670921	0.053561	-0.544673
C97	C	0.675234	-0.053684	-0.182324
C98	C	0.675937	-0.053685	-0.122925
C99	C	0.675957	0.053563	-0.122943
C100	C	0.675249	0.053563	-0.182343
C101	C	0.674890	-0.000062	-0.212033
C102	C	0.669424	0.053556	-0.669409
C103	C	0.668709	0.053551	-0.728810
C104	C	0.668692	-0.053696	-0.728787
C105	C	0.669404	-0.053691	-0.669391
C106	C	0.669772	-0.000060	-0.639703
O107	O	0.670508	-0.099260	-0.575412
O108	O	0.670570	0.099163	-0.575406
C109	C	0.667579	-0.000070	0.178283
C110	C	0.668345	-0.000070	0.241500
H111	H	0.486603	-0.000048	0.172254
O112	O	0.749072	-0.845996	-0.002607
C113	C	0.740728	-0.907286	0.005751
H114	H	0.695331	-0.915745	0.027270
H115	H	0.747305	-0.930815	-0.037411
H116	H	0.772800	-0.924861	0.034150
O117	O	0.595540	-0.723978	0.150910
C118	C	0.561165	-0.764598	0.185251
H119	H	0.584518	-0.808731	0.185767
H120	H	0.552217	-0.746722	0.230781
H121	H	0.518965	-0.771187	0.166975
O122	O	0.595652	-0.845968	0.150906
C123	C	0.625947	-0.881801	0.185879
H124	H	0.670854	-0.863142	0.186613
H125	H	0.602453	-0.882509	0.231265
H126	H	0.629031	-0.928725	0.168040
O127	O	0.518033	0.000051	-0.024266
C128	C	0.507821	0.050986	-0.056046
H129	H	0.487349	0.086597	-0.025873
H130	H	0.550097	0.068086	-0.079126
H131	H	0.477760	0.039464	-0.088837
O132	O	0.668316	-0.105834	-0.757543
C133	C	0.668793	-0.153169	-0.718594
H134	H	0.651266	-0.137455	-0.673795
H135	H	0.640934	-0.190670	-0.731990
H136	H	0.714563	-0.169656	-0.718501
H137	H	0.742969	-0.159058	0.003535
H138	H	0.378853	-0.000065	0.170970
H139	H	0.206291	-0.000066	0.220907
O140	O	0.669751	0.105705	-0.640660
C141	C	0.669304	0.153026	-0.679628
H142	H	0.650764	0.137299	-0.719509
H143	H	0.641859	0.190534	-0.658710
H144	H	0.714925	0.169512	-0.692176
O145	O	0.671723	-0.159383	-0.484445
C146	C	0.720632	-0.162593	-0.525536
H147	H	0.755331	-0.132167	-0.512340
H148	H	0.737174	-0.210022	-0.528457
H149	H	0.708941	-0.148188	-0.569036
H150	H	0.669666	-0.097358	-0.645200
H151	H	0.676211	-0.097352	-0.098742
H152	H	0.674964	0.097230	-0.206525
H153	H	0.672972	-0.150979	-0.371986
O154	O	0.556534	-0.561024	0.189795
C155	C	0.522171	-0.520420	0.224152
H156	H	0.521668	-0.476281	0.200800
H157	H	0.476639	-0.538308	0.233068
H158	H	0.540417	-0.513837	0.266368
O159	O	0.092789	0.000032	0.227734
C160	C	0.103025	0.050974	0.259485
H161	H	0.123492	0.086578	0.229289
H162	H	0.060759	0.068080	0.282575
H163	H	0.133100	0.039457	0.292267
O164	O	-0.056402	-0.000105	0.173980
C165	C	-0.101602	-0.000087	0.219335
H166	H	-0.141870	-0.018709	0.203604
H167	H	-0.089396	-0.028647	0.255860
H168	H	-0.110091	0.047106	0.235217
H169	H	0.601654	-0.271433	0.144770
H170	H	0.404512	-0.000054	-0.017441
O171	O	0.556663	-0.438995	0.189799
C172	C	0.586956	-0.403194	0.224796
H173	H	0.631648	-0.393906	0.201889
H174	H	0.563130	-0.359658	0.233931
H175	H	0.590585	-0.427068	0.266866
O176	O	0.595546	-0.154143	0.150831
C177	C	0.603908	-0.092852	0.142491
H178	H	0.625457	-0.084392	0.097105
H179	H	0.560745	-0.069322	0.149037
H180	H	0.632282	-0.075281	0.174586
H181	H	-0.167631	-0.000082	0.164421
O182	O	0.749117	-0.276309	-0.002520
C183	C	0.784092	-0.312115	0.027797
H184	H	0.761156	-0.321412	0.072475
H185	H	0.793247	-0.355646	0.003970
H186	H	0.826153	-0.288243	0.031460
O187	O	-0.145410	-0.000101	-0.032245
C188	C	-0.100210	-0.000084	-0.077600
H189	H	-0.059945	-0.018704	-0.061864
H190	H	-0.112419	-0.028643	-0.114118
H191	H	-0.091716	0.047110	-0.093494
O192	O	0.671699	0.159327	-0.484353
C193	C	0.672167	0.206648	-0.445399
H194	H	0.690687	0.190910	-0.405508
H195	H	0.699639	0.244140	-0.466323
H196	H	0.626555	0.223158	-0.432867
H197	H	-0.034198	-0.000081	-0.022693
H198	H	0.138374	-0.000093	-0.072634
H199	H	0.668422	0.097221	-0.752993
O200	O	0.251824	-0.000065	-0.079493
C201	C	0.219113	-0.000084	-0.125783
H202	H	0.174697	0.018536	-0.111068
H203	H	0.241220	0.028477	-0.161896
H204	H	0.214971	-0.047277	-0.141816
O205	O	0.676202	0.105679	-0.094124
C206	C	0.626707	0.138296	-0.101953
H207	H	0.592035	0.106910	-0.113574
H208	H	0.610610	0.162634	-0.060648
H209	H	0.637451	0.171717	-0.137968
H210	H	0.781928	-0.443873	-0.035414
H211	H	0.781933	-0.556192	-0.035423
H212	H	0.673003	0.150849	-0.372020
O213	O	0.674852	-0.105832	-0.211070
C214	C	0.675321	-0.153154	-0.172107
H215	H	0.657798	-0.137425	-0.127313
H216	H	0.647455	-0.190656	-0.185492
H217	H	0.721088	-0.169649	-0.172010
H218	H	0.743005	-0.728706	0.003494
