data_functionalizedCrystal
_audit_creation_method	'MofGen! by Chris Wilmer'
_symmetry_space_group_name_H-M	'P1'
_symmetry_Int_Tables_number	1
_symmetry_cell_setting	triclinic
loop_
_symmetry_equiv_pos_as_xyz
  x,y,z
_cell_length_a	19.805406
_cell_length_b	19.805407
_cell_length_c	19.805399
_cell_angle_alpha	90.019197
_cell_angle_beta	89.982961
_cell_angle_gamma	90.003217
loop_
_atom_site_label
_atom_site_type_symbol
_atom_site_fract_x
_atom_site_fract_y
_atom_site_fract_z
Zn1	Zn	-0.269548	-1.034857	-0.382762
Zn2	Zn	-0.382737	-1.034823	-0.269595
Zn3	Zn	-0.269559	-0.921672	-0.269588
Zn4	Zn	-0.382693	-0.921686	-0.382743
O5	O	-0.326134	-0.978259	-0.326172
O6	O	-0.284577	-1.129569	-0.367762
O7	O	-0.367746	-1.019793	-0.174877
O8	O	-0.174841	-0.936694	-0.284606
O9	O	-0.367736	-1.129544	-0.284618
O10	O	-0.174833	-1.019851	-0.367755
O11	O	-0.284595	-0.936661	-0.174872
O12	O	-0.284553	-0.826957	-0.284587
O13	O	-0.367661	-0.936719	-0.477462
O14	O	-0.367672	-0.826968	-0.367721
O15	O	-0.284534	-1.019865	-0.477476
O16	O	-0.477447	-1.019807	-0.284599
O17	O	-0.477415	-0.936686	-0.367728
C18	C	-0.326110	-0.802403	-0.326151
C19	C	-0.326115	-0.727171	-0.326158
C20	C	-0.282890	-0.691841	-0.369516
C21	C	-0.282892	-0.621152	-0.369517
C22	C	-0.326123	-0.585796	-0.326163
C23	C	-0.369350	-0.621131	-0.282800
C24	C	-0.369344	-0.691818	-0.282797
C25	C	-0.369375	-0.336058	-0.282814
C26	C	-0.369379	-0.265366	-0.282823
C27	C	-0.282923	-0.265392	-0.369535
C28	C	-0.282917	-0.336079	-0.369531
C29	C	-0.326141	-0.371408	-0.326166
C30	C	-0.326137	-0.448057	-0.326165
C31	C	-0.326131	-0.509149	-0.326167
C32	C	-0.501990	-0.978262	-0.326177
C33	C	-0.577222	-0.978325	-0.326202
C34	C	-0.149592	-0.978275	-0.326182
C35	C	-0.074360	-0.978281	-0.326186
C36	C	-0.039001	-0.935007	-0.369466
C37	C	0.031688	-0.935015	-0.369471
C38	C	0.067016	-0.978295	-0.326192
C39	C	0.031652	-1.021574	-0.282910
C40	C	-0.039035	-1.021569	-0.282909
C41	C	0.316725	-1.021597	-0.282915
C42	C	0.387417	-1.021597	-0.282918
C43	C	0.387448	-0.935043	-0.369477
C44	C	0.316761	-0.935038	-0.369476
C45	C	0.281403	-0.978319	-0.326196
C46	C	0.204755	-0.978311	-0.326192
C47	C	0.143663	-0.978300	-0.326192
C48	C	-0.326092	-0.978297	-0.502715
C49	C	-0.326074	-0.978313	-0.577947
C50	C	-0.326155	-0.154802	-0.326187
C51	C	-0.326150	-0.230034	-0.326178
C52	C	-0.282787	-1.021609	-0.613300
C53	C	-0.282768	-1.021616	-0.683988
C54	C	-0.326038	-0.978330	-0.719322
C55	C	-0.369327	-0.935030	-0.683965
C56	C	-0.369342	-0.935020	-0.613277
C57	C	-0.369263	-0.935068	-0.969038
C58	C	-0.369246	-0.935083	-1.039730
C59	C	-0.282689	-1.021664	-1.039749
C60	C	-0.282704	-1.021654	-0.969062
C61	C	-0.325990	-0.978352	-0.933710
C62	C	-0.326010	-0.978344	-0.857061
C63	C	-0.326022	-0.978341	-0.795970
C64	C	-0.326128	-0.978260	-0.150316
C65	C	-0.325955	-0.978375	-0.075084
H66	H	-0.404585	-0.236580	-0.247516
H67	H	-0.404556	-0.899784	-0.712739
F68	F	0.069253	-1.067640	-0.236853
H69	H	-0.404584	-0.899758	-0.584494
H70	H	-0.247688	-0.720623	-0.404822
H71	H	-0.247696	-0.592390	-0.404825
F72	F	-0.236908	-0.373705	-0.415677
F73	F	0.279104	-1.067660	-0.236852
F74	F	-0.415366	-0.373649	-0.236650
F75	F	-0.236918	-0.227787	-0.415686
H76	H	-0.404547	-0.592338	-0.247498
H77	H	-0.404542	-0.720583	-0.247490
H78	H	-0.067760	-0.899764	-0.404710
H79	H	0.288000	-0.899793	-0.404716
F80	F	0.069316	-0.888958	-0.415538
H81	H	0.416244	-0.899803	-0.404719
H82	H	0.416181	-1.056843	-0.247673
H83	H	-0.247441	-1.056920	-1.068541
F84	F	-0.076666	-1.067629	-0.236846
H85	H	-0.247553	-1.056859	-0.584536
H86	H	-0.247521	-1.056872	-0.712769
H87	H	-0.247471	-1.056903	-0.940296
F88	F	-0.415302	-0.889010	-1.077334
H89	H	-0.404519	-0.899819	-0.940263
