data_functionalizedCrystal
_audit_creation_method	'MofGen! by Chris Wilmer'
_symmetry_space_group_name_H-M	'P1'
_symmetry_Int_Tables_number	1
_symmetry_cell_setting	triclinic
loop_
_symmetry_equiv_pos_as_xyz
  x,y,z
_cell_length_a	14.853569
_cell_length_b	15.995292
_cell_length_c	13.930277
_cell_angle_alpha	90.001505
_cell_angle_beta	89.997168
_cell_angle_gamma	83.552090
loop_
_atom_site_label
_atom_site_type_symbol
_atom_site_fract_x
_atom_site_fract_y
_atom_site_fract_z
O1	O	1.196193	0.109323	-0.079780
O2	O	1.696193	0.609323	0.420220
O3	O	0.933713	0.122344	-0.079791
O4	O	1.433713	0.622344	0.420209
O5	O	1.072155	-0.006049	-0.079786
O6	O	1.572155	0.493951	0.420214
O7	O	1.057751	0.237716	-0.079784
O8	O	1.557751	0.737716	0.420216
O9	O	1.072142	-0.006045	0.079875
O10	O	1.572142	0.493955	0.579875
O11	O	0.933699	0.122348	0.079871
O12	O	1.433699	0.622348	0.579871
O13	O	1.196179	0.109326	0.079882
O14	O	1.696179	0.609326	0.579882
Zn15	Zn	1.064937	0.115838	0.105226
Zn16	Zn	1.564937	0.615838	0.605226
Zn17	Zn	1.064955	0.115833	-0.105135
Zn18	Zn	1.564955	0.615833	0.394865
O19	O	1.057737	0.237720	0.079878
O20	O	1.557737	0.737720	0.579878
C21	C	0.900118	0.121756	0.000039
C22	C	1.400118	0.621756	0.500039
C23	C	0.800038	0.119987	0.000034
C24	C	1.300038	0.619987	0.500034
C25	C	0.763782	0.042889	0.000030
C26	C	1.263782	0.542889	0.500030
C27	C	0.742253	0.195423	0.000042
C28	C	1.242253	0.695423	0.500042
C29	C	0.648221	0.193764	0.000044
C30	C	1.148221	0.693764	0.500044
C31	C	0.611966	0.116666	0.000039
C32	C	1.111966	0.616666	0.500039
C33	C	0.669742	0.041227	0.000034
C34	C	1.169742	0.541227	0.500034
C35	C	0.590438	0.269202	0.000059
C36	C	1.090438	0.769202	0.500059
C37	C	0.496401	0.267546	0.000061
C38	C	0.996401	0.767546	0.500061
C39	C	0.460144	0.190446	0.000050
C40	C	0.960144	0.690446	0.500050
C41	C	0.517926	0.115004	0.000043
C42	C	1.017926	0.615004	0.500043
C43	C	0.481671	0.037906	0.000039
C44	C	0.981671	0.537906	0.500039
C45	C	0.539452	-0.037537	0.000026
C46	C	1.039452	0.462463	0.500026
C47	C	0.633485	-0.035872	0.000023
C48	C	1.133485	0.464128	0.500023
C49	C	0.366110	0.188782	0.000053
C50	C	0.866110	0.688782	0.500053
C51	C	0.387631	0.036245	0.000043
C52	C	0.887631	0.536245	0.500043
C53	C	1.071562	-0.037244	0.000042
C54	C	1.571562	0.462756	0.500042
C55	C	1.069805	-0.130199	0.000035
C56	C	1.569805	0.369801	0.500035
C57	C	1.063343	-0.467945	0.000043
C58	C	1.563343	0.032055	0.500043
C59	C	1.163267	-0.444516	0.000404
C60	C	1.663267	0.055484	0.500404
C61	C	1.165166	-0.347838	0.000041
C62	C	1.665166	0.152162	0.500041
C63	C	1.066549	-0.300385	0.000040
C64	C	1.566549	0.199615	0.500040
C65	C	1.016600	-0.329546	-0.091134
C66	C	1.516600	0.170454	0.408866
C67	C	1.015397	-0.426338	-0.091207
C68	C	1.515397	0.073662	0.408793
C69	C	1.013341	-0.426194	0.090358
C70	C	1.513341	0.073806	0.590358
C71	C	1.017044	-0.329697	0.091560
C72	C	1.517044	0.170303	0.591560
C73	C	1.068356	-0.205687	0.000034
C74	C	1.568356	0.294313	0.500034
C75	C	1.061533	-0.562642	0.000042
C76	C	1.561533	-0.062642	0.500042
C77	C	1.229774	0.109915	0.000050
C78	C	1.729774	0.609915	0.500050
C79	C	1.329855	0.111684	0.000048
C80	C	1.829855	0.611684	0.500048
C81	C	1.058330	0.268914	0.000047
C82	C	1.558330	0.768914	0.500047
C83	C	1.060088	0.361869	0.000048
C84	C	1.560088	0.861869	0.500048
N85	N	1.064931	0.115840	0.248792
N86	N	1.564931	0.615840	0.748792
N87	N	1.064968	0.115824	-0.248701
N88	N	1.564968	0.615824	0.251299
C89	C	1.003621	0.172675	0.299054
C90	C	1.503621	0.672675	0.799054
C91	C	1.126248	0.059002	0.299036
C92	C	1.626248	0.559002	0.799036
C93	C	1.126257	0.058999	0.399532
C94	C	1.626257	0.558999	0.899532
C95	C	1.064947	0.115834	0.449793
C96	C	1.564947	0.615834	0.949793
C97	C	1.003627	0.172672	0.399559
C98	C	1.503627	0.672672	0.899559
C99	C	1.187570	0.002155	0.449773
C100	C	1.687570	0.502155	0.949773
C101	C	1.187581	0.002149	0.550275
C102	C	1.687581	0.502149	1.050275
C103	C	1.126274	0.058989	0.600539
C104	C	1.626274	0.558989	1.100539
C105	C	1.064953	0.115830	0.550298
C106	C	1.564953	0.615830	1.050298
C107	C	1.003642	0.172665	0.600560
C108	C	1.503642	0.672665	1.100560
C109	C	0.942324	0.229512	0.550321
C110	C	1.442324	0.729512	1.050321
C111	C	0.942320	0.229512	0.449822
C112	C	1.442320	0.729512	0.949822
C113	C	1.126278	0.058988	0.701037
C114	C	1.626278	0.558988	1.201037
C115	C	1.003648	0.172662	0.701065
C116	C	1.503648	0.672662	1.201065
H117	H	0.771778	0.258193	0.000052
H118	H	1.271778	0.758193	0.500052
H119	H	1.204286	-0.328765	0.065396
H120	H	1.704286	0.171235	0.565396
O121	O	0.629537	0.352355	0.000068
O122	O	1.129537	0.852355	0.500068
H123	H	0.704633	0.340834	0.000052
H124	H	1.204633	0.840834	0.500052
O125	O	1.192339	-0.002316	0.244815
O126	O	1.692339	0.497684	0.744815
H127	H	1.236149	0.032987	0.199009
H128	H	1.736149	0.532987	0.699009
O129	O	1.253688	-0.059144	0.395561
O130	O	1.753688	0.440856	0.895561
H131	H	1.296319	-0.098678	0.447376
H132	H	1.796319	0.401322	0.947376
O133	O	0.876211	0.290820	0.604541
O134	O	1.376211	0.790820	1.104541
H135	H	0.833571	0.330351	0.552730
H136	H	1.333571	0.830351	1.052730
O137	O	0.434088	0.348914	0.000071
O138	O	0.934088	0.848914	0.500071
H139	H	0.362608	0.334809	0.000078
H140	H	0.862608	0.834809	0.500078
H141	H	1.237510	-0.044137	0.591174
H142	H	1.737510	0.455863	1.091174
H143	H	1.176199	0.012701	0.741937
H144	H	1.676199	0.512701	1.241937
O145	O	0.303785	0.270139	0.000073
O146	O	0.803785	0.770139	0.500073
H147	H	0.316665	0.307035	-0.065000
H148	H	0.816665	0.807035	0.435000
H149	H	1.051297	-0.309447	-0.158984
H150	H	1.551297	0.190553	0.341016
O151	O	1.061677	-0.461870	-0.181222
O152	O	1.561677	0.038130	0.318778
H153	H	1.084658	-0.409889	-0.224317
H154	H	1.584658	0.090111	0.275683
O155	O	1.214280	-0.481512	0.087027
O156	O	1.714280	0.018488	0.587027
H157	H	1.168968	-0.517004	0.130746
H158	H	1.668968	-0.017004	0.630746
H159	H	0.942132	-0.440974	-0.095339
H160	H	1.442132	0.059026	0.404661
H161	H	1.044803	-0.454244	0.159467
H162	H	1.544803	0.045756	0.659467
H163	H	0.939789	-0.440270	0.090971
H164	H	1.439789	0.059730	0.590971
H165	H	0.944031	-0.297763	-0.094525
H166	H	1.444031	0.202237	0.405475
H167	H	1.201574	-0.473490	-0.064611
H168	H	1.701574	0.026510	0.435389
O169	O	0.937490	0.233986	0.244871
O170	O	1.437490	0.733986	0.744871
H171	H	0.894865	0.273508	0.296708
H172	H	1.394865	0.773508	0.796708
O173	O	0.348527	-0.046912	0.000047
O174	O	0.848527	0.453088	0.500047
H175	H	0.404504	-0.099088	0.000046
H176	H	0.904504	0.400912	0.500046
H177	H	1.204528	-0.329389	-0.065427
H178	H	1.704528	0.170611	0.434573
O179	O	1.065205	-0.305041	0.180913
O180	O	1.565205	0.194959	0.680913
H181	H	1.124154	-0.272043	0.160238
H182	H	1.624154	0.227957	0.660238
H183	H	0.945063	-0.296811	0.097065
H184	H	1.445063	0.203189	0.597065
H185	H	0.509920	-0.100310	0.000017
H186	H	1.009920	0.399690	0.500017
O187	O	0.937537	0.233980	0.755276
O188	O	1.437537	0.733980	1.255276
H189	H	0.894905	0.273507	0.703456
H190	H	1.394905	0.773507	1.203456
O191	O	0.876184	0.290803	0.395620
O192	O	1.376184	0.790803	0.895620
H193	H	0.887652	0.356103	0.414887
H194	H	1.387652	0.856103	0.914887
O195	O	0.695802	-0.117238	0.000029
O196	O	1.195802	0.382762	0.500029
H197	H	0.767280	-0.103128	0.000043
H198	H	1.267280	0.396872	0.500043
H199	H	0.810831	-0.018535	0.000016
H200	H	1.310831	0.481465	0.500016
