data_functionalizedCrystal
_audit_creation_method	'MofGen! by Chris Wilmer'
_symmetry_space_group_name_H-M	'P1'
_symmetry_Int_Tables_number	1
_symmetry_cell_setting	triclinic
loop_
_symmetry_equiv_pos_as_xyz
  x,y,z
_cell_length_a	7.088929
_cell_length_b	9.065218
_cell_length_c	9.065218
_cell_angle_alpha	85.015885
_cell_angle_beta	83.685725
_cell_angle_gamma	96.296166
loop_
_atom_site_label
_atom_site_type_symbol
_atom_site_fract_x
_atom_site_fract_y
_atom_site_fract_z
O1	O	0.158984	-1.945457	-0.231322
O2	O	0.658984	-1.445457	0.268678
O3	O	0.158986	-1.516172	-0.249069
O4	O	0.658986	-1.016172	0.250931
O5	O	0.158981	-1.739688	-0.025553
O6	O	0.658981	-1.239688	0.474447
O7	O	0.158989	-1.721941	-0.454839
O8	O	0.658989	-1.221941	0.045161
O9	O	-0.158995	-1.769558	0.004386
O10	O	0.341005	-1.269558	0.504386
O11	O	-0.158990	-1.546042	-0.219130
O12	O	0.341010	-1.046042	0.280870
O13	O	-0.158992	-1.975327	-0.201383
O14	O	0.341008	-1.475327	0.298617
Cu15	Cu	-0.188024	-1.763412	-0.207523
Cu16	Cu	0.311976	-1.263412	0.292477
Cu17	Cu	0.188019	-1.728087	-0.242929
Cu18	Cu	0.688019	-1.228087	0.257071
O19	O	-0.158987	-1.751811	-0.424899
O20	O	0.341013	-1.251811	0.075101
C21	C	-0.000001	-1.476120	-0.232394
C22	C	0.499999	-0.976120	0.267606
C23	C	-0.000000	-1.312277	-0.227294
C24	C	0.500000	-0.812277	0.272706
N25	N	-0.452513	-1.788268	-0.182619
N26	N	0.047487	-1.288268	0.317381
C27	C	-0.000004	-1.752917	0.044403
C28	C	0.499996	-1.252917	0.544403
C29	C	0.000006	-1.747817	0.208245
C30	C	0.500006	-1.247817	0.708245
N31	N	0.452507	-1.703243	-0.267822
N32	N	0.952507	-1.203243	0.232178
C33	C	0.000000	-2.015378	-0.218059
C34	C	0.500000	-1.515378	0.281941
C35	C	0.000012	-2.179220	-0.223160
C36	C	0.500012	-1.679220	0.276840
C37	C	0.000002	-1.738581	-0.494856
C38	C	0.500002	-1.238581	0.005144
C39	C	0.000006	-1.743681	-0.658699
C40	C	0.500006	-1.243681	-0.158699
H41	H	-0.465844	-1.615124	-0.356116
H42	H	0.034156	-1.115124	0.143884
H43	H	-0.534171	-1.876403	-0.094330
H44	H	-0.034171	-1.376403	0.405670
