data_functionalizedCrystal
_audit_creation_method	'MofGen! by Chris Wilmer'
_symmetry_space_group_name_H-M	'P1'
_symmetry_Int_Tables_number	1
_symmetry_cell_setting	triclinic
loop_
_symmetry_equiv_pos_as_xyz
  x,y,z
_cell_length_a	10.723023
_cell_length_b	10.723024
_cell_length_c	9.198806
_cell_angle_alpha	89.997735
_cell_angle_beta	90.003236
_cell_angle_gamma	95.532291
loop_
_atom_site_label
_atom_site_type_symbol
_atom_site_fract_x
_atom_site_fract_y
_atom_site_fract_z
O1	O	1.657188	-0.175020	0.120874
O2	O	1.294035	-0.191775	0.120879
O3	O	1.483988	-0.001821	0.120871
O4	O	1.467235	-0.364974	0.120882
O5	O	1.483974	-0.001820	-0.120914
O6	O	1.294021	-0.191773	-0.120906
O7	O	1.657174	-0.175019	-0.120911
Cu8	Cu	1.475596	-0.183396	-0.142985
Cu9	Cu	1.475613	-0.183398	0.142953
O10	O	1.467221	-0.364972	-0.120903
C11	C	1.247529	-0.190555	-0.000012
C12	C	1.108974	-0.186908	-0.000010
C13	C	1.047195	-0.185281	-0.125261
C14	C	0.903992	-0.181511	-0.125262
C15	C	1.482762	0.044679	-0.000020
C16	C	1.479114	0.183233	-0.000015
C17	C	1.703680	-0.176239	-0.000016
C18	C	1.842235	-0.179886	-0.000009
N19	N	1.475593	-0.183394	-0.344099
C20	C	1.468447	-0.411473	-0.000009
C21	C	1.472095	-0.550027	-0.000005
C22	C	1.585402	0.258216	-0.000014
C23	C	1.581634	0.401420	-0.000009
C24	C	1.395853	-0.263499	-0.416328
C25	C	1.395870	-0.263497	-0.583740
N26	N	1.475625	-0.183390	0.344067
H27	H	1.055849	-0.185506	0.107221
H28	H	1.679188	0.216394	-0.000025
N29	N	1.702174	0.486751	-0.000003
H30	H	1.752436	0.470241	-0.089635
H31	H	1.682298	0.576919	0.000055
H32	H	1.381099	0.385548	-0.000015
H33	H	1.543879	-0.114816	-0.406200
H34	H	1.385328	0.225055	-0.000004
N35	N	1.305405	-0.354354	-0.334086
H36	H	1.318215	-0.341477	-0.226149
H37	H	1.216675	-0.339400	-0.360632
N38	N	1.305425	-0.354339	-0.666002
H39	H	1.318255	-0.341459	-0.773935
H40	H	1.320820	-0.442957	-0.639469
H41	H	1.543893	-0.114800	-0.593828
N42	N	0.912594	-0.181724	0.142044
H43	H	0.851699	-0.180118	0.225630
H44	H	0.957162	-0.260370	0.147714
N45	N	1.117550	-0.187128	-0.267311
H46	H	1.209877	-0.189559	-0.247175
H47	H	1.085400	-0.263758	-0.324894
H48	H	0.850862	-0.180119	-0.232493
