data_functionalizedCrystal
_audit_creation_method	'MofGen! by Chris Wilmer'
_symmetry_space_group_name_H-M	'P1'
_symmetry_Int_Tables_number	1
_symmetry_cell_setting	triclinic
loop_
_symmetry_equiv_pos_as_xyz
  x,y,z
_cell_length_a	10.489741
_cell_length_b	10.654550
_cell_length_c	9.130313
_cell_angle_alpha	90.000110
_cell_angle_beta	89.997760
_cell_angle_gamma	95.487962
loop_
_atom_site_label
_atom_site_type_symbol
_atom_site_fract_x
_atom_site_fract_y
_atom_site_fract_z
O1	O	1.693961	-0.177187	-0.121864
O2	O	1.322757	-0.193819	-0.121851
O3	O	1.516894	-0.002767	-0.121852
O4	O	1.499824	-0.368238	-0.121862
O5	O	1.516891	-0.002773	0.121747
O6	O	1.322755	-0.193824	0.121748
O7	O	1.693958	-0.177192	0.121735
Cu8	Cu	1.508356	-0.185508	0.143984
Cu9	Cu	1.508359	-0.185502	-0.144100
O10	O	1.499822	-0.368243	0.121736
C11	C	1.515639	0.044029	-0.000054
C12	C	1.511889	0.183474	-0.000059
C13	C	1.275225	-0.192565	-0.000050
C14	C	1.133597	-0.188807	-0.000045
C15	C	1.741491	-0.178445	-0.000069
C16	C	1.883118	-0.182204	-0.000083
C17	C	1.951200	-0.303764	-0.000071
C18	C	2.043355	-0.246338	-0.120171
C19	C	2.043319	-0.246314	0.119998
C20	C	1.973409	-0.124727	-0.120283
C21	C	1.973363	-0.124720	0.119995
C22	C	2.065491	-0.067205	-0.000135
C23	C	1.501076	-0.415039	-0.000065
C24	C	1.504826	-0.554484	-0.000069
N25	N	1.508364	-0.185512	0.346607
C26	C	1.626194	0.262906	-0.000059
C27	C	1.622663	0.393928	-0.000069
C28	C	1.390513	0.366074	-0.000074
C29	C	1.394045	0.235054	-0.000075
C30	C	1.760224	0.278989	-0.000050
C31	C	1.756693	0.410011	-0.000060
N32	N	1.508362	-0.185489	-0.346722
C33	C	1.594350	-0.100943	0.423258
C34	C	1.594346	-0.100928	0.576595
C35	C	1.422367	-0.270061	0.576615
C36	C	1.422365	-0.270069	0.423281
C37	C	1.693644	-0.003299	0.423248
C38	C	1.693641	-0.003284	0.576584
H39	H	1.901503	-0.403711	-0.000196
F40	F	1.665178	0.122886	0.368845
H41	H	1.352338	-0.338921	0.360873
F42	F	1.815991	0.232384	0.137434
H43	H	1.662650	0.087953	0.624135
H44	H	2.074352	-0.297773	-0.221708
F45	F	1.932808	-0.057550	0.252723
F46	F	1.809637	0.469655	-0.137534
F47	F	1.821764	-0.031460	0.630982
H48	H	1.786257	-0.033931	0.375685
H49	H	2.114955	0.032834	-0.000191
F50	F	1.265101	0.420980	-0.000094
F51	F	1.933153	-0.057545	-0.253150
H52	H	1.352348	-0.338905	0.639060
F53	F	2.083778	-0.313572	0.252715
F54	F	1.272387	0.150520	-0.000106
H55	H	1.812649	0.249608	-0.101990
H56	H	1.807193	0.451745	0.101882
