data_functionalizedCrystal
_audit_creation_method	'MofGen! by Chris Wilmer'
_symmetry_space_group_name_H-M	'P1'
_symmetry_Int_Tables_number	1
_symmetry_cell_setting	triclinic
loop_
_symmetry_equiv_pos_as_xyz
  x,y,z
_cell_length_a	12.759401
_cell_length_b	11.169409
_cell_length_c	12.759400
_cell_angle_alpha	89.967381
_cell_angle_beta	90.013326
_cell_angle_gamma	89.979279
loop_
_atom_site_label
_atom_site_type_symbol
_atom_site_fract_x
_atom_site_fract_y
_atom_site_fract_z
Zn1	Zn	1.606290	-0.678545	-0.418177
Zn2	Zn	1.606182	-0.477861	-0.593903
Zn3	Zn	1.430585	-0.477879	-0.418239
Zn4	Zn	1.430585	-0.678505	-0.593815
O5	O	1.518410	-0.578197	-0.506034
O6	O	1.753296	-0.651933	-0.441498
O7	O	1.582843	-0.309913	-0.570663
O8	O	1.453937	-0.504522	-0.271210
O9	O	1.753217	-0.504491	-0.570603
O10	O	1.583027	-0.651950	-0.271164
O11	O	1.453833	-0.309927	-0.441604
O12	O	1.283564	-0.504483	-0.441519
O13	O	1.453938	-0.846460	-0.570454
O14	O	1.283564	-0.651882	-0.570514
O15	O	1.583027	-0.846489	-0.441414
O16	O	1.582844	-0.504452	-0.740912
O17	O	1.453833	-0.651865	-0.740848
C18	C	1.245443	-0.578181	-0.506014
C19	C	1.128666	-0.578203	-0.506031
C20	C	1.073832	-0.654826	-0.573307
C21	C	0.964108	-0.654839	-0.573320
C22	C	0.964062	-0.501594	-0.438780
C23	C	1.073784	-0.501588	-0.438762
C24	C	1.073857	-0.743298	-0.650986
C25	C	0.964133	-0.743311	-0.650999
C26	C	1.518495	-0.891240	-0.505917
C27	C	1.518530	-1.024640	-0.505868
C28	C	1.792444	-0.578214	-0.506054
C29	C	1.909220	-0.578222	-0.506062
C30	C	1.518355	-0.578178	-0.779001
C31	C	1.518428	-0.578210	-0.895778
C32	C	1.518387	-0.266373	-0.506074
C33	C	1.518555	-0.132973	-0.505827
C34	C	1.585611	-0.655039	-0.950536
C35	C	1.585660	-0.655069	-1.060260
C36	C	1.451339	-0.501430	-1.060457
C37	C	1.451286	-0.501407	-0.950735
C38	C	1.663163	-0.743738	-0.950423
C39	C	1.663212	-0.743767	-1.060148
C40	C	1.518494	-0.578243	-0.232000
C41	C	1.518530	-0.578262	-0.115224
H42	H	1.107872	-0.709846	-0.728239
C43	C	1.767575	-0.698852	-0.904393
C44	C	1.769225	-0.587622	-0.833157
C45	C	1.873636	-0.542731	-0.787127
C46	C	1.976396	-0.609070	-0.812334
C47	C	1.974750	-0.720307	-0.883574
C48	C	1.870340	-0.765198	-0.929604
H49	H	1.693152	-0.538508	-0.814494
H50	H	1.874854	-0.460386	-0.734390
H51	H	2.053687	-0.575839	-0.778260
H52	H	2.050823	-0.769420	-0.902237
H53	H	1.869122	-0.847543	-0.982340
H54	H	1.634026	-0.832039	-1.094140
C55	C	0.918200	-0.862680	-0.611763
C56	C	0.943564	-0.979962	-0.669870
C57	C	0.897631	-1.099327	-0.630632
C58	C	0.826334	-1.101409	-0.533285
C59	C	0.800967	-0.984122	-0.475171
C60	C	0.846900	-0.864757	-0.514410
H61	H	0.996346	-0.978425	-0.741937
H62	H	0.916410	-1.186150	-0.673651
H63	H	0.792332	-1.189770	-0.504238
H64	H	0.748185	-0.985659	-0.403104
H65	H	0.828120	-0.777934	-0.471390
H66	H	1.744609	-0.718961	-1.089885
H67	H	1.118427	-0.439202	-0.383973
H68	H	0.919364	-0.439219	-0.384010
C69	C	1.377374	-0.416905	-0.890499
C70	C	1.303525	-0.332426	-0.950953
C71	C	1.229609	-0.247922	-0.890717
C72	C	1.229541	-0.247896	-0.770027
C73	C	1.303393	-0.332377	-0.709567
C74	C	1.377310	-0.416882	-0.769803
H75	H	1.303572	-0.332443	-1.040301
H76	H	1.174939	-0.185383	-0.935475
H77	H	1.174824	-0.185341	-0.725437
H78	H	1.303346	-0.332361	-0.620219
H79	H	1.431980	-0.479421	-0.725045
H80	H	1.103668	-0.836292	-0.629283
C81	C	1.377491	-0.416944	-1.120914
C82	C	1.423090	-0.322779	-1.196377
C83	C	1.349242	-0.238290	-1.256832
C84	C	1.229795	-0.247967	-1.241824
C85	C	1.184190	-0.342137	-1.166357
C86	C	1.258038	-0.426625	-1.105903
H87	H	1.511518	-0.315612	-1.207490
H88	H	1.383002	-0.168580	-1.312697
H89	H	1.175127	-0.185424	-1.286576
H90	H	1.095762	-0.349304	-1.155244
H91	H	1.224278	-0.496336	-1.050037
H92	H	0.934339	-0.718258	-0.732349
C93	C	1.633651	-0.869269	-0.910126
C94	C	1.609905	-0.970491	-0.988498
C95	C	1.580393	-1.096018	-0.948200
C96	C	1.574627	-1.120323	-0.829529
C97	C	1.598373	-1.019098	-0.751150
C98	C	1.627885	-0.893571	-0.791448
H99	H	1.614173	-0.952502	-1.076351
H100	H	1.562814	-1.170951	-1.006222
H101	H	1.552781	-1.213245	-0.799698
H102	H	1.594105	-1.037087	-0.663297
H103	H	1.645464	-0.818637	-0.733426
