data_functionalizedCrystal
_audit_creation_method	'MofGen! by Chris Wilmer'
_symmetry_space_group_name_H-M	'P1'
_symmetry_Int_Tables_number	1
_symmetry_cell_setting	triclinic
loop_
_symmetry_equiv_pos_as_xyz
  x,y,z
_cell_length_a	9.065218
_cell_length_b	9.016244
_cell_length_c	9.065218
_cell_angle_alpha	90.004947
_cell_angle_beta	85.015885
_cell_angle_gamma	90.002420
loop_
_atom_site_label
_atom_site_type_symbol
_atom_site_fract_x
_atom_site_fract_y
_atom_site_fract_z
O1	O	1.960397	0.123337	0.216362
O2	O	1.531112	0.123339	0.234108
O3	O	1.754627	0.123335	0.010592
O4	O	1.736881	0.123341	0.439877
O5	O	1.754618	-0.123346	0.010576
O6	O	1.531102	-0.123342	0.234091
O7	O	1.960387	-0.123343	0.216345
Cu8	Cu	1.745744	-0.145866	0.225216
Cu9	Cu	1.745755	0.145862	0.225236
O10	O	1.736871	-0.123339	0.439860
C11	C	1.476120	-0.000001	0.232394
C12	C	1.312277	-0.000000	0.227294
N13	N	1.745746	-0.351053	0.225202
C14	C	1.865763	-0.586041	0.106051
C15	C	1.865436	-0.414150	0.105594
C16	C	1.591353	-0.413478	0.189517
C17	C	1.592066	-0.585422	0.188681
C18	C	1.778774	-0.585554	0.380447
C19	C	1.782251	-0.413598	0.379449
C20	C	2.015378	0.000000	0.218059
C21	C	2.179221	0.000009	0.223158
C22	C	1.752917	-0.000003	-0.044403
C23	C	1.747817	0.000004	-0.208245
N24	N	1.745764	0.351048	0.225240
C25	C	1.738582	0.000002	0.494855
C26	C	1.743681	0.000004	0.658698
H27	H	1.980846	-0.627381	0.127290
H28	H	1.691292	-0.626246	0.469169
H29	H	1.844756	-0.629270	-0.008432
H30	H	1.563285	-0.625544	0.075426
H31	H	1.895839	-0.372798	0.406479
C32	C	1.672037	-0.355586	0.505100
C33	C	1.687451	-0.403225	0.666163
C34	C	1.577223	-0.345213	0.791811
C35	C	1.451582	-0.239563	0.756395
C36	C	1.436162	-0.191919	0.595325
C37	C	1.546390	-0.249930	0.469677
H38	H	1.780463	-0.481438	0.692387
H39	H	1.588639	-0.380483	0.911046
H40	H	1.369985	-0.196620	0.849407
H41	H	1.343150	-0.113705	0.569101
H42	H	1.534975	-0.214660	0.350442
H43	H	1.980137	-0.371942	0.127147
H44	H	1.844129	-0.373033	-0.009549
C45	C	1.927771	-0.644106	0.426106
C46	C	1.951875	-0.812058	0.443384
C47	C	2.100877	-0.870613	0.489025
C48	C	2.225775	-0.761215	0.517389
C49	C	2.201674	-0.593253	0.500112
C50	C	2.052672	-0.534698	0.454470
H51	H	1.859415	-0.893050	0.422387
H52	H	2.118717	-0.994950	0.501815
H53	H	2.336075	-0.804560	0.551176
H54	H	2.294134	-0.512260	0.521109
H55	H	2.034832	-0.410361	0.441681
H56	H	1.499982	-0.627040	0.272084
H57	H	1.499818	-0.372608	0.273926
H58	H	1.561918	-0.370431	0.077535
