data_functionalizedCrystal
_audit_creation_method	'MofGen! by Chris Wilmer'
_symmetry_space_group_name_H-M	'P1'
_symmetry_Int_Tables_number	1
_symmetry_cell_setting	triclinic
loop_
_symmetry_equiv_pos_as_xyz
  x,y,z
_cell_length_a	19.188933
_cell_length_b	17.038272
_cell_length_c	15.500227
_cell_angle_alpha	86.966746
_cell_angle_beta	87.166530
_cell_angle_gamma	92.871437
loop_
_atom_site_label
_atom_site_type_symbol
_atom_site_fract_x
_atom_site_fract_y
_atom_site_fract_z
O1	O	0.935238	-0.093960	-0.071916
O2	O	1.435238	0.406040	0.428084
O3	O	0.732743	-0.107095	-0.071924
O4	O	1.232743	0.392905	0.428076
O5	O	0.832787	0.013284	-0.071913
O6	O	1.332787	0.513284	0.428087
O7	O	0.835194	-0.214339	-0.071927
O8	O	1.335194	0.285661	0.428073
O9	O	0.826714	0.006007	0.071975
O10	O	1.326714	0.506007	0.571975
O11	O	0.726670	-0.114372	0.071964
O12	O	1.226670	0.385628	0.571964
O13	O	0.929165	-0.101236	0.071972
O14	O	1.429165	0.398764	0.571972
Cu15	Cu	0.827363	-0.108468	0.085106
Cu16	Cu	1.327363	0.391532	0.585106
Cu17	Cu	0.834545	-0.099863	-0.085058
Cu18	Cu	1.334545	0.400137	0.414942
O19	O	0.829121	-0.221615	0.071961
O20	O	1.329121	0.278385	0.571961
C21	C	0.703669	-0.110308	0.000019
C22	C	1.203669	0.389692	0.500019
C23	C	0.626086	-0.109030	0.000016
C24	C	1.126086	0.390970	0.500016
C25	C	0.075573	-0.095945	-0.078408
C26	C	0.575573	0.404055	0.421592
C27	C	0.148472	-0.097140	-0.078411
C28	C	0.648472	0.402860	0.421589
C29	C	0.181616	-0.101708	0.000022
C30	C	0.681616	0.398292	0.500022
C31	C	0.141857	-0.105061	0.078464
C32	C	0.641857	0.394939	0.578464
C33	C	0.068960	-0.103857	0.078466
C34	C	0.568960	0.396143	0.578466
N35	N	0.291053	-0.151032	0.058401
N36	N	0.791053	0.348968	0.558401
N37	N	0.360302	-0.152177	0.058394
N38	N	0.860302	0.347823	0.558394
C39	C	0.401250	-0.105333	0.000023
C40	C	0.901250	0.394667	0.500023
N41	N	0.370333	-0.057311	-0.058354
N42	N	0.870333	0.442689	0.441646
N43	N	0.301077	-0.056170	-0.058350
N44	N	0.801077	0.443830	0.441650
C45	C	0.260660	-0.103013	0.000030
C46	C	0.760660	0.396987	0.500030
C47	C	0.520046	-0.103272	-0.078418
C48	C	1.020046	0.396728	0.421582
C49	C	0.592946	-0.104463	-0.078418
C50	C	1.092946	0.395537	0.421582
C51	C	0.586329	-0.112391	0.078460
C52	C	1.086329	0.387609	0.578460
C53	C	0.513431	-0.111192	0.078458
C54	C	1.013431	0.388808	0.578458
C55	C	0.480294	-0.106637	0.000017
C56	C	0.980294	0.393363	0.500017
C57	C	0.827561	0.038767	0.000031
C58	C	1.327561	0.538767	0.500031
C59	C	0.821030	0.125540	0.000030
C60	C	1.321030	0.625540	0.500030
C61	C	0.958239	-0.098023	0.000027
C62	C	1.458239	0.401977	0.500027
C63	C	1.035823	-0.099301	0.000024
C64	C	1.535823	0.400699	0.500024
C65	C	0.834347	-0.247098	0.000015
C66	C	1.334347	0.252902	0.500015
C67	C	0.840879	-0.333871	0.000010
C68	C	1.340879	0.166129	0.500010
N69	N	0.822317	-0.114520	0.204791
N70	N	1.322317	0.385480	0.704791
C71	C	0.880996	0.175841	0.000033
C72	C	1.380996	0.675841	0.500033
C73	C	0.874855	0.257372	0.000025
C74	C	1.374855	0.757372	0.500025
C75	C	0.808747	0.288601	0.000019
C76	C	1.308747	0.788601	0.500019
C77	C	0.748776	0.238294	0.000013
C78	C	1.248776	0.738294	0.500013
C79	C	0.754918	0.156764	0.000016
C80	C	1.254918	0.656764	0.500016
C81	C	0.787050	0.534292	0.000007
C82	C	1.287050	1.034292	0.500007
C83	C	0.780912	0.615828	0.000007
C84	C	1.280912	1.115828	0.500007
C85	C	0.906992	0.634901	0.000017
C86	C	1.406992	1.134901	0.500017
C87	C	0.913128	0.553369	0.000024
C88	C	1.413128	1.053369	0.500024
C89	C	0.853157	0.503069	0.000014
C90	C	1.353157	1.003069	0.500014
C91	C	0.802469	0.371940	0.000013
C92	C	1.302469	0.871940	0.500013
C93	C	0.859436	0.419733	0.000014
C94	C	1.359436	0.919733	0.500014
N95	N	0.839596	-0.093805	-0.204743
N96	N	1.339596	0.406195	0.295257
C97	C	0.864726	-0.063530	0.250072
C98	C	1.364726	0.436470	0.750072
C99	C	0.860917	-0.068114	0.340644
C100	C	1.360917	0.431886	0.840644
C101	C	0.814701	-0.123693	0.385934
C102	C	1.314701	0.376307	0.885934
C103	C	0.772288	-0.174685	0.340646
C104	C	1.272288	0.325315	0.840646
C105	C	0.776094	-0.170097	0.250075
C106	C	1.276094	0.329903	0.750075
C107	C	0.800989	-0.140209	0.659399
C108	C	1.300989	0.359791	1.159399
C109	C	0.797187	-0.144795	0.749976
C110	C	1.297187	0.355205	1.249976
C111	C	0.885815	-0.038223	0.749968
C112	C	1.385815	0.461777	1.249968
C113	C	0.889621	-0.033642	0.659396
C114	C	1.389621	0.466358	1.159396
C115	C	0.847204	-0.084632	0.614116
C116	C	1.347204	0.415368	1.114116
C117	C	0.810808	-0.128381	0.478513
C118	C	1.310808	0.371619	0.978513
C119	C	0.851095	-0.079939	0.521538
C120	C	1.351095	0.420061	1.021538
H121	H	0.048598	-0.092232	-0.142281
H122	H	0.548598	0.407768	0.357719
F123	F	0.177132	-0.109919	0.161938
F124	F	0.677132	0.390081	0.661938
H125	H	0.741560	-0.211617	0.213208
H126	H	1.241560	0.288383	0.713208
H127	H	0.481065	-0.113928	0.142326
H128	H	0.981065	0.386072	0.642326
H129	H	0.927253	0.011614	0.622523
H130	H	1.427253	0.511614	1.122523
F131	F	0.900276	-0.020787	0.473337
F132	F	1.400276	0.479213	0.973337
H133	H	0.493065	-0.099560	-0.142289
H134	H	0.993065	0.400440	0.357711
F135	F	0.970812	0.688439	0.000027
F136	F	1.470812	1.188439	0.500027
F137	F	0.761624	-0.187533	0.526719
F138	F	1.261624	0.312467	1.026719
F139	F	0.635253	-0.100883	-0.161901
F140	F	1.135253	0.399117	0.338099
F141	F	0.190786	-0.093569	-0.161892
F142	F	0.690786	0.406431	0.338108
F143	F	0.026653	-0.107432	0.161947
F144	F	0.526653	0.392568	0.661947
F145	F	0.929791	0.386495	0.000015
F146	F	1.429791	0.886495	0.500015
H147	H	0.727076	0.641251	0.000016
H148	H	1.227076	1.141251	0.500016
F149	F	0.621599	-0.117243	0.161935
F150	F	1.121599	0.382757	0.661935
H151	H	0.748643	0.397375	0.000011
H152	H	1.248643	0.897375	0.500011
F153	F	0.951357	0.142612	0.000048
F154	F	1.451357	0.642612	0.500048
H155	H	0.706087	0.115809	0.000013
H156	H	1.206087	0.615809	0.500013
F157	F	0.723223	0.480770	-0.000007
F158	F	1.223223	0.980770	0.499993
H159	H	0.923686	0.298325	0.000030
H160	H	1.423686	0.798325	0.500030
H161	H	0.966960	0.527949	0.000029
H162	H	1.466960	1.027949	0.500029
H163	H	0.920348	0.003291	0.786843
H164	H	1.420348	0.503291	1.286843
F165	F	0.678419	0.271533	-0.000002
F166	F	1.178419	0.771533	0.499998
F167	F	0.913919	-0.004379	0.201880
F168	F	1.413919	0.495621	0.701880
H169	H	0.895449	-0.026593	0.377512
H170	H	1.395449	0.473407	0.877512
H171	H	0.759551	-0.190057	0.786847
H172	H	1.259551	0.309943	1.286847
F173	F	0.723098	-0.233833	0.388847
F174	F	1.223098	0.266167	0.888847
H175	H	0.766453	-0.181728	0.622540
H176	H	1.266453	0.318272	1.122540
