data_functionalizedCrystal
_audit_creation_method	'MofGen! by Chris Wilmer'
_symmetry_space_group_name_H-M	'P1'
_symmetry_Int_Tables_number	1
_symmetry_cell_setting	triclinic
loop_
_symmetry_equiv_pos_as_xyz
  x,y,z
_cell_length_a	10.908878
_cell_length_b	23.532357
_cell_length_c	10.065875
_cell_angle_alpha	98.726510
_cell_angle_beta	83.443480
_cell_angle_gamma	71.456541
loop_
_atom_site_label
_atom_site_type_symbol
_atom_site_fract_x
_atom_site_fract_y
_atom_site_fract_z
O1	O	1.723927	-0.098231	-0.113443
O2	O	1.349480	-0.053704	-0.113462
O3	O	1.548024	-0.159943	-0.113424
O4	O	1.525383	0.008008	-0.113481
O5	O	1.510163	-0.139618	0.113558
O6	O	1.311620	-0.033379	0.113520
O7	O	1.686066	-0.077906	0.113539
Zn8	Zn	1.492832	-0.052415	0.149567
Zn9	Zn	1.542715	-0.079195	-0.149491
O10	O	1.487523	0.028333	0.113501
C11	C	1.282654	-0.039380	0.000027
C12	C	1.139939	-0.026987	0.000021
C13	C	1.091523	-0.072206	0.000036
C14	C	0.944020	-0.059399	0.000029
C15	C	1.528526	-0.170944	0.000071
C16	C	1.526821	-0.234005	0.000084
C17	C	1.536777	-0.636116	-0.123718
C18	C	1.535160	-0.695367	-0.123726
O19	O	1.551830	-0.735425	-0.228951
N20	N	1.513719	-0.713925	0.000000
C21	C	1.493882	-0.673226	0.123742
O22	O	1.475496	-0.694452	0.228980
C23	C	1.495491	-0.613975	0.123748
C24	C	1.516946	-0.595423	0.000014
C25	C	1.558229	-0.617563	-0.247442
C26	C	1.559849	-0.558316	-0.247433
C27	C	1.540018	-0.517623	-0.123701
C28	C	1.518566	-0.536176	0.000023
C29	C	1.475645	-0.573276	0.247489
C30	C	1.477255	-0.514022	0.247485
C31	C	1.498710	-0.495470	0.123751
C32	C	1.500355	-0.436237	0.123763
N33	N	1.521795	-0.417679	0.000038
C34	C	1.541627	-0.458372	-0.123695
C35	C	1.490503	-0.797658	0.123719
C36	C	1.488903	-0.856909	0.123714
C37	C	1.530178	-0.879045	-0.123754
C38	C	1.531787	-0.819794	-0.123748
C39	C	1.511943	-0.779100	-0.000007
C40	C	1.545029	-0.333950	-0.123668
C41	C	1.546652	-0.274698	-0.123648
C42	C	1.505370	-0.252566	0.123819
C43	C	1.503753	-0.311813	0.123801
C44	C	1.523580	-0.352504	0.000046
O45	O	1.483689	-0.396146	0.228935
O46	O	1.559993	-0.437135	-0.228915
C47	C	1.752893	-0.092230	0.000047
C48	C	1.895609	-0.104624	0.000044
C49	C	1.507021	0.039334	0.000003
C50	C	1.508728	0.102394	-0.000019
N51	N	1.458798	-0.034140	0.353666
N52	N	1.576759	-0.097475	-0.353590
C53	C	1.530865	-0.072839	0.421459
C54	C	1.504681	-0.058771	0.578621
H55	H	0.963356	-0.152823	0.000051
C56	C	1.465314	-0.877311	0.259831
N57	N	1.447536	-0.892673	0.362359
H58	H	1.486295	-0.326921	0.224555
H59	H	1.072190	0.021207	-0.000002
C60	C	1.349249	0.024690	0.432437
N61	N	1.266735	0.069002	0.491764
H62	H	1.159274	-0.120401	0.000046
H63	H	1.423587	-0.015222	0.636927
C64	C	1.570251	-0.254295	-0.259771
N65	N	1.588021	-0.238928	-0.362296
C66	C	1.686315	-0.156308	0.567649
N67	N	1.768834	-0.200619	0.508324
H68	H	0.876275	-0.011201	0.000007
C69	C	1.580103	-0.662326	-0.383569
N70	N	1.596609	-0.696043	-0.486110
C71	C	1.566861	-0.378705	-0.259804
N72	N	1.583320	-0.412416	-0.362342
C73	C	1.583437	-0.537915	-0.383552
N74	N	1.601198	-0.522553	-0.486084
C75	C	1.555377	-0.799391	-0.259863
N76	N	1.573141	-0.784027	-0.362392
H77	H	1.546322	-0.912188	-0.224504
H78	H	1.474347	-0.764527	0.224490
H79	H	1.458177	-0.588370	0.348246
C80	C	1.455430	-0.469261	0.383613
N81	N	1.438996	-0.435550	0.486145
H82	H	1.489230	-0.219424	0.224559
C83	C	1.640387	-0.131678	0.342689
N84	N	1.722875	-0.175999	0.283361
