data_functionalizedCrystal
_audit_creation_method	'MofGen! by Chris Wilmer'
_symmetry_space_group_name_H-M	'P1'
_symmetry_Int_Tables_number	1
_symmetry_cell_setting	triclinic
loop_
_symmetry_equiv_pos_as_xyz
  x,y,z
_cell_length_a	19.077142
_cell_length_b	12.645330
_cell_length_c	19.076919
_cell_angle_alpha	87.723193
_cell_angle_beta	89.925643
_cell_angle_gamma	87.721917
loop_
_atom_site_label
_atom_site_type_symbol
_atom_site_fract_x
_atom_site_fract_y
_atom_site_fract_z
Zn1	Zn	-1.058257	0.512883	-0.440483
Zn2	Zn	-1.062894	0.683333	-0.322986
Zn3	Zn	-0.945476	0.498679	-0.318272
Zn4	Zn	-0.940715	0.682691	-0.435735
O5	O	-1.001836	0.594396	-0.379369
O6	O	-1.157204	0.541707	-0.428857
O7	O	-1.051250	0.653163	-0.224029
O8	O	-0.960488	0.352220	-0.334497
O9	O	-1.160610	0.666935	-0.342532
O10	O	-1.043349	0.362656	-0.424285
O11	O	-0.964984	0.517498	-0.220566
O12	O	-0.846513	0.516875	-0.329893
O13	O	-0.952375	0.665841	-0.534696
O14	O	-0.843015	0.652068	-0.416193
O15	O	-1.038733	0.541084	-0.538184
O16	O	-1.046634	0.831591	-0.337928
O17	O	-0.956871	0.831119	-0.420764
C18	C	-0.819268	0.582861	-0.372016
C19	C	-0.741164	0.577953	-0.368888
C20	C	-1.001757	0.869821	-0.379359
C21	C	-1.001787	0.987654	-0.379380
C22	C	-0.702671	0.646133	-0.412279
C23	C	-0.629284	0.641507	-0.409343
C24	C	-0.594391	0.568707	-0.363011
C25	C	-0.632889	0.500520	-0.319618
C26	C	-0.706275	0.505141	-0.322559
C27	C	-0.375105	0.547322	-0.349410
C28	C	-0.301714	0.542708	-0.346471
C29	C	-0.298113	0.683695	-0.436197
C30	C	-0.371500	0.688314	-0.439130
C31	C	-0.409992	0.620124	-0.395740
N32	N	-0.519378	0.563979	-0.360007
N33	N	-0.485004	0.624847	-0.398748
C34	C	-0.185116	0.605971	-0.386742
C35	C	-0.263221	0.610888	-0.389862
C36	C	-0.945518	1.154988	-0.431670
C37	C	-0.945260	1.032402	-0.431483
C38	C	-0.984717	1.026677	-0.304522
C39	C	-0.984362	1.149273	-0.304840
C40	C	-1.075445	1.160541	-0.401365
C41	C	-1.074936	1.038000	-0.402965
C42	C	-1.001908	1.317897	-0.379397
C43	C	-1.001875	1.200066	-0.379413
C44	C	-0.994506	0.604975	-0.562649
C45	C	-0.991382	0.609483	-0.640753
C46	C	-1.034874	0.546650	-0.679263
C47	C	-1.031931	0.550881	-0.752649
C48	C	-0.985499	0.617952	-0.787523
C49	C	-0.942002	0.680788	-0.749008
C50	C	-0.944942	0.676550	-0.675623
C51	C	-0.971880	0.637585	-1.006805
C52	C	-0.968945	0.641820	-1.080195
C53	C	-1.058873	0.511911	-1.083831
C54	C	-1.061813	0.507685	-1.010445
C55	C	-1.018313	0.570516	-0.971936
N56	N	-0.982490	0.622281	-0.862536
N57	N	-1.021318	0.566181	-0.896925
C58	C	-1.009177	0.583785	-0.196803
C59	C	-1.012437	0.578987	-0.118705
H60	H	-0.597946	0.697028	-0.444676
N61	N	-1.096836	1.207036	-0.472643
H62	H	-1.142276	1.250086	-0.468422
H63	H	-1.059004	1.254140	-0.491378
H64	H	-1.087862	1.012973	-0.458071
N65	N	-1.084963	0.474316	-0.641655
H66	H	-1.118732	0.517705	-0.612523
H67	H	-1.112018	0.435175	-0.677236
N68	N	-0.918862	0.714148	-1.117826
H69	H	-0.930248	0.789848	-1.105495
H70	H	-0.869191	0.693676	-1.103027
N71	N	-0.416613	0.473791	-0.302601
H72	H	-0.468398	0.487758	-0.311491
H73	H	-0.403365	0.397935	-0.313105
N74	N	-0.913244	1.181518	-0.280675
H75	H	-0.918807	1.223738	-0.237031
H76	H	-0.882455	1.116068	-0.269955
N77	N	-1.131018	1.199249	-0.351000
H78	H	-1.108687	1.242179	-0.314141
H79	H	-1.167499	1.244894	-0.377562
H80	H	-0.273306	0.483413	-0.308747
H81	H	-0.604474	0.441239	-0.281897
N82	N	-0.873635	1.190371	-0.412327
H83	H	-0.853601	1.233088	-0.452925
H84	H	-0.877474	1.235434	-0.369847
N85	N	-1.133182	0.998119	-0.356541
H86	H	-1.112887	0.946623	-0.319395
H87	H	-1.157566	1.059861	-0.333334
N88	N	-1.037540	0.988041	-0.251354
H89	H	-1.086018	1.016117	-0.265395
H90	H	-1.036389	0.908060	-0.249446
H91	H	-0.737615	0.449616	-0.287229
N92	N	-1.078826	0.483090	-0.794185
H93	H	-1.108686	0.439956	-0.760957
H94	H	-1.110112	0.530035	-0.825950
H95	H	-0.904193	0.735394	-0.777408
N96	N	-1.111867	0.435318	-0.972817
H97	H	-1.145635	0.478683	-0.943670
H98	H	-1.138926	0.396148	-1.008380
N99	N	-0.958944	0.997725	-0.504883
H100	H	-0.965198	1.062119	-0.537652
H101	H	-0.917871	0.952001	-0.520979
H102	H	-1.094287	0.460756	-1.115194
H103	H	-0.399905	0.747599	-0.476857
H104	H	-0.931610	0.991724	-0.286004
N105	N	-0.924942	0.705314	-0.965274
H106	H	-0.895077	0.748435	-0.998504
H107	H	-0.954722	0.754433	-0.935959
N108	N	-0.959027	1.199230	-0.505307
H109	H	-1.001809	1.248926	-0.505510
H110	H	-0.917016	1.239073	-0.522328
H111	H	-0.266765	0.739211	-0.471524
H112	H	-0.909519	0.727705	-0.644268
N113	N	-0.872948	0.988091	-0.411899
H114	H	-0.837678	1.014939	-0.447192
H115	H	-0.860298	1.011478	-0.363672
N116	N	-0.740303	0.724662	-0.462246
H117	H	-0.704779	0.767149	-0.489289
H118	H	-0.769468	0.685386	-0.496034
H119	H	-1.023791	1.178872	-0.264416
