data_functionalizedCrystal
_audit_creation_method	'MofGen! by Chris Wilmer'
_symmetry_space_group_name_H-M	'P1'
_symmetry_Int_Tables_number	1
_symmetry_cell_setting	triclinic
loop_
_symmetry_equiv_pos_as_xyz
  x,y,z
_cell_length_a	12.594517
_cell_length_b	12.594516
_cell_length_c	18.215399
_cell_angle_alpha	89.973810
_cell_angle_beta	89.983008
_cell_angle_gamma	90.011616
loop_
_atom_site_label
_atom_site_type_symbol
_atom_site_fract_x
_atom_site_fract_y
_atom_site_fract_z
Zn1	Zn	1.627253	-0.423733	-0.416140
Zn2	Zn	1.627170	-0.601738	-0.293083
Zn3	Zn	1.449270	-0.423774	-0.293088
Zn4	Zn	1.449252	-0.601670	-0.416108
O5	O	1.538236	-0.512729	-0.354605
O6	O	1.776188	-0.447358	-0.399829
O7	O	1.603544	-0.578177	-0.190099
O8	O	1.472922	-0.274823	-0.309426
O9	O	1.776127	-0.578138	-0.309419
O10	O	1.603685	-0.274793	-0.399833
O11	O	1.472842	-0.447427	-0.190103
O12	O	1.300322	-0.447360	-0.309394
O13	O	1.472891	-0.578020	-0.519096
O14	O	1.300309	-0.578059	-0.399777
O15	O	1.603668	-0.447291	-0.519120
O16	O	1.603527	-0.750675	-0.309387
O17	O	1.472811	-0.750625	-0.399773
C18	C	1.261695	-0.512707	-0.354583
C19	C	1.143390	-0.512724	-0.354591
C20	C	1.074113	-0.441539	-0.305526
C21	C	1.003311	-0.538627	-0.287425
C22	C	1.003393	-0.415684	-0.372705
C23	C	1.074146	-0.609863	-0.336455
C24	C	1.074234	-0.486854	-0.421766
C25	C	1.003464	-0.584009	-0.403691
C26	C	1.538187	-0.789270	-0.354592
C27	C	1.538263	-0.907575	-0.354611
C28	C	1.609442	-0.976817	-0.305503
C29	C	1.635445	-1.047517	-0.372674
C30	C	1.512393	-1.047675	-0.287483
C31	C	1.564316	-0.976716	-0.421817
C32	C	1.441219	-0.976868	-0.336581
C33	C	1.467185	-1.047536	-0.403798
C34	C	1.815857	-0.512751	-0.354627
C35	C	1.934163	-0.512760	-0.354636
C36	C	1.538287	-0.512644	-0.546558
C37	C	1.538308	-0.512607	-0.628357
C38	C	1.538315	-0.235108	-0.354634
C39	C	1.538348	-0.116802	-0.354646
C40	C	1.470309	-0.444480	-0.816553
C41	C	1.470327	-0.444459	-0.893412
C42	C	1.606434	-0.580608	-0.893398
C43	C	1.606410	-0.580634	-0.816541
C44	C	1.538349	-0.512564	-0.778120
C45	C	1.538392	-0.512517	-0.931836
C46	C	1.538412	-0.512494	-1.015170
C47	C	1.538326	-0.512588	-0.694781
C48	C	1.538247	-0.512737	-0.163398
C49	C	1.538432	-0.512473	-0.081600
H50	H	1.105134	-0.381400	-0.263982
C51	C	1.482837	-1.089871	-0.210789
H52	H	1.420066	-1.131438	-0.214089
H53	H	1.471051	-1.031828	-0.178517
H54	H	1.539184	-1.132423	-0.192455
C55	C	1.594060	-0.934804	-0.498550
H56	H	1.606468	-0.992994	-0.530591
H57	H	1.656510	-0.892782	-0.495190
H58	H	1.537536	-0.892788	-0.517213
C59	C	1.395428	-0.369624	-0.774293
H60	H	1.354900	-0.329083	-0.808193
H61	H	1.436133	-0.323255	-0.744316
H62	H	1.349032	-0.410364	-0.744307
H63	H	1.669645	-0.945765	-0.264011
C64	C	1.395488	-0.369561	-0.935685
H65	H	1.354959	-0.329023	-0.901793
H66	H	1.349108	-0.410260	-0.965658
H67	H	1.436234	-0.323175	-0.965676
C68	C	0.961219	-0.568217	-0.210712
H69	H	0.985400	-0.517559	-0.175890
H70	H	0.986484	-0.636677	-0.197522
H71	H	0.885797	-0.568645	-0.211397
H72	H	0.972258	-0.333613	-0.387981
H73	H	1.661848	-0.636027	-0.924689
C74	C	1.681259	-0.655528	-0.774261
H75	H	1.721808	-0.696054	-0.808150
H76	H	1.640521	-0.701910	-0.744270
H77	H	1.727638	-0.614816	-0.744289
H78	H	1.359138	-0.945810	-0.321291
C79	C	1.385918	-1.089232	-0.459978
H80	H	1.333919	-1.130810	-0.435428
H81	H	1.421251	-1.131646	-0.495503
H82	H	1.352434	-1.030956	-0.483656
C83	C	1.115942	-0.720780	-0.315691
H84	H	1.057702	-0.767090	-0.307067
H85	H	1.157892	-0.715788	-0.272499
H86	H	1.158006	-0.747896	-0.354709
C87	C	0.961808	-0.665440	-0.459767
H88	H	0.986165	-0.734324	-0.446795
H89	H	0.987165	-0.647639	-0.507326
H90	H	0.886383	-0.664608	-0.459761
H91	H	1.105411	-0.464920	-0.478538
C92	C	1.746356	-1.089451	-0.393302
H93	H	1.796820	-1.065244	-0.358351
H94	H	1.765254	-1.064112	-0.440664
H95	H	1.745421	-1.164874	-0.393601
