data_functionalizedCrystal
_audit_creation_method	'MofGen! by Chris Wilmer'
_symmetry_space_group_name_H-M	'P1'
_symmetry_Int_Tables_number	1
_symmetry_cell_setting	triclinic
loop_
_symmetry_equiv_pos_as_xyz
  x,y,z
_cell_length_a	13.897449
_cell_length_b	12.645330
_cell_length_c	13.897441
_cell_angle_alpha	89.973671
_cell_angle_beta	89.981404
_cell_angle_gamma	90.018972
loop_
_atom_site_label
_atom_site_type_symbol
_atom_site_fract_x
_atom_site_fract_y
_atom_site_fract_z
Zn1	Zn	1.474682	-0.421980	-0.545403
Zn2	Zn	1.974682	0.078020	-0.045403
Zn3	Zn	1.474582	-0.599272	-0.384114
Zn4	Zn	1.974582	-0.099272	0.115886
Zn5	Zn	1.313377	-0.422027	-0.384122
Zn6	Zn	1.813377	0.077973	0.115878
Zn7	Zn	1.313353	-0.599205	-0.545367
Zn8	Zn	1.813353	-0.099205	-0.045367
O9	O	1.393999	-0.510621	-0.464751
O10	O	1.893999	-0.010621	0.035249
O11	O	1.609651	-0.445506	-0.524020
O12	O	2.109651	0.054494	-0.024020
O13	O	1.453166	-0.575808	-0.249133
O14	O	1.953166	-0.075808	0.250867
O15	O	1.334827	-0.273673	-0.405535
O16	O	1.834827	0.226327	0.094465
O17	O	1.609577	-0.575762	-0.405521
O18	O	2.109577	-0.075762	0.094479
O19	O	1.453337	-0.273639	-0.524028
O20	O	1.953337	0.226361	-0.024028
O21	O	1.334730	-0.445587	-0.249139
O22	O	1.834730	0.054413	0.250861
O23	O	1.178393	-0.445522	-0.405499
O24	O	1.678393	0.054478	0.094501
O25	O	1.334785	-0.575648	-0.680353
O26	O	1.834785	-0.075648	-0.180353
O27	O	1.178375	-0.575694	-0.523965
O28	O	1.678375	-0.075694	-0.023965
O29	O	1.453313	-0.445441	-0.680380
O30	O	1.953313	0.054559	-0.180380
O31	O	1.453143	-0.747610	-0.405486
O32	O	1.953143	-0.247610	0.094514
O33	O	1.334689	-0.747561	-0.523957
O34	O	1.834689	-0.247561	-0.023957
C35	C	1.143384	-0.510607	-0.464729
C36	C	1.643384	-0.010607	0.035271
C37	C	1.036171	-0.510626	-0.464743
C38	C	1.536171	-0.010626	0.035257
C39	C	1.393928	-0.786051	-0.464738
C40	C	1.893928	-0.286051	0.035262
C41	C	1.393987	-0.903881	-0.464764
C42	C	1.893987	-0.403881	0.035236
C43	C	0.839875	-0.510630	-0.464768
C44	C	1.339875	-0.010630	0.035232
C45	C	0.949108	-0.510625	-0.464751
C46	C	1.449108	-0.010625	0.035249
C47	C	1.319774	-1.071458	-0.539525
C48	C	1.819774	-0.571458	-0.039525
C49	C	1.319395	-0.948899	-0.539284
C50	C	1.819395	-0.448899	-0.039284
C51	C	1.366471	-0.948478	-0.363109
C52	C	1.866471	-0.448478	0.136891
C53	C	1.366018	-1.071077	-0.363563
C54	C	1.866018	-0.571077	0.136437
C55	C	1.496168	-1.070967	-0.490835
C56	C	1.996168	-0.570967	0.009165
C57	C	1.495542	-0.948360	-0.493058
C58	C	1.995542	-0.448360	0.006942
C59	C	1.645592	-0.510636	-0.464774
C60	C	2.145592	-0.010636	0.035226
C61	C	1.752806	-0.510642	-0.464784
C62	C	2.252806	-0.010642	0.035216
C63	C	1.394058	-0.510532	-0.716344
C64	C	1.894058	-0.010532	-0.216344
C65	C	1.394083	-0.510494	-0.823558
C66	C	1.894083	-0.010494	-0.323558
C67	C	1.394096	-0.234116	-0.464786
C68	C	1.894096	0.265884	0.035214
C69	C	1.394137	-0.116286	-0.464801
C70	C	1.894137	0.383714	0.035199
C71	C	1.394103	-0.510464	-0.910628
C72	C	1.894103	-0.010464	-0.410628
C73	C	1.394130	-0.510416	-1.019861
C74	C	1.894130	-0.010416	-0.519861
C75	C	1.393995	-0.510633	-0.214137
C76	C	1.893995	-0.010633	0.285863
C77	C	1.394157	-0.510372	-0.106924
C78	C	1.894157	-0.010372	0.393076
H79	H	1.336610	-0.918742	-0.614661
H80	H	1.836610	-0.418742	-0.114661
N81	N	1.273881	-0.910074	-0.334947
N82	N	1.773881	-0.410074	0.165053
N83	N	1.227999	-0.849872	-0.389568
N84	N	1.727999	-0.349872	0.110432
H85	H	1.162605	-0.822748	-0.369684
H86	H	1.662605	-0.322748	0.130316
H87	H	1.243753	-0.919666	-0.522036
H88	H	1.743753	-0.419666	-0.022036
H89	H	1.418916	-0.919320	-0.305912
H90	H	1.918916	-0.419320	0.194088
N91	N	1.527651	-1.109668	-0.582244
N92	N	2.027651	-0.609668	-0.082244
N93	N	1.475264	-1.171129	-0.629315
N94	N	1.975264	-0.671129	-0.129315
H95	H	1.497489	-1.198465	-0.693875
H96	H	1.997489	-0.698465	-0.193875
N97	N	1.521566	-0.911784	-0.586911
N98	N	2.021566	-0.411784	-0.086911
N99	N	1.465580	-0.853173	-0.632843
N100	N	1.965580	-0.353173	-0.132843
H101	H	1.483955	-0.827336	-0.699129
H102	H	1.983955	-0.327336	-0.199129
H103	H	1.551570	-1.099955	-0.436411
H104	H	2.051570	-0.599955	0.063589
N105	N	1.430983	-1.108285	-0.291310
N106	N	1.930983	-0.608285	0.208690
N107	N	1.417774	-1.084136	-0.205105
N108	N	1.917774	-0.584136	0.294895
H109	H	1.463643	-1.110413	-0.154069
H110	H	1.963643	-0.610413	0.345931
N111	N	1.341232	-1.108338	-0.634386
N112	N	1.841232	-0.608338	-0.134386
N113	N	1.341522	-1.205295	-0.651856
N114	N	1.841522	-0.705295	-0.151856
H115	H	1.356702	-1.231337	-0.718853
H116	H	1.856702	-0.731337	-0.218853
H117	H	1.244605	-1.102361	-0.522497
H118	H	1.744605	-0.602361	-0.022497
N119	N	1.568710	-0.909905	-0.429761
N120	N	2.068710	-0.409905	0.070239
N121	N	1.583722	-0.812734	-0.422886
N122	N	2.083722	-0.312734	0.077114
H123	H	1.635394	-0.785576	-0.378172
H124	H	2.135394	-0.285576	0.121828
N125	N	1.272451	-1.107064	-0.335888
N126	N	1.772451	-0.607064	0.164112
N127	N	1.207938	-1.041635	-0.316375
N128	N	1.707938	-0.541635	0.183625
H129	H	1.141853	-1.067045	-0.296829
H130	H	1.641853	-0.567045	0.203171
