data_functionalizedCrystal
_audit_creation_method	'MofGen! by Chris Wilmer'
_symmetry_space_group_name_H-M	'P1'
_symmetry_Int_Tables_number	1
_symmetry_cell_setting	triclinic
loop_
_symmetry_equiv_pos_as_xyz
  x,y,z
_cell_length_a	27.732048
_cell_length_b	14.853567
_cell_length_c	13.930277
_cell_angle_alpha	90.004245
_cell_angle_beta	89.990485
_cell_angle_gamma	96.861207
loop_
_atom_site_label
_atom_site_type_symbol
_atom_site_fract_x
_atom_site_fract_y
_atom_site_fract_z
O1	O	0.063107	-1.195342	-0.079776
O2	O	0.070624	-0.932760	-0.079793
O3	O	-0.003493	-1.072206	-0.079766
O4	O	0.137224	-1.055896	-0.079803
O5	O	-0.003495	-1.072187	0.079896
O6	O	0.070622	-0.932741	0.079869
O7	O	0.063105	-1.195323	0.079886
Zn8	Zn	0.066863	-1.064029	0.105227
Zn9	Zn	0.066866	-1.064054	-0.105134
O10	O	0.137222	-1.055877	0.079859
C11	C	-0.021503	-1.071854	0.000068
C12	C	-0.075162	-1.070823	0.000076
C13	C	0.070283	-0.899167	0.000036
C14	C	0.069262	-0.799100	0.000030
C15	C	0.063446	-1.228915	0.000055
C16	C	0.064467	-1.328982	0.000055
C17	C	-0.413622	-1.146736	0.000032
C18	C	-0.615300	-1.142911	0.000018
O19	O	-0.646231	-1.212328	-0.000019
N20	N	-0.634810	-1.060225	0.000013
C21	C	-0.603898	-0.978490	0.000006
O22	O	-0.625120	-0.908073	-0.000008
C23	C	-0.402221	-0.982316	0.000013
C24	C	-0.382714	-1.065007	0.000027
C25	C	-0.394114	-1.229421	0.000045
C26	C	-0.343698	-1.230376	0.000054
C27	C	-0.312790	-1.148647	0.000049
C28	C	-0.332298	-1.065963	0.000036
C29	C	-0.371310	-0.900582	-0.000002
C30	C	-0.320888	-0.901546	-0.000003
C31	C	-0.301381	-0.984237	0.000012
C32	C	-0.250973	-0.985189	0.000040
N33	N	-0.231462	-1.067875	0.000044
C34	C	-0.262371	-1.149604	0.000049
C35	C	-0.709781	-0.976487	0.000004
C36	C	-0.760200	-0.975530	0.000004
C37	C	-0.771599	-1.139952	0.000015
C38	C	-0.721179	-1.140908	0.000021
C39	C	-0.690271	-1.059173	0.000009
C40	C	-0.156492	-1.151604	0.000068
C41	C	-0.106071	-1.152552	0.000081
C42	C	-0.094677	-0.988131	0.000065
C43	C	-0.145094	-0.987183	0.000057
C44	C	-0.176001	-1.068926	0.000056
O45	O	-0.220013	-0.915809	0.000066
O46	O	-0.241139	-1.220011	0.000042
C47	C	-0.464039	-1.145781	0.000023
C48	C	-0.483547	-1.063097	0.000010
C49	C	-0.452638	-0.981367	0.000005
C50	C	-0.533966	-1.062140	0.000010
C51	C	-0.564874	-1.143869	0.000014
C52	C	-0.545364	-1.226555	0.000019
C53	C	-0.494947	-1.227510	0.000028
C54	C	-0.472149	-0.898682	0.000000
C55	C	-0.522566	-0.897733	-0.000007
C56	C	-0.553474	-0.979462	-0.000003
C57	C	0.155232	-1.056228	0.000023
C58	C	0.208891	-1.057259	0.000009
N59	N	0.066862	-1.064018	0.248793
C60	C	0.020920	-0.387353	0.000064
C61	C	0.108973	-0.364639	0.000040
C62	C	0.109933	-0.458657	0.000036
C63	C	0.066385	-0.517028	0.000045
C64	C	0.021878	-0.481380	0.000058
C65	C	0.154439	-0.494313	0.000014
C66	C	0.155401	-0.588336	0.000010
C67	C	0.111853	-0.646708	0.000026
C68	C	0.067344	-0.611055	0.000039
C69	C	0.023796	-0.669425	0.000048
C70	C	-0.020713	-0.633774	0.000069
C71	C	-0.021670	-0.539752	0.000074
C72	C	0.112809	-0.740730	0.000021
C73	C	0.024755	-0.763452	0.000042
N74	N	0.066863	-1.064072	-0.248700
C75	C	0.099672	-1.002305	0.701050
C76	C	0.034056	-1.125828	0.701044
C77	C	0.034054	-1.125817	0.600549
C78	C	0.066862	-1.064050	0.550299
C79	C	0.099672	-1.002294	0.600545
C80	C	0.001248	-1.187578	0.550295
C81	C	0.001246	-1.187571	0.449793
C82	C	0.034052	-1.125799	0.399542
C83	C	0.066863	-1.064040	0.449794
C84	C	0.099671	-1.002273	0.399545
C85	C	0.132480	-0.940508	0.449795
C86	C	0.132479	-0.940522	0.550294
C87	C	0.034053	-1.125785	0.299043
C88	C	0.099672	-1.002262	0.299040
H89	H	-0.090191	-1.219892	0.000095
N90	N	-0.034140	-1.254176	0.395592
H91	H	-0.028512	-1.318082	0.413064
H92	H	-0.068441	-1.244197	0.413121
H93	H	-0.776078	-0.908195	0.000009
N94	N	-0.027085	-0.348909	0.000099
H95	H	-0.021087	-0.280489	0.000107
H96	H	-0.046146	-0.370301	-0.059083
N97	N	-0.578709	-1.314703	0.000030
H98	H	-0.599875	-1.317970	-0.059159
H99	H	-0.558672	-1.367187	0.000074
H100	H	0.159195	-0.890221	0.408870
H101	H	0.149048	-0.769753	0.000006
H102	H	-0.295725	-0.834986	-0.000014
H103	H	-0.160977	-0.919849	0.000072
H104	H	-0.056169	-0.681311	0.000070
N105	N	-0.061335	-0.899984	0.000086
H106	H	-0.026436	-0.913144	0.000096
H107	H	-0.067646	-0.863913	-0.059102
H108	H	-0.181651	-1.218168	0.000063
N109	N	0.201405	-0.431360	-0.000006
H110	H	0.194043	-0.366389	0.000006
H111	H	0.220800	-0.442834	0.059173
N112	N	0.135055	-0.935634	0.244844
H113	H	0.155836	-0.896511	0.291929
H114	H	0.156460	-0.969837	0.203133
H115	H	-0.025461	-1.237871	0.591211
N116	N	-0.069673	-0.501301	0.000103
H117	H	-0.063671	-0.432881	0.000103
H118	H	-0.088733	-0.522695	-0.059078
H119	H	-0.010707	-0.810972	0.000053
N120	N	-0.473911	-1.316698	0.000045
H121	H	-0.501147	-1.368321	0.000046
H122	H	-0.453235	-1.320691	-0.059141
H123	H	0.007343	-1.176076	0.258133
N124	N	-0.001325	-1.192452	0.755236
H125	H	0.003654	-1.183090	0.826527
H126	H	-0.035627	-1.182518	0.737688
H127	H	0.144427	-0.317109	0.000024
H128	H	0.159191	-0.890237	0.591214
H129	H	0.126383	-0.952015	0.741967
H130	H	-0.327820	-1.297712	0.000061
N131	N	0.203404	-0.626786	-0.000019
H132	H	0.230845	-0.575541	-0.000027
H133	H	0.205722	-0.665300	0.059167
N134	N	-0.427447	-1.317579	0.000051
H135	H	-0.407431	-1.370096	0.000060
H136	H	-0.448617	-1.320758	0.059243
H137	H	-0.684620	-0.909925	-0.000006
H138	H	-0.538443	-0.830391	-0.000011
H139	H	-0.705300	-1.208242	0.000032
H140	H	-0.387184	-0.833246	-0.000019
N141	N	-0.804940	-1.228105	0.000022
H142	H	-0.839839	-1.214943	0.000020
H143	H	-0.798614	-1.264174	-0.059167
N144	N	-0.438815	-0.810527	-0.000006
H145	H	-0.458830	-0.758007	-0.000010
H146	H	-0.417656	-0.807333	0.059188
