data_functionalizedCrystal
_audit_creation_method	'MofGen! by Chris Wilmer'
_symmetry_space_group_name_H-M	'P1'
_symmetry_Int_Tables_number	1
_symmetry_cell_setting	triclinic
loop_
_symmetry_equiv_pos_as_xyz
  x,y,z
_cell_length_a	16.625548
_cell_length_b	19.805405
_cell_length_c	19.805399
_cell_angle_alpha	90.030709
_cell_angle_beta	89.984078
_cell_angle_gamma	89.972522
loop_
_atom_site_label
_atom_site_type_symbol
_atom_site_fract_x
_atom_site_fract_y
_atom_site_fract_z
Zn1	Zn	1.232621	0.269450	-0.382694
Zn2	Zn	1.565955	0.602784	-0.049361
Zn3	Zn	1.899288	0.936117	0.283973
Zn4	Zn	1.232526	0.382641	-0.269502
Zn5	Zn	1.565860	0.715975	0.063831
Zn6	Zn	1.899193	1.049308	0.397164
Zn7	Zn	1.097794	0.269474	-0.269521
Zn8	Zn	1.431127	0.602807	0.063813
Zn9	Zn	1.764461	0.936140	0.397146
Zn10	Zn	1.097744	0.382605	-0.382651
Zn11	Zn	1.431078	0.715938	-0.049318
Zn12	Zn	1.764411	1.049271	0.284016
O13	O	1.165172	0.326042	-0.326092
O14	O	1.498505	0.659376	0.007241
O15	O	1.831838	0.992709	0.340575
O16	O	1.345441	0.284471	-0.367689
O17	O	1.678774	0.617804	-0.034356
O18	O	2.012108	0.951137	0.298977
O19	O	1.214635	0.367655	-0.174788
O20	O	1.547968	0.700988	0.158545
O21	O	1.881301	1.034321	0.491878
O22	O	1.115740	0.174754	-0.284559
O23	O	1.449073	0.508087	0.048774
O24	O	1.782407	0.841421	0.382108
O25	O	1.345371	0.367632	-0.284528
O26	O	1.678705	0.700965	0.048805
O27	O	2.012038	1.034298	0.382139
O28	O	1.214797	0.174737	-0.367707
O29	O	1.548130	0.508070	-0.034374
O30	O	1.881464	0.841403	0.298960
O31	O	1.115648	0.284511	-0.174802
O32	O	1.448981	0.617844	0.158532
O33	O	1.782314	0.951178	0.491865
O34	O	0.984955	0.284475	-0.284517
O35	O	1.318288	0.617809	0.048816
O36	O	1.651622	0.951142	0.382149
O37	O	1.115655	0.367569	-0.477373
O38	O	1.448988	0.700903	-0.144040
O39	O	1.782322	1.034236	0.189293
O40	O	0.984919	0.367592	-0.367634
O41	O	1.318252	0.700925	-0.034300
O42	O	1.651585	1.034259	0.299033
O43	O	1.214749	0.284435	-0.477405
O44	O	1.548082	0.617769	-0.144072
O45	O	1.881415	0.951102	0.189262
O46	O	1.214587	0.477353	-0.284486
O47	O	1.547920	0.810686	0.048847
O48	O	1.881253	1.144020	0.382180
O49	O	1.115563	0.477326	-0.367616
O50	O	1.448896	0.810659	-0.034283
O51	O	1.782229	1.143993	0.299051
C52	C	1.165081	0.501899	-0.326059
C53	C	1.498414	0.835232	0.007274
C54	C	1.831747	1.168565	0.340607
C55	C	1.165116	0.577131	-0.326068
C56	C	1.498449	0.910464	0.007265
C57	C	1.831782	1.243797	0.340599
C58	C	0.955681	0.326033	-0.326073
C59	C	1.289014	0.659366	0.007260
C60	C	1.622347	0.992699	0.340593
C61	C	0.866060	0.326045	-0.326081
C62	C	1.199393	0.659378	0.007252
C63	C	1.532726	0.992712	0.340586
C64	C	1.165207	0.325996	-0.502635
C65	C	1.498540	0.659329	-0.169302
C66	C	1.831874	0.992662	0.164032
C67	C	1.165222	0.325976	-0.577867
C68	C	1.498555	0.659309	-0.244534
C69	C	1.831889	0.992642	0.088800
C70	C	0.537884	0.326049	-0.326110
C71	C	0.871217	0.659383	0.007223
C72	C	1.204551	0.992716	0.340557
C73	C	0.629192	0.326046	-0.326100
C74	C	0.962526	0.659380	0.007233
C75	C	1.295859	0.992713	0.340567
C76	C	0.701969	0.326048	-0.326095
C77	C	1.035302	0.659381	0.007238
C78	C	1.368636	0.992714	0.340572
C79	C	0.793283	0.326044	-0.326086
C80	C	1.126616	0.659377	0.007247
C81	C	1.459950	0.992710	0.340581
C82	C	1.375480	0.326053	-0.326111
C83	C	1.708814	0.659386	0.007222
C84	C	2.042147	0.992719	0.340555
C85	C	1.465102	0.326057	-0.326120
C86	C	1.798435	0.659390	0.007214
C87	C	2.131768	0.992724	0.340547
C88	C	1.165285	0.149500	-0.326140
C89	C	1.498618	0.482833	0.007194
C90	C	1.831951	0.816166	0.340527
C91	C	1.165333	0.074268	-0.326160
C92	C	1.498666	0.407601	0.007173
C93	C	1.831999	0.740934	0.340507
C94	C	1.216727	0.612466	-0.282828
C95	C	1.550061	0.945800	0.050506
C96	C	1.883394	1.279133	0.383839
C97	C	1.216762	0.683155	-0.282843
C98	C	1.550095	1.016488	0.050491
C99	C	1.883428	1.349821	0.383824
C100	C	1.165180	0.718506	-0.326095
C101	C	1.498513	1.051839	0.007238
C102	C	1.831846	1.385173	0.340572
C103	C	1.113566	0.683165	-0.369340
C104	C	1.446899	1.016499	-0.036007
C105	C	1.780232	1.349832	0.297327
C106	C	1.113536	0.612478	-0.369328
C107	C	1.446869	0.945812	-0.035995
C108	C	1.780203	1.279145	0.297339
C109	C	1.113685	0.968239	-0.369390
C110	C	1.447018	1.301572	-0.036057
C111	C	1.780351	1.634905	0.297276
C112	C	1.113716	1.038931	-0.369398
C113	C	1.447050	1.372264	-0.036064
C114	C	1.780383	1.705597	0.297269
C115	C	1.216910	1.038915	-0.282905
C116	C	1.550244	1.372248	0.050429
C117	C	1.883577	1.705582	0.383762
C118	C	1.216881	0.968228	-0.282893
C119	C	1.550214	1.301561	0.050441
C120	C	1.883547	1.634895	0.383774
C121	C	1.165270	0.932893	-0.326140
C122	C	1.498603	1.266227	0.007193
C123	C	1.831937	1.599560	0.340527
C124	C	1.165235	0.856245	-0.326124
C125	C	1.498568	1.189578	0.007209
C126	C	1.831901	1.522912	0.340542
C127	C	1.165210	0.795153	-0.326108
C128	C	1.498544	1.128487	0.007225
C129	C	1.831877	1.461820	0.340559
C130	C	1.113694	0.282678	-0.613218
C131	C	1.447027	0.616012	-0.279884
C132	C	1.780361	0.949345	0.053449
C133	C	1.113705	0.282665	-0.683906
C134	C	1.447039	0.615999	-0.350573
C135	C	1.780372	0.949332	-0.017239
C136	C	1.165249	0.325946	-0.719243
C137	C	1.498582	0.659280	-0.385909
C138	C	1.831916	0.992613	-0.052576
C139	C	1.216779	0.369248	-0.683887
C140	C	1.550112	0.702581	-0.350554
C141	C	1.883446	1.035915	-0.017220
C142	C	1.216763	0.369264	-0.613200
C143	C	1.550097	0.702597	-0.279867
C144	C	1.883430	1.035931	0.053467
C145	C	1.216843	0.369185	-0.968961
C146	C	1.550176	0.702518	-0.635627
C147	C	1.883510	1.035851	-0.302294
C148	C	1.216856	0.369164	-1.039653
C149	C	1.550190	0.702497	-0.706319
C150	C	1.883523	1.035831	-0.372986
C151	C	1.113785	0.282586	-1.039667
C152	C	1.447118	0.615919	-0.706333
C153	C	1.780452	0.949253	-0.373000
C154	C	1.113769	0.282602	-0.968979
C155	C	1.447102	0.615935	-0.635646
C156	C	1.780436	0.949269	-0.302313
C157	C	1.165296	0.325906	-0.933630
C158	C	1.498629	0.659239	-0.600297
C159	C	1.831963	0.992573	-0.266963
C160	C	1.165282	0.325921	-0.856982
C161	C	1.498616	0.659254	-0.523648
C162	C	1.831949	0.992587	-0.190315
C163	C	1.165267	0.325929	-0.795890
C164	C	1.498601	0.659262	-0.462556
C165	C	1.831934	0.992595	-0.129223
C166	C	1.165183	0.326040	-0.150236
C167	C	1.498516	0.659374	0.183097
C168	C	1.831849	0.992707	0.516431
C169	C	1.165324	0.325870	-0.075005
C170	C	1.498657	0.659203	0.258329
C171	C	1.831991	0.992536	0.591662
H172	H	1.258728	0.583688	-0.247604
H173	H	1.592061	0.917021	0.085730
H174	H	1.925395	1.250354	0.419063
H175	H	1.071570	0.711954	-0.404560
H176	H	1.404903	1.045288	-0.071227
H177	H	1.738237	1.378621	0.262107
H178	H	1.258789	0.711922	-0.247631
H179	H	1.592122	1.045255	0.085702
H180	H	1.925455	1.378589	0.419035
N181	N	1.272416	0.415887	-0.930837
N182	N	1.605749	0.749220	-0.597503
N183	N	1.939082	1.082554	-0.264170
H184	H	1.305073	0.443300	-0.963948
H185	H	1.638406	0.776634	-0.630615
H186	H	1.971739	1.109967	-0.297282
H187	H	1.309740	0.388345	-0.901518
H188	H	1.643074	0.721678	-0.568185
H189	H	1.976407	1.055012	-0.234851
N190	N	1.058195	0.235890	-1.077796
N191	N	1.391528	0.569224	-0.744463
N192	N	1.724861	0.902557	-0.411130
H193	H	1.070745	0.187531	-1.065516
H194	H	1.404078	0.520865	-0.732182
H195	H	1.737411	0.854198	-0.398849
H196	H	1.066048	0.242509	-1.127925
H197	H	1.399381	0.575842	-0.794592
H198	H	1.732714	0.909176	-0.461259
H199	H	1.071510	0.583709	-0.404540
H200	H	1.404843	0.917042	-0.071206
H201	H	1.738176	1.250375	0.262127
N202	N	1.058108	0.235990	-0.575107
N203	N	1.391441	0.569323	-0.241773
N204	N	1.724775	0.902656	0.091560
H205	H	1.025467	0.208560	-0.608230
H206	H	1.358801	0.541893	-0.274897
H207	H	1.692134	0.875226	0.058436
H208	H	1.020768	0.263543	-0.545765
H209	H	1.354102	0.596876	-0.212431
H210	H	1.687435	0.930209	0.120902
H211	H	1.258937	1.067693	-0.247693
H212	H	1.592271	1.401026	0.085640
H213	H	1.925604	1.734359	0.418973
H214	H	1.071713	1.067712	-0.404624
H215	H	1.405046	1.401045	-0.071291
H216	H	1.738380	1.734379	0.262043
H217	H	1.071743	0.247411	-0.712685
H218	H	1.405076	0.580744	-0.379352
H219	H	1.738410	0.914078	-0.046019
H220	H	1.071800	0.247356	-0.940212
H221	H	1.405133	0.580689	-0.606879
H222	H	1.738466	0.914022	-0.273545
H223	H	1.258743	0.404492	-0.712664
H224	H	1.592076	0.737825	-0.379330
H225	H	1.925409	1.071158	-0.045997
N226	N	1.058015	0.930133	-0.416027
N227	N	1.391348	1.263466	-0.082694
N228	N	1.724681	1.596800	0.250639
H229	H	1.025340	0.963256	-0.443424
H230	H	1.358673	1.296589	-0.110091
H231	H	1.692006	1.629923	0.223242
H232	H	1.020711	0.900851	-0.388439
H233	H	1.354044	1.234185	-0.055106
H234	H	1.687378	1.567518	0.278228
N235	N	1.272452	0.415848	-1.077768
N236	N	1.605785	0.749181	-0.744435
N237	N	1.939118	1.082515	-0.411102
H238	H	1.305090	0.443285	-1.044649
H239	H	1.638424	0.776619	-0.711316
H240	H	1.971757	1.109952	-0.377982
H241	H	1.239612	0.447157	-1.107087
H242	H	1.572945	0.780491	-0.773753
H243	H	1.906279	1.113824	-0.440420
N244	N	1.272342	0.415966	-0.575075
N245	N	1.605675	0.749300	-0.241741
N246	N	1.939008	1.082633	0.091592
H247	H	1.329962	0.405454	-0.587384
H248	H	1.663295	0.738787	-0.254051
H249	H	1.996628	1.072121	0.079283
H250	H	1.264444	0.409392	-0.524945
H251	H	1.597777	0.742726	-0.191611
H252	H	1.931111	1.076059	0.141722
N253	N	1.272517	0.930099	-0.236244
N254	N	1.605850	1.263432	0.097089
N255	N	1.939183	1.596765	0.430423
H256	H	1.305222	0.963211	-0.208855
H257	H	1.638555	1.296544	0.124478
H258	H	1.971889	1.629877	0.457812
H259	H	1.309794	0.900727	-0.263826
H260	H	1.643127	1.234061	0.069508
H261	H	1.976461	1.567394	0.402841
