data_functionalizedCrystal
_audit_creation_method	'MofGen! by Chris Wilmer'
_symmetry_space_group_name_H-M	'P1'
_symmetry_Int_Tables_number	1
_symmetry_cell_setting	triclinic
loop_
_symmetry_equiv_pos_as_xyz
  x,y,z
_cell_length_a	17.699083
_cell_length_b	17.699097
_cell_length_c	9.130313
_cell_angle_alpha	89.992882
_cell_angle_beta	89.998062
_cell_angle_gamma	96.714277
loop_
_atom_site_label
_atom_site_type_symbol
_atom_site_fract_x
_atom_site_fract_y
_atom_site_fract_z
O1	O	-0.095759	1.004068	-0.121900
O2	O	-0.108201	0.783691	-0.121874
O3	O	0.008209	0.900106	-0.121902
O4	O	-0.212169	0.887654	-0.121872
O5	O	0.008212	0.900098	0.121697
O6	O	-0.108198	0.783683	0.121725
O7	O	-0.095756	1.004061	0.121699
Cu8	Cu	-0.101976	0.893871	0.143955
Cu9	Cu	-0.101980	0.893881	-0.144129
O10	O	-0.212165	0.887646	0.121727
C11	C	-0.107752	0.755491	-0.000071
C12	C	-0.106409	0.671473	-0.000062
C13	C	-0.098181	0.155759	-0.132908
C14	C	-0.099438	0.234703	-0.132901
C15	C	-0.100065	0.274165	-0.000109
C16	C	-0.099429	0.234679	0.132684
C17	C	-0.098167	0.155737	0.132675
C18	C	-0.104516	0.553043	0.132723
C19	C	-0.105780	0.631991	0.132722
C20	C	-0.105787	0.632009	-0.132852
C21	C	-0.104525	0.553067	-0.132861
C22	C	-0.103885	0.513589	-0.000069
C23	C	-0.102521	0.427989	-0.000079
C24	C	-0.101434	0.359763	-0.000098
C25	C	-0.240364	0.888096	-0.000069
C26	C	-0.324382	0.889435	-0.000058
C27	C	-0.373000	0.821102	-0.000050
C28	C	-0.451943	0.822364	-0.000067
C29	C	-0.482267	0.891960	-0.000082
C30	C	-0.433644	0.960298	-0.000095
C31	C	-0.354702	0.959035	-0.000088
C32	C	-0.752007	0.965393	-0.000125
C33	C	-0.830955	0.966651	-0.000127
C34	C	-0.849248	0.828722	-0.000104
C35	C	-0.770307	0.827459	-0.000097
C36	C	-0.721690	0.895797	-0.000117
C37	C	-0.636090	0.894427	-0.000101
C38	C	-0.567865	0.893330	-0.000088
C39	C	0.036408	0.899656	-0.000109
C40	C	0.120426	0.898317	-0.000129
C41	C	-0.096205	1.032261	-0.000107
C42	C	-0.097547	1.116279	-0.000125
N43	N	-0.101973	0.893870	0.346577
N44	N	-0.101977	0.893888	-0.346752
C45	C	-0.050448	0.945436	0.423216
C46	C	-0.050448	0.945443	0.576553
C47	C	-0.153505	0.842317	0.576598
C48	C	-0.153500	0.842306	0.423264
H49	H	-0.104018	0.520941	-0.240994
Br50	Br	-0.729157	0.733004	-0.000067
H51	H	-0.097676	0.123634	-0.241043
Br52	Br	0.019483	1.015414	0.319147
H53	H	-0.106305	0.664162	-0.240978
H54	H	-0.008491	0.987431	0.638949
Br55	Br	-0.223426	0.772314	0.319241
H56	H	-0.097659	0.123593	0.240801
H57	H	-0.099949	0.266845	-0.241026
H58	H	-0.106291	0.664118	0.240864
Br59	Br	-0.517923	0.729622	-0.000077
H60	H	-0.103984	0.520911	0.240851
Br61	Br	-0.474797	1.054751	-0.000133
Br62	Br	-0.100277	0.288234	0.312904
H63	H	-0.195458	0.800335	0.639052
H64	H	-0.888842	0.773078	-0.000093
Br65	Br	-0.331854	0.726645	-0.000013
H66	H	-0.855641	1.023328	-0.000142
H67	H	-0.712432	1.021038	-0.000132
Br68	Br	-0.288719	1.051776	-0.000115
