data_functionalizedCrystal
_audit_creation_method	'MofGen! by Chris Wilmer'
_symmetry_space_group_name_H-M	'P1'
_symmetry_Int_Tables_number	1
_symmetry_cell_setting	triclinic
loop_
_symmetry_equiv_pos_as_xyz
  x,y,z
_cell_length_a	19.288864
_cell_length_b	19.188930
_cell_length_c	18.366186
_cell_angle_alpha	89.988632
_cell_angle_beta	89.977106
_cell_angle_gamma	83.140512
loop_
_atom_site_label
_atom_site_type_symbol
_atom_site_fract_x
_atom_site_fract_y
_atom_site_fract_z
O1	O	0.921359	0.087099	-0.060791
O2	O	0.719099	0.098849	-0.060743
O3	O	0.826066	-0.008682	-0.060754
O4	O	0.814393	0.194630	-0.060780
O5	O	0.826048	-0.008687	0.060345
O6	O	0.719081	0.098843	0.060357
O7	O	0.921341	0.087094	0.060308
Zn8	Zn	0.820208	0.092968	0.079560
Zn9	Zn	0.820232	0.092975	-0.079994
O10	O	0.814374	0.194625	0.060320
C11	C	0.693214	0.098468	-0.000186
C12	C	0.616110	0.097333	-0.000167
C13	C	0.825679	-0.034696	-0.000202
C14	C	0.824544	-0.112200	-0.000196
C15	C	0.571419	0.160427	-0.000187
C16	C	0.498972	0.159361	-0.000195
C17	C	0.471219	0.095197	-0.000198
C18	C	0.515921	0.032095	-0.000174
C19	C	0.588366	0.033163	-0.000159
C20	C	0.362960	0.044759	-0.042642
C21	C	0.290515	0.043694	-0.042662
C22	C	0.247773	0.091900	-0.000241
C23	C	0.277483	0.141184	0.042190
C24	C	0.349929	0.142253	0.042205
C25	C	0.392665	0.094032	-0.000214
C26	C	0.124526	0.153843	-0.000268
C27	C	0.052078	0.152774	-0.000272
C28	C	0.069028	0.025506	-0.000259
C29	C	0.141475	0.026576	-0.000248
C30	C	0.169219	0.090747	-0.000256
C31	C	0.887309	-0.157129	-0.000207
C32	C	0.886243	-0.229953	-0.000219
C33	C	0.822408	-0.257844	-0.000204
C34	C	0.759636	-0.212906	-0.000196
C35	C	0.760704	-0.140084	-0.000192
N36	N	0.773609	-0.365847	0.041020
N37	N	0.772598	-0.435026	0.041018
C38	C	0.819187	-0.477253	-0.000218
N39	N	0.866835	-0.447689	-0.041442
N40	N	0.867847	-0.378504	-0.041436
C41	C	0.821243	-0.336807	-0.000209
C42	C	0.880800	-0.601146	-0.000243
C43	C	0.879731	-0.673971	-0.000259
C44	C	0.753122	-0.656922	-0.000229
C45	C	0.754193	-0.584099	-0.000220
C46	C	0.818034	-0.556216	-0.000224
C47	C	0.947227	0.087475	-0.000250
C48	C	1.024330	0.088609	-0.000274
C49	C	0.814762	0.220638	-0.000234
C50	C	0.815896	0.298143	-0.000245
N51	N	0.820197	0.092963	0.188451
N52	N	0.820249	0.092974	-0.188885
C53	C	0.867577	0.045371	0.226546
C54	C	0.867582	0.045368	0.302774
C55	C	0.820213	0.092968	0.340903
C56	C	0.772823	0.140563	0.302799
C57	C	0.772816	0.140560	0.226573
C58	C	0.810919	0.156585	0.461657
C59	C	0.810932	0.156589	0.537882
C60	C	0.820232	0.092977	0.576011
C61	C	0.829535	0.029359	0.537906
C62	C	0.829527	0.029356	0.461679
C63	C	0.820215	0.092977	0.423558
C64	C	0.867620	0.045378	0.696761
C65	C	0.867620	0.045374	0.772990
C66	C	0.772864	0.140576	0.773014
C67	C	0.772862	0.140574	0.696786
C68	C	0.820243	0.092976	0.658664
H69	H	0.462577	0.210742	-0.000208
H70	H	0.709591	-0.103502	-0.000183
H71	H	0.707661	-0.235620	-0.000186
C72	C	0.919689	-0.006990	0.184610
C73	C	0.971806	-0.059346	0.226517
C74	C	1.023915	-0.111708	0.184577
C75	C	1.023906	-0.111714	0.100731
C76	C	0.971787	-0.059356	0.058820
C77	C	0.919678	-0.006994	0.100759
H78	H	0.971814	-0.059344	0.288589
H79	H	1.062497	-0.150467	0.215604
H80	H	1.062481	-0.150476	0.069685
H81	H	0.971779	-0.059359	-0.003252
H82	H	0.881096	0.031765	0.069733
H83	H	0.734232	0.179316	0.195555
H84	H	0.266331	0.003566	-0.077215
C85	C	0.685149	-0.534674	-0.000195
C86	C	0.632784	-0.537640	-0.063064
C87	C	0.563736	-0.488215	-0.063041
C88	C	0.547053	-0.435824	-0.000149
C89	C	0.599419	-0.432855	0.062725
C90	C	0.668467	-0.482280	0.062702
H91	H	0.645133	-0.576426	-0.109625
H92	H	0.524972	-0.490413	-0.109584
H93	H	0.495940	-0.399236	-0.000131
H94	H	0.587071	-0.394069	0.109286
H95	H	0.707232	-0.480082	0.109245
H96	H	0.397755	0.005502	-0.077191
H97	H	0.932783	-0.578442	-0.000249
H98	H	0.734293	0.179330	0.804059
H99	H	0.930844	-0.710552	-0.000272
H100	H	0.906166	0.006612	0.333797
C101	C	0.955287	-0.279386	-0.000224
C102	C	1.025508	-0.248716	-0.000226
C103	C	1.094552	-0.298147	-0.000229
C104	C	1.093376	-0.378248	-0.000230
C105	C	1.023152	-0.408922	-0.000228
C106	C	0.954108	-0.359491	-0.000225
H107	H	1.026381	-0.189416	-0.000226
H108	H	1.146536	-0.275439	-0.000231
H109	H	1.144486	-0.414840	-0.000232
H110	H	1.022279	-0.468222	-0.000228
H111	H	0.902124	-0.382199	-0.000223
C112	C	0.485397	-0.038487	-0.000180
C113	C	0.405710	-0.039665	-0.000202
C114	C	0.375187	-0.110250	-0.000203
C115	C	0.424352	-0.179656	-0.000183
C116	C	0.504043	-0.178480	-0.000161
C117	C	0.534566	-0.107896	-0.000159
H118	H	0.369311	0.011716	-0.000217
H119	H	0.316194	-0.111119	-0.000219
H120	H	0.401757	-0.231906	-0.000184
H121	H	0.540442	-0.229861	-0.000145
H122	H	0.593559	-0.107026	-0.000143
H123	H	0.147116	0.206094	-0.000264
C124	C	0.190640	-0.042830	-0.000236
C125	C	0.242739	-0.059602	0.062660
C126	C	0.291903	-0.129013	0.062675
C127	C	0.288969	-0.181651	-0.000206
C128	C	0.236867	-0.164880	-0.063107
C129	C	0.187703	-0.095470	-0.063122
H130	H	0.244913	-0.020635	0.109213
H131	H	0.330472	-0.141427	0.109239
H132	H	0.325363	-0.233033	-0.000194
H133	H	0.234693	-0.203848	-0.109659
H134	H	0.149134	-0.083055	-0.109685
C135	C	0.839746	-0.040619	0.419763
C136	C	0.849973	-0.110595	0.461692
C137	C	0.860186	-0.180571	0.419775
C138	C	0.860172	-0.180571	0.335929
C139	C	0.849945	-0.110593	0.293995
C140	C	0.839732	-0.040617	0.335912
H141	H	0.849984	-0.110598	0.523764
H142	H	0.867757	-0.232374	0.450818
H143	H	0.867733	-0.232372	0.304900
H144	H	0.849935	-0.110591	0.231923
H145	H	0.832161	0.011186	0.304869
C146	C	0.720749	0.192932	0.654875
C147	C	0.668660	0.245313	0.696809
C148	C	0.616544	0.297671	0.654896
C149	C	0.616516	0.297649	0.571050
C150	C	0.668606	0.245266	0.529112
C151	C	0.720723	0.192908	0.571024
H152	H	0.668679	0.245331	0.758881
H153	H	0.577983	0.336449	0.685943
H154	H	0.577936	0.336408	0.540025
H155	H	0.668587	0.245248	0.467040
H156	H	0.759284	0.154130	0.539978
C157	C	0.800707	0.226567	0.579794
C158	C	0.800725	0.226574	0.663640
C159	C	0.790503	0.296554	0.705550
C160	C	0.780263	0.366525	0.663615
C161	C	0.780245	0.366521	0.579764
C162	C	0.790467	0.296541	0.537854
H163	H	0.808305	0.174774	0.694688
H164	H	0.790516	0.296557	0.767623
H165	H	0.772696	0.418328	0.694639
H166	H	0.772665	0.418320	0.548716
H167	H	0.790453	0.296538	0.475782
C168	C	0.839780	-0.040633	0.579815
C169	C	0.907113	-0.091416	0.569284
C170	C	0.917367	-0.161411	0.611186
C171	C	0.860287	-0.180622	0.663619
C172	C	0.792950	-0.129838	0.674152
C173	C	0.782696	-0.059843	0.632250
H174	H	0.949370	-0.077196	0.530468
H175	H	0.967215	-0.199005	0.603389
H176	H	0.867878	-0.232436	0.694637
H177	H	0.750692	-0.144058	0.712968
H178	H	0.732848	-0.022249	0.640047
C179	C	0.382612	0.196456	0.088881
C180	C	0.335608	0.249486	0.135546
C181	C	0.368291	0.303687	0.182225
C182	C	0.447978	0.304859	0.182240
C183	C	0.494987	0.251827	0.135574
C184	C	0.462304	0.197626	0.088895
H185	H	0.276614	0.248620	0.135536
H186	H	0.333491	0.342945	0.216771
H187	H	0.472173	0.344983	0.216795
H188	H	0.553981	0.252693	0.135584
H189	H	0.497104	0.158368	0.054349
H190	H	0.803333	0.208389	0.430619
H191	H	0.701147	-0.679631	-0.000221
H192	H	0.906199	0.006619	0.665721
H193	H	0.594003	0.212680	-0.000195
H194	H	0.046433	-0.026738	-0.000306
H195	H	0.242684	0.180439	0.076733
H196	H	0.906200	0.006616	0.804008
H197	H	0.015690	0.204155	-0.000283
H198	H	0.734253	0.179319	0.333848
H199	H	0.624755	-0.018218	-0.000144
H200	H	0.939293	-0.134431	-0.000213
