data_functionalizedCrystal
_audit_creation_method	'MofGen! by Chris Wilmer'
_symmetry_space_group_name_H-M	'P1'
_symmetry_Int_Tables_number	1
_symmetry_cell_setting	triclinic
loop_
_symmetry_equiv_pos_as_xyz
  x,y,z
_cell_length_a	16.974800
_cell_length_b	15.944551
_cell_length_c	15.455313
_cell_angle_alpha	92.664316
_cell_angle_beta	90.973911
_cell_angle_gamma	83.444312
loop_
_atom_site_label
_atom_site_type_symbol
_atom_site_fract_x
_atom_site_fract_y
_atom_site_fract_z
O1	O	1.049080	0.107075	0.001537
O2	O	0.819648	0.119903	-0.014576
O3	O	0.940629	-0.008771	-0.006072
O4	O	0.928099	0.235749	-0.006967
O5	O	0.933711	-0.001443	0.137704
O6	O	0.812730	0.127230	0.129200
O7	O	1.042162	0.114403	0.145313
Cu8	Cu	0.926814	0.121486	0.150384
Cu9	Cu	0.934996	0.112820	-0.019647
O10	O	0.921181	0.243077	0.136809
C11	C	0.786830	0.122944	0.055250
C12	C	0.699348	0.121081	0.049106
C13	C	0.654483	0.124197	0.124594
C14	C	0.572286	0.122433	0.118824
C15	C	0.534955	0.117557	0.037565
C16	C	0.579827	0.114438	-0.037929
C17	C	0.662023	0.116197	-0.032158
C18	C	0.289530	0.111864	0.011901
C19	C	0.207328	0.110108	0.006135
C20	C	0.199793	0.118101	0.162889
C21	C	0.281990	0.119865	0.168652
C22	C	0.326855	0.116741	0.093159
N23	N	0.450937	0.115756	0.031665
N24	N	0.410873	0.118536	0.099060
C25	C	0.936650	-0.036402	0.065780
C26	C	0.935090	-0.129652	0.065671
C27	C	0.856373	-0.344691	0.060130
C28	C	0.889516	-0.402011	0.133588
C29	C	0.932269	-0.300385	0.065466
C30	C	0.896355	-0.409219	-0.008163
C31	C	0.929539	-0.465304	0.065264
C32	C	0.965430	-0.356473	0.138983
C33	C	0.972261	-0.363678	-0.002831
C34	C	1.005458	-0.420980	0.070647
C35	C	0.933840	-0.205378	0.065583
C36	C	0.927974	-0.560309	0.065154
C37	C	1.074981	0.111361	0.075485
C38	C	1.162463	0.113225	0.081623
C39	C	0.925161	0.270708	0.064955
C40	C	0.926720	0.363957	0.065059
N41	N	0.921066	0.127580	0.269976
N42	N	0.940751	0.106719	-0.139238
C43	C	0.972480	0.072935	0.318984
C44	C	0.968140	0.077552	0.409487
C45	C	0.912388	0.136819	0.450980
C46	C	0.860968	0.191466	0.401965
C47	C	0.865305	0.186845	0.311463
C48	C	0.893668	0.156744	0.721245
C49	C	0.889336	0.161364	0.811753
C50	C	0.996508	0.047448	0.819269
C51	C	1.000843	0.042835	0.728766
C52	C	0.949420	0.097480	0.679759
N53	N	0.907952	0.141541	0.543488
N54	N	0.953853	0.092753	0.587252
H55	H	0.163255	0.120643	0.224351
H56	H	0.815570	0.239720	0.435753
F57	F	0.694204	0.129392	0.211082
H58	H	1.007219	-0.346529	-0.060514
H59	H	0.994617	-0.333351	0.201234
H60	H	0.535761	0.124957	0.180294
F61	F	1.087869	-0.464130	0.076485
H62	H	1.010005	0.033056	0.449389
H63	H	0.823437	0.231341	0.271561
H64	H	1.017883	0.024678	0.285207
F65	F	0.321713	0.125058	0.255139
H66	H	1.046241	-0.005424	0.694985
H67	H	0.176936	0.106140	-0.060039
F68	F	0.838942	0.214903	0.669095
H69	H	0.326050	0.109317	-0.049571
F70	F	0.709773	0.112876	-0.112502
F71	F	0.540098	0.109223	-0.124411
F72	F	0.774027	-0.301341	0.054435
H73	H	0.854531	-0.419138	0.191265
H74	H	1.038373	0.002958	0.859179
H75	H	0.867128	-0.432424	-0.070354
F76	F	0.829994	0.224449	0.855907
