data_functionalizedCrystal
_audit_creation_method	'MofGen! by Chris Wilmer'
_symmetry_space_group_name_H-M	'P1'
_symmetry_Int_Tables_number	1
_symmetry_cell_setting	triclinic
loop_
_symmetry_equiv_pos_as_xyz
  x,y,z
_cell_length_a	17.699077
_cell_length_b	10.654541
_cell_length_c	16.776229
_cell_angle_alpha	89.993604
_cell_angle_beta	89.993415
_cell_angle_gamma	83.882252
loop_
_atom_site_label
_atom_site_type_symbol
_atom_site_fract_x
_atom_site_fract_y
_atom_site_fract_z
O1	O	1.005090	0.158773	-0.066277
O2	O	1.505090	0.658773	0.433723
O3	O	0.784842	0.179442	-0.066281
O4	O	1.284842	0.679442	0.433719
O5	O	0.900031	-0.013721	-0.066274
O6	O	1.400031	0.486279	0.433726
O7	O	0.889901	0.351936	-0.066284
O8	O	1.389901	0.851936	0.433716
O9	O	0.900015	-0.013732	0.066302
O10	O	1.400015	0.486268	0.566302
O11	O	0.784827	0.179431	0.066295
O12	O	1.284827	0.679431	0.566295
O13	O	1.005074	0.158761	0.066299
O14	O	1.505074	0.658761	0.566299
Zn15	Zn	0.894948	0.169094	0.087347
Zn16	Zn	1.394948	0.669094	0.587347
Zn17	Zn	0.894969	0.169110	-0.087329
Zn18	Zn	1.394969	0.669110	0.412671
O19	O	0.889886	0.351924	0.066292
O20	O	1.389886	0.851924	0.566292
C21	C	0.756633	0.178697	0.000007
C22	C	1.256633	0.678697	0.500007
C23	C	0.672600	0.176479	0.000005
C24	C	1.172600	0.676479	0.500005
C25	C	0.899280	-0.060511	0.000014
C26	C	1.399280	0.439489	0.500014
C27	C	0.897056	-0.199916	0.000012
C28	C	1.397056	0.300084	0.500012
C29	C	0.633118	0.175428	0.072274
C30	C	1.133118	0.675428	0.572274
C31	C	0.554162	0.173323	0.072274
C32	C	1.054162	0.673323	0.572274
C33	C	0.514689	0.172280	0.000006
C34	C	1.014689	0.672280	0.500006
C35	C	0.554178	0.173328	-0.072268
C36	C	1.054178	0.673328	0.427732
C37	C	0.633133	0.175423	-0.072268
C38	C	1.133133	0.675423	0.427732
C39	C	0.235761	0.164877	-0.072269
C40	C	0.735761	0.664877	0.427731
C41	C	0.156800	0.162785	-0.072263
C42	C	0.656800	0.662785	0.427737
C43	C	0.156790	0.162777	0.072273
C44	C	0.656790	0.662777	0.572273
C45	C	0.235745	0.164872	0.072273
C46	C	0.735745	0.664872	0.572273
C47	C	0.275227	0.165913	-0.000000
C48	C	0.775227	0.665913	0.500000
C49	C	0.360840	0.168193	-0.000000
C50	C	0.860840	0.668193	0.500000
C51	C	0.429077	0.170010	0.000006
C52	C	0.929077	0.670010	0.500006
C53	C	1.034795	-0.230303	0.000025
C54	C	1.534795	0.269697	0.500025
C55	C	1.102617	-0.310987	0.000033
C56	C	1.602617	0.189013	0.500033
C57	C	1.100522	-0.441968	0.000030
C58	C	1.600522	0.058032	0.500030
C59	C	1.030599	-0.492267	0.000017
C60	C	1.530599	0.007733	0.500017
C61	C	0.962777	-0.411583	0.000009
C62	C	1.462777	0.088417	0.500009
C63	C	0.964879	-0.280600	0.000014
C64	C	1.464879	0.219400	0.500014
C65	C	0.825039	-0.381196	-0.000009
C66	C	1.325039	0.118804	0.499991
C67	C	0.827132	-0.250215	-0.000001
C68	C	1.327132	0.249785	0.499999
C69	C	0.755116	-0.431495	-0.000022
C70	C	1.255116	0.068505	0.499978
C71	C	0.687292	-0.350811	-0.000024
C72	C	1.187292	0.149189	0.499976
C73	C	0.689390	-0.219822	-0.000020
C74	C	1.189390	0.280178	0.499980
C75	C	0.759310	-0.169531	-0.000008
C76	C	1.259310	0.330469	0.499992
C77	C	1.033284	0.159507	0.000010
C78	C	1.533284	0.659507	0.500010
C79	C	1.117316	0.161725	0.000006
C80	C	1.617316	0.661725	0.500006
C81	C	0.890637	0.398715	0.000003
C82	C	1.390637	0.898715	0.500003
C83	C	0.892861	0.538120	-0.000001
C84	C	1.392861	1.038120	0.499999
N85	N	0.894940	0.169083	0.206558
N86	N	1.394940	0.669083	0.706558
N87	N	0.894983	0.169111	-0.206540
N88	N	1.394983	0.669111	0.293460
C89	C	0.945961	0.083585	0.248278
C90	C	1.445961	0.583585	0.748278
C91	C	0.945965	0.083584	0.331730
C92	C	1.445965	0.583584	0.831730
C93	C	0.894951	0.169088	0.373461
C94	C	1.394951	0.669088	0.873461
C95	C	0.843924	0.254589	0.331735
C96	C	1.343924	0.754589	0.831735
C97	C	0.843917	0.254583	0.248284
C98	C	1.343917	0.754583	0.748284
C99	C	0.843952	0.254614	0.668282
C100	C	1.343952	0.754614	1.168282
C101	C	0.843964	0.254616	0.751739
C102	C	1.343964	0.754616	1.251739
C103	C	0.946000	0.083615	0.751728
C104	C	1.446000	0.583615	1.251728
C105	C	0.945993	0.083609	0.668277
C106	C	1.445993	0.583609	1.168277
C107	C	0.894964	0.169105	0.626559
C108	C	1.394964	0.669105	1.126559
C109	C	0.894959	0.169104	0.536070
C110	C	1.394959	0.669104	1.036070
C111	C	0.894959	0.169096	0.463948
C112	C	1.394959	0.669096	0.963948
H113	H	0.665250	0.176288	0.131123
H114	H	1.165250	0.676288	0.631123
H115	H	0.124635	0.161924	0.131122
H116	H	0.624635	0.661924	0.631122
C117	C	0.611818	-0.054908	0.068122
C118	C	1.111818	0.445092	0.568122
C119	C	0.614837	-0.131135	-0.000031
C120	C	1.114837	0.368865	0.499969
H121	H	0.565793	-0.000156	0.068111
H122	H	1.065793	0.499844	0.568111
H123	H	0.613848	-0.106647	0.114344
H124	H	1.113848	0.393353	0.614344
H125	H	0.653760	-0.006209	0.068123
H126	H	1.153760	0.493791	0.568123
H127	H	0.572898	-0.179842	-0.000029
H128	H	1.072898	0.320158	0.499971
H129	H	0.612800	-0.079390	-0.046265
H130	H	1.112800	0.420610	0.453735
C131	C	0.724832	0.026385	-0.068159
C132	C	1.224832	0.526385	0.431841
C133	C	0.761614	-0.025554	-0.000003
C134	C	1.261614	0.474446	0.499997
H135	H	0.726253	0.115271	-0.068152
H136	H	1.226253	0.615271	0.431848
H137	H	0.749808	-0.008844	-0.114379
H138	H	1.249808	0.491156	0.385621
H139	H	0.673485	0.007970	-0.068160
H140	H	1.173485	0.507970	0.431840
H141	H	0.812962	-0.007147	-0.000005
H142	H	1.312962	0.492853	0.499995
H143	H	0.736640	0.009688	0.046229
H144	H	1.236640	0.509688	0.546229
H145	H	0.267897	0.165721	-0.131118
H146	H	0.767897	0.665721	0.368882
H147	H	0.267879	0.165728	0.131121
H148	H	0.767879	0.665728	0.631121
H149	H	0.802420	0.324245	0.785714
H150	H	1.302420	0.824245	1.285714
C151	C	0.714637	-0.610841	-0.068190
C152	C	1.214637	-0.110841	0.431810
C153	C	0.752814	-0.575472	-0.000029
C154	C	1.252814	-0.075472	0.499971
H155	H	0.713220	-0.699728	-0.068194
H156	H	1.213220	-0.199728	0.431806
H157	H	0.664244	-0.569995	-0.068191
H158	H	1.164244	-0.069995	0.431809
H159	H	0.740566	-0.586804	-0.114411
H160	H	1.240566	-0.086804	0.385589
H161	H	0.726882	-0.599500	0.046193
H162	H	1.226882	-0.099500	0.546193
H163	H	0.803215	-0.616333	-0.000021
H164	H	1.303215	-0.116333	0.499979
C165	C	1.048782	0.056027	0.154368
C166	C	1.548782	0.556027	0.654368
C167	C	1.002003	-0.010435	0.202391
C168	C	1.502003	0.489565	0.702391
H169	H	1.083371	-0.002032	0.126039
H170	H	1.583371	0.497968	0.626039
H171	H	1.018395	0.106964	0.117596
H172	H	1.518395	0.606964	0.617596
H173	H	1.076315	0.108208	0.186906
H174	H	1.576315	0.608208	0.686906
H175	H	0.974466	-0.062609	0.169853
H176	H	1.474466	0.437391	0.669853
H177	H	1.032394	-0.061394	0.239168
H178	H	1.532394	0.438606	0.739168
C179	C	1.238560	-0.354178	0.000041
C180	C	1.738560	0.145822	0.500041
C181	C	1.179475	-0.255698	0.000041
C182	C	1.679475	0.244302	0.500041
H183	H	1.286008	-0.320045	0.000038
H184	H	1.786008	0.179955	0.500038
H185	H	1.234871	-0.404637	0.046271
H186	H	1.734871	0.095363	0.546271
H187	H	1.234878	-0.404628	-0.046194
H188	H	1.734878	0.095372	0.453806
H189	H	1.183154	-0.205253	0.046279
H190	H	1.683154	0.294747	0.546279
H191	H	1.183167	-0.205218	-0.046194
H192	H	1.683167	0.294782	0.453806
C193	C	0.457451	0.278899	-0.156122
C194	C	0.957451	0.778899	0.343878
C195	C	0.510790	0.172186	-0.151707
C196	C	1.010790	0.672186	0.348293
H197	H	0.430670	0.278198	-0.205168
H198	H	0.930670	0.778198	0.294832
H199	H	0.422640	0.277963	-0.113086
H200	H	0.922640	0.777963	0.386914
H201	H	0.482872	0.352908	-0.153119
H202	H	0.982872	0.852908	0.346881
H203	H	0.485368	0.098176	-0.154704
H204	H	0.985368	0.598176	0.345296
H205	H	0.545606	0.173110	-0.194755
H206	H	1.045606	0.673110	0.305245
C207	C	0.743053	0.423606	0.323357
C208	C	1.243053	0.923606	0.823357
C209	C	0.787842	0.348570	0.377602
C210	C	1.287842	0.848570	0.877602
H211	H	0.708426	0.481620	0.351674
H212	H	1.208426	0.981620	0.851674
H213	H	0.774785	0.468715	0.290799
H214	H	1.274785	0.968715	0.790799
H215	H	0.715561	0.371367	0.290817
H216	H	1.215561	0.871367	0.790817
H217	H	0.815339	0.400807	0.410138
H218	H	1.315339	0.900807	0.910138
H219	H	0.756105	0.303457	0.410173
H220	H	1.256105	0.803457	0.910173
C221	C	1.065112	-0.688144	-0.068145
C222	C	1.565112	-0.188144	0.431855
C223	C	1.028299	-0.636244	0.000006
C224	C	1.528299	-0.136244	0.500006
H225	H	1.063695	-0.777030	-0.068148
H226	H	1.563695	-0.277030	0.431852
H227	H	1.040154	-0.652891	-0.114368
H228	H	1.540154	-0.152891	0.385632
H229	H	1.116457	-0.669723	-0.068130
H230	H	1.616457	-0.169723	0.431870
H231	H	0.976952	-0.654657	-0.000011
H232	H	1.476952	-0.154657	0.499989
H233	H	1.053255	-0.671509	0.046241
H234	H	1.553255	-0.171509	0.546241
H235	H	0.665278	0.176282	-0.131116
H236	H	1.165278	0.676282	0.368884
H237	H	0.802403	0.324230	0.634321
H238	H	1.302403	0.824230	1.134321
C239	C	1.178051	-0.606920	0.068188
C240	C	1.678051	-0.106920	0.568188
C241	C	1.175070	-0.530666	0.000037
C242	C	1.675070	-0.030666	0.500037
H243	H	1.224072	-0.661682	0.068188
H244	H	1.724072	-0.161682	0.568188
H245	H	1.176004	-0.555199	0.114412
H246	H	1.676004	-0.055199	0.614412
H247	H	1.136104	-0.655608	0.068174
H248	H	1.636104	-0.155608	0.568174
H249	H	1.217015	-0.481970	0.000054
H250	H	1.717015	0.018030	0.500054
H251	H	1.177125	-0.582393	-0.046199
H252	H	1.677125	-0.082393	0.453801
H253	H	0.987510	0.013965	0.365698
H254	H	1.487510	0.513965	0.865698
C255	C	1.112791	-0.059216	0.000048
C256	C	1.612791	0.440784	0.500048
C257	C	1.037099	-0.086326	0.000034
C258	C	1.537099	0.413674	0.500034
H259	H	1.114213	0.029670	0.000049
H260	H	1.614213	0.529670	0.500049
H261	H	1.137733	-0.094466	0.046280
H262	H	1.637733	0.405534	0.546280
H263	H	1.137758	-0.094450	-0.046185
H264	H	1.637758	0.405550	0.453815
H265	H	1.012134	-0.051100	0.046270
H266	H	1.512134	0.448900	0.546270
H267	H	1.012147	-0.051061	-0.046203
H268	H	1.512147	0.448939	0.453797
C269	C	1.046849	-0.085435	0.676651
C270	C	1.546849	0.414565	1.176651
C271	C	1.002067	-0.010383	0.622408
C272	C	1.502067	0.489617	1.122408
H273	H	1.081462	-0.143470	0.648333
H274	H	1.581462	0.356530	1.148333
H275	H	1.074349	-0.033219	0.709185
H276	H	1.574349	0.466781	1.209185
H277	H	1.015105	-0.130533	0.709215
H278	H	1.515105	0.369467	1.209215
H279	H	1.033810	0.034722	0.589848
H280	H	1.533810	0.534722	1.089848
H281	H	0.974564	-0.062607	0.589861
H282	H	1.474564	0.437393	1.089861
H283	H	0.124663	0.161935	-0.131116
H284	H	0.624663	0.661935	0.368884
H285	H	0.630366	-0.391776	-0.000039
H286	H	1.130366	0.108224	0.499961
C287	C	0.828375	0.425517	0.154416
C288	C	1.328375	0.925517	0.654416
C289	C	0.787835	0.348566	0.202419
C290	C	1.287835	0.848566	0.702419
H291	H	0.793748	0.483531	0.126099
H292	H	1.293748	0.983531	0.626099
H293	H	0.860107	0.470628	0.186959
H294	H	1.360107	0.970628	0.686959
H295	H	0.858753	0.374578	0.117626
H296	H	1.358753	0.874578	0.617626
H297	H	0.757461	0.399505	0.239214
H298	H	1.257461	0.899505	0.739214
H299	H	0.756090	0.303452	0.169874
H300	H	1.256090	0.803452	0.669874
C301	C	0.562081	0.173554	0.215146
C302	C	1.062081	0.673554	0.715146
C303	C	0.510762	0.172180	0.151714
C304	C	1.010762	0.672180	0.651714
H305	H	0.535285	0.172856	0.264190
H306	H	1.035285	0.672856	0.764190
H307	H	0.598266	0.101173	0.212147
H308	H	1.098266	0.601173	0.712147
H309	H	0.587486	0.247580	0.212125
H310	H	1.087486	0.747580	0.712125
H311	H	0.485361	0.098149	0.154732
H312	H	0.985361	0.598149	0.654732
H313	H	0.474564	0.244569	0.154715
H314	H	0.974564	0.744569	0.654715
C315	C	0.961545	-0.087345	0.845582
C316	C	1.461545	0.412655	1.345582
C317	C	1.002086	-0.010381	0.797588
C318	C	1.502086	0.489619	1.297588
H319	H	0.996171	-0.145374	0.873888
H320	H	1.496171	0.354626	1.373888
H321	H	0.931171	-0.036424	0.882374
H322	H	1.431171	0.463576	1.382374
H323	H	0.929808	-0.132448	0.813027
H324	H	1.429808	0.367552	1.313027
H325	H	1.033819	0.034729	0.830144
H326	H	1.533819	0.534729	1.330144
H327	H	1.032473	-0.061308	0.760792
H328	H	1.532473	0.438692	1.260792
