data_functionalizedCrystal
_audit_creation_method	'MofGen! by Chris Wilmer'
_symmetry_space_group_name_H-M	'P1'
_symmetry_Int_Tables_number	1
_symmetry_cell_setting	triclinic
loop_
_symmetry_equiv_pos_as_xyz
  x,y,z
_cell_length_a	18.215407
_cell_length_b	12.759400
_cell_length_c	18.215399
_cell_angle_alpha	89.974163
_cell_angle_beta	89.983176
_cell_angle_gamma	90.013614
loop_
_atom_site_label
_atom_site_type_symbol
_atom_site_fract_x
_atom_site_fract_y
_atom_site_fract_z
Zn1	Zn	1.125110	-0.418240	-0.416139
Zn2	Zn	1.125050	-0.593944	-0.293082
Zn3	Zn	1.002049	-0.418281	-0.293086
Zn4	Zn	1.002034	-0.593878	-0.416107
O5	O	1.063561	-0.506086	-0.354604
O6	O	1.228086	-0.441557	-0.399827
O7	O	1.108715	-0.570687	-0.190099
O8	O	1.018405	-0.271255	-0.309424
O9	O	1.228042	-0.570647	-0.309418
O10	O	1.108817	-0.271224	-0.399831
O11	O	1.018347	-0.441628	-0.190102
O12	O	0.899063	-0.441565	-0.309394
O13	O	1.018379	-0.570534	-0.519096
O14	O	0.899051	-0.570575	-0.399777
O15	O	1.108802	-0.441493	-0.519119
O16	O	1.108700	-0.740957	-0.309387
O17	O	1.018321	-0.740908	-0.399773
C18	C	0.872354	-0.506068	-0.354583
C19	C	0.790556	-0.506085	-0.354591
C20	C	0.602375	-0.573367	-0.401594
C21	C	0.525516	-0.573370	-0.401604
C22	C	0.525498	-0.438824	-0.307629
C23	C	0.602356	-0.438816	-0.307624
C24	C	0.640792	-0.506094	-0.354606
C25	C	0.487076	-0.506105	-0.354620
C26	C	0.403742	-0.506108	-0.354630
C27	C	0.724131	-0.506089	-0.354597
C28	C	1.063522	-0.779053	-0.354592
C29	C	1.063573	-0.895830	-0.354612
C30	C	1.110627	-0.950596	-0.401725
C31	C	1.110661	-1.060320	-0.401743
C32	C	1.016585	-1.060502	-0.307528
C33	C	1.016548	-0.950780	-0.307515
C34	C	1.157652	-0.895646	-0.448822
C35	C	1.204711	-0.950413	-0.495938
C36	C	1.204745	-1.060137	-0.495956
C37	C	1.157721	-1.115094	-0.448858
C38	C	1.255514	-0.506105	-0.354625
C39	C	1.337312	-0.506113	-0.354635
C40	C	1.063595	-0.506002	-0.546557
C41	C	1.063610	-0.505966	-0.628356
C42	C	1.063620	-0.232053	-0.354632
C43	C	1.063645	-0.115276	-0.354643
C44	C	1.016595	-0.438720	-0.816552
C45	C	1.016608	-0.438699	-0.893411
C46	C	1.110713	-0.573087	-0.893397
C47	C	1.110696	-0.573113	-0.816540
C48	C	1.063638	-0.505923	-0.778119
C49	C	1.063668	-0.505876	-0.931835
C50	C	1.063682	-0.505854	-1.015169
C51	C	1.063623	-0.505947	-0.694780
C52	C	1.063568	-0.506094	-0.163398
C53	C	1.063696	-0.505833	-0.081599
H54	H	1.157631	-0.806303	-0.448811
C55	C	0.644656	-0.647361	-0.453278
C56	C	0.634070	-0.766788	-0.447140
C57	C	0.676349	-0.840782	-0.498827
C58	C	0.729214	-0.795349	-0.556652
C59	C	0.739802	-0.675916	-0.562793
C60	C	0.697523	-0.601922	-0.511106
H61	H	0.594935	-0.800426	-0.404332
H62	H	0.668511	-0.929194	-0.494281
H63	H	0.760511	-0.850124	-0.594914
H64	H	0.778938	-0.642278	-0.605601
H65	H	0.705362	-0.513510	-0.515652
H66	H	1.157744	-1.204439	-0.448885
H67	H	0.978301	-1.105257	-0.269183
H68	H	1.242992	-0.905660	-0.534289
C69	C	0.483257	-0.647375	-0.453290
C70	C	0.525539	-0.721372	-0.504967
C71	C	0.483280	-0.795378	-0.556657
C72	C	0.398740	-0.795387	-0.556671
C73	C	0.356454	-0.721387	-0.504993
C74	C	0.398713	-0.647381	-0.453303
H75	H	0.588125	-0.721368	-0.504958
H76	H	0.514584	-0.850158	-0.594913
H77	H	0.367458	-0.850171	-0.594936
H78	H	0.293868	-0.721391	-0.505002
H79	H	0.367409	-0.592601	-0.415047
C80	C	0.964791	-0.890528	-0.255688
C81	C	0.913073	-0.950966	-0.203875
C82	C	0.861313	-0.890714	-0.152050
C83	C	0.861271	-0.770024	-0.152037
C84	C	0.912991	-0.709580	-0.203852
C85	C	0.964751	-0.769832	-0.255677
H86	H	0.913102	-1.040314	-0.203883
H87	H	0.823026	-0.935460	-0.113693
H88	H	0.822955	-0.725422	-0.113673
H89	H	0.912962	-0.620232	-0.203845
H90	H	1.003038	-0.725086	-0.294034
H91	H	0.978300	-0.383976	-0.924700
H92	H	0.978278	-0.384010	-0.785272
C93	C	1.162481	-0.646984	-0.935662
C94	C	1.162506	-0.646955	-1.020202
C95	C	1.214277	-0.720851	-1.062464
C96	C	1.266023	-0.794776	-1.020187
C97	C	1.266000	-0.794808	-0.935642
C98	C	1.214229	-0.720912	-0.893379
H99	H	1.124199	-0.592229	-1.051502
H100	H	1.214294	-0.720828	-1.125050
H101	H	1.304347	-0.849479	-1.051472
H102	H	1.304307	-0.849534	-0.904341
H103	H	1.214212	-0.720936	-0.830794
C104	C	0.483217	-0.364830	-0.255945
C105	C	0.398677	-0.364840	-0.255944
C106	C	0.356397	-0.290847	-0.204257
C107	C	0.398657	-0.216846	-0.152571
C108	C	0.483202	-0.216833	-0.152570
C109	C	0.525481	-0.290826	-0.204257
H110	H	0.367389	-0.419623	-0.294207
H111	H	0.293811	-0.290857	-0.204258
H112	H	0.367359	-0.162072	-0.114309
H113	H	0.514489	-0.162050	-0.114307
H114	H	0.588067	-0.290817	-0.204256
C115	C	1.256504	-1.120382	-0.547784
C116	C	1.308227	-1.059934	-0.599587
C117	C	1.359991	-1.120177	-0.651414
C118	C	1.360032	-1.240867	-0.651438
C119	C	1.308308	-1.301321	-0.599632
C120	C	1.256544	-1.241078	-0.547806
H121	H	1.308198	-0.970586	-0.599572
H122	H	1.398280	-1.075424	-0.689764
H123	H	1.398351	-1.285462	-0.689803
H124	H	1.308337	-1.390669	-0.599648
H125	H	1.218254	-1.285831	-0.509456
C126	C	0.644619	-0.364814	-0.255929
C127	C	0.634068	-0.245388	-0.262070
C128	C	0.676331	-0.171388	-0.210379
C129	C	0.729144	-0.216812	-0.152547
C130	C	0.739697	-0.336244	-0.146405
C131	C	0.697434	-0.410244	-0.198096
H132	H	0.594971	-0.211757	-0.304882
H133	H	0.668519	-0.082977	-0.214926
H134	H	0.760429	-0.162033	-0.114283
H135	H	0.778794	-0.369875	-0.103592
H136	H	0.705246	-0.498656	-0.193548
H137	H	1.149006	-0.627842	-0.785247
