data_functionalizedCrystal
_audit_creation_method	'MofGen! by Chris Wilmer'
_symmetry_space_group_name_H-M	'P1'
_symmetry_Int_Tables_number	1
_symmetry_cell_setting	triclinic
loop_
_symmetry_equiv_pos_as_xyz
  x,y,z
_cell_length_a	9.065218
_cell_length_b	13.596369
_cell_length_c	9.065218
_cell_angle_alpha	90.004126
_cell_angle_beta	85.015885
_cell_angle_gamma	90.005377
loop_
_atom_site_label
_atom_site_type_symbol
_atom_site_fract_x
_atom_site_fract_y
_atom_site_fract_z
O1	O	1.960403	0.081790	0.216359
O2	O	2.460403	0.581790	0.716359
O3	O	1.531118	0.081791	0.234106
O4	O	2.031118	0.581791	0.734106
O5	O	1.754634	0.081788	0.010590
O6	O	2.254634	0.581788	0.510590
O7	O	1.736887	0.081792	0.439875
O8	O	2.236887	0.581792	0.939875
O9	O	1.754611	-0.081795	0.010578
O10	O	2.254611	0.418205	0.510578
O11	O	1.531096	-0.081792	0.234094
O12	O	2.031096	0.418208	0.734094
O13	O	1.960380	-0.081793	0.216347
O14	O	2.460380	0.418207	0.716347
Zn15	Zn	1.745734	-0.107765	0.225218
Zn16	Zn	2.245734	0.392235	0.725218
Zn17	Zn	1.745764	0.107762	0.225235
Zn18	Zn	2.245764	0.607762	0.725235
O19	O	1.736865	-0.081791	0.439863
O20	O	2.236865	0.418209	0.939863
C21	C	1.476120	-0.000001	0.232394
C22	C	1.976120	0.499999	0.732394
C23	C	1.312277	-0.000000	0.227294
C24	C	1.812277	0.500000	0.727294
N25	N	1.745725	-0.254857	0.225207
N26	N	2.245725	0.245143	0.725207
C27	C	1.745762	-0.656148	0.225236
C28	C	2.245762	-0.156148	0.725236
C29	C	1.745748	-0.544497	0.225233
C30	C	2.245748	-0.044497	0.725233
C31	C	1.745744	-0.455506	0.225222
C32	C	2.245744	0.044494	0.725222
C33	C	1.745728	-0.343848	0.225217
C34	C	2.245728	0.156152	0.725217
C35	C	2.015378	0.000000	0.218059
C36	C	2.515378	0.500000	0.718059
C37	C	2.179221	0.000006	0.223158
C38	C	2.679221	0.500006	0.723158
C39	C	1.752917	-0.000002	-0.044403
C40	C	2.252917	0.499998	0.455597
C41	C	1.747817	0.000003	-0.208245
C42	C	2.247817	0.500003	0.291755
N43	N	1.745785	0.254854	0.225235
N44	N	2.245785	0.754854	0.725235
C45	C	1.738582	0.000001	0.494855
C46	C	2.238582	0.500001	0.994855
C47	C	1.743681	0.000003	0.658698
C48	C	2.243681	0.500003	1.158698
