data_functionalizedCrystal
_audit_creation_method	'MofGen! by Chris Wilmer'
_symmetry_space_group_name_H-M	'P1'
_symmetry_Int_Tables_number	1
_symmetry_cell_setting	triclinic
loop_
_symmetry_equiv_pos_as_xyz
  x,y,z
_cell_length_a	13.339070
_cell_length_b	17.038272
_cell_length_c	12.376457
_cell_angle_alpha	102.103643
_cell_angle_beta	75.589755
_cell_angle_gamma	103.370425
loop_
_atom_site_label
_atom_site_type_symbol
_atom_site_fract_x
_atom_site_fract_y
_atom_site_fract_z
O1	O	1.395122	0.388434	-0.094053
O2	O	1.096082	0.336008	-0.094045
O3	O	1.243823	0.248021	-0.094040
O4	O	1.247381	0.476421	-0.094058
O5	O	1.206898	0.269979	0.093971
O6	O	1.059157	0.357966	0.093966
O7	O	1.358198	0.410392	0.093958
Zn8	Zn	1.202815	0.387665	0.123813
Zn9	Zn	1.251465	0.358734	-0.123900
O10	O	1.210456	0.498379	0.093953
C11	C	1.039168	0.338131	-0.000039
C12	C	0.924594	0.311734	-0.000035
C13	C	0.577472	0.516981	-0.000069
C14	C	0.685120	0.541784	-0.000076
C15	C	0.744994	0.484274	-0.000065
C16	C	0.697208	0.401956	-0.000049
C17	C	0.589551	0.377149	-0.000051
C18	C	0.757073	0.344442	-0.000047
C19	C	0.709288	0.262125	-0.000031
C20	C	0.601640	0.237322	-0.000033
C21	C	0.541767	0.294832	-0.000043
C22	C	0.864731	0.369249	-0.000045
C23	C	0.876810	0.229417	-0.000027
C24	C	0.769161	0.204614	-0.000021
C25	C	1.222128	0.229169	-0.000034
C26	C	1.212482	0.140282	-0.000034
C27	C	1.301039	0.109396	-0.000036
C28	C	1.291972	0.025875	-0.000046
C29	C	1.194346	-0.026757	-0.000047
C30	C	1.105783	0.004133	-0.000050
C31	C	1.114852	0.087652	-0.000047
C32	C	1.162306	-0.279475	-0.000062
C33	C	1.153242	-0.362998	-0.000061
C34	C	1.339433	-0.341250	-0.000060
C35	C	1.348493	-0.257730	-0.000050
C36	C	1.259931	-0.226847	-0.000059
C37	C	1.185075	-0.112129	-0.000055
C38	C	1.269204	-0.141478	-0.000059
C39	C	1.415112	0.408268	-0.000051
C40	C	1.529688	0.434664	-0.000061
C41	C	1.232152	0.517230	-0.000055
C42	C	1.241799	0.606116	-0.000062
N43	N	1.169620	0.407411	0.292870
N44	N	1.284667	0.338984	-0.292957
C45	C	1.361722	0.293132	0.647862
C46	C	1.384949	0.279311	0.529523
C47	C	1.331119	0.311334	0.470354
C48	C	1.254057	0.357182	0.529535
C49	C	1.230833	0.371011	0.647886
C50	C	1.200230	0.389213	0.470378
C51	C	1.123169	0.435061	0.529560
C52	C	1.099948	0.448886	0.647899
C53	C	1.153779	0.416863	0.707068
C54	C	1.223454	0.375385	0.352027
C55	C	1.092565	0.453263	0.352052
C56	C	1.069338	0.467084	0.470391
H57	H	0.562739	0.170292	-0.000032
C58	C	1.015200	0.499333	0.712996
H59	H	0.986463	0.516422	0.660812
H60	H	1.046087	0.545950	0.759144
H61	H	0.960756	0.466740	0.759180
C62	C	0.737683	0.632324	-0.000096
H63	H	0.810373	0.638860	-0.000107
H64	H	0.704684	0.664649	0.065460
H65	H	0.730436	0.649319	-0.065675
H66	H	1.006593	0.504415	0.518591
C67	C	0.511612	0.580232	-0.000081
H68	H	0.440655	0.553667	-0.000075
H69	H	0.539649	0.605367	-0.065647
H70	H	0.513886	0.620681	0.065489
H71	H	1.447693	0.241983	0.481341
H72	H	1.048733	0.479342	0.303877
H73	H	1.105586	-0.154992	-0.000053
H74	H	1.350034	0.300079	0.373997
H75	H	1.286198	0.338055	0.303852
H76	H	1.364085	0.000733	-0.000044
H77	H	0.730240	0.137588	-0.000017
H78	H	0.903626	0.436273	-0.000054
H79	H	0.832647	0.504474	-0.000073
C80	C	1.420927	0.257914	0.712948
H81	H	1.396054	0.272714	0.791904
H82	H	1.494278	0.279254	0.693537
H83	H	1.408959	0.200037	0.693568
H84	H	1.134865	0.428113	0.803429
C85	C	0.423352	0.267551	-0.000036
H86	H	0.394543	0.313593	-0.000046
H87	H	0.388354	0.243774	0.065529
H88	H	0.414107	0.228462	-0.065606
H89	H	1.380536	0.152246	-0.000027
C90	C	0.942658	0.166152	-0.000013
H91	H	1.013613	0.192716	-0.000002
H92	H	0.940381	0.125702	-0.065573
H93	H	0.914618	0.141021	0.065562
H94	H	1.348696	-0.098624	-0.000083
H95	H	1.427990	-0.214880	-0.000049
H96	H	1.411535	-0.366404	-0.000055
H97	H	1.073735	-0.405849	-0.000044
C98	C	0.998395	-0.053760	-0.000048
H99	H	1.005673	-0.107924	-0.000037
H100	H	0.974504	-0.052196	-0.065609
H101	H	0.948757	-0.036881	0.065526
C102	C	1.064887	-0.245511	-0.000051
H103	H	1.005446	-0.288819	-0.000037
H104	H	1.077421	-0.221036	-0.065611
H105	H	1.051680	-0.205730	0.065524
H106	H	1.042740	0.112797	-0.000047
