data_functionalizedCrystal
_audit_creation_method	'MofGen! by Chris Wilmer'
_symmetry_space_group_name_H-M	'P1'
_symmetry_Int_Tables_number	1
_symmetry_cell_setting	triclinic
loop_
_symmetry_equiv_pos_as_xyz
  x,y,z
_cell_length_a	19.077115
_cell_length_b	12.759400
_cell_length_c	19.077174
_cell_angle_alpha	92.275994
_cell_angle_beta	85.484425
_cell_angle_gamma	87.711145
loop_
_atom_site_label
_atom_site_type_symbol
_atom_site_fract_x
_atom_site_fract_y
_atom_site_fract_z
Zn1	Zn	1.093765	-0.510482	-0.441854
Zn2	Zn	1.088969	-0.678820	-0.323974
Zn3	Zn	0.971148	-0.495796	-0.319252
Zn4	Zn	0.975863	-0.678752	-0.437093
O5	O	1.032436	-0.590962	-0.380543
O6	O	1.191779	-0.538988	-0.430185
O7	O	1.069360	-0.648424	-0.224698
O8	O	0.987447	-0.350726	-0.335532
O9	O	1.188256	-0.662665	-0.343580
O10	O	1.077533	-0.361516	-0.425607
O11	O	0.982797	-0.513957	-0.221229
O12	O	0.873123	-0.513890	-0.330916
O13	O	0.995483	-0.662548	-0.536375
O14	O	0.876587	-0.648307	-0.417493
O15	O	1.082105	-0.538921	-0.539872
O16	O	1.073932	-0.825829	-0.338963
O17	O	0.990834	-0.825779	-0.422071
C18	C	0.849276	-0.579498	-0.373176
C19	C	0.770920	-0.574620	-0.370040
C20	C	0.329662	-0.539588	-0.347561
C21	C	0.403286	-0.544178	-0.350511
C22	C	0.441915	-0.616562	-0.396988
C23	C	0.406917	-0.684354	-0.440524
C24	C	0.333294	-0.679759	-0.437578
C25	C	0.662299	-0.637817	-0.410630
C26	C	0.735926	-0.642409	-0.413572
C27	C	0.732291	-0.502231	-0.323559
C28	C	0.658667	-0.497646	-0.320613
C29	C	0.623675	-0.565434	-0.364152
N30	N	0.517171	-0.621257	-0.400003
N31	N	0.548421	-0.560733	-0.361140
C32	C	1.032394	-0.863926	-0.380529
C33	C	1.032442	-0.980707	-0.380549
C34	C	1.079331	-1.041099	-0.427489
C35	C	1.079371	-1.150826	-0.427510
C36	C	0.985630	-1.139761	-0.333645
C37	C	0.985587	-1.030035	-0.333628
C38	C	1.107907	-1.307433	-0.511703
C39	C	1.154808	-1.367828	-0.558637
C40	C	1.224011	-1.337097	-0.572276
C41	C	1.246327	-1.245972	-0.538972
C42	C	1.199430	-1.185582	-0.492033
C43	C	1.130218	-1.216312	-0.478407
C44	C	0.957059	-0.873427	-0.249434
C45	C	0.910165	-0.813035	-0.202491
C46	C	0.840960	-0.843764	-0.188845
C47	C	0.818646	-0.934892	-0.222136
C48	C	0.865540	-0.995284	-0.269079
C49	C	0.934744	-0.964548	-0.282727
C50	C	1.216312	-0.602472	-0.387940
C51	C	1.294669	-0.607377	-0.391092
C52	C	1.039855	-0.602365	-0.564418
C53	C	1.043016	-0.607224	-0.642774
C54	C	1.032499	-0.316935	-0.380574
C55	C	1.032525	-0.200160	-0.380587
C56	C	0.999435	-0.539498	-0.677779
C57	C	1.002403	-0.544072	-0.751403
C58	C	1.048956	-0.616368	-0.790020
C59	C	1.092539	-0.684101	-0.755010
C60	C	1.089567	-0.679531	-0.681387
C61	C	1.062674	-0.637548	-1.010403
C62	C	1.065644	-0.642110	-1.084030
C63	C	0.975506	-0.502082	-1.080418
C64	C	0.972541	-0.497514	-1.006794
C65	C	1.016122	-0.565251	-0.971790
N66	N	1.051992	-0.621043	-0.865276
N67	N	1.013081	-0.560580	-0.896536
C68	C	1.025087	-0.579531	-0.197386
C69	C	1.022062	-0.574384	-0.119036
H70	H	1.117482	-1.000939	-0.465696
H71	H	1.302682	-1.220965	-0.550075
C72	C	1.116855	-0.721648	-1.126508
N73	N	1.155426	-0.781553	-1.158502
H74	H	0.966912	-0.488927	-0.779901
H75	H	1.125061	-0.734674	-0.652887
H76	H	1.262197	-1.386279	-0.610491
C77	C	1.130256	-1.468059	-0.595273
N78	N	1.111766	-1.543554	-0.622868
H79	H	0.940024	-0.446936	-1.108927
C80	C	0.934715	-0.712796	-0.165865
N81	N	0.953207	-0.637296	-0.138279
C82	C	1.033188	-0.839617	-0.264444
N83	N	1.090530	-0.814151	-0.275745
H84	H	1.098152	-0.692715	-0.981911
H85	H	0.802780	-0.794583	-0.150618
H86	H	0.431775	-0.488981	-0.315060
H87	H	0.961530	-0.480621	-0.646342
C88	C	0.770789	-0.427655	-0.275679
N89	N	0.799785	-0.371477	-0.239618
H90	H	0.934631	-0.438646	-0.975357
C91	C	0.623816	-0.712411	-0.458507
N92	N	0.594829	-0.768607	-0.494564
H93	H	1.051555	-1.332456	-0.500608
H94	H	1.130440	-0.742971	-0.786458
C95	C	0.294801	-0.754335	-0.485464
N96	N	0.265810	-0.810508	-0.521534
H97	H	1.217600	-1.111391	-0.464916
H98	H	0.767376	-0.701354	-0.451423
C99	C	0.934140	-1.194032	-0.281988
N100	N	0.895373	-1.234908	-0.243062
H101	H	0.847366	-1.069485	-0.296187
H102	H	0.298216	-0.480646	-0.309713
H103	H	0.438374	-0.743287	-0.478371
C104	C	0.616181	-0.418007	-0.269491
N105	N	0.584180	-0.358020	-0.230987
H106	H	0.762294	-0.959913	-0.211023
