data_functionalizedCrystal
_audit_creation_method	'MofGen! by Chris Wilmer'
_symmetry_space_group_name_H-M	'P1'
_symmetry_Int_Tables_number	1
_symmetry_cell_setting	triclinic
loop_
_symmetry_equiv_pos_as_xyz
  x,y,z
_cell_length_a	10.686220
_cell_length_b	16.120484
_cell_length_c	10.685986
_cell_angle_alpha	88.260869
_cell_angle_beta	99.031303
_cell_angle_gamma	97.070967
loop_
_atom_site_label
_atom_site_type_symbol
_atom_site_fract_x
_atom_site_fract_y
_atom_site_fract_z
Zn1	Zn	1.868237	-0.207318	-0.586231
Zn2	Zn	1.871914	-0.356704	-0.386391
Zn3	Zn	1.670575	-0.227247	-0.391915
Zn4	Zn	1.643516	-0.356645	-0.614830
O5	O	1.763560	-0.286978	-0.494842
O6	O	2.047032	-0.218819	-0.545441
O7	O	1.858069	-0.347896	-0.210199
O8	O	1.706581	-0.107931	-0.408034
O9	O	2.049733	-0.328572	-0.398620
O10	O	1.851802	-0.093290	-0.550797
O11	O	1.710146	-0.252785	-0.214258
O12	O	1.488678	-0.252727	-0.435766
O13	O	1.660462	-0.328471	-0.787961
O14	O	1.468798	-0.347795	-0.599541
O15	O	1.825564	-0.218762	-0.766950
O16	O	1.831831	-0.473368	-0.426351
O17	O	1.664028	-0.473325	-0.594185
C18	C	1.432505	-0.302418	-0.521357
C19	C	1.290874	-0.309042	-0.532732
C20	C	1.745424	-0.503595	-0.512797
C21	C	1.737779	-0.596257	-0.520511
C22	C	1.723827	-0.765911	-0.534620
C23	C	1.803521	-0.807194	-0.455066
C24	C	1.795758	-0.901595	-0.462916
C25	C	1.731588	-0.671501	-0.526772
C26	C	2.095909	-0.271479	-0.468224
C27	C	2.237536	-0.264874	-0.456881
C28	C	1.739585	-0.271387	-0.824613
C29	C	1.729368	-0.264743	-0.965141
C30	C	1.781800	-0.069513	-0.476842
C31	C	1.789572	0.023158	-0.469171
C32	C	1.787521	-0.302446	-0.166343
C33	C	1.798005	-0.308844	-0.025776
H34	H	1.300222	-0.221994	-0.383240
H35	H	1.228180	-0.351930	-0.606371
F36	F	1.900319	-0.760726	-0.358332
F37	F	1.627031	-0.812379	-0.631342
F38	F	1.885037	-0.364830	-0.953108
F39	F	1.642344	-0.208744	-1.037813
