data_functionalizedCrystal
_audit_creation_method	'MofGen! by Chris Wilmer'
_symmetry_space_group_name_H-M	'P1'
_symmetry_Int_Tables_number	1
_symmetry_cell_setting	triclinic
loop_
_symmetry_equiv_pos_as_xyz
  x,y,z
_cell_length_a	18.050589
_cell_length_b	18.050591
_cell_length_c	19.805399
_cell_angle_alpha	90.024639
_cell_angle_beta	89.972193
_cell_angle_gamma	89.983460
loop_
_atom_site_label
_atom_site_type_symbol
_atom_site_fract_x
_atom_site_fract_y
_atom_site_fract_z
Zn1	Zn	-0.295756	-1.135359	-0.382810
Zn2	Zn	-0.045756	-0.885359	-0.132810
Zn3	Zn	0.204244	-0.635359	0.117190
Zn4	Zn	0.454244	-0.385359	0.367190
Zn5	Zn	-0.419948	-1.135279	-0.269621
Zn6	Zn	-0.169948	-0.885279	-0.019621
Zn7	Zn	0.080052	-0.635279	0.230379
Zn8	Zn	0.330052	-0.385279	0.480379
Zn9	Zn	-0.295768	-1.011171	-0.269625
Zn10	Zn	-0.045768	-0.761171	-0.019625
Zn11	Zn	0.204232	-0.511171	0.230375
Zn12	Zn	0.454232	-0.261171	0.480375
Zn13	Zn	-0.419900	-1.011143	-0.382758
Zn14	Zn	-0.169900	-0.761143	-0.132758
Zn15	Zn	0.080100	-0.511143	0.117242
Zn16	Zn	0.330100	-0.261143	0.367242
O17	O	-0.357843	-1.073238	-0.326204
O18	O	-0.107843	-0.823238	-0.076204
O19	O	0.142157	-0.573238	0.173796
O20	O	0.392157	-0.323238	0.423796
O21	O	-0.312245	-1.239273	-0.367816
O22	O	-0.062245	-0.989273	-0.117816
O23	O	0.187755	-0.739273	0.132184
O24	O	0.437755	-0.489273	0.382184
O25	O	-0.403500	-1.118793	-0.174905
O26	O	-0.153500	-0.868793	0.075095
O27	O	0.096500	-0.618793	0.325095
O28	O	0.346500	-0.368793	0.575095
O29	O	-0.191841	-1.027690	-0.284662
O30	O	0.058159	-0.777690	-0.034662
O31	O	0.308159	-0.527690	0.215338
O32	O	0.558159	-0.277690	0.465338
O33	O	-0.403489	-1.239214	-0.284656
O34	O	-0.153489	-0.989214	-0.034656
O35	O	0.096511	-0.739214	0.215344
O36	O	0.346511	-0.489214	0.465344
O37	O	-0.191833	-1.118931	-0.367819
O38	O	0.058167	-0.868931	-0.117819
O39	O	0.308167	-0.618931	0.132181
O40	O	0.558167	-0.368931	0.382181
O41	O	-0.312265	-1.027611	-0.174908
O42	O	-0.062265	-0.777611	0.075092
O43	O	0.187735	-0.527611	0.325092
O44	O	0.437735	-0.277611	0.575092
O45	O	-0.312219	-0.907242	-0.284612
O46	O	-0.062219	-0.657242	-0.034612
O47	O	0.187781	-0.407242	0.215388
O48	O	0.437781	-0.157242	0.465388
O49	O	-0.403407	-1.027643	-0.477482
O50	O	-0.153407	-0.777643	-0.227482
O51	O	0.096593	-0.527643	0.022518
O52	O	0.346593	-0.277643	0.272518
O53	O	-0.403418	-0.907222	-0.367730
O54	O	-0.153418	-0.657222	-0.117730
O55	O	0.096582	-0.407222	0.132270
O56	O	0.346582	-0.157222	0.382270
O57	O	-0.312199	-1.118904	-0.477520
O58	O	-0.062199	-0.868904	-0.227520
O59	O	0.187801	-0.618904	0.022480
O60	O	0.437801	-0.368904	0.272480
O61	O	-0.523866	-1.118767	-0.284606
O62	O	-0.273866	-0.868767	-0.034606
O63	O	-0.023866	-0.618767	0.215394
O64	O	0.226134	-0.368767	0.465394
O65	O	-0.523831	-1.027565	-0.367727
O66	O	-0.273831	-0.777565	-0.117727
O67	O	-0.023831	-0.527565	0.132273
O68	O	0.226169	-0.277565	0.382273
C69	C	-0.357815	-0.880286	-0.326166
C70	C	-0.107815	-0.630286	-0.076166
C71	C	0.142185	-0.380286	0.173834
C72	C	0.392185	-0.130286	0.423834
C73	C	-0.357821	-0.797740	-0.326166
C74	C	-0.107821	-0.547740	-0.076166
C75	C	0.142179	-0.297740	0.173834
C76	C	0.392179	-0.047740	0.423834
C77	C	-0.550795	-1.073174	-0.326175
C78	C	-0.300795	-0.823174	-0.076175
C79	C	-0.050795	-0.573174	0.173825
C80	C	0.199205	-0.323174	0.423825
C81	C	-0.633341	-1.073215	-0.326186
C82	C	-0.383341	-0.823215	-0.076186
C83	C	-0.133341	-0.573215	0.173814
C84	C	0.116659	-0.323215	0.423814
C85	C	-0.357796	-1.073280	-0.502746
C86	C	-0.107796	-0.823280	-0.252746
C87	C	0.142204	-0.573280	-0.002746
C88	C	0.392204	-0.323280	0.247254
C89	C	-0.357776	-1.073297	-0.577978
C90	C	-0.107776	-0.823297	-0.327978
C91	C	0.142224	-0.573297	-0.077978
C92	C	0.392224	-0.323297	0.172022
C93	C	-0.882158	-1.122940	-0.281060
C94	C	-0.632158	-0.872940	-0.031060
C95	C	-0.382158	-0.622940	0.218940
C96	C	-0.132158	-0.372940	0.468940
C97	C	-0.832822	-1.055181	-0.264429
C98	C	-0.582822	-0.805181	-0.014429
C99	C	-0.332822	-0.555181	0.235571
C100	C	-0.082822	-0.305181	0.485571
C101	C	-0.930461	-1.073308	-0.326238
C102	C	-0.680461	-0.823308	-0.076238
C103	C	-0.430461	-0.573308	0.173762
C104	C	-0.180461	-0.323308	0.423762
C105	C	-0.832715	-1.141017	-0.342811
C106	C	-0.582715	-0.891017	-0.092811
C107	C	-0.332715	-0.641017	0.157189
C108	C	-0.082715	-0.391017	0.407189
C109	C	-0.784476	-1.073266	-0.326211
C110	C	-0.534476	-0.823266	-0.076211
C111	C	-0.284476	-0.573266	0.173789
C112	C	-0.034476	-0.323266	0.423789
C113	C	-0.882212	-1.005514	-0.309575
C114	C	-0.632212	-0.755514	-0.059575
C115	C	-0.382212	-0.505514	0.190425
C116	C	-0.132212	-0.255514	0.440425
C117	C	-0.882110	-1.091396	-0.387987
C118	C	-0.632110	-0.841396	-0.137987
C119	C	-0.382110	-0.591396	0.112013
C120	C	-0.132110	-0.341396	0.362013
C121	C	-0.832796	-1.023590	-0.371379
C122	C	-0.582796	-0.773590	-0.121379
C123	C	-0.332796	-0.523590	0.128621
C124	C	-0.082796	-0.273590	0.378621
C125	C	-1.014559	-1.073334	-0.326252
C126	C	-0.764559	-0.823334	-0.076252
C127	C	-0.514559	-0.573334	0.173748
C128	C	-0.264559	-0.323334	0.423748
C129	C	-0.700379	-1.073233	-0.326197
C130	C	-0.450379	-0.823233	-0.076197
C131	C	-0.200379	-0.573233	0.173803
C132	C	0.049621	-0.323233	0.423803
C133	C	-0.164137	-1.073322	-0.326247
C134	C	0.085863	-0.823322	-0.076247
C135	C	0.335863	-0.573322	0.173753
C136	C	0.585863	-0.323322	0.423753
C137	C	-0.081591	-1.073358	-0.326265
C138	C	0.168409	-0.823358	-0.076265
C139	C	0.418409	-0.573358	0.173735
C140	C	0.668409	-0.323358	0.423735
C141	C	-0.357871	-1.266944	-0.326241
C142	C	-0.107871	-1.016944	-0.076241
C143	C	0.142129	-0.766944	0.173759
C144	C	0.392129	-0.516944	0.423759
C145	C	-0.357883	-1.349489	-0.326258
C146	C	-0.107883	-1.099489	-0.076258
C147	C	0.142117	-0.849489	0.173742
C148	C	0.392117	-0.599489	0.423742
C149	C	-0.308169	-0.598279	-0.281070
C150	C	-0.058169	-0.348279	-0.031070
C151	C	0.191831	-0.098279	0.218930
C152	C	0.441831	0.151721	0.468930
C153	C	-0.375907	-0.548867	-0.264412
C154	C	-0.125907	-0.298867	-0.014412
C155	C	0.124093	-0.048867	0.235588
C156	C	0.374093	0.201133	0.485588
C157	C	-0.357844	-0.646610	-0.326197
C158	C	-0.107844	-0.396610	-0.076197
C159	C	0.142156	-0.146610	0.173803
C160	C	0.392156	0.103390	0.423803
C161	C	-0.290130	-0.548940	-0.342853
C162	C	-0.040130	-0.298940	-0.092853
C163	C	0.209870	-0.048940	0.157147
C164	C	0.459870	0.201060	0.407147
C165	C	-0.357859	-0.500625	-0.326225
C166	C	-0.107859	-0.250625	-0.076225
C167	C	0.142141	-0.000625	0.173775
C168	C	0.392141	0.249375	0.423775
C169	C	-0.425616	-0.598285	-0.309506
C170	C	-0.175616	-0.348285	-0.059506
C171	C	0.074384	-0.098285	0.190494
C172	C	0.324384	0.151715	0.440494
C173	C	-0.339794	-0.598362	-0.387976
C174	C	-0.089794	-0.348362	-0.137976
C175	C	0.160206	-0.098362	0.112024
C176	C	0.410206	0.151638	0.362024
C177	C	-0.407578	-0.548973	-0.371341
C178	C	-0.157578	-0.298973	-0.121341
C179	C	0.092422	-0.048973	0.128659
C180	C	0.342422	0.201027	0.378659
C181	C	-0.357834	-0.730708	-0.326179
C182	C	-0.107834	-0.480708	-0.076179
C183	C	0.142166	-0.230708	0.173821
C184	C	0.392166	0.019292	0.423821
C185	C	-0.357877	-0.416528	-0.326243
C186	C	-0.107877	-0.166528	-0.076243
C187	C	0.142123	0.083472	0.173757
C188	C	0.392123	0.333472	0.423757
C189	C	-0.310282	-1.120818	-0.613343
C190	C	-0.060282	-0.870818	-0.363343
C191	C	0.189718	-0.620818	-0.113343
C192	C	0.439718	-0.370818	0.136657
C193	C	-0.310260	-1.120826	-0.684032
C194	C	-0.060260	-0.870826	-0.434032
C195	C	0.189740	-0.620826	-0.184032
C196	C	0.439740	-0.370826	0.065968
C197	C	-0.357737	-1.073316	-0.719354
C198	C	-0.107737	-0.823316	-0.469354
C199	C	0.142263	-0.573316	-0.219354
C200	C	0.392263	-0.323316	0.030646
C201	C	-0.405234	-1.025790	-0.683984
C202	C	-0.155234	-0.775790	-0.433984
C203	C	0.094766	-0.525790	-0.183984
C204	C	0.344766	-0.275790	0.066016
C205	C	-0.405251	-1.025779	-0.613297
C206	C	-0.155251	-0.775779	-0.363297
C207	C	0.094749	-0.525779	-0.113297
C208	C	0.344749	-0.275779	0.136703
C209	C	-0.405165	-1.025832	-0.969057
C210	C	-0.155165	-0.775832	-0.719057
C211	C	0.094835	-0.525832	-0.469057
C212	C	0.344835	-0.275832	-0.219057
C213	C	-0.405145	-1.025848	-1.039750
C214	C	-0.155145	-0.775848	-0.789750
C215	C	0.094855	-0.525848	-0.539750
C216	C	0.344855	-0.275848	-0.289750
C217	C	-0.310174	-1.120878	-1.039793
C218	C	-0.060174	-0.870878	-0.789793
C219	C	0.189826	-0.620878	-0.539793
C220	C	0.439826	-0.370878	-0.289793
C221	C	-0.310191	-1.120868	-0.969105
C222	C	-0.060191	-0.870868	-0.719105
C223	C	0.189809	-0.620868	-0.469105
C224	C	0.439809	-0.370868	-0.219105
C225	C	-0.357684	-1.073339	-0.933742
C226	C	-0.107684	-0.823339	-0.683742
C227	C	0.142316	-0.573339	-0.433742
C228	C	0.392316	-0.323339	-0.183742
C229	C	-0.357706	-1.073331	-0.857093
C230	C	-0.107706	-0.823331	-0.607093
C231	C	0.142294	-0.573331	-0.357093
C232	C	0.392294	-0.323331	-0.107093
C233	C	-0.357720	-1.073328	-0.796001
C234	C	-0.107720	-0.823328	-0.546001
C235	C	0.142280	-0.573328	-0.296001
C236	C	0.392280	-0.323328	-0.046001
C237	C	-0.357836	-1.073239	-0.150348
C238	C	-0.107836	-0.823239	0.099652
C239	C	0.142164	-0.573239	0.349652
C240	C	0.392164	-0.323239	0.599652
C241	C	-0.357646	-1.073365	-0.075116
C242	C	-0.107646	-0.823365	0.174884
C243	C	0.142354	-0.573365	0.424884
C244	C	0.392354	-0.323365	0.674884
H245	H	-0.903832	-1.164877	-0.242836
H246	H	-0.653832	-0.914877	0.007164
H247	H	-0.403832	-0.664877	0.257164
H248	H	-0.153832	-0.414877	0.507164
H249	H	-0.324495	-0.620120	-0.440194
H250	H	-0.074495	-0.370120	-0.190194
H251	H	0.175505	-0.120120	0.059806
H252	H	0.425505	0.129880	0.309806
Br253	Br	-0.194677	-0.512803	-0.366312
Br254	Br	0.055323	-0.262803	-0.116312
Br255	Br	0.305323	-0.012803	0.133688
Br256	Br	0.555323	0.237197	0.383688
H257	H	-0.271622	-1.159509	-0.584589
H258	H	-0.021622	-0.909509	-0.334589
H259	H	0.228378	-0.659509	-0.084589
H260	H	0.478378	-0.409509	0.165411
Br261	Br	-0.521101	-0.634256	-0.285945
Br262	Br	-0.271101	-0.384256	-0.035945
Br263	Br	-0.021101	-0.134256	0.214055
Br264	Br	0.228899	0.115744	0.464055
Br265	Br	-0.477681	-0.513113	-0.434970
Br266	Br	-0.227681	-0.263113	-0.184970
Br267	Br	0.022319	-0.013113	0.065030
Br268	Br	0.272319	0.236887	0.315030
H269	H	-0.443888	-0.987104	-0.712749
H270	H	-0.193888	-0.737104	-0.462749
H271	H	0.056112	-0.487104	-0.212749
H272	H	0.306112	-0.237104	0.037251
Br273	Br	-0.401374	-0.512632	-0.177355
Br274	Br	-0.151374	-0.262632	0.072645
Br275	Br	0.098626	-0.012632	0.322645
Br276	Br	0.348626	0.237368	0.572645
H277	H	-0.811171	-1.039859	-0.212197
H278	H	-0.561171	-0.789859	0.037803
H279	H	-0.311171	-0.539859	0.287803
H280	H	-0.061171	-0.289859	0.537803
H281	H	-0.271587	-1.159524	-0.712823
H282	H	-0.021587	-0.909524	-0.462823
H283	H	0.228413	-0.659524	-0.212823
H284	H	0.478413	-0.409524	0.037177
H285	H	-0.271533	-1.159558	-0.940350
H286	H	-0.021533	-0.909558	-0.690350
H287	H	0.228467	-0.659558	-0.440350
H288	H	0.478467	-0.409558	-0.190350
H289	H	-0.903861	-0.948220	-0.295487
H290	H	-0.653861	-0.698220	-0.045487
H291	H	-0.403861	-0.448220	0.204513
H292	H	-0.153861	-0.198220	0.454513
Br293	Br	-0.918229	-1.116966	-0.475018
Br294	Br	-0.668229	-0.866966	-0.225018
Br295	Br	-0.418229	-0.616966	0.024982
Br296	Br	-0.168229	-0.366966	0.274982
Br297	Br	-0.469706	-0.961280	-0.565300
Br298	Br	-0.219706	-0.711280	-0.315300
Br299	Br	0.030294	-0.461280	-0.065300
Br300	Br	0.280294	-0.211280	0.184700
H301	H	-0.271500	-1.159576	-1.068594
H302	H	-0.021500	-0.909576	-0.818594
H303	H	0.228500	-0.659576	-0.568594
H304	H	0.478500	-0.409576	-0.318594
H305	H	-0.443808	-0.987156	-1.068507
H306	H	-0.193808	-0.737156	-0.818507
H307	H	0.056192	-0.487156	-0.568507
H308	H	0.306192	-0.237156	-0.318507
H309	H	-0.443847	-0.987142	-0.940273
H310	H	-0.193847	-0.737142	-0.690273
H311	H	0.056153	-0.487142	-0.440273
H312	H	0.306153	-0.237142	-0.190273
H313	H	-0.811259	-0.981552	-0.409574
H314	H	-0.561259	-0.731552	-0.159574
H315	H	-0.311259	-0.481552	0.090426
H316	H	-0.061259	-0.231552	0.340426
H317	H	-0.810974	-1.198294	-0.356840
H318	H	-0.560974	-0.948294	-0.106840
H319	H	-0.310974	-0.698294	0.143160
H320	H	-0.060974	-0.448294	0.393160
H321	H	-0.266207	-0.619928	-0.242867
H322	H	-0.016207	-0.369928	0.007133
H323	H	0.233793	-0.119928	0.257133
H324	H	0.483793	0.130072	0.507133
