data_functionalizedCrystal
_audit_creation_method	'MofGen! by Chris Wilmer'
_symmetry_space_group_name_H-M	'P1'
_symmetry_Int_Tables_number	1
_symmetry_cell_setting	triclinic
loop_
_symmetry_equiv_pos_as_xyz
  x,y,z
_cell_length_a	15.995350
_cell_length_b	14.472310
_cell_length_c	15.995350
_cell_angle_alpha	90.001162
_cell_angle_beta	96.507625
_cell_angle_gamma	90.009379
loop_
_atom_site_label
_atom_site_type_symbol
_atom_site_fract_x
_atom_site_fract_y
_atom_site_fract_z
O1	O	1.110997	0.076758	-0.107921
O2	O	1.610997	0.576758	0.392079
O3	O	0.867221	0.076776	-0.121248
O4	O	1.367221	0.576776	0.378752
O5	O	0.995773	0.076766	0.007303
O6	O	1.495773	0.576766	0.507303
O7	O	0.982445	0.076769	-0.236472
O8	O	1.482445	0.576769	0.263528
O9	O	0.995740	-0.076916	0.007296
O10	O	1.495740	0.423084	0.507296
O11	O	0.867188	-0.076906	-0.121256
O12	O	1.367188	0.423094	0.378744
O13	O	1.110963	-0.076924	-0.107928
O14	O	1.610963	0.423076	0.392072
Cu15	Cu	0.989073	-0.090947	-0.114593
Cu16	Cu	1.489073	0.409053	0.385407
Cu17	Cu	0.989112	0.090800	-0.114584
Cu18	Cu	1.489112	0.590800	0.385416
O19	O	0.982412	-0.076913	-0.236480
O20	O	1.482412	0.423087	0.263520
C21	C	0.836010	-0.000062	-0.120701
C22	C	1.336010	0.499938	0.379299
C23	C	0.743060	-0.000055	-0.119049
C24	C	1.243060	0.499945	0.380951
N25	N	0.989051	-0.218778	-0.114598
N26	N	1.489051	0.281222	0.385402
C27	C	0.405312	-0.000074	-0.113117
C28	C	0.905312	0.499926	0.386883
C29	C	0.452746	-0.000418	-0.021565
C30	C	0.952746	0.499582	0.478435
C31	C	0.549436	-0.000065	-0.023217
C32	C	1.049436	0.499935	0.476783
C33	C	0.572873	-0.000065	-0.116060
C34	C	1.072873	0.499935	0.383940
C35	C	0.531804	0.087692	-0.161212
C36	C	1.031804	0.587692	0.338788
C37	C	0.435169	0.087759	-0.158912
C38	C	0.935169	0.587759	0.341088
C39	C	0.434792	-0.087007	-0.160812
C40	C	0.934792	0.412993	0.339188
C41	C	0.531737	-0.088160	-0.160790
C42	C	1.031737	0.411840	0.339210
C43	C	0.667570	-0.000057	-0.117727
C44	C	1.167570	0.499943	0.382273
C45	C	0.310614	-0.000076	-0.111452
C46	C	0.810614	0.499924	0.388548
C47	C	0.989111	-0.592869	-0.114581
C48	C	1.489111	-0.092869	0.385419
C49	C	0.920095	-0.553698	-0.183135
C50	C	1.420095	-0.053698	0.316865
C51	C	0.920254	-0.446610	-0.183385
C52	C	1.420254	0.053390	0.316615
C53	C	0.989081	-0.407278	-0.114590
C54	C	1.489081	0.092722	0.385410
C55	C	1.076445	-0.446122	-0.133671
C56	C	1.576445	0.053878	0.366329
C57	C	1.076057	-0.553243	-0.134159
C58	C	1.576057	-0.053243	0.365841
C59	C	0.971542	-0.553398	-0.026741
C60	C	1.471542	-0.053398	0.473259
C61	C	0.969538	-0.446270	-0.027327
C62	C	1.469538	0.053730	0.472673
C63	C	0.989069	-0.302390	-0.114593
C64	C	1.489069	0.197610	0.385407
C65	C	0.989128	-0.697757	-0.114579
C66	C	1.489128	-0.197757	0.385421
C67	C	1.142175	-0.000083	-0.108476
C68	C	1.642175	0.499917	0.391524
C69	C	1.235125	-0.000084	-0.110127
C70	C	1.735125	0.499916	0.389873
C71	C	0.995205	-0.000073	0.038494
C72	C	1.495205	0.499927	0.538494
C73	C	0.993553	-0.000068	0.131444
C74	C	1.493553	0.499932	0.631444
N75	N	0.989140	0.218631	-0.114572
N76	N	1.489140	0.718631	0.385428
C77	C	0.982980	-0.000072	-0.267671
C78	C	1.482980	0.499928	0.232329
C79	C	0.984631	-0.000071	-0.360621
C80	C	1.484631	0.499929	0.139379
C81	C	0.987621	-0.000071	0.469192
C82	C	1.487621	0.499929	0.969192
C83	C	0.896069	0.000281	0.421758
C84	C	1.396069	0.500281	0.921758
C85	C	0.897721	-0.000066	0.325068
C86	C	1.397721	0.499934	0.825068
C87	C	0.990564	-0.000069	0.301631
C88	C	1.490564	0.499931	0.801631
C89	C	1.035701	-0.087831	0.342705
C90	C	1.535701	0.412169	0.842705
C91	C	1.033401	-0.087904	0.439340
C92	C	1.533401	0.412096	0.939340
C93	C	1.035330	0.086861	0.439707
C94	C	1.535330	0.586861	0.939707
C95	C	1.035309	0.088021	0.342762
C96	C	1.535309	0.588021	0.842762
C97	C	0.992231	-0.000071	0.206934
C98	C	1.492231	0.499929	0.706934
C99	C	0.985956	-0.000075	0.563890
C100	C	1.485956	0.499925	1.063890
H101	H	0.577852	-0.062973	0.012275
H102	H	1.077852	0.437027	0.512275
Cl103	Cl	1.137173	-0.094069	0.489132
Cl104	Cl	1.637173	0.405931	0.989132
Cl105	Cl	0.424123	-0.097584	0.034933
Cl106	Cl	0.924123	0.402416	0.534933
H107	H	0.433166	0.062168	0.014865
H108	H	0.933166	0.562168	0.514865
Cl109	Cl	1.042115	-0.404954	0.055129
Cl110	Cl	1.542115	0.095046	0.555129
Cl111	Cl	0.875302	-0.595148	0.001572
Cl112	Cl	1.375302	-0.095148	0.501572
Cl113	Cl	0.989130	0.189561	0.471410
Cl114	Cl	1.489130	0.689561	0.971410
Cl115	Cl	0.842526	-0.097352	0.282035
Cl116	Cl	1.342526	0.402648	0.782035
Cl117	Cl	0.870315	-0.407076	-0.004965
Cl118	Cl	1.370315	0.092924	0.495035
H119	H	1.000459	-0.153505	0.457639
H120	H	1.500459	0.346495	0.957639
Cl121	Cl	0.575629	0.188529	-0.112785
Cl122	Cl	1.075629	0.688529	0.387215
Cl123	Cl	0.819977	-0.406061	-0.165888
Cl124	Cl	1.319977	0.093939	0.334112
Cl125	Cl	0.555450	-0.096343	-0.265325
Cl126	Cl	1.055450	0.403657	0.234675
H127	H	0.577308	0.062951	0.012521
H128	H	1.077308	0.562951	0.512521
Cl129	Cl	0.984776	0.188275	0.300207
Cl130	Cl	1.484776	0.688275	0.800207
H131	H	0.416874	0.153359	-0.125979
H132	H	0.916874	0.653359	0.374021
Cl133	Cl	1.049245	-0.592506	0.052025
Cl134	Cl	1.549245	-0.092506	0.552025
Cl135	Cl	0.842938	0.097064	0.281187
Cl136	Cl	1.342938	0.597064	0.781187
H137	H	1.103014	0.093317	0.327400
H138	H	1.603014	0.593317	0.827400
H139	H	0.402921	0.091741	-0.226128
H140	H	0.902921	0.591741	0.273872
H141	H	0.545930	0.090955	-0.229421
H142	H	1.045930	0.590955	0.270579
Cl143	Cl	0.839589	0.097450	0.450372
Cl144	Cl	1.339589	0.597450	0.950372
H145	H	0.854945	-0.579481	-0.171953
H146	H	1.354945	-0.079481	0.328047
H147	H	1.129029	-0.420643	-0.085068
H148	H	1.629029	0.079357	0.414932
Cl149	Cl	0.403071	-0.189706	-0.114603
Cl150	Cl	0.903071	0.310294	0.385397
Cl151	Cl	0.937186	-0.595223	-0.283213
Cl152	Cl	1.437186	-0.095223	0.216787
Cl153	Cl	0.839646	-0.096052	0.452362
Cl154	Cl	1.339646	0.403948	0.952362
H155	H	1.102831	0.087449	0.471468
H156	H	1.602831	0.587449	0.971468
H157	H	1.092297	-0.419285	-0.197002
H158	H	1.592297	0.080715	0.302998
H159	H	1.004324	-0.153137	0.314320
H160	H	1.504324	0.346863	0.814320
Cl161	Cl	0.573786	-0.188395	-0.109818
Cl162	Cl	1.073786	0.311605	0.390182
Cl163	Cl	0.385756	-0.087924	-0.265027
Cl164	Cl	0.885756	0.412076	0.234973
H165	H	0.931473	-0.420976	-0.248569
H166	H	1.431473	0.079024	0.251431
H167	H	1.091540	-0.578220	-0.198219
H168	H	1.591540	-0.078220	0.301781
H169	H	1.129018	-0.579154	-0.086196
H170	H	1.629018	-0.079154	0.413804
Cl171	Cl	1.141010	-0.092879	0.320898
Cl172	Cl	1.641010	0.407121	0.820898
