data_functionalizedCrystal
_audit_creation_method	'MofGen! by Chris Wilmer'
_symmetry_space_group_name_H-M	'P1'
_symmetry_Int_Tables_number	1
_symmetry_cell_setting	triclinic
loop_
_symmetry_equiv_pos_as_xyz
  x,y,z
_cell_length_a	18.215407
_cell_length_b	19.805404
_cell_length_c	18.215399
_cell_angle_alpha	90.028419
_cell_angle_beta	90.019833
_cell_angle_gamma	90.030041
loop_
_atom_site_label
_atom_site_type_symbol
_atom_site_fract_x
_atom_site_fract_y
_atom_site_fract_z
Zn1	Zn	1.125048	-0.269462	0.416113
Zn2	Zn	1.458381	0.063871	0.749447
Zn3	Zn	1.791715	0.397205	1.082780
Zn4	Zn	1.124946	-0.382653	0.293046
Zn5	Zn	1.458280	-0.049320	0.626379
Zn6	Zn	1.791613	0.284014	0.959713
Zn7	Zn	1.001980	-0.269484	0.293061
Zn8	Zn	1.335314	0.063849	0.626394
Zn9	Zn	1.668647	0.397182	0.959727
Zn10	Zn	1.001936	-0.382615	0.416071
Zn11	Zn	1.335270	-0.049282	0.749404
Zn12	Zn	1.668603	0.284051	1.082738
O13	O	1.063478	-0.326054	0.354573
O14	O	1.396811	0.007280	0.687906
O15	O	1.730144	0.340613	1.021240
O16	O	1.228019	-0.284484	0.399800
O17	O	1.561352	0.048850	0.733133
O18	O	1.894685	0.382183	1.066467
O19	O	1.108610	-0.367666	0.190064
O20	O	1.441944	-0.034333	0.523397
O21	O	1.775277	0.299001	0.856730
O22	O	1.018367	-0.174765	0.309408
O23	O	1.351700	0.158569	0.642741
O24	O	1.685033	0.491902	0.976075
O25	O	1.227944	-0.367644	0.309383
O26	O	1.561277	-0.034311	0.642716
O27	O	1.894611	0.299022	0.976050
O28	O	1.108784	-0.174748	0.399814
O29	O	1.442117	0.158585	0.733147
O30	O	1.775450	0.491918	1.066481
O31	O	1.018268	-0.284521	0.190075
O32	O	1.351601	0.048812	0.523408
O33	O	1.684935	0.382145	0.856741
O34	O	0.898990	-0.284485	0.309367
O35	O	1.232324	0.048849	0.642700
O36	O	1.565657	0.382182	0.976033
O37	O	1.018291	-0.367580	0.519061
O38	O	1.351625	-0.034247	0.852394
O39	O	1.684958	0.299086	1.185728
O40	O	0.898958	-0.367602	0.399742
O41	O	1.232291	-0.034268	0.733075
O42	O	1.565624	0.299065	1.066409
O43	O	1.108741	-0.284447	0.519092
O44	O	1.442074	0.048886	0.852425
O45	O	1.775408	0.382220	1.185759
O46	O	1.108568	-0.477365	0.309342
O47	O	1.441901	-0.144031	0.642675
O48	O	1.775234	0.189302	0.976008
O49	O	1.018193	-0.477337	0.399728
O50	O	1.351526	-0.144004	0.733061
O51	O	1.684859	0.189330	1.066394
C52	C	0.872271	-0.326042	0.354552
C53	C	1.205605	0.007291	0.687885
C54	C	1.538938	0.340625	1.021218
C55	C	0.790473	-0.326053	0.354560
C56	C	1.123806	0.007280	0.687894
C57	C	1.457139	0.340613	1.021227
C58	C	0.602281	-0.369400	0.401559
C59	C	0.935614	-0.036067	0.734893
C60	C	1.268948	0.297266	1.068226
C61	C	0.525422	-0.369403	0.401569
C62	C	0.858756	-0.036069	0.734902
C63	C	1.192089	0.297264	1.068235
C64	C	0.525426	-0.282719	0.307602
C65	C	0.858760	0.050614	0.640936
C66	C	1.192093	0.383948	0.974269
C67	C	0.602284	-0.282714	0.307597
C68	C	0.935617	0.050619	0.640931
C69	C	1.268950	0.383953	0.974264
C70	C	0.640709	-0.326059	0.354575
C71	C	0.974042	0.007275	0.687908
C72	C	1.307376	0.340608	1.021242
C73	C	0.486993	-0.326066	0.354589
C74	C	0.820326	0.007268	0.687922
C75	C	1.153660	0.340601	1.021256
C76	C	0.403659	-0.326068	0.354599
C77	C	0.736993	0.007266	0.687932
C78	C	1.070326	0.340599	1.021265
C79	C	0.724048	-0.326056	0.354566
C80	C	1.057381	0.007277	0.687900
C81	C	1.390715	0.340611	1.021233
C82	C	1.063384	-0.501910	0.354545
C83	C	1.396718	-0.168576	0.687878
C84	C	1.730051	0.164757	1.021211
C85	C	1.063412	-0.577142	0.354557
C86	C	1.396745	-0.243808	0.687890
C87	C	1.730078	0.089525	1.021224
C88	C	1.110717	-1.038925	0.307612
C89	C	1.444050	-0.705591	0.640945
C90	C	1.777383	-0.372258	0.974279
C91	C	1.110682	-0.968236	0.307598
C92	C	1.444015	-0.634903	0.640931
C93	C	1.777349	-0.301569	0.974264
C94	C	1.063574	-0.932903	0.354612
C95	C	1.396908	-0.599570	0.687945
C96	C	1.730241	-0.266237	1.021279
C97	C	1.016492	-0.968263	0.401638
C98	C	1.349826	-0.634929	0.734972
C99	C	1.683159	-0.301596	1.068305
C100	C	1.016524	-1.038950	0.401648
C101	C	1.349857	-0.705616	0.734982
C102	C	1.683190	-0.372283	1.068315
C103	C	1.016364	-0.683189	0.401598
C104	C	1.349698	-0.349856	0.734931
C105	C	1.683031	-0.016523	1.068265
C106	C	1.016338	-0.612497	0.401586
C107	C	1.349671	-0.279164	0.734919
C108	C	1.683005	0.054169	1.068252
C109	C	1.110523	-0.612476	0.307547
C110	C	1.443856	-0.279142	0.640880
C111	C	1.777189	0.054191	0.974214
C112	C	1.110554	-0.683163	0.307557
C113	C	1.443887	-0.349830	0.640891
C114	C	1.777221	-0.016496	0.974224
C115	C	1.063470	-0.718516	0.354581
C116	C	1.396803	-0.385183	0.687914
C117	C	1.730137	-0.051849	1.021247
C118	C	1.063507	-0.795164	0.354595
C119	C	1.396840	-0.461831	0.687928
C120	C	1.730174	-0.128498	1.021261
C121	C	1.063540	-0.856256	0.354602
C122	C	1.396874	-0.522923	0.687935
C123	C	1.730207	-0.189590	1.021269
C124	C	1.255431	-0.326066	0.354594
C125	C	1.588764	0.007268	0.687928
C126	C	1.922097	0.340601	1.021261
C127	C	1.337229	-0.326071	0.354604
C128	C	1.670563	0.007262	0.687937
C129	C	2.003896	0.340596	1.021270
C130	C	1.063523	-0.326007	0.546526
C131	C	1.396856	0.007326	0.879859
C132	C	1.730189	0.340660	1.213193
C133	C	1.063542	-0.325987	0.628325
C134	C	1.396875	0.007346	0.961658
C135	C	1.730208	0.340680	1.294991
C136	C	1.063592	-0.149511	0.354617
C137	C	1.396925	0.183822	0.687951
C138	C	1.730258	0.517156	1.021284
C139	C	1.063640	-0.074279	0.354636
C140	C	1.396973	0.259054	0.687970
C141	C	1.730307	0.592388	1.021303
C142	C	1.063475	-0.326051	0.163367
C143	C	1.396809	0.007282	0.496700
C144	C	1.730142	0.340615	0.830033
C145	C	1.063599	-0.325880	0.081568
C146	C	1.396932	0.007453	0.414901
C147	C	1.730266	0.340786	0.748235
C148	C	1.110656	-0.282659	0.816536
C149	C	1.443989	0.050674	1.149870
C150	C	1.777322	0.384008	1.483203
C151	C	1.110664	-0.282639	0.893395
C152	C	1.443998	0.050694	1.226728
C153	C	1.777331	0.384027	1.560062
C154	C	1.016480	-0.369210	0.893351
C155	C	1.349813	-0.035877	1.226685
C156	C	1.683146	0.297456	1.560018
C157	C	1.016468	-0.369226	0.816494
C158	C	1.349801	-0.035893	1.149827
C159	C	1.683134	0.297440	1.483161
C160	C	1.063560	-0.325952	0.778088
C161	C	1.396893	0.007382	1.111422
C162	C	1.730227	0.340715	1.444755
C163	C	1.063581	-0.325916	0.931805
C164	C	1.396914	0.007417	1.265138
C165	C	1.730247	0.340751	1.598471
C166	C	1.063590	-0.325895	1.015138
C167	C	1.396923	0.007438	1.348472
C168	C	1.730256	0.340772	1.681805
C169	C	1.063550	-0.325972	0.694749
C170	C	1.396883	0.007362	1.028083
C171	C	1.730217	0.340695	1.361416
H172	H	1.149081	-1.067687	0.269331
H173	H	1.482415	-0.734354	0.602665
H174	H	1.815748	-0.401021	0.935998
H175	H	0.633564	-0.404693	0.439813
H176	H	0.966898	-0.071359	0.773147
H177	H	1.300231	0.261974	1.106480
Cl178	Cl	1.169854	-0.228254	0.768258
Cl179	Cl	1.503187	0.105079	1.101591
Cl180	Cl	1.836521	0.438412	1.434924
H181	H	0.978140	-0.404444	0.924630
H182	H	1.311474	-0.071111	1.257964
H183	H	1.644807	0.262222	1.591297
H184	H	1.148859	-0.583684	0.269256
H185	H	1.482192	-0.250350	0.602589
H186	H	1.815526	0.082983	0.935922
Cl187	Cl	1.169880	-0.228218	0.941726
Cl188	Cl	1.503213	0.105115	1.275060
Cl189	Cl	1.836547	0.438449	1.608393
H190	H	0.978111	-0.404480	0.785189
H191	H	1.311445	-0.071146	1.118522
H192	H	1.644778	0.262187	1.451856
Cl193	Cl	1.169875	-0.923793	0.248487
Cl194	Cl	1.503209	-0.590460	0.581820
Cl195	Cl	1.836542	-0.257127	0.915153
Cl196	Cl	0.650597	-0.228218	0.248531
Cl197	Cl	0.983931	0.105115	0.581864
Cl198	Cl	1.317264	0.438448	0.915198
H199	H	1.148917	-0.711927	0.269276
H200	H	1.482250	-0.378594	0.602609
H201	H	1.815584	-0.045261	0.935943
H202	H	0.494137	-0.404695	0.439829
H203	H	0.827471	-0.071362	0.773163
H204	H	1.160804	0.261972	1.106496
H205	H	0.977974	-0.583731	0.439872
H206	H	1.311308	-0.250397	0.773205
H207	H	1.644641	0.082936	1.106538
H208	H	0.978020	-0.711965	0.439882
H209	H	1.311353	-0.378632	0.773215
H210	H	1.644687	-0.045299	1.106548
Cl211	Cl	0.477115	-0.228234	0.248547
Cl212	Cl	0.810449	0.105100	0.581880
Cl213	Cl	1.143782	0.438433	0.915213
H214	H	0.978193	-1.067734	0.439944
H215	H	1.311526	-0.734401	0.773278
H216	H	1.644859	-0.401068	1.106611
Cl217	Cl	0.957270	-0.923844	0.460742
Cl218	Cl	1.290604	-0.590511	0.794076
Cl219	Cl	1.623937	-0.257177	1.127409
