data_functionalizedCrystal
_audit_creation_method	'MofGen! by Chris Wilmer'
_symmetry_space_group_name_H-M	'P1'
_symmetry_Int_Tables_number	1
_symmetry_cell_setting	triclinic
loop_
_symmetry_equiv_pos_as_xyz
  x,y,z
_cell_length_a	17.038272
_cell_length_b	10.654546
_cell_length_c	16.098571
_cell_angle_alpha	93.029463
_cell_angle_beta	87.133130
_cell_angle_gamma	92.202460
loop_
_atom_site_label
_atom_site_type_symbol
_atom_site_fract_x
_atom_site_fract_y
_atom_site_fract_z
O1	O	0.106709	-1.672675	0.069404
O2	O	0.606709	-1.172675	0.569404
O3	O	0.117181	-1.308171	0.069374
O4	O	0.617181	-0.808171	0.569374
O5	O	-0.001882	-1.488257	0.069382
O6	O	0.498118	-0.988257	0.569382
O7	O	0.225772	-1.492589	0.069396
O8	O	0.725772	-0.992589	0.569396
O9	O	0.004414	-1.498957	-0.069128
O10	O	0.504414	-0.998957	0.430872
O11	O	0.123477	-1.318871	-0.069137
O12	O	0.623477	-0.818871	0.430863
O13	O	0.113004	-1.683375	-0.069106
O14	O	0.613004	-1.183375	0.430894
Zn15	Zn	0.119240	-1.502822	-0.091113
Zn16	Zn	0.619240	-1.002822	0.408887
Zn17	Zn	0.110946	-1.488724	0.091381
Zn18	Zn	0.610946	-0.988724	0.591381
O19	O	0.232068	-1.503289	-0.069115
O20	O	0.732068	-1.003289	0.430885
C21	C	0.119561	-1.266652	0.000115
C22	C	0.619561	-0.766652	0.500115
C23	C	0.117263	-1.126996	0.000103
C24	C	0.617263	-0.626996	0.500103
C25	C	-0.027884	-1.489666	0.000127
C26	C	0.472116	-0.989666	0.500127
C27	C	-0.114743	-1.477909	0.000126
C28	C	0.385257	-0.977909	0.500126
C29	C	0.187365	-1.054018	0.000116
C30	C	0.687365	-0.554018	0.500116
C31	C	0.185200	-0.922796	0.000124
C32	C	0.685200	-0.422796	0.500124
C33	C	0.042825	-0.937540	0.000110
C34	C	0.542825	-0.437540	0.500110
C35	C	0.044991	-1.068761	0.000096
C36	C	0.544991	-0.568761	0.500096
C37	C	0.269563	-1.045504	0.000127
C38	C	0.769563	-0.545504	0.500127
C39	C	0.267398	-0.914282	0.000135
C40	C	0.767398	-0.414282	0.500135
C41	C	-0.164255	-1.585853	0.000134
C42	C	0.335745	-1.085853	0.500134
C43	C	-0.245868	-1.574798	0.000141
C44	C	0.254132	-1.074798	0.500141
C45	C	-0.277966	-1.455799	0.000134
C46	C	0.222034	-0.955799	0.500134
C47	C	-0.228447	-1.347847	0.000128
C48	C	0.271553	-0.847847	0.500128
C49	C	-0.146837	-1.358902	0.000127
C50	C	0.353163	-0.858902	0.500127
C51	C	-0.523942	-1.416740	0.000142
C52	C	-0.023942	-0.916740	0.500142
C53	C	-0.605559	-1.405692	0.000141
C54	C	-0.105559	-0.905692	0.500141
C55	C	-0.622974	-1.632645	0.000155
C56	C	-0.122974	-1.132645	0.500155
C57	C	-0.541361	-1.643691	0.000149
C58	C	-0.041361	-1.143691	0.500149
C59	C	-0.491850	-1.535738	0.000148
C60	C	0.008150	-1.035738	0.500148
C61	C	-0.361387	-1.444496	0.000139
C62	C	0.138613	-0.944496	0.500139
C63	C	-0.408431	-1.547042	0.000149
C64	C	0.091569	-1.047042	0.500149
C65	C	0.258070	-1.501879	0.000143
C66	C	0.758070	-1.001879	0.500143
C67	C	0.344928	-1.513636	0.000149
C68	C	0.844928	-1.013636	0.500149
N69	N	0.124901	-1.512453	-0.215660
N70	N	0.624901	-1.012453	0.284340
C71	C	0.110627	-0.724895	0.000143
C72	C	0.610627	-0.224895	0.500143
C73	C	0.112932	-0.864553	0.000125
C74	C	0.612932	-0.364553	0.500125
C75	C	0.151184	-1.557009	-0.740471
C76	C	0.651184	-1.057009	-0.240471
C77	C	0.147219	-1.550277	-0.653284
C78	C	0.647219	-1.050277	-0.153284
C79	C	0.097343	-1.465645	-0.609698
C80	C	0.597343	-0.965645	-0.109698
C81	C	0.051437	-1.387730	-0.653305
C82	C	0.551437	-0.887730	-0.153305
C83	C	0.055407	-1.394456	-0.740491
C84	C	0.555407	-0.894456	-0.240491
C85	C	0.082964	-1.441264	-0.346453
C86	C	0.582964	-0.941264	0.153547
C87	C	0.078996	-1.434547	-0.259261
C88	C	0.578996	-0.934547	0.240739
C89	C	0.174779	-1.597093	-0.259246
C90	C	0.674779	-1.097093	0.240754
C91	C	0.178741	-1.603817	-0.346434
C92	C	0.678741	-1.103817	0.153566
C93	C	0.132838	-1.525898	-0.390033
C94	C	0.632838	-1.025898	0.109967
C95	C	0.093287	-1.458765	-0.520578
C96	C	0.593287	-0.958765	-0.020578
C97	C	0.136899	-1.532772	-0.479151
C98	C	0.636899	-1.032772	0.020849
N99	N	0.105279	-1.479102	0.215928
N100	N	0.605279	-0.979102	0.715928
H101	H	-0.012092	-1.128176	0.000073
H102	H	0.487908	-0.628176	0.500073
H103	H	0.294958	-0.875537	-0.059664
H104	H	0.794958	-0.375537	0.440336
H105	H	-0.631689	-1.308785	0.000122
H106	H	-0.131689	-0.808785	0.500122
H107	H	-0.387530	-1.347606	0.000131
H108	H	0.112470	-0.847606	0.500131
H109	H	-0.016017	-0.890108	0.000117
H110	H	0.483983	-0.390108	0.500117
Cl111	Cl	0.311145	-0.847366	0.089635
Cl112	Cl	0.811145	-0.347366	0.589635
Cl113	Cl	-0.123912	-1.735461	0.000135
Cl114	Cl	0.376088	-1.235461	0.500135
H115	H	-0.106524	-1.271003	0.000121
H116	H	0.393476	-0.771003	0.500121
Cl117	Cl	0.213883	-1.663416	-0.795256
Cl118	Cl	0.713883	-1.163416	-0.295256
H119	H	-0.515233	-1.740592	0.000155
H120	H	-0.015233	-1.240592	0.500155
H121	H	0.293018	-1.078970	0.059932
H122	H	0.793018	-0.578970	0.559932
H123	H	-0.286178	-1.662698	0.000146
H124	H	0.213822	-1.162698	0.500146
H125	H	-0.483639	-1.328837	0.000141
H126	H	0.016361	-0.828837	0.500141
Cl127	Cl	0.030587	-1.352375	-0.465778
Cl128	Cl	0.530587	-0.852375	0.034222
H129	H	0.219354	-1.672735	-0.381915
H130	H	0.719354	-1.172735	0.118085
Cl131	Cl	-0.685221	-1.768347	0.000159
Cl132	Cl	-0.185221	-1.268347	0.500159
H133	H	0.304346	-1.082299	-0.057839
H134	H	0.804346	-0.582299	0.442161
H135	H	-0.254588	-1.250954	0.000128
H136	H	0.245412	-0.750954	0.500128
Cl137	Cl	0.204957	-1.648181	-0.598475
Cl138	Cl	0.704957	-1.148181	-0.098475
H139	H	-0.382294	-1.643929	0.000173
H140	H	0.117706	-1.143929	0.500173
Cl141	Cl	0.232486	-1.695037	-0.204431
Cl142	Cl	0.732486	-1.195037	0.295569
Cl143	Cl	-0.011260	-1.281327	-0.598511
Cl144	Cl	0.488740	-0.781327	-0.098511
H145	H	0.038382	-1.365622	-0.223776
H146	H	0.538382	-0.865622	0.276224
Cl147	Cl	0.025255	-1.343308	-0.401252
Cl148	Cl	0.525255	-0.843308	0.098748
Cl149	Cl	-0.002303	-1.296509	-0.795303
Cl150	Cl	0.497697	-0.796509	-0.295303
H151	H	0.177511	-1.601674	-0.514642
H152	H	0.677511	-1.101674	-0.014642
