data_functionalizedCrystal
_audit_creation_method	'MofGen! by Chris Wilmer'
_symmetry_space_group_name_H-M	'P1'
_symmetry_Int_Tables_number	1
_symmetry_cell_setting	triclinic
loop_
_symmetry_equiv_pos_as_xyz
  x,y,z
_cell_length_a	6.817900
_cell_length_b	11.102188
_cell_length_c	10.773894
_cell_angle_alpha	95.423105
_cell_angle_beta	96.645922
_cell_angle_gamma	108.603875
loop_
_atom_site_label
_atom_site_type_symbol
_atom_site_fract_x
_atom_site_fract_y
_atom_site_fract_z
V1	V	-3.974351	-0.171169	-0.388944
O2	O	-3.936005	0.013031	-0.381540
O3	O	-3.952057	-0.344021	-0.386284
O4	O	-3.891308	-0.166427	-0.558576
O5	O	-3.997174	-0.165792	-0.208056
V6	V	-4.459085	-0.149385	-0.367308
O7	O	-4.232953	-0.218952	-0.436404
O8	O	-4.650681	-0.101602	-0.319849
O9	O	-4.258173	0.023467	-0.369968
O10	O	-4.614828	-0.333585	-0.374713
O11	O	-4.553659	-0.154762	-0.548197
O12	O	-4.318922	-0.154127	-0.197677
C13	C	-3.804529	-0.386224	-0.380149
C14	C	-3.867357	-0.527519	-0.379104
C15	C	-3.876993	-0.577122	-0.264377
C16	C	-3.936049	-0.709886	-0.263401
C17	C	-3.975821	-0.743432	-0.491889
C18	C	-3.916780	-0.610671	-0.492865
C19	C	-4.109707	-0.875279	-0.128819
C20	C	-4.119309	-0.924884	-0.014084
C21	C	-3.965713	-0.862878	0.090465
C22	C	-3.802466	-0.751266	0.080285
C23	C	-3.792849	-0.701667	-0.034451
C24	C	-3.946490	-0.763672	-0.138996
C25	C	-3.743103	-0.445274	-0.627439
C26	C	-3.733471	-0.395672	-0.742175
C27	C	-3.887055	-0.457677	-0.846734
C28	C	-4.050276	-0.569294	-0.836566
C29	C	-4.059909	-0.618896	-0.721829
C30	C	-3.906324	-0.556882	-0.617270
C31	C	-3.727037	-0.159684	-0.599922
C32	C	-3.740597	-0.156951	-0.738597
C33	C	-3.919387	-0.161688	-0.806460
C34	C	-3.933405	-0.158863	-0.949788
C35	C	-4.069044	0.065663	-0.376101
C36	C	-3.985453	0.206957	-0.377153
C37	C	-4.146537	-0.160874	-0.156324
C38	C	-4.112215	-0.163601	-0.017648
H39	H	-3.677388	-0.700796	0.165419
C40	C	-3.574132	-0.377085	-0.512427
H41	H	-3.603250	-0.422608	-0.442638
H42	H	-3.440679	-0.374566	-0.531994
H43	H	-3.574244	-0.292017	-0.491687
C44	C	-4.112166	-0.169995	-0.741621
H45	H	-4.226152	-0.172593	-0.802782
H46	H	-4.149112	-0.245572	-0.702442
H47	H	-4.080175	-0.096924	-0.679649
H48	H	-3.836752	-0.509423	-0.171746
C49	C	-3.740621	-0.150563	-1.014629
H50	H	-3.775337	-0.149763	-1.102456
H51	H	-3.629329	-0.074089	-0.979325
H52	H	-3.698290	-0.222738	-1.002124
C53	C	-4.305007	-0.171900	-0.952815
H54	H	-4.418990	-0.174496	-1.013978
H55	H	-4.341962	-0.247476	-0.913634
H56	H	-4.273010	-0.098827	-0.890846
C57	C	-3.547879	-0.148777	-0.803457
H58	H	-3.433904	-0.146203	-0.742299
H59	H	-3.580011	-0.221881	-0.865396
H60	H	-3.510817	-0.073221	-0.842676
C61	C	-3.613335	-0.578889	-0.045647
H62	H	-3.523237	-0.549054	0.033055
H63	H	-3.536189	-0.597165	-0.108592
H64	H	-3.669850	-0.514679	-0.068286
C65	C	-4.030161	-0.834901	-0.617014
H66	H	-4.066682	-0.921072	-0.600003
H67	H	-4.144968	-0.824128	-0.668099
H68	H	-3.912320	-0.815940	-0.660127
H69	H	-3.973537	-0.903277	0.183884
H70	H	-4.234805	-0.925766	-0.213938
C71	C	-4.239451	-0.741669	-0.710634
H72	H	-4.223179	-0.762333	-0.627330
H73	H	-4.369769	-0.727956	-0.728693
H74	H	-4.236137	-0.810473	-0.768964
C75	C	-4.219232	-0.637509	-0.951573
H76	H	-4.317808	-0.711093	-0.929086
H77	H	-4.288870	-0.580512	-0.978158
H78	H	-4.155237	-0.663029	-1.018428
C79	C	-3.876471	-0.403106	-0.972939
H80	H	-3.757274	-0.327747	-0.964025
H81	H	-3.866008	-0.465201	-1.036472
H82	H	-3.999613	-0.382679	-0.996164
H83	H	-3.600543	-0.304795	-0.750452
H84	H	-4.252239	-1.015761	-0.005804
