data_functionalizedCrystal
_audit_creation_method	'MofGen! by Chris Wilmer'
_symmetry_space_group_name_H-M	'P1'
_symmetry_Int_Tables_number	1
_symmetry_cell_setting	triclinic
loop_
_symmetry_equiv_pos_as_xyz
  x,y,z
_cell_length_a	18.627243
_cell_length_b	18.627245
_cell_length_c	18.627297
_cell_angle_alpha	90.002039
_cell_angle_beta	59.997824
_cell_angle_gamma	119.999685
loop_
_atom_site_label
_atom_site_type_symbol
_atom_site_fract_x
_atom_site_fract_y
_atom_site_fract_z
O1	O	0.633240	-0.492484	-0.021356
O2	O	0.486232	-0.388088	0.021256
O3	O	0.633235	-0.388087	-0.125751
O4	O	0.486237	-0.492485	0.125650
O5	O	0.513833	-0.507489	-0.125750
O6	O	0.366830	-0.507489	0.021256
O7	O	0.513838	-0.611886	-0.021356
Cu8	Cu	0.429432	-0.570590	-0.000050
Cu9	Cu	0.570639	-0.429384	-0.000050
O10	O	0.366835	-0.611886	0.125650
C11	C	0.356044	-0.256979	0.030935
C12	C	0.406443	-0.162282	0.024836
C13	C	0.269040	-0.300580	0.031539
C14	C	0.356039	-0.386983	0.030943
C15	C	0.406432	-0.431286	0.024852
C16	C	0.269035	-0.430386	0.031548
C17	C	0.226044	-0.386979	0.030935
C18	C	0.137446	-0.431279	0.024835
C19	C	0.398838	-0.300583	0.031548
O20	O	-0.104350	-0.611881	-0.021369
O21	O	0.104442	-0.507482	0.021239
O22	O	0.104453	-0.507489	-0.125766
O23	O	-0.104360	-0.611875	0.125635
O24	O	0.104457	-0.388084	-0.125773
O25	O	0.104446	-0.388078	0.021231
O26	O	-0.104345	-0.492477	-0.021377
Cu27	Cu	0.000051	-0.429375	-0.000073
Cu28	Cu	0.000046	-0.570584	-0.000065
O29	O	-0.104356	-0.492470	0.125628
C30	C	0.644032	-0.386986	-0.387050
C31	C	0.593636	-0.431285	-0.431350
C32	C	0.731038	-0.300587	-0.430453
C33	C	0.644032	-0.386986	-0.257049
C34	C	0.593635	-0.431287	-0.162352
C35	C	0.731037	-0.300588	-0.300650
C36	C	0.774032	-0.256986	-0.387049
C37	C	0.862632	-0.162290	-0.431348
C38	C	0.601235	-0.430390	-0.300651
C39	C	0.774046	-0.612982	-0.031065
C40	C	0.862649	-0.568681	-0.024971
C41	C	0.731054	-0.699380	-0.031674
C42	C	0.644041	-0.612985	-0.031058
C43	C	0.593641	-0.568686	-0.024957
C44	C	0.601246	-0.699383	-0.031667
C45	C	0.644046	-0.742983	-0.031064
C46	C	0.593651	-0.837679	-0.024969
C47	C	0.731049	-0.569580	-0.031668
O48	O	0.513853	0.125721	-0.021375
O49	O	0.366846	-0.125678	0.021232
O50	O	0.513856	0.021315	-0.125772
O51	O	0.366843	-0.021272	0.125629
O52	O	0.633253	0.021311	-0.125765
O53	O	0.486243	-0.125682	0.021240
O54	O	0.633250	0.125717	-0.021368
Cu55	Cu	0.570648	0.000017	-0.000063
Cu56	Cu	0.429448	0.000022	-0.000072
O57	O	0.486240	-0.021275	0.125637
O58	O	1.104430	0.125707	-0.492538
O59	O	0.895633	-0.125690	-0.388147
O60	O	0.895628	0.021307	-0.388137
O61	O	1.104435	-0.021290	-0.492548
O62	O	0.895631	0.021311	-0.507540
O63	O	0.895636	-0.125686	-0.507550
O64	O	1.104433	0.125711	-0.611941
Cu65	Cu	1.000035	0.000013	-0.570648
Cu66	Cu	1.000031	0.000008	-0.429440
O67	O	1.104438	-0.021286	-0.611951
O68	O	0.486231	-0.492490	-0.611948
O69	O	0.633235	-0.388087	-0.507553
O70	O	0.486230	-0.388090	-0.507544
O71	O	0.633237	-0.492487	-0.611956
O72	O	0.366830	-0.507490	-0.388142
O73	O	0.513836	-0.507487	-0.388151
O74	O	0.366832	-0.611890	-0.492545
Cu75	Cu	0.429431	-0.570591	-0.429446
Cu76	Cu	0.570636	-0.429386	-0.570653
O77	O	0.513837	-0.611887	-0.492554
C78	C	0.226037	-0.742989	0.386948
C79	C	0.137437	-0.837686	0.431246
C80	C	0.269030	-0.699389	0.430353
C81	C	0.356038	-0.612988	0.256949
C82	C	0.406435	-0.568687	0.162252
C83	C	0.398834	-0.569585	0.300552
C84	C	0.356036	-0.612990	0.386950
C85	C	0.406432	-0.568691	0.431252
C86	C	0.269032	-0.699387	0.300549
C87	C	0.356073	-0.256995	-0.387073
C88	C	0.406473	-0.162299	-0.431376
C89	C	0.398871	-0.300599	-0.430474
C90	C	0.226065	-0.386990	-0.257069
C91	C	0.137460	-0.431286	-0.162372
C92	C	0.269060	-0.430398	-0.300668
C93	C	0.356070	-0.386997	-0.387067
C94	C	0.406468	-0.431300	-0.431364
C95	C	0.269063	-0.300593	-0.300674
C96	C	-0.355975	-0.612964	0.386929
C97	C	-0.406373	-0.568662	0.431227
C98	C	-0.398774	-0.699362	0.430336
C99	C	-0.225968	-0.612970	0.256931
C100	C	-0.137363	-0.568673	0.162234
C101	C	-0.268966	-0.699367	0.300535
C102	C	-0.355976	-0.742966	0.386934
C103	C	-0.406376	-0.837662	0.431237
C104	C	-0.268964	-0.569563	0.300530
C105	C	0.774043	0.030962	-0.387056
C106	C	0.862639	0.024856	-0.431349
C107	C	0.731051	0.031564	-0.430463
C108	C	0.644049	0.030986	-0.257064
C109	C	0.593654	0.024905	-0.162369
C110	C	0.601253	0.031588	-0.300669
C111	C	0.644048	0.030966	-0.387064
C112	C	0.593653	0.024863	-0.431366
C113	C	0.731051	0.031584	-0.300660
O114	O	0.633303	0.125701	-0.611972
O115	O	0.486281	-0.125700	-0.507577
O116	O	0.633272	0.021288	-0.507558
O117	O	0.486311	-0.021287	-0.611991
O118	O	0.513861	0.021292	-0.388162
O119	O	0.366869	-0.125696	-0.388181
O120	O	0.513891	0.125706	-0.492576
Cu121	Cu	0.429477	0.000005	-0.429476
Cu122	Cu	0.570695	0.000001	-0.570676
O123	O	0.366900	-0.021282	-0.492594
C124	C	0.356047	-0.030927	0.386929
C125	C	0.406443	-0.024826	0.431231
C126	C	0.269046	-0.031525	0.430327
C127	C	0.356047	-0.030947	0.256928
C128	C	0.406442	-0.024866	0.162234
C129	C	0.269045	-0.031545	0.300525
C130	C	0.226053	-0.030923	0.386920
C131	C	0.137458	-0.024816	0.431213
C132	C	0.398842	-0.031549	0.300533
H133	H	0.233059	-0.265571	0.032519
C134	C	0.779634	0.032893	-0.253347
C135	C	0.789537	-0.042399	-0.239690
C136	C	0.838105	-0.041100	-0.192369
C137	C	0.876769	0.035491	-0.158706
C138	C	0.866866	0.110788	-0.172362
C139	C	0.818298	0.109489	-0.219683
H140	H	0.760915	-0.099101	-0.264610
H141	H	0.845435	-0.096841	-0.182260
H142	H	0.912721	0.036452	-0.123676
H143	H	0.895488	0.167490	-0.147442
H144	H	0.810968	0.165230	-0.229792
H145	H	0.767042	-0.734382	-0.032654
C146	C	0.506671	-0.746669	-0.032995
C147	C	0.510956	-0.780317	-0.109599
C148	C	0.416388	-0.827599	-0.110931
C149	C	0.317536	-0.841234	-0.035660
C150	C	0.313247	-0.807586	0.040950
C151	C	0.407815	-0.760304	0.042283
H152	H	0.584135	-0.770224	-0.165325
H153	H	0.419563	-0.852508	-0.167644
H154	H	0.247531	-0.876235	-0.036646
H155	H	0.240068	-0.817679	0.096676
H156	H	0.404640	-0.735395	0.098995
C157	C	0.220437	-0.746647	0.253239
C158	C	0.181791	-0.708687	0.219589
C159	C	0.133206	-0.755932	0.172272
C160	C	0.123267	-0.841137	0.158605
C161	C	0.161914	-0.879103	0.192256
C162	C	0.210499	-0.831857	0.239573
H163	H	0.189148	-0.645608	0.229706
H164	H	0.104597	-0.727827	0.147362
H165	H	0.087301	-0.876111	0.123578
H166	H	0.154557	-0.942181	0.182139
H167	H	0.239108	-0.859962	0.264483
C168	C	0.220418	-0.746678	0.526254
C169	C	0.181744	-0.708753	0.598582
C170	C	0.133133	-0.756040	0.694479
C171	C	0.123197	-0.841251	0.718048
C172	C	0.161872	-0.879181	0.645718
C173	C	0.210482	-0.831894	0.549821
H174	H	0.189099	-0.645670	0.581137
H175	H	0.104504	-0.727961	0.748023
H176	H	0.087212	-0.876256	0.789037
H177	H	0.154517	-0.942264	0.663163
H178	H	0.239112	-0.859973	0.496277
H179	H	0.468845	-0.265576	0.032531
H180	H	0.233062	-0.501390	-0.265660
C181	C	0.779652	-0.473678	-0.032992
C182	C	0.889908	-0.401354	-0.109584
C183	C	0.938507	-0.305455	-0.110911
C184	C	0.876851	-0.281882	-0.035647
C185	C	0.766589	-0.354208	0.040951
C186	C	0.717990	-0.450106	0.042278
H187	H	0.935555	-0.418803	-0.165304
H188	H	1.020131	-0.251915	-0.167614
H189	H	0.912827	-0.210892	-0.036629
H190	H	0.720942	-0.336759	0.096671
H191	H	0.636367	-0.503646	0.098981
H192	H	0.767008	-0.265581	-0.265636
H193	H	0.468846	-0.498597	0.265543
H194	H	0.468895	-0.265589	-0.501459
H195	H	0.233084	-0.265580	-0.265673
H196	H	0.767019	-0.265586	-0.501443
C197	C	0.493423	-0.032872	0.253248
C198	C	0.592262	0.042388	0.168021
C199	C	0.686841	0.041070	0.120737
C200	C	0.682582	-0.035508	0.158679
C201	C	0.583740	-0.110774	0.243911
C202	C	0.489160	-0.109456	0.291195
H203	H	0.595418	0.099081	0.139929
H204	H	0.760011	0.096787	0.057642
H205	H	0.752596	-0.036484	0.123677
H206	H	0.580583	-0.167467	0.272003
H207	H	0.415990	-0.165173	0.354290
H208	H	0.233055	-0.501375	0.032526
C209	C	0.506650	-0.526287	-0.253350
C210	C	0.407800	-0.549853	-0.239705
C211	C	0.313216	-0.645745	-0.192399
C212	C	0.317482	-0.718070	-0.158738
C213	C	0.416335	-0.694505	-0.172381
C214	C	0.510920	-0.598614	-0.219688
H215	H	0.404639	-0.496312	-0.264624
H216	H	0.240038	-0.663188	-0.182299
H217	H	0.247465	-0.789054	-0.123719
H218	H	0.419497	-0.748046	-0.147463
H219	H	0.584098	-0.581170	-0.229787
C220	C	-0.220362	-0.746668	0.253257
C221	C	-0.210423	-0.760313	0.168046
C222	C	-0.161826	-0.807617	0.120773
C223	C	-0.123169	-0.841274	0.158712
C224	C	-0.133107	-0.827630	0.243927
C225	C	-0.181704	-0.780327	0.291200
H226	H	-0.239040	-0.735397	0.139957
H227	H	-0.154469	-0.817717	0.057691
H228	H	-0.087194	-0.876291	0.123718
H229	H	-0.104490	-0.852546	0.272016
H230	H	-0.189061	-0.770226	0.354282
H231	H	-0.233028	-0.498597	0.265502
C232	C	-0.493359	-0.746659	0.526236
C233	C	-0.489111	-0.708733	0.598569
C234	C	-0.583692	-0.756032	0.694465
C235	C	-0.682523	-0.841258	0.718028
C236	C	-0.686775	-0.879188	0.645694
C237	C	-0.592193	-0.831889	0.549798
H238	H	-0.415947	-0.645639	0.581128
H239	H	-0.580544	-0.727953	0.748012
H240	H	-0.752537	-0.876272	0.789016
H241	H	-0.759939	-0.942282	0.663135
H242	H	-0.595342	-0.859968	0.496251
H243	H	0.531240	0.032565	-0.265661
H244	H	0.767042	0.032539	-0.501453
C245	C	0.220429	-0.032870	0.253240
C246	C	0.110171	-0.109459	0.291179
C247	C	0.061554	-0.110784	0.243900
C248	C	0.123194	-0.035518	0.158682
C249	C	0.233459	0.041078	0.120738
C250	C	0.282076	0.042402	0.168017
H251	H	0.064536	-0.165181	0.354266
H252	H	-0.020072	-0.167485	0.271989
H253	H	0.087205	-0.036498	0.123683
H254	H	0.279094	0.096799	0.057651
H255	H	0.363701	0.099104	0.139928
H256	H	0.233063	-0.032497	0.501316
