data_functionalizedCrystal
_audit_creation_method	'MofGen! by Chris Wilmer'
_symmetry_space_group_name_H-M	'P1'
_symmetry_Int_Tables_number	1
_symmetry_cell_setting	triclinic
loop_
_symmetry_equiv_pos_as_xyz
  x,y,z
_cell_length_a	17.077404
_cell_length_b	13.897447
_cell_length_c	17.077404
_cell_angle_alpha	90.008305
_cell_angle_beta	90.002313
_cell_angle_gamma	90.017500
loop_
_atom_site_label
_atom_site_type_symbol
_atom_site_fract_x
_atom_site_fract_y
_atom_site_fract_z
Zn1	Zn	1.199949	-0.384237	0.443832
Zn2	Zn	1.199900	-0.545499	0.312571
Zn3	Zn	1.068717	-0.384214	0.312582
Zn4	Zn	1.068656	-0.545486	0.443797
O5	O	1.134305	-0.464859	0.378196
O6	O	1.309789	-0.405643	0.426429
O7	O	1.182504	-0.524100	0.202726
O8	O	1.086171	-0.249235	0.330012
O9	O	1.309753	-0.524122	0.329993
O10	O	1.182586	-0.249252	0.426440
O11	O	1.086124	-0.405605	0.202734
O12	O	0.958862	-0.405592	0.329978
O13	O	1.086067	-0.524099	0.553649
O14	O	0.958817	-0.524077	0.426382
O15	O	1.182527	-0.405630	0.553674
O16	O	1.182444	-0.680479	0.329960
O17	O	1.086020	-0.680469	0.426371
C18	C	0.930358	-0.464831	0.378178
C19	C	0.843108	-0.464843	0.378189
C20	C	0.802137	-0.403261	0.428480
C21	C	0.720156	-0.403267	0.428484
C22	C	0.679148	-0.464861	0.378200
C23	C	0.720125	-0.526446	0.327903
C24	C	0.802104	-0.526434	0.327896
C25	C	0.549255	-0.526468	0.327922
C26	C	0.467270	-0.526481	0.327930
C27	C	0.467307	-0.403301	0.428510
C28	C	0.549286	-0.403289	0.428503
C29	C	0.590257	-0.464875	0.378207
C30	C	1.134242	-0.715473	0.378177
C31	C	1.134286	-0.822687	0.378196
C32	C	1.134324	-0.909757	0.378214
C33	C	1.134379	-1.018989	0.378234
C34	C	1.339050	-0.464887	0.378214
C35	C	1.426299	-0.464899	0.378221
C36	C	1.134296	-0.464866	0.582940
C37	C	1.134291	-0.464869	0.670190
C38	C	1.134391	-0.213266	0.378231
C39	C	1.134427	-0.106052	0.378246
C40	C	1.184525	-0.403184	1.046018
C41	C	1.184527	-0.403189	0.964038
C42	C	1.134302	-0.464867	0.923038
C43	C	1.084079	-0.526552	0.964024
C44	C	1.084082	-0.526551	1.046003
C45	C	1.084074	-0.526547	0.793154
C46	C	1.084070	-0.526546	0.711169
C47	C	1.184519	-0.403185	0.711189
C48	C	1.184522	-0.403184	0.793168
C49	C	1.134298	-0.464868	0.834147
C50	C	1.134307	-0.464871	1.174248
C51	C	1.134304	-0.464862	1.086998
H52	H	0.686802	-0.353122	0.469437
N53	N	0.591105	-0.589393	0.276559
N54	N	0.636840	-0.650908	0.304091
H55	H	0.666397	-0.695352	0.267820
N56	N	1.235813	-0.340180	0.835061
N57	N	1.208214	-0.278713	0.880814
H58	H	1.244439	-0.234216	0.910402
N59	N	0.843959	-0.589325	0.276514
N60	N	0.834794	-0.582779	0.204092
H61	H	0.864354	-0.627193	0.167798
H62	H	1.225419	-0.352953	1.079394
H63	H	1.225424	-0.352968	0.930676
H64	H	1.043187	-0.576776	1.079367
H65	H	1.043178	-0.576779	0.826517
H66	H	1.225412	-0.352958	0.677819
N67	N	1.032760	-0.589550	0.669300
N68	N	0.987924	-0.644622	0.705895
H69	H	0.951684	-0.689119	0.676326
H70	H	1.043189	-0.576775	0.930636
H71	H	0.433884	-0.576637	0.286985
H72	H	0.582673	-0.353139	0.469454
H73	H	0.835520	-0.353106	0.469430
H74	H	0.433945	-0.353153	0.469462
N75	N	0.678239	-0.589349	0.276527
N76	N	0.632493	-0.555318	0.226558
H77	H	0.602911	-0.599746	0.190272
