data_functionalizedCrystal
_audit_creation_method	'MofGen! by Chris Wilmer'
_symmetry_space_group_name_H-M	'P1'
_symmetry_Int_Tables_number	1
_symmetry_cell_setting	triclinic
loop_
_symmetry_equiv_pos_as_xyz
  x,y,z
_cell_length_a	14.809374
_cell_length_b	21.606444
_cell_length_c	21.606444
_cell_angle_alpha	60.001331
_cell_angle_beta	90.001385
_cell_angle_gamma	52.845983
loop_
_atom_site_label
_atom_site_type_symbol
_atom_site_fract_x
_atom_site_fract_y
_atom_site_fract_z
Zr1	Zr	0.990994	0.527971	-0.006465
O2	O	0.826724	0.681872	-0.117676
O3	O	1.041352	0.391255	0.027625
O4	O	1.041339	0.520381	-0.101495
O5	O	0.826746	0.552740	0.113298
O6	O	1.210629	0.494846	-0.088728
O7	O	0.826738	0.552746	0.011444
O8	O	1.210653	0.263863	0.142243
O9	O	0.826723	0.783723	-0.117673
O10	O	1.189167	0.422067	0.051695
O11	O	1.062834	0.441119	0.118180
O12	O	1.062819	0.593148	-0.033842
O13	O	0.936486	0.612201	0.032643
Zr14	Zr	1.261005	0.487236	0.176344
Zr15	Zr	1.260992	0.487245	0.013897
Zr16	Zr	0.991007	0.527962	0.155982
Zr17	Zr	0.990991	0.690412	-0.006460
Zr18	Zr	1.261008	0.324795	0.176339
O19	O	1.210647	0.623951	0.142254
O20	O	1.210627	0.623964	-0.088724
O21	O	0.826744	0.681859	0.113302
O22	O	1.425275	0.333335	0.287555
O23	O	1.425255	0.333348	0.056577
O24	O	1.041372	0.391242	0.258603
O25	O	1.425253	0.462467	0.056581
O26	O	1.210660	0.494826	0.271374
O27	O	1.041370	0.520361	0.258607
O28	O	1.425261	0.462461	0.158435
O29	O	1.041335	0.751351	-0.101488
O30	O	1.210664	0.263856	0.271367
O31	O	1.425276	0.231484	0.287552
O32	O	1.425265	0.231491	0.158428
O33	O	0.826734	0.783716	0.011451
O34	O	1.041346	0.751344	0.027636
O35	O	1.189180	0.422058	0.203721
O36	O	1.315513	0.403006	0.137236
O37	O	1.189165	0.574087	0.051699
O38	O	1.062832	0.593140	0.118184
C39	C	1.126003	0.304415	0.084933
C40	C	1.126004	0.235454	0.084931
C41	C	1.191946	0.193112	0.050225
C42	C	1.191950	0.128311	0.050231
C43	C	1.126005	0.105860	0.084937
C44	C	1.060061	0.148205	0.119648
C45	C	1.060065	0.212999	0.119647
C46	C	1.060047	-0.113102	0.119653
C47	C	1.060045	-0.177899	0.119649
C48	C	1.191932	-0.197790	0.050237
C49	C	1.191936	-0.132996	0.050236
C50	C	1.125998	-0.090660	0.084950
C51	C	1.125996	-0.020397	0.084945
C52	C	1.125999	0.035604	0.084938
C53	C	0.788273	0.558546	0.059470
C54	C	0.673652	0.575835	0.050826
C55	C	0.685227	0.498675	0.089404
C56	C	0.566762	0.516542	0.080470
C57	C	1.463726	0.456661	0.110409
C58	C	1.578347	0.439372	0.119053
C59	C	1.125982	0.507615	-0.118256
C60	C	1.125977	0.507619	-0.187219
C61	C	1.125996	0.710792	0.084946
C62	C	1.125995	0.779752	0.084948
C63	C	1.060023	0.596921	-0.264267
C64	C	1.060034	0.596917	-0.329061
C65	C	1.125992	0.507610	-0.316806
C66	C	1.191953	0.418301	-0.239750
C67	C	1.191949	0.418305	-0.174957
C68	C	1.191973	0.418283	-0.501052
C69	C	1.191969	0.418286	-0.565853
C70	C	1.060058	0.596895	-0.655155
C71	C	1.060054	0.596899	-0.590363
C72	C	1.126020	0.507589	-0.513312
C73	C	1.126010	0.507594	-0.443055
C74	C	1.125996	0.507605	-0.387062
C75	C	1.126017	0.507592	0.288135
C76	C	1.126022	0.507588	0.357098
C77	C	1.463730	0.253473	0.110403
C78	C	1.578352	0.167223	0.119045
C79	C	1.126020	0.304403	0.288129
C80	C	1.126027	0.235439	0.357090
C81	C	1.463747	0.253461	0.313599
C82	C	1.578375	0.167208	0.391204
C83	C	0.788252	0.761745	-0.143720
C84	C	0.673624	0.847999	-0.221325
C85	C	0.788269	0.761734	0.059476
C86	C	0.673647	0.847984	0.050834
C87	C	1.125979	0.710803	-0.118250
C88	C	1.125972	0.779767	-0.187211
C89	C	1.566229	0.136669	0.078445
C90	C	1.673919	0.055639	0.086549
C91	C	1.793730	0.005160	0.135258
C92	C	1.805851	0.035720	0.175859
C93	C	1.698163	0.116754	0.167750
C94	C	1.191982	0.193103	0.434133
C95	C	1.191983	0.128314	0.498934
C96	C	1.126037	0.105856	0.486692
C97	C	1.060075	0.148200	0.409641
C98	C	1.060066	0.212994	0.344840
C99	C	1.698162	0.116755	0.392944
C100	C	1.805877	0.035718	0.465857
C101	C	1.793804	0.005131	0.537028
C102	C	1.674005	0.055592	0.535285
C103	C	1.566292	0.136632	0.462373
C104	C	0.553837	0.898459	-0.223065
C105	C	0.446122	0.979516	-0.295978
C106	C	0.458195	1.010107	-0.367149
C107	C	0.577994	0.959642	-0.365406
C108	C	0.685707	0.878591	-0.292494
C109	C	0.685770	0.878545	0.091427
C110	C	0.578080	0.959593	0.083305
C111	C	0.458269	1.010074	0.034594
C112	C	0.446148	0.979510	-0.006004
C113	C	0.553836	0.898468	0.002114
C114	C	1.191931	0.802203	-0.174943
C115	C	1.191949	0.866989	-0.239731
C116	C	1.126000	0.909346	-0.316786
C117	C	1.060039	0.886904	-0.329053
C118	C	1.060029	0.822113	-0.264265
H119	H	1.245640	0.211391	0.021959
F120	F	0.439175	0.620185	0.028656
H121	H	1.708016	0.141646	0.335000
F122	F	0.989855	-0.201792	0.156592
F123	F	1.126019	0.978303	-0.385733
H124	H	0.370592	1.076062	0.027991
F125	F	0.343545	1.096371	-0.444743
F126	F	0.318635	1.033209	-0.297816
H127	H	0.587810	0.984559	-0.423363
H128	H	0.576038	0.655122	0.011186
F129	F	0.813190	0.824889	-0.290654
F130	F	1.438809	0.190316	0.460533
F131	F	0.989846	0.931998	-0.411067
F132	F	1.711085	0.149257	0.210971
F133	F	0.540959	0.865917	-0.147327
H134	H	1.903413	-0.005360	0.467262
H135	H	1.468682	0.177768	0.038773
F136	F	0.989818	0.691975	-0.277319
F137	F	1.660992	0.023127	0.043335
H138	H	1.245634	0.767725	-0.112206
F139	F	1.933374	-0.018016	0.227699
H140	H	0.543948	0.873590	-0.030941
F141	F	0.813273	0.824834	0.143272
F142	F	0.989854	0.691947	-0.737164
H143	H	1.881521	-0.060858	0.596392
F144	F	1.661175	0.023027	0.611039
F145	F	1.262150	0.890865	-0.226660
F146	F	0.989874	-0.068057	0.156602
H147	H	1.245683	0.211380	0.444116
H148	H	0.675961	0.360078	0.158702
H149	H	1.245702	0.093844	0.561667
F150	F	0.989836	0.691965	-0.411061
F151	F	0.989838	0.691953	-0.603412
F152	F	0.989894	0.124296	0.156597
F153	F	0.989812	0.798252	-0.277334
H154	H	1.006365	0.247477	0.147906
F155	F	1.262138	0.323237	-0.419060
F156	F	1.908332	-0.081083	0.143882
H157	H	0.587974	0.984463	0.116369
F158	F	0.318625	1.033245	-0.057842
H159	H	1.245654	0.345586	-0.112221
H160	H	1.126055	0.053096	0.539464
H161	H	1.006363	0.247456	0.282111
F162	F	1.262112	0.083267	0.013277
F163	F	1.262117	-0.109100	0.013292
H164	H	1.245627	-0.232270	0.021974
H165	H	0.782841	0.419388	0.129048
H166	H	1.245684	0.345557	-0.555866
H167	H	1.245664	0.345585	-0.229776
F168	F	0.989896	0.124288	0.396624
