data_functionalizedCrystal
_audit_creation_method	'MofGen! by Chris Wilmer'
_symmetry_space_group_name_H-M	'P1'
_symmetry_Int_Tables_number	1
_symmetry_cell_setting	triclinic
loop_
_symmetry_equiv_pos_as_xyz
  x,y,z
_cell_length_a	6.817900
_cell_length_b	7.190401
_cell_length_c	14.125469
_cell_angle_alpha	91.965940
_cell_angle_beta	79.601122
_cell_angle_gamma	60.610757
loop_
_atom_site_label
_atom_site_type_symbol
_atom_site_fract_x
_atom_site_fract_y
_atom_site_fract_z
V1	V	-4.207250	0.664183	0.131570
O2	O	-4.207682	0.652388	-0.007913
O3	O	-4.141803	0.658825	0.262411
O4	O	-4.244742	0.954228	0.128848
O5	O	-4.104030	0.354940	0.126574
V6	V	-4.681957	0.627294	0.114969
O7	O	-4.487846	0.745102	0.167987
O8	O	-4.851557	0.546375	0.078552
O9	O	-4.524197	0.632652	-0.015872
O10	O	-4.798922	0.639090	0.254452
O11	O	-4.902573	0.936538	0.119965
O12	O	-4.421258	0.337249	0.117691
C13	C	-3.979878	0.648137	0.294329
C14	C	-4.008227	0.645690	0.401289
C15	C	-4.225129	1.266517	0.122589
C16	C	-4.111183	1.024948	0.123965
C17	C	-4.349461	0.643334	-0.047785
C18	C	-4.300354	0.645796	-0.154744
C19	C	-4.060208	0.641240	0.597125
C20	C	-4.248368	0.650244	0.649426
C21	C	-4.277292	0.647769	0.758396
C22	C	-4.031275	0.643716	0.488145
H23	H	-4.387731	0.659807	0.612363
H24	H	-3.920852	0.631671	0.634185
