data_functionalizedCrystal
_audit_creation_method	'MofGen! by Chris Wilmer'
_symmetry_space_group_name_H-M	'P1'
_symmetry_Int_Tables_number	1
_symmetry_cell_setting	triclinic
loop_
_symmetry_equiv_pos_as_xyz
  x,y,z
_cell_length_a	16.109301
_cell_length_b	11.792241
_cell_length_c	15.186229
_cell_angle_alpha	89.996105
_cell_angle_beta	89.999006
_cell_angle_gamma	83.827500
loop_
_atom_site_label
_atom_site_type_symbol
_atom_site_fract_x
_atom_site_fract_y
_atom_site_fract_z
O1	O	1.103817	0.145887	-0.073180
O2	O	0.861841	0.164041	-0.073193
O3	O	0.988701	-0.010258	-0.073180
O4	O	0.976957	0.320186	-0.073193
O5	O	0.988692	-0.010261	0.073277
O6	O	0.861832	0.164039	0.073264
O7	O	1.103809	0.145884	0.073277
Zn8	Zn	0.982819	0.154961	0.096524
Zn9	Zn	0.982830	0.154964	-0.096440
O10	O	0.976948	0.320184	0.073264
C11	C	0.830858	0.163305	0.000034
C12	C	0.738552	0.161100	0.000030
C13	C	0.987959	-0.052544	0.000048
C14	C	0.985751	-0.178538	0.000047
C15	C	0.430007	0.257318	0.000041
C16	C	0.516737	0.259400	0.000036
C17	C	0.535637	0.052600	0.000032
C18	C	0.448908	0.050518	0.000031
C19	C	0.396095	0.152881	0.000040
C20	C	0.569554	0.157044	0.000036
C21	C	0.663590	0.159301	0.000030
C22	C	0.302053	0.150624	0.000044
C23	C	0.981691	-0.409215	0.000032
C24	C	0.983947	-0.280849	0.000040
C25	C	1.134791	0.146621	0.000048
C26	C	1.227097	0.148826	0.000047
C27	C	0.977690	0.362469	0.000034
C28	C	0.979898	0.488464	0.000029
N29	N	0.982817	0.154958	0.228216
N30	N	0.982838	0.154958	-0.228133
C31	C	1.039010	0.077804	0.453945
C32	C	1.039013	0.077802	0.546135
C33	C	0.926639	0.232116	0.546132
C34	C	0.926633	0.232112	0.453944
C35	C	0.982824	0.154958	0.407853
C36	C	0.982832	0.154959	0.592231
C37	C	0.982835	0.154956	0.692187
C38	C	0.982820	0.154958	0.307891
H39	H	0.387008	0.340668	0.000048
O40	O	0.871981	0.307105	0.590771
C41	C	0.822399	0.375218	0.530317
H42	H	0.821249	0.328682	0.464606
H43	H	0.756084	0.392504	0.556957
H44	H	0.849768	0.459545	0.520504
O45	O	0.872084	0.306959	0.409029
C46	C	0.884143	0.290427	0.317778
H47	H	0.914807	0.200200	0.305196
H48	H	0.821241	0.303032	0.282743
H49	H	0.926132	0.354679	0.291609
O50	O	0.549541	0.360949	0.000079
C51	C	0.484326	0.450843	0.000063
H52	H	0.425274	0.419041	0.027791
H53	H	0.502775	0.523756	0.042585
H54	H	0.472194	0.482425	-0.070199
H55	H	0.578648	-0.030740	0.000027
H56	H	0.421298	-0.034532	0.000027
O57	O	1.093455	0.002761	0.409094
C58	C	1.048581	-0.067292	0.355823
H59	H	0.983747	-0.022068	0.341994
H60	H	1.083196	-0.085311	0.291003
H61	H	1.042515	-0.151139	0.391395
O62	O	1.093675	0.002814	0.590771
C63	C	1.143249	-0.065300	0.530318
H64	H	1.144393	-0.018764	0.464601
H65	H	1.209566	-0.082588	0.556949
H66	H	1.115877	-0.149626	0.520519
