data_functionalizedCrystal
_audit_creation_method	'MofGen! by Chris Wilmer'
_symmetry_space_group_name_H-M	'P1'
_symmetry_Int_Tables_number	1
_symmetry_cell_setting	triclinic
loop_
_symmetry_equiv_pos_as_xyz
  x,y,z
_cell_length_a	10.654546
_cell_length_b	10.540514
_cell_length_c	9.730223
_cell_angle_alpha	90.001795
_cell_angle_beta	89.998853
_cell_angle_gamma	84.499322
loop_
_atom_site_label
_atom_site_type_symbol
_atom_site_fract_x
_atom_site_fract_y
_atom_site_fract_z
O1	O	1.667883	0.178276	-0.114310
O2	O	1.302409	0.195268	-0.114305
O3	O	1.493501	0.002060	-0.114309
O4	O	1.476791	0.371484	-0.114305
O5	O	1.493498	0.002065	0.114271
O6	O	1.302406	0.195273	0.114275
O7	O	1.667881	0.178281	0.114270
Zn8	Zn	1.485143	0.186778	0.150565
Zn9	Zn	1.485146	0.186771	-0.150599
O10	O	1.476789	0.371489	0.114275
C11	C	1.255609	0.194024	-0.000014
C12	C	1.116165	0.190294	-0.000013
C13	C	1.050671	0.188526	-0.124618
C14	C	0.919649	0.185011	-0.124629
C15	C	0.919628	0.185027	0.124581
C16	C	1.050646	0.188551	0.124591
C17	C	1.116190	0.190269	-0.249222
C18	C	1.050696	0.188500	-0.373837
C19	C	0.919674	0.184985	-0.373848
C20	C	0.854146	0.183239	-0.249244
C21	C	1.492253	-0.045240	-0.000023
C22	C	1.488524	-0.186188	-0.000033
C23	C	1.625191	-0.256945	-0.000031
C24	C	1.621358	-0.403557	0.000497
C25	C	1.414197	-0.378494	0.130256
C26	C	1.418999	-0.231956	0.130356
C27	C	1.416979	-0.231562	-0.129592
C28	C	1.415660	-0.378541	-0.131294
C29	C	1.714681	0.179525	-0.000023
C30	C	1.854125	0.183255	-0.000034
C31	C	1.478037	0.418789	-0.000015
C32	C	1.481766	0.559737	-0.000014
N33	N	1.485151	0.186781	0.356101
N34	N	1.485149	0.186758	-0.356136
C35	C	1.569788	0.101258	0.428025
C36	C	1.569785	0.101243	0.571908
C37	C	1.400502	0.272285	0.571930
C38	C	1.400501	0.272293	0.428050
C39	C	1.654438	0.015747	0.356076
C40	C	1.739083	-0.069783	0.428001
C41	C	1.739080	-0.069798	0.571884
C42	C	1.654431	0.015716	0.643842
H43	H	1.222874	0.193128	-0.249227
Br44	Br	0.676327	0.178490	-0.249262
Br45	Br	1.246125	-0.418939	-0.145164
H46	H	1.311670	-0.400769	0.134734
Br47	Br	1.717604	-0.209431	-0.155720
Br48	Br	1.248962	-0.152742	-0.131686
H49	H	1.807995	-0.139412	0.369405
Br50	Br	1.709554	-0.473151	0.157058
H51	H	1.468346	-0.203746	0.228106
Br52	Br	1.654418	0.015675	0.839114
Br53	Br	1.497956	-0.446905	-0.291933
H54	H	1.679858	-0.226645	0.093180
H55	H	1.807993	-0.139447	0.630443
Br56	Br	1.139619	0.190888	-0.542934
Br57	Br	1.251680	-0.151873	0.139626
Br58	Br	1.491447	-0.449455	0.292462
H59	H	0.866265	0.183604	0.226028
Br60	Br	1.654454	0.015772	0.160807
H61	H	1.331586	0.341908	0.630528
Br62	Br	1.139538	0.190958	0.293701
Br63	Br	1.285625	0.388357	0.330434
H64	H	1.462471	-0.200085	-0.228363
H65	H	0.866351	0.183557	-0.475316
Br66	Br	1.709928	-0.474722	-0.155112
