data_functionalizedCrystal
_audit_creation_method	'MofGen! by Chris Wilmer'
_symmetry_space_group_name_H-M	'P1'
_symmetry_Int_Tables_number	1
_symmetry_cell_setting	triclinic
loop_
_symmetry_equiv_pos_as_xyz
  x,y,z
_cell_length_a	19.077236
_cell_length_b	19.076808
_cell_length_c	19.077174
_cell_angle_alpha	89.936016
_cell_angle_beta	94.705718
_cell_angle_gamma	94.519737
loop_
_atom_site_label
_atom_site_type_symbol
_atom_site_fract_x
_atom_site_fract_y
_atom_site_fract_z
Zn1	Zn	1.083097	-0.254133	0.431322
Zn2	Zn	1.583097	0.245867	0.931322
Zn3	Zn	1.073544	-0.367296	0.308691
Zn4	Zn	1.573544	0.132704	0.808691
Zn5	Zn	0.960478	-0.254144	0.308705
Zn6	Zn	1.460478	0.245856	0.808705
Zn7	Zn	0.960056	-0.376336	0.421417
Zn8	Zn	1.460056	0.123664	0.921417
O9	O	1.019294	-0.312977	0.367534
O10	O	1.519294	0.187023	0.867534
O11	O	1.180642	-0.265356	0.419195
O12	O	1.680642	0.234644	0.919195
O13	O	1.054724	-0.348507	0.210201
O14	O	1.554724	0.151493	0.710201
O15	O	0.980919	-0.155645	0.329121
O16	O	1.480919	0.344355	0.829121
O17	O	1.173623	-0.348497	0.329098
O18	O	1.673623	0.151503	0.829098
O19	O	1.071006	-0.155637	0.419208
O20	O	1.571006	0.344363	0.919208
O21	O	0.971655	-0.265375	0.210211
O22	O	1.471655	0.234625	0.710211
O23	O	0.861610	-0.274140	0.319516
O24	O	1.361610	0.225860	0.819516
O25	O	0.980199	-0.363904	0.521222
O26	O	1.480199	0.136096	1.021222
O27	O	0.861300	-0.363914	0.402325
O28	O	1.361300	0.136086	0.902325
O29	O	1.070597	-0.274122	0.528500
O30	O	1.570597	0.225878	1.028500
O31	O	1.054314	-0.466992	0.319493
O32	O	1.554314	0.033008	0.819493
O33	O	0.970935	-0.473634	0.402312
O34	O	1.470935	0.026366	0.902312
C35	C	0.835835	-0.320010	0.359848
C36	C	1.335835	0.179990	0.859848
C37	C	0.757350	-0.323036	0.356576
C38	C	1.257350	0.176964	0.856576
C39	C	0.724132	-0.281245	0.402013
C40	C	1.224132	0.218755	0.902013
C41	C	0.650387	-0.284085	0.398932
C42	C	1.150387	0.215915	0.898932
C43	C	0.609862	-0.328720	0.350418
C44	C	1.109862	0.171280	0.850418
C45	C	0.643084	-0.370513	0.304976
C46	C	1.143084	0.129487	0.804976
C47	C	0.716827	-0.367669	0.308054
C48	C	1.216827	0.132331	0.808054
C49	C	0.388920	-0.341857	0.336174
C50	C	0.888920	0.158143	0.836174
C51	C	0.315171	-0.344699	0.333101
C52	C	0.815171	0.155301	0.833101
C53	C	0.322480	-0.258271	0.427057
C54	C	0.822480	0.241729	0.927057
C55	C	0.396225	-0.255434	0.430133
C56	C	0.896225	0.244566	0.930133
C57	C	0.429441	-0.297223	0.384688
C58	C	0.929441	0.202777	0.884688
N59	N	0.534482	-0.331626	0.347270
N60	N	1.034482	0.168374	0.847270
N61	N	0.504818	-0.294313	0.387834
N62	N	1.004818	0.205687	0.887834
C63	C	1.011562	-0.495852	0.359842
C64	C	1.511562	0.004148	0.859842
C65	C	1.008320	-0.574085	0.356578
C66	C	1.508320	-0.074085	0.856578
C67	C	1.053668	-0.610777	0.401983
C68	C	1.553668	-0.110777	0.901983
C69	C	1.050619	-0.684286	0.398917
C70	C	1.550619	-0.184286	0.898917
C71	C	1.002224	-0.721100	0.350443
C72	C	1.502224	-0.221100	0.850443
C73	C	0.956871	-0.684403	0.305036
C74	C	1.456871	-0.184403	0.805036
C75	C	0.959918	-0.610896	0.308106
C76	C	1.459918	-0.110896	0.808106
C77	C	0.988085	-0.940949	0.336231
C78	C	1.488085	-0.440949	0.836231
C79	C	0.985043	-1.014461	0.333164
C80	C	1.485043	-0.514461	0.833164
C81	C	1.078790	-1.014338	0.427046
C82	C	1.578790	-0.514338	0.927046
C83	C	1.081835	-0.940830	0.430109
C84	C	1.581835	-0.440830	0.930109
C85	C	1.036480	-0.904139	0.384705
C86	C	1.536480	-0.404139	0.884705
N87	N	0.999108	-0.796238	0.347306
N88	N	1.499108	-0.296238	0.847306
N89	N	1.039593	-0.829004	0.387845
N90	N	1.539593	-0.329004	0.887845
C91	C	1.203469	-0.305917	0.375250
C92	C	1.703469	0.194083	0.875250
C93	C	1.281954	-0.302909	0.378538
C94	C	1.781954	0.197091	0.878538
C95	C	1.026416	-0.320020	0.551113
C96	C	1.526416	0.179980	1.051113
C97	C	1.029452	-0.323022	0.629344
C98	C	1.529452	0.176978	1.129344
C99	C	1.027075	-0.129388	0.375271
C100	C	1.527075	0.370612	0.875271
C101	C	1.030392	-0.051153	0.378568
C102	C	1.530392	0.448847	0.878568
C103	C	1.012241	-0.305909	0.184672
C104	C	1.512241	0.194091	0.684672
C105	C	1.009351	-0.302704	0.106456
C106	C	1.509351	0.197296	0.606456
C107	C	0.987630	-0.281150	0.666101
C108	C	1.487630	0.218850	1.166101
C109	C	0.990479	-0.283976	0.739607
C110	C	1.490479	0.216024	1.239607
C111	C	1.035154	-0.328670	0.776354
C112	C	1.535154	0.171330	1.276354
C113	C	1.076977	-0.370547	0.739591
C114	C	1.576977	0.129453	1.239591
C115	C	1.074124	-0.367724	0.666086
C116	C	1.574124	0.132276	1.166086
C117	C	1.048321	-0.341758	0.996188
C118	C	1.548321	0.158242	1.496188
C119	C	1.051173	-0.344576	1.069698
C120	C	1.551173	0.155424	1.569698
C121	C	0.964674	-0.258005	1.069709
C122	C	1.464674	0.241995	1.569709
C123	C	0.961828	-0.255183	0.996203
C124	C	1.461828	0.244817	1.496203
C125	C	1.003648	-0.297062	0.959447
C126	C	1.503648	0.202938	1.459447
N127	N	1.038069	-0.331559	0.851489
N128	N	1.538069	0.168441	1.351489
N129	N	1.000729	-0.294177	0.884313
N130	N	1.500729	0.205823	1.384313
H131	H	0.429216	-0.219090	0.469641
H132	H	0.929216	0.280910	0.969641
H133	H	1.093079	-0.580807	0.441453
H134	H	1.593079	-0.080807	0.941453
C135	C	0.938486	-0.231984	0.625683
C136	C	1.438486	0.268016	1.125683
C137	C	0.879795	-0.262669	0.571542
C138	C	1.379795	0.237331	1.071542
C139	C	0.830647	-0.213504	0.531127
C140	C	1.330647	0.286496	1.031127
C141	C	0.840190	-0.133655	0.544852
C142	C	1.340190	0.366345	1.044852
C143	C	0.898883	-0.102967	0.598996
C144	C	1.398883	0.397033	1.098996
C145	C	0.948031	-0.152132	0.639412
C146	C	1.448031	0.347868	1.139412
H147	H	0.872728	-0.321781	0.561379
H148	H	1.372728	0.178219	1.061379
H149	H	0.787198	-0.236222	0.491046
H150	H	1.287198	0.263778	0.991046
H151	H	0.803808	-0.097261	0.514934
H152	H	1.303808	0.402739	1.014934
H153	H	0.905950	-0.043854	0.609159
H154	H	1.405950	0.456146	1.109159
H155	H	0.991480	-0.129414	0.679493
H156	H	1.491480	0.370586	1.179493
C157	C	0.944479	-0.237909	0.780038
C158	C	1.444479	0.262091	1.280038
C159	C	0.863572	-0.246328	0.766322
C160	C	1.363572	0.253672	1.266322
C161	C	0.817569	-0.200257	0.806750
C162	C	1.317569	0.299743	1.306750
C163	C	0.852475	-0.145766	0.860895
C164	C	1.352475	0.354234	1.360895
C165	C	0.933387	-0.137344	0.874613
C166	C	1.433387	0.362656	1.374613
C167	C	0.979389	-0.183415	0.834185
C168	C	1.479389	0.316585	1.334185
H169	H	0.837729	-0.286668	0.726238
H170	H	1.337729	0.213332	1.226238
H171	H	0.757673	-0.206492	0.796595
H172	H	1.257673	0.293508	1.296595
H173	H	0.818421	-0.111662	0.890823
H174	H	1.318421	0.388338	1.390823
H175	H	0.959230	-0.097004	0.914696
H176	H	1.459230	0.402996	1.414696
H177	H	1.039285	-0.177180	0.844340
H178	H	1.539285	0.322820	1.344340
C179	C	0.425448	-0.387831	0.286189
C180	C	0.925448	0.112169	0.786189
C181	C	0.475276	-0.353178	0.234374
C182	C	0.975276	0.146822	0.734374
C183	C	0.511806	-0.399156	0.184387
C184	C	1.011806	0.100844	0.684387
C185	C	0.498507	-0.479787	0.186215
C186	C	0.998507	0.020213	0.686215
C187	C	0.448677	-0.514444	0.238032
C188	C	0.948677	-0.014444	0.738032
C189	C	0.412147	-0.468466	0.288019
C190	C	0.912147	0.031534	0.788019
H191	H	0.485123	-0.293487	0.233019
H192	H	0.985123	0.206513	0.733019
H193	H	0.548694	-0.373500	0.146029
H194	H	1.048694	0.126500	0.646029
H195	H	0.525549	-0.513823	0.149211
H196	H	1.025549	-0.013823	0.649211
H197	H	0.438830	-0.574135	0.239386
H198	H	0.938830	-0.074135	0.739386
H199	H	0.375259	-0.494122	0.326377
H200	H	0.875259	0.005878	0.826377
H201	H	0.757124	-0.244901	0.441520
H202	H	1.257124	0.255099	0.941520
H203	H	0.930625	-0.223910	1.099644
H204	H	1.430625	0.276090	1.599644
C205	C	1.100509	-0.724642	0.448862
C206	C	1.600509	-0.224642	0.948862
C207	C	1.180985	-0.711164	0.446962
C208	C	1.680985	-0.211164	0.946962
C209	C	1.230878	-0.751518	0.496910
C210	C	1.730878	-0.251518	0.996910
C211	C	1.200294	-0.805351	0.548758
C212	C	1.700294	-0.305351	1.048758
C213	C	1.119814	-0.818832	0.550660
C214	C	1.619814	-0.318832	1.050660
C215	C	1.069921	-0.778477	0.500712
C216	C	1.569921	-0.278477	1.000712
H217	H	1.203629	-0.671312	0.408579
H218	H	1.703629	-0.171312	0.908579
H219	H	1.290456	-0.741539	0.495502
H220	H	1.790456	-0.241539	0.995502
H221	H	1.237228	-0.835224	0.585733
H222	H	1.737228	-0.335224	1.085733
H223	H	1.097170	-0.858684	0.589043
H224	H	1.597170	-0.358684	1.089043
H225	H	1.010343	-0.788457	0.502120
H226	H	1.510343	-0.288457	1.002120
C227	C	1.120124	-0.413788	0.625650
C228	C	1.620124	0.086212	1.125650
C229	C	1.116981	-0.410692	0.544797
C230	C	1.616981	0.089308	1.044797
C231	C	1.162977	-0.456762	0.504361
C232	C	1.662977	0.043238	1.004361
C233	C	1.212117	-0.505929	0.544777
C234	C	1.712117	-0.005929	1.044777
C235	C	1.215262	-0.509027	0.625634
C236	C	1.715262	-0.009027	1.125634
C237	C	1.169266	-0.462956	0.666071
C238	C	1.669266	0.037044	1.166071
H239	H	1.080603	-0.374294	0.514874
H240	H	1.580603	0.125706	1.014874
H241	H	1.160649	-0.454469	0.444505
H242	H	1.660649	0.045531	0.944505
H243	H	1.246166	-0.540033	0.514844
H244	H	1.746166	-0.040033	1.014844
H245	H	1.251639	-0.545425	0.655557
H246	H	1.751639	-0.045425	1.155557
H247	H	1.171594	-0.465250	0.725927
H248	H	1.671594	0.034750	1.225927
H249	H	0.623345	-0.250056	0.435933
H250	H	1.123345	0.249944	0.935933
H251	H	0.610082	-0.406852	0.265471
H252	H	1.110082	0.093148	0.765471
H253	H	0.295427	-0.224247	0.464054
H254	H	0.795427	0.275753	0.964054
H255	H	1.121242	-0.910857	0.469580
H256	H	1.621242	-0.410857	0.969580
H257	H	1.115715	-1.044220	0.464012
H258	H	1.615715	-0.544220	0.964012
C259	C	0.753370	-0.413640	0.258073
C260	C	1.253370	0.086360	0.758073
C261	C	0.708796	-0.462739	0.204708
C262	C	1.208796	0.037261	0.704708
C263	C	0.745338	-0.508709	0.154723
C264	C	1.245338	-0.008709	0.654723
C265	C	0.826452	-0.505579	0.158102
C266	C	1.326452	-0.005579	0.658102
C267	C	0.871031	-0.456478	0.211469
C268	C	1.371031	0.043522	0.711469
C269	C	0.834489	-0.410509	0.261455
C270	C	1.334489	0.089491	0.761455
H271	H	0.648746	-0.465058	0.202204
H272	H	1.148746	0.034942	0.702204
H273	H	0.712337	-0.545057	0.115217
H274	H	1.212337	-0.045057	0.615217
H275	H	0.853502	-0.539609	0.121100
H276	H	1.353502	-0.039609	0.621100
H277	H	0.931081	-0.454160	0.213973
H278	H	1.431081	0.045840	0.713973
H279	H	0.867489	-0.374161	0.300960
H280	H	1.367489	0.125839	0.800960
C281	C	1.100292	-0.393760	1.110133
C282	C	1.600292	0.106240	1.610133
C283	C	1.090710	-0.473609	1.096418
C284	C	1.590710	0.026391	1.596418
C285	C	1.139817	-0.522796	1.136859
C286	C	1.639817	-0.022796	1.636859
C287	C	1.198504	-0.492133	1.191015
C288	C	1.698504	0.007867	1.691015
C289	C	1.208088	-0.412279	1.204732
C290	C	1.708088	0.087721	1.704732
C291	C	1.158982	-0.363093	1.164291
C292	C	1.658982	0.136907	1.664291
H293	H	1.047264	-0.496312	1.056327
H294	H	1.547264	0.003688	1.556327
H295	H	1.132722	-0.581909	1.126704
H296	H	1.632722	-0.081909	1.626704
H297	H	1.234856	-0.528543	1.220952
H298	H	1.734856	-0.028543	1.720952
H299	H	1.251535	-0.389577	1.244824
H300	H	1.751535	0.110423	1.744824
H301	H	1.166077	-0.303980	1.174446
H302	H	1.666077	0.196020	1.674446
C303	C	0.931809	-1.054963	0.279838
C304	C	1.431809	-0.554963	0.779838
C305	C	0.934950	-1.041586	0.200495
C306	C	1.434950	-0.541586	0.700495
C307	C	0.881723	-1.082090	0.147170
C308	C	1.381723	-0.582090	0.647170
C309	C	0.825357	-1.135971	0.173187
C310	C	1.325357	-0.635971	0.673187
C311	C	0.822215	-1.149350	0.252534
C312	C	1.322215	-0.649350	0.752534
C313	C	0.875441	-1.108846	0.305859
C314	C	1.375441	-0.608846	0.805859
H315	H	0.976677	-1.001699	0.181232
H316	H	1.476677	-0.501699	0.681232
H317	H	0.884050	-1.072186	0.088432
H318	H	1.384050	-0.572186	0.588432
H319	H	0.785956	-1.165954	0.133713
H320	H	1.285956	-0.665954	0.633713
H321	H	0.780487	-1.189238	0.271797
H322	H	1.280487	-0.689238	0.771797
H323	H	0.873115	-1.118750	0.364597
H324	H	1.373115	-0.618750	0.864597
H325	H	0.282177	-0.381050	0.293594
H326	H	0.782177	0.118950	0.793594
H327	H	0.951156	-0.911081	0.299260
H328	H	1.451156	-0.411081	0.799260
H329	H	0.917465	-0.714384	0.265570
H330	H	1.417465	-0.214384	0.765570
H331	H	0.925447	-0.218790	0.966289
H332	H	1.425447	0.281210	1.466289
H333	H	0.922989	-0.581022	0.271133
H334	H	1.422989	-0.081022	0.771133
C335	C	1.094342	-0.387817	0.955778
C336	C	1.594342	0.112183	1.455778
C337	C	1.175247	-0.379367	0.969513
C338	C	1.675247	0.120633	1.469513
C339	C	1.221279	-0.425428	0.929108
C340	C	1.721279	0.074572	1.429108
C341	C	1.186405	-0.479938	0.874967
C342	C	1.686405	0.020062	1.374967
C343	C	1.105495	-0.488391	0.861229
C344	C	1.605495	0.011609	1.361229
C345	C	1.059464	-0.442330	0.901635
C346	C	1.559464	0.057670	1.401635
H347	H	1.201067	-0.339013	1.009594
H348	H	1.701067	0.160987	1.509594
H349	H	1.281173	-0.419170	0.939277
H350	H	1.781173	0.080830	1.439277
H351	H	1.220480	-0.514035	0.845056
H352	H	1.720480	-0.014035	1.345056
H353	H	1.079676	-0.528745	0.821149
H354	H	1.579676	-0.028745	1.321149
H355	H	0.999570	-0.448588	0.891466
H356	H	1.499570	0.051412	1.391466
H357	H	1.113348	-0.406942	0.769516
H358	H	1.613348	0.093058	1.269516
