data_functionalizedCrystal
_audit_creation_method	'MofGen! by Chris Wilmer'
_symmetry_space_group_name_H-M	'P1'
_symmetry_Int_Tables_number	1
_symmetry_cell_setting	triclinic
loop_
_symmetry_equiv_pos_as_xyz
  x,y,z
_cell_length_a	10.723024
_cell_length_b	17.038272
_cell_length_c	9.198806
_cell_angle_alpha	89.996565
_cell_angle_beta	89.996352
_cell_angle_gamma	87.789713
loop_
_atom_site_label
_atom_site_type_symbol
_atom_site_fract_x
_atom_site_fract_y
_atom_site_fract_z
O1	O	1.667337	0.109720	-0.120885
O2	O	1.305156	0.120222	-0.120890
O3	O	1.484094	0.001144	-0.120876
O4	O	1.488399	0.228799	-0.120899
O5	O	1.484079	0.001144	0.120909
O6	O	1.305141	0.120222	0.120895
O7	O	1.667322	0.109720	0.120900
Cu8	Cu	1.486230	0.114971	0.142975
Cu9	Cu	1.486248	0.114971	-0.142964
O10	O	1.488384	0.228798	0.120886
C11	C	1.258578	0.119458	0.000002
C12	C	1.119813	0.117171	0.000000
C13	C	1.050993	0.183801	-0.000007
C14	C	0.907571	0.181440	-0.000009
C15	C	1.480171	-0.028006	0.000016
C16	C	1.468489	-0.114864	0.000016
C17	C	1.575744	-0.164385	0.000019
C18	C	1.564760	-0.245996	0.000005
C19	C	1.446520	-0.278084	-0.000002
C20	C	1.339256	-0.228557	-0.000009
C21	C	1.350241	-0.146947	-0.000006
C22	C	1.407711	-0.524057	-0.000022
C23	C	1.396734	-0.605673	-0.000021
C24	C	1.622239	-0.623107	-0.000010
C25	C	1.633214	-0.541495	0.000002
C26	C	1.525950	-0.491974	-0.000013
C27	C	1.435289	-0.361504	-0.000011
C28	C	1.537182	-0.408556	-0.000014
C29	C	1.713900	0.110484	0.000005
C30	C	1.852666	0.112771	-0.000003
C31	C	1.492307	0.257948	-0.000009
C32	C	1.503989	0.344806	-0.000018
N33	N	1.486226	0.114970	0.344089
N34	N	1.486261	0.114966	-0.344078
C35	C	1.561337	0.064752	0.416291
C36	C	1.561356	0.064749	0.583704
H37	H	1.672028	-0.138265	0.000033
H38	H	1.625624	0.021757	0.354170
H39	H	1.652100	-0.286314	0.000011
C40	C	1.619679	-0.070326	0.630837
C41	C	1.648168	0.006703	0.667513
H42	H	1.673280	-0.106161	0.682574
H43	H	1.535397	-0.079130	0.655736
H44	H	1.631059	-0.077930	0.529326
H45	H	1.636779	0.014309	0.769022
H46	H	1.732470	0.015511	0.642623
C47	C	1.758985	-0.433985	-0.000011
C48	C	1.667151	-0.373288	-0.000014
H49	H	1.839221	-0.412204	-0.000018
H50	H	1.750010	-0.465453	0.084301
H51	H	1.750014	-0.465453	-0.084332
H52	H	1.676116	-0.341822	0.084313
H53	H	1.676130	-0.341806	-0.084334
H54	H	0.848415	0.238480	-0.000021
H55	H	0.911814	0.055727	-0.000005
C56	C	1.740717	-0.724987	-0.124313
C57	C	1.740139	-0.677540	-0.000014
H58	H	1.813512	-0.758587	-0.124321
H59	H	1.668737	-0.755775	-0.124302
H60	H	1.740316	-0.692774	-0.208615
H61	H	1.740532	-0.709753	0.084289
H62	H	1.812139	-0.646749	-0.000012
H63	H	1.421931	0.157959	0.406212
C64	C	1.330016	0.219446	0.670920
C65	C	1.399445	0.173014	0.572123
H66	H	1.276426	0.255285	0.619175
H67	H	1.281462	0.186742	0.730294
H68	H	1.385077	0.247811	0.730280
H69	H	1.344384	0.144645	0.512770
H70	H	1.448002	0.205722	0.512724
C71	C	1.244513	0.250151	-0.000008
C72	C	1.114780	0.263175	-0.000012
H73	H	1.283886	0.299155	-0.000019
H74	H	1.268812	0.221239	0.084305
H75	H	1.268823	0.221235	-0.084327
H76	H	1.090468	0.292086	0.084313
H77	H	1.090471	0.292098	-0.084334
H78	H	1.729498	-0.515375	0.000008
H79	H	1.339017	-0.387640	-0.000014
H80	H	1.300443	-0.631796	-0.000003
C81	C	0.981505	0.032276	-0.124293
C82	C	1.056029	0.037797	0.000002
H83	H	0.942138	-0.016730	-0.124294
H84	H	0.919749	0.073767	-0.124284
H85	H	1.032093	0.036035	-0.208598
H86	H	1.005439	0.034044	0.084307
H87	H	1.117792	-0.003706	0.000006
C88	C	1.183709	-0.515034	0.000000
C89	C	1.289808	-0.469631	-0.000011
H90	H	1.110919	-0.481429	0.000021
H91	H	1.184117	-0.547220	-0.084314
H92	H	1.184130	-0.547235	0.084319
H93	H	1.289391	-0.437434	-0.084335
H94	H	1.289400	-0.437431	0.084312
C95	C	1.196096	-0.310220	-0.124304
C96	C	1.209285	-0.263829	-0.000016
H97	H	1.115858	-0.331998	-0.124298
H98	H	1.205066	-0.278743	-0.208605
H99	H	1.258410	-0.351391	-0.124286
H100	H	1.146976	-0.222655	-0.000040
H101	H	1.200302	-0.295309	0.084306
C102	C	1.126238	-0.137907	-0.000006
C103	C	1.232343	-0.092510	-0.000005
H104	H	1.053452	-0.104298	-0.000002
H105	H	1.126652	-0.170096	-0.084315
H106	H	1.126644	-0.170104	0.084317
H107	H	1.231942	-0.060316	-0.084334
H108	H	1.231929	-0.060307	0.084313
