data_functionalizedCrystal
_audit_creation_method	'MofGen! by Chris Wilmer'
_symmetry_space_group_name_H-M	'P1'
_symmetry_Int_Tables_number	1
_symmetry_cell_setting	triclinic
loop_
_symmetry_equiv_pos_as_xyz
  x,y,z
_cell_length_a	12.837942
_cell_length_b	17.699083
_cell_length_c	16.176319
_cell_angle_alpha	90.001389
_cell_angle_beta	89.994101
_cell_angle_gamma	90.944022
loop_
_atom_site_label
_atom_site_type_symbol
_atom_site_fract_x
_atom_site_fract_y
_atom_site_fract_z
O1	O	0.131067	-1.013708	-0.068629
O2	O	0.148119	-0.794582	-0.068656
O3	O	-0.011297	-0.899286	-0.068638
O4	O	0.290484	-0.909004	-0.068647
O5	O	-0.011307	-0.899269	0.068855
O6	O	0.148109	-0.794565	0.068837
O7	O	0.131057	-1.013691	0.068864
Cu8	Cu	0.139582	-0.904126	0.081405
Cu9	Cu	0.139594	-0.904146	-0.081197
O10	O	0.290474	-0.908987	0.068846
C11	C	0.147503	-0.766332	0.000087
C12	C	0.145670	-0.682179	0.000077
C13	C	-0.049915	-0.895995	0.000108
C14	C	-0.164967	-0.886204	0.000105
C15	C	0.131673	-1.041941	0.000119
C16	C	0.133506	-1.126094	0.000124
C17	C	-0.406222	-1.003908	0.000102
C18	C	-0.514324	-0.994712	0.000100
C19	C	-0.489277	-0.858617	0.000092
C20	C	-0.381174	-0.867813	0.000094
C21	C	-0.339651	-0.940461	0.000101
C22	C	-0.231546	-0.949656	0.000109
C23	C	-0.206501	-0.813561	0.000095
C24	C	-0.314604	-0.804365	0.000093
C25	C	0.329091	-0.912278	0.000099
C26	C	0.444144	-0.922069	0.000096
N27	N	0.139573	-0.904118	0.195770
C28	C	0.239245	-0.640432	0.000074
C29	C	0.237516	-0.561362	0.000085
C30	C	0.142212	-0.524040	0.000092
C31	C	0.048631	-0.565792	0.000097
C32	C	0.050360	-0.644861	0.000093
C33	C	0.041653	-0.246916	0.000118
C34	C	0.039931	-0.167842	0.000120
C35	C	0.228809	-0.163418	0.000111
C36	C	0.230539	-0.242486	0.000106
C37	C	0.136958	-0.284232	0.000115
C38	C	0.138833	-0.369969	0.000105
C39	C	0.140336	-0.438304	0.000097
N40	N	0.139595	-0.904160	-0.195562
C41	C	0.069012	-0.950499	0.239042
C42	C	0.069011	-0.950502	0.325589
C43	C	0.139577	-0.904129	0.368863
C44	C	0.210141	-0.857743	0.325584
C45	C	0.210136	-0.857736	0.239039
C46	C	0.210161	-0.857771	0.674613
C47	C	0.210162	-0.857783	0.761164
C48	C	0.069035	-0.950537	0.761163
C49	C	0.069031	-0.950530	0.674617
C50	C	0.139591	-0.904141	0.631347
C51	C	0.139590	-0.904137	0.537503
C52	C	0.139584	-0.904137	0.462705
H53	H	-0.197740	-1.008809	0.000117
H54	H	-0.152287	-0.761898	0.000100
H55	H	0.267594	-0.819981	0.360823
O56	O	-0.529796	-0.788106	0.000120
C57	C	-0.639485	-0.793600	0.000092
H58	H	-0.665012	-0.850824	0.026124
H59	H	-0.672587	-0.746646	0.040004
H60	H	-0.669554	-0.787772	-0.065873
O61	O	-0.366051	-1.074527	0.000073
C62	C	-0.447991	-1.128558	0.000099
H63	H	-0.521378	-1.102058	-0.025933
H64	H	-0.425509	-1.178809	-0.039815
H65	H	-0.463345	-1.148497	0.066063
O66	O	0.328384	-0.520774	0.000221
C67	C	0.333030	-0.474892	0.071421
H68	H	0.279967	-0.499979	0.121199
H69	H	0.416541	-0.472033	0.095309
H70	H	0.306341	-0.415563	0.055328
O71	O	-0.355069	-0.733838	-0.000022
C72	C	-0.416816	-0.724442	-0.071244
H73	H	-0.443877	-0.782145	-0.094986
H74	H	-0.487538	-0.689177	-0.055231
H75	H	-0.368965	-0.694406	-0.121105
H76	H	0.267593	-0.819967	0.203807
H77	H	-0.025837	-0.678850	0.000094
H78	H	-0.568524	-1.046378	0.000098
H79	H	-0.037681	-0.137457	0.000128
O80	O	-0.044039	-0.529659	0.000139
C81	C	-0.126260	-0.583464	0.000119
H82	H	-0.097343	-0.639177	0.026149
H83	H	-0.192816	-0.562167	0.040036
H84	H	-0.155106	-0.592556	-0.065844
O85	O	0.278746	-0.812658	0.803073
C86	C	0.341039	-0.771724	0.746324
H87	H	0.298547	-0.767801	0.684636
H88	H	0.356943	-0.712433	0.771341
H89	H	0.417997	-0.801835	0.737108
H90	H	-0.034546	-0.280896	0.000126
O91	O	0.331915	-0.676565	0.000103
C92	C	0.414134	-0.622758	0.000083
H93	H	0.385211	-0.567046	0.026118
H94	H	0.480683	-0.644055	0.039998
H95	H	0.442994	-0.613665	-0.065879
O96	O	0.000617	-0.995600	0.367719
C97	C	0.056056	-1.046296	0.417754
H98	H	0.137209	-1.021997	0.430709
H99	H	0.012782	-1.055153	0.478618
H100	H	0.063007	-1.102729	0.384395
H101	H	0.308145	-0.272870	0.000096
H102	H	0.305007	-0.129419	0.000107
H103	H	0.011554	-0.988264	0.203815
O104	O	0.000383	-0.995597	0.632711
C105	C	-0.061882	-1.036549	0.689464
H106	H	-0.062996	-1.005447	0.751162
H107	H	-0.144675	-1.042123	0.664466
H108	H	-0.028327	-1.095191	0.698655
O109	O	0.278758	-0.812827	0.632500
C110	C	0.342646	-0.857962	0.582446
H111	H	0.301255	-0.914194	0.569467
H112	H	0.359112	-0.827550	0.521594
H113	H	0.419231	-0.868638	0.615799
H114	H	0.011578	-0.988306	0.796403
