data_functionalizedCrystal
_audit_creation_method	'MofGen! by Chris Wilmer'
_symmetry_space_group_name_H-M	'P1'
_symmetry_Int_Tables_number	1
_symmetry_cell_setting	triclinic
loop_
_symmetry_equiv_pos_as_xyz
  x,y,z
_cell_length_a	16.992694
_cell_length_b	16.992695
_cell_length_c	15.455313
_cell_angle_alpha	92.847427
_cell_angle_beta	87.142206
_cell_angle_gamma	90.668223
loop_
_atom_site_label
_atom_site_type_symbol
_atom_site_fract_x
_atom_site_fract_y
_atom_site_fract_z
O1	O	1.054080	0.163694	-0.072023
O2	O	0.825681	0.161862	-0.072048
O3	O	0.938965	0.048579	-0.072029
O4	O	0.940797	0.276978	-0.072042
O5	O	0.932485	0.055028	0.072232
O6	O	0.819202	0.168312	0.072213
O7	O	1.047601	0.170144	0.072238
Cu8	Cu	0.932809	0.169817	0.085398
Cu9	Cu	0.940473	0.162189	-0.085207
O10	O	0.934317	0.283428	0.072219
C11	C	0.793081	0.162731	0.000079
C12	C	0.705597	0.155702	0.000070
C13	C	0.659607	0.223520	0.000066
C14	C	0.577405	0.216911	0.000079
C15	C	0.541197	0.142484	0.000088
C16	C	0.587193	0.074661	0.000094
C17	C	0.669393	0.081271	0.000088
C18	C	0.295881	0.115091	0.000113
C19	C	0.213676	0.108486	0.000116
C20	C	0.203893	0.250737	0.000103
C21	C	0.286095	0.257340	0.000091
C22	C	0.332084	0.189517	0.000102
N23	N	0.457174	0.135727	0.000098
N24	N	0.416105	0.196275	0.000098
C25	C	0.933369	0.022443	0.000102
C26	C	0.926341	-0.065041	0.000101
C27	C	0.994158	-0.111032	0.000109
C28	C	0.987550	-0.193233	0.000100
C29	C	0.913123	-0.229442	0.000089
C30	C	0.845300	-0.183445	0.000078
C31	C	0.851910	-0.101246	0.000081
C32	C	0.885729	-0.474757	0.000074
C33	C	0.879124	-0.556962	0.000074
C34	C	1.021375	-0.566744	0.000094
C35	C	1.027977	-0.484543	0.000102
C36	C	0.960155	-0.438554	0.000087
N37	N	0.906366	-0.313464	0.000082
N38	N	0.966913	-0.354533	0.000087
C39	C	1.080201	0.169275	0.000109
C40	C	1.167685	0.176304	0.000113
C41	C	0.939913	0.309563	0.000087
C42	C	0.946942	0.397047	0.000082
N43	N	0.927425	0.175181	0.205392
N44	N	0.945863	0.156819	-0.205202
C45	C	0.975571	0.127074	0.250795
C46	C	0.971507	0.131139	0.341602
C47	C	0.919301	0.183315	0.387005
C48	C	0.871149	0.231424	0.341596
C49	C	0.875210	0.227355	0.250791
C50	C	0.901772	0.200858	0.658584
C51	C	0.897717	0.204926	0.749395
C52	C	0.998074	0.104639	0.749395
C53	C	1.002133	0.100578	0.658588
C54	C	0.953979	0.148684	0.613187
N55	N	0.915147	0.187473	0.479825
N56	N	0.958129	0.144522	0.520369
H57	H	0.706838	0.026046	0.000090
H58	H	0.818513	-0.586440	0.000079
H59	H	0.184198	0.047876	0.000123
O60	O	0.855084	0.247710	0.614533
C61	C	0.818740	0.380432	0.586792
C62	C	0.871676	0.327459	0.636720
H63	H	0.832123	0.444919	0.604726
H64	H	0.830603	0.368637	0.514080
H65	H	0.754257	0.366947	0.604655
H66	H	0.936177	0.340912	0.618930
H67	H	0.859745	0.339263	0.709420
H68	H	1.018087	0.084591	0.213834
O69	O	1.052550	0.049535	0.614585
C70	C	1.066515	-0.062064	0.512748
C71	C	1.009455	-0.004096	0.562382
H72	H	1.031694	-0.105450	0.470544
H73	H	1.110095	-0.028002	0.469971
H74	H	1.100003	-0.095690	0.561039
H75	H	0.975913	0.029544	0.514154
H76	H	0.965926	-0.038203	0.605172
H77	H	0.315570	0.317946	0.000074
H78	H	1.037278	0.065473	0.786369
H79	H	0.689081	0.284126	0.000058
O80	O	0.846883	0.255518	0.793467
C81	C	0.711652	0.294238	0.821245
C82	C	0.769128	0.236885	0.771293
H83	H	0.648777	0.279205	0.803321
H84	H	0.716960	0.288874	0.893953
H85	H	0.726683	0.357137	0.803394
H86	H	0.754135	0.173962	0.789071
H87	H	0.763810	0.242318	0.698596
H88	H	1.076591	-0.604197	0.000106
O89	O	0.820392	0.282001	0.385796
C90	C	0.709324	0.296547	0.488295
C91	C	0.766765	0.239181	0.438311
H92	H	0.665942	0.261949	0.530751
H93	H	0.743827	0.339917	0.530853
H94	H	0.675645	0.330249	0.440230
H95	H	0.800459	0.205425	0.486313
H96	H	0.732218	0.195863	0.395740
H97	H	1.010711	0.091966	0.378568
H98	H	0.836004	0.266527	0.213825
H99	H	0.166440	0.305954	0.000096
H100	H	0.333316	0.059864	0.000122
O101	O	0.532849	0.282868	0.000036
C102	C	0.531818	0.424660	0.000071
C103	C	0.582373	0.350025	0.000097
H104	H	0.571837	0.478976	0.000139
H105	H	0.495808	0.422476	-0.060311
H106	H	0.490372	0.427780	0.060435
H107	H	0.623863	0.346858	-0.060227
H108	H	0.618329	0.352240	0.060519
H109	H	0.830503	-0.437322	0.000061
H110	H	1.088584	-0.455068	0.000112
H111	H	0.557705	0.014061	0.000114
O112	O	1.066520	-0.075991	0.000079
C113	C	1.206912	-0.094377	0.000139
C114	C	1.125011	-0.134160	0.000158
H115	H	1.254223	-0.141387	0.000220
H116	H	1.216326	-0.058860	-0.060248
H117	H	1.210814	-0.053418	0.060498
H118	H	1.121051	-0.175155	-0.060161
H119	H	1.115632	-0.169628	0.060584
O120	O	0.773060	-0.218741	0.000105
C121	C	0.699835	-0.341037	0.000046
C122	C	0.781696	-0.301169	0.000032
H123	H	0.706790	-0.407687	-0.000032
H124	H	0.663333	-0.319822	0.060429
H125	H	0.668776	-0.325111	-0.060317
H126	H	0.812821	-0.317077	0.060354
H127	H	0.818140	-0.322385	-0.060391
H128	H	1.042774	-0.230675	0.000109
H129	H	0.796685	-0.063801	0.000073
