data_functionalizedCrystal
_audit_creation_method	'MofGen! by Chris Wilmer'
_symmetry_space_group_name_H-M	'P1'
_symmetry_Int_Tables_number	1
_symmetry_cell_setting	triclinic
loop_
_symmetry_equiv_pos_as_xyz
  x,y,z
_cell_length_a	21.606444
_cell_length_b	12.970454
_cell_length_c	12.970454
_cell_angle_alpha	59.999644
_cell_angle_beta	90.000966
_cell_angle_gamma	60.000552
loop_
_atom_site_label
_atom_site_type_symbol
_atom_site_fract_x
_atom_site_fract_y
_atom_site_fract_z
Zr1	Zr	0.596234	1.128521	-0.135290
O2	O	0.497409	1.343612	-0.299919
O3	O	0.626529	0.913429	-0.084822
O4	O	0.626529	1.128521	-0.299914
O5	O	0.497410	1.128520	0.084841
O6	O	0.728381	1.128521	-0.299912
O7	O	0.497409	1.128520	-0.084827
O8	O	0.728382	0.743761	0.084849
O9	O	0.497409	1.513280	-0.299919
O10	O	0.715461	1.001899	-0.063297
O11	O	0.639450	1.001899	0.063322
O12	O	0.639449	1.255142	-0.189921
O13	O	0.563439	1.255141	-0.063302
Zr14	Zr	0.758677	1.128519	0.135314
Zr15	Zr	0.758676	1.128520	-0.135286
Zr16	Zr	0.596235	1.128519	0.135310
Zr17	Zr	0.596234	1.399120	-0.135292
Zr18	Zr	0.758677	0.857919	0.135315
O19	O	0.728382	1.343610	0.084846
O20	O	0.728381	1.343612	-0.299913
O21	O	0.497410	1.343610	0.084840
O22	O	0.857502	0.913427	0.299942
O23	O	0.857501	0.913429	-0.084816
O24	O	0.626530	0.913427	0.299936
O25	O	0.857501	1.128520	-0.084817
O26	O	0.728382	1.128518	0.299938
O27	O	0.626530	1.128518	0.299935
O28	O	0.857502	1.128519	0.084850
O29	O	0.626529	1.513280	-0.299916
O30	O	0.728382	0.743760	0.299939
O31	O	0.857502	0.743760	0.299943
O32	O	0.857501	0.743761	0.084852
O33	O	0.497409	1.513279	-0.084829
O34	O	0.626529	1.513278	-0.084825
O35	O	0.715461	1.001898	0.189945
O36	O	0.791472	1.001898	0.063326
O37	O	0.715461	1.255141	-0.063298
O38	O	0.639450	1.255140	0.063320
C39	C	0.677455	0.790040	0.000013
C40	C	0.677455	0.675164	0.000014
C41	C	0.474265	1.128520	0.000006
C42	C	0.405304	1.128520	0.000005
C43	C	0.372906	1.128525	-0.093470
C44	C	0.308112	1.128518	-0.093465
C45	C	0.275714	1.128516	0.000010
C46	C	0.308119	1.128507	0.093494
C47	C	0.372915	1.128504	0.093493
C48	C	0.046805	1.128517	0.093498
C49	C	-0.017997	1.128525	0.093489
C50	C	-0.017998	1.128531	-0.093460
C51	C	0.046798	1.128528	-0.093461
C52	C	0.079199	1.128511	0.000026
C53	C	0.149457	1.128517	0.000022
C54	C	0.205455	1.128521	0.000010
C55	C	0.880646	1.128519	0.000017
C56	C	0.949607	1.128519	0.000019
C57	C	0.677455	1.128521	-0.338468
C58	C	0.677454	1.128522	-0.453344
C59	C	0.677456	1.466999	0.000010
C60	C	0.677456	1.581876	0.000009
C61	C	0.677456	1.128518	0.338491
C62	C	0.677457	1.128517	0.453368
C63	C	0.880646	0.790040	0.000019
C64	C	0.949607	0.675163	0.000021
C65	C	0.677456	0.790039	0.338493
C66	C	0.677457	0.675161	0.453370
C67	C	0.880647	0.790038	0.338498
C68	C	0.949608	0.675161	0.453377
C69	C	0.474264	1.467001	-0.338475
C70	C	0.405303	1.581878	-0.453354
C71	C	0.474265	1.466999	0.000005
C72	C	0.405304	1.581876	0.000002
C73	C	0.677455	1.467001	-0.338469
C74	C	0.677454	1.581878	-0.453347
C75	C	0.942314	0.621216	-0.066085
C76	C	1.007104	0.513292	-0.066108
C77	C	1.079186	0.459310	-0.000017
C78	C	1.086477	0.513267	0.066091
C79	C	1.021687	0.621197	0.066106
C80	C	1.021676	0.621214	0.441232
C81	C	1.086479	0.513289	0.549162
C82	C	1.079212	0.459307	0.669237
C83	C	1.007135	0.513265	0.681380
C84	C	0.942334	0.621195	0.573451
C85	C	0.333235	1.635839	-0.441208
C86	C	0.268432	1.743797	-0.549139
C87	C	0.275699	1.797785	-0.669214
C88	C	0.347776	1.743820	-0.681357
C89	C	0.412577	1.635872	-0.573427
C90	C	0.412597	1.635834	0.066097
C91	C	0.347807	1.743788	0.066090
C92	C	0.275725	1.797775	-0.000005
C93	C	0.268434	1.743812	-0.066107
C94	C	0.333223	1.635867	-0.066107
H95	H	0.281733	1.128520	-0.169579
O96	O	0.482640	1.583359	-0.585010
C97	C	0.538285	1.476484	-0.464012
H98	H	0.513047	1.494167	-0.392441
H99	H	0.588241	1.485278	-0.465220
H100	H	0.558565	1.363588	-0.436531
H101	H	0.209751	1.787717	-0.539227
H102	H	1.027608	0.665150	0.343470
H103	H	1.145161	0.469367	0.539253
O104	O	0.404281	1.128779	0.184178
C105	C	0.350744	1.254364	0.178254
H106	H	0.306580	1.342138	0.079669
H107	H	0.380702	1.296533	0.199557
H108	H	0.321660	1.225975	0.250744
H109	H	0.073180	1.128508	0.169617
H110	H	0.222928	1.885683	-0.757087
H111	H	0.471283	1.591887	0.119928
O112	O	0.078192	1.128464	-0.184322
C113	C	0.035691	1.128501	-0.266844
H114	H	0.003281	1.082594	-0.216487
H115	H	0.075545	1.058091	-0.297012
H116	H	-0.006119	1.244843	-0.353760
O117	O	0.355034	1.795979	0.130426
C118	C	0.432549	1.725184	0.188747
H119	H	0.467089	1.615786	0.201821
H120	H	0.441587	1.706566	0.284767
H121	H	0.451653	1.795952	0.126816
H122	H	0.222976	1.885670	0.000006
O123	O	0.872369	0.673603	0.585420
C124	C	0.864058	0.736062	0.651984
H125	H	0.922387	0.687327	0.711535
H126	H	0.829995	0.712357	0.716169
H127	H	0.833073	0.859005	0.582077
H128	H	0.883628	0.665168	-0.119920
O129	O	0.276755	1.128250	0.184451
C130	C	0.330291	1.002671	0.304121
H131	H	0.374449	0.914881	0.293324
H132	H	0.300331	0.960522	0.367600
H133	H	0.359383	1.031063	0.348206
O134	O	-0.049419	1.128272	-0.184113
C135	C	-0.049216	1.002693	-0.126910
H136	H	-0.003340	0.914906	-0.029972
H137	H	-0.037298	0.960540	-0.188508
H138	H	-0.106845	1.031085	-0.115995
O139	O	0.999877	0.460995	-0.130338
C140	C	0.922361	0.531804	-0.188673
H141	H	0.887822	0.576269	-0.136813
H142	H	0.913324	0.450839	-0.185110
H143	H	0.903257	0.625560	-0.291265
H144	H	1.131935	0.371425	-0.000038
O145	O	0.198355	1.796369	-0.130191
C146	C	0.142743	1.903231	-0.116026
H147	H	0.168013	1.885495	-0.026761
H148	H	0.092775	1.894478	-0.108434
H149	H	0.122473	2.016129	-0.201427
O150	O	-0.049350	1.128450	0.184425
C151	C	-0.006869	1.128468	0.266924
H152	H	0.053100	1.082553	0.262481
H153	H	-0.004460	1.058055	0.367500
H154	H	-0.034894	1.244805	0.237504
H155	H	0.327275	1.591938	-0.119926
H156	H	0.327303	1.591888	-0.343447
O157	O	1.028912	0.673377	0.130449
C158	C	1.106428	0.602599	0.188750
H159	H	1.140971	0.493210	0.201806
H160	H	1.115474	0.583963	0.284777
H161	H	1.125520	0.673388	0.126813
H162	H	1.145174	0.469299	0.119900
O163	O	0.404297	1.128462	-0.184333
C164	C	0.361794	1.128498	-0.266851
H165	H	0.329386	1.082589	-0.216489
H166	H	0.401645	1.058089	-0.297022
H167	H	0.319982	1.244840	-0.353766
O168	O	1.142220	0.354595	0.773979
C169	C	1.185617	0.407375	0.773777
H170	H	1.171426	0.499205	0.672977
H171	H	1.248474	0.315206	0.813463
H172	H	1.172046	0.450389	0.834727
H173	H	1.001229	0.469296	0.779160
H174	H	0.353684	1.787791	-0.779135
