data_functionalizedCrystal
_audit_creation_method	'MofGen! by Chris Wilmer'
_symmetry_space_group_name_H-M	'P1'
_symmetry_Int_Tables_number	1
_symmetry_cell_setting	triclinic
loop_
_symmetry_equiv_pos_as_xyz
  x,y,z
_cell_length_a	13.032721
_cell_length_b	11.169417
_cell_length_c	11.169409
_cell_angle_alpha	90.021683
_cell_angle_beta	97.146003
_cell_angle_gamma	82.796695
loop_
_atom_site_label
_atom_site_type_symbol
_atom_site_fract_x
_atom_site_fract_y
_atom_site_fract_z
Zn1	Zn	-0.415978	-1.774202	-0.739228
Zn2	Zn	0.084022	-1.274202	-0.239228
Zn3	Zn	-0.590765	-1.748560	-0.564019
Zn4	Zn	-0.090765	-1.248560	-0.064019
Zn5	Zn	-0.416036	-1.573479	-0.538565
Zn6	Zn	0.083964	-1.073479	-0.038565
Zn7	Zn	-0.590674	-1.547978	-0.764644
Zn8	Zn	-0.090674	-1.047978	-0.264644
O9	O	-0.503363	-1.661055	-0.651614
O10	O	-0.003363	-1.161055	-0.151614
O11	O	-0.439178	-1.938748	-0.716003
O12	O	0.060822	-1.438748	-0.216003
O13	O	-0.567649	-1.725277	-0.392702
O14	O	-0.067649	-1.225277	0.107298
O15	O	-0.269792	-1.621509	-0.543893
O16	O	0.230208	-1.121509	-0.043893
O17	O	-0.567593	-1.919909	-0.587277
O18	O	-0.067593	-1.419909	-0.087277
O19	O	-0.269750	-1.768979	-0.691320
O20	O	0.230250	-1.268979	-0.191320
O21	O	-0.439276	-1.596645	-0.374000
O22	O	0.060724	-1.096645	0.126000
O23	O	-0.439188	-1.402149	-0.568538
O24	O	0.060812	-0.902149	-0.068538
O25	O	-0.567438	-1.578045	-0.929214
O26	O	-0.067438	-1.078045	-0.429214
O27	O	-0.567494	-1.383413	-0.734638
O28	O	-0.067494	-0.883413	-0.234638
O29	O	-0.439089	-1.744251	-0.910541
O30	O	0.060911	-1.244251	-0.410541
O31	O	-0.736989	-1.700549	-0.611922
O32	O	-0.236989	-1.200549	-0.111922
O33	O	-0.736922	-1.553182	-0.759321
O34	O	-0.236922	-1.053182	-0.259321
C35	C	-0.503338	-1.349234	-0.651585
C36	C	-0.003338	-0.849234	-0.151585
C37	C	-0.503353	-1.215831	-0.651605
C38	C	-0.003353	-0.715831	-0.151605
C39	C	-0.774873	-1.621348	-0.691168
C40	C	-0.274873	-1.121348	-0.191168
C41	C	-0.891026	-1.604472	-0.708129
C42	C	-0.391026	-1.104472	-0.208129
C43	C	-0.942809	-1.669926	-0.642816
C44	C	-0.442809	-1.169926	-0.142816
C45	C	-1.062860	-1.652485	-0.660345
C46	C	-0.562860	-1.152485	-0.160345
C47	C	-0.230793	-1.700949	-0.611932
C48	C	0.269207	-1.200949	-0.111932
C49	C	-0.114640	-1.717949	-0.595022
C50	C	0.385360	-1.217949	-0.095022
C51	C	-0.503247	-1.661164	-0.964640
C52	C	-0.003247	-1.161164	-0.464640
C53	C	-0.503198	-1.661210	-1.098033
C54	C	-0.003198	-1.161210	-0.598033
C55	C	-0.503380	-0.974094	-0.651634
C56	C	-0.003380	-0.474094	-0.151634
C57	C	-0.503365	-1.107497	-0.651614
C58	C	-0.003365	-0.607497	-0.151614
C59	C	-0.503403	-1.661026	-0.339795
C60	C	-0.003403	-1.161026	0.160205
C61	C	-0.503159	-1.661255	-0.206360
C62	C	-0.003159	-1.161255	0.293640
H63	H	-1.107399	-1.583535	-0.729248
H64	H	-0.607399	-1.083535	-0.229248
Br65	Br	-0.868579	-1.784865	-0.527994
Br66	Br	-0.368579	-1.284865	-0.027994
Br67	Br	-1.040417	-1.832891	-0.480192
Br68	Br	-0.540417	-1.332891	0.019808
Br69	Br	-0.965257	-1.489555	-0.822973
Br70	Br	-0.465257	-0.989555	-0.322973
