data_functionalizedCrystal
_audit_creation_method	'MofGen! by Chris Wilmer'
_symmetry_space_group_name_H-M	'P1'
_symmetry_Int_Tables_number	1
_symmetry_cell_setting	triclinic
loop_
_symmetry_equiv_pos_as_xyz
  x,y,z
_cell_length_a	16.625547
_cell_length_b	11.169416
_cell_length_c	11.169409
_cell_angle_alpha	89.969184
_cell_angle_beta	89.971854
_cell_angle_gamma	90.010278
loop_
_atom_site_label
_atom_site_type_symbol
_atom_site_fract_x
_atom_site_fract_y
_atom_site_fract_z
Zn1	Zn	1.232775	-0.477712	-0.678798
Zn2	Zn	1.232699	-0.678453	-0.478120
Zn3	Zn	1.097929	-0.477782	-0.478106
Zn4	Zn	1.097936	-0.678352	-0.678738
O5	O	1.165335	-0.578075	-0.578440
O6	O	1.345597	-0.504354	-0.652208
O7	O	1.214787	-0.651905	-0.310168
O8	O	1.115846	-0.309823	-0.504747
O9	O	1.345541	-0.651837	-0.504771
O10	O	1.214916	-0.309772	-0.652195
O11	O	1.115772	-0.504473	-0.310158
O12	O	0.985097	-0.504375	-0.504689
O13	O	1.115857	-0.651665	-0.846696
O14	O	0.985102	-0.651733	-0.652093
O15	O	1.214923	-0.504256	-0.846740
O16	O	1.214793	-0.846389	-0.504713
O17	O	1.115783	-0.846315	-0.652107
C18	C	1.165303	-0.889900	-0.578431
C19	C	1.165363	-1.023300	-0.578467
C20	C	0.955844	-0.578052	-0.578384
C21	C	0.866223	-0.578071	-0.578388
C22	C	0.793440	-0.578073	-0.578403
C23	C	0.702132	-0.578079	-0.578433
C24	C	0.629355	-0.578090	-0.578463
C25	C	0.538041	-0.578098	-0.578492
C26	C	1.375643	-0.578099	-0.578498
C27	C	1.465265	-0.578109	-0.578522
C28	C	1.165399	-0.577942	-0.891483
C29	C	1.165427	-0.577885	-1.024883
C30	C	1.165389	-0.265033	-0.578476
C31	C	1.165412	-0.131633	-0.578491
C32	C	1.165317	-0.578121	-0.266616
C33	C	1.165445	-0.577839	-0.133216
