data_functionalizedCrystal
_audit_creation_method	'MofGen! by Chris Wilmer'
_symmetry_space_group_name_H-M	'P1'
_symmetry_Int_Tables_number	1
_symmetry_cell_setting	triclinic
loop_
_symmetry_equiv_pos_as_xyz
  x,y,z
_cell_length_a	19.077236
_cell_length_b	14.909042
_cell_length_c	19.076919
_cell_angle_alpha	90.890210
_cell_angle_beta	90.112677
_cell_angle_gamma	88.878557
loop_
_atom_site_label
_atom_site_type_symbol
_atom_site_fract_x
_atom_site_fract_y
_atom_site_fract_z
Zn1	Zn	1.073563	-0.325968	0.426503
Zn2	Zn	1.406896	0.007365	0.759837
Zn3	Zn	1.740230	0.340699	1.093170
Zn4	Zn	1.084945	-0.469875	0.302799
Zn5	Zn	1.418278	-0.136542	0.636133
Zn6	Zn	1.751612	0.196791	0.969466
Zn7	Zn	0.960756	-0.325497	0.304304
Zn8	Zn	1.294090	0.007836	0.637637
Zn9	Zn	1.627423	0.341169	0.970970
Zn10	Zn	0.963326	-0.481855	0.415021
Zn11	Zn	1.296659	-0.148522	0.748355
Zn12	Zn	1.629992	0.184811	1.081688
O13	O	1.020647	-0.400799	0.362157
O14	O	1.353981	-0.067466	0.695490
O15	O	1.687314	0.265868	1.028824
O16	O	1.173181	-0.340241	0.414269
O17	O	1.506514	-0.006908	0.747603
O18	O	1.839848	0.326426	1.080936
O19	O	1.072159	-0.445513	0.204892
O20	O	1.405493	-0.112179	0.538226
O21	O	1.738826	0.221154	0.871559
O22	O	0.969882	-0.199898	0.325949
O23	O	1.303215	0.133436	0.659282
O24	O	1.636549	0.466769	0.992615
O25	O	1.181543	-0.445969	0.323384
O26	O	1.514877	-0.112636	0.656718
O27	O	1.848210	0.220698	0.990051
O28	O	1.052760	-0.200244	0.415728
O29	O	1.386094	0.133090	0.749062
O30	O	1.719427	0.466423	1.082395
O31	O	0.980919	-0.339439	0.205998
O32	O	1.314252	-0.006105	0.539331
O33	O	1.647585	0.327228	0.872664
O34	O	0.862989	-0.351055	0.314815
O35	O	1.196323	-0.017722	0.648148
O36	O	1.529656	0.315612	0.981482
O37	O	0.974261	-0.466387	0.514651
O38	O	1.307594	-0.133054	0.847984
O39	O	1.640927	0.200279	1.181318
O40	O	0.864877	-0.465931	0.396159
O41	O	1.198210	-0.132597	0.729492
O42	O	1.531543	0.200736	1.062826
O43	O	1.055251	-0.351858	0.523087
O44	O	1.388585	-0.018524	0.856420
O45	O	1.721918	0.314809	1.189753
O46	O	1.074651	-0.597126	0.312251
O47	O	1.407984	-0.263793	0.645584
O48	O	1.741317	0.069540	0.978918
O49	O	0.985297	-0.605928	0.394700
O50	O	1.318631	-0.272595	0.728033
O51	O	1.651964	0.060739	1.061367
C52	C	0.838495	-0.409742	0.354405
C53	C	1.171828	-0.076409	0.687738
C54	C	1.505161	0.256924	1.021071
C55	C	0.760569	-0.413591	0.351104
C56	C	1.093903	-0.080258	0.684437
C57	C	1.427236	0.253076	1.017771
C58	C	0.719608	-0.360447	0.396937
C59	C	1.052942	-0.027114	0.730270
C60	C	1.386275	0.306220	1.063603
C61	C	0.646389	-0.364059	0.393829
C62	C	0.979722	-0.030725	0.727163
C63	C	1.313056	0.302608	1.060496
C64	C	0.614132	-0.420819	0.344892
C65	C	0.947466	-0.087486	0.678226
C66	C	1.280799	0.245847	1.011559
C67	C	0.655099	-0.473965	0.299055
C68	C	0.988432	-0.140632	0.632388
C69	C	1.321765	0.192701	0.965721
C70	C	0.728316	-0.470349	0.302159
C71	C	1.061650	-0.137015	0.635492
C72	C	1.394983	0.196318	0.968826
C73	C	0.395622	-0.437525	0.330523
C74	C	0.728955	-0.104191	0.663857
C75	C	1.062288	0.229142	0.997190
C76	C	0.322398	-0.441139	0.327424
C77	C	0.655732	-0.107806	0.660757
C78	C	0.989065	0.225527	0.994090
C79	C	0.313694	-0.331231	0.422198
C80	C	0.647027	0.002102	0.755531
C81	C	0.980360	0.335436	1.088865
C82	C	0.386913	-0.327623	0.425301
C83	C	0.720247	0.005710	0.758634
C84	C	1.053580	0.339044	1.091968
C85	C	0.427873	-0.380766	0.379461
C86	C	0.761207	-0.047432	0.712794
C87	C	1.094540	0.285901	1.046128
N88	N	0.539291	-0.424514	0.341716
N89	N	0.872624	-0.091181	0.675050
N90	N	1.205957	0.242152	1.008383
N91	N	0.502713	-0.377065	0.382634
N92	N	0.836047	-0.043732	0.715967
N93	N	1.169380	0.289601	1.049301
C94	C	1.031506	-0.634110	0.352082
C95	C	1.364840	-0.300777	0.685416
C96	C	1.698173	0.032557	1.018749
C97	C	1.036215	-0.733919	0.347798
C98	C	1.369548	-0.400586	0.681132
C99	C	1.702882	-0.067253	1.014465
C100	C	0.951936	-0.930702	0.425522
C101	C	1.285269	-0.597369	0.758855
C102	C	1.618603	-0.264035	1.092188
C103	C	0.956358	-1.024482	0.421499
C104	C	1.289691	-0.691149	0.754832
C105	C	1.623025	-0.357815	1.088166
C106	C	1.049477	-1.015262	0.335727
C107	C	1.382810	-0.681928	0.669060
C108	C	1.716143	-0.348595	1.002394
C109	C	1.045055	-0.921482	0.339750
C110	C	1.378388	-0.588148	0.673083
C111	C	1.711721	-0.254815	1.006416
C112	C	0.996284	-0.879205	0.384649
C113	C	1.329617	-0.545872	0.717983
C114	C	1.662950	-0.212538	1.051316
C115	C	0.991866	-0.785423	0.388675
C116	C	1.325199	-0.452090	0.722009
C117	C	1.658532	-0.118756	1.055342
C118	C	1.084980	-0.776205	0.302900
C119	C	1.418314	-0.442871	0.636234
C120	C	1.751647	-0.109538	0.969567
C121	C	1.089402	-0.869985	0.298877
C122	C	1.422736	-0.536651	0.632211
C123	C	1.756069	-0.203318	0.965544
C124	C	1.203512	-0.391821	0.369940
C125	C	1.536845	-0.058488	0.703273
C126	C	1.870178	0.274845	1.036607
C127	C	1.281437	-0.387995	0.373257
C128	C	1.614771	-0.054662	0.706590
C129	C	1.948104	0.278671	1.039923
C130	C	1.013773	-0.410511	0.545018
C131	C	1.347106	-0.077178	0.878351
C132	C	1.680440	0.256155	1.211685
C133	C	1.010843	-0.414650	0.622942
C134	C	1.344177	-0.081317	0.956276
C135	C	1.677510	0.252017	1.289609
C136	C	1.009765	-0.166577	0.372287
C137	C	1.343098	0.166756	0.705621
C138	C	1.676432	0.500090	1.038954
C139	C	1.005127	-0.066765	0.376604
C140	C	1.338461	0.266568	0.709937
C141	C	1.671794	0.599901	1.043271
C142	C	1.027533	-0.391058	0.180012
C143	C	1.360866	-0.057724	0.513345
C144	C	1.694199	0.275609	0.846679
C145	C	1.030586	-0.386659	0.102105
C146	C	1.363919	-0.053326	0.435438
C147	C	1.697253	0.280007	0.768771
C148	C	1.051633	-0.356968	0.663945
C149	C	1.384966	-0.023634	0.997278
C150	C	1.718299	0.309699	1.330611
C151	C	1.048871	-0.360854	0.737163
C152	C	1.382205	-0.027520	1.070496
C153	C	1.715538	0.305813	1.403829
C154	C	1.005324	-0.422427	0.769377
C155	C	1.338657	-0.089093	1.102711
C156	C	1.671991	0.244240	1.436044
C157	C	0.964530	-0.480112	0.728370
C158	C	1.297864	-0.146778	1.061703
C159	C	1.631197	0.186555	1.395036
C160	C	0.967288	-0.476221	0.655153
C161	C	1.300622	-0.142887	0.988486
C162	C	1.633955	0.190446	1.321820
C163	C	0.992550	-0.440453	0.987880
C164	C	1.325884	-0.107120	1.321214
C165	C	1.659217	0.226213	1.654547
C166	C	0.989797	-0.444342	1.061102
C167	C	1.323130	-0.111008	1.394436
C168	C	1.656464	0.222325	1.727769
C169	C	1.074137	-0.325082	1.069890
C170	C	1.407471	0.008251	1.403224
C171	C	1.740804	0.341585	1.736557
C172	C	1.076895	-0.321200	0.996672
C173	C	1.410228	0.012133	1.330005
C174	C	1.743561	0.345466	1.663338
C175	C	1.036098	-0.378882	0.955671
C176	C	1.369431	-0.045548	1.289004
C177	C	1.702765	0.287785	1.622337
N178	N	1.002502	-0.426402	0.844218
N179	N	1.335835	-0.093069	1.177551
N180	N	1.669169	0.240265	1.510884
N181	N	1.038917	-0.374901	0.880832
N182	N	1.372250	-0.041568	1.214165
N183	N	1.705583	0.291765	1.547498
H184	H	0.628830	-0.520177	0.259206
H185	H	0.962163	-0.186843	0.592539
H186	H	1.295496	0.146490	0.925872
O187	O	0.772502	-0.527668	0.252727
O188	O	1.105835	-0.194335	0.586060
O189	O	1.439168	0.138998	0.919394
H190	H	0.737772	-0.567751	0.218180
H191	H	1.071106	-0.234418	0.551513
H192	H	1.404439	0.098915	0.884846
H193	H	1.087096	-0.306831	0.637721
H194	H	1.420429	0.026502	0.971054
H195	H	1.753762	0.359836	1.304388
H196	H	1.107351	-0.278120	1.103281
H197	H	1.440684	0.055213	1.436614
H198	H	1.774017	0.388547	1.769948
O199	O	1.102073	-1.060892	0.287313
O200	O	1.435406	-0.727559	0.620646
O201	O	1.768740	-0.394225	0.953979
H202	H	1.091325	-1.040621	0.232534
H203	H	1.424659	-0.707288	0.565867
H204	H	1.757992	-0.373954	0.899201
H205	H	0.952155	-0.751003	0.425237
H206	H	1.285489	-0.417669	0.758570
H207	H	1.618822	-0.084336	1.091903
H208	H	0.912229	-0.896280	0.462086
H209	H	1.245563	-0.562947	0.795419
H210	H	1.578896	-0.229613	1.128753
H211	H	0.613041	-0.320785	0.431153
H212	H	0.946375	0.012548	0.764486
H213	H	1.279708	0.345882	1.097819
O214	O	0.908530	-1.080030	0.465585
O215	O	1.241864	-0.746696	0.798919
O216	O	1.575197	-0.413363	1.132252
H217	H	0.873879	-1.034873	0.497484
H218	H	1.207213	-0.701540	0.830818
H219	H	1.540546	-0.368206	1.164151
H220	H	0.954334	-0.494484	1.087329
H221	H	1.287667	-0.161151	1.420662
H222	H	1.621000	0.172183	1.753995
H223	H	0.413171	-0.281406	0.465153
H224	H	0.746505	0.051928	0.798487
H225	H	1.079838	0.385261	1.131820
O226	O	1.092873	-0.298644	0.781384
O227	O	1.426206	0.034689	1.114718
O228	O	1.759539	0.368023	1.448051
H229	H	1.058119	-0.256258	0.815376
H230	H	1.391452	0.077075	1.148709
H231	H	1.724785	0.410408	1.482043
O232	O	1.132821	-0.720660	0.258817
O233	O	1.466154	-0.387327	0.592151
O234	O	1.799488	-0.053994	0.925484
H235	H	1.123773	-0.736369	0.202499
H236	H	1.457106	-0.403035	0.535832
H237	H	1.790439	-0.069702	0.869166
H238	H	1.112357	-0.271063	0.970448
H239	H	1.445691	0.062270	1.303781
H240	H	1.779024	0.395603	1.637115
H241	H	0.959342	-0.487434	0.954506
H242	H	1.292675	-0.154101	1.287839
H243	H	1.626008	0.179232	1.621172
H244	H	1.129108	-0.904419	0.262320
H245	H	1.462442	-0.571086	0.595653
H246	H	1.795775	-0.237753	0.928986
O247	O	0.917555	-0.546520	0.763110
O248	O	1.250888	-0.213187	1.096443
O249	O	1.584222	0.120147	1.429777
H250	H	0.922493	-0.539541	0.820911
H251	H	1.255826	-0.206208	1.154244
H252	H	1.589159	0.127126	1.487578
O253	O	0.439791	-0.494847	0.281085
O254	O	0.773124	-0.161514	0.614418
O255	O	1.106457	0.171819	0.947752
H256	H	0.496124	-0.482794	0.291455
H257	H	0.829457	-0.149460	0.624789
H258	H	1.162790	0.183873	0.958122
O259	O	0.923285	-0.538423	0.610924
O260	O	1.256618	-0.205089	0.944257
O261	O	1.589952	0.128244	1.277591
H262	H	0.892541	-0.581893	0.645624
H263	H	1.225874	-0.248560	0.978957
H264	H	1.559207	0.084774	1.312290
H265	H	0.280336	-0.287964	0.459518
H266	H	0.613670	0.045369	0.792851
H267	H	0.947003	0.378703	1.126184
O268	O	0.754399	-0.299220	0.449715
O269	O	1.087732	0.034113	0.783049
O270	O	1.421065	0.367446	1.116382
H271	H	0.713612	-0.262865	0.481057
H272	H	1.046945	0.070468	0.814390
H273	H	1.380278	0.403802	1.147724
H274	H	0.296138	-0.487365	0.287573
H275	H	0.629471	-0.154032	0.620906
H276	H	0.962804	0.179301	0.954239
