data_functionalizedCrystal
_audit_creation_method	'MofGen! by Chris Wilmer'
_symmetry_space_group_name_H-M	'P1'
_symmetry_Int_Tables_number	1
_symmetry_cell_setting	triclinic
loop_
_symmetry_equiv_pos_as_xyz
  x,y,z
_cell_length_a	18.215407
_cell_length_b	19.076808
_cell_length_c	18.215399
_cell_angle_alpha	87.671240
_cell_angle_beta	89.983115
_cell_angle_gamma	92.320961
loop_
_atom_site_label
_atom_site_type_symbol
_atom_site_fract_x
_atom_site_fract_y
_atom_site_fract_z
Zn1	Zn	1.113292	-0.280269	-0.404282
Zn2	Zn	1.446626	0.053065	-0.070949
Zn3	Zn	1.779959	0.386398	0.262384
Zn4	Zn	1.108256	-0.397977	-0.276266
Zn5	Zn	1.441589	-0.064644	0.057067
Zn6	Zn	1.774923	0.268689	0.390400
Zn7	Zn	0.990225	-0.280286	-0.281234
Zn8	Zn	1.323558	0.053047	0.052099
Zn9	Zn	1.656892	0.386380	0.385432
Zn10	Zn	0.985247	-0.397931	-0.399299
Zn11	Zn	1.318580	-0.064598	-0.065965
Zn12	Zn	1.651913	0.268735	0.267368
O13	O	1.049255	-0.339116	-0.340270
O14	O	1.382588	-0.005783	-0.006937
O15	O	1.715922	0.327551	0.326396
O16	O	1.215608	-0.295895	-0.387307
O17	O	1.548941	0.037438	-0.053974
O18	O	1.882275	0.370772	0.279359
O19	O	1.092575	-0.382392	-0.173940
O20	O	1.425908	-0.049059	0.159393
O21	O	1.759241	0.284274	0.492727
O22	O	1.010741	-0.181788	-0.301722
O23	O	1.344075	0.151546	0.031612
O24	O	1.677408	0.484879	0.364945
O25	O	1.211908	-0.382375	-0.293255
O26	O	1.545241	-0.049042	0.040079
O27	O	1.878574	0.284292	0.373412
O28	O	1.101158	-0.181775	-0.392124
O29	O	1.434492	0.151559	-0.058791
O30	O	1.767825	0.484892	0.274542
O31	O	1.005858	-0.295925	-0.177590
O32	O	1.339191	0.037408	0.155744
O33	O	1.672525	0.370742	0.489077
O34	O	0.886581	-0.295880	-0.296889
O35	O	1.219914	0.037453	0.036444
O36	O	1.553248	0.370786	0.369778
O37	O	1.002257	-0.382296	-0.502945
O38	O	1.335590	-0.048963	-0.169612
O39	O	1.668923	0.284370	0.163722
O40	O	0.882923	-0.382313	-0.383630
O41	O	1.216257	-0.048980	-0.050297
O42	O	1.549590	0.284353	0.283036
O43	O	1.096331	-0.295850	-0.506607
O44	O	1.429664	0.037483	-0.173273
O45	O	1.762998	0.370817	0.160060
O46	O	1.087747	-0.496468	-0.288422
O47	O	1.421081	-0.163134	0.044911
O48	O	1.754414	0.170199	0.378245
O49	O	0.997373	-0.496434	-0.378813
O50	O	1.330706	-0.163100	-0.045480
O51	O	1.664040	0.170233	0.287853
C52	C	0.858050	-0.339094	-0.340258
C53	C	1.191383	-0.005761	-0.006925
C54	C	1.524716	0.327572	0.326408
C55	C	0.776250	-0.339102	-0.340270
C56	C	1.109584	-0.005769	-0.006937
C57	C	1.442917	0.327565	0.326397
C58	C	0.589978	-0.294164	-0.389314
C59	C	0.923312	0.039169	-0.055980
C60	C	1.256645	0.372502	0.277353
C61	C	0.513119	-0.294170	-0.389316
C62	C	0.846453	0.039163	-0.055983
C63	C	1.179786	0.372496	0.277351
C64	C	0.509283	-0.384087	-0.291239
C65	C	0.842616	-0.050754	0.042094
C66	C	1.175950	0.282580	0.375428
C67	C	0.586141	-0.384077	-0.291234
C68	C	0.919474	-0.050744	0.042099
C69	C	1.252807	0.282590	0.375433
C70	C	0.626486	-0.339117	-0.340275
C71	C	0.959820	-0.005783	-0.006942
C72	C	1.293153	0.327550	0.326391
C73	C	0.472770	-0.339133	-0.340283
C74	C	0.806103	-0.005800	-0.006949
C75	C	1.139436	0.327534	0.326384
C76	C	0.389436	-0.339140	-0.340285
C77	C	0.722769	-0.005806	-0.006951
C78	C	1.056102	0.327527	0.326382
C79	C	0.709826	-0.339109	-0.340273
C80	C	1.043159	-0.005775	-0.006939
C81	C	1.376492	0.327558	0.326394
C82	C	1.041493	-0.521990	-0.332554
C83	C	1.374827	-0.188656	0.000779
C84	C	1.708160	0.144677	0.334113
C85	C	1.038240	-0.600224	-0.329277
C86	C	1.371574	-0.266890	0.004056
C87	C	1.704907	0.066443	0.337389
C88	C	1.083752	-0.636911	-0.374844
C89	C	1.417085	-0.303578	-0.041511
C90	C	1.750419	0.029756	0.291823
C91	C	1.080692	-0.710420	-0.371767
C92	C	1.414026	-0.377087	-0.038433
C93	C	1.747359	-0.043754	0.294900
C94	C	1.032124	-0.747241	-0.323118
C95	C	1.365458	-0.413908	0.010215
C96	C	1.698791	-0.080574	0.343548
C97	C	0.986608	-0.710549	-0.277550
C98	C	1.319941	-0.377215	0.055784
C99	C	1.653274	-0.043882	0.389117
C100	C	0.989664	-0.637041	-0.280631
C101	C	1.322997	-0.303707	0.052702
C102	C	1.656331	0.029626	0.386035
C103	C	1.017936	-0.967094	-0.308854
C104	C	1.351269	-0.633760	0.024479
C105	C	1.684602	-0.300427	0.357813
C106	C	1.014884	-1.040607	-0.305774
C107	C	1.348218	-0.707273	0.027559
C108	C	1.681551	-0.373940	0.360892
C109	C	1.108968	-1.040473	-0.399993
C110	C	1.442302	-0.707140	-0.066659
C111	C	1.775635	-0.373807	0.266674
C112	C	1.112024	-0.966964	-0.403067
C113	C	1.445357	-0.633631	-0.069733
C114	C	1.778690	-0.300297	0.263600
C115	C	1.066504	-0.930278	-0.357501
C116	C	1.399838	-0.596945	-0.024168
C117	C	1.733171	-0.263611	0.309166
N118	N	1.028997	-0.822379	-0.319970
N119	N	1.362331	-0.489046	0.013363
N120	N	1.695664	-0.155713	0.346697
N121	N	1.069628	-0.855141	-0.360654
N122	N	1.402961	-0.521808	-0.027320
N123	N	1.736295	-0.188474	0.306013
C124	C	1.241207	-0.339138	-0.340283
C125	C	1.574540	-0.005805	-0.006949
C126	C	1.907874	0.327529	0.326384
C127	C	1.323005	-0.339148	-0.340288
C128	C	1.656339	-0.005814	-0.006955
C129	C	1.989672	0.327519	0.326379
C130	C	1.049300	-0.339066	-0.532225
C131	C	1.382634	-0.005733	-0.198892
C132	C	1.715967	0.327601	0.134441
C133	C	1.049320	-0.339045	-0.614025
C134	C	1.382653	-0.005711	-0.280692
C135	C	1.715986	0.327622	0.052641
C136	C	1.057067	-0.155528	-0.348033
C137	C	1.390400	0.177805	-0.014700
C138	C	1.723734	0.511139	0.318634
C139	C	1.060396	-0.077294	-0.351341
C140	C	1.393729	0.256039	-0.018008
C141	C	1.727063	0.589373	0.315326
C142	C	1.098334	-0.293972	-0.880993
C143	C	1.431667	0.039362	-0.547660
C144	C	1.765001	0.372695	-0.214327
C145	C	1.098324	-0.293991	-0.804134
C146	C	1.431658	0.039343	-0.470800
C147	C	1.764991	0.372676	-0.137467
C148	C	1.000369	-0.384016	-0.800310
C149	C	1.333703	-0.050683	-0.466977
C150	C	1.667036	0.282651	-0.133644
C151	C	1.000383	-0.384000	-0.877168
C152	C	1.333716	-0.050667	-0.543835
C153	C	1.667050	0.282667	-0.210502
C154	C	1.049364	-0.338974	-0.917508
C155	C	1.382698	-0.005640	-0.584175
C156	C	1.716031	0.327693	-0.250841
C157	C	1.049341	-0.339009	-0.763790
C158	C	1.382675	-0.005675	-0.430457
C159	C	1.716008	0.327658	-0.097124
C160	C	1.049331	-0.339030	-0.680456
C161	C	1.382664	-0.005696	-0.347122
C162	C	1.715997	0.327637	-0.013789
C163	C	1.049376	-0.338954	-1.000848
C164	C	1.382710	-0.005620	-0.667515
C165	C	1.716043	0.327713	-0.334181
C166	C	1.049254	-0.339115	-0.149064
C167	C	1.382588	-0.005781	0.184269
C168	C	1.715921	0.327552	0.517603
C169	C	1.049386	-0.338938	-0.067273
C170	C	1.382719	-0.005604	0.266060
C171	C	1.716053	0.327729	0.599394
H172	H	0.476424	-0.420693	-0.251312
H173	H	0.809757	-0.087360	0.082021
H174	H	1.143091	0.245974	0.415355
Br175	Br	1.164789	-0.232917	-0.754580
Br176	Br	1.498123	0.100417	-0.421247
Br177	Br	1.831456	0.433750	-0.087914
Br178	Br	0.933894	-0.445116	-0.745559
Br179	Br	1.267227	-0.111783	-0.412226
Br180	Br	1.600561	0.221551	-0.078893
H181	H	1.138217	-0.257308	-0.913836
H182	H	1.471551	0.076025	-0.580502
H183	H	1.804884	0.409359	-0.247169
Br184	Br	1.142448	-0.760208	-0.433623
Br185	Br	1.475782	-0.426874	-0.100290
Br186	Br	1.809115	-0.093541	0.233044
Br187	Br	0.463575	-0.233158	-0.455868
Br188	Br	0.796909	0.100175	-0.122535
Br189	Br	1.130242	0.433508	0.210798
Br190	Br	0.920683	-0.760519	-0.211536
Br191	Br	1.254016	-0.427185	0.121798
Br192	Br	1.587350	-0.093852	0.455131
Br193	Br	1.149675	-0.586947	-0.440864
Br194	Br	1.483008	-0.253614	-0.107531
Br195	Br	1.816342	0.079719	0.225802
H196	H	0.622826	-0.257553	-0.429244
H197	H	0.956159	0.075781	-0.095911
H198	H	1.289492	0.409114	0.237423
Br199	Br	0.635693	-0.445078	-0.224667
Br200	Br	0.969026	-0.111745	0.108666
Br201	Br	1.302359	0.221588	0.442000
Br202	Br	0.933927	-0.445086	-0.926729
Br203	Br	1.267260	-0.111753	-0.593395
Br204	Br	1.600593	0.221581	-0.260062
H205	H	1.151572	-0.936986	-0.442680
H206	H	1.484905	-0.603653	-0.109347
H207	H	1.818238	-0.270319	0.223987
H208	H	0.975331	-1.070584	-0.266159
H209	H	1.308664	-0.737251	0.067175
H210	H	1.641997	-0.403917	0.400508
Br211	Br	0.956150	-0.917315	-0.247024
Br212	Br	1.289483	-0.583981	0.086310
Br213	Br	1.622816	-0.250648	0.419643
Br214	Br	1.170739	-1.090265	-0.461830
Br215	Br	1.504073	-0.756931	-0.128497
Br216	Br	1.837406	-0.423598	0.204836
H217	H	0.952603	-0.607171	-0.243527
H218	H	1.285936	-0.273837	0.089806
H219	H	1.619269	0.059496	0.423140
