data_functionalizedCrystal
_audit_creation_method	'MofGen! by Chris Wilmer'
_symmetry_space_group_name_H-M	'P1'
_symmetry_Int_Tables_number	1
_symmetry_cell_setting	triclinic
loop_
_symmetry_equiv_pos_as_xyz
  x,y,z
_cell_length_a	6.817900
_cell_length_b	7.190334
_cell_length_c	12.908942
_cell_angle_alpha	88.324518
_cell_angle_beta	100.860556
_cell_angle_gamma	60.611776
loop_
_atom_site_label
_atom_site_type_symbol
_atom_site_fract_x
_atom_site_fract_y
_atom_site_fract_z
V1	V	-4.209283	0.663828	-0.144174
O2	O	-4.207551	0.652412	0.008658
O3	O	-4.145868	0.658113	-0.287537
O4	O	-4.246730	0.953882	-0.141197
O5	O	-4.105990	0.354596	-0.138694
V6	V	-4.683733	0.626984	-0.125983
O7	O	-4.490444	0.744648	-0.184077
O8	O	-4.852770	0.546164	-0.086080
O9	O	-4.523942	0.632698	0.017380
O10	O	-4.802863	0.638399	-0.278816
O11	O	-4.904423	0.936215	-0.131463
O12	O	-4.423080	0.336930	-0.128960
C13	C	-3.984438	0.647338	-0.322509
C14	C	-4.014447	0.644599	-0.439706
C15	C	-4.113109	1.024617	-0.135833
C16	C	-4.227010	1.266187	-0.134319
C17	C	-4.440390	0.660695	-0.670618
C18	C	-4.468596	0.658122	-0.780734
C19	C	-4.099075	0.636897	-0.770058
C20	C	-4.070869	0.639469	-0.659942
C21	C	-4.241533	0.651366	-0.610225
C22	C	-4.213317	0.653923	-0.500106
C23	C	-3.843806	0.632713	-0.489433
C24	C	-3.872012	0.630140	-0.599549
C25	C	-4.348712	0.643468	0.052347
C26	C	-4.297945	0.646220	0.169542
H27	H	-4.352275	0.663594	-0.459628
O28	O	-3.650390	0.623263	-0.430786
C29	C	-3.453228	0.430739	-0.440645
H30	H	-3.505031	0.306622	-0.464372
H31	H	-3.375132	0.464563	-0.504365
C32	C	-3.209754	0.494847	-0.304145
C33	C	-3.273376	0.342399	-0.333278
H34	H	-3.098806	0.440358	-0.237918
H35	H	-3.342583	0.624559	-0.297505
H36	H	-3.144687	0.523020	-0.357253
H37	H	-3.338467	0.314249	-0.280177
H38	H	-3.140553	0.212680	-0.339906
H39	H	-3.733073	0.620462	-0.640044
H40	H	-4.579336	0.670349	-0.630136
O41	O	-4.661614	0.666796	-0.839323
C42	C	-4.675476	0.488445	-0.801806
H43	H	-4.495547	0.353318	-0.758745
H44	H	-4.795024	0.538487	-0.744342
C45	C	-4.993177	0.574527	-0.949509
C46	C	-4.772181	0.408554	-0.896628
H47	H	-5.052839	0.525251	-1.007998
H48	H	-4.983845	0.694691	-0.974783
H49	H	-5.092772	0.616214	-0.901611
H50	H	-4.672583	0.366890	-0.944522
H51	H	-4.781499	0.288381	-0.871364
H52	H	-3.960148	0.627231	-0.810558
