data_functionalizedCrystal
_audit_creation_method	'MofGen! by Chris Wilmer'
_symmetry_space_group_name_H-M	'P1'
_symmetry_Int_Tables_number	1
_symmetry_cell_setting	triclinic
loop_
_symmetry_equiv_pos_as_xyz
  x,y,z
_cell_length_a	14.044191
_cell_length_b	17.019294
_cell_length_c	13.101039
_cell_angle_alpha	89.487532
_cell_angle_beta	86.337551
_cell_angle_gamma	88.281862
loop_
_atom_site_label
_atom_site_type_symbol
_atom_site_fract_x
_atom_site_fract_y
_atom_site_fract_z
O1	O	1.263670	0.185438	-0.101525
O2	O	0.987674	0.178598	-0.100934
O3	O	1.132755	0.068197	-0.091181
O4	O	1.118589	0.295839	-0.111278
O5	O	1.122346	0.076133	0.078548
O6	O	0.977265	0.186533	0.068795
O7	O	1.253261	0.193374	0.068204
Zn8	Zn	1.113610	0.191213	0.095447
Zn9	Zn	1.127325	0.180758	-0.128178
O10	O	1.108180	0.303774	0.058450
C11	C	0.947143	0.179574	-0.015807
C12	C	0.841881	0.170648	-0.015025
C13	C	0.591784	0.217630	-0.019162
C14	C	0.649157	0.154344	-0.013577
C15	C	0.756398	0.163418	-0.014383
C16	C	0.484533	0.208558	-0.018357
C17	C	1.126808	0.042856	-0.003731
C18	C	1.124585	-0.044478	0.003972
C19	C	1.129216	-0.089828	-0.084927
C20	C	1.127121	-0.171887	-0.077686
C21	C	1.120401	-0.208594	0.018456
C22	C	1.115766	-0.163237	0.107362
C23	C	1.117854	-0.081180	0.100120
C24	C	1.113804	-0.456137	0.044952
C25	C	1.111719	-0.538201	0.052188
C26	C	1.123073	-0.546845	-0.132861
C27	C	1.125166	-0.464786	-0.140095
C28	C	1.120526	-0.419436	-0.051189
C29	C	1.118262	-0.292471	0.025860
C30	C	1.122658	-0.335560	-0.058594
C31	C	1.293792	0.192398	-0.016925
C32	C	1.399054	0.201323	-0.017714
C33	C	1.114127	0.329116	-0.029001
C34	C	1.116351	0.416449	-0.036712
N35	N	1.104257	0.198349	0.248066
N36	N	1.136685	0.173617	-0.280795
C37	C	1.091532	0.208064	0.456250
C38	C	1.149407	0.163904	0.511027
C39	C	1.142327	0.169310	0.626868
C40	C	1.098611	0.202659	0.340398
H41	H	0.617739	0.093346	-0.008264
N42	N	1.132489	-0.425232	-0.243811
H43	H	1.192348	-0.393661	-0.250701
H44	H	1.135088	-0.466487	-0.298935
N45	N	0.633397	0.298422	-0.026302
H46	H	0.705220	0.293532	-0.025876
H47	H	0.615213	0.324941	-0.091827
H48	H	1.134694	-0.059948	-0.163216
H49	H	1.204274	0.122038	0.470923
N50	N	1.018858	0.263519	0.509360
H51	H	1.024041	0.259567	0.585783
H52	H	1.031274	0.319144	0.485763
H53	H	1.126848	-0.583777	-0.205243
N54	N	1.132227	-0.220768	-0.173601
H55	H	1.076401	-0.206138	-0.215581
H56	H	1.193852	-0.210548	-0.214935
N57	N	1.104474	-0.577795	0.155888
H58	H	1.101850	-0.536615	0.211112
H59	H	1.044648	-0.609406	0.162715
N60	N	1.108815	-0.407230	0.140838
H61	H	1.047261	-0.417373	0.182352
H62	H	1.164731	-0.421898	0.182662
H63	H	1.114069	-0.044256	0.172511
N64	N	1.108527	-0.202824	0.211060
H65	H	1.107915	-0.261689	0.202161
H66	H	1.165134	-0.188837	0.250386
H67	H	1.112793	-0.322367	0.104139
N68	N	1.129845	-0.295941	-0.162268
H69	H	1.189659	-0.264318	-0.169210
H70	H	1.132407	-0.337142	-0.217458
