data_functionalizedCrystal
_audit_creation_method	'MofGen! by Chris Wilmer'
_symmetry_space_group_name_H-M	'P1'
_symmetry_Int_Tables_number	1
_symmetry_cell_setting	triclinic
loop_
_symmetry_equiv_pos_as_xyz
  x,y,z
_cell_length_a	12.827893
_cell_length_b	18.050590
_cell_length_c	12.827885
_cell_angle_alpha	89.965317
_cell_angle_beta	89.980728
_cell_angle_gamma	90.018523
loop_
_atom_site_label
_atom_site_type_symbol
_atom_site_fract_x
_atom_site_fract_y
_atom_site_fract_z
Zn1	Zn	1.597647	-0.295624	-0.590813
Zn2	Zn	1.597531	-0.419832	-0.416058
Zn3	Zn	1.422888	-0.295660	-0.416087
Zn4	Zn	1.422864	-0.419777	-0.590758
O5	O	1.510232	-0.357723	-0.503429
O6	O	1.743867	-0.312108	-0.567643
O7	O	1.574326	-0.403399	-0.269826
O8	O	1.446129	-0.191731	-0.439299
O9	O	1.743782	-0.403363	-0.439251
O10	O	1.574523	-0.191704	-0.567670
O11	O	1.446017	-0.312170	-0.269847
O12	O	1.276649	-0.312117	-0.439246
O13	O	1.446087	-0.403269	-0.737002
O14	O	1.276631	-0.403304	-0.567577
O15	O	1.574499	-0.312055	-0.737042
O16	O	1.574303	-0.523749	-0.439198
O17	O	1.445975	-0.523709	-0.567549
C18	C	1.238722	-0.357709	-0.503409
C19	C	1.122569	-0.357721	-0.503426
C20	C	1.070803	-0.402914	-0.566830
C21	C	0.950753	-0.402927	-0.566848
C22	C	1.510152	-0.550675	-0.503388
C23	C	1.510213	-0.633221	-0.503405
C24	C	1.580143	-0.832667	-0.433705
C25	C	1.605673	-0.881992	-0.529080
C26	C	1.510273	-0.784351	-0.503446
C27	C	1.484849	-0.882108	-0.408114
C28	C	1.510332	-0.930337	-0.503478
C29	C	1.535851	-0.832589	-0.598872
C30	C	1.414984	-0.832701	-0.477842
C31	C	1.440477	-0.882004	-0.573282
C32	C	1.510241	-0.700253	-0.503427
C33	C	1.510363	-1.014433	-0.503509
C34	C	1.782802	-0.357738	-0.503450
C35	C	1.898956	-0.357744	-0.503459
C36	C	1.510303	-0.357652	-0.775999
C37	C	1.510334	-0.357622	-0.892153
C38	C	1.510341	-0.164018	-0.503494
C39	C	1.510388	-0.081472	-0.503521
C40	C	1.573883	-0.312477	-0.943957
C41	C	1.573916	-0.312444	-1.064008
C42	C	1.510222	-0.357741	-0.231919
C43	C	1.510394	-0.357562	-0.115767
H44	H	1.078011	-0.319036	-0.449161
N45	N	1.712440	-0.910684	-0.557800
H46	H	1.761077	-0.867550	-0.570160
H47	H	1.740267	-0.942297	-0.499091
H48	H	1.557299	-0.810931	-0.679575
N49	N	1.308247	-0.803982	-0.449087
H50	H	1.279735	-0.773174	-0.508315
H51	H	1.260029	-0.847141	-0.435341
H52	H	1.639250	-0.811003	-0.374787
H53	H	1.628326	-0.273797	-1.108558
N54	N	0.891793	-0.454180	-0.638757
H55	H	0.942859	-0.484330	-0.681056
H56	H	0.846480	-0.488488	-0.596095
N57	N	1.362226	-0.910510	-0.651501
H58	H	1.381582	-0.892393	-0.723459
H59	H	1.362260	-0.966458	-0.650580
N60	N	0.957897	-0.306485	-0.431543
H61	H	1.003152	-0.336647	-0.383071
H62	H	1.003151	-0.272138	-0.474204
N63	N	1.456327	-0.910923	-0.301311
H64	H	1.509135	-0.892976	-0.248680
H65	H	1.384823	-0.892217	-0.281508
H66	H	1.455988	-0.396217	-1.071223
H67	H	1.455944	-0.396243	-0.936678
N68	N	1.129812	-0.454157	-0.638719
H69	H	1.207207	-0.446885	-0.628514
H70	H	1.110765	-0.507195	-0.622334
N71	N	1.645948	-0.261326	-0.884993
H72	H	1.635722	-0.268608	-0.807591
H73	H	1.720587	-0.272893	-0.904033
