data_functionalizedCrystal
_audit_creation_method	'MofGen! by Chris Wilmer'
_symmetry_space_group_name_H-M	'P1'
_symmetry_Int_Tables_number	1
_symmetry_cell_setting	triclinic
loop_
_symmetry_equiv_pos_as_xyz
  x,y,z
_cell_length_a	11.026607
_cell_length_b	10.723024
_cell_length_c	9.198806
_cell_angle_alpha	89.997723
_cell_angle_beta	89.996503
_cell_angle_gamma	96.526943
loop_
_atom_site_label
_atom_site_type_symbol
_atom_site_fract_x
_atom_site_fract_y
_atom_site_fract_z
O1	O	-1.614521	-0.523503	0.120890
O2	O	-1.260718	-0.463892	0.120892
O3	O	-1.445780	-0.313883	0.120886
O4	O	-1.429458	-0.673512	0.120896
O5	O	-1.445766	-0.313878	-0.120900
O6	O	-1.260704	-0.463887	-0.120893
O7	O	-1.614506	-0.523499	-0.120895
Cu8	Cu	-1.437603	-0.493693	-0.142971
Cu9	Cu	-1.437621	-0.493698	0.142968
O10	O	-1.429444	-0.673508	-0.120889
C11	C	-1.215408	-0.452892	-0.000000
C12	C	-1.080422	-0.420109	0.000001
C13	C	-1.444585	-0.267125	-0.000005
C14	C	-1.441032	-0.127803	-0.000000
C15	C	-1.659816	-0.534498	0.000000
C16	C	-1.794803	-0.567282	0.000009
C17	C	-1.007369	-0.510629	0.000004
C18	C	-0.867853	-0.476748	0.000005
C19	C	-1.430639	-0.720266	0.000005
C20	C	-1.434193	-0.859587	0.000010
N21	N	-1.437600	-0.493690	-0.344085
C22	C	-1.544583	-0.075171	0.000001
C23	C	-1.540912	0.068824	0.000007
C24	C	-1.508491	-0.581352	-0.416281
C25	C	-1.508510	-0.581355	-0.583693
N26	N	-1.437634	-0.493693	0.344082
H27	H	-1.048115	-0.613209	-0.000001
H28	H	-1.629560	0.114123	0.000001
Cl29	Cl	-1.343914	-0.377815	-0.560078
Cl30	Cl	-1.343919	-0.377808	-0.439997
Cl31	Cl	-1.297314	0.070491	-0.000004
Cl32	Cl	-1.602213	-0.697240	-0.679543
H33	H	-0.827113	-0.374161	0.000039
H34	H	-1.635954	-0.136715	-0.000008
Cl35	Cl	-0.857690	-0.725671	-0.000007
Cl36	Cl	-1.602186	-0.697223	-0.320369
H37	H	-1.039676	-0.317529	0.000035
H38	H	-1.349660	-0.066260	0.000010
