data_functionalizedCrystal
_audit_creation_method	'MofGen! by Chris Wilmer'
_symmetry_space_group_name_H-M	'P1'
_symmetry_Int_Tables_number	1
_symmetry_cell_setting	triclinic
loop_
_symmetry_equiv_pos_as_xyz
  x,y,z
_cell_length_a	14.560438
_cell_length_b	17.917603
_cell_length_c	14.560438
_cell_angle_alpha	90.001112
_cell_angle_beta	60.000713
_cell_angle_gamma	57.010915
loop_
_atom_site_label
_atom_site_type_symbol
_atom_site_fract_x
_atom_site_fract_y
_atom_site_fract_z
Zr1	Zr	0.920730	0.754900	-0.078235
O2	O	1.126350	0.629771	-0.231889
O3	O	0.724831	0.793259	-0.031133
O4	O	0.916437	0.793254	-0.222735
O5	O	0.934741	0.629780	0.110854
O6	O	0.901993	0.922212	-0.215513
O7	O	0.934744	0.629776	-0.040287
O8	O	0.559245	0.922221	0.127228
O9	O	1.277489	0.629770	-0.231887
O10	O	0.791028	0.905858	-0.005653
O11	O	0.801805	0.809621	0.101752
O12	O	1.027396	0.809615	-0.123835
O13	O	1.038173	0.713378	-0.016430
Zr14	Zr	0.897689	0.960577	0.174337
Zr15	Zr	0.897694	0.960572	-0.066716
Zr16	Zr	0.920726	0.754905	0.162818
Zr17	Zr	1.161780	0.754899	-0.078232
Zr18	Zr	0.656640	0.960579	0.174334
O19	O	1.093588	0.922218	0.127235
O20	O	1.093595	0.922211	-0.215511
O21	O	1.126344	0.629779	0.110856
O22	O	0.692069	1.085706	0.327991
O23	O	0.692076	1.085699	-0.014755
O24	O	0.724824	0.793267	0.311612
O25	O	0.883678	1.085698	-0.014752
O26	O	0.901983	0.922223	0.318837
O27	O	0.916427	0.793266	0.311615
O28	O	0.883675	1.085701	0.136389
O29	O	1.259178	0.793252	-0.222731
O30	O	0.559241	0.922225	0.318833
O31	O	0.540930	1.085707	0.327989
O32	O	0.540934	1.085703	0.136384
O33	O	1.277486	0.629775	-0.040283
O34	O	1.259175	0.793257	-0.031127
O35	O	0.791023	0.905863	0.219937
O36	O	0.780246	1.002100	0.112532
O37	O	1.016615	0.905857	-0.005650
O38	O	1.027392	0.809620	0.101755
C39	C	0.607694	0.857740	0.048047
C40	C	0.505362	0.857741	0.048046
C41	C	0.355499	0.907973	-0.008011
C42	C	0.451655	0.907973	-0.008020
C43	C	0.462918	0.807498	0.104114
C44	C	0.366770	0.807493	0.104115
C45	C	0.938025	0.600474	0.033642
C46	C	0.947805	0.513161	0.028752
C47	C	0.965668	0.353316	0.019822
C48	C	0.852757	0.362154	0.076277
C49	C	0.862696	0.273211	0.071308
C50	C	0.955732	0.442266	0.024790
C51	C	1.210726	0.857737	0.048054
C52	C	1.313058	0.857737	0.048056
C53	C	0.909216	0.857732	-0.253469
C54	C	0.909217	0.857730	-0.355802
C55	C	0.880394	1.115003	0.062459
C56	C	0.870615	1.202316	0.067349
C57	C	1.032597	0.807493	-0.465568
C58	C	1.032590	0.807504	-0.561716
C59	C	0.785812	0.907990	-0.438319
C60	C	0.785821	0.907984	-0.342173
C61	C	0.909204	0.857745	0.349571
C62	C	0.909202	0.857747	0.451904
C63	C	0.578878	1.115005	0.062456
C64	C	0.466767	1.202318	0.067344
C65	C	0.607688	0.857747	0.349567
C66	C	0.505354	0.857749	0.451899
C67	C	0.578872	1.115011	0.363975
C68	C	0.466759	1.202327	0.471197
C69	C	1.239547	0.600466	-0.267874
C70	C	1.351660	0.513150	-0.375096
C71	C	1.239541	0.600473	0.033646
C72	C	1.351653	0.513159	0.028757
C73	C	1.210732	0.857731	-0.253465
C74	C	1.313065	0.857728	-0.355797
C75	C	0.419746	1.193085	0.007939
C76	C	0.314419	1.275117	0.012510
C77	C	0.256109	1.366383	0.076493
C78	C	0.303140	1.375615	0.135900
C79	C	0.408471	1.293583	0.131322
C80	C	0.408483	1.293575	0.465486
C81	C	0.303153	1.375626	0.566224
C82	C	0.256094	1.366426	0.672671
C83	C	0.314381	1.275169	0.678380
C84	C	0.419716	1.193120	0.577643
C85	C	1.409948	0.421902	-0.369384
C86	C	1.515308	0.339852	-0.470122
C87	C	1.562372	0.349051	-0.576570
C88	C	1.504079	0.440309	-0.582278
C89	C	1.398727	0.522357	-0.481542
C90	C	1.398684	0.522393	0.088153
C91	C	1.504037	0.440360	0.083556
C92	C	1.562350	0.349094	0.019569
C93	C	1.515315	0.339862	-0.039834
C94	C	1.409971	0.421894	-0.035243
C95	C	0.451648	0.907987	0.561666
C96	C	0.355504	0.907979	0.657813
C97	C	0.366779	0.807494	0.534413
C98	C	0.462927	0.807497	0.438268
H99	H	0.486209	0.948879	-0.053676
O100	O	0.459158	1.303550	0.195423
H101	H	0.498486	1.343396	0.163645
H102	H	0.332221	0.766582	0.523328
H103	H	1.351270	0.596653	-0.486205
H104	H	1.562754	0.265554	-0.465452
O105	O	0.652729	0.962194	-0.423629
H106	H	0.566935	0.997138	-0.331144
O107	O	0.142492	1.454858	0.081437
H108	H	0.119590	1.433095	0.029385
H109	H	0.311782	0.948886	0.747187
H110	H	0.255648	1.449934	0.187993
O111	O	1.335825	0.620820	0.157155
H112	H	1.291106	0.629169	0.248114
H113	H	0.506660	0.766583	0.348884
O114	O	0.459238	1.303515	0.350685
H115	H	0.374065	1.343368	0.343134
O116	O	0.142467	1.454930	0.781315
H117	H	0.119527	1.433212	0.856301
O118	O	0.240282	1.474047	0.560055
H119	H	0.290688	1.466651	0.469109
O120	O	0.652747	0.962192	-0.223762
H121	H	0.652786	0.911487	-0.179958
O122	O	1.103600	0.254823	-0.049163
H123	H	1.089849	0.199419	-0.042300
H124	H	0.506660	0.766593	0.149758
O125	O	0.263603	1.265251	0.793194
H126	H	0.180552	1.337640	0.862273
O127	O	1.554730	0.450334	0.147651
H128	H	1.664705	0.415385	0.086268
O129	O	0.482542	1.094702	0.583809
H130	H	0.432099	1.102100	0.674755
H131	H	1.133058	0.766598	-0.651090
O132	O	0.297579	0.962147	-0.068488
H133	H	0.343262	0.997070	-0.107488
H134	H	0.486193	0.948902	0.572771
H135	H	1.371637	0.414393	-0.282719
H136	H	0.332218	0.766579	0.149771
O137	O	1.675936	0.260619	0.014657
H138	H	1.698813	0.282382	0.066733
O139	O	0.482640	1.094653	-0.061088
H140	H	0.432247	1.102029	-0.101635
H141	H	1.133075	0.766573	-0.476672
O142	O	1.554840	0.450227	-0.697092
H143	H	1.540300	0.415246	-0.745661
O144	O	0.714815	0.460651	0.145231
H145	H	0.728556	0.516060	0.138349
H146	H	1.648156	0.282234	-0.658587
O147	O	1.359235	0.411930	-0.099296
H148	H	1.417480	0.334684	-0.144547
O149	O	1.578215	0.241424	-0.108847
H150	H	1.659358	0.185942	-0.102044
H151	H	0.276141	1.267582	-0.035868
