data_functionalizedCrystal
_audit_creation_method	'MofGen! by Chris Wilmer'
_symmetry_space_group_name_H-M	'P1'
_symmetry_Int_Tables_number	1
_symmetry_cell_setting	triclinic
loop_
_symmetry_equiv_pos_as_xyz
  x,y,z
_cell_length_a	18.101395
_cell_length_b	19.805407
_cell_length_c	19.805399
_cell_angle_alpha	89.978936
_cell_angle_beta	90.025118
_cell_angle_gamma	89.969911
loop_
_atom_site_label
_atom_site_type_symbol
_atom_site_fract_x
_atom_site_fract_y
_atom_site_fract_z
Zn1	Zn	-0.294867	-1.034714	0.382758
Zn2	Zn	0.205133	-0.534714	0.882758
Zn3	Zn	-0.418710	-1.034619	0.269575
Zn4	Zn	0.081290	-0.534619	0.769575
Zn5	Zn	-0.294885	-0.921528	0.269580
Zn6	Zn	0.205115	-0.421528	0.769580
Zn7	Zn	-0.418669	-0.921482	0.382719
Zn8	Zn	0.081331	-0.421482	0.882719
O9	O	-0.356783	-0.978086	0.326158
O10	O	0.143217	-0.478086	0.826158
O11	O	-0.311305	-1.129418	0.367759
O12	O	0.188695	-0.629418	0.867759
O13	O	-0.402310	-1.019597	0.174859
O14	O	0.097690	-0.519597	0.674859
O15	O	-0.191250	-0.936601	0.284612
O16	O	0.308750	-0.436601	0.784612
O17	O	-0.402292	-1.129348	0.284603
O18	O	0.097708	-0.629348	0.784603
O19	O	-0.191236	-1.019758	0.367763
O20	O	0.308764	-0.519758	0.867763
O21	O	-0.311336	-0.936510	0.174863
O22	O	0.188664	-0.436510	0.674863
O23	O	-0.311295	-0.826806	0.284573
O24	O	0.188705	-0.326806	0.784573
O25	O	-0.402221	-0.936523	0.477440
O26	O	0.097779	-0.436523	0.977440
O27	O	-0.402239	-0.826772	0.367696
O28	O	0.097761	-0.326772	0.867696
O29	O	-0.311264	-1.019714	0.477470
O30	O	0.188736	-0.519714	0.977470
O31	O	-0.522338	-1.019553	0.284565
O32	O	-0.022338	-0.519553	0.784565
O33	O	-0.522307	-0.936432	0.367691
O34	O	-0.022307	-0.436432	0.867691
C35	C	-0.356765	-0.802230	0.326131
C36	C	0.143235	-0.302230	0.826131
C37	C	-0.356776	-0.726998	0.326136
C38	C	0.143224	-0.226998	0.826136
C39	C	-0.404200	-0.691654	0.369347
C40	C	0.095800	-0.191654	0.869347
C41	C	-0.404200	-0.620965	0.369355
C42	C	0.095800	-0.120965	0.869355
C43	C	-0.356779	-0.585622	0.326148
C44	C	0.143221	-0.085622	0.826148
C45	C	-0.309348	-0.620971	0.282935
C46	C	0.190652	-0.120971	0.782935
C47	C	-0.309345	-0.691658	0.282931
C48	C	0.190655	-0.191658	0.782931
C49	C	-0.309359	-0.335898	0.282950
C50	C	0.190641	0.164102	0.782950
C51	C	-0.309368	-0.265206	0.282955
C52	C	0.190632	0.234794	0.782955
C53	C	-0.404214	-0.265205	0.369373
C54	C	0.095786	0.234795	0.869373
C55	C	-0.404211	-0.335892	0.369370
C56	C	0.095789	0.164108	0.869370
C57	C	-0.356779	-0.371235	0.326160
C58	C	0.143221	0.128765	0.826160
C59	C	-0.356778	-0.447883	0.326153
C60	C	0.143222	0.052117	0.826153
C61	C	-0.356782	-0.508975	0.326151
C62	C	0.143218	-0.008975	0.826151
C63	C	-0.549193	-0.977995	0.326138
C64	C	-0.049193	-0.477995	0.826138
C65	C	-0.631507	-0.978018	0.326152
C66	C	-0.131507	-0.478018	0.826152
C67	C	-0.930598	-0.978167	0.326188
C68	C	-0.430598	-0.478167	0.826188
C69	C	-0.899285	-0.925991	0.378619
C70	C	-0.399285	-0.425991	0.878619
C71	C	-0.813667	-0.925743	0.378455
C72	C	-0.313667	-0.425743	0.878455
C73	C	-0.782216	-0.978093	0.326171
C74	C	-0.282216	-0.478093	0.826171
C75	C	-0.813364	-0.958782	0.254836
C76	C	-0.313364	-0.458782	0.754836
C77	C	-0.899009	-0.958446	0.255150
C78	C	-0.399009	-0.458446	0.755150
C79	C	-0.898944	-1.049768	0.344465
C80	C	-0.398944	-0.549768	0.844465
C81	C	-0.813293	-1.049347	0.346029
C82	C	-0.313293	-0.549347	0.846029
C83	C	-0.698356	-0.978053	0.326157
C84	C	-0.198356	-0.478053	0.826157
C85	C	-1.014458	-0.978206	0.326198
C86	C	-0.514458	-0.478206	0.826198
C87	C	-0.163621	-0.978195	0.326193
C88	C	0.336379	-0.478195	0.826193
C89	C	-0.081307	-0.978242	0.326207
C90	C	0.418693	-0.478242	0.826207
C91	C	-0.356736	-0.978124	0.502701
C92	C	0.143264	-0.478124	1.002701
C93	C	-0.356716	-0.978140	0.577933
C94	C	0.143284	-0.478140	1.077933
C95	C	-0.356796	-0.154629	0.326178
C96	C	0.143204	0.345371	0.826178
C97	C	-0.356789	-0.229861	0.326170
C98	C	0.143211	0.270139	0.826170
C99	C	-0.356776	-0.978087	0.150302
C100	C	0.143224	-0.478087	0.650302
C101	C	-0.356587	-0.978202	0.075070
C102	C	0.143413	-0.478202	0.575070
C103	C	-0.309353	-1.021458	0.613293
C104	C	0.190647	-0.521458	1.113293
C105	C	-0.309331	-1.021465	0.683982
C106	C	0.190669	-0.521465	1.183982
C107	C	-0.356678	-0.978157	0.719308
C108	C	0.143322	-0.478157	1.219308
C109	C	-0.404043	-0.934834	0.683943
C110	C	0.095957	-0.434834	1.183943
C111	C	-0.404060	-0.934824	0.613256
C112	C	0.095940	-0.434824	1.113256
C113	C	-0.403974	-0.934872	0.969016
C114	C	0.096026	-0.434872	1.469016
C115	C	-0.403955	-0.934887	1.039709
C116	C	0.096045	-0.434887	1.539709
C117	C	-0.309245	-1.021513	1.039742
C118	C	0.190755	-0.521513	1.539742
C119	C	-0.309262	-1.021503	0.969055
C120	C	0.190738	-0.521503	1.469055
C121	C	-0.356625	-0.978178	0.933696
C122	C	0.143375	-0.478178	1.433696
C123	C	-0.356646	-0.978170	0.857047
C124	C	0.143354	-0.478170	1.357047
C125	C	-0.356660	-0.978168	0.795955
C126	C	0.143340	-0.478168	1.295955
H127	H	-0.270747	-0.236431	0.247771
H128	H	0.229253	0.263569	0.747771
C129	C	-0.456072	-0.887211	0.930130
C130	C	0.043928	-0.387211	1.430130
N131	N	-0.495314	-0.851309	0.900839
N132	N	0.004686	-0.351309	1.400839
C133	C	-0.257266	-1.069101	0.574440
C134	C	0.242734	-0.569101	1.074440
N135	N	-0.218031	-1.104985	0.545178
N136	N	0.281969	-0.604985	1.045178
H137	H	-0.442833	-0.236420	0.404560
H138	H	0.057167	0.263580	0.904560
H139	H	-0.270677	-1.056788	1.068540
H140	H	0.229323	-0.556788	1.568540
C141	C	-0.456369	-0.730525	0.416879
C142	C	0.043631	-0.230525	0.916879
N143	N	-0.495662	-0.759801	0.452683
N144	N	0.004338	-0.259801	0.952683
C145	C	-0.257182	-0.582091	0.235408
C146	C	0.242818	-0.082091	0.735408
N147	N	-0.217891	-0.552807	0.199608
N148	N	0.282109	-0.052807	0.699608
H149	H	-0.270742	-0.364665	0.247760
H150	H	0.229258	0.135335	0.747760
C151	C	-0.784368	-1.104644	0.298198
C152	C	-0.284368	-0.604644	0.798198
N153	N	-0.762583	-1.146292	0.262166
N154	N	-0.262583	-0.646292	0.762166
C155	C	-0.785839	-1.008502	0.200619
C156	C	-0.285839	-0.508502	0.700619
N157	N	-0.765103	-1.045951	0.159783
N158	N	-0.265103	-0.545951	0.659783
H159	H	-0.920495	-1.067374	0.395596
H160	H	-0.420495	-0.567374	0.895596
C161	C	-0.784480	-0.888819	0.233548
C162	C	-0.284480	-0.388819	0.733548
N163	N	-0.762727	-0.836120	0.217518
N164	N	-0.262727	-0.336120	0.717518
H165	H	-0.270723	-0.720435	0.247748
H166	H	0.229277	-0.220435	0.747748
C167	C	-0.257229	-1.069120	0.722875
C168	C	0.242771	-0.569120	1.222875
N169	N	-0.217983	-1.105016	0.752169
N170	N	0.282017	-0.605016	1.252169
H171	H	-0.442511	-0.899617	1.068470
H172	H	0.057489	-0.399617	1.568470
C173	C	-0.785212	-0.942062	0.449914
C174	C	-0.285212	-0.442062	0.949914
N175	N	-0.763783	-0.954351	0.503740
N176	N	-0.263783	-0.454351	1.003740
C177	C	-0.456118	-0.887188	0.722805
C178	C	0.043882	-0.387188	1.222805
N179	N	-0.495341	-0.851299	0.752075
N180	N	0.004659	-0.351299	1.252075
H181	H	-0.792933	-1.063910	0.398528
H182	H	-0.292933	-0.563910	0.898528
C183	C	-0.786071	-0.854032	0.362149
C184	C	-0.286071	-0.354032	0.862149
N185	N	-0.765286	-0.800013	0.349884
N186	N	-0.265286	-0.300013	0.849884
H187	H	-0.919835	-0.937953	0.431685
H188	H	-0.419835	-0.437953	0.931685
C189	C	-0.926086	-0.887736	0.234239
C190	C	-0.426086	-0.387736	0.734239
N191	N	-0.946476	-0.834474	0.218491
N192	N	-0.446476	-0.334474	0.718491
C193	C	-0.928435	-0.854725	0.362465
C194	C	-0.428435	-0.354725	0.862465
N195	N	-0.950389	-0.801048	0.350293
N196	N	-0.450389	-0.301048	0.850293
H197	H	-0.919725	-0.994801	0.214752
H198	H	-0.419725	-0.494801	0.714752
C199	C	-0.456165	-0.887172	0.574360
C200	C	0.043835	-0.387172	1.074360
N201	N	-0.495411	-0.851277	0.545064
N202	N	0.004589	-0.351277	1.045064
H203	H	-0.442819	-0.592192	0.404541
H204	H	0.057181	-0.092192	0.904541
H205	H	-0.442829	-0.364665	0.404551
H206	H	0.057171	0.135335	0.904551
H207	H	-0.919193	-1.088641	0.306278
H208	H	-0.419193	-0.588641	0.806278
H209	H	-0.270710	-1.056772	0.940295
H210	H	0.229290	-0.556772	1.440295
