data_functionalizedCrystal
_audit_creation_method	'MofGen! by Chris Wilmer'
_symmetry_space_group_name_H-M	'P1'
_symmetry_Int_Tables_number	1
_symmetry_cell_setting	triclinic
loop_
_symmetry_equiv_pos_as_xyz
  x,y,z
_cell_length_a	13.897449
_cell_length_b	12.759399
_cell_length_c	12.759393
_cell_angle_alpha	89.969094
_cell_angle_beta	89.978412
_cell_angle_gamma	90.016396
loop_
_atom_site_label
_atom_site_type_symbol
_atom_site_fract_x
_atom_site_fract_y
_atom_site_fract_z
Zn1	Zn	1.474728	-0.418180	-0.594035
Zn2	Zn	1.974728	0.081820	-0.094035
Zn3	Zn	1.474627	-0.593895	-0.418354
Zn4	Zn	1.974627	-0.093895	0.081646
Zn5	Zn	1.313415	-0.418235	-0.418369
Zn6	Zn	1.813415	0.081765	0.081631
Zn7	Zn	1.313406	-0.593821	-0.593989
Zn8	Zn	1.813406	-0.093821	-0.093989
O9	O	1.394044	-0.506033	-0.506187
O10	O	1.894044	-0.006033	-0.006187
O11	O	1.609696	-0.441497	-0.570744
O12	O	2.109696	0.058503	-0.070744
O13	O	1.453203	-0.570648	-0.271335
O14	O	1.953203	-0.070648	0.228665
O15	O	1.334859	-0.271206	-0.441696
O16	O	1.834859	0.228794	0.058304
O17	O	1.609622	-0.570594	-0.441672
O18	O	2.109622	-0.070594	0.058328
O19	O	1.453375	-0.271166	-0.570758
O20	O	1.953375	0.228834	-0.070758
O21	O	1.334761	-0.441591	-0.271345
O22	O	1.834761	0.058409	0.228655
O23	O	1.178432	-0.441519	-0.441652
O24	O	1.678432	0.058481	0.058348
O25	O	1.334845	-0.570468	-0.741017
O26	O	1.834845	-0.070468	-0.241017
O27	O	1.178426	-0.570521	-0.570680
O28	O	1.678426	-0.070521	-0.070680
O29	O	1.453367	-0.441425	-0.741050
O30	O	1.953367	0.058575	-0.241050
O31	O	1.453195	-0.740906	-0.441627
O32	O	1.953195	-0.240906	0.058373
O33	O	1.334746	-0.740852	-0.570666
O34	O	1.834746	-0.240852	-0.070666
C35	C	1.393985	-0.779000	-0.506163
C36	C	1.893985	-0.279000	-0.006163
C37	C	1.394048	-0.895777	-0.506188
C38	C	1.894048	-0.395777	-0.006188
C39	C	1.143430	-0.506019	-0.506163
C40	C	1.643430	-0.006019	-0.006163
C41	C	1.036216	-0.506038	-0.506178
C42	C	1.536216	-0.006038	-0.006178
C43	C	1.455794	-0.950632	-0.439074
C44	C	1.955794	-0.450632	0.060926
C45	C	1.455856	-1.060356	-0.439109
C46	C	1.955856	-0.560356	0.060891
C47	C	1.332417	-1.060360	-0.573375
C48	C	1.832417	-0.560360	-0.073375
C49	C	1.332361	-0.950638	-0.573345
C50	C	1.832361	-0.450638	-0.073345
C51	C	0.839921	-0.506042	-0.506205
C52	C	1.339921	-0.006042	-0.006205
C53	C	0.949153	-0.506036	-0.506187
C54	C	1.449153	-0.006036	-0.006187
C55	C	1.645637	-0.506047	-0.506212
C56	C	2.145637	-0.006047	-0.006212
C57	C	1.752851	-0.506054	-0.506222
C58	C	2.252851	-0.006054	-0.006222
C59	C	1.394116	-0.505932	-0.780220
C60	C	1.894116	-0.005932	-0.280220
C61	C	1.394147	-0.505889	-0.896997
C62	C	1.894147	-0.005889	-0.396997
C63	C	1.394130	-0.231999	-0.506234
C64	C	1.894130	0.268001	-0.006234
C65	C	1.394166	-0.115223	-0.506254
C66	C	1.894166	0.384777	-0.006254
C67	C	1.455866	-0.438685	-0.951878
C68	C	1.955866	0.061315	-0.451878
C69	C	1.455882	-0.438640	-1.061602
C70	C	1.955882	0.061360	-0.561602
C71	C	1.332458	-0.573011	-1.061554
C72	C	1.832458	-0.073011	-0.561554
C73	C	1.332437	-0.573050	-0.951832
C74	C	1.832437	-0.073050	-0.451832
C75	C	1.394028	-0.506057	-0.233219
C76	C	1.894028	-0.006057	0.266781
C77	C	1.394184	-0.505804	-0.116443
C78	C	1.894184	-0.005804	0.383557
H79	H	1.506025	-0.905967	-0.384392
H80	H	2.006025	-0.405967	0.115608
C81	C	1.522930	-1.119724	-0.366124
C82	C	2.022930	-0.619724	0.133876
C83	C	1.576920	-1.048190	-0.307291
C84	C	2.076920	-0.548190	0.192709
C85	C	1.638713	-1.102840	-0.240034
C86	C	2.138713	-0.602840	0.259966
H87	H	1.565051	-1.162456	-0.406247
H88	H	2.065051	-0.662456	0.093753
H89	H	1.486095	-1.162578	-0.320269
H90	H	1.986095	-0.662578	0.179731
H91	H	1.613752	-1.005354	-0.353140
H92	H	2.113752	-0.505354	0.146860
H93	H	1.534825	-1.005455	-0.267146
H94	H	2.034825	-0.505455	0.232854
H95	H	1.601878	-1.145694	-0.194179
H96	H	2.101878	-0.645694	0.305821
H97	H	1.680827	-1.145571	-0.280165
H98	H	2.180827	-0.645571	0.219835
H99	H	1.675346	-1.054313	-0.200101
H100	H	2.175346	-0.554313	0.299899
H101	H	1.282171	-0.627774	-0.907147
H102	H	1.782171	-0.127774	-0.407147
C103	C	1.522785	-0.365712	-1.121377
C104	C	2.022785	0.134288	-0.621377
C105	C	1.509576	-0.380023	-1.229205
C106	C	2.009576	0.119977	-0.729205
C107	C	1.571180	-0.312843	-1.284301
C108	C	2.071180	0.187157	-0.784301
H109	H	1.587627	-0.381030	-1.103537
H110	H	2.087627	0.118970	-0.603537
H111	H	1.508676	-0.295106	-1.103459
H112	H	2.008676	0.204894	-0.603459
H113	H	1.523692	-0.450612	-1.247116
H114	H	2.023692	0.049388	-0.747116
H115	H	1.444747	-0.364697	-1.247076
H116	H	1.944747	0.135303	-0.747076
H117	H	1.557071	-0.242237	-1.266383
H118	H	2.057071	0.257763	-0.766383
H119	H	1.636018	-0.328167	-1.266452
H120	H	2.136018	0.171833	-0.766452
H121	H	1.562220	-0.322536	-1.357467
H122	H	2.062220	0.177464	-0.857467
C123	C	1.265307	-0.645804	-1.121036
C124	C	1.765307	-0.145804	-0.621036
C125	C	1.169871	-0.622912	-1.094355
C126	C	1.669871	-0.122912	-0.594355
C127	C	1.107986	-0.689943	-1.149135
C128	C	1.607986	-0.189943	-0.649135
H129	H	1.279271	-0.716439	-1.103086
H130	H	1.779271	-0.216439	-0.603086
H131	H	1.274094	-0.636152	-1.194253
H132	H	1.774094	-0.136152	-0.694253
H133	H	1.161089	-0.632573	-1.021153
H134	H	1.661089	-0.132573	-0.521153
H135	H	1.155878	-0.552290	-1.112308
H136	H	1.655878	-0.052290	-0.612308
H137	H	1.116772	-0.680291	-1.222352
H138	H	1.616772	-0.180291	-0.722352
H139	H	1.121958	-0.760574	-1.131180
H140	H	1.621958	-0.260574	-0.631180
H141	H	1.043225	-0.674414	-1.131047
H142	H	1.543225	-0.174414	-0.631047
C143	C	1.265474	-1.120115	-0.646162
C144	C	1.765474	-0.620115	-0.146162
C145	C	1.278717	-1.227947	-0.631804
C146	C	1.778717	-0.727947	-0.131804
C147	C	1.217053	-1.283023	-0.698825
C148	C	1.717053	-0.783023	-0.198825
H149	H	1.279485	-1.102192	-0.716805
H150	H	1.779485	-0.602192	-0.216805
H151	H	1.200642	-1.102263	-0.630706
H152	H	1.700642	-0.602263	-0.130706
H153	H	1.343534	-1.245791	-0.647267
H154	H	1.843534	-0.745791	-0.147267
H155	H	1.264699	-1.245901	-0.561175
H156	H	1.764699	-0.745901	-0.061175
H157	H	1.152221	-1.265171	-0.683369
H158	H	1.652221	-0.765171	-0.183369
H159	H	1.231069	-1.265091	-0.769464
H160	H	1.731069	-0.765091	-0.269464
H161	H	1.226023	-1.356192	-0.689086
H162	H	1.726023	-0.856192	-0.189086
H163	H	1.282079	-0.905971	-0.628002
H164	H	1.782079	-0.405971	-0.128002
H165	H	1.506112	-0.383996	-0.907235
H166	H	2.006112	0.116004	-0.407235
