data_functionalizedCrystal
_audit_creation_method	'MofGen! by Chris Wilmer'
_symmetry_space_group_name_H-M	'P1'
_symmetry_Int_Tables_number	1
_symmetry_cell_setting	triclinic
loop_
_symmetry_equiv_pos_as_xyz
  x,y,z
_cell_length_a	16.625548
_cell_length_b	16.625545
_cell_length_c	13.897441
_cell_angle_alpha	90.031157
_cell_angle_beta	90.021870
_cell_angle_gamma	90.026626
loop_
_atom_site_label
_atom_site_type_symbol
_atom_site_fract_x
_atom_site_fract_y
_atom_site_fract_z
Zn1	Zn	1.232674	-0.320953	0.545407
Zn2	Zn	1.482674	-0.070953	0.795407
Zn3	Zn	1.732674	0.179047	1.045407
Zn4	Zn	1.982674	0.429047	1.295407
Zn5	Zn	1.232566	-0.455803	0.384106
Zn6	Zn	1.482566	-0.205803	0.634106
Zn7	Zn	1.732566	0.044197	0.884106
Zn8	Zn	1.982566	0.294197	1.134106
Zn9	Zn	1.097832	-0.320991	0.384122
Zn10	Zn	1.347832	-0.070991	0.634122
Zn11	Zn	1.597832	0.179009	0.884122
Zn12	Zn	1.847832	0.429009	1.134122
Zn13	Zn	1.097798	-0.455750	0.545356
Zn14	Zn	1.347798	-0.205750	0.795356
Zn15	Zn	1.597798	0.044250	1.045356
Zn16	Zn	1.847798	0.294250	1.295356
O17	O	1.165218	-0.388374	0.464748
O18	O	1.415218	-0.138374	0.714748
O19	O	1.665218	0.111626	0.964748
O20	O	1.915218	0.361626	1.214748
O21	O	1.345492	-0.338848	0.524025
O22	O	1.595492	-0.088848	0.774025
O23	O	1.845492	0.161152	1.024025
O24	O	2.095492	0.411152	1.274025
O25	O	1.214663	-0.437958	0.249127
O26	O	1.464663	-0.187958	0.499127
O27	O	1.714663	0.062042	0.749127
O28	O	1.964663	0.312042	0.999127
O29	O	1.115778	-0.208153	0.405544
O30	O	1.365778	0.041847	0.655544
O31	O	1.615778	0.291847	0.905544
O32	O	1.865778	0.541847	1.155544
O33	O	1.345413	-0.437922	0.405518
O34	O	1.595413	-0.187922	0.655518
O35	O	1.845413	0.062078	0.905518
O36	O	2.095413	0.312078	1.155518
O37	O	1.214846	-0.208126	0.524040
O38	O	1.464846	0.041874	0.774040
O39	O	1.714846	0.291874	1.024040
O40	O	1.964846	0.541874	1.274040
O41	O	1.115674	-0.338912	0.249138
O42	O	1.365674	-0.088912	0.499138
O43	O	1.615674	0.161088	0.749138
O44	O	1.865674	0.411088	0.999138
O45	O	0.984995	-0.338860	0.405495
O46	O	1.234995	-0.088860	0.655495
O47	O	1.484995	0.161140	0.905495
O48	O	1.734995	0.411140	1.155495
O49	O	1.115721	-0.437830	0.680344
O50	O	1.365721	-0.187830	0.930344
O51	O	1.615721	0.062170	1.180344
O52	O	1.865721	0.312170	1.430344
O53	O	0.984971	-0.437867	0.523953
O54	O	1.234971	-0.187867	0.773953
O55	O	1.484971	0.062133	1.023953
O56	O	1.734971	0.312133	1.273953
O57	O	1.214813	-0.338796	0.680382
O58	O	1.464813	-0.088796	0.930382
O59	O	1.714813	0.161204	1.180382
O60	O	1.964813	0.411204	1.430382
O61	O	1.214630	-0.568629	0.405469
O62	O	1.464630	-0.318629	0.655469
O63	O	1.714630	-0.068629	0.905469
O64	O	1.964630	0.181371	1.155469
O65	O	1.115617	-0.568589	0.523938
O66	O	1.365617	-0.318589	0.773938
O67	O	1.615617	-0.068589	1.023938
O68	O	1.865617	0.181411	1.273938
C69	C	0.955727	-0.388363	0.464721
C70	C	1.205727	-0.138363	0.714721
C71	C	1.455727	0.111637	0.964721
C72	C	1.705727	0.361637	1.214721
C73	C	0.866106	-0.388377	0.464732
C74	C	1.116106	-0.138377	0.714732
C75	C	1.366106	0.111623	0.964732
C76	C	1.616106	0.361623	1.214732
C77	C	1.165130	-0.597865	0.464717
C78	C	1.415130	-0.347865	0.714717
C79	C	1.665130	-0.097865	0.964717
C80	C	1.915130	0.152135	1.214717
C81	C	1.165166	-0.687486	0.464737
C82	C	1.415166	-0.437486	0.714737
C83	C	1.665166	-0.187486	0.964737
C84	C	1.915166	0.062514	1.214737
C85	C	0.537930	-0.388382	0.464773
C86	C	0.787930	-0.138382	0.714773
C87	C	1.037930	0.111618	0.964773
C88	C	1.287930	0.361618	1.214773
C89	C	0.629239	-0.388379	0.464759
C90	C	0.879239	-0.138379	0.714759
C91	C	1.129239	0.111621	0.964759
C92	C	1.379239	0.361621	1.214759
C93	C	0.702015	-0.388380	0.464752
C94	C	0.952015	-0.138380	0.714752
C95	C	1.202015	0.111620	0.964752
C96	C	1.452015	0.361620	1.214752
C97	C	0.793329	-0.388376	0.464739
C98	C	1.043329	-0.138376	0.714739
C99	C	1.293329	0.111624	0.964739
C100	C	1.543329	0.361624	1.214739
C101	C	1.165198	-0.760269	0.464756
C102	C	1.415198	-0.510269	0.714756
C103	C	1.665198	-0.260269	0.964756
C104	C	1.915198	-0.010269	1.214756
C105	C	1.165245	-0.851577	0.464777
C106	C	1.415245	-0.601577	0.714777
C107	C	1.665245	-0.351577	0.964777
C108	C	1.915245	-0.101577	1.214777
C109	C	1.165286	-0.924353	0.464789
C110	C	1.415286	-0.674353	0.714789
C111	C	1.665286	-0.424353	0.964789
C112	C	1.915286	-0.174353	1.214789
C113	C	1.165333	-1.015668	0.464809
C114	C	1.415333	-0.765668	0.714809
C115	C	1.665333	-0.515668	0.964809
C116	C	1.915333	-0.265668	1.214809
C117	C	1.375527	-0.388386	0.464775
C118	C	1.625527	-0.138386	0.714775
C119	C	1.875527	0.111614	0.964775
C120	C	2.125527	0.361614	1.214775
C121	C	1.465148	-0.388392	0.464787
C122	C	1.715148	-0.138392	0.714787
C123	C	1.965148	0.111608	0.964787
C124	C	2.215148	0.361608	1.214787
C125	C	1.165275	-0.388303	0.716341
C126	C	1.415275	-0.138303	0.966341
C127	C	1.665275	0.111697	1.216341
C128	C	1.915275	0.361697	1.466341
C129	C	1.165299	-0.388273	0.823555
C130	C	1.415299	-0.138273	1.073555
C131	C	1.665299	0.111727	1.323555
C132	C	1.915299	0.361727	1.573555
C133	C	1.165328	-0.178065	0.464799
C134	C	1.415328	0.071935	0.714799
C135	C	1.665328	0.321935	0.964799
C136	C	1.915328	0.571935	1.214799
C137	C	1.165374	-0.088444	0.464821
C138	C	1.415374	0.161556	0.714821
C139	C	1.665374	0.411556	0.964821
C140	C	1.915374	0.661556	1.214821
C141	C	1.165207	-0.388387	0.214133
C142	C	1.415207	-0.138387	0.464133
C143	C	1.665207	0.111613	0.714133
C144	C	1.915207	0.361613	0.964133
C145	C	1.165339	-0.388190	0.106920
C146	C	1.415339	-0.138190	0.356920
C147	C	1.665339	0.111810	0.606920
C148	C	1.915339	0.361810	0.856920
C149	C	1.165321	-0.388218	1.019850
C150	C	1.415321	-0.138218	1.269850
C151	C	1.665321	0.111782	1.519850
C152	C	1.915321	0.361782	1.769850
C153	C	1.165307	-0.388251	0.910618
C154	C	1.415307	-0.138251	1.160618
C155	C	1.665307	0.111749	1.410618
C156	C	1.915307	0.361749	1.660618
