data_functionalizedCrystal
_audit_creation_method	'MofGen! by Chris Wilmer'
_symmetry_space_group_name_H-M	'P1'
_symmetry_Int_Tables_number	1
_symmetry_cell_setting	triclinic
loop_
_symmetry_equiv_pos_as_xyz
  x,y,z
_cell_length_a	17.038272
_cell_length_b	15.538191
_cell_length_c	16.098524
_cell_angle_alpha	86.240236
_cell_angle_beta	87.129416
_cell_angle_gamma	69.191825
loop_
_atom_site_label
_atom_site_type_symbol
_atom_site_fract_x
_atom_site_fract_y
_atom_site_fract_z
O1	O	0.982655	0.203926	-0.069145
O2	O	0.755925	0.200751	-0.069169
O3	O	0.913425	0.068746	-0.069156
O4	O	0.825155	0.335931	-0.069158
O5	O	0.909400	0.060899	0.069357
O6	O	0.751900	0.192904	0.069344
O7	O	0.978629	0.196079	0.069368
Zn8	Zn	0.864626	0.193246	0.091348
Zn9	Zn	0.869929	0.203584	-0.091149
O10	O	0.821130	0.328084	0.069355
C11	C	0.920648	0.030467	0.000099
C12	C	0.948157	-0.071902	0.000093
C13	C	0.725604	0.193939	0.000084
C14	C	0.641255	0.185322	0.000074
C15	C	0.674862	-0.381593	0.000082
C16	C	0.700730	-0.477786	0.000086
C17	C	0.846232	-0.488570	0.000102
C18	C	0.820377	-0.392375	0.000093
C19	C	0.734690	-0.338895	0.000084
C20	C	0.880205	-0.349677	0.000095
C21	C	0.854351	-0.253491	0.000091
C22	C	0.768668	-0.200004	0.000084
C23	C	0.708836	-0.242709	0.000079
C24	C	0.965891	-0.403159	0.000110
C25	C	1.025719	-0.360461	0.000112
C26	C	0.999865	-0.264273	0.000102
C27	C	0.914183	-0.210786	0.000095
C28	C	1.059697	-0.221568	0.000107
C29	C	1.033843	-0.125382	0.000102
C30	C	0.888329	-0.114600	0.000091
C31	C	0.568704	0.264445	0.000075
C32	C	0.489451	0.256342	0.000086
C33	C	0.482751	0.169114	0.000092
C34	C	0.555310	0.089984	0.000094
C35	C	0.634561	0.098089	0.000088
C36	C	0.245111	0.140483	0.000114
C37	C	0.165851	0.132385	0.000117
C38	C	0.099997	0.298743	0.000111
C39	C	0.179253	0.306840	0.000100
C40	C	0.251805	0.227710	0.000107
C41	C	0.401742	0.160829	0.000101
C42	C	0.332812	0.235996	0.000104
C43	C	1.008951	0.202891	0.000113
C44	C	1.093300	0.211509	0.000117
C45	C	0.813907	0.366363	0.000099
C46	C	0.786398	0.468732	0.000098
N47	N	0.861012	0.186190	0.215897
N48	N	0.873551	0.210633	-0.215698
C49	C	0.890246	0.243335	0.259483
C50	C	0.887730	0.238394	0.346672
C51	C	0.855974	0.176312	0.390273
C52	C	0.826739	0.119162	0.346680
C53	C	0.829261	0.124099	0.259493
C54	C	0.846839	0.158419	0.653523
C55	C	0.844317	0.153488	0.740716
C56	C	0.905309	0.272720	0.740702
C57	C	0.907824	0.277655	0.653513
C58	C	0.878593	0.220501	0.609928
C59	C	0.853399	0.171262	0.479394
C60	C	0.881174	0.225547	0.520808
H61	H	0.747619	-0.121684	0.000085
H62	H	0.040919	0.363166	0.000107
H63	H	0.430380	0.320773	0.000085
N64	N	0.919274	0.300037	0.393657
H65	H	0.872169	0.340391	0.429837
H66	H	0.967041	0.260856	0.429773
N67	N	0.582438	-0.323918	0.000085
H68	H	0.566983	-0.286685	0.051435
H69	H	0.570008	-0.280911	-0.051293
N70	N	0.636197	-0.523842	0.000085
H71	H	0.577994	-0.475364	0.000079
H72	H	0.645245	-0.560609	-0.051262
H73	H	0.160404	0.061350	0.000121
H74	H	0.800888	0.068609	0.382187
H75	H	0.933686	0.328206	0.618019
N76	N	0.797735	0.062461	0.212478
H77	H	0.777234	0.022383	0.253327
H78	H	0.750021	0.101644	0.176302
N79	N	1.118133	-0.418148	0.000112
H80	H	1.152111	-0.376500	0.000110
H81	H	1.130543	-0.461197	0.051462
N82	N	0.616418	-0.185015	0.000056
H83	H	0.582435	-0.226657	0.000050
H84	H	0.601026	-0.147777	0.051402
N85	N	0.936837	0.334360	0.787710
H86	H	0.930422	0.321815	0.849559
H87	H	0.998027	0.321518	0.772466
H88	H	0.396277	0.089806	0.000129
N89	N	0.938647	-0.546254	0.000120
H90	H	0.945949	-0.613668	0.000125
H91	H	0.967392	-0.528893	-0.051228
N92	N	1.098368	-0.079320	0.000109
H93	H	1.156572	-0.127795	0.000114
H94	H	1.092300	-0.036739	-0.051239
N95	N	1.152110	-0.279263	0.000130
H96	H	1.167575	-0.316512	-0.051211
H97	H	1.186030	-0.237562	0.000163
H98	H	0.574149	0.335476	0.000070
N99	N	0.993774	-0.506903	0.000114
H100	H	1.030065	-0.529283	-0.051225
H101	H	1.027033	-0.535020	0.051502
H102	H	0.184699	0.377870	0.000086
N103	N	0.323355	0.055140	0.000127
H104	H	0.307082	-0.001346	0.000130
H105	H	0.359164	0.057778	-0.051220
H106	H	0.549849	0.018961	0.000110
H107	H	0.916100	0.293893	0.223990
H108	H	0.693635	0.033657	0.000088
N109	N	0.819136	0.104319	0.526432
H110	H	0.758809	0.118856	0.511266
H111	H	0.853724	0.039404	0.511249
N112	N	0.340028	0.330078	0.000097
H113	H	0.369957	0.334243	0.051441
H114	H	0.372907	0.339991	-0.051287
N115	N	0.810049	0.086538	0.787746
H116	H	0.791912	0.051082	0.746906
H117	H	0.855099	0.042160	0.823929
H118	H	0.823037	0.111880	0.618046
H119	H	0.907034	0.276091	0.485305
H120	H	0.818555	-0.071053	0.000078
