data_functionalizedCrystal
_audit_creation_method	'MofGen! by Chris Wilmer'
_symmetry_space_group_name_H-M	'P1'
_symmetry_Int_Tables_number	1
_symmetry_cell_setting	triclinic
loop_
_symmetry_equiv_pos_as_xyz
  x,y,z
_cell_length_a	19.288864
_cell_length_b	14.853567
_cell_length_c	17.766277
_cell_angle_alpha	89.997439
_cell_angle_beta	89.976791
_cell_angle_gamma	83.385589
loop_
_atom_site_label
_atom_site_type_symbol
_atom_site_fract_x
_atom_site_fract_y
_atom_site_fract_z
O1	O	0.921733	0.112464	-0.062829
O2	O	1.421733	0.612464	0.437171
O3	O	0.719523	0.127636	-0.062777
O4	O	1.219523	0.627636	0.437223
O5	O	0.826029	-0.011211	-0.062807
O6	O	1.326029	0.488789	0.437193
O7	O	0.815227	0.251310	-0.062800
O8	O	1.315227	0.751310	0.437200
O9	O	0.826011	-0.011218	0.062382
O10	O	1.326011	0.488782	0.562382
O11	O	0.719504	0.127629	0.062411
O12	O	1.219504	0.627629	0.562411
O13	O	0.921714	0.112457	0.062359
O14	O	1.421714	0.612457	0.562359
Cu15	Cu	0.820607	0.120042	0.073816
Cu16	Cu	1.320607	0.620042	0.573816
Cu17	Cu	0.820630	0.120051	-0.074234
Cu18	Cu	1.320630	0.620051	0.425766
O19	O	0.815208	0.251303	0.062389
O20	O	1.315208	0.751303	0.562389
C21	C	0.693636	0.127144	-0.000176
C22	C	1.193636	0.627144	0.499824
C23	C	0.616527	0.125679	-0.000157
C24	C	1.116527	0.625679	0.499843
C25	C	0.572106	0.207147	-0.000166
C26	C	1.072106	0.707147	0.499834
C27	C	0.499654	0.205770	-0.000175
C28	C	0.999654	0.705770	0.499825
C29	C	0.471627	0.122920	-0.000188
C30	C	0.971627	0.622920	0.499812
C31	C	0.516058	0.041441	-0.000175
C32	C	1.016058	0.541441	0.499825
C33	C	0.588508	0.042820	-0.000159
C34	C	1.088508	0.542820	0.499841
C35	C	0.363152	0.057794	-0.044075
C36	C	0.863152	0.557794	0.455925
C37	C	0.290703	0.056418	-0.044095
C38	C	0.790703	0.556418	0.455905
C39	C	0.248167	0.118664	-0.000234
C40	C	0.748167	0.618664	0.499766
C41	C	0.278088	0.182300	0.043638
C42	C	0.778088	0.682300	0.543638
C43	C	0.350538	0.183679	0.043654
C44	C	0.850538	0.683679	0.543654
C45	C	0.393068	0.121416	-0.000205
C46	C	0.893068	0.621416	0.499795
C47	C	0.125185	0.198645	-0.000252
C48	C	0.625185	0.698645	0.499748
C49	C	0.052732	0.197265	-0.000255
C50	C	0.552732	0.697265	0.499745
C51	C	0.069138	0.032933	-0.000263
C52	C	0.569138	0.532933	0.499737
C53	C	0.141589	0.034316	-0.000252
C54	C	0.641589	0.534316	0.499748
C55	C	0.169608	0.117174	-0.000250
C56	C	0.669608	0.617174	0.499750
C57	C	0.825530	-0.044800	-0.000215
C58	C	1.325530	0.455200	0.499785
C59	C	0.824064	-0.144875	-0.000221
C60	C	1.324064	0.355125	0.499779
C61	C	0.754596	-0.557014	-0.000189
C62	C	1.254596	-0.057014	0.499811
C63	C	0.881128	-0.579015	-0.000221
C64	C	1.381128	-0.079015	0.499779
C65	C	0.882507	-0.484989	-0.000226
C66	C	1.382507	0.015011	0.499774
C67	C	0.819930	-0.426971	-0.000211
C68	C	1.319930	0.073029	0.499789
C69	C	0.755974	-0.462979	-0.000191
C70	C	1.255974	0.037021	0.499809
C71	C	0.946462	-0.448973	-0.000239
C72	C	1.446462	0.051027	0.499761
C73	C	0.947844	-0.354942	-0.000242
C74	C	1.447844	0.145058	0.499758
C75	C	0.885266	-0.296923	-0.000233
C76	C	1.385266	0.203077	0.499767
C77	C	0.821307	-0.332936	-0.000214
C78	C	1.321307	0.167064	0.499786
C79	C	0.758730	-0.274918	-0.000199
C80	C	1.258730	0.225082	0.499801
C81	C	0.694770	-0.310930	-0.000185
C82	C	1.194770	0.189070	0.499815
C83	C	0.693396	-0.404960	-0.000181
C84	C	1.193396	0.095040	0.499819
C85	C	0.886641	-0.202893	-0.000236
C86	C	1.386641	0.297107	0.499764
C87	C	0.760107	-0.180883	-0.000201
C88	C	1.260107	0.319117	0.499799
C89	C	0.947601	0.112949	-0.000243
C90	C	1.447601	0.612949	0.499757
C91	C	1.024710	0.114414	-0.000268
C92	C	1.524710	0.614414	0.499732
C93	C	0.815707	0.284893	-0.000205
C94	C	1.315707	0.784893	0.499795
C95	C	0.817174	0.384968	-0.000204
C96	C	1.317174	0.884968	0.499796
N97	N	0.820597	0.120036	0.177946
N98	N	1.320597	0.620036	0.677946
N99	N	0.820646	0.120050	-0.178364
N100	N	1.320646	0.620050	0.321636
C101	C	0.867773	0.058585	0.217320
C102	C	1.367773	0.558585	0.717320
C103	C	0.867777	0.058581	0.296122
C104	C	1.367777	0.558581	0.796122
C105	C	0.820612	0.120043	0.335547
C106	C	1.320612	0.620043	0.835547
C107	C	0.773427	0.181499	0.296164
C108	C	1.273427	0.681499	0.796164
C109	C	0.773419	0.181495	0.217363
C110	C	1.273419	0.681495	0.717363
C111	C	0.811590	0.202186	0.460389
C112	C	1.311590	0.702186	0.960389
C113	C	0.811602	0.202191	0.539187
C114	C	1.311602	0.702191	1.039187
C115	C	0.820630	0.120054	0.578593
C116	C	1.320630	0.620054	1.078593
C117	C	0.829661	0.037908	0.539190
C118	C	1.329661	0.537908	1.039190
C119	C	0.829653	0.037905	0.460390
C120	C	1.329653	0.537905	0.960390
C121	C	0.820614	0.120053	0.420992
C122	C	1.320614	0.620053	0.920992
C123	C	0.867813	0.058593	0.703413
C124	C	1.367813	0.558593	1.203413
C125	C	0.867813	0.058588	0.782216
C126	C	1.367813	0.558588	1.282216
C127	C	0.773465	0.181514	0.782256
C128	C	1.273465	0.681514	1.282256
C129	C	0.773463	0.181511	0.703455
C130	C	1.273463	0.681511	1.203455
C131	C	0.820640	0.120052	0.664038
C132	C	1.320640	0.620052	1.164038
H133	H	0.243457	0.232986	0.079354
H134	H	0.743457	0.732986	0.579354
C135	C	0.919682	-0.008993	0.173962
C136	C	1.419682	0.491007	0.673962
H137	H	0.912933	-0.000184	0.121391
H138	H	1.412933	0.499816	0.621391
H139	H	0.912110	-0.069149	0.186874
H140	H	1.412110	0.430851	0.686874
H141	H	0.966039	0.000684	0.186863
H142	H	1.466039	0.500684	0.686863
C143	C	0.625938	-0.247109	-0.000167
C144	C	1.125938	0.252891	0.499833
H145	H	0.587648	-0.282018	-0.000154
H146	H	1.087648	0.217982	0.499846
H147	H	0.623856	-0.209966	-0.043820
H148	H	1.123856	0.290034	0.456180
H149	H	0.623842	-0.209977	0.043497
H150	H	1.123842	0.290023	0.543497
H151	H	0.997409	-0.496218	-0.000244
H152	H	1.497409	0.003782	0.499756
H153	H	0.735022	0.231541	0.328267
H154	H	1.235022	0.731541	0.828267
H155	H	0.804254	0.269079	0.571263
H156	H	1.304254	0.769079	1.071263
C157	C	0.691271	-0.117071	-0.000184
C158	C	1.191271	0.382929	0.499816
H159	H	0.652986	-0.151987	-0.000170
H160	H	1.152986	0.348013	0.499830
H161	H	0.689184	-0.079928	-0.043837
H162	H	1.189184	0.420072	0.456163
H163	H	0.689171	-0.079937	0.043480
H164	H	1.189171	0.420063	0.543480
C165	C	1.018195	-0.315337	-0.000268
C166	C	1.518195	0.184663	0.499732
H167	H	1.055265	-0.363358	-0.000282
H168	H	1.555265	0.136642	0.499718
H169	H	1.021360	-0.279107	0.043383
H170	H	1.521360	0.220893	0.543383
H171	H	1.021365	-0.279120	-0.043935
H172	H	1.521365	0.220880	0.456065
H173	H	0.837004	-0.028981	0.428312
H174	H	1.337004	0.471019	0.928312
H175	H	0.938716	-0.173576	-0.000242
H176	H	1.438716	0.326424	0.499758
H177	H	0.735002	0.231537	0.185305
H178	H	1.235002	0.731537	0.685305
C179	C	0.156009	0.289783	-0.000242
C180	C	0.656009	0.789783	0.499758
H181	H	0.119174	0.338108	-0.000238
H182	H	0.619174	0.838108	0.499762
H183	H	0.183953	0.293741	-0.043893
H184	H	0.683953	0.793741	0.456107
H185	H	0.183909	0.293733	0.043424
H186	H	0.683909	0.793733	0.543424
H187	H	0.016564	0.263609	-0.000259
H188	H	0.516564	0.763609	0.499741
H189	H	0.594914	0.274617	-0.000166
H190	H	1.094914	0.774617	0.499834
H191	H	0.463479	0.272114	-0.000180
H192	H	0.963479	0.772114	0.499820
C193	C	0.623049	-0.444575	-0.000156
C194	C	1.123049	0.055425	0.499844
H195	H	0.631192	-0.508884	-0.000146
H196	H	1.131192	-0.008884	0.499854
H197	H	0.597281	-0.424650	-0.043803
H198	H	1.097281	0.075350	0.456197
H199	H	0.597278	-0.424642	0.043514
H200	H	1.097278	0.075358	0.543514
C201	C	0.949957	-0.642830	-0.000236
C202	C	1.449957	-0.142830	0.499764
H203	H	0.939976	-0.703988	-0.000235
H204	H	1.439976	-0.203988	0.499765
H205	H	0.976173	-0.631939	0.043411
H206	H	1.476173	-0.131939	0.543411
H207	H	0.976181	-0.631944	-0.043907
H208	H	1.476181	-0.131944	0.456093
H209	H	0.906195	0.008538	0.328186
H210	H	1.406195	0.508538	0.828186
H211	H	0.702522	-0.586339	-0.000180
H212	H	1.202522	-0.086339	0.499820
H213	H	0.374897	0.235492	0.079378
H214	H	0.874897	0.735492	0.579378
H215	H	0.624677	-0.023524	-0.000151
H216	H	1.124677	0.476476	0.499849
H217	H	0.046319	-0.034525	-0.000321
H218	H	0.546319	0.465475	0.499679
H219	H	0.837012	-0.028976	0.571273
H220	H	1.337012	0.471024	1.071273
C221	C	0.919698	-0.009017	0.660051
C222	C	1.419698	0.490983	1.160051
H223	H	0.947789	-0.045626	0.694790
H224	H	1.447789	0.454374	1.194790
H225	H	0.948639	0.023315	0.629293
H226	H	1.448639	0.523315	1.129293
H227	H	0.894671	-0.046465	0.629327
H228	H	1.394671	0.453535	1.129327
C229	C	0.409934	-0.010674	-0.092332
C230	C	0.909934	0.489326	0.407668
H231	H	0.381738	-0.048758	-0.118472
H232	H	0.881738	0.451242	0.381528
H233	H	0.441817	-0.046544	-0.060715
H234	H	0.941817	0.453456	0.439285
H235	H	0.435099	0.021048	-0.127593
H236	H	0.935099	0.521048	0.372407
C237	C	0.919710	-0.009010	0.825527
C238	C	1.419710	0.490990	1.325527
H239	H	0.947809	-0.045604	0.790763
H240	H	1.447809	0.454396	1.290763
H241	H	0.894699	-0.046461	0.856284
H242	H	1.394699	0.453539	1.356284
H243	H	0.948653	0.023338	0.856249
H244	H	1.448653	0.523338	1.356249
H245	H	0.735059	0.231554	0.814356
H246	H	1.235059	0.731554	1.314356
H247	H	0.177758	-0.032025	-0.000248
H248	H	0.677758	0.467975	0.499752
H249	H	0.735050	0.231554	0.671394
H250	H	1.235050	0.731554	1.171394
C251	C	0.801664	0.292543	0.417050
C252	C	1.301664	0.792543	0.917050
H253	H	0.796299	0.341464	0.451800
H254	H	1.296299	0.841464	0.951800
H255	H	0.761222	0.294506	0.386329
H256	H	1.261222	0.794506	0.886329
H257	H	0.841359	0.297406	0.386291
H258	H	1.341359	0.797406	0.886291
H259	H	0.266347	0.004605	-0.079821
H260	H	0.766347	0.504605	0.420179
H261	H	0.493234	-0.026016	-0.000196
H262	H	0.993234	0.473984	0.499804
