data_functionalizedCrystal
_audit_creation_method	'MofGen! by Chris Wilmer'
_symmetry_space_group_name_H-M	'P1'
_symmetry_Int_Tables_number	1
_symmetry_cell_setting	triclinic
loop_
_symmetry_equiv_pos_as_xyz
  x,y,z
_cell_length_a	12.827893
_cell_length_b	12.827892
_cell_length_c	12.827885
_cell_angle_alpha	90.029786
_cell_angle_beta	90.019272
_cell_angle_gamma	90.015553
loop_
_atom_site_label
_atom_site_type_symbol
_atom_site_fract_x
_atom_site_fract_y
_atom_site_fract_z
Zn1	Zn	-1.597672	0.415978	-0.590843
Zn2	Zn	-1.097672	0.915978	-0.090843
Zn3	Zn	-1.597565	0.590755	-0.416104
Zn4	Zn	-1.097565	1.090755	0.083896
Zn5	Zn	-1.422912	0.416029	-0.416118
Zn6	Zn	-0.922912	0.916029	0.083882
Zn7	Zn	-1.422898	0.590678	-0.590804
Zn8	Zn	-0.922898	1.090678	-0.090804
O9	O	-1.510262	0.503360	-0.503467
O10	O	-1.010262	1.003360	-0.003467
O11	O	-1.743893	0.439173	-0.567674
O12	O	-1.243893	0.939173	-0.067674
O13	O	-1.574358	0.567631	-0.269869
O14	O	-1.074358	1.067631	0.230131
O15	O	-1.446145	0.269787	-0.439318
O16	O	-0.946145	0.769787	0.060682
O17	O	-1.743815	0.567581	-0.439294
O18	O	-1.243815	1.067581	0.060706
O19	O	-1.574540	0.269749	-0.567688
O20	O	-1.074540	0.769749	-0.067688
O21	O	-1.446042	0.439261	-0.269880
O22	O	-0.946042	0.939261	0.230120
O23	O	-1.276674	0.439186	-0.439280
O24	O	-0.776674	0.939186	0.060720
O25	O	-1.446121	0.567450	-0.737046
O26	O	-0.946121	1.067450	-0.237046
O27	O	-1.276664	0.567500	-0.567621
O28	O	-0.776664	1.067500	-0.067621
O29	O	-1.574526	0.439098	-0.737074
O30	O	-1.074526	0.939098	-0.237074
O31	O	-1.574345	0.736981	-0.439256
O32	O	-1.074345	1.236981	0.060744
O33	O	-1.446018	0.736924	-0.567608
O34	O	-0.946018	1.236924	-0.067608
C35	C	-1.238752	0.503341	-0.503448
C36	C	-0.738752	1.003341	-0.003448
C37	C	-1.122599	0.503358	-0.503465
C38	C	-0.622599	1.003358	-0.003465
C39	C	-1.510196	0.774870	-0.503449
C40	C	-1.010196	1.274870	-0.003449
C41	C	-1.510264	0.891023	-0.503476
C42	C	-1.010264	1.391023	-0.003476
C43	C	-1.510334	0.503260	-0.776038
C44	C	-1.010334	1.003260	-0.276038
C45	C	-1.510365	0.503217	-0.892191
C46	C	-1.010365	1.003217	-0.392191
C47	C	-1.782832	0.503380	-0.503487
C48	C	-1.282832	1.003380	-0.003487
C49	C	-1.898985	0.503389	-0.503495
C50	C	-1.398985	1.003389	-0.003495
C51	C	-1.070792	0.439780	-0.440070
C52	C	-0.570792	0.939780	0.059930
C53	C	-0.950741	0.439796	-0.440086
C54	C	-0.450741	0.939796	0.059914
C55	C	-1.510356	0.230790	-0.503509
C56	C	-1.010356	0.730790	-0.003509
C57	C	-1.510396	0.114637	-0.503526
C58	C	-1.010396	0.614637	-0.003526
C59	C	-1.573840	0.942801	-0.440034
C60	C	-1.073840	1.442801	0.059966
C61	C	-1.573911	1.062852	-0.440060
C62	C	-1.073911	1.562852	0.059940
C63	C	-1.446890	0.439683	-0.943981
C64	C	-0.946890	0.939683	-0.443981
C65	C	-1.446920	0.439637	-1.064031
C66	C	-0.946920	0.939637	-0.564031
C67	C	-1.510250	0.503385	-0.231957
C68	C	-1.010250	1.003385	0.268043
C69	C	-1.510422	0.503133	-0.115805
C70	C	-1.010422	1.003133	0.384195
H71	H	-1.115314	0.385341	-0.385780
H72	H	-0.615314	0.885341	0.114220
N73	N	-1.378744	0.371381	-1.119876
N74	N	-0.878744	0.871381	-0.619876
N75	N	-1.385694	0.274948	-1.107776
N76	N	-0.885694	0.774948	-0.607776
H77	H	-1.337542	0.226738	-1.147217
H78	H	-0.837542	0.726738	-0.647217
N79	N	-0.894861	0.371491	-0.372011
N80	N	-0.394861	0.871491	0.127989
N81	N	-0.833967	0.305004	-0.408959
N82	N	-0.333967	0.805004	0.091041
H83	H	-0.794499	0.256759	-0.360881
H84	H	-0.294499	0.756759	0.139119
H85	H	-1.455892	0.935571	-0.557815
H86	H	-0.955892	1.435571	-0.057815
H87	H	-1.392520	0.385327	-0.899443
H88	H	-0.892520	0.885327	-0.399443
N89	N	-1.642181	1.118718	-0.371916
N90	N	-1.142181	1.618718	0.128084
N91	N	-1.642139	1.216160	-0.372030
N92	N	-1.142139	1.716160	0.127970
H93	H	-1.690356	1.255620	-0.323901
H94	H	-1.190356	1.755620	0.176099
N95	N	-1.578600	0.571392	-1.059965
N96	N	-1.078600	1.071392	-0.559965
N97	N	-1.638298	0.631091	-1.108588
N98	N	-1.138298	1.131091	-0.608588
H99	H	-1.686449	0.679300	-1.069145
H100	H	-1.186449	1.179300	-0.569145
H101	H	-1.564729	0.557578	-0.936728
H102	H	-1.064729	1.057578	-0.436728
H103	H	-0.943531	0.557818	-0.557778
H104	H	-0.443531	1.057818	-0.057778
H105	H	-1.628221	0.898256	-0.385702
H106	H	-1.128221	1.398256	0.114298
N107	N	-1.066758	0.571678	-0.571554
N108	N	-0.566758	1.071678	-0.071554
N109	N	-1.005812	0.638182	-0.534621
N110	N	-0.505812	1.138182	-0.034621
H111	H	-0.966376	0.686438	-0.582710
H112	H	-0.466376	1.186438	-0.082710
N113	N	-1.442124	1.058778	-0.571674
N114	N	-0.942124	1.558778	-0.071674
N115	N	-1.478879	0.997770	-0.638226
N116	N	-0.978879	1.497770	-0.138226
H117	H	-1.430663	0.958312	-0.686358
H118	H	-0.930663	1.458312	-0.186358
