data_functionalizedCrystal
_audit_creation_method	'MofGen! by Chris Wilmer'
_symmetry_space_group_name_H-M	'P1'
_symmetry_Int_Tables_number	1
_symmetry_cell_setting	triclinic
loop_
_symmetry_equiv_pos_as_xyz
  x,y,z
_cell_length_a	12.645331
_cell_length_b	13.897448
_cell_length_c	13.897441
_cell_angle_alpha	90.029627
_cell_angle_beta	89.980056
_cell_angle_gamma	89.983329
loop_
_atom_site_label
_atom_site_type_symbol
_atom_site_fract_x
_atom_site_fract_y
_atom_site_fract_z
Zn1	Zn	1.620703	0.384020	-0.545416
Zn2	Zn	1.954036	0.717353	-0.212083
Zn3	Zn	2.287369	1.050686	0.121251
Zn4	Zn	1.620593	0.545339	-0.384117
Zn5	Zn	1.953926	0.878672	-0.050784
Zn6	Zn	2.287259	1.212005	0.282549
Zn7	Zn	1.443426	0.384056	-0.384130
Zn8	Zn	1.776759	0.717390	-0.050797
Zn9	Zn	2.110092	1.050723	0.282536
Zn10	Zn	1.443399	0.545272	-0.545366
Zn11	Zn	1.776732	0.878605	-0.212033
Zn12	Zn	2.110066	1.211938	0.121301
O13	O	1.532030	0.464672	-0.464757
O14	O	1.865363	0.798005	-0.131424
O15	O	2.198697	1.131338	0.201909
O16	O	1.769035	0.405432	-0.524035
O17	O	2.102369	0.738765	-0.190701
O18	O	2.435702	1.072098	0.142632
O19	O	1.597056	0.523988	-0.249137
O20	O	1.930390	0.857321	0.084196
O21	O	2.263723	1.190654	0.417529
O22	O	1.466999	0.249070	-0.405552
O23	O	1.800332	0.582403	-0.072218
O24	O	2.133666	0.915737	0.261115
O25	O	1.768955	0.523952	-0.405529
O26	O	2.102288	0.857285	-0.072196
O27	O	2.435621	1.190619	0.261138
O28	O	1.597244	0.249043	-0.524047
O29	O	1.930577	0.582376	-0.190714
O30	O	2.263910	0.915710	0.142619
O31	O	1.466892	0.405494	-0.249147
O32	O	1.800226	0.738828	0.084186
O33	O	2.133559	1.072161	0.417520
O34	O	1.295075	0.405429	-0.405503
O35	O	1.628408	0.738763	-0.072170
O36	O	1.961742	1.072096	0.261163
O37	O	1.466954	0.523838	-0.680354
O38	O	1.800287	0.857171	-0.347021
O39	O	2.133620	1.190504	-0.013688
O40	O	1.295055	0.523873	-0.523962
O41	O	1.628389	0.857207	-0.190629
O42	O	1.961722	1.190540	0.142704
O43	O	1.597218	0.405367	-0.680391
O44	O	1.930551	0.738700	-0.347058
O45	O	2.263884	1.072033	-0.013724
O46	O	1.597030	0.680311	-0.405481
O47	O	1.930364	1.013645	-0.072148
O48	O	2.263697	1.346978	0.261186
O49	O	1.466847	0.680262	-0.523950
O50	O	1.800180	1.013595	-0.190616
O51	O	2.133514	1.346929	0.142717
C52	C	1.256600	0.464649	-0.464729
C53	C	1.589934	0.797982	-0.131396
C54	C	1.923267	1.131315	0.201937
C55	C	1.138770	0.464662	-0.464740
C56	C	1.472104	0.797995	-0.131407
C57	C	1.805437	1.131329	0.201926
C58	C	1.531953	0.715286	-0.464729
C59	C	1.865286	1.048619	-0.131396
C60	C	2.198619	1.381953	0.201937
C61	C	1.532017	0.822500	-0.464750
C62	C	1.865350	1.155833	-0.131416
C63	C	2.198683	1.489166	0.201917
C64	C	1.532095	0.464591	-0.716350
C65	C	1.865428	0.797924	-0.383017
C66	C	2.198762	1.131257	-0.049684
C67	C	1.532123	0.464556	-0.823564
C68	C	1.865456	0.797889	-0.490231
C69	C	2.198789	1.131223	-0.156898
C70	C	0.971183	0.389806	-0.390629
C71	C	1.304517	0.723139	-0.057296
C72	C	1.637850	1.056473	0.276038
C73	C	1.093743	0.390000	-0.390302
C74	C	1.427076	0.723333	-0.056969
C75	C	1.760410	1.056666	0.276364
C76	C	1.094251	0.566275	-0.436969
C77	C	1.427585	0.899609	-0.103636
C78	C	1.760918	1.232942	0.229698
C79	C	0.971653	0.565866	-0.436463
C80	C	1.304986	0.899200	-0.103130
C81	C	1.638320	1.232533	0.230203
C82	C	0.971616	0.438872	-0.566909
C83	C	1.304949	0.772205	-0.233576
C84	C	1.638282	1.105539	0.099757
C85	C	1.094221	0.436602	-0.566342
C86	C	1.427555	0.769935	-0.233009
C87	C	1.760888	1.103269	0.100325
C88	C	1.808535	0.464695	-0.464786
C89	C	2.141869	0.798029	-0.131453
C90	C	2.475202	1.131362	0.201881
C91	C	1.926365	0.464705	-0.464798
C92	C	2.259699	0.798039	-0.131465
C93	C	2.593032	1.131372	0.201869
C94	C	1.532137	0.213079	-0.464807
C95	C	1.865470	0.546412	-0.131473
C96	C	2.198803	0.879745	0.201860
C97	C	1.532182	0.105865	-0.464827
C98	C	1.865515	0.439198	-0.131494
C99	C	2.198849	0.772531	0.201839
C100	C	1.532128	1.018795	-0.464810
C101	C	1.865461	1.352128	-0.131477
C102	C	2.198795	1.685462	0.201856
C103	C	1.532063	0.909562	-0.464780
C104	C	1.865396	1.242896	-0.131446
C105	C	2.198730	1.576229	0.201887
C106	C	1.532144	0.464529	-0.910634
C107	C	1.865478	0.797862	-0.577301
C108	C	2.198811	1.131195	-0.243968
C109	C	1.532175	0.464485	-1.019867
C110	C	1.865508	0.797819	-0.686534
C111	C	2.198841	1.131152	-0.353200
C112	C	1.532026	0.464683	-0.214143
C113	C	1.865360	0.798016	0.119190
C114	C	2.198693	1.131349	0.452524
C115	C	1.532204	0.464445	-0.106930
C116	C	1.865537	0.797779	0.226404
C117	C	2.198871	1.131112	0.559737
H118	H	1.123843	0.314650	-0.407710
H119	H	1.457176	0.647983	-0.074377
H120	H	1.790509	0.981316	0.258957
Cl121	Cl	1.139172	0.321162	-0.598688
Cl122	Cl	1.472506	0.654496	-0.265355
Cl123	Cl	1.805839	0.987829	0.067979
H124	H	1.123418	0.623572	-0.489295
H125	H	1.456751	0.956906	-0.155961
H126	H	1.790085	1.290239	0.177372
Cl127	Cl	0.925692	0.273116	-0.417212
Cl128	Cl	1.259026	0.606450	-0.083878
Cl129	Cl	1.592359	0.939783	0.249455
H130	H	0.942006	0.623561	-0.488129
H131	H	1.275339	0.956895	-0.154796
H132	H	1.608672	1.290228	0.178538
Cl133	Cl	1.141540	0.514688	-0.656229
Cl134	Cl	1.474873	0.848021	-0.322896
Cl135	Cl	1.808207	1.181355	0.010438
Cl136	Cl	0.926869	0.523095	-0.652232
Cl137	Cl	1.260203	0.856428	-0.318898
Cl138	Cl	1.593536	1.189762	0.014435
Cl139	Cl	0.923543	0.415856	-0.274491
Cl140	Cl	1.256876	0.749189	0.058842
Cl141	Cl	1.590210	1.082522	0.392175
Cl142	Cl	1.138960	0.416357	-0.273474
Cl143	Cl	1.472293	0.749691	0.059859
Cl144	Cl	1.805627	1.083024	0.393192
Cl145	Cl	0.927427	0.599685	-0.321211
Cl146	Cl	1.260761	0.933019	0.012122
Cl147	Cl	1.594094	1.266352	0.345456
Cl148	Cl	0.923918	0.326467	-0.605901
Cl149	Cl	1.257251	0.659800	-0.272567
Cl150	Cl	1.590585	0.993133	0.060766
H151	H	1.124911	0.588559	-0.363122
H152	H	1.458244	0.921892	-0.029788
H153	H	1.791577	1.255226	0.303545
