data_functionalizedCrystal
_audit_creation_method	'MofGen! by Chris Wilmer'
_symmetry_space_group_name_H-M	'P1'
_symmetry_Int_Tables_number	1
_symmetry_cell_setting	triclinic
loop_
_symmetry_equiv_pos_as_xyz
  x,y,z
_cell_length_a	8.497374
_cell_length_b	13.033748
_cell_length_c	13.033615
_cell_angle_alpha	105.186600
_cell_angle_beta	97.184998
_cell_angle_gamma	82.830727
loop_
_atom_site_label
_atom_site_type_symbol
_atom_site_fract_x
_atom_site_fract_y
_atom_site_fract_z
Zn1	Zn	0.549906	1.570024	-0.216455
Zn2	Zn	1.049906	2.070024	0.283545
Zn3	Zn	0.256401	1.547453	-0.394033
Zn4	Zn	0.756401	2.047453	0.105967
Zn5	Zn	0.315801	1.392458	-0.239029
Zn6	Zn	0.815801	1.892458	0.260971
Zn7	Zn	0.549802	1.369869	-0.416618
Zn8	Zn	1.049802	1.869869	0.083382
O9	O	0.417978	1.469951	-0.316534
O10	O	0.917978	1.969951	0.183466
O11	O	0.486156	1.715661	-0.221112
O12	O	0.986156	2.215661	0.278888
O13	O	0.043518	1.526900	-0.373467
O14	O	0.543518	2.026900	0.126533
O15	O	0.371758	1.434912	-0.087396
O16	O	0.871758	1.934912	0.412604
O17	O	0.270519	1.699078	-0.351578
O18	O	0.770519	2.199078	0.148422
O19	O	0.543754	1.565369	-0.070811
O20	O	1.043754	2.065369	0.429189
O21	O	0.087159	1.413026	-0.259586
O22	O	0.587159	1.913026	0.240414
O23	O	0.371658	1.240830	-0.281486
O24	O	0.871658	1.740830	0.218514
O25	O	0.770579	1.396412	-0.390070
O26	O	1.270579	1.896412	0.109930
O27	O	0.543577	1.224234	-0.411959
O28	O	1.043577	1.724234	0.088041
O29	O	0.770655	1.543465	-0.243012
O30	O	1.270655	2.043465	0.256988
O31	O	0.270419	1.504996	-0.545667
O32	O	0.770419	2.004996	-0.045667
O33	O	0.485979	1.374526	-0.562260
O34	O	0.985979	1.874526	-0.062260
C35	C	0.464053	1.193993	-0.351623
C36	C	0.964053	1.693993	0.148377
C37	C	0.483797	1.075934	-0.366661
C38	C	0.983797	1.575934	0.133339
C39	C	0.407708	1.031496	-0.308712
C40	C	0.907708	1.531496	0.191288
C41	C	0.428113	0.909476	-0.324253
C42	C	0.928113	1.409476	0.175747
C43	C	0.464394	1.505178	-0.039486
C44	C	0.964394	2.005178	0.460514
C45	C	0.484173	1.520190	0.078575
C46	C	0.984173	2.020190	0.578575
C47	C	0.829459	1.469943	-0.316536
C48	C	1.329459	1.969943	0.183464
C49	C	1.008101	1.469944	-0.316547
C50	C	1.508101	1.969944	0.183453
C51	C	0.371772	1.434889	-0.592500
C52	C	0.871772	1.934889	-0.092500
C53	C	0.352041	1.419987	-0.710547
C54	C	0.852041	1.919987	-0.210547
C55	C	0.371723	1.746986	-0.281308
C56	C	0.871723	2.246986	0.218692
C57	C	0.352013	1.865042	-0.266296
C58	C	0.852013	2.365042	0.233704
C59	C	0.407892	1.462336	0.123005
C60	C	0.907892	1.962336	0.623005
C61	C	0.428333	1.477850	0.245027
C62	C	0.928333	1.977850	0.745027
H63	H	0.508362	0.857189	-0.385376
H64	H	1.008362	1.357189	0.114624
H65	H	0.327452	1.083785	-0.247600
H66	H	0.827452	1.583785	0.252400
F67	F	0.246892	1.340225	0.221105
F68	F	0.746892	1.840225	0.721105
H69	H	0.327457	1.401315	0.070705
H70	H	0.827457	1.901315	0.570705
H71	H	0.271752	0.917326	-0.205179
H72	H	0.771752	1.417326	0.294821
H73	H	0.564041	1.023644	-0.427780
H74	H	1.064041	1.523644	0.072220
F75	F	0.533493	1.557604	0.313376
F76	F	1.033493	2.057604	0.813376
F77	F	0.589327	1.599941	0.146928
F78	F	1.089327	2.099941	0.646928
