data_functionalizedCrystal
_audit_creation_method	'MofGen! by Chris Wilmer'
_symmetry_space_group_name_H-M	'P1'
_symmetry_Int_Tables_number	1
_symmetry_cell_setting	triclinic
loop_
_symmetry_equiv_pos_as_xyz
  x,y,z
_cell_length_a	21.395362
_cell_length_b	16.120531
_cell_length_c	21.395355
_cell_angle_alpha	87.122773
_cell_angle_beta	89.956060
_cell_angle_gamma	87.050851
loop_
_atom_site_label
_atom_site_type_symbol
_atom_site_fract_x
_atom_site_fract_y
_atom_site_fract_z
Zn1	Zn	0.945215	0.331659	-0.367200
Zn2	Zn	1.445215	0.831659	0.132800
Zn3	Zn	0.939803	0.471058	-0.267724
Zn4	Zn	1.439803	0.971058	0.232276
Zn5	Zn	0.840428	0.331698	-0.262403
Zn6	Zn	1.340428	0.831698	0.237597
Zn7	Zn	0.835084	0.471075	-0.372430
Zn8	Zn	1.335084	0.971075	0.127570
O9	O	0.890133	0.401372	-0.317439
O10	O	1.390133	0.901372	0.182561
O11	O	1.032176	0.350127	-0.354043
O12	O	1.532176	0.850127	0.145957
O13	O	0.926592	0.452580	-0.179341
O14	O	1.426592	0.952580	0.320659
O15	O	0.858830	0.215024	-0.271888
O16	O	1.358830	0.715024	0.228112
O17	O	1.028200	0.452543	-0.280959
O18	O	1.528200	0.952543	0.219041
O19	O	0.935817	0.214995	-0.348883
O20	O	1.435817	0.714995	0.151117
O21	O	0.853582	0.350193	-0.175431
O22	O	1.353582	0.850193	0.324569
O23	O	0.752041	0.350210	-0.276960
O24	O	1.252041	0.850210	0.223040
O25	O	0.849721	0.452572	-0.459414
O26	O	1.349721	0.952572	0.040586
O27	O	0.748114	0.452609	-0.357796
O28	O	1.248114	0.952609	0.142204
O29	O	0.930634	0.350144	-0.455571
O30	O	1.430634	0.850144	0.044429
O31	O	0.921410	0.587729	-0.286030
O32	O	1.421410	1.087729	0.213970
O33	O	0.844473	0.587741	-0.362956
O34	O	1.344473	1.087741	0.137044
C35	C	0.727343	0.401416	-0.317368
C36	C	1.227343	0.901416	0.182632
C37	C	0.657700	0.401455	-0.317353
C38	C	1.157700	0.901455	0.182647
C39	C	0.622956	0.454845	-0.359388
C40	C	1.122956	0.954845	0.140612
C41	C	0.557522	0.454825	-0.359415
C42	C	1.057522	0.954825	0.140585
C43	C	0.526833	0.401423	-0.317397
C44	C	1.026833	0.901423	0.182603
C45	C	0.561586	0.348023	-0.275359
C46	C	1.061586	0.848023	0.224641
C47	C	0.627019	0.348039	-0.275338
C48	C	1.127019	0.848039	0.224662
C49	C	0.423365	0.394707	-0.260736
C50	C	0.923365	0.894707	0.239264
C51	C	0.357932	0.394696	-0.260757
C52	C	0.857932	0.894696	0.239243
C53	C	0.325015	0.401369	-0.317464
C54	C	0.825015	0.901369	0.182536
C55	C	0.357537	0.408069	-0.374152
C56	C	0.857537	0.908069	0.125848
C57	C	0.422971	0.408085	-0.374131
C58	C	0.922971	0.908085	0.125869
C59	C	0.455882	0.401399	-0.317416
C60	C	0.955882	0.901399	0.182584
C61	C	0.219319	0.454740	-0.359531
C62	C	0.719319	0.954740	0.140469
C63	C	0.153883	0.454713	-0.359559
C64	C	0.653883	0.954713	0.140441
C65	C	0.157948	0.347915	-0.275498
C66	C	0.657948	0.847915	0.224502
C67	C	0.223383	0.347937	-0.275476
C68	C	0.723383	0.847937	0.224524
C69	C	0.254064	0.401354	-0.317491
C70	C	0.754064	0.901354	0.182509
C71	C	0.881791	0.617986	-0.325652
C72	C	1.381791	1.117986	0.174348
C73	C	0.878280	0.710654	-0.329186
C74	C	1.378280	1.210654	0.170814
C75	C	0.871874	0.880320	-0.335651
C76	C	1.371874	1.380320	0.164349
C77	C	0.908415	0.921584	-0.299192
C78	C	1.408415	1.421584	0.200808
C79	C	0.904850	1.015992	-0.302789
C80	C	1.404850	1.515992	0.197211
C81	C	0.875438	0.785903	-0.332055
C82	C	1.375438	1.285903	0.167945
C83	C	1.053558	0.401329	-0.317511
C84	C	1.553558	0.901329	0.182489
C85	C	1.123200	0.401310	-0.317541
C86	C	1.623200	0.901310	0.182459
C87	C	0.898501	1.183913	-0.309197
C88	C	1.398501	1.683913	0.190803
C89	C	0.902010	1.091245	-0.305655
C90	C	1.402010	1.591245	0.194345
C91	C	0.890185	0.401355	-0.480862
C92	C	1.390185	0.901355	0.019138
C93	C	0.890208	0.401348	-0.550503
C94	C	1.390208	0.901348	-0.050503
C95	C	0.932337	0.348011	-0.581216
C96	C	1.432337	0.848011	-0.081216
C97	C	0.932338	0.347976	-0.646650
C98	C	1.432338	0.847976	-0.146650
C99	C	0.890215	0.401291	-0.681369
C100	C	1.390215	0.901291	-0.181369
C101	C	0.848077	0.454632	-0.650648
C102	C	1.348077	0.954632	-0.150648
C103	C	0.848074	0.454660	-0.585215
C104	C	1.348074	0.954660	-0.085215
C105	C	0.882377	0.476362	-0.787888
C106	C	1.382377	0.976362	-0.287888
C107	C	0.882385	0.476335	-0.853320
C108	C	1.382385	0.976335	-0.353320
C109	C	0.890222	0.401203	-0.883187
C110	C	1.390222	0.901203	-0.383187
C111	C	0.898065	0.326096	-0.847613
C112	C	1.398065	0.826096	-0.347613
C113	C	0.898061	0.326124	-0.782180
C114	C	1.398061	0.826124	-0.282180
C115	C	0.890214	0.401266	-0.752321
C116	C	1.390214	0.901266	-0.252321
C117	C	0.932355	0.347823	-0.984851
C118	C	1.432355	0.847823	-0.484851
C119	C	0.932351	0.347786	-1.050286
C120	C	1.432351	0.847786	-0.550286
C121	C	0.848093	0.454449	-1.054283
C122	C	1.348093	0.954449	-0.554283
C123	C	0.848094	0.454479	-0.988849
C124	C	1.348094	0.954479	-0.488849
C125	C	0.890228	0.401167	-0.954137
C126	C	1.390228	0.901167	-0.454137
C127	C	0.890118	0.401329	-0.154650
C128	C	1.390118	0.901329	0.345350
C129	C	0.890226	0.401101	-0.085000
C130	C	1.390226	0.901101	0.415000
H131	H	0.529228	0.498301	-0.393646
H132	H	1.029228	0.998301	0.106354
H133	H	0.942375	0.886009	-0.265276
H134	H	1.442375	1.386009	0.234724
H135	H	0.876002	0.537492	-0.882280
H136	H	1.376002	1.037492	-0.382280
H137	H	0.837915	0.915892	-0.369564
H138	H	1.337915	1.415892	0.130436
H139	H	0.966644	0.304538	-0.671662
H140	H	1.466644	0.804538	-0.171662
N141	N	0.323912	0.414910	-0.432076
N142	N	0.823912	0.914910	0.067924
N143	N	0.265489	0.414904	-0.432090
N144	N	0.765489	0.914904	0.067910
H145	H	0.241737	0.419745	-0.472997
H146	H	0.741737	0.919745	0.027003
H147	H	0.251672	0.304465	-0.241244
H148	H	0.751672	0.804465	0.258756
N149	N	0.662514	0.293491	-0.232405
N150	N	1.162514	0.793491	0.267595
N151	N	0.658205	0.216565	-0.233746
N152	N	1.158205	0.716565	0.266254
H153	H	0.683275	0.178040	-0.203424
H154	H	1.183275	0.678040	0.296576
H155	H	0.647933	0.498340	-0.393601
H156	H	1.147933	0.998340	0.106399
N157	N	0.975380	0.293553	-0.545770
N158	N	1.475380	0.793553	-0.045770
N159	N	1.012994	0.245934	-0.573206
N160	N	1.512994	0.745934	-0.073206
H161	H	1.043394	0.207472	-0.548171
H162	H	1.543394	0.707472	-0.048171
N163	N	0.906073	0.249404	-0.745852
N164	N	1.406073	0.749404	-0.245852
N165	N	0.913073	0.182324	-0.772519
N166	N	1.413073	0.682324	-0.272519
H167	H	0.918729	0.128138	-0.746862
H168	H	1.418729	0.628138	-0.246862
H169	H	0.813778	0.498039	-0.678920
H170	H	1.313778	0.998039	-0.178920
N171	N	0.805047	0.509159	-0.553839
N172	N	1.305047	1.009159	-0.053839
N173	N	0.825042	0.562298	-0.519366
N174	N	1.325042	1.062298	-0.019366
H175	H	0.794655	0.600790	-0.497205
H176	H	1.294655	1.100790	0.002795
N177	N	0.530252	0.293463	-0.232439
N178	N	1.030252	0.793463	0.267561
N179	N	0.540555	0.216542	-0.233773
N180	N	1.040555	0.716542	0.266227
H181	H	0.518427	0.178003	-0.203460
H182	H	1.018427	0.678003	0.296540
N183	N	0.906070	0.249351	-0.878121
N184	N	1.406070	0.749351	-0.378121
N185	N	0.906066	0.249331	-0.936543
N186	N	1.406066	0.749331	-0.436543
H187	H	0.911720	0.195133	-0.958093
H188	H	1.411720	0.695133	-0.458093
N189	N	0.975392	0.293361	-0.949398
N190	N	1.475392	0.793361	-0.449398
N191	N	1.013002	0.245733	-0.976832
N192	N	1.513002	0.745733	-0.476832
H193	H	1.043398	0.207267	-0.951796
H194	H	1.543398	0.707267	-0.451796
N195	N	0.975387	0.293289	-1.081651
N196	N	1.475387	0.793289	-0.581651
N197	N	1.013000	0.245696	-1.050648
N198	N	1.513000	0.745696	-0.550648
H199	H	1.043396	0.207206	-1.072799
H200	H	1.543396	0.707206	-0.572799
N201	N	0.805063	0.508898	-1.089748
N202	N	1.305063	1.008898	-0.589748
N203	N	0.805068	0.508862	-1.148170
N204	N	1.305068	1.008862	-0.648170
H205	H	0.774675	0.547315	-1.173221
H206	H	1.274675	1.047315	-0.673221
N207	N	0.456989	0.387870	-0.202809
N208	N	0.956989	0.887870	0.297191
N209	N	0.452078	0.325311	-0.166541
N210	N	0.952078	0.825311	0.333459
H211	H	0.475826	0.320478	-0.125633
H212	H	0.975826	0.820478	0.374367
H213	H	0.813791	0.497917	-0.963842
H214	H	1.313791	0.997917	-0.463842
H215	H	0.875828	0.537528	-0.763576
H216	H	1.375828	1.037528	-0.263576
H217	H	0.449448	0.413538	-0.420288
H218	H	0.949448	0.913538	0.079712
H219	H	0.125596	0.498188	-0.393792
H220	H	0.625596	0.998188	0.106208
N221	N	0.250665	0.509304	-0.402442
N222	N	0.750665	1.009304	0.097558
N223	N	0.240362	0.586226	-0.401111
N224	N	0.740362	1.086226	0.098889
H225	H	0.262499	0.624763	-0.431416
H226	H	0.762499	1.124763	0.068584
N227	N	0.126600	0.293361	-0.232588
N228	N	0.626600	0.793361	0.267412
N229	N	0.068178	0.293348	-0.232616
N230	N	0.568178	0.793348	0.267384
H231	H	0.046034	0.254814	-0.202312
H232	H	0.546034	0.754814	0.297688
H233	H	0.331457	0.389246	-0.214598
H234	H	0.831457	0.889246	0.285402
