data_functionalizedCrystal
_audit_creation_method	'MofGen! by Chris Wilmer'
_symmetry_space_group_name_H-M	'P1'
_symmetry_Int_Tables_number	1
_symmetry_cell_setting	triclinic
loop_
_symmetry_equiv_pos_as_xyz
  x,y,z
_cell_length_a	17.038272
_cell_length_b	12.837943
_cell_length_c	11.295483
_cell_angle_alpha	85.461227
_cell_angle_beta	85.601740
_cell_angle_gamma	87.029752
loop_
_atom_site_label
_atom_site_type_symbol
_atom_site_fract_x
_atom_site_fract_y
_atom_site_fract_z
O1	O	-0.199825	1.400055	-0.098972
O2	O	-0.189717	1.097359	-0.098980
O3	O	-0.080821	1.246908	-0.098986
O4	O	-0.308721	1.250505	-0.098965
O5	O	-0.090369	1.233772	0.099065
O6	O	-0.199266	1.084222	0.099071
O7	O	-0.209373	1.386918	0.099080
Cu8	Cu	-0.205191	1.234370	0.117159
Cu9	Cu	-0.193899	1.249906	-0.117060
O10	O	-0.318269	1.237368	0.099086
C11	C	-0.191077	1.051869	0.000044
C12	C	-0.180894	0.935894	0.000040
C13	C	-0.303312	0.705729	0.000068
C14	C	-0.293748	0.596760	0.000065
C15	C	-0.152203	0.608984	0.000040
C16	C	-0.161767	0.717953	0.000043
C17	C	-0.237324	0.766322	0.000055
C18	C	-0.246887	0.875293	0.000049
C19	C	-0.105342	0.887514	0.000032
C20	C	-0.095778	0.778545	0.000029
C21	C	-0.342868	1.247209	0.000063
C22	C	-0.430391	1.256972	0.000071
C23	C	-0.473809	1.167332	0.000068
C24	C	-0.556044	1.176513	0.000053
C25	C	-0.594861	1.275334	0.000050
C26	C	-0.551437	1.364981	0.000050
C27	C	-0.469202	1.355800	0.000056
C28	C	-0.843040	1.307771	0.000024
C29	C	-0.925281	1.316945	0.000021
C30	C	-0.929883	1.128476	0.000023
C31	C	-0.847647	1.119303	0.000036
C32	C	-0.804230	1.208950	0.000029
C33	C	-0.678919	1.284721	0.000039
C34	C	-0.720173	1.199564	0.000032
C35	C	-0.056222	1.237068	0.000034
C36	C	0.031301	1.227305	0.000018
C37	C	-0.208013	1.432408	0.000053
C38	C	-0.218196	1.548384	0.000049
N39	N	-0.213133	1.223451	0.281896
N40	N	-0.185951	1.260833	-0.281796
C41	C	-0.128735	1.339433	0.531181
C42	C	-0.134743	1.331189	0.655845
C43	C	-0.231153	1.198714	0.655890
C44	C	-0.225145	1.206958	0.531226
C45	C	-0.173935	1.277321	0.468876
C46	C	-0.167931	1.285570	0.344209
C47	C	-0.264337	1.153090	0.344257
C48	C	-0.270345	1.144846	0.468921
H49	H	-0.034262	0.739147	0.000033
C50	C	-0.069096	0.555758	0.000039
N51	N	-0.006500	0.515667	0.000039
C52	C	-0.795293	1.406385	0.000044
N53	N	-0.759328	1.480666	0.000067
H54	H	-0.312037	1.087555	0.519701
H55	H	-0.347483	0.547429	0.000079
H56	H	-0.583048	1.445443	0.000049
H57	H	-0.591392	1.103519	0.000047
C58	C	-0.314061	1.084762	0.275712
N59	N	-0.351513	1.033301	0.224082
H60	H	-0.965242	1.055491	0.000027
H61	H	-0.710534	1.365179	0.000076
H62	H	-0.051609	0.936861	0.000014
H63	H	-0.442211	1.086860	0.000084
C64	C	-0.804955	1.010593	0.000037
N65	N	-0.772800	0.928710	0.000042
H66	H	-0.272841	1.141419	0.706672
C67	C	-0.386425	0.758938	0.000074
N68	N	-0.449026	0.799013	0.000080
H69	H	-0.956883	1.397421	0.000020
C70	C	-0.677472	1.090863	0.000043
N71	N	-0.645304	1.008988	0.000061
C72	C	-0.111598	1.362967	0.275626
N73	N	-0.069163	1.421261	0.223972
H74	H	-0.308410	0.914673	0.000062
H75	H	-0.433852	1.428795	0.000053
H76	H	-0.097935	1.381766	0.706570
C77	C	-0.072408	1.416837	0.462592
N78	N	-0.029980	1.475138	0.410934
