data_functionalizedCrystal
_audit_creation_method	'MofGen! by Chris Wilmer'
_symmetry_space_group_name_H-M	'P1'
_symmetry_Int_Tables_number	1
_symmetry_cell_setting	triclinic
loop_
_symmetry_equiv_pos_as_xyz
  x,y,z
_cell_length_a	14.519709
_cell_length_b	16.109301
_cell_length_c	13.596369
_cell_angle_alpha	90.007256
_cell_angle_beta	90.000221
_cell_angle_gamma	83.570813
loop_
_atom_site_label
_atom_site_type_symbol
_atom_site_fract_x
_atom_site_fract_y
_atom_site_fract_z
O1	O	-1.223637	-0.108987	-0.081667
O2	O	-0.723637	0.391013	0.418333
O3	O	-0.955133	-0.121821	-0.081697
O4	O	-0.455133	0.378179	0.418303
O5	O	-1.096761	0.005614	-0.081671
O6	O	-0.596761	0.505614	0.418329
O7	O	-1.082009	-0.236422	-0.081693
O8	O	-0.582009	0.263578	0.418307
O9	O	-1.096745	0.005621	0.081912
O10	O	-0.596745	0.505621	0.581912
O11	O	-0.955117	-0.121815	0.081886
O12	O	-0.455117	0.378185	0.581886
O13	O	-1.223621	-0.108980	0.081916
O14	O	-0.723621	0.391020	0.581916
Zn15	Zn	-1.089367	-0.115397	0.107873
Zn16	Zn	-0.589367	0.384603	0.607873
Zn17	Zn	-1.089387	-0.115405	-0.107654
Zn18	Zn	-0.589387	0.384595	0.392346
O19	O	-1.081993	-0.236416	0.081890
O20	O	-0.581993	0.263584	0.581890
C21	C	-0.920766	-0.121220	0.000091
C22	C	-0.420766	0.378780	0.500091
C23	C	-0.818389	-0.119427	0.000079
C24	C	-0.318389	0.380573	0.500079
C25	C	-1.257988	-0.109582	0.000127
C26	C	-0.757988	0.390418	0.500127
C27	C	-1.360365	-0.111374	0.000131
C28	C	-0.860365	0.388626	0.500131
C29	C	-1.096156	0.036593	0.000121
C30	C	-0.596156	0.536593	0.500121
C31	C	-1.094364	0.128892	0.000122
C32	C	-0.594364	0.628892	0.500122
C33	C	-0.443507	-0.112829	0.000125
C34	C	0.056493	0.387171	0.500125
C35	C	-0.547811	-0.114661	0.000112
C36	C	-0.047811	0.385339	0.500112
C37	C	-0.630945	-0.116128	0.000101
C38	C	-0.130945	0.383872	0.500101
C39	C	-0.735256	-0.117961	0.000090
C40	C	-0.235256	0.382039	0.500090
C41	C	-1.082599	-0.267395	0.000096
C42	C	-0.582599	0.232605	0.500096
C43	C	-1.084390	-0.359693	0.000089
C44	C	-0.584390	0.140307	0.500089
N45	N	-1.089360	-0.115390	0.254965
N46	N	-0.589360	0.384610	0.754965
C47	C	-1.174238	0.351026	0.000116
C48	C	-0.674238	0.851026	0.500116
C49	C	-1.172547	0.437749	0.000107
C50	C	-0.672547	0.937749	0.500107
C51	C	-1.004510	0.418166	0.000092
C52	C	-0.504510	0.918166	0.500092
C53	C	-1.006202	0.331444	0.000093
C54	C	-0.506202	0.831444	0.500093
C55	C	-1.091068	0.297877	0.000110
C56	C	-0.591068	0.797877	0.500110
C57	C	-1.087686	0.471322	0.000101
C58	C	-0.587686	0.971322	0.500101
C59	C	-1.085852	0.565351	0.000092
C60	C	-0.585852	1.065351	0.500092
C61	C	-1.092902	0.203842	0.000117
C62	C	-0.592902	0.703842	0.500117
C63	C	-1.089379	-0.115408	0.656256
C64	C	-0.589379	0.384592	1.156256
C65	C	-1.089371	-0.115406	0.544605
C66	C	-0.589371	0.384594	1.044605
C67	C	-1.089370	-0.115400	0.455614
C68	C	-0.589370	0.384600	0.955614
C69	C	-1.089361	-0.115397	0.343956
C70	C	-0.589361	0.384603	0.843956
N71	N	-1.089393	-0.115408	0.745254
N72	N	-0.589393	0.384592	1.245254
H73	H	-1.243341	0.323699	0.000127
H74	H	-0.743341	0.823699	0.500127
H75	H	-1.240272	0.481020	0.000110
H76	H	-0.740272	0.981020	0.500110
Cl77	Cl	-0.897827	0.460371	0.000072
Cl78	Cl	-0.397827	0.960371	0.500072
Cl79	Cl	-0.901637	0.264623	0.000078
Cl80	Cl	-0.401637	0.764623	0.500078
