data_functionalizedCrystal
_audit_creation_method	'MofGen! by Chris Wilmer'
_symmetry_space_group_name_H-M	'P1'
_symmetry_Int_Tables_number	1
_symmetry_cell_setting	triclinic
loop_
_symmetry_equiv_pos_as_xyz
  x,y,z
_cell_length_a	6.817900
_cell_length_b	19.551823
_cell_length_c	16.015572
_cell_angle_alpha	78.350504
_cell_angle_beta	104.485554
_cell_angle_gamma	101.663376
loop_
_atom_site_label
_atom_site_type_symbol
_atom_site_fract_x
_atom_site_fract_y
_atom_site_fract_z
V1	V	-3.988979	-0.028153	-0.269511
O2	O	-3.986496	0.071758	-0.263965
O3	O	-3.931824	-0.123535	-0.268067
O4	O	-3.928173	0.003172	-0.386871
O5	O	-3.990172	-0.055827	-0.144338
V6	V	-4.475348	-0.019853	-0.254490
O7	O	-4.243992	-0.046360	-0.302459
O8	O	-4.670532	-0.001645	-0.221542
O9	O	-4.309296	0.075530	-0.255934
O10	O	-4.595228	-0.119763	-0.260036
O11	O	-4.591552	0.007822	-0.379663
O12	O	-4.312947	-0.051178	-0.137130
C13	C	-3.775096	-0.147753	-0.263918
C14	C	-3.809570	-0.225530	-0.263520
C15	C	-4.007075	-0.264526	-0.267649
C16	C	-4.039470	-0.337605	-0.267283
C17	C	-3.874342	-0.371687	-0.262771
C18	C	-3.676811	-0.332682	-0.258647
C19	C	-3.644425	-0.259603	-0.259021
C20	C	-3.766899	-0.492090	-0.208041
C21	C	-3.799290	-0.565168	-0.207661
C22	C	-3.974226	-0.597086	-0.261621
C23	C	-4.116797	-0.555918	-0.315949
C24	C	-4.084410	-0.482839	-0.316324
C25	C	-3.909440	-0.450929	-0.262366
C26	C	-4.206871	-0.715322	-0.265355
C27	C	-4.239261	-0.788402	-0.264995
C28	C	-3.876593	-0.783478	-0.256350
C29	C	-3.844212	-0.710399	-0.256719
C30	C	-4.009357	-0.676326	-0.261217
C31	C	-3.770439	0.013876	-0.415464
C32	C	-3.801950	0.038857	-0.511410
C33	C	-4.070233	-0.182873	-0.889969
C34	C	-4.099849	-0.159377	-0.980120
C35	C	-4.034018	-0.037816	-0.954905
C36	C	-4.004386	-0.061302	-0.864750
C37	C	-4.022499	-0.133831	-0.832290
C38	C	-3.956652	-0.012261	-0.807070
C39	C	-3.927034	-0.035745	-0.716923
C40	C	-3.945149	-0.108271	-0.684456
C41	C	-3.992881	-0.157315	-0.742142
C42	C	-3.938554	0.060268	-0.839533
C43	C	-3.890821	0.109310	-0.781853
C44	C	-3.861187	0.085826	-0.691704
C45	C	-3.879302	0.013300	-0.659236
C46	C	-3.813455	0.134870	-0.634017
C47	C	-3.783836	0.111386	-0.543870
C48	C	-3.849683	-0.010185	-0.569089
C49	C	-4.129366	0.099743	-0.260081
C50	C	-4.074130	0.177521	-0.260484
C51	C	-4.134024	-0.061885	-0.108532
C52	C	-4.081752	-0.086863	-0.012586
H53	H	-4.141554	-0.236788	-0.271318
H54	H	-4.259053	-0.581884	-0.360007
H55	H	-3.962642	0.079387	-0.912937
H56	H	-4.400099	-0.820151	-0.268363
C57	C	-3.429858	-0.217321	-0.254349
C58	C	-3.299222	-0.243164	-0.177001
C59	C	-3.101552	-0.204225	-0.172659
H60	H	-3.380130	-0.221778	-0.303039
H61	H	-3.434112	-0.168916	-0.255165
H62	H	-3.294961	-0.291557	-0.176193
H63	H	-3.348884	-0.238706	-0.128297
H64	H	-3.105806	-0.155820	-0.173475
H65	H	-3.051845	-0.208684	-0.221353
H66	H	-3.012896	-0.221749	-0.120176
H67	H	-4.019283	0.021237	-0.981348
C68	C	-4.012670	-0.236065	-0.706894
C69	C	-4.168667	-0.255471	-0.660007
C70	C	-4.186887	-0.328011	-0.627565
H71	H	-4.045376	-0.261911	-0.754147
H72	H	-3.886500	-0.246259	-0.669422
H73	H	-4.294811	-0.245284	-0.697476
H74	H	-4.136000	-0.229643	-0.612742
H75	H	-4.060717	-0.338205	-0.590094
H76	H	-4.219587	-0.353851	-0.674823
H77	H	-4.292718	-0.341187	-0.595742
C78	C	-3.577210	-0.457362	-0.149397
C79	C	-3.637039	-0.424478	-0.091911
C80	C	-3.462362	-0.392470	-0.037888
H81	H	-3.496815	-0.492272	-0.116899
H82	H	-3.498541	-0.423033	-0.184247
H83	H	-3.715673	-0.458803	-0.057065
H84	H	-3.717410	-0.389558	-0.124385
H85	H	-3.383694	-0.358141	-0.072738
H86	H	-3.381980	-0.427385	-0.005396
H87	H	-3.502932	-0.370149	0.001117
C88	C	-3.697306	-0.820532	-0.251272
C89	C	-3.676135	-0.871891	-0.176154
C90	C	-3.510978	-0.906035	-0.171445
H91	H	-3.721952	-0.842520	-0.301474
H92	H	-3.574968	-0.786865	-0.248814
H93	H	-3.798445	-0.905553	-0.178620
H94	H	-3.651457	-0.849922	-0.125939
H95	H	-3.388640	-0.872367	-0.168987
H96	H	-3.535640	-0.928018	-0.221651
H97	H	-3.496581	-0.940881	-0.120474
H98	H	-4.341341	-0.687579	-0.269017
C99	C	-4.089210	-0.261582	-0.854532
C100	C	-3.902841	-0.276235	-0.799378
C101	C	-3.920130	-0.348721	-0.766670
H102	H	-4.194822	-0.274860	-0.822607
H103	H	-4.121714	-0.287538	-0.901689
H104	H	-3.870363	-0.250288	-0.752229
H105	H	-3.797200	-0.262974	-0.831283
H106	H	-3.952634	-0.374676	-0.813826
H107	H	-4.025749	-0.361991	-0.734749
H108	H	-3.793679	-0.358673	-0.729251
H109	H	-4.200308	-0.369362	-0.270646
H110	H	-3.683381	-0.678649	-0.253351
C111	C	-3.644788	-0.609915	-0.148558
C112	C	-3.741767	-0.660938	-0.090601
C113	C	-3.599495	-0.702162	-0.036129
H114	H	-3.591316	-0.632713	-0.183034
H115	H	-3.535975	-0.580466	-0.116431
H116	H	-3.850543	-0.690383	-0.122724
H117	H	-3.795231	-0.638160	-0.056105
H118	H	-3.490682	-0.672714	-0.004003
H119	H	-3.546031	-0.724956	-0.070613
H120	H	-3.665270	-0.736782	0.003206
H121	H	-3.542366	-0.360436	-0.254975
C122	C	-3.871139	0.188025	-0.817268
C123	C	-3.907247	0.198098	-0.908560
C124	C	-3.889098	0.270602	-0.941211
H125	H	-3.968719	0.207718	-0.800221
H126	H	-3.736726	0.210681	-0.794546
H127	H	-4.041640	0.175450	-0.931274
H128	H	-3.809678	0.178421	-0.925631
H129	H	-3.754685	0.293258	-0.918488
H130	H	-3.986680	0.290288	-0.924158
H131	H	-3.913575	0.277446	-1.003155
H132	H	-4.138710	-0.199318	-1.027082
C133	C	-3.869143	-0.088901	-0.533664
C134	C	-3.832940	-0.098966	-0.442370
C135	C	-3.850820	-0.171465	-0.409705
H136	H	-4.003474	-0.111623	-0.556339
H137	H	-3.771461	-0.108530	-0.550749
H138	H	-3.930618	-0.079346	-0.425294
H139	H	-3.698614	-0.076260	-0.419672
H140	H	-3.753138	-0.191094	-0.426790
H141	H	-3.985153	-0.194180	-0.432386
H142	H	-3.826240	-0.178303	-0.347759
C143	C	-4.239362	-0.438257	-0.375406
C144	C	-4.399478	-0.481840	-0.422600
C145	C	-4.542238	-0.440794	-0.477047
H146	H	-4.292989	-0.415519	-0.340920
H147	H	-4.173959	-0.403593	-0.414826
H148	H	-4.464873	-0.516492	-0.383185
H149	H	-4.345914	-0.504579	-0.457103
H150	H	-4.476834	-0.406130	-0.516467
H151	H	-4.595848	-0.418058	-0.442554
H152	H	-4.650883	-0.470358	-0.509081
C153	C	-3.794207	0.213616	-0.669231
C154	C	-3.938309	0.242331	-0.643865
C155	C	-3.920665	0.314867	-0.676298
H156	H	-3.659940	0.236352	-0.646493
H157	H	-3.818795	0.220604	-0.731186
H158	H	-3.913707	0.235349	-0.581923
H159	H	-4.072594	0.219616	-0.666602
H160	H	-3.945253	0.321856	-0.738252
H161	H	-3.786393	0.337597	-0.653557
H162	H	-4.018446	0.334359	-0.659098
C163	C	-3.731676	0.164556	-0.481134
C164	C	-3.541645	0.156843	-0.424475
C165	C	-3.493547	0.205806	-0.366663
H166	H	-3.724958	0.211146	-0.513265
H167	H	-3.834667	0.156402	-0.448206
H168	H	-3.438679	0.165002	-0.457398
H169	H	-3.548314	0.110264	-0.392324
H170	H	-3.596539	0.197652	-0.333736
H171	H	-3.486840	0.252393	-0.398802
H172	H	-3.364618	0.200575	-0.328208
H173	H	-3.921036	-0.127391	-0.611051
