data_functionalizedCrystal
_audit_creation_method	'MofGen! by Chris Wilmer'
_symmetry_space_group_name_H-M	'P1'
_symmetry_Int_Tables_number	1
_symmetry_cell_setting	triclinic
loop_
_symmetry_equiv_pos_as_xyz
  x,y,z
_cell_length_a	19.077409
_cell_length_b	17.640280
_cell_length_c	19.076919
_cell_angle_alpha	81.491119
_cell_angle_beta	94.476475
_cell_angle_gamma	81.515672
loop_
_atom_site_label
_atom_site_type_symbol
_atom_site_fract_x
_atom_site_fract_y
_atom_site_fract_z
Zn1	Zn	1.113878	-0.278068	-0.303365
Zn2	Zn	1.613878	0.221932	0.196635
Zn3	Zn	1.141913	-0.402605	-0.162158
Zn4	Zn	1.641913	0.097395	0.337842
Zn5	Zn	1.000738	-0.278094	-0.190208
Zn6	Zn	1.500738	0.221906	0.309792
Zn7	Zn	1.021377	-0.413444	-0.282690
Zn8	Zn	1.521377	0.086556	0.217310
O9	O	1.069476	-0.343053	-0.234605
O10	O	1.569476	0.156947	0.265395
O11	O	1.215391	-0.290041	-0.281547
O12	O	1.715391	0.209959	0.218453
O13	O	1.126281	-0.381563	-0.068080
O14	O	1.626281	0.118437	0.431920
O15	O	0.995375	-0.169326	-0.225611
O16	O	1.495375	0.330674	0.274389
O17	O	1.235988	-0.381538	-0.177803
O18	O	1.735988	0.118462	0.322197
O19	O	1.078499	-0.169307	-0.308746
O20	O	1.578499	0.330693	0.191254
O21	O	1.022560	-0.290085	-0.088688
O22	O	1.522560	0.209915	0.411312
O23	O	0.905681	-0.300595	-0.205563
O24	O	1.405681	0.199405	0.294437
O25	O	1.030552	-0.400011	-0.383232
O26	O	1.530552	0.099989	0.116768
O27	O	0.920845	-0.400036	-0.273509
O28	O	1.420845	0.099964	0.226491
O29	O	1.098512	-0.300551	-0.398422
O30	O	1.598512	0.199449	0.101578
O31	O	1.146294	-0.512807	-0.157755
O32	O	1.646294	-0.012807	0.342245
O33	O	1.057737	-0.520770	-0.246310
O34	O	1.557737	-0.020770	0.253690
C35	C	0.887906	-0.351495	-0.240337
C36	C	1.387906	0.148505	0.259663
C37	C	0.810232	-0.355126	-0.242802
C38	C	1.310232	0.144874	0.257198
C39	C	0.373857	-0.381109	-0.260526
C40	C	0.873857	0.118891	0.239474
C41	C	0.446841	-0.377703	-0.258195
C42	C	0.946841	0.122297	0.241805
C43	C	0.475398	-0.324149	-0.221744
C44	C	0.975398	0.175851	0.278256
C45	C	0.430968	-0.274004	-0.187614
C46	C	0.930968	0.225996	0.312386
C47	C	0.357986	-0.277415	-0.189940
C48	C	0.857986	0.222585	0.310060
C49	C	0.692820	-0.308392	-0.210998
C50	C	1.192820	0.191608	0.289002
C51	C	0.765807	-0.304983	-0.208676
C52	C	1.265807	0.195017	0.291324
C53	C	0.781676	-0.408683	-0.279257
C54	C	1.281676	0.091317	0.220743
C55	C	0.708691	-0.412086	-0.281584
C56	C	1.208691	0.087914	0.218416
C57	C	0.664268	-0.361944	-0.247451
C58	C	1.164268	0.138056	0.252549
N59	N	0.549999	-0.320664	-0.219363
N60	N	1.049999	0.179336	0.280637
N61	N	0.589669	-0.365433	-0.249828
N62	N	1.089669	0.134567	0.250172
C63	C	1.107316	-0.544990	-0.196760
C64	C	1.607316	-0.044990	0.303240
C65	C	1.123567	-0.631377	-0.180591
C66	C	1.623567	-0.131377	0.319409
C67	C	0.946297	-0.936359	-0.357686
C68	C	1.446297	-0.436359	0.142314
C69	C	0.961569	-1.017532	-0.342470
C70	C	1.461569	-0.517532	0.157530
C71	C	1.053837	-1.009177	-0.250347
C72	C	1.553837	-0.509177	0.249653
C73	C	1.038575	-0.928001	-0.265557
C74	C	1.538575	-0.428001	0.234443
C75	C	0.984803	-0.891599	-0.319227
C76	C	1.484803	-0.391599	0.180773
C77	C	1.077081	-0.883241	-0.227099
C78	C	1.577081	-0.383241	0.272901
C79	C	1.061817	-0.802072	-0.242305
C80	C	1.561817	-0.302072	0.257695
C81	C	1.008047	-0.765664	-0.295971
C82	C	1.508047	-0.265664	0.204029
C83	C	0.969539	-0.810430	-0.334434
C84	C	1.469539	-0.310430	0.165566
C85	C	1.130849	-0.919644	-0.173426
C86	C	1.630849	-0.419644	0.326574
C87	C	1.169355	-0.874884	-0.134967
C88	C	1.669355	-0.374884	0.365033
C89	C	1.154095	-0.793714	-0.150177
C90	C	1.654095	-0.293714	0.349823
C91	C	1.100324	-0.757306	-0.203843
C92	C	1.600324	-0.257306	0.296157
C93	C	1.192602	-0.748948	-0.111714
C94	C	1.692602	-0.248948	0.388286
C95	C	1.177338	-0.667779	-0.126921
C96	C	1.677338	-0.167779	0.373079
C97	C	1.085060	-0.676138	-0.219049
C98	C	1.585060	-0.176138	0.280951
C99	C	1.251756	-0.334578	-0.228852
C100	C	1.751756	0.165422	0.271148
C101	C	1.329432	-0.330967	-0.226400
C102	C	1.829432	0.169033	0.273600
C103	C	1.063707	-0.351487	-0.416894
C104	C	1.563707	0.148513	0.083106
C105	C	1.061248	-0.355081	-0.494575
C106	C	1.561248	0.144919	0.005425
C107	C	1.031507	-0.140327	-0.272613
C108	C	1.531507	0.359673	0.227387
C109	C	1.015327	-0.053937	-0.288810
C110	C	1.515327	0.446063	0.211190
C111	C	1.095474	-0.304989	-0.538978
C112	C	1.595474	0.195011	-0.038978
C113	C	1.093155	-0.308363	-0.611969
C114	C	1.593155	0.191637	-0.111969
C115	C	1.056613	-0.361835	-0.640553
C116	C	1.556613	0.138165	-0.140553
C117	C	1.022383	-0.411930	-0.596143
C118	C	1.522383	0.088070	-0.096143
C119	C	1.024698	-0.408551	-0.523156
C120	C	1.524698	0.091449	-0.023156
C121	C	1.045891	-0.377490	-0.857995
C122	C	1.545891	0.122510	-0.357995
C123	C	1.043580	-0.380866	-0.930988
C124	C	1.543580	0.119134	-0.430988
C125	C	1.114351	-0.277298	-0.946808
C126	C	1.614351	0.222702	-0.446808
C127	C	1.116667	-0.273927	-0.873817
C128	C	1.616667	0.226073	-0.373817
C129	C	1.082433	-0.324019	-0.829415
C130	C	1.582433	0.175981	-0.329415
N131	N	1.054244	-0.365287	-0.715159
N132	N	1.554244	0.134713	-0.215159
N133	N	1.084799	-0.320563	-0.754811
N134	N	1.584799	0.179437	-0.254811
C135	C	1.075253	-0.334593	-0.053035
C136	C	1.575253	0.165407	0.446965
C137	C	1.077806	-0.330774	0.024609
C138	C	1.577806	0.169226	0.524609
H139	H	1.041279	-0.646498	-0.262758
H140	H	1.541279	-0.146498	0.237242
H141	H	0.350611	-0.424714	-0.290213
H142	H	0.850611	0.075286	0.209787
N143	N	1.134896	-0.247320	-0.508154
N144	N	1.634896	0.252680	-0.008154
H145	H	1.174160	-0.276005	-0.470934
H146	H	1.674160	0.223995	0.029066
H147	H	1.156179	-0.216119	-0.547408
H148	H	1.656179	0.283881	-0.047408
H149	H	1.236378	-0.778599	-0.068012
H150	H	1.736378	-0.278599	0.431988
H151	H	1.097616	-1.038827	-0.206647
H152	H	1.597616	-0.538827	0.293353
N153	N	0.987782	-0.462585	-0.475267
N154	N	1.487782	0.037415	0.024733
H155	H	1.023886	-0.495882	-0.437334
H156	H	1.523886	0.004118	0.062666
H157	H	0.950437	-0.431049	-0.451979
H158	H	1.450437	0.068951	0.048021
H159	H	1.018028	-0.418289	-0.821848
H160	H	1.518028	0.081711	-0.321848
N161	N	0.829588	-0.462771	-0.316062
N162	N	1.329588	0.037229	0.183938
H163	H	0.852946	-0.431333	-0.353441
H164	H	1.352946	0.068667	0.146559
H165	H	0.867458	-0.495996	-0.279851
H166	H	1.367458	0.004004	0.220149
H167	H	1.013821	-0.424411	-0.954258
H168	H	1.513821	0.075589	-0.454258
N169	N	0.310072	-0.223337	-0.153126
N170	N	0.810072	0.276663	0.346874
H171	H	0.286726	-0.254789	-0.115746
H172	H	0.786726	0.245211	0.384254
H173	H	0.339284	-0.188908	-0.129724
H174	H	0.839284	0.311092	0.370276
H175	H	1.146425	-0.230387	-0.850550
H176	H	1.646425	0.269613	-0.350550
N177	N	0.494753	-0.431775	-0.295016
N178	N	0.994753	0.068225	0.204984
H179	H	0.545320	-0.421490	-0.288012
H180	H	1.045320	0.078510	0.211988
H181	H	0.492742	-0.487356	-0.274070
H182	H	0.992742	0.012644	0.225930
H183	H	0.685447	-0.455697	-0.311265
H184	H	1.185447	0.044303	0.188735
H185	H	0.992627	-0.455465	-0.619423
H186	H	1.492627	0.044535	-0.119423
H187	H	1.208694	-0.631335	-0.095603
H188	H	1.708694	-0.131335	0.404397
H189	H	1.121028	-0.267574	-0.648119
H190	H	1.621028	0.232426	-0.148119
N191	N	0.796611	-0.247222	-0.169356
N192	N	1.296611	0.252778	0.330644
H193	H	0.757395	-0.215976	-0.148083
H194	H	1.257395	0.284024	0.351917
H195	H	0.833828	-0.275895	-0.130087
H196	H	1.333828	0.224105	0.369913
N197	N	0.644912	-0.254312	-0.174186
N198	N	1.144912	0.245688	0.325814
H199	H	0.674079	-0.219868	-0.150744
H200	H	1.174079	0.280132	0.349256
H201	H	0.607004	-0.221127	-0.210383
H202	H	1.107004	0.278873	0.289617
H203	H	1.143276	-0.985737	-0.161048
H204	H	1.643276	-0.485737	0.338952
N205	N	1.227341	-0.914148	-0.077075
N206	N	1.727341	-0.414148	0.422925
H207	H	1.231167	-0.972361	-0.073274
H208	H	1.731167	-0.472361	0.426726
H209	H	1.274223	-0.898101	-0.089084
H210	H	1.774223	-0.398101	0.410916
H211	H	0.930217	-1.053974	-0.373800
H212	H	1.430217	-0.553974	0.126200
N213	N	0.461765	-0.216246	-0.148293
N214	N	0.961765	0.283754	0.351707
H215	H	0.514740	-0.221691	-0.151998
H216	H	1.014740	0.278309	0.348002
H217	H	0.438261	-0.161860	-0.170060
H218	H	0.938261	0.338140	0.329940
N219	N	1.151271	-0.223272	-0.994698
N220	N	1.651271	0.276728	-0.494698
H221	H	1.144261	-0.233523	-1.045273
H222	H	1.644261	0.266477	-0.545273
H223	H	1.130401	-0.167678	-0.992689
H224	H	1.630401	0.332322	-0.492689
H225	H	0.995615	-0.699571	-0.308347
H226	H	1.495615	-0.199571	0.191653
H227	H	0.902516	-0.906719	-0.401394
H228	H	1.402516	-0.406719	0.098606
N229	N	0.911552	-0.771159	-0.392329
N230	N	1.411552	-0.271159	0.107671
H231	H	0.889474	-0.811829	-0.414391
H232	H	1.389474	-0.311829	0.085609
H233	H	0.873808	-0.737701	-0.371179
H234	H	1.373808	-0.237701	0.128821
