data_functionalizedCrystal
_audit_creation_method	'MofGen! by Chris Wilmer'
_symmetry_space_group_name_H-M	'P1'
_symmetry_Int_Tables_number	1
_symmetry_cell_setting	triclinic
loop_
_symmetry_equiv_pos_as_xyz
  x,y,z
_cell_length_a	17.077404
_cell_length_b	18.215405
_cell_length_c	17.077396
_cell_angle_alpha	89.971420
_cell_angle_beta	89.981638
_cell_angle_gamma	90.020702
loop_
_atom_site_label
_atom_site_type_symbol
_atom_site_fract_x
_atom_site_fract_y
_atom_site_fract_z
Zn1	Zn	1.200055	-0.293024	-0.443818
Zn2	Zn	1.700055	0.206976	0.056182
Zn3	Zn	1.199963	-0.416098	-0.312552
Zn4	Zn	1.699963	0.083902	0.187448
Zn5	Zn	1.068787	-0.293045	-0.312569
Zn6	Zn	1.568787	0.206955	0.187431
Zn7	Zn	1.068756	-0.416049	-0.443778
Zn8	Zn	1.568756	0.083951	0.056222
O9	O	1.134390	-0.354554	-0.378179
O10	O	1.634390	0.145446	0.121821
O11	O	1.309890	-0.309362	-0.426415
O12	O	1.809890	0.190638	0.073585
O13	O	1.182537	-0.399804	-0.202707
O14	O	1.682537	0.100196	0.297293
O15	O	1.086252	-0.190058	-0.330003
O16	O	1.586252	0.309942	0.169997
O17	O	1.309822	-0.399783	-0.329975
O18	O	1.809822	0.100217	0.170025
O19	O	1.182694	-0.190043	-0.426432
O20	O	1.682694	0.309957	0.073568
O21	O	1.086163	-0.309397	-0.202720
O22	O	1.586163	0.190603	0.297280
O23	O	0.958936	-0.309350	-0.329964
O24	O	1.458936	0.190650	0.170036
O25	O	1.086198	-0.399700	-0.553631
O26	O	1.586198	0.100300	-0.053631
O27	O	0.958913	-0.399721	-0.426363
O28	O	1.458913	0.100279	0.073637
O29	O	1.182664	-0.309315	-0.553660
O30	O	1.682664	0.190685	-0.053660
O31	O	1.182506	-0.519075	-0.329936
O32	O	1.682506	-0.019075	0.170064
O33	O	1.086109	-0.519040	-0.426347
O34	O	1.586109	-0.019040	0.073653
C35	C	0.930442	-0.354533	-0.378162
C36	C	1.430442	0.145467	0.121838
C37	C	0.843193	-0.354542	-0.378173
C38	C	1.343193	0.145458	0.121827
C39	C	0.802239	-0.307543	-0.428466
C40	C	1.302239	0.192457	0.071534
C41	C	0.720258	-0.307548	-0.428470
C42	C	1.220258	0.192452	0.071530
C43	C	0.679233	-0.354556	-0.378183
C44	C	1.179233	0.145444	0.121817
C45	C	0.720193	-0.401557	-0.327885
C46	C	1.220193	0.098443	0.172115
C47	C	0.802172	-0.401548	-0.327878
C48	C	1.302172	0.098452	0.172122
C49	C	0.549323	-0.401573	-0.327904
C50	C	1.049323	0.098427	0.172096
C51	C	0.467338	-0.401583	-0.327912
C52	C	0.967338	0.098417	0.172088
C53	C	0.467409	-0.307574	-0.428496
C54	C	0.967409	0.192426	0.071504
C55	C	0.549388	-0.307565	-0.428489
C56	C	1.049388	0.192435	0.071511
C57	C	0.590342	-0.354567	-0.378191
C58	C	1.090342	0.145433	0.121809
C59	C	1.134315	-0.545760	-0.378152
C60	C	1.634315	-0.045760	0.121848
C61	C	1.134355	-0.627559	-0.378167
C62	C	1.634355	-0.127559	0.121833
C63	C	1.184596	-0.815684	-0.428445
C64	C	1.684596	-0.315684	0.071555
C65	C	1.184625	-0.892543	-0.428460
C66	C	1.684625	-0.392543	0.071540
C67	C	1.084282	-0.892672	-0.327962
C68	C	1.584282	-0.392672	0.172038
C69	C	1.084250	-0.815815	-0.327952
C70	C	1.584250	-0.315815	0.172048
C71	C	1.134411	-0.777323	-0.378192
C72	C	1.634411	-0.277323	0.121808
C73	C	1.134472	-0.931039	-0.378217
C74	C	1.634472	-0.431039	0.121783
C75	C	1.134502	-1.014372	-0.378233
C76	C	1.634502	-0.514372	0.121767
C77	C	1.134380	-0.693984	-0.378178
C78	C	1.634380	-0.193984	0.121822
C79	C	1.339135	-0.354575	-0.378198
C80	C	1.839135	0.145425	0.121802
C81	C	1.426384	-0.354585	-0.378205
C82	C	1.926384	0.145415	0.121795
C83	C	1.134438	-0.354500	-0.582924
C84	C	1.634438	0.145500	-0.082924
C85	C	1.134458	-0.354477	-0.670174
C86	C	1.634458	0.145523	-0.170174
C87	C	1.134487	-0.162601	-0.378224
C88	C	1.634487	0.337399	0.121776
C89	C	1.134528	-0.080802	-0.378243
C90	C	1.634528	0.419198	0.121757
C91	C	1.184689	-0.307409	-0.711180
C92	C	1.684689	0.192591	-0.211180
C93	C	1.184699	-0.307384	-0.793161
C94	C	1.684699	0.192616	-0.293161
C95	C	1.134480	-0.354432	-0.834133
C96	C	1.634480	0.145568	-0.334133
C97	C	1.084243	-0.401502	-0.793121
C98	C	1.584243	0.098498	-0.293121
C99	C	1.084231	-0.401522	-0.711142
C100	C	1.584231	0.098478	-0.211142
C101	C	1.084275	-0.401458	-0.963991
C102	C	1.584275	0.098542	-0.463991
C103	C	1.084289	-0.401439	-1.045975
C104	C	1.584289	0.098561	-0.545975
C105	C	1.184743	-0.307320	-1.046010
C106	C	1.684743	0.192680	-0.546010
C107	C	1.184730	-0.307340	-0.964031
C108	C	1.684730	0.192660	-0.464031
C109	C	1.134494	-0.354411	-0.923024
C110	C	1.634494	0.145589	-0.423024
C111	C	1.134388	-0.354555	-0.174232
C112	C	1.634388	0.145445	0.325768
C113	C	1.134520	-0.354371	-0.086982
C114	C	1.634520	0.145629	0.413018
H115	H	0.582665	-0.439845	-0.286944
H116	H	1.082665	0.060155	0.213056
C117	C	1.029042	-0.453259	-0.918885
C118	C	1.529042	0.046741	-0.418885
H119	H	0.999149	-0.481289	-0.955026
H120	H	1.499149	0.018711	-0.455026
H121	H	0.994841	-0.425136	-0.886892
H122	H	1.494841	0.074864	-0.386892
H123	H	1.059079	-0.485330	-0.886917
H124	H	1.559079	0.014670	-0.386917
H125	H	1.043443	-0.924021	-0.287057
H126	H	1.543443	-0.424021	0.212943
C127	C	1.240001	-0.255539	-1.091110
C128	C	1.740001	0.244461	-0.591110
H129	H	1.269915	-0.227530	-1.054967
H130	H	1.769915	0.272470	-0.554967
H131	H	1.209998	-0.223460	-1.123093
H132	H	1.709998	0.276540	-0.623093
H133	H	1.274195	-0.283693	-1.123089
H134	H	1.774195	0.216307	-0.623089
H135	H	1.043319	-0.439842	-0.677755
H136	H	1.543319	0.060158	-0.177755
H137	H	0.686917	-0.269278	-0.469425
H138	H	1.186917	0.230722	0.030575
H139	H	0.686784	-0.439828	-0.286937
H140	H	1.186784	0.060172	0.213063
H141	H	1.043395	-0.439747	-1.079333
H142	H	1.543395	0.060253	-0.579333
H143	H	1.225488	-0.923773	-0.469383
H144	H	1.725488	-0.423773	0.030617
H145	H	1.043380	-0.784579	-0.287030
H146	H	1.543380	-0.284579	0.212970
H147	H	0.835635	-0.269266	-0.469417
H148	H	1.335635	0.230734	0.030583
H149	H	0.434060	-0.269301	-0.469449
H150	H	0.934060	0.230699	0.030551
C151	C	0.594515	-0.255856	-0.483802
C152	C	1.094515	0.244144	0.016198
H153	H	0.558384	-0.227860	-0.513753
H154	H	1.058384	0.272140	-0.013753
H155	H	0.626503	-0.284045	-0.517946
H156	H	1.126503	0.215955	-0.017946
H157	H	0.626488	-0.223751	-0.453823
H158	H	1.126488	0.276249	0.046177
C159	C	0.422212	-0.453287	-0.272595
C160	C	0.922212	0.046713	0.227405
H161	H	0.458342	-0.481272	-0.242631
H162	H	0.958342	0.018728	0.257369
H163	H	0.390236	-0.485393	-0.302563
H164	H	0.890236	0.014607	0.197437
H165	H	0.390225	-0.425089	-0.238451
H166	H	0.890225	0.074911	0.261549
H167	H	0.835516	-0.439818	-0.286923
H168	H	1.335516	0.060182	0.213077
H169	H	1.225440	-0.784346	-0.469355
H170	H	1.725440	-0.284346	0.030645
H171	H	1.225586	-0.269099	-0.677827
H172	H	1.725586	0.230901	-0.177827
H173	H	1.225604	-0.269059	-0.826545
H174	H	1.725604	0.230941	-0.326545
C175	C	1.239970	-0.255590	-0.918963
C176	C	1.739970	0.244410	-0.418963
H177	H	1.269885	-0.227548	-0.955124
H178	H	1.769885	0.272452	-0.455124
H179	H	1.274150	-0.283753	-0.886979
H180	H	1.774150	0.216247	-0.386979
H181	H	1.209946	-0.223527	-0.886987
H182	H	1.709946	0.276473	-0.386987
H183	H	1.043352	-0.439806	-0.826487
H184	H	1.543352	0.060194	-0.326487
