data_functionalizedCrystal
_audit_creation_method	'MofGen! by Chris Wilmer'
_symmetry_space_group_name_H-M	'P1'
_symmetry_Int_Tables_number	1
_symmetry_cell_setting	triclinic
loop_
_symmetry_equiv_pos_as_xyz
  x,y,z
_cell_length_a	10.489746
_cell_length_b	10.489741
_cell_length_c	9.482900
_cell_angle_alpha	80.592304
_cell_angle_beta	99.405681
_cell_angle_gamma	84.540238
loop_
_atom_site_label
_atom_site_type_symbol
_atom_site_fract_x
_atom_site_fract_y
_atom_site_fract_z
O1	O	1.713771	0.160265	0.120795
O2	O	1.342580	0.177147	0.120820
O3	O	1.536620	-0.016890	0.120798
O4	O	1.519730	0.354302	0.120817
O5	O	1.497129	0.022605	-0.120990
O6	O	1.303089	0.216642	-0.120969
O7	O	1.674280	0.199760	-0.120993
Cu8	Cu	1.485079	0.211807	-0.143058
Cu9	Cu	1.531781	0.165100	0.142885
O10	O	1.480240	0.393797	-0.120971
C11	C	1.275303	0.195617	-0.000071
C12	C	1.133676	0.191796	-0.000062
C13	C	0.980814	0.066077	-0.000089
C14	C	1.038738	0.148405	-0.119296
C15	C	1.077628	0.109496	0.119088
C16	C	0.939228	0.267405	-0.119404
C17	C	0.978131	0.228460	0.119088
C18	C	1.036001	0.310881	-0.000148
C19	C	1.515599	-0.044675	-0.000095
C20	C	1.511782	-0.186305	-0.000092
C21	C	1.388321	-0.254450	-0.000073
C22	C	1.427173	-0.327098	-0.119291
C23	C	1.466137	-0.366011	0.119093
C24	C	1.550669	-0.257071	-0.119408
C25	C	1.589633	-0.295992	0.119083
C26	C	1.628570	-0.368608	-0.000164
C27	C	1.741557	0.181289	-0.000099
C28	C	1.883186	0.185109	-0.000098
C29	C	1.501261	0.421581	-0.000075
C30	C	1.505079	0.563209	-0.000068
N31	N	1.452240	0.244658	-0.344174
C32	C	1.494784	0.202114	-0.583792
C33	C	1.522096	0.174772	-0.416377
N34	N	1.564630	0.132239	0.344001
H35	H	1.137531	0.042762	0.219871
C36	C	1.682335	-0.276197	0.255229
H37	H	1.750622	-0.230540	0.226592
H38	H	1.635419	-0.227259	0.310326
H39	H	1.718156	-0.358567	0.312760
H40	H	1.358471	-0.341648	-0.220075
H41	H	1.372211	0.324724	-0.406290
C42	C	1.598904	-0.193160	-0.255726
H43	H	1.600989	-0.102932	-0.254930
H44	H	1.683941	-0.233216	-0.256083
H45	H	1.541513	-0.203884	-0.340274
H46	H	1.602116	0.094697	-0.354262
H47	H	1.065752	0.114620	-0.220085
C48	C	1.251172	-0.187343	-0.000222
H49	H	1.193662	-0.197308	-0.085032
H50	H	1.220558	-0.225999	0.083610
H51	H	1.254686	-0.097304	0.000630
H52	H	1.644644	0.052169	-0.593877
C53	C	1.069055	0.450814	-0.000207
H54	H	1.130867	0.452430	0.084524
H55	H	1.104550	0.479526	-0.084120
H56	H	0.992129	0.506816	-0.001035
H57	H	0.956072	-0.037404	-0.000214
C58	C	1.765802	-0.435371	-0.000261
H59	H	1.795601	-0.397571	-0.085025
H60	H	1.823690	-0.424032	0.083618
H61	H	1.762765	-0.525707	0.000533
H62	H	0.951093	0.262200	0.219880
C63	C	1.417788	-0.430108	0.255251
H64	H	1.483275	-0.495972	0.311393
H65	H	1.399221	-0.366123	0.311758
H66	H	1.341036	-0.467794	0.226591
C67	C	1.386686	0.310279	-0.667700
H68	H	1.382516	0.314473	-0.769214
H69	H	1.305451	0.291612	-0.642842
H70	H	1.405420	0.391496	-0.642822
H71	H	0.879470	0.334100	-0.220301
