data_functionalizedCrystal
_audit_creation_method	'MofGen! by Chris Wilmer'
_symmetry_space_group_name_H-M	'P1'
_symmetry_Int_Tables_number	1
_symmetry_cell_setting	triclinic
loop_
_symmetry_equiv_pos_as_xyz
  x,y,z
_cell_length_a	20.919309
_cell_length_b	20.875650
_cell_length_c	20.875641
_cell_angle_alpha	60.100828
_cell_angle_beta	90.163804
_cell_angle_gamma	59.952679
loop_
_atom_site_label
_atom_site_type_symbol
_atom_site_fract_x
_atom_site_fract_y
_atom_site_fract_z
Zr1	Zr	0.669498	0.643863	-0.078588
O2	O	0.572337	0.777366	-0.185727
O3	O	0.695620	0.510683	-0.042644
O4	O	0.705423	0.633935	-0.175683
O5	O	0.558969	0.661833	0.048730
O6	O	0.814570	0.625736	-0.171286
O7	O	0.562534	0.654114	-0.052688
O8	O	0.797035	0.405260	0.066696
O9	O	0.576504	0.882309	-0.189253
O10	O	0.792642	0.559224	-0.027778
O11	O	0.708525	0.571103	0.044628
O12	O	0.720067	0.716216	-0.112009
O13	O	0.635950	0.728096	-0.039603
Zr14	Zr	0.837888	0.643098	0.090174
Zr15	Zr	0.843575	0.630787	-0.071575
Zr16	Zr	0.663811	0.656174	0.083162
Zr17	Zr	0.676144	0.811235	-0.084211
Zr18	Zr	0.831243	0.475727	0.095798
O19	O	0.811766	0.776279	0.054231
O20	O	0.819852	0.758774	-0.175756
O21	O	0.564251	0.794871	0.044260
O22	O	0.935049	0.509595	0.197314
O23	O	0.943135	0.492090	-0.032673
O24	O	0.687534	0.528187	0.187343
O25	O	0.948418	0.625128	-0.037143
O26	O	0.801963	0.653027	0.187270
O27	O	0.692816	0.661225	0.182873
O28	O	0.944852	0.632848	0.064275
O29	O	0.714872	0.871915	-0.183679
O30	O	0.792514	0.415046	0.195266
O31	O	0.930882	0.404653	0.200840
O32	O	0.935403	0.394867	0.072271
O33	O	0.571983	0.892095	-0.060684
O34	O	0.710352	0.881701	-0.055110
O35	O	0.787319	0.570745	0.123596
O36	O	0.871436	0.558866	0.051190
O37	O	0.798861	0.715859	-0.033041
O38	O	0.714744	0.727738	0.039365
C39	C	0.745381	0.434125	0.012827
C40	C	0.742559	0.363071	0.015215
C41	C	0.722225	-0.036504	0.033021
C42	C	0.724837	0.030302	0.030729
C43	C	0.770047	0.057506	-0.008218
C44	C	0.812654	0.017893	-0.044868
C45	C	0.810046	-0.048916	-0.042570
C46	C	0.782559	0.256649	-0.019138
C47	C	0.785161	0.323465	-0.021435
C48	C	0.697345	0.335869	0.054164
C49	C	0.694738	0.269061	0.056454
C50	C	0.737348	0.229451	0.019807
N51	N	0.772716	0.125795	-0.010564
N52	N	0.734683	0.161159	0.022159
C53	C	0.535949	0.659837	-0.002978
C54	C	0.462049	0.665388	-0.005955
C55	C	0.465212	0.586049	0.036610
C56	C	0.395772	0.591270	0.033811
C57	C	0.323170	0.675831	-0.011558
C58	C	0.320009	0.755176	-0.054125
C59	C	0.389448	0.749954	-0.051321
C60	C	0.111615	0.695697	-0.022220
C61	C	0.042174	0.700913	-0.025023
C62	C	0.117942	0.537007	0.062914
C63	C	0.187379	0.531792	0.065710
C64	C	0.184212	0.611137	0.023147
C65	C	0.252191	0.681169	-0.014423
C66	C	0.255190	0.605798	0.026016
C67	C	0.971437	0.627125	0.014565
C68	C	1.045337	0.621574	0.017542
C69	C	0.760807	0.628081	-0.196531
C70	C	0.763221	0.622855	-0.265198
C71	C	0.762006	0.852837	-0.001241
C72	C	0.764827	0.923890	-0.003628
C73	C	0.726473	0.702346	-0.341425
C74	C	0.728752	0.697429	-0.405942
C75	C	0.767774	0.613021	-0.394230
C76	C	0.804527	0.533524	-0.317994
C77	C	0.802252	0.538441	-0.253479
C78	C	0.778643	0.589527	-0.582465
C79	C	0.780913	0.584616	-0.646988
C80	C	0.705139	0.748522	-0.734931
C81	C	0.702864	0.753432	-0.670411
C82	C	0.739620	0.673934	-0.594181
N83	N	0.770102	0.607993	-0.460175
N84	N	0.737296	0.678963	-0.528237
C85	C	0.746579	0.658880	0.208118
C86	C	0.744165	0.664107	0.276785
C87	C	0.963125	0.417769	0.021599
C88	C	1.034204	0.341164	0.026963
C89	C	0.738267	0.449524	0.215152
C90	C	0.733031	0.383697	0.286206
C91	C	0.956011	0.433168	0.223923
C92	C	1.024676	0.361790	0.297954
C93	C	0.551375	0.853793	-0.212336
C94	C	0.482711	0.925171	-0.286368
C95	C	0.544262	0.869193	-0.010012
C96	C	0.473183	0.945797	-0.015377
C97	C	0.769119	0.837437	-0.203565
C98	C	0.774355	0.903265	-0.274619
C99	C	1.026454	0.305376	-0.011745
C100	C	1.093234	0.233407	-0.006720
C101	C	1.167764	0.197222	0.037018
C102	C	1.175512	0.233017	0.075727
C103	C	1.108733	0.304990	0.070697
C104	C	0.771702	0.352598	0.360801
C105	C	0.766780	0.290756	0.427570
C106	C	0.723191	0.260010	0.419742
C107	C	0.684515	0.291116	0.345139
C108	C	0.689434	0.352961	0.278371
C109	C	1.100836	0.322069	0.294926
C110	C	1.165362	0.255010	0.364480
C111	C	1.153724	0.227669	0.437062
C112	C	1.077555	0.267397	0.440089
C113	C	1.013032	0.334459	0.370535
C114	C	0.406550	0.964901	-0.283339
C115	C	0.342026	1.031981	-0.352894
C116	C	0.353664	1.059325	-0.425476
C117	C	0.429832	1.019592	-0.428503
C118	C	0.494355	0.952519	-0.358949
C119	C	0.480933	0.981592	0.023325
C120	C	0.414154	1.053579	0.018282
C121	C	0.339625	1.089765	-0.025459
C122	C	0.331876	1.053967	-0.064165
C123	C	0.398654	0.981986	-0.059126
C124	C	0.817950	0.933991	-0.266766
C125	C	0.822885	0.995833	-0.333522
C126	C	0.784219	1.026952	-0.408130
C127	C	0.740622	0.996220	-0.415982
C128	C	0.735692	0.934374	-0.349226
H129	H	0.817252	0.224405	-0.048979
H130	H	0.397059	0.942642	-0.224246
H131	H	0.709142	1.021567	-0.476737
H132	H	0.788239	1.077312	-0.462481
C133	C	0.562911	0.941802	0.071437
C134	C	0.571420	0.981196	0.113995
C135	C	0.653395	0.941416	0.162105
C136	C	0.726861	0.862241	0.167658
C137	C	0.718354	0.822842	0.125098
C138	C	0.636379	0.862622	0.076988
H139	H	0.517034	1.039810	0.109886
H140	H	0.659692	0.970582	0.193610
H141	H	0.787544	0.832793	0.203272
H142	H	0.772740	0.764228	0.129207
H143	H	0.630082	0.833456	0.045483
H144	H	0.285255	1.148377	-0.029555
C145	C	0.842673	0.451000	-0.169625
C146	C	0.840177	0.456404	-0.098659
C147	C	0.880602	0.368960	-0.014804
C148	C	0.923524	0.276111	-0.001917
C149	C	0.926023	0.270703	-0.072886
C150	C	0.885597	0.358147	-0.156740
H151	H	0.808402	0.525139	-0.108197
H152	H	0.878753	0.372963	0.037731
H153	H	0.953450	0.211379	0.060157
H154	H	0.957798	0.201967	-0.063347
H155	H	0.887447	0.354143	-0.209276
C156	C	0.687727	0.900587	-0.357873
C157	C	0.682292	0.832561	-0.284455
C158	C	0.634325	0.798777	-0.293109
C159	C	0.591794	0.833018	-0.375180
C160	C	0.597227	0.901048	-0.448604
C161	C	0.645194	0.934832	-0.439950
H162	H	0.713778	0.807211	-0.223696
H163	H	0.630303	0.748417	-0.238756
H164	H	0.556286	0.808009	-0.381586
H165	H	0.565741	0.926399	-0.509363
H166	H	0.649216	0.985192	-0.494304
C167	C	0.335049	0.512783	0.075920
C168	C	0.358631	0.441844	0.058578
C169	C	0.438497	0.348829	0.108478
C170	C	0.494781	0.326753	0.175721
C171	C	0.471200	0.397694	0.193067
C172	C	0.391334	0.490709	0.143166
H173	H	0.316966	0.458185	0.008797
H174	H	0.455953	0.296315	0.095638
H175	H	0.553902	0.257898	0.212661
H176	H	0.512865	0.381353	0.242847
H177	H	0.373878	0.543223	0.156007
C178	C	0.823844	0.491760	-0.634103
C179	C	0.864277	0.404315	-0.550255
C180	C	0.907204	0.311465	-0.537373
C181	C	0.909698	0.306061	-0.608340
C182	C	0.869264	0.393510	-0.692194
C183	C	0.826337	0.486359	-0.705075
H184	H	0.862432	0.408312	-0.497716
H185	H	0.937135	0.246730	-0.475298
H186	H	0.941475	0.237329	-0.598804
H187	H	0.871109	0.389512	-0.744733
H188	H	0.796405	0.551094	-0.767150
C189	C	0.860492	0.899763	-0.184701
C190	C	0.855082	0.831734	-0.111261
C191	C	0.897632	0.797507	-0.029199
C192	C	0.945590	0.831308	-0.020577
C193	C	0.951002	0.899341	-0.094019
C194	C	0.908453	0.933569	-0.176082
H195	H	0.819579	0.806708	-0.117642
H196	H	0.893625	0.747144	0.025168
H197	H	0.977087	0.805971	0.040171
H198	H	0.986505	0.924367	-0.087639
H199	H	0.912459	0.983931	-0.230449
C200	C	0.688346	0.784862	-0.489797
C201	C	0.622221	0.808326	-0.548570
C202	C	0.581824	0.895759	-0.632430
C203	C	0.607553	0.959728	-0.657516
C204	C	0.673681	0.936266	-0.598741
C205	C	0.714078	0.848833	-0.514882
H206	H	0.603173	0.760971	-0.530001
H207	H	0.532872	0.913126	-0.675938
H208	H	0.577648	1.024451	-0.719593
H209	H	0.692730	0.983621	-0.617310
H210	H	0.763031	0.831465	-0.471374
C211	C	0.847451	0.440670	-0.305102
C212	C	0.821109	0.378043	-0.262258
C213	C	0.864032	0.285186	-0.249361
C214	C	0.933296	0.254955	-0.279309
C215	C	0.959642	0.317584	-0.322156
C216	C	0.916719	0.410441	-0.335053
H217	H	0.769832	0.400420	-0.240087
H218	H	0.844528	0.238824	-0.217643
H219	H	0.965070	0.186217	-0.269761
H220	H	1.010919	0.295206	-0.344327
H221	H	0.936222	0.456802	-0.366771
H222	H	0.280012	1.064321	-0.350414
C223	C	0.809333	0.256542	0.509627
C224	C	0.899038	0.205512	0.538600
C225	C	0.941592	0.171300	0.620654
C226	C	0.894440	0.188119	0.673734
C227	C	0.804730	0.239152	0.644762
C228	C	0.762176	0.273364	0.562708
H229	H	0.933947	0.193059	0.499306
H230	H	1.008002	0.133521	0.642101
H231	H	0.925941	0.162793	0.734475
H232	H	0.769820	0.251605	0.684056
H233	H	0.695766	0.311142	0.541261
H234	H	0.301118	1.113942	-0.482105
H235	H	0.685406	-0.058643	0.064731
H236	H	0.439299	1.041865	-0.487608
H237	H	0.662655	0.368125	0.084000
C238	C	1.241217	0.118046	0.042551
C239	C	1.323202	0.078233	0.090661
C240	C	1.396652	-0.000945	0.096194
C241	C	1.388117	-0.040309	0.053616
C242	C	1.306129	-0.000496	0.005503
C243	C	1.232679	0.078682	-0.000030
H244	H	1.329523	0.107373	0.122183
H245	H	1.457345	-0.030417	0.131811
H246	H	1.442489	-0.098921	0.057712
H247	H	1.299808	-0.029636	-0.026019
H248	H	1.171986	0.108154	-0.035647
C249	C	0.677970	0.073863	0.071046
C250	C	0.694614	0.014497	0.159924
C251	C	0.647746	0.058053	0.200247
C252	C	0.584234	0.160975	0.151692
C253	C	0.567588	0.220347	0.062808
C254	C	0.614456	0.176791	0.022486
H255	H	0.741632	-0.061697	0.195873
H256	H	0.660069	0.014101	0.266045
H257	H	0.549540	0.193218	0.181541
H258	H	0.520570	0.296542	0.026860
H259	H	0.602132	0.220743	-0.043312
H260	H	0.849469	0.040042	-0.076576
H261	H	0.657924	0.246916	0.088170
C262	C	0.422690	1.092938	0.060869
C263	C	0.392173	1.193384	0.013681
C264	C	0.400712	1.232740	0.056270
C265	C	0.439767	1.171649	0.146047
C266	C	0.470287	1.071197	0.193241
C267	C	0.461748	1.031842	0.150652
H268	H	0.363260	1.238613	-0.052783
H269	H	0.378119	1.307102	0.021333
H270	H	0.446088	1.200783	0.177574
H271	H	0.499200	1.025969	0.259705
H272	H	0.484341	0.957480	0.185589
H273	H	1.068091	0.245126	0.499194
H274	H	1.206270	0.173061	0.493691
C275	C	0.249889	1.093769	-0.112266
C276	C	0.176441	1.172935	-0.117791
C277	C	0.094452	1.212731	-0.165885
C278	C	0.085911	1.173362	-0.208454
C279	C	0.159361	1.094191	-0.202931
C280	C	0.241350	1.054395	-0.154837
H281	H	0.182761	1.202082	-0.086277
H282	H	0.040079	1.271339	-0.169973
H283	H	0.025217	1.202822	-0.244056
H284	H	0.153041	1.065044	-0.234445
H285	H	0.295723	0.995787	-0.150749
C286	C	0.545072	0.493029	0.086517
C287	C	0.548547	0.405759	0.133342
C288	C	0.628406	0.312737	0.183253
C289	C	0.704790	0.306985	0.186339
C290	C	0.701317	0.394259	0.139513
C291	C	0.621458	0.487281	0.089602
H292	H	0.492001	0.410014	0.131058
H293	H	0.630977	0.248131	0.217916
H294	H	0.763906	0.238125	0.223286
H295	H	0.757863	0.390004	0.141797
H296	H	0.618888	0.551886	0.054939
H297	H	0.657945	0.378274	0.217635
C298	C	0.108132	0.782971	-0.069049
C299	C	0.143572	0.805982	-0.025996
C300	C	0.140093	0.893258	-0.072829
C301	C	0.101173	0.957524	-0.162715
C302	C	0.065730	0.934515	-0.205772
C303	C	0.069209	0.847238	-0.158939
H304	H	0.172385	0.758407	0.040547
H305	H	0.166330	0.910291	-0.040955
H306	H	0.098597	1.022131	-0.197383
H307	H	0.036917	0.982089	-0.272315
H308	H	0.042972	0.830205	-0.190813
H309	H	0.556367	0.920171	-0.361424
C310	C	1.257499	0.193197	0.123846
C311	C	1.318788	0.194671	0.083576
C312	C	1.400777	0.154842	0.131701
C313	C	1.421476	0.113538	0.220096
C314	C	1.360185	0.112062	0.260371
C315	C	1.278197	0.151891	0.212245
H316	H	1.303467	0.225249	0.018136
H317	H	1.446148	0.155935	0.101887
H318	H	1.482169	0.084053	0.255721
H319	H	1.375507	0.081485	0.325810
H320	H	1.232825	0.150799	0.242060
C321	C	0.121423	0.449732	0.109738
C322	C	0.045047	0.455467	0.106661
C323	C	0.048530	0.368188	0.153491
C324	C	0.128389	0.275174	0.203397
C325	C	0.204771	0.269435	0.206476
C326	C	0.201287	0.356714	0.159647
H327	H	-0.014075	0.524324	0.069716
H328	H	-0.008013	0.372436	0.151211
H329	H	0.130967	0.210564	0.238063
H330	H	0.263892	0.200577	0.243422
H331	H	0.257831	0.352465	0.161926
C332	C	0.717790	0.191974	0.493192
C333	C	0.760336	0.157767	0.575244
C334	C	0.754940	0.089729	0.648697
C335	C	0.706999	0.055899	0.640098
C336	C	0.664450	0.090107	0.558044
C337	C	0.669846	0.158145	0.484590
H338	H	0.795828	0.182809	0.581612
H339	H	0.786438	0.064406	0.709439
H340	H	0.703005	0.005533	0.694473
H341	H	0.628958	0.065064	0.551676
H342	H	0.638348	0.183467	0.423848
C343	C	1.249140	0.211312	0.361137
C344	C	1.303389	0.108425	0.400411
C345	C	1.387164	0.064729	0.397065
C346	C	1.416691	0.123920	0.354445
C347	C	1.362441	0.226813	0.315168
C348	C	1.278666	0.270508	0.318514
H349	H	1.281532	0.064603	0.431963
H350	H	1.427323	-0.011439	0.426141
H351	H	1.478706	0.091574	0.351969
H352	H	1.384298	0.270635	0.283616
H353	H	1.238507	0.346677	0.289438
C354	C	0.636576	0.257282	0.336539
C355	C	0.658422	0.206541	0.297528
C356	C	0.610488	0.172699	0.288933
C357	C	0.540708	0.189597	0.319349
C358	C	0.518858	0.240340	0.358362
C359	C	0.566792	0.274183	0.366957
H360	H	0.710080	0.194030	0.275011
H361	H	0.626663	0.135136	0.260053
H362	H	0.505224	0.164545	0.312986
H363	H	0.467199	0.252851	0.380879
H364	H	0.550617	0.311746	0.395837
C365	C	0.870838	1.029636	-0.324873
C366	C	0.940644	1.012715	-0.355249
C367	C	0.988595	1.046516	-0.346598
C368	C	0.966741	1.097238	-0.307570
C369	C	0.896931	1.114162	-0.277191
C370	C	0.848980	1.080360	-0.285842
H371	H	0.956825	0.975165	-0.384142
H372	H	1.040273	1.033988	-0.369086
H373	H	1.002237	1.122260	-0.301165
H374	H	0.880750	1.151712	-0.248298
H375	H	0.797302	1.092889	-0.263354
H376	H	0.844738	-0.081164	-0.072413
H377	H	0.821979	0.345611	-0.053152
H378	H	0.398354	0.526664	0.068473
H379	H	0.246491	0.462933	0.102640
H380	H	0.392333	0.952845	-0.090640
H381	H	0.951020	0.366793	0.373012
H382	H	-0.016942	0.769776	-0.061972
H383	H	0.260891	0.824027	-0.091061
H384	H	0.193071	0.750019	-0.051362
H385	H	0.386868	0.814561	-0.085973
H386	H	0.694692	0.771081	-0.350971
H387	H	0.675215	0.813244	-0.797002
H388	H	0.671091	0.822166	-0.679956
H389	H	0.808573	0.524794	-0.520404
H390	H	0.965775	0.334836	-0.047370
H391	H	1.086910	0.204271	-0.038243
H392	H	0.807197	0.377624	0.367190
H393	H	1.115054	0.334119	0.102223
H394	H	1.110327	0.344319	0.235832
