data_functionalizedCrystal
_audit_creation_method	'MofGen! by Chris Wilmer'
_symmetry_space_group_name_H-M	'P1'
_symmetry_Int_Tables_number	1
_symmetry_cell_setting	triclinic
loop_
_symmetry_equiv_pos_as_xyz
  x,y,z
_cell_length_a	12.759401
_cell_length_b	19.121063
_cell_length_c	12.759393
_cell_angle_alpha	92.402917
_cell_angle_beta	89.980316
_cell_angle_gamma	92.468022
loop_
_atom_site_label
_atom_site_type_symbol
_atom_site_fract_x
_atom_site_fract_y
_atom_site_fract_z
Zn1	Zn	1.588320	-0.279588	-0.611806
Zn2	Zn	1.580679	-0.397056	-0.443600
Zn3	Zn	1.412620	-0.279622	-0.436143
Zn4	Zn	1.405079	-0.397000	-0.619235
O5	O	1.496674	-0.338317	-0.527696
O6	O	1.734327	-0.295179	-0.589504
O7	O	1.558344	-0.381516	-0.295593
O8	O	1.442281	-0.181334	-0.453216
O9	O	1.728713	-0.381483	-0.465925
O10	O	1.571367	-0.181308	-0.582274
O11	O	1.434871	-0.295238	-0.290114
O12	O	1.264599	-0.295184	-0.460419
O13	O	1.429428	-0.381387	-0.765268
O14	O	1.259059	-0.381421	-0.594936
O15	O	1.564055	-0.295125	-0.759810
O16	O	1.551031	-0.495333	-0.473129
O17	O	1.422019	-0.495292	-0.602166
C18	C	1.223708	-0.338300	-0.527675
C19	C	1.106931	-0.338310	-0.527692
C20	C	1.054927	-0.293348	-0.457769
C21	C	0.945201	-0.293364	-0.457784
C22	C	0.939494	-0.383308	-0.597653
C23	C	1.049217	-0.383295	-0.597633
C24	C	1.058221	-0.241417	-0.377020
C25	C	0.948496	-0.241434	-0.377034
C26	C	1.484906	-0.520796	-0.539286
C27	C	1.479968	-0.598862	-0.544279
C28	C	1.544870	-0.635535	-0.479498
C29	C	1.540231	-0.708886	-0.484200
C30	C	1.470685	-0.745562	-0.553679
C31	C	1.405780	-0.708884	-0.618468
C32	C	1.410424	-0.635534	-0.613770
C33	C	1.453304	-0.967031	-0.571227
C34	C	1.448662	-1.040385	-0.575917
C35	C	1.583115	-1.040383	-0.441650
C36	C	1.587749	-0.967032	-0.436954
C37	C	1.522848	-0.930360	-0.501747
C38	C	1.465940	-0.820539	-0.558485
C39	C	1.527599	-0.855385	-0.496945
C40	C	1.770707	-0.338333	-0.527718
C41	C	1.887483	-0.338341	-0.527727
C42	C	1.496752	-0.338246	-0.801725
C43	C	1.496786	-0.338216	-0.918500
C44	C	1.508517	-0.155124	-0.516084
C45	C	1.513564	-0.077059	-0.511136
C46	C	1.566895	-0.293294	-0.970521
C47	C	1.566922	-0.293269	-1.080244
C48	C	1.426726	-0.383092	-1.085914
C49	C	1.426695	-0.383113	-0.976193
C50	C	1.647840	-0.241438	-0.967248
C51	C	1.647866	-0.241413	-1.076971
C52	C	1.496660	-0.338336	-0.254730
C53	C	1.496843	-0.338169	-0.137943
H54	H	1.087023	-0.255916	-0.296529
H55	H	1.622068	-0.189731	-1.107730
Br56	Br	1.331523	-0.444066	-0.905594
H57	H	1.728302	-0.255982	-1.107678
Br58	Br	0.889620	-0.273805	-0.250187
Br59	Br	1.617375	-0.150783	-0.911873
Br60	Br	1.331606	-0.444020	-1.164219
H61	H	1.091554	-0.419914	-0.654561
Br62	Br	0.861162	-0.444360	-0.692561
H63	H	1.723860	-0.260938	-0.934455
Br64	Br	1.621988	-0.805609	-0.402662
H65	H	1.095586	-0.189766	-0.403011
H66	H	1.601497	-0.605679	-0.422916
Br67	Br	0.904691	-0.150808	-0.407830
H68	H	1.349158	-0.738751	-0.675044
H69	H	1.593081	-0.738743	-0.431447
Br70	Br	1.682151	-0.917262	-0.342671
Br71	Br	1.671195	-1.090156	-0.353728
H72	H	1.392041	-1.070245	-0.632514
H73	H	1.400457	-0.937178	-0.623981
Br74	Br	1.322346	-0.585762	-0.701698
H75	H	1.409313	-0.850408	-0.615053
