data_functionalizedCrystal
_audit_creation_method	'MofGen! by Chris Wilmer'
_symmetry_space_group_name_H-M	'P1'
_symmetry_Int_Tables_number	1
_symmetry_cell_setting	triclinic
loop_
_symmetry_equiv_pos_as_xyz
  x,y,z
_cell_length_a	16.120530
_cell_length_b	12.645330
_cell_length_c	16.120297
_cell_angle_alpha	92.876762
_cell_angle_beta	90.128140
_cell_angle_gamma	87.113442
loop_
_atom_site_label
_atom_site_type_symbol
_atom_site_fract_x
_atom_site_fract_y
_atom_site_fract_z
Zn1	Zn	1.247482	-0.537081	-0.534595
Zn2	Zn	1.254445	-0.705843	-0.395547
Zn3	Zn	1.115471	-0.519167	-0.388512
Zn4	Zn	1.108402	-0.704866	-0.527517
O5	O	1.181450	-0.616739	-0.461543
O6	O	1.364772	-0.567373	-0.522057
O7	O	1.241883	-0.673991	-0.278248
O8	O	1.133026	-0.373200	-0.407909
O9	O	1.369888	-0.691362	-0.419899
O10	O	1.230014	-0.386361	-0.515235
O11	O	1.139779	-0.536842	-0.273080
O12	O	0.998166	-0.535895	-0.401045
O13	O	1.120978	-0.689698	-0.644821
O14	O	0.992972	-0.672327	-0.503171
O15	O	1.223160	-0.566427	-0.650022
O16	O	1.235028	-0.854056	-0.413035
O17	O	1.127731	-0.853339	-0.509992
C18	C	0.965397	-0.602062	-0.450577
C19	C	0.872967	-0.595810	-0.445905
C20	C	0.703737	-0.584371	-0.437383
C21	C	0.660000	-0.649190	-0.485763
C22	C	0.565835	-0.642825	-0.481022
C23	C	0.797911	-0.590734	-0.442124
C24	C	1.181390	-0.892164	-0.461528
C25	C	1.181439	-1.009999	-0.461554
C26	C	1.114193	-1.177186	-0.522761
C27	C	1.113876	-1.054592	-0.522537
C28	C	1.162161	-1.047614	-0.372717
C29	C	1.161751	-1.170210	-0.373088
C30	C	1.268390	-1.184441	-0.488492
C31	C	1.267753	-1.061915	-0.490381
C32	C	1.398347	-0.631475	-0.472552
C33	C	1.490775	-0.637754	-0.477244
C34	C	1.170504	-0.629952	-0.678438
C35	C	1.165839	-0.635582	-0.770865
C36	C	1.181532	-0.340242	-0.461577
C37	C	1.181567	-0.222415	-0.461592
C38	C	1.157292	-0.645836	-0.940091
C39	C	1.205771	-0.587337	-0.983855
C40	C	1.201016	-0.593042	-1.078018
C41	C	1.162047	-0.640132	-0.845919
C42	C	1.192401	-0.603505	-0.245494
C43	C	1.197227	-0.597587	-0.153075
H44	H	1.125422	-1.029426	-0.588270
F45	F	1.098381	-0.716896	-0.983549
H46	H	0.670462	-0.524103	-0.392405
H47	H	1.318531	-1.213794	-0.443994
F48	F	0.703493	-0.727966	-0.544562
F49	F	1.264703	-0.516293	-0.940397
F50	F	1.129088	-1.222157	-0.608950
H51	H	1.050134	-1.202791	-0.504798
F52	F	1.224524	-1.009564	-0.311260
F53	F	1.078966	-1.200491	-0.343979
F54	F	1.029625	-1.009402	-0.498787
H55	H	1.099513	-1.011500	-0.350136
F56	F	1.223416	-1.208962	-0.311168
F57	F	1.292512	-1.231705	-0.572032
H58	H	1.320237	-1.032010	-0.449427
F59	F	1.286863	-1.030567	-0.575865
