data_functionalizedCrystal
_audit_creation_method	'MofGen! by Chris Wilmer'
_symmetry_space_group_name_H-M	'P1'
_symmetry_Int_Tables_number	1
_symmetry_cell_setting	triclinic
loop_
_symmetry_equiv_pos_as_xyz
  x,y,z
_cell_length_a	16.120530
_cell_length_b	16.120484
_cell_length_c	18.215399
_cell_angle_alpha	87.130211
_cell_angle_beta	92.916648
_cell_angle_gamma	90.167327
loop_
_atom_site_label
_atom_site_type_symbol
_atom_site_fract_x
_atom_site_fract_y
_atom_site_fract_z
Zn1	Zn	1.254472	-0.395614	0.489889
Zn2	Zn	1.754472	0.104386	0.989889
Zn3	Zn	1.247316	-0.534672	0.372722
Zn4	Zn	1.747316	-0.034672	0.872722
Zn5	Zn	1.115412	-0.388579	0.360305
Zn6	Zn	1.615412	0.111421	0.860305
Zn7	Zn	1.108324	-0.527567	0.489215
Zn8	Zn	1.608324	-0.027567	0.989215
O9	O	1.181381	-0.461608	0.428033
O10	O	1.681381	0.038392	0.928033
O11	O	1.369888	-0.419978	0.479825
O12	O	1.869888	0.080022	0.979825
O13	O	1.229790	-0.515322	0.268090
O14	O	1.729790	-0.015322	0.768090
O15	O	1.139820	-0.273149	0.372580
O16	O	1.639820	0.226851	0.872580
O17	O	1.364630	-0.522143	0.393742
O18	O	1.864630	-0.022143	0.893742
O19	O	1.241987	-0.278317	0.467785
O20	O	1.741987	0.221683	0.967785
O21	O	1.132881	-0.407988	0.258968
O22	O	1.632881	0.092012	0.758968
O23	O	0.998106	-0.401099	0.371927
O24	O	1.498106	0.098901	0.871927
O25	O	1.127740	-0.510034	0.592289
O26	O	1.627740	-0.010034	1.092289
O27	O	0.992899	-0.503212	0.466637
O28	O	1.492899	-0.003212	0.966637
O29	O	1.235114	-0.413088	0.592784
O30	O	1.735114	0.086912	1.092784
O31	O	1.222917	-0.650093	0.393090
O32	O	1.722917	-0.150093	0.893090
O33	O	1.120801	-0.644873	0.478677
O34	O	1.620801	-0.144873	0.978677
C35	C	0.965330	-0.450622	0.417862
C36	C	1.465330	0.049378	0.917862
C37	C	0.872902	-0.445942	0.413529
C38	C	1.372902	0.054058	0.913529
C39	C	0.703675	-0.437378	0.405624
C40	C	1.203675	0.062622	0.905624
C41	C	0.659925	-0.485899	0.450498
C42	C	1.159925	0.014101	0.950498
C43	C	0.565761	-0.481134	0.446099
C44	C	1.065761	0.018866	0.946099
C45	C	0.797847	-0.442142	0.410022
C46	C	1.297847	0.057858	0.910022
C47	C	1.170336	-0.677655	0.437175
C48	C	1.670336	-0.177655	0.937175
C49	C	1.165686	-0.770085	0.441114
C50	C	1.665686	-0.270085	0.941114
C51	C	1.157203	-0.939316	0.448321
C52	C	1.657203	-0.439316	0.948321
C53	C	1.205708	-0.983066	0.407764
C54	C	1.705708	-0.483066	0.907764
C55	C	1.200988	-1.077232	0.411774
C56	C	1.700988	-0.577232	0.911774
C57	C	1.161922	-0.845142	0.444312
C58	C	1.661922	-0.345142	0.944312
C59	C	1.398275	-0.472638	0.438244
C60	C	1.898275	0.027362	0.938244
C61	C	1.490703	-0.477338	0.442595
C62	C	1.990703	0.022662	0.942595
C63	C	1.181435	-0.461553	0.619986
C64	C	1.681435	0.038447	1.119986
C65	C	1.181457	-0.461530	0.701785
C66	C	1.681457	0.038470	1.201785
C67	C	1.192492	-0.244718	0.418872
C68	C	1.692492	0.255282	0.918872
C69	C	1.197227	-0.152292	0.414969
C70	C	1.697227	0.347708	0.914969
C71	C	1.181379	-0.461605	0.236826
C72	C	1.681379	0.038395	0.736826
C73	C	1.181529	-0.461402	0.155025
C74	C	1.681529	0.038598	0.655025
C75	C	1.237389	-0.411002	0.890236
C76	C	1.737389	0.088998	1.390236
C77	C	1.237400	-0.410978	0.967094
C78	C	1.737400	0.089022	1.467094
C79	C	1.125591	-0.511932	0.966568
C80	C	1.625591	-0.011932	1.466568
C81	C	1.125577	-0.511951	0.889711
C82	C	1.625577	-0.011951	1.389711
C83	C	1.181480	-0.461487	0.851547
C84	C	1.681480	0.038513	1.351547
C85	C	1.181506	-0.461445	1.005263
C86	C	1.681506	0.038555	1.505263
C87	C	1.181518	-0.461419	1.088596
C88	C	1.681518	0.038581	1.588596
C89	C	1.181468	-0.461511	0.768209
C90	C	1.681468	0.038489	1.268209
H91	H	1.250779	-0.949801	0.370029
H92	H	1.750779	-0.449801	0.870029
H93	H	1.080079	-0.553020	0.997651
H94	H	1.580079	-0.053020	1.497651
C95	C	0.704851	-0.546857	0.506856
C96	C	1.204851	-0.046857	1.006856
H97	H	0.665016	-0.576671	0.534435
H98	H	1.165016	-0.076671	1.034435
H99	H	0.736869	-0.584724	0.481731
H100	H	1.236869	-0.084724	0.981731
H101	H	0.740377	-0.516775	0.539181
H102	H	1.240377	-0.016775	1.039181
H103	H	0.670413	-0.392264	0.363906
H104	H	1.170413	0.107736	0.863906
H105	H	1.112135	-0.972580	0.486051
H106	H	1.612135	-0.472580	0.986051
H107	H	1.282907	-0.369908	0.859165
H108	H	1.782907	0.130092	1.359165
C109	C	1.064080	-0.567494	0.847151
C110	C	1.564080	-0.067494	1.347151
H111	H	1.030797	-0.597556	0.880887
H112	H	1.530797	-0.097556	1.380887
H113	H	1.029471	-0.533854	0.814116
H114	H	1.529471	-0.033854	1.314116
H115	H	1.094039	-0.605350	0.820201
H116	H	1.594039	-0.105350	1.320201
C117	C	1.298903	-0.355448	1.009650
C118	C	1.798903	0.144552	1.509650
H119	H	1.332197	-0.325403	0.975911
H120	H	1.832197	0.174597	1.475911
H121	H	1.268958	-0.317590	1.036603
H122	H	1.768958	0.182410	1.536603
H123	H	1.333513	-0.389098	1.042682
H124	H	1.833513	0.110902	1.542682
