data_functionalizedCrystal
_audit_creation_method	'MofGen! by Chris Wilmer'
_symmetry_space_group_name_H-M	'P1'
_symmetry_Int_Tables_number	1
_symmetry_cell_setting	triclinic
loop_
_symmetry_equiv_pos_as_xyz
  x,y,z
_cell_length_a	11.792241
_cell_length_b	11.792241
_cell_length_c	16.776229
_cell_angle_alpha	89.993219
_cell_angle_beta	89.997077
_cell_angle_gamma	84.193416
loop_
_atom_site_label
_atom_site_type_symbol
_atom_site_fract_x
_atom_site_fract_y
_atom_site_fract_z
O1	O	1.506913	0.155571	-0.066211
O2	O	1.840246	0.488904	0.267122
O3	O	2.173579	0.822237	0.600456
O4	O	1.176572	0.171603	-0.066230
O5	O	1.509905	0.504937	0.267104
O6	O	1.843238	0.838270	0.600437
O7	O	1.349759	-0.001584	-0.066214
O8	O	1.683092	0.331750	0.267119
O9	O	2.016425	0.665083	0.600452
O10	O	1.333726	0.328757	-0.066226
O11	O	1.667059	0.662091	0.267107
O12	O	2.000392	0.995424	0.600440
O13	O	1.349736	-0.001594	0.066362
O14	O	1.683069	0.331739	0.399695
O15	O	2.016402	0.665072	0.733029
O16	O	1.176549	0.171593	0.066347
O17	O	1.509882	0.504926	0.399680
O18	O	1.843215	0.838259	0.733013
O19	O	1.506890	0.155560	0.066365
O20	O	1.840223	0.488893	0.399699
O21	O	2.173556	0.822226	0.733032
Zn22	Zn	1.341715	0.163574	0.087405
Zn23	Zn	1.675049	0.496908	0.420739
Zn24	Zn	2.008382	0.830241	0.754072
Zn25	Zn	1.341746	0.163589	-0.087270
Zn26	Zn	1.675079	0.496922	0.246064
Zn27	Zn	2.008413	0.830255	0.579397
O28	O	1.333703	0.328747	0.066350
O29	O	1.667036	0.662080	0.399683
O30	O	2.000369	0.995413	0.733017
C31	C	1.134269	0.170591	0.000056
C32	C	1.467603	0.503924	0.333390
C33	C	1.800936	0.837258	0.666723
C34	C	1.008255	0.167576	0.000049
C35	C	1.341589	0.500910	0.333383
C36	C	1.674922	0.834243	0.666716
C37	C	0.777543	0.162034	0.000072
C38	C	1.110877	0.495367	0.333406
C39	C	1.444210	0.828700	0.666739
C40	C	0.905928	0.165113	0.000060
C41	C	1.239262	0.498447	0.333393
C42	C	1.572595	0.831780	0.666726
C43	C	1.348740	-0.043880	0.000074
C44	C	1.682073	0.289453	0.333407
C45	C	2.015407	0.622787	0.666740
C46	C	1.345726	-0.169894	0.000073
C47	C	1.679059	0.163440	0.333406
C48	C	2.012392	0.496773	0.666739
C49	C	1.340183	-0.400606	0.000059
C50	C	1.673516	-0.067272	0.333392
C51	C	2.006849	0.266061	0.666726
C52	C	1.343262	-0.272221	0.000066
C53	C	1.676596	0.061113	0.333400
C54	C	2.009929	0.394446	0.666733
C55	C	1.549192	0.156572	0.000078
C56	C	1.882525	0.489905	0.333411
C57	C	2.215859	0.823239	0.666744
C58	C	1.675206	0.159587	0.000079
C59	C	2.008539	0.492920	0.333413
C60	C	2.341873	0.826253	0.666746
C61	C	1.334721	0.371043	0.000060
C62	C	1.668055	0.704376	0.333394
C63	C	2.001388	1.037710	0.666727
C64	C	1.337736	0.497057	0.000056
C65	C	1.671069	0.830390	0.333389
C66	C	2.004402	1.163723	0.666723
N67	N	1.341703	0.163564	0.206617
N68	N	1.675036	0.496897	0.539950
N69	N	2.008369	0.830231	0.873283
N70	N	1.341767	0.163590	-0.206481
N71	N	1.675101	0.496924	0.126852
N72	N	2.008434	0.830257	0.460186
C73	C	1.418414	0.086909	0.248341
C74	C	1.751747	0.420242	0.581674
C75	C	2.085080	0.753575	0.915007
C76	C	1.418420	0.086908	0.331793
C77	C	1.751753	0.420241	0.665126
C78	C	2.085087	0.753574	0.998459
C79	C	1.341720	0.163568	0.373520
C80	C	1.675053	0.496902	0.706853
C81	C	2.008387	0.830235	1.040186
C82	C	1.265001	0.240227	0.331790
C83	C	1.598334	0.573561	0.665123
C84	C	1.931668	0.906894	0.998457
C85	C	1.264990	0.240222	0.248339
C86	C	1.598323	0.573555	0.581673
C87	C	1.931657	0.906889	0.915006
C88	C	1.265042	0.240250	0.668337
C89	C	1.598375	0.573583	1.001670
C90	C	1.931709	0.906917	1.335004
C91	C	1.265061	0.240252	0.751794
C92	C	1.598394	0.573585	1.085127
C93	C	1.931728	0.906919	1.418460
C94	C	1.418472	0.086936	0.751791
C95	C	1.751805	0.420269	1.085124
C96	C	2.085139	0.753602	1.418457
C97	C	1.418461	0.086930	0.668340
C98	C	1.751795	0.420264	1.001673
C99	C	2.085128	0.753597	1.335007
C100	C	1.341739	0.163585	0.626618
C101	C	1.675072	0.496918	0.959951
C102	C	2.008405	0.830251	1.293284
C103	C	1.341731	0.163583	0.536129
C104	C	1.675065	0.496917	0.869463
C105	C	2.008398	0.830250	1.202796
C106	C	1.341732	0.163576	0.464006
C107	C	1.675065	0.496910	0.797340
C108	C	2.008399	0.830243	1.130673
H109	H	1.480876	0.024487	0.214372
H110	H	1.814210	0.357821	0.547705
H111	H	2.147543	0.691154	0.881039
N112	N	1.182322	0.322928	0.796804
N113	N	1.515656	0.656262	1.130137
N114	N	1.848989	0.989595	1.463471
H115	H	1.195865	0.403578	0.782272
H116	H	1.529199	0.736911	1.115605
H117	H	1.862532	1.070245	1.448938
H118	H	1.101728	0.309199	0.782276
H119	H	1.435061	0.642532	1.115610
H120	H	1.768395	0.975866	1.448943
N121	N	1.182275	0.322921	0.376787
N122	N	1.515608	0.656254	0.710120
N123	N	1.848942	0.989587	1.043454
H124	H	1.101641	0.309303	0.362276
H125	H	1.434975	0.642637	0.695609
H126	H	1.768308	0.975970	1.028942
H127	H	1.194019	0.311260	0.435970
H128	H	1.527353	0.644593	0.769304
H129	H	1.860686	0.977926	1.102637
N130	N	1.182290	0.322917	0.623342
N131	N	1.515623	0.656251	0.956676
N132	N	1.848956	0.989584	1.290009
H133	H	1.133706	0.371481	0.662441
H134	H	1.467039	0.704814	0.995775
H135	H	1.800373	1.038147	1.329108
H136	H	1.226030	0.373391	0.588703
H137	H	1.559363	0.706724	0.922036
H138	H	1.892696	1.040058	1.255369
N139	N	1.182245	0.322899	0.203338
N140	N	1.515578	0.656232	0.536672
N141	N	1.848911	0.989566	0.870005
H142	H	1.195805	0.403547	0.217847
H143	H	1.529138	0.736881	0.551181
H144	H	1.862471	1.070214	0.884514
H145	H	1.193911	0.311164	0.144156
H146	H	1.527244	0.644497	0.477489
H147	H	1.860577	0.977830	0.810822
H148	H	1.480941	0.024516	0.785770
H149	H	1.814274	0.357849	1.119103
H150	H	2.147607	0.691182	1.452437
N151	N	1.501185	0.004241	0.376783
N152	N	1.834519	0.337574	0.710116
N153	N	2.167852	0.670908	1.043449
H154	H	1.457541	-0.046327	0.411418
H155	H	1.790874	0.287006	0.744752
H156	H	2.124207	0.620339	1.078085
H157	H	1.549751	-0.044226	0.337624
H158	H	1.883084	0.289108	0.670957
H159	H	2.216417	0.622441	1.004290
N160	N	1.501192	0.004252	0.623334
N161	N	1.834525	0.337585	0.956668
N162	N	2.167858	0.670919	1.290001
H163	H	1.549789	-0.044312	0.662430
H164	H	1.883122	0.289021	0.995763
H165	H	2.216455	0.622354	1.329097
H166	H	1.457428	-0.046220	0.588721
H167	H	1.790762	0.287113	0.922054
H168	H	2.124095	0.620447	1.255388
