data_functionalizedCrystal
_audit_creation_method	'MofGen! by Chris Wilmer'
_symmetry_space_group_name_H-M	'P1'
_symmetry_Int_Tables_number	1
_symmetry_cell_setting	triclinic
loop_
_symmetry_equiv_pos_as_xyz
  x,y,z
_cell_length_a	10.489741
_cell_length_b	22.610064
_cell_length_c	10.489741
_cell_angle_alpha	89.995598
_cell_angle_beta	84.539174
_cell_angle_gamma	90.005618
loop_
_atom_site_label
_atom_site_type_symbol
_atom_site_fract_x
_atom_site_fract_y
_atom_site_fract_z
O1	O	1.694062	0.049148	0.179951
O2	O	2.194062	0.549148	0.679951
O3	O	1.322867	0.049157	0.196844
O4	O	1.822867	0.549157	0.696844
O5	O	1.516911	0.049148	0.002799
O6	O	2.016911	0.549148	0.502799
O7	O	1.500018	0.049156	0.373995
O8	O	2.000018	0.549156	0.873995
O9	O	1.516877	-0.049221	0.002828
O10	O	2.016877	0.450779	0.502828
O11	O	1.322832	-0.049212	0.196872
O12	O	1.822832	0.450788	0.696872
O13	O	1.694028	-0.049222	0.179979
O14	O	2.194028	0.450778	0.679979
Zn15	Zn	1.508425	-0.064835	0.188430
Zn16	Zn	2.008425	0.435165	0.688430
Zn17	Zn	1.508470	0.064770	0.188393
Zn18	Zn	2.008470	0.564770	0.688393
O19	O	1.499984	-0.049213	0.374023
O20	O	1.999984	0.450787	0.874023
C21	C	1.275318	-0.000027	0.195582
C22	C	1.775318	0.499973	0.695582
C23	C	1.133688	-0.000023	0.191765
C24	C	1.633688	0.499977	0.691765
N25	N	1.508403	-0.153288	0.188455
N26	N	2.008403	0.346712	0.688455
C27	C	1.065548	-0.000031	0.068300
C28	C	1.565548	0.499969	0.568300
C29	C	0.973438	0.048470	0.126609
C30	C	1.473438	0.548470	0.626609
C31	C	0.973439	-0.048514	0.126667
C32	C	1.473439	0.451486	0.626667
C33	C	1.043444	0.048518	0.250125
C34	C	1.543444	0.548518	0.750125
C35	C	1.043454	-0.048510	0.250165
C36	C	1.543454	0.451490	0.750165
C37	C	0.951371	0.000003	0.308564
C38	C	1.451371	0.500003	0.808564
C39	C	1.594397	-0.561933	0.102483
C40	C	2.094397	-0.061933	0.602483
C41	C	1.594403	-0.623853	0.102474
C42	C	2.094403	-0.123853	0.602474
O43	O	1.667464	-0.655875	0.029396
O44	O	2.167464	-0.155875	0.529396
N45	N	1.508469	-0.654825	0.188366
N46	N	2.008469	-0.154825	0.688366
C47	C	1.422513	-0.623874	0.274264
C48	C	1.922513	-0.123874	0.774264
O49	O	1.349419	-0.655904	0.347321
O50	O	1.849419	-0.155904	0.847321
C51	C	1.422502	-0.561955	0.274266
C52	C	1.922502	-0.061955	0.774266
C53	C	1.508451	-0.530986	0.188377
C54	C	2.008451	-0.030986	0.688377
C55	C	1.680338	-0.530964	0.016600
C56	C	2.180338	-0.030964	0.516600
C57	C	1.680333	-0.469048	0.016611
C58	C	2.180333	0.030952	0.516611
C59	C	1.594387	-0.438101	0.102505
C60	C	2.094387	0.061899	0.602505
C61	C	1.508446	-0.469070	0.188388
C62	C	2.008446	0.030930	0.688388
C63	C	1.336541	-0.531005	0.360157
C64	C	1.836541	-0.031005	0.860157
C65	C	1.336537	-0.469082	0.360151
C66	C	1.836537	0.030918	0.860151
C67	C	1.422485	-0.438113	0.274262
C68	C	1.922485	0.061887	0.774262
C69	C	1.422494	-0.376208	0.274294
C70	C	1.922494	0.123792	0.774294
N71	N	1.508429	-0.345236	0.188402
N72	N	2.008429	0.154764	0.688402
C73	C	1.594375	-0.376183	0.102507
C74	C	2.094375	0.123817	0.602507
C75	C	1.422543	-0.753907	0.274252
C76	C	1.922543	-0.253907	0.774252
C77	C	1.422559	-0.815825	0.274257
C78	C	1.922559	-0.315825	0.774257
C79	C	1.594448	-0.815800	0.102465
C80	C	2.094448	-0.315800	0.602465
C81	C	1.594436	-0.753881	0.102467
C82	C	2.094436	-0.253881	0.602467
C83	C	1.508477	-0.722935	0.188360
C84	C	2.008477	-0.222935	0.688360
C85	C	1.594358	-0.246155	0.102538
C86	C	2.094358	0.253845	0.602538
C87	C	1.594349	-0.184234	0.102560
C88	C	2.094349	0.315766	0.602560
C89	C	1.422457	-0.184265	0.274348
C90	C	1.922457	0.315735	0.774348
C91	C	1.422470	-0.246181	0.274330
C92	C	1.922470	0.253819	0.774330
C93	C	1.508425	-0.277124	0.188415
C94	C	2.008425	0.222876	0.688415
O95	O	1.349467	-0.344147	0.347331
O96	O	1.849467	0.155853	0.847331
O97	O	1.667446	-0.344145	0.029452
O98	O	2.167446	0.155855	0.529452
C99	C	1.741577	-0.000037	0.181241
C100	C	2.241577	0.499963	0.681241
C101	C	1.883206	-0.000036	0.185058
C102	C	2.383206	0.499964	0.685058
C103	C	1.515618	-0.000036	-0.044718
C104	C	2.015618	0.499964	0.455282
C105	C	1.511801	-0.000035	-0.186348
C106	C	2.011801	0.499965	0.313652
N107	N	1.508502	0.153223	0.188358
N108	N	2.008502	0.653223	0.688358
C109	C	1.388336	-0.000027	-0.254488
C110	C	1.888336	0.499973	0.245512
C111	C	1.446643	-0.048530	-0.346596
C112	C	1.946643	0.451470	0.153404
C113	C	1.446706	0.048455	-0.346599
C114	C	1.946706	0.548455	0.153401
C115	C	1.570158	-0.048577	-0.276591
C116	C	2.070158	0.451423	0.223409
C117	C	1.570204	0.048451	-0.276584
C118	C	2.070204	0.548451	0.223416
C119	C	1.628600	-0.000064	-0.368665
C120	C	2.128600	0.499936	0.131335
C121	C	1.501277	-0.000028	0.421541
C122	C	2.001277	0.499972	0.921541
C123	C	1.505094	-0.000025	0.563170
C124	C	2.005094	0.499975	1.063170
H125	H	1.115238	0.000027	-0.033196
H126	H	1.615238	0.500027	0.466804
H127	H	1.750316	-0.443837	-0.053330
H128	H	2.250316	0.056163	0.446670
Br129	Br	0.921774	0.116813	0.039527
Br130	Br	1.421774	0.616813	0.539527
Br131	Br	1.305881	-0.711916	0.390840
Br132	Br	1.805881	-0.211916	0.890840
Br133	Br	1.219865	-0.427089	0.476723
Br134	Br	1.719865	0.072911	0.976723
H135	H	1.074286	0.089568	0.302313
H136	H	1.574286	0.589568	0.802313
Br137	Br	1.657138	-0.116998	-0.225194
Br138	Br	2.157138	0.383002	0.274806
H139	H	1.750325	-0.556155	-0.053351
H140	H	2.250325	-0.056155	0.446649
Br141	Br	0.868988	0.000047	0.477907
Br142	Br	1.368988	0.500047	0.977907
H143	H	1.622415	0.089456	-0.245551
H144	H	2.122415	0.589456	0.254449
Br145	Br	1.797943	-0.000109	-0.451046
Br146	Br	2.297943	0.499891	0.048954
Br147	Br	1.095180	-0.116854	0.337188
Br148	Br	1.595180	0.383146	0.837188
H149	H	1.664344	-0.159021	0.032619
H150	H	2.164344	0.340979	0.532619
Br151	Br	0.921781	-0.116858	0.039583
Br152	Br	1.421781	0.383142	0.539583
H153	H	1.394464	0.089464	-0.377575
H154	H	1.894464	0.589464	0.122425
H155	H	1.664350	-0.271343	0.032576
H156	H	2.164350	0.228657	0.532576
Br157	Br	1.219891	-0.573022	0.476726
Br158	Br	1.719891	-0.073022	0.976726
Br159	Br	1.359554	-0.116872	-0.398264
Br160	Br	1.859554	0.383128	0.101736
Br161	Br	1.219144	-0.000099	-0.171734
Br162	Br	1.719144	0.499901	0.328266
H163	H	1.664423	-0.728670	0.032528
H164	H	2.164423	-0.228670	0.532528
H165	H	1.664428	-0.841008	0.032523
H166	H	2.164428	-0.341008	0.532523
Br167	Br	1.305932	-0.857847	0.390846
Br168	Br	1.805932	-0.357847	0.890846
H169	H	1.352495	-0.271396	0.344281
H170	H	1.852495	0.228604	0.844281
H171	H	1.352484	-0.159059	0.344286
H172	H	1.852484	0.340941	0.844286
