data_functionalizedCrystal
_audit_creation_method	'MofGen! by Chris Wilmer'
_symmetry_space_group_name_H-M	'P1'
_symmetry_Int_Tables_number	1
_symmetry_cell_setting	triclinic
loop_
_symmetry_equiv_pos_as_xyz
  x,y,z
_cell_length_a	16.109295
_cell_length_b	10.065875
_cell_length_c	16.109301
_cell_angle_alpha	81.214708
_cell_angle_beta	96.539666
_cell_angle_gamma	81.258551
loop_
_atom_site_label
_atom_site_type_symbol
_atom_site_fract_x
_atom_site_fract_y
_atom_site_fract_z
O1	O	-1.115293	0.113403	0.094630
O2	O	-0.781960	0.446737	0.427964
O3	O	-0.448626	0.780070	0.761297
O4	O	-0.873233	0.113427	0.107932
O5	O	-0.539900	0.446760	0.441265
O6	O	-0.206566	0.780094	0.774598
O7	O	-1.000911	0.113400	-0.019749
O8	O	-0.667578	0.446734	0.313585
O9	O	-0.334244	0.780067	0.646918
O10	O	-0.987615	0.113430	0.222311
O11	O	-0.654282	0.446763	0.555644
O12	O	-0.320948	0.780096	0.888977
O13	O	-0.976565	-0.113583	0.004696
O14	O	-0.643231	0.219750	0.338029
O15	O	-0.309898	0.553083	0.671363
O16	O	-0.848886	-0.113557	0.132376
O17	O	-0.515553	0.219777	0.465710
O18	O	-0.182220	0.553110	0.799043
O19	O	-1.090947	-0.113581	0.119075
O20	O	-0.757613	0.219753	0.452408
O21	O	-0.424280	0.553086	0.785741
Zn22	Zn	-0.966051	-0.149607	0.129607
Zn23	Zn	-0.632718	0.183726	0.462940
Zn24	Zn	-0.299384	0.517059	0.796273
Zn25	Zn	-0.998129	0.149454	0.097400
Zn26	Zn	-0.664795	0.482787	0.430733
Zn27	Zn	-0.331462	0.816120	0.764067
O28	O	-0.963268	-0.113554	0.246755
O29	O	-0.629935	0.219779	0.580088
O30	O	-0.296602	0.553113	0.913422
C31	C	-0.830085	-0.000062	0.119616
C32	C	-0.496752	0.333271	0.452949
C33	C	-0.163418	0.666605	0.786282
C34	C	-0.737790	-0.000054	0.118002
C35	C	-0.404457	0.333280	0.451335
C36	C	-0.071124	0.666613	0.784668
N37	N	-0.944165	-0.353708	0.151586
N38	N	-0.610832	-0.020375	0.484920
N39	N	-0.277498	0.312958	0.818253
C40	C	-0.515517	-0.000059	0.190014
C41	C	-0.182183	0.333274	0.523348
C42	C	0.151150	0.666607	0.856681
C43	C	-0.428795	-0.000068	0.188493
C44	C	-0.095462	0.333266	0.521826
C45	C	0.237871	0.666599	0.855160
C46	C	-0.448668	-0.000080	0.037005
C47	C	-0.115335	0.333253	0.370338
C48	C	0.217998	0.666586	0.703672
C49	C	-0.535387	-0.000082	0.038528
C50	C	-0.202054	0.333252	0.371862
C51	C	0.131280	0.666585	0.705195
C52	C	-0.568810	-0.000064	0.115035
C53	C	-0.235476	0.333269	0.448368
C54	C	0.097857	0.666602	0.781701
C55	C	-0.395369	-0.000071	0.111990
C56	C	-0.062036	0.333262	0.445323
C57	C	0.271297	0.666595	0.778657
C58	C	-0.301342	-0.000080	0.110340
C59	C	0.031991	0.333253	0.443673
C60	C	0.365325	0.666586	0.777007
C61	C	-0.662842	-0.000058	0.116686
C62	C	-0.329509	0.333276	0.450019
C63	C	0.003824	0.666609	0.783352
C64	C	-0.990508	-0.421497	0.105042
C65	C	-0.657175	-0.088163	0.438375
C66	C	-0.323842	0.245170	0.771709
C67	C	-0.973671	-0.578660	0.121965
C68	C	-0.640337	-0.245327	0.455298
C69	C	-0.307004	0.088006	0.788631
C70	C	-0.134094	-0.000087	0.107395
C71	C	0.199239	0.333246	0.440729
C72	C	0.532572	0.666580	0.774062
C73	C	-0.226388	-0.000082	0.109023
C74	C	0.106945	0.333251	0.442357
C75	C	0.440278	0.666585	0.775690
C76	C	-0.988199	-0.000092	-0.038501
C77	C	-0.654866	0.333241	0.294832
C78	C	-0.321532	0.666575	0.628166
C79	C	-0.986584	-0.000094	-0.130796
C80	C	-0.653250	0.333240	0.202537
C81	C	-0.319917	0.666573	0.535871
N82	N	-1.020021	0.353555	0.075414
N83	N	-0.686688	0.686888	0.408747
N84	N	-0.353354	1.020221	0.742080
C85	C	-1.058593	-0.000079	-0.353072
C86	C	-0.725260	0.333254	-0.019738
C87	C	-0.391927	0.666587	0.313595
C88	C	-1.057070	-0.000068	-0.439793
C89	C	-0.723737	0.333265	-0.106460
C90	C	-0.390404	0.666599	0.226874
C91	C	-0.905582	-0.000058	-0.419917
C92	C	-0.572249	0.333275	-0.086583
C93	C	-0.238916	0.666608	0.246750
C94	C	-0.907107	-0.000060	-0.333198
C95	C	-0.573774	0.333273	0.000135
C96	C	-0.240440	0.666607	0.333469
C97	C	-0.983614	-0.000077	-0.299777
C98	C	-0.650281	0.333256	0.033556
C99	C	-0.316948	0.666589	0.366890
C100	C	-0.980567	-0.000064	-0.473218
C101	C	-0.647233	0.333269	-0.139884
C102	C	-0.313900	0.666602	0.193449
C103	C	-0.978915	-0.000052	-0.567245
C104	C	-0.645582	0.333281	-0.233912
C105	C	-0.312248	0.666615	0.099422
C106	C	-0.985267	-0.000087	-0.205744
C107	C	-0.651933	0.333246	0.127589
C108	C	-0.318600	0.666580	0.460923
C109	C	-0.975981	-0.000059	0.265507
C110	C	-0.642647	0.333275	0.598841
C111	C	-0.309314	0.666608	0.932174
C112	C	-0.977597	-0.000048	0.357801
C113	C	-0.644264	0.333285	0.691135
C114	C	-0.310930	0.666619	1.024468
H115	H	-0.385407	-0.000067	0.249549
H116	H	-0.052074	0.333267	0.582883
H117	H	0.281260	0.666600	0.916216
N118	N	-0.904593	-0.655891	0.191343
N119	N	-0.571260	-0.322558	0.524677
N120	N	-0.237927	0.010776	0.858010
H121	H	-0.930145	-0.715168	0.234413
H122	H	-0.596812	-0.381835	0.567746
H123	H	-0.263478	-0.048501	0.901080
H124	H	-0.876002	-0.588975	0.220013
H125	H	-0.542668	-0.255642	0.553347
H126	H	-0.209335	0.077692	0.886680
N127	N	-0.551562	-0.000066	0.272532
N128	N	-0.218228	0.333268	0.605865
N129	N	0.115105	0.666601	0.939199
H130	H	-0.614585	-0.000065	0.262122
H131	H	-0.281252	0.333268	0.595455
H132	H	0.052082	0.666602	0.928789
H133	H	-0.541086	0.084079	0.296284
H134	H	-0.207753	0.417413	0.629617
H135	H	0.125581	0.750746	0.962951
N136	N	-0.412610	-0.000083	-0.045505
N137	N	-0.079277	0.333251	0.287828
N138	N	0.254056	0.666584	0.621162
H139	H	-0.441069	0.084057	-0.087414
H140	H	-0.107736	0.417390	0.245920
H141	H	0.225598	0.750724	0.579253
H142	H	-0.423022	-0.084285	-0.069223
H143	H	-0.089689	0.249049	0.264110
H144	H	0.243644	0.582382	0.597444
N145	N	-0.823066	-0.000067	-0.455964
N146	N	-0.489733	0.333266	-0.122631
N147	N	-0.156399	0.666599	0.210702
H148	H	-0.775798	-0.000065	-0.409041
H149	H	-0.442465	0.333268	-0.075708
H150	H	-0.109132	0.666601	0.257626
H151	H	-0.828154	0.084075	-0.500571
H152	H	-0.494821	0.417409	-0.167238
H153	H	-0.161487	0.750742	0.166095
N154	N	-1.137940	-0.000089	-0.497271
N155	N	-0.804607	0.333244	-0.163938
N156	N	-0.471273	0.666577	0.169396
H157	H	-1.125369	-0.000082	-0.557280
H158	H	-0.792036	0.333251	-0.223946
H159	H	-0.458702	0.666584	0.109387
H160	H	-1.180309	0.084049	-0.495508
H161	H	-0.846976	0.417383	-0.162175
H162	H	-0.513643	0.750716	0.171159
H163	H	-0.578780	-0.000090	-0.022532
H164	H	-0.245447	0.333244	0.310801
H165	H	0.087886	0.666577	0.644134
N166	N	-1.059558	-0.344268	0.035640
N167	N	-0.726224	-0.010934	0.368974
N168	N	-0.392891	0.322399	0.702307
H169	H	-1.061790	-0.242942	0.033380
H170	H	-0.728456	0.090391	0.366713
H171	H	-0.395123	0.423725	0.700047
H172	H	-1.115935	-0.369138	0.047739
H173	H	-0.782602	-0.035805	0.381072
H174	H	-0.449269	0.297528	0.714405
N175	N	-1.089090	-0.569224	0.006024
N176	N	-0.755757	-0.235891	0.339357
N177	N	-0.422424	0.097442	0.672690
H178	H	-1.091329	-0.467898	0.003767
H179	H	-0.757995	-0.134565	0.337100
H180	H	-0.424662	0.198769	0.670434
H181	H	-1.145458	-0.594113	0.018142
H182	H	-0.812125	-0.260779	0.351475
H183	H	-0.478792	0.072554	0.684809
H184	H	-0.892020	-0.412024	0.203960
H185	H	-0.558687	-0.078690	0.537294
H186	H	-0.225353	0.254643	0.870627
N187	N	-1.141107	-0.000096	-0.317023
N188	N	-0.807774	0.333237	0.016311
N189	N	-0.474441	0.666571	0.349644
H190	H	-1.188375	-0.000093	-0.363947
H191	H	-0.855041	0.333240	-0.030614
H192	H	-0.521708	0.666573	0.302720
H193	H	-1.154064	0.084048	-0.290531
H194	H	-0.820730	0.417381	0.042802
H195	H	-0.487397	0.750714	0.376135
H196	H	-0.846047	-0.000054	-0.289803
H197	H	-0.512713	0.333279	0.043530
H198	H	-0.179380	0.666612	0.376863
