data_functionalizedCrystal
_audit_creation_method	'MofGen! by Chris Wilmer'
_symmetry_space_group_name_H-M	'P1'
_symmetry_Int_Tables_number	1
_symmetry_cell_setting	triclinic
loop_
_symmetry_equiv_pos_as_xyz
  x,y,z
_cell_length_a	8.634740
_cell_length_b	7.681481
_cell_length_c	17.699092
_cell_angle_alpha	95.728940
_cell_angle_beta	91.928337
_cell_angle_gamma	83.381053
loop_
_atom_site_label
_atom_site_type_symbol
_atom_site_fract_x
_atom_site_fract_y
_atom_site_fract_z
O1	O	2.030551	0.146411	0.252798
O2	O	2.530551	0.646411	0.752798
O3	O	1.581674	0.146416	0.232111
O4	O	2.081674	0.646416	0.732111
O5	O	1.818788	0.146409	0.133201
O6	O	2.318788	0.646409	0.633201
O7	O	1.793437	0.146418	0.351708
O8	O	2.293437	0.646418	0.851708
O9	O	1.847973	-0.146449	0.120995
O10	O	2.347973	0.353551	0.620995
O11	O	1.610859	-0.146443	0.219905
O12	O	2.110859	0.353557	0.719905
O13	O	2.059735	-0.146448	0.240591
O14	O	2.559735	0.353552	0.740591
Zn15	Zn	1.839931	-0.192943	0.228310
Zn16	Zn	2.339931	0.307057	0.728310
Zn17	Zn	1.801479	0.192911	0.244393
Zn18	Zn	2.301479	0.692911	0.744393
O19	O	1.822622	-0.146441	0.339501
O20	O	2.322622	0.353559	0.839501
C21	C	1.538834	-0.000012	0.221322
C22	C	2.038834	0.499988	0.721322
C23	C	1.367702	-0.000010	0.207349
C24	C	1.867702	0.499990	0.707349
N25	N	1.866185	-0.456278	0.217334
N26	N	2.366185	0.043722	0.717334
C27	C	2.102576	-0.000015	0.251381
C28	C	2.602576	0.499985	0.751381
C29	C	2.273706	-0.000006	0.265354
C30	C	2.773706	0.499994	0.765354
C31	C	1.832470	-0.000017	0.098834
C32	C	2.332470	0.499983	0.598834
C33	C	1.829737	-0.000009	0.014615
C34	C	2.329737	0.499991	0.514615
N35	N	1.775237	0.456246	0.255363
N36	N	2.275237	0.956246	0.755363
C37	C	1.812549	0.159630	-0.018293
C38	C	2.312549	0.659630	0.481707
C39	C	1.809972	0.159632	-0.097426
C40	C	2.309972	0.659632	0.402574
C41	C	1.824595	-0.000007	-0.143650
C42	C	2.324595	0.499993	0.356350
C43	C	1.841781	-0.159658	-0.110737
C44	C	2.341781	0.340342	0.389263
C45	C	1.844346	-0.159659	-0.031605
C46	C	2.344346	0.340341	0.468395
C47	C	1.831433	-0.159661	-0.429866
C48	C	2.331433	0.340339	0.070134
C49	C	1.828871	-0.159648	-0.509002
C50	C	2.328871	0.340352	-0.009002
C51	C	1.797059	0.159630	-0.495687
C52	C	2.297059	0.659630	0.004313
C53	C	1.799624	0.159630	-0.416555
C54	C	2.299624	0.659630	0.083445
C55	C	1.816801	-0.000021	-0.383649
C56	C	2.316801	0.499979	0.116351
C57	C	1.819592	-0.000021	-0.297844
C58	C	2.319592	0.499979	0.202156
C59	C	1.821816	-0.000008	-0.229453
C60	C	2.321816	0.499992	0.270547
C61	C	1.808940	-0.000011	0.373869
C62	C	2.308940	0.499989	0.873869
C63	C	1.811671	-0.000007	0.458088
C64	C	2.311671	0.499993	0.958088
H65	H	1.324162	-0.000015	0.325707
H66	H	1.824162	0.499985	0.825707
O67	O	1.861241	-0.314625	0.000450
O68	O	2.361241	0.185375	0.500450
C69	C	1.997156	-0.324222	0.046974
C70	C	2.497156	0.175778	0.546974
H71	H	2.028232	-0.185622	0.065000
H72	H	2.528232	0.314378	0.565000
H73	H	2.097471	-0.403007	0.014006
H74	H	2.597471	0.096993	0.514006
C75	C	1.929965	-0.585735	0.095838
C76	C	2.429965	-0.085735	0.595838
C77	C	1.968126	-0.415503	0.117983
C78	C	2.468126	0.084497	0.617983
H79	H	1.912062	-0.642048	0.139638
H80	H	2.412062	-0.142048	0.639638
H81	H	1.838399	-0.579275	0.064492
H82	H	2.338399	-0.079275	0.564492
H83	H	2.013568	-0.651367	0.068364
H84	H	2.513568	-0.151367	0.568364
H85	H	1.884516	-0.349868	0.145449
H86	H	2.384516	0.150132	0.645449
H87	H	2.059677	-0.421954	0.149336
H88	H	2.559677	0.078046	0.649336
O89	O	1.307267	0.000069	0.135400
O90	O	1.807267	0.500069	0.635400
C91	C	1.144128	0.000026	0.136996
C92	C	1.644128	0.500026	0.636996
H93	H	1.100778	0.055469	0.195629
H94	H	1.600778	0.555469	0.695629
H95	H	1.113367	-0.140473	0.124236
H96	H	1.613367	0.359527	0.624236
C97	C	1.119277	0.046780	0.004758
C98	C	1.619277	0.546780	0.504758
C99	C	1.066032	0.114891	0.076770
C100	C	1.566032	0.614891	0.576770
H101	H	1.071102	0.117627	-0.032394
H102	H	1.571102	0.617627	0.467606
H103	H	1.229187	0.046803	0.003682
H104	H	1.729187	0.546803	0.503682
H105	H	1.093639	-0.070301	-0.005864
H106	H	1.593639	0.429699	0.494136
H107	H	1.091687	0.231960	0.087396
H108	H	1.591687	0.731960	0.587396
H109	H	0.956124	0.114891	0.077847
H110	H	1.456124	0.614891	0.577847
H111	H	1.787724	0.289624	-0.378923
H112	H	2.287724	0.789624	0.121077
H113	H	1.783065	0.289625	-0.522488
H114	H	2.283065	0.789625	-0.022488
H115	H	1.682398	-0.468554	0.294178
H116	H	2.182398	0.031446	0.794178
H117	H	1.853678	-0.289639	-0.148378
H118	H	2.353678	0.210361	0.351622
H119	H	1.959042	-0.531486	0.178523
H120	H	2.459042	-0.031486	0.678523
O121	O	1.798257	0.314864	0.026494
O122	O	2.298257	0.814864	0.526494
C123	C	1.782569	0.455764	-0.019524
C124	C	2.282569	0.955764	0.480476
H125	H	1.736618	0.408960	-0.078307
H126	H	2.236618	0.908960	0.421693
H127	H	1.901033	0.504850	-0.024818
H128	H	2.401033	1.004850	0.475182
C129	C	1.723918	0.664079	0.088964
C130	C	2.223918	1.164079	0.588964
C131	C	1.667467	0.606596	0.016767
C132	C	2.167467	1.106596	0.516767
H133	H	1.652924	0.757124	0.111351
H134	H	2.152924	1.257124	0.611351
H135	H	1.734492	0.569153	0.119968
H136	H	2.234492	1.069153	0.619968
H137	H	1.822637	0.704972	0.084542
H138	H	2.322637	1.204972	0.584542
H139	H	1.568760	0.565684	0.021191
H140	H	2.068760	1.065684	0.521191
H141	H	1.656873	0.701519	-0.014236
H142	H	2.156873	1.201519	0.485764
H143	H	1.840776	-0.289653	-0.546637
H144	H	2.340776	0.210347	-0.046637
H145	H	1.795982	0.289626	-0.124216
H146	H	2.295982	0.789626	0.375784
H147	H	1.845450	-0.289658	-0.403083
H148	H	2.345450	0.210342	0.096917
