data_functionalizedCrystal
_audit_creation_method	'MofGen! by Chris Wilmer'
_symmetry_space_group_name_H-M	'P1'
_symmetry_Int_Tables_number	1
_symmetry_cell_setting	triclinic
loop_
_symmetry_equiv_pos_as_xyz
  x,y,z
_cell_length_a	29.999520
_cell_length_b	29.998686
_cell_length_c	29.995014
_cell_angle_alpha	60.005185
_cell_angle_beta	60.010401
_cell_angle_gamma	59.993433
loop_
_atom_site_label
_atom_site_type_symbol
_atom_site_fract_x
_atom_site_fract_y
_atom_site_fract_z
O1	O	0.061772	-0.651300	0.544623
O2	O	0.023267	-0.507084	0.438819
O3	O	0.114589	-0.598332	0.438743
O4	O	-0.029550	-0.560051	0.544699
O5	O	0.144886	-0.568039	0.468961
O6	O	0.053564	-0.476791	0.469038
O7	O	0.092069	-0.621007	0.574841
Zn8	Zn	0.077627	-0.544089	0.526737
Zn9	Zn	0.037709	-0.584002	0.486923
O10	O	0.000748	-0.529758	0.574918
N11	N	0.104871	-0.516854	0.553912
N12	N	0.010470	-0.611242	0.459748
C13	C	0.143162	-0.478782	0.827124
C14	C	0.378203	-0.478734	0.591892
C15	C	0.143005	-0.478752	0.591997
C16	C	0.142986	-0.243586	0.592008
C17	C	0.180857	-0.357087	0.629814
C18	C	0.180866	-0.440920	0.629807
C19	C	0.201840	-0.419964	0.650755
C20	C	0.293272	-0.404201	0.602606
C21	C	0.350426	-0.423248	0.583534
C22	C	0.350451	-0.515727	0.618798
C23	C	0.293297	-0.496678	0.637872
C24	C	0.194628	-0.328499	0.573626
C25	C	0.175551	-0.271340	0.554591
C26	C	0.128936	-0.271362	0.647935
C27	C	0.148014	-0.328521	0.666970
C28	C	0.124672	-0.427119	0.643641
C29	C	0.105611	-0.446170	0.624592
C30	C	0.198934	-0.492820	0.577889
C31	C	0.217998	-0.473770	0.596931
C32	C	0.124740	-0.427136	0.742229
C33	C	0.105728	-0.446202	0.799386
C34	C	0.199085	-0.492863	0.799337
C35	C	0.218096	-0.473798	0.742178
C36	C	0.180923	-0.440933	0.713626
C37	C	0.264710	-0.440915	0.629773
C38	C	0.121509	-0.499370	0.889991
C39	C	0.441068	-0.498953	0.570621
C40	C	0.121297	-0.499349	0.571429
C41	C	0.121653	-0.180715	0.571802
C42	C	-0.111071	-0.648912	0.421584
C43	C	-0.027286	-0.649018	0.421777
C44	C	-0.048200	-0.669944	0.400740
C45	C	-0.064036	-0.761340	0.448814
C46	C	-0.045033	-0.818500	0.467893
C47	C	0.047447	-0.818609	0.432797
C48	C	0.028444	-0.761451	0.413717
C49	C	-0.139731	-0.662677	0.477755
C50	C	-0.196885	-0.643554	0.496701
C51	C	-0.196717	-0.596907	0.403303
C52	C	-0.139562	-0.616030	0.384357
C53	C	-0.041053	-0.592827	0.407952
C54	C	-0.022041	-0.573809	0.427083
C55	C	0.024504	-0.667167	0.473848
C56	C	0.005492	-0.686188	0.454725
C57	C	-0.040886	-0.592836	0.309259
C58	C	-0.021740	-0.573821	0.252102
C59	C	0.024886	-0.667185	0.252163
C60	C	0.005743	-0.686199	0.309322
C61	C	-0.027145	-0.649023	0.337868
C62	C	-0.027299	-0.732818	0.421728
N63	N	0.492511	-0.516826	0.553742
O64	O	0.679283	-0.525926	0.419277
O65	O	0.679465	-0.632059	0.563349
O66	O	0.679393	-0.631817	0.471975
O67	O	0.679355	-0.526168	0.510650
O68	O	0.588593	-0.601610	0.502313
O69	O	0.588665	-0.601852	0.593686
O70	O	0.588483	-0.495720	0.449614
Zn71	Zn	0.574158	-0.543990	0.526467
Zn72	Zn	0.693790	-0.583788	0.486496
O73	O	0.588555	-0.495962	0.540987
N74	N	0.775436	-0.610952	0.459215
N75	N	0.104844	-0.129269	0.553931
O76	O	-0.029548	0.057600	0.544709
O77	O	0.114530	0.057617	0.438578
O78	O	0.023130	0.057594	0.438850
O79	O	0.061852	0.057623	0.544437
O80	O	0.053431	-0.033213	0.469115
O81	O	0.144831	-0.033190	0.468843
O82	O	0.000753	-0.033207	0.574974
Zn83	Zn	0.077603	-0.047616	0.526714
Zn84	Zn	0.037680	0.072026	0.486838
O85	O	0.092153	-0.033184	0.574702
N86	N	0.010432	0.153679	0.459622
N87	N	0.105130	-0.516904	0.941437
O88	O	0.095923	-0.651280	1.128292
O89	O	-0.010184	-0.507155	1.128318
O90	O	-0.009938	-0.598539	1.128284
O91	O	0.095677	-0.559897	1.128326
O92	O	0.020315	-0.568257	1.037481
O93	O	0.020068	-0.476874	1.037515
O94	O	0.126176	-0.620999	1.037489
Zn95	Zn	0.077925	-0.544128	1.023085
Zn96	Zn	0.038066	-0.584026	1.142722
O97	O	0.125929	-0.529616	1.037523
N98	N	0.010860	-0.611256	1.224371
C99	C	0.034807	-0.473765	0.439352
C100	C	0.147897	-0.586765	0.439257
C101	C	0.080529	-0.654326	0.574308
C102	C	-0.032561	-0.541326	0.574403
C103	C	0.634087	-0.631571	0.596668
C104	C	0.633999	-0.631272	0.483513
C105	C	0.633858	-0.496206	0.416295
C106	C	0.633949	-0.496507	0.529449
C107	C	0.147793	0.012327	0.439058
C108	C	0.034644	0.012187	0.439432
C109	C	-0.032548	0.012195	0.574457
C110	C	0.080639	0.012222	0.574120
C111	C	-0.009670	-0.473857	1.082920
C112	C	-0.009359	-0.587018	1.082860
C113	C	0.125662	-0.654297	1.082887
C114	C	0.125358	-0.541129	1.082927
H115	H	0.059977	-0.434960	0.822668
H116	H	0.634133	-0.664888	0.638048
O117	O	0.024746	0.012271	0.399812
C118	C	0.030796	0.059291	0.353761
H119	H	0.024889	0.092172	0.366814
H120	H	-0.001027	0.075064	0.334413
H121	H	0.073417	0.048660	0.322819
O122	O	0.164997	-0.531368	1.082957
C123	C	0.212119	-0.578253	1.082934
H124	H	0.200202	-0.615788	1.100116
H125	H	0.232459	-0.583038	1.109299
H126	H	0.241801	-0.573845	1.039369
O127	O	-0.081924	-0.531539	0.614116
C128	C	-0.091695	-0.487344	0.626713
H129	H	-0.051156	-0.482958	0.614636
H130	H	-0.113785	-0.495134	0.672419
H131	H	-0.118045	-0.448205	0.603273
H132	H	-0.067667	-0.562559	0.332499
H133	H	0.094434	-0.400372	0.670409
H134	H	0.088930	0.012231	0.607291
O135	O	0.088553	-0.395236	0.714578
C136	C	0.034887	-0.387132	0.752081
H137	H	0.035019	-0.421597	0.792816
H138	H	0.007734	-0.386832	0.735583
H139	H	0.018512	-0.346417	0.758168
H140	H	0.229358	-0.519614	0.822579
H141	H	0.158977	-0.695688	1.082873
O142	O	0.197074	0.012661	0.399257
C143	C	0.231036	0.012762	0.418866
H144	H	0.204776	0.029775	0.454040
H145	H	0.256978	0.039339	0.384581
H146	H	0.258816	-0.030743	0.433831
H147	H	0.263847	-0.485039	0.718893
O148	O	0.633910	-0.456963	0.539416
C149	C	0.633982	-0.476859	0.593069
H150	H	0.616832	-0.511927	0.618903
H151	H	0.607614	-0.442674	0.611458
H152	H	0.677555	-0.492064	0.592232
O153	O	0.634112	-0.670918	0.473638
C154	C	0.681166	-0.716942	0.479678
H155	H	0.714025	-0.703849	0.473743
H156	H	0.696938	-0.736304	0.447866
H157	H	0.670586	-0.747889	0.522306
H158	H	-0.073925	0.012190	0.607776
H159	H	0.059853	-0.434921	0.635844
O160	O	0.025096	-0.424368	0.399653
C161	C	0.071999	-0.424243	0.352566
H162	H	0.109508	-0.456533	0.364543
H163	H	0.076823	-0.382346	0.332181
H164	H	0.067591	-0.433749	0.322899
O165	O	-0.049363	-0.424455	1.082952
C166	C	-0.029707	-0.390477	1.082955
H167	H	0.005343	-0.416735	1.100148
H168	H	-0.064017	-0.364320	1.109324
H169	H	-0.014554	-0.362903	1.039397
O170	O	0.633812	-0.456519	0.366898
C171	C	0.633781	-0.476171	0.332928
H172	H	0.651017	-0.522679	0.347690
H173	H	0.660094	-0.459404	0.289183
H174	H	0.590208	-0.462323	0.334442
H175	H	-0.042525	-0.595273	1.082811
H176	H	-0.220220	-0.654760	0.542443
H177	H	0.263756	-0.485001	0.585661
O178	O	0.235033	-0.524648	0.545876
C179	C	0.268055	-0.495772	0.497948
H180	H	0.245962	-0.450045	0.490020
H181	H	0.276688	-0.505987	0.461937
H182	H	0.308216	-0.507933	0.503130
O183	O	0.265635	-0.532414	0.664229
C184	C	0.303126	-0.585718	0.667294
H185	H	0.343853	-0.583540	0.633524
H186	H	0.286606	-0.609178	0.662126
H187	H	0.309234	-0.607540	0.708707
H188	H	0.373728	-0.561133	0.625383
O189	O	0.378089	-0.387508	0.557132
C190	C	0.340600	-0.334206	0.554085
H191	H	0.299852	-0.331982	0.557845
H192	H	0.357092	-0.303998	0.513233
H193	H	0.334542	-0.323538	0.588712
H194	H	0.189295	-0.594927	0.405983
H195	H	0.221368	-0.351757	0.543370
O196	O	0.265444	-0.350054	0.594836
C197	C	0.232420	-0.342285	0.645858
H198	H	0.223876	-0.381583	0.677709
H199	H	0.192219	-0.307965	0.642575
H200	H	0.254461	-0.331024	0.658546
O201	O	0.188994	-0.243650	0.499989
C202	C	0.222061	-0.281121	0.471276
H203	H	0.242866	-0.321868	0.498520
H204	H	0.254377	-0.264595	0.433124
H205	H	0.195681	-0.287200	0.458966
H206	H	0.102202	-0.248101	0.678192
H207	H	-0.067739	-0.562558	0.381123
O208	O	0.090331	-0.703789	0.613904
C209	C	0.103167	-0.744908	0.595158
H210	H	0.085574	-0.726281	0.561235
H211	H	0.084907	-0.777585	0.630343
H212	H	0.149400	-0.764107	0.578739
O213	O	0.134607	-0.356210	0.721572
C214	C	0.101515	-0.318739	0.750285
H215	H	0.108787	-0.277989	0.723029
H216	H	0.112252	-0.335261	0.788420
H217	H	0.056747	-0.312669	0.762625
H218	H	0.051655	-0.697459	0.228927
O219	O	-0.035169	-0.519219	0.224401
C220	C	-0.068290	-0.490489	0.261857
H221	H	-0.089125	-0.517716	0.302576
H222	H	-0.100581	-0.452323	0.245275
H223	H	-0.041948	-0.478197	0.268007
H224	H	-0.033252	-0.528055	0.415829
O225	O	0.019122	-0.740800	0.337027
C226	C	0.052260	-0.769532	0.299572
H227	H	0.045044	-0.742272	0.258788
H228	H	0.041519	-0.807646	0.316057
H229	H	0.097014	-0.781909	0.293586
H230	H	0.051198	-0.697438	0.500669
H231	H	0.016700	-0.731943	0.465981
H232	H	0.092838	-0.841923	0.426277
O233	O	0.064203	-0.733828	0.387437
C234	C	0.117478	-0.771360	0.384450
H235	H	0.115246	-0.812084	0.418211
H236	H	0.140919	-0.754877	0.389689
H237	H	0.139349	-0.777466	0.343035
H238	H	-0.109425	-0.738032	0.455342
O239	O	-0.080805	-0.846122	0.494279
C240	C	-0.134083	-0.808593	0.497282
H241	H	-0.136266	-0.767844	0.493477
H242	H	-0.164313	-0.825040	0.538137
H243	H	-0.144752	-0.802549	0.462661
O244	O	-0.112138	-0.694592	0.513988
C245	C	-0.149691	-0.702646	0.567631
H246	H	-0.190405	-0.668147	0.567454
H247	H	-0.133231	-0.702964	0.594828
H248	H	-0.155805	-0.743339	0.583988
H249	H	-0.219915	-0.570138	0.372989
O250	O	-0.111804	-0.602632	0.329771
C251	C	-0.149207	-0.569497	0.300977
H252	H	-0.189977	-0.576733	0.328165
H253	H	-0.132638	-0.580229	0.262830
H254	H	-0.155249	-0.524737	0.288650
