data_functionalizedCrystal
_audit_creation_method	'MofGen! by Chris Wilmer'
_symmetry_space_group_name_H-M	'P1'
_symmetry_Int_Tables_number	1
_symmetry_cell_setting	triclinic
loop_
_symmetry_equiv_pos_as_xyz
  x,y,z
_cell_length_a	25.639239
_cell_length_b	25.639242
_cell_length_c	12.759393
_cell_angle_alpha	89.967370
_cell_angle_beta	90.035978
_cell_angle_gamma	89.966656
loop_
_atom_site_label
_atom_site_type_symbol
_atom_site_fract_x
_atom_site_fract_y
_atom_site_fract_z
Zn1	Zn	-0.208200	-0.799273	0.594308
Zn2	Zn	0.291800	-0.299273	1.094308
Zn3	Zn	-0.295645	-0.799183	0.418611
Zn4	Zn	0.204355	-0.299183	0.918611
Zn5	Zn	-0.208217	-0.711835	0.418607
Zn6	Zn	0.291783	-0.211835	0.918607
Zn7	Zn	-0.295598	-0.711795	0.594212
Zn8	Zn	0.204402	-0.211795	1.094212
O9	O	-0.251915	-0.755522	0.506434
O10	O	0.248085	-0.255522	1.006434
O11	O	-0.219812	-0.872426	0.571043
O12	O	0.280188	-0.372426	1.071043
O13	O	-0.284074	-0.787575	0.271589
O14	O	0.215926	-0.287575	0.771589
O15	O	-0.135050	-0.723489	0.441952
O16	O	0.364950	-0.223489	0.941952
O17	O	-0.284058	-0.872360	0.441959
O18	O	0.215942	-0.372360	0.941959
O19	O	-0.135037	-0.787730	0.571039
O20	O	0.364963	-0.287730	1.071039
O21	O	-0.219842	-0.723401	0.271586
O22	O	0.280158	-0.223401	0.771586
O23	O	-0.219796	-0.638665	0.441860
O24	O	0.280204	-0.138665	0.941860
O25	O	-0.283978	-0.723420	0.741246
O26	O	0.216022	-0.223420	1.241246
O27	O	-0.283994	-0.638635	0.570876
O28	O	0.216006	-0.138635	1.070876
O29	O	-0.219767	-0.787690	0.741316
O30	O	0.280233	-0.287690	1.241316
O31	O	-0.368804	-0.787535	0.441867
O32	O	0.131196	-0.287535	0.941867
O33	O	-0.368769	-0.723332	0.570880
O34	O	0.131231	-0.223332	1.070880
C35	C	-0.251892	-0.619679	0.506358
C36	C	0.248108	-0.119679	1.006358
C37	C	-0.251895	-0.561565	0.506350
C38	C	0.248105	-0.061565	1.006350
C39	C	-0.218429	-0.310378	0.439345
C40	C	0.281571	0.189622	0.939345
C41	C	-0.218425	-0.364983	0.439335
C42	C	0.281575	0.135017	0.939335
O43	O	-0.189941	-0.393225	0.382320
O44	O	0.310059	0.106775	0.882320
N45	N	-0.251901	-0.392291	0.506393
N46	N	0.248099	0.107709	1.006393
C47	C	-0.285380	-0.364992	0.573473
C48	C	0.214620	0.135008	1.073473
O49	O	-0.313854	-0.393234	0.630510
O50	O	0.186146	0.106766	1.130510
C51	C	-0.285382	-0.310389	0.573487
C52	C	0.214618	0.189611	1.073487
C53	C	-0.251907	-0.283083	0.506418
C54	C	0.248093	0.216917	1.006418
C55	C	-0.184957	-0.283073	0.372282
C56	C	0.315043	0.216927	0.872282
C57	C	-0.184962	-0.228472	0.372291
C58	C	0.315038	0.271528	0.872291
C59	C	-0.218440	-0.201177	0.439363
C60	C	0.281560	0.298823	0.939363
C61	C	-0.251913	-0.228483	0.506427
C62	C	0.248087	0.271517	1.006427
C63	C	-0.318858	-0.283091	0.640572
C64	C	0.181142	0.216909	1.140572
C65	C	-0.318857	-0.228484	0.640581
C66	C	0.181143	0.271516	1.140581
C67	C	-0.285382	-0.201179	0.573511
C68	C	0.214618	0.298821	1.073511
C69	C	-0.285396	-0.146587	0.573508
C70	C	0.214604	0.353413	1.073508
N71	N	-0.251920	-0.119279	0.506450
N72	N	0.248080	0.380721	1.006450
C73	C	-0.218442	-0.146574	0.439378
C74	C	0.281558	0.353426	0.939378
C75	C	-0.285374	-0.479663	0.573438
C76	C	0.214626	0.020337	1.073438
C77	C	-0.285375	-0.534265	0.573419
C78	C	0.214625	-0.034265	1.073419
C79	C	-0.218419	-0.534252	0.439283
C80	C	0.281581	-0.034252	0.939283
C81	C	-0.218420	-0.479648	0.439297
C82	C	0.281580	0.020352	0.939297
C83	C	-0.251898	-0.452355	0.506380
C84	C	0.248102	0.047645	1.006380
C85	C	-0.218456	-0.031909	0.439401
C86	C	0.281544	0.468091	0.939401
C87	C	-0.218466	0.022697	0.439413
C88	C	0.281534	0.522697	0.939413
C89	C	-0.285420	0.022678	0.573553
C90	C	0.214580	0.522678	1.073553
C91	C	-0.285413	-0.031922	0.573538
C92	C	0.214587	0.468078	1.073538
C93	C	-0.251926	-0.059214	0.506458
C94	C	0.248074	0.440786	1.006458
O95	O	-0.313864	-0.118310	0.630497
O96	O	0.186136	0.381690	1.130497
O97	O	-0.189968	-0.118325	0.382359
O98	O	0.310032	0.381675	0.882359
C99	C	-0.387758	-0.755434	0.506386
C100	C	0.112242	-0.255434	1.006386
C101	C	-0.445872	-0.755444	0.506401
C102	C	0.054128	-0.255444	1.006401
C103	C	-0.806240	-0.789039	0.439372
C104	C	-0.306240	-0.289039	0.939372
C105	C	-0.860844	-0.789060	0.439386
C106	C	-0.360844	-0.289060	0.939386
O107	O	-0.889086	-0.817533	0.382342
O108	O	-0.389086	-0.317533	0.882342
N109	N	-0.888154	-0.755613	0.506504
N110	N	-0.388154	-0.255613	1.006504
C111	C	-0.860857	-0.722148	0.573620
C112	C	-0.360857	-0.222148	1.073620
O113	O	-0.889100	-0.693702	0.630712
O114	O	-0.389100	-0.193702	1.130712
C115	C	-0.806253	-0.722131	0.573611
C116	C	-0.306253	-0.222131	1.073611
C117	C	-0.778946	-0.755576	0.506481
C118	C	-0.278946	-0.255576	1.006481
C119	C	-0.778933	-0.822482	0.372248
C120	C	-0.278933	-0.322482	0.872248
C121	C	-0.724333	-0.822461	0.372232
C122	C	-0.224333	-0.322461	0.872232
C123	C	-0.697039	-0.788997	0.439341
C124	C	-0.197039	-0.288997	0.939341
C125	C	-0.724346	-0.755555	0.506465
C126	C	-0.224346	-0.255555	1.006465
C127	C	-0.778957	-0.688669	0.640732
C128	C	-0.278957	-0.188669	1.140732
C129	C	-0.724350	-0.688655	0.640717
C130	C	-0.224350	-0.188655	1.140717
C131	C	-0.697043	-0.722100	0.573587
C132	C	-0.197043	-0.222100	1.073587
C133	C	-0.642452	-0.722070	0.573559
C134	C	-0.142452	-0.222070	1.073559
N135	N	-0.615142	-0.755517	0.506441
N136	N	-0.115142	-0.255517	1.006441
C137	C	-0.642436	-0.788980	0.439332
C138	C	-0.142436	-0.288980	0.939332
C139	C	-0.975527	-0.722188	0.573637
C140	C	-0.475527	-0.222188	1.073637
C141	C	-1.030130	-0.722202	0.573642
C142	C	-0.530130	-0.222202	1.073642
C143	C	-1.030114	-0.789114	0.439408
C144	C	-0.530114	-0.289114	0.939408
C145	C	-0.975510	-0.789097	0.439398
C146	C	-0.475510	-0.289097	0.939398
C147	C	-0.948218	-0.755634	0.506518
C148	C	-0.448218	-0.255634	1.006518
C149	C	-0.527771	-0.788933	0.439304
C150	C	-0.027771	-0.288933	0.939304
C151	C	-0.473165	-0.788907	0.439292
C152	C	0.026835	-0.288907	0.939292
C153	C	-0.473186	-0.721997	0.573529
C154	C	0.026814	-0.221997	1.073529
C155	C	-0.527787	-0.722021	0.573538
C156	C	-0.027787	-0.222021	1.073538
C157	C	-0.555078	-0.755493	0.506422
C158	C	-0.055078	-0.255493	1.006422
O159	O	-0.614176	-0.693613	0.630576
O160	O	-0.114176	-0.193613	1.130576
O161	O	-0.614186	-0.817427	0.382260
O162	O	-0.114186	-0.317427	0.882260
C163	C	-0.115542	-0.755624	0.506506
C164	C	0.384458	-0.255624	1.006506
C165	C	-0.057428	-0.755668	0.506536
C166	C	0.442572	-0.255668	1.006536
C167	C	-0.251865	-0.755561	0.780468
C168	C	0.248135	-0.255561	1.280468
C169	C	-0.251843	-0.755577	0.897245
C170	C	0.248157	-0.255577	1.397245
C171	C	-0.251937	0.108106	0.506497
C172	C	0.248063	0.608106	1.006497
C173	C	-0.251944	0.049991	0.506485
C174	C	0.248056	0.549991	1.006485
C175	C	-0.251927	-0.755513	0.233467
C176	C	0.248073	-0.255513	0.733467
C177	C	-0.251801	-0.755597	0.116691
C178	C	0.248199	-0.255597	0.616691
C179	C	-0.218403	-0.789045	0.952145
C180	C	0.281597	-0.289045	1.452145
C181	C	-0.218381	-0.789054	1.061869
C182	C	0.281619	-0.289054	1.561869
C183	C	-0.285243	-0.722126	1.061783
C184	C	0.214757	-0.222126	1.561783
C185	C	-0.285262	-0.722115	0.952061
C186	C	0.214738	-0.222115	1.452061
H187	H	-0.157704	-0.206245	0.317676
H188	H	0.342296	0.293755	0.817676
O189	O	-0.351404	-0.201916	0.705603
O190	O	0.148596	0.298084	1.205603
C191	C	-0.385154	-0.170304	0.645680
C192	C	0.114846	0.329696	1.145680
H193	H	-0.366672	-0.162102	0.566128
H194	H	0.133328	0.337898	1.066128
H195	H	-0.392191	-0.131920	0.688464
H196	H	0.107809	0.368080	1.188464
H197	H	-0.423891	-0.191328	0.633993
H198	H	0.076109	0.308672	1.133993
O199	O	-0.185928	0.049283	0.374397
O200	O	0.314072	0.549283	0.874397
C201	C	-0.152187	0.080828	0.434326
C202	C	0.347813	0.580828	0.934326
H203	H	-0.170668	0.088990	0.513887
H204	H	0.329332	0.588990	1.013887
H205	H	-0.145169	0.119236	0.391557
H206	H	0.354831	0.619236	0.891557
H207	H	-0.113441	0.059768	0.445992
H208	H	0.386559	0.559768	0.945992
O209	O	-0.185840	-0.821490	1.115243
O210	O	0.314160	-0.321490	1.615243
C211	C	-0.152060	-0.791755	1.178719
C212	C	0.347940	-0.291755	1.678719
H213	H	-0.148831	-0.750576	1.145623
H214	H	0.351169	-0.250576	1.645623
H215	H	-0.111826	-0.810696	1.179991
H216	H	0.388174	-0.310696	1.679991
H217	H	-0.168206	-0.789951	1.261868
H218	H	0.331794	-0.289951	1.761868
H219	H	-1.052358	-0.694963	0.628296
H220	H	-0.552358	-0.194963	1.128296
H221	H	-0.550021	-0.694789	0.628204
H222	H	-0.050021	-0.194789	1.128204
H223	H	-0.312453	-0.694883	1.106428
H224	H	0.187547	-0.194883	1.606428
O225	O	-0.186012	-0.821600	0.898846
O226	O	0.313988	-0.321600	1.398846
C227	C	-0.215792	-0.855333	0.835365
C228	C	0.284208	-0.355333	1.335365
H229	H	-0.256966	-0.858539	0.868408
H230	H	0.243034	-0.358539	1.368408
H231	H	-0.196886	-0.895583	0.834158
H232	H	0.303114	-0.395583	1.334158
H233	H	-0.217606	-0.839157	0.752196
H234	H	0.282394	-0.339157	1.252196
H235	H	-0.953308	-0.694934	0.628290
H236	H	-0.453308	-0.194934	1.128290
O237	O	-0.446723	-0.689523	0.638868
O238	O	0.053277	-0.189523	1.138868
C239	C	-0.460004	-0.700944	0.743607
C240	C	0.039996	-0.200944	1.243607
H241	H	-0.499635	-0.721048	0.745836
H242	H	0.000365	-0.221048	1.245836
H243	H	-0.461880	-0.663203	0.790651
H244	H	0.038120	-0.163203	1.290651
H245	H	-0.429239	-0.727816	0.779028
H246	H	0.070761	-0.227816	1.279028
O247	O	-0.185915	-0.058334	0.374135
O248	O	0.314085	0.441666	0.874135
C249	C	-0.156369	-0.022516	0.314968
C250	C	0.343631	0.477484	0.814968
H251	H	-0.177789	0.016418	0.311279
H252	H	0.322211	0.516418	0.811279
H253	H	-0.150746	-0.038261	0.232201
H254	H	0.349254	0.461739	0.732201
H255	H	-0.116681	-0.016741	0.353578
H256	H	0.383319	0.483259	0.853578
O257	O	-0.805530	-0.656257	0.706005
O258	O	-0.305530	-0.156257	1.206005
C259	C	-0.837048	-0.686020	0.773956
C260	C	-0.337048	-0.186020	1.273956
H261	H	-0.845214	-0.725651	0.736978
H262	H	-0.345214	-0.225651	1.236978
H263	H	-0.875455	-0.664730	0.788025
H264	H	-0.375455	-0.164730	1.288025
H265	H	-0.815961	-0.691748	0.851809
H266	H	-0.315961	-0.191748	1.351809
O267	O	-0.554338	-0.821377	0.374070
O268	O	-0.054338	-0.321377	0.874070
C269	C	-0.585972	-0.791647	0.306132
C270	C	-0.085972	-0.291647	0.806132
H271	H	-0.594178	-0.752015	0.343090
H272	H	-0.094178	-0.252015	0.843090
H273	H	-0.624352	-0.812966	0.292120
H274	H	-0.124352	-0.312966	0.792120
H275	H	-0.564966	-0.785919	0.228251
H276	H	-0.064966	-0.285919	0.728251
H277	H	-0.953280	-0.816331	0.384736
H278	H	-0.453280	-0.316331	0.884736
O279	O	-0.152418	-0.309501	0.307020
O280	O	0.347582	0.190499	0.807020
C281	C	-0.122870	-0.273680	0.247862
C282	C	0.377130	0.226320	0.747862
H283	H	-0.144289	-0.234746	0.244176
H284	H	0.355711	0.265254	0.744176
H285	H	-0.117245	-0.289422	0.165093
H286	H	0.382755	0.210578	0.665093
H287	H	-0.083183	-0.267908	0.286476
H288	H	0.416817	0.232092	0.786476
O289	O	-0.317798	-0.689586	0.898886
O290	O	0.182202	-0.189586	1.398886
C291	C	-0.347285	-0.660048	0.970794
C292	C	0.152715	-0.160048	1.470794
H293	H	-0.349088	-0.681468	1.049024
H294	H	0.150912	-0.181468	1.549024
H295	H	-0.388483	-0.654435	0.939061
H296	H	0.111517	-0.154435	1.439061
H297	H	-0.328129	-0.620354	0.982444
H298	H	0.171871	-0.120354	1.482444
H299	H	-0.191160	-0.457420	0.384687
H300	H	0.308840	0.042580	0.884687
O301	O	-0.446721	-0.821447	0.374047
O302	O	0.053279	-0.321447	0.874047
C303	C	-0.482524	-0.850978	0.314804
C304	C	0.017476	-0.350978	0.814804
H305	H	-0.521428	-0.852790	0.357856
H306	H	-0.021428	-0.352790	0.857856
H307	H	-0.466715	-0.892170	0.303682
H308	H	0.033285	-0.392170	0.803682
H309	H	-0.488382	-0.831855	0.234971
H310	H	0.011618	-0.331855	0.734971
O311	O	-0.185967	-0.560829	0.374080
O312	O	0.314033	-0.060829	0.874080
C313	C	-0.215692	-0.592367	0.306092
C314	C	0.284308	-0.092367	0.806092
H315	H	-0.255338	-0.600534	0.342996
H316	H	0.244662	-0.100534	0.842996
H317	H	-0.194387	-0.630772	0.292093
H318	H	0.305613	-0.130772	0.792093
H319	H	-0.221388	-0.571297	0.228212
H320	H	0.278612	-0.071297	0.728212
H321	H	-0.312640	-0.556493	0.628023
H322	H	0.187360	-0.056493	1.128023
H323	H	-0.702131	-0.661406	0.695377
H324	H	-0.202131	-0.161406	1.195377
H325	H	-0.346117	-0.305314	0.695187
H326	H	0.153883	0.194686	1.195187
O327	O	-0.317950	-0.453232	0.638632
O328	O	0.182050	0.046768	1.138632
C329	C	-0.347484	-0.489050	0.697827
C330	C	0.152516	0.010950	1.197827
H331	H	-0.349262	-0.527955	0.654769
H332	H	0.150738	-0.027955	1.154769
H333	H	-0.388687	-0.473260	0.708889
H334	H	0.111313	0.026740	1.208889
H335	H	-0.328385	-0.494897	0.777688
H336	H	0.171615	0.005103	1.277688
H337	H	-0.801150	-0.849735	0.317599
H338	H	-0.301150	-0.349735	0.817599
H339	H	-0.312679	0.044912	0.628158
H340	H	0.187321	0.544912	1.128158
H341	H	-0.702103	-0.849696	0.317572
H342	H	-0.202103	-0.349696	0.817572
O343	O	-0.317948	-0.058369	0.638782
O344	O	0.182052	0.441631	1.138782
C345	C	-0.347508	-0.022566	0.697961
C346	C	0.152492	0.477434	1.197961
H347	H	-0.326101	0.016347	0.701672
H348	H	0.173899	0.516347	1.201672
H349	H	-0.353129	-0.038363	0.780719
H350	H	0.146871	0.461637	1.280719
H351	H	-0.387196	-0.016732	0.659346
H352	H	0.112804	0.483268	1.159346
O353	O	-1.056637	-0.821714	0.374410
O354	O	-0.556637	-0.321714	0.874410
C355	C	-1.088151	-0.855464	0.434379
C356	C	-0.588151	-0.355464	0.934379
H357	H	-1.071657	-0.858612	0.517134
H358	H	-0.571657	-0.358612	1.017134
H359	H	-1.088717	-0.895731	0.396552
H360	H	-0.588717	-0.395731	0.896552
H361	H	-1.129559	-0.839341	0.437943
H362	H	-0.629559	-0.339341	0.937943
