data_functionalizedCrystal
_audit_creation_method	'MofGen! by Chris Wilmer'
_symmetry_space_group_name_H-M	'P1'
_symmetry_Int_Tables_number	1
_symmetry_cell_setting	triclinic
loop_
_symmetry_equiv_pos_as_xyz
  x,y,z
_cell_length_a	11.792241
_cell_length_b	11.026607
_cell_length_c	10.868271
_cell_angle_alpha	89.998659
_cell_angle_beta	90.000588
_cell_angle_gamma	96.389716
loop_
_atom_site_label
_atom_site_type_symbol
_atom_site_fract_x
_atom_site_fract_y
_atom_site_fract_z
O1	O	-1.539979	-0.166544	-0.102197
O2	O	-1.206646	0.166789	0.231137
O3	O	-0.873313	0.500123	0.564470
O4	O	-1.213047	-0.183709	-0.102225
O5	O	-0.879713	0.149625	0.231109
O6	O	-0.546380	0.482958	0.564442
O7	O	-1.349417	0.001705	-0.102208
O8	O	-1.016084	0.335038	0.231125
O9	O	-0.682751	0.668372	0.564458
O10	O	-1.403609	-0.351958	-0.102213
O11	O	-1.070276	-0.018624	0.231121
O12	O	-0.736942	0.314709	0.564454
O13	O	-1.349401	0.001697	0.102436
O14	O	-1.016068	0.335031	0.435770
O15	O	-0.682735	0.668364	0.769103
O16	O	-1.213031	-0.183717	0.102420
O17	O	-0.879698	0.149617	0.435753
O18	O	-0.546364	0.482950	0.769087
O19	O	-1.539964	-0.166552	0.102448
O20	O	-1.206630	0.166782	0.435781
O21	O	-0.873297	0.500115	0.769115
Zn22	Zn	-1.376495	-0.175135	0.134926
Zn23	Zn	-1.043161	0.158198	0.468259
Zn24	Zn	-0.709828	0.491531	0.801593
Zn25	Zn	-1.376516	-0.175125	-0.134702
Zn26	Zn	-1.043182	0.158208	0.198631
Zn27	Zn	-0.709849	0.491542	0.531964
O28	O	-1.403593	-0.351965	0.102432
O29	O	-1.070260	-0.018632	0.435765
O30	O	-0.736927	0.314701	0.769099
C31	C	-1.170534	-0.182634	0.000094
C32	C	-0.837200	0.150699	0.333427
C33	C	-0.503867	0.484032	0.666761
C34	C	-1.043879	-0.179407	0.000083
C35	C	-0.710546	0.153926	0.333417
C36	C	-0.377213	0.487260	0.666750
C37	C	-1.339412	0.046978	0.000112
C38	C	-1.006079	0.380311	0.333445
C39	C	-0.672745	0.713644	0.666778
C40	C	-1.309609	0.181888	0.000105
C41	C	-0.976276	0.515221	0.333438
C42	C	-0.642943	0.848555	0.666771
C43	C	-1.582477	-0.167626	0.000127
C44	C	-1.249143	0.165707	0.333460
C45	C	-0.915810	0.499041	0.666793
C46	C	-1.709131	-0.170853	0.000130
C47	C	-1.375798	0.162480	0.333463
C48	C	-1.042464	0.495813	0.666796
C49	C	-0.811989	-0.173473	0.000119
C50	C	-0.478655	0.159860	0.333452
C51	C	-0.145322	0.493194	0.666785
C52	C	-0.941029	-0.176770	0.000099
C53	C	-0.607695	0.156563	0.333433
C54	C	-0.274362	0.489897	0.666766
C55	C	-1.413598	-0.397238	0.000109
C56	C	-1.080265	-0.063905	0.333443
C57	C	-0.746932	0.269429	0.666776
C58	C	-1.443401	-0.532148	0.000108
C59	C	-1.110068	-0.198815	0.333441
C60	C	-0.776735	0.134518	0.666775
N61	N	-1.376489	-0.175142	0.318940
N62	N	-1.043155	0.158192	0.652273
N63	N	-0.709822	0.491525	0.985607
C64	C	-1.391899	0.255152	0.000110
C65	C	-1.058566	0.588485	0.333443
C66	C	-0.725233	0.921819	0.666777
C67	C	-1.361099	0.394589	0.000103
C68	C	-1.027766	0.727922	0.333436
C69	C	-0.694432	1.061256	0.666769
C70	C	-1.376497	-0.175143	0.430278
C71	C	-1.043164	0.158190	0.763611
C72	C	-0.709830	0.491524	1.096944
C73	C	-1.376509	-0.175133	0.569955
C74	C	-1.043175	0.158200	0.903288
C75	C	-0.709842	0.491533	1.236622
N76	N	-1.376523	-0.175118	0.681284
N77	N	-1.043189	0.158215	1.014617
N78	N	-0.709856	0.491548	1.347950
H79	H	-1.485153	0.214647	0.000126
H80	H	-1.151820	0.547980	0.333459
H81	H	-0.818487	0.881314	0.666792
H82	H	-1.267839	0.435088	0.000087
H83	H	-0.934506	0.768422	0.333420
H84	H	-0.601172	1.101755	0.666753
Cl85	Cl	-1.587390	0.405336	0.000115
Cl86	Cl	-1.254057	0.738669	0.333448
Cl87	Cl	-0.920723	1.072002	0.666781
Cl88	Cl	-1.165628	0.244413	0.000080
Cl89	Cl	-0.832294	0.577746	0.333413
Cl90	Cl	-0.498961	0.911080	0.666747
