data_functionalizedCrystal
_audit_creation_method	'MofGen! by Chris Wilmer'
_symmetry_space_group_name_H-M	'P1'
_symmetry_Int_Tables_number	1
_symmetry_cell_setting	triclinic
loop_
_symmetry_equiv_pos_as_xyz
  x,y,z
_cell_length_a	14.044220
_cell_length_b	14.044190
_cell_length_c	12.503572
_cell_angle_alpha	93.839403
_cell_angle_beta	86.164750
_cell_angle_gamma	93.190328
loop_
_atom_site_label
_atom_site_type_symbol
_atom_site_fract_x
_atom_site_fract_y
_atom_site_fract_z
O1	O	1.282207	0.225116	-0.089227
O2	O	1.005537	0.216809	-0.089254
O3	O	1.139714	0.082627	-0.089220
O4	O	1.148029	0.359297	-0.089261
O5	O	1.129625	0.092737	0.089420
O6	O	0.995447	0.226918	0.089386
O7	O	1.272117	0.235226	0.089412
Cu8	Cu	1.132861	0.231995	0.105710
Cu9	Cu	1.144793	0.220039	-0.105552
O10	O	1.137940	0.369407	0.089378
C11	C	1.131033	0.052060	0.000103
C12	C	1.120185	-0.054082	0.000111
C13	C	0.964870	0.218228	0.000063
C14	C	0.858728	0.207383	0.000054
C15	C	1.177287	-0.299543	0.000075
C16	C	1.100371	-0.248417	0.000075
C17	C	1.111398	-0.140279	0.000095
C18	C	1.166262	-0.407691	0.000054
C19	C	0.664388	0.187558	0.000078
C20	C	0.613260	0.264472	0.000071
C21	C	0.505123	0.253441	0.000085
C22	C	0.772535	0.198587	0.000065
C23	C	1.312784	0.233806	0.000093
C24	C	1.418927	0.244651	0.000095
C25	C	1.146621	0.399974	0.000053
C26	C	1.157469	0.506116	0.000038
N27	N	1.124476	0.240404	0.254300
N28	N	1.153185	0.211623	-0.254142
C29	C	1.112141	0.252782	0.473412
C30	C	1.165517	0.199248	0.526753
C31	C	1.158654	0.206136	0.648675
C32	C	1.119003	0.245896	0.351480
H33	H	1.026239	-0.285862	0.000061
H34	H	1.251413	-0.262101	0.000093
Cl35	Cl	1.244423	0.120898	0.455893
Cl36	Cl	0.671064	0.378928	0.000047
H37	H	1.061294	0.303783	0.519307
Cl38	Cl	0.606584	0.073108	0.000097
