data_functionalizedCrystal
_audit_creation_method	'MofGen! by Chris Wilmer'
_symmetry_space_group_name_H-M	'P1'
_symmetry_Int_Tables_number	1
_symmetry_cell_setting	triclinic
loop_
_symmetry_equiv_pos_as_xyz
  x,y,z
_cell_length_a	18.215407
_cell_length_b	25.639239
_cell_length_c	18.215387
_cell_angle_alpha	89.908932
_cell_angle_beta	89.939256
_cell_angle_gamma	90.039134
loop_
_atom_site_label
_atom_site_type_symbol
_atom_site_fract_x
_atom_site_fract_y
_atom_site_fract_z
Zn1	Zn	1.125299	-0.207835	-0.416106
Zn2	Zn	1.625299	0.292165	0.083894
Zn3	Zn	1.125090	-0.295364	-0.293035
Zn4	Zn	1.625090	0.204636	0.206965
Zn5	Zn	1.002143	-0.207945	-0.293053
Zn6	Zn	1.502143	0.292055	0.206947
Zn7	Zn	1.002168	-0.295242	-0.416060
Zn8	Zn	1.502168	0.204758	0.083940
O9	O	1.063675	-0.251596	-0.354564
O10	O	1.563675	0.248404	0.145436
O11	O	1.228255	-0.219451	-0.399792
O12	O	1.728255	0.280549	0.100208
O13	O	1.108683	-0.283865	-0.190053
O14	O	1.608683	0.216135	0.309947
O15	O	1.018558	-0.134765	-0.309403
O16	O	1.518558	0.365235	0.190597
O17	O	1.228102	-0.283758	-0.309372
O18	O	1.728102	0.216242	0.190628
O19	O	1.109039	-0.134684	-0.399810
O20	O	1.609039	0.365316	0.100190
O21	O	1.018355	-0.219639	-0.190066
O22	O	1.518355	0.280361	0.309934
O23	O	0.899162	-0.219520	-0.309359
O24	O	1.399162	0.280480	0.190641
O25	O	1.018599	-0.283550	-0.519051
O26	O	1.518599	0.216450	-0.019051
O27	O	0.899180	-0.283657	-0.399731
O28	O	1.399180	0.216343	0.100269
O29	O	1.109063	-0.219332	-0.519085
O30	O	1.609063	0.280668	-0.019085
O31	O	1.108706	-0.368513	-0.309328
O32	O	1.608706	0.131487	0.190672
O33	O	1.018396	-0.368423	-0.399714
O34	O	1.518396	0.131577	0.100286
C35	C	0.872469	-0.251588	-0.354543
C36	C	1.372469	0.248412	0.145457
C37	C	0.790670	-0.251596	-0.354551
C38	C	1.290670	0.248404	0.145449
C39	C	0.602504	-0.285045	-0.401549
C40	C	1.102504	0.214955	0.098451
C41	C	0.525645	-0.285046	-0.401558
C42	C	1.025645	0.214954	0.098442
C43	C	0.525598	-0.218158	-0.307594
C44	C	1.025598	0.281842	0.192406
C45	C	0.602455	-0.218154	-0.307589
C46	C	1.102455	0.281846	0.192411
C47	C	0.640906	-0.251600	-0.354566
C48	C	1.140906	0.248400	0.145434
C49	C	0.487190	-0.251606	-0.354580
C50	C	0.987190	0.248394	0.145420
C51	C	0.403856	-0.251607	-0.354589
C52	C	0.903856	0.248393	0.145411
C53	C	0.724245	-0.251598	-0.354557
C54	C	1.224245	0.248402	0.145443
C55	C	1.063551	-0.387439	-0.354530
C56	C	1.563551	0.112561	0.145470
C57	C	1.063565	-0.445553	-0.354540
C58	C	1.563565	0.054447	0.145460
C59	C	1.110822	-0.805950	-0.307580
C60	C	1.610822	-0.305950	0.192420
C61	C	1.110851	-0.860555	-0.307590
C62	C	1.610851	-0.360555	0.192410
O63	O	1.150902	-0.888820	-0.267625
O64	O	1.650902	-0.388820	0.232375
N65	N	1.063804	-0.887835	-0.354612
N66	N	1.563804	-0.387835	0.145388
C67	C	1.016731	-0.860509	-0.401634
C68	C	1.516731	-0.360509	0.098366
O69	O	0.976718	-0.888728	-0.441632
O70	O	1.476718	-0.388728	0.058368
C71	C	1.016707	-0.805906	-0.401627
C72	C	1.516707	-0.305906	0.098373
C73	C	1.063751	-0.778628	-0.354596
C74	C	1.563751	-0.278628	0.145404
C75	C	1.157863	-0.778672	-0.260553
C76	C	1.657863	-0.278672	0.239447
C77	C	1.157834	-0.724072	-0.260543
C78	C	1.657834	-0.224072	0.239457
C79	C	1.110763	-0.696749	-0.307559
C80	C	1.610763	-0.196749	0.192441
C81	C	1.063722	-0.724027	-0.354585
C82	C	1.563722	-0.224027	0.145415
C83	C	0.969638	-0.778581	-0.448651
C84	C	1.469638	-0.278581	0.051349
C85	C	0.969619	-0.723974	-0.448641
C86	C	1.469619	-0.223974	0.051359
C87	C	1.016663	-0.696696	-0.401610
C88	C	1.516663	-0.196696	0.098390
C89	C	1.016621	-0.642104	-0.401591
C90	C	1.516621	-0.142104	0.098409
N91	N	1.063668	-0.614824	-0.354568
N92	N	1.563668	-0.114824	0.145432
C93	C	1.110739	-0.642146	-0.307552
C94	C	1.610739	-0.142146	0.192448
C95	C	1.016787	-0.975180	-0.401645
C96	C	1.516787	-0.475180	0.098355
C97	C	1.016807	-1.029782	-0.401649
C98	C	1.516807	-0.529782	0.098351
C99	C	1.110927	-1.029824	-0.307605
C100	C	1.610927	-0.529824	0.192395
C101	C	1.110903	-0.975220	-0.307599
C102	C	1.610903	-0.475220	0.192401
C103	C	1.063833	-0.947899	-0.354622
C104	C	1.563833	-0.447899	0.145378
C105	C	1.110672	-0.527481	-0.307533
C106	C	1.610672	-0.027481	0.192467
C107	C	1.110636	-0.472875	-0.307524
C108	C	1.610636	0.027125	0.192476
C109	C	1.016519	-0.472839	-0.401570
C110	C	1.516519	0.027161	0.098430
C111	C	1.016552	-0.527439	-0.401576
C112	C	1.516552	-0.027439	0.098424
C113	C	1.063634	-0.554759	-0.354555
C114	C	1.563634	-0.054759	0.145445
O115	O	0.976593	-0.613804	-0.441537
O116	O	1.476593	-0.113804	0.058463
O117	O	1.150752	-0.613921	-0.267568
O118	O	1.650752	-0.113921	0.232432
C119	C	1.255628	-0.251606	-0.354585
C120	C	1.755628	0.248394	0.145415
C121	C	1.337427	-0.251610	-0.354594
C122	C	1.837427	0.248390	0.145406
C123	C	1.063857	-0.251415	-0.546517
C124	C	1.563857	0.248585	-0.046517
C125	C	1.063934	-0.251338	-0.628316
C126	C	1.563934	0.248662	-0.128316
C127	C	1.063819	-0.115223	-0.354614
C128	C	1.563819	0.384777	0.145386
C129	C	1.063881	-0.057109	-0.354635
C130	C	1.563881	0.442891	0.145365
C131	C	1.063536	-0.251739	-0.163357
C132	C	1.563536	0.248261	0.336643
C133	C	1.063601	-0.251669	-0.081558
C134	C	1.563601	0.248331	0.418442
C135	C	1.016430	-0.218278	0.183457
C136	C	1.516430	0.281722	0.683457
C137	C	1.016372	-0.218335	0.106599
C138	C	1.516372	0.281665	0.606599
C139	C	1.111107	-0.284733	0.106674
C140	C	1.611107	0.215267	0.606674
C141	C	1.111161	-0.284678	0.183531
C142	C	1.611161	0.215322	0.683531
C143	C	1.063824	-0.251448	0.221921
C144	C	1.563824	0.248552	0.721921
C145	C	1.063711	-0.251559	0.068205
C146	C	1.563711	0.248441	0.568205
C147	C	1.063649	-0.251621	-0.015129
C148	C	1.563649	0.248379	0.484871
C149	C	1.063886	-0.251386	0.305259
C150	C	1.563886	0.248614	0.805259
H151	H	0.494382	-0.312280	-0.439818
H152	H	0.994382	0.187720	0.060182
H153	H	0.633723	-0.190916	-0.269330
H154	H	1.133723	0.309084	0.230670
C155	C	1.162657	-0.945220	-0.255864
C156	C	1.662657	-0.445220	0.244136
N157	N	1.201642	-0.922626	-0.216896
N158	N	1.701642	-0.422626	0.283104
H159	H	0.494281	-0.190927	-0.269347
H160	H	0.994281	0.309073	0.230653
H161	H	0.977779	-0.191325	0.075285
H162	H	1.477779	0.308675	0.575285
H163	H	0.633809	-0.312278	-0.439802
H164	H	1.133809	0.187722	0.060198
H165	H	1.149648	-0.311788	0.075407
H166	H	1.649648	0.188212	0.575407
C167	C	0.964746	-0.442774	-0.453288
C168	C	1.464746	0.057226	0.046712
N169	N	0.925755	-0.420127	-0.492247
N170	N	1.425755	0.079873	0.007753
C171	C	0.965047	-1.059782	-0.453379
C172	C	1.465047	-0.559782	0.046621
N173	N	0.926063	-1.082376	-0.492348
N174	N	1.426063	-0.582376	0.007652
H175	H	0.977885	-0.191219	0.214712
H176	H	1.477885	0.308781	0.714712
C177	C	1.162387	-0.442873	-0.255780
C178	C	1.662387	0.057127	0.244220
N179	N	1.201365	-0.420277	-0.216808
N180	N	1.701365	0.079723	0.283192
C181	C	1.162461	-0.557525	-0.255803
C182	C	1.662461	-0.057525	0.244197
N183	N	1.201465	-0.580153	-0.216836
N184	N	1.701465	-0.080153	0.283164
C185	C	1.163314	-0.321160	0.225843
C186	C	1.663314	0.178840	0.725843
N187	N	1.202597	-0.348635	0.257713
N188	N	1.702597	0.151365	0.757713
C189	C	1.209646	-0.808718	-0.208823
C190	C	1.709646	-0.308718	0.291177
N191	N	1.248647	-0.831345	-0.169851
N192	N	1.748647	-0.331345	0.330149
C193	C	1.209581	-0.694073	-0.208798
C194	C	1.709581	-0.194073	0.291202
N195	N	1.248558	-0.671481	-0.169820
N196	N	1.748558	-0.171481	0.330180
H197	H	1.149258	-1.052079	-0.269325
H198	H	1.649258	-0.552079	0.230675
C199	C	0.965006	-0.945131	-0.453381
C200	C	1.465006	-0.445131	0.046619
N201	N	0.926009	-0.922501	-0.492353
N202	N	1.426009	-0.422501	0.007647
C203	C	0.917887	-0.808574	-0.500393
C204	C	1.417887	-0.308574	-0.000393
N205	N	0.878906	-0.831165	-0.539368
N206	N	1.378906	-0.331165	-0.039368
C207	C	0.917837	-0.693924	-0.500373
C208	C	1.417837	-0.193924	-0.000373
N209	N	0.878834	-0.671291	-0.539335
N210	N	1.378834	-0.171291	-0.039335
H211	H	0.978247	-0.549650	-0.439875
H212	H	1.478247	-0.049650	0.060125
