data_functionalizedCrystal
_audit_creation_method	'MofGen! by Chris Wilmer'
_symmetry_space_group_name_H-M	'P1'
_symmetry_Int_Tables_number	1
_symmetry_cell_setting	triclinic
loop_
_symmetry_equiv_pos_as_xyz
  x,y,z
_cell_length_a	17.038272
_cell_length_b	17.038272
_cell_length_c	16.098538
_cell_angle_alpha	92.930266
_cell_angle_beta	92.920305
_cell_angle_gamma	88.888444
loop_
_atom_site_label
_atom_site_type_symbol
_atom_site_fract_x
_atom_site_fract_y
_atom_site_fract_z
O1	O	0.167266	-1.052033	-0.069152
O2	O	0.667266	-0.552033	0.430848
O3	O	0.164557	-0.824222	-0.069177
O4	O	0.664557	-0.324222	0.430823
O5	O	0.052006	-0.936773	-0.069158
O6	O	0.552006	-0.436773	0.430842
O7	O	0.279817	-0.939482	-0.069171
O8	O	0.779817	-0.439482	0.430829
O9	O	0.058553	-0.930197	0.069354
O10	O	0.558553	-0.430197	0.569354
O11	O	0.171104	-0.817646	0.069335
O12	O	0.671104	-0.317646	0.569335
O13	O	0.173813	-1.045456	0.069359
O14	O	0.673813	-0.545456	0.569359
Zn15	Zn	0.173498	-0.930507	0.091339
Zn16	Zn	0.673498	-0.430507	0.591339
Zn17	Zn	0.164872	-0.939172	-0.091156
Zn18	Zn	0.664872	-0.439172	0.408844
O19	O	0.286364	-0.932905	0.069341
O20	O	0.786364	-0.432905	0.569341
C21	C	0.165367	-0.791641	0.000076
C22	C	0.665367	-0.291641	0.500076
C23	C	0.158019	-0.704358	0.000067
C24	C	0.658019	-0.204358	0.500067
C25	C	0.025987	-0.931022	0.000097
C26	C	0.525987	-0.431022	0.500097
C27	C	-0.061297	-0.923674	0.000096
C28	C	0.438703	-0.423674	0.500096
C29	C	0.173002	-1.078037	0.000105
C30	C	0.673002	-0.578037	0.500105
C31	C	0.180351	-1.165320	0.000108
C32	C	0.680351	-0.665320	0.500108
C33	C	-0.106906	-0.991137	0.000104
C34	C	0.393094	-0.491137	0.500104
C35	C	-0.188918	-0.984229	0.000096
C36	C	0.311082	-0.484229	0.500096
C37	C	-0.225320	-0.909856	0.000085
C38	C	0.274680	-0.409856	0.500085
C39	C	-0.179705	-0.842388	0.000074
C40	C	0.320295	-0.342388	0.500074
C41	C	-0.097694	-0.849297	0.000077
C42	C	0.402306	-0.349297	0.500077
C43	C	-0.472708	-0.885446	0.000071
C44	C	0.027292	-0.385446	0.500071
C45	C	-0.554725	-0.878541	0.000071
C46	C	-0.054725	-0.378541	0.500071
C47	C	-0.563932	-1.020383	0.000091
C48	C	-0.063932	-0.520383	0.500091
C49	C	-0.481920	-1.027286	0.000098
C50	C	0.018080	-0.527286	0.500098
C51	C	-0.436312	-0.959818	0.000083
C52	C	0.063688	-0.459818	0.500083
C53	C	-0.309149	-0.902792	0.000079
C54	C	0.190851	-0.402792	0.500079
C55	C	-0.352485	-0.966882	0.000084
C56	C	0.147515	-0.466882	0.500084
C57	C	0.312383	-0.938656	0.000083
C58	C	0.812383	-0.438656	0.500083
C59	C	0.399666	-0.946005	0.000079
C60	C	0.899666	-0.446005	0.500079
N61	N	0.179385	-0.924599	0.215887
N62	N	0.679385	-0.424599	0.715887
C63	C	0.225482	-0.658749	0.000064
C64	C	0.725482	-0.158749	0.500064
C65	C	0.218574	-0.576737	0.000075
C66	C	0.718574	-0.076737	0.500075
C67	C	0.144201	-0.540335	0.000085
C68	C	0.644201	-0.040335	0.500085
C69	C	0.076733	-0.585950	0.000090
C70	C	0.576733	-0.085950	0.500090
C71	C	0.083642	-0.667961	0.000084
C72	C	0.583642	-0.167961	0.500084
C73	C	0.119792	-0.292946	0.000108
C74	C	0.619792	0.207054	0.500108
C75	C	0.112887	-0.210929	0.000112
C76	C	0.612887	0.289071	0.500112
C77	C	0.254729	-0.201722	0.000098
C78	C	0.754729	0.298278	0.500098
C79	C	0.261632	-0.283734	0.000088
C80	C	0.761632	0.216266	0.500088
C81	C	0.194164	-0.329342	0.000098
C82	C	0.694164	0.170658	0.500098
C83	C	0.137138	-0.456505	0.000094
C84	C	0.637138	0.043495	0.500094
C85	C	0.201228	-0.413170	0.000094
C86	C	0.701228	0.086830	0.500094
N87	N	0.158979	-0.945085	-0.215705
N88	N	0.658979	-0.445085	0.284295
C89	C	0.131633	-0.972390	0.259480
C90	C	0.631633	-0.472390	0.759480
C91	C	0.135759	-0.968265	0.346668
C92	C	0.635759	-0.468265	0.846668
C93	C	0.187642	-0.916352	0.390262
C94	C	0.687642	-0.416352	0.890262
C95	C	0.235395	-0.868556	0.346663
C96	C	0.735395	-0.368556	0.846663
C97	C	0.231265	-0.872678	0.259476
C98	C	0.731265	-0.372678	0.759476
C99	C	0.202602	-0.901410	0.653510
C100	C	0.702602	-0.401410	1.153510
C101	C	0.206731	-0.897294	0.740702
C102	C	0.706731	-0.397294	1.240702
C103	C	0.107093	-0.997003	0.740702
C104	C	0.607093	-0.497003	1.240702
C105	C	0.102971	-1.001123	0.653513
C106	C	0.602971	-0.501123	1.153513
C107	C	0.150721	-0.953324	0.609922
C108	C	0.650721	-0.453324	1.109922
C109	C	0.191862	-0.912136	0.479383
C110	C	0.691862	-0.412136	0.979383
C111	C	0.146496	-0.957536	0.520803
C112	C	0.646496	-0.457536	1.020803
H113	H	-0.226050	-1.039165	0.000104
H114	H	0.273950	-0.539165	0.500104
O115	O	0.242158	-0.861671	0.521826
O116	O	0.742158	-0.361671	1.021826
C117	C	0.199232	-0.808033	0.572255
C118	C	0.699232	-0.308033	1.072255
H119	H	0.140493	-0.834607	0.585311
H120	H	0.640493	-0.334607	1.085311
H121	H	0.234075	-0.794898	0.633567
H122	H	0.734075	-0.294898	1.133567
H123	H	0.188419	-0.751222	0.538668
H124	H	0.688419	-0.251222	1.038668
H125	H	0.089389	-1.014666	0.223992
H126	H	0.589389	-0.514666	0.723992
O127	O	0.095975	-1.007874	0.478514
O128	O	0.595975	-0.507874	0.978514
C129	C	0.018396	-0.988938	0.499869
C130	C	0.518396	-0.488938	0.999869
H131	H	0.014939	-0.924902	0.523841
H132	H	0.514939	-0.424902	1.023841
H133	H	-0.023141	-0.998063	0.442548
H134	H	0.476859	-0.498063	0.942548
H135	H	0.000656	-1.028534	0.550485
H136	H	0.500656	-0.528534	1.050485
H137	H	-0.452287	-1.087848	0.000107
H138	H	0.047713	-0.587848	0.500107
H139	H	0.261782	-0.442811	0.000091
H140	H	0.761782	0.057189	0.500091
H141	H	-0.077274	-1.051699	0.000118
H142	H	0.422726	-0.551699	0.500118
O143	O	-0.428321	-0.819964	0.000172
O144	O	0.071679	-0.319964	0.500172
C145	C	-0.377232	-0.816298	0.071918
C146	C	0.122768	-0.316298	0.571918
H147	H	-0.367815	-0.877772	0.095842
H148	H	0.132185	-0.377772	0.595842
H149	H	-0.318375	-0.791907	0.055779
H150	H	0.181625	-0.291907	0.555779
H151	H	-0.404192	-0.776252	0.122146
H152	H	0.095808	-0.276252	0.622146
H153	H	0.052321	-0.181294	0.000118
H154	H	0.552321	0.318706	0.500118
H155	H	0.068216	-1.035918	0.776202
H156	H	0.568216	-0.535918	1.276202
H157	H	-0.338796	-0.842238	0.000072
H158	H	0.161204	-0.342238	0.500072
H159	H	-0.601075	-1.075312	0.000101
H160	H	-0.101075	-0.575312	0.500101
H161	H	0.241484	-0.862492	0.618024
H162	H	0.741484	-0.362492	1.118024
O163	O	0.333940	-0.318964	0.000120
O164	O	0.833940	0.181036	0.500120
C165	C	0.392005	-0.261122	0.000100
C166	C	0.892005	0.238878	0.500100
H167	H	0.367530	-0.202771	0.026328
H168	H	0.867530	0.297229	0.526328
H169	H	0.445502	-0.279694	0.040309
H170	H	0.945502	0.220306	0.540309
H171	H	0.409935	-0.254129	-0.066352
H172	H	0.909935	0.245871	0.433648
O173	O	-0.589963	-0.806234	0.000014
O174	O	-0.089963	-0.306234	0.500014
C175	C	-0.532123	-0.748164	0.000019
C176	C	-0.032123	-0.248164	0.500019
H177	H	-0.476249	-0.775125	-0.026197
H178	H	0.023751	-0.275125	0.473803
H179	H	-0.554500	-0.698485	-0.040209
H180	H	-0.054500	-0.198485	0.459791
H181	H	-0.518849	-0.723927	0.066464
H182	H	-0.018849	-0.223927	0.566464
O183	O	-0.215035	-0.770132	-0.000086
O184	O	0.284965	-0.270132	0.499914
C185	C	-0.195565	-0.732076	-0.071818
C186	C	0.304435	-0.232076	0.428182
H187	H	-0.178082	-0.777853	-0.121951
H188	H	0.321918	-0.277853	0.378049
H189	H	-0.248546	-0.696509	-0.095902
H190	H	0.251454	-0.196509	0.404098
H191	H	-0.144324	-0.691095	-0.055605
H192	H	0.355676	-0.191095	0.444395
O193	O	-0.053360	-0.783794	-0.000076
O194	O	0.446640	-0.283794	0.499924
C195	C	-0.009019	-0.786966	-0.071803
C196	C	0.490981	-0.286966	0.428197
H197	H	-0.038716	-0.827510	-0.121937
H198	H	0.461284	-0.327510	0.378063
H199	H	-0.005150	-0.725464	-0.095891
H200	H	0.494850	-0.225464	0.404109
H201	H	0.052663	-0.810486	-0.055581
H202	H	0.552663	-0.310486	0.444419
H203	H	0.064854	-0.330070	0.000117
H204	H	0.564854	0.169930	0.500117
H205	H	0.309658	-0.164579	0.000092
H206	H	0.809658	0.335421	0.500092
O207	O	-0.317043	-1.039088	-0.000017
O208	O	0.182957	-0.539088	0.499983
C209	C	-0.273282	-1.050742	-0.071762
C210	C	0.226718	-0.550742	0.428238
H211	H	-0.258135	-0.991338	-0.095691
H212	H	0.241865	-0.491338	0.404309
H213	H	-0.216795	-1.084841	-0.055621
H214	H	0.283205	-0.584841	0.444379
H215	H	-0.309529	-1.085471	-0.121988
H216	H	0.190471	-0.585471	0.378012
H217	H	0.016177	-0.556305	0.000110
H218	H	0.516177	-0.056305	0.500110
H219	H	0.248983	-0.855019	0.776192
H220	H	0.748983	-0.355019	1.276192
O221	O	0.089352	-1.014779	0.388885
O222	O	0.589352	-0.514779	0.888885
C223	C	0.042668	-1.061475	0.331713
C224	C	0.542668	-0.561475	0.831713
H225	H	0.071980	-1.067429	0.269556
H226	H	0.571980	-0.567429	0.769556
H227	H	0.036104	-1.122208	0.356894
H228	H	0.536104	-0.622208	0.856894
H229	H	-0.017829	-1.032550	0.322458
H230	H	0.482171	-0.532550	0.822458
H231	H	0.286045	-0.688381	0.000056
H232	H	0.786045	-0.188381	0.500056
H233	H	0.273510	-0.539605	0.000072
H234	H	0.773510	-0.039605	0.500072
O235	O	0.018138	-0.712294	0.000231
O236	O	0.518138	-0.212294	0.500231
C237	C	0.021291	-0.756627	0.071955
C238	C	0.521291	-0.256627	0.571955
H239	H	0.061825	-0.726925	0.122093
H240	H	0.561825	-0.226925	0.622093
H241	H	-0.040216	-0.760491	0.096039
H242	H	0.459784	-0.260491	0.596039
H243	H	0.044813	-0.818312	0.055731
H244	H	0.544813	-0.318312	0.555731
O245	O	0.285687	-0.818084	0.389101
O246	O	0.785687	-0.318084	0.889101
C247	C	0.242765	-0.764446	0.439534
C248	C	0.742765	-0.264446	0.939534
H249	H	0.184030	-0.791023	0.452601
H250	H	0.684030	-0.291023	0.952601
H251	H	0.277615	-0.751305	0.500841
H252	H	0.777615	-0.251305	1.000841
H253	H	0.231943	-0.707637	0.405945
H254	H	0.731943	-0.207637	0.905945
O255	O	0.064846	-0.421237	-0.000017
O256	O	0.564846	0.078763	0.499983
C257	C	0.020008	-0.447452	-0.071768
C258	C	0.520008	0.052548	0.428232
H259	H	0.044052	-0.506822	-0.095688
H260	H	0.544052	-0.006822	0.404312
H261	H	-0.043875	-0.453698	-0.055636
H262	H	0.456125	0.046302	0.444364
H263	H	0.023587	-0.403034	-0.121996
H264	H	0.523587	0.096966	0.378004
O265	O	0.052501	-1.051567	0.611298
O266	O	0.552501	-0.551567	1.111298
C267	C	0.011252	-1.092879	0.668472
C268	C	0.511252	-0.592879	1.168472
H269	H	0.011147	-1.057686	0.730626
H270	H	0.511147	-0.557686	1.230626
H271	H	-0.051855	-1.101883	0.643289
H272	H	0.448145	-0.601883	1.143289
H273	H	0.041105	-1.152474	0.677731
H274	H	0.541105	-0.652474	1.177731
O275	O	0.277733	-0.826225	0.217256
O276	O	0.777733	-0.326225	0.717256
C277	C	0.324399	-0.779508	0.274427
C278	C	0.824399	-0.279508	0.774427
H279	H	0.330392	-0.808827	0.336572
H280	H	0.830392	-0.308827	0.836572
H281	H	0.385118	-0.772885	0.249225
H282	H	0.885118	-0.272885	0.749225
H283	H	0.295423	-0.719037	0.283713
H284	H	0.795423	-0.219037	0.783713
