data_functionalizedCrystal
_audit_creation_method	'MofGen! by Chris Wilmer'
_symmetry_space_group_name_H-M	'P1'
_symmetry_Int_Tables_number	1
_symmetry_cell_setting	triclinic
loop_
_symmetry_equiv_pos_as_xyz
  x,y,z
_cell_length_a	14.044220
_cell_length_b	10.540539
_cell_length_c	12.503572
_cell_angle_alpha	93.560877
_cell_angle_beta	86.164750
_cell_angle_gamma	88.857185
loop_
_atom_site_label
_atom_site_type_symbol
_atom_site_fract_x
_atom_site_fract_y
_atom_site_fract_z
O1	O	1.265193	0.299541	-0.089197
O2	O	0.989150	0.288487	-0.089224
O3	O	1.133469	0.109945	-0.089208
O4	O	1.120874	0.478084	-0.089212
O5	O	1.122616	0.123396	0.089432
O6	O	0.978297	0.301939	0.089417
O7	O	1.254339	0.312993	0.089444
Cu8	Cu	1.115327	0.308694	0.105742
Cu9	Cu	1.128163	0.292786	-0.105522
O10	O	1.110020	0.491536	0.089428
C11	C	0.948377	0.290375	0.000093
C12	C	0.843054	0.275945	0.000082
C13	C	0.650213	0.249566	0.000104
C14	C	0.593272	0.351908	0.000107
C15	C	0.485969	0.337231	0.000119
C16	C	0.757526	0.264241	0.000092
C17	C	1.127098	0.069272	0.000110
C18	C	1.124272	-0.071962	0.000104
C19	C	1.016008	-0.266368	-0.000308
C20	C	1.018848	-0.119430	0.000095
C21	C	1.168809	-0.120809	0.102122
C22	C	1.165206	-0.267711	0.102207
C23	C	1.179693	-0.283309	-0.100941
C24	C	1.180746	-0.136331	-0.102289
C25	C	1.295113	0.311105	0.000125
C26	C	1.400436	0.325535	0.000129
C27	C	1.116392	0.532208	0.000108
C28	C	1.119218	0.673442	0.000107
N29	N	1.106306	0.319883	0.254333
N30	N	1.137191	0.281588	-0.254113
C31	C	1.093036	0.336354	0.473447
C32	C	1.150458	0.265121	0.526780
C33	C	1.143074	0.274286	0.648703
C34	C	1.100419	0.327191	0.351513
H35	H	0.625111	0.450550	0.000101
H36	H	0.618375	0.150932	0.000110
H37	H	0.978808	-0.304687	-0.073467
O38	O	0.976610	-0.080156	-0.087262
C39	C	1.026005	-0.134381	-0.181515
H40	H	1.066182	-0.224286	-0.162261
H41	H	1.078897	-0.063398	-0.214349
C42	C	0.904891	-0.057632	-0.289775
C43	C	0.954231	-0.168061	-0.266129
H44	H	0.860619	-0.078402	-0.341972
H45	H	0.871614	-0.021095	-0.226276
H46	H	0.948977	0.001510	-0.317131
H47	H	0.910146	-0.227194	-0.238761
H48	H	0.987499	-0.204609	-0.329626
H49	H	1.257982	-0.104802	-0.108442
H50	H	1.148208	-0.104908	-0.177759
O51	O	0.961396	-0.300931	0.086555
C52	C	1.016042	-0.379347	0.147679
H53	H	1.095110	-0.360896	0.130336
H54	H	1.001532	-0.483350	0.125359
C55	C	0.891417	-0.372100	0.289325
C56	C	0.988529	-0.349430	0.268031
H57	H	0.874443	-0.353651	0.363564
H58	H	0.854598	-0.319273	0.248144
H59	H	0.879337	-0.458769	0.270717
H60	H	1.000605	-0.262759	0.286626
H61	H	1.025349	-0.402242	0.309219
O62	O	0.965463	-0.068024	0.087442
C63	C	0.870424	-0.107541	0.082819
H64	H	0.868878	-0.199616	0.030140
H65	H	0.826136	-0.030793	0.047326
C66	C	0.830420	-0.016918	0.261576
C67	C	0.828522	-0.130011	0.196883
H68	H	0.804570	-0.030773	0.331936
H69	H	0.894449	0.009710	0.264690
H70	H	0.793515	0.047028	0.231986
H71	H	0.865436	-0.193950	0.226466
H72	H	0.764498	-0.156651	0.193776
H73	H	1.205164	0.197256	0.480873
O74	O	1.115087	-0.299106	0.193240
C75	C	1.173856	-0.372943	0.253632
H76	H	1.251961	-0.353574	0.231005
H77	H	1.159858	-0.478061	0.235845
C78	C	1.055523	-0.361557	0.401987
C79	C	1.151453	-0.337759	0.374202
H80	H	1.041702	-0.339859	0.476360
H81	H	1.015927	-0.311815	0.361298
H82	H	1.043870	-0.449155	0.387155
H83	H	1.163101	-0.250160	0.389021
H84	H	1.191050	-0.387485	0.414896
H85	H	1.255882	-0.322888	-0.101619
O86	O	1.255373	-0.315251	0.107613
C87	C	1.313049	-0.280390	0.018011
H88	H	1.280703	-0.192146	-0.015141
H89	H	1.317256	-0.361802	-0.046690
C90	C	1.453787	-0.359920	0.093036
C91	C	1.414064	-0.251531	0.052324
H92	H	1.516100	-0.342123	0.114199
H93	H	1.414931	-0.383411	0.153401
H94	H	1.457285	-0.427753	0.039111
H95	H	1.410556	-0.183705	0.106252
H96	H	1.452923	-0.228027	-0.008032
O97	O	1.260871	-0.084310	0.106529
C98	C	1.286463	-0.013940	0.017158
H99	H	1.219374	0.028149	-0.014765
H100	H	1.325456	-0.079150	-0.048426
C101	C	1.434775	0.042465	0.090461
C102	C	1.352374	0.094169	0.051258
H103	H	1.475435	0.109148	0.111493
H104	H	1.417535	-0.004948	0.150670
H105	H	1.467257	-0.011876	0.035800
H106	H	1.319887	0.148495	0.105922
H107	H	1.369610	0.141594	-0.008941
O108	O	1.121127	-0.067572	0.192656
C109	C	1.024363	-0.100959	0.193813
H110	H	1.017302	-0.191921	0.140968
H111	H	0.980828	-0.020930	0.161804
C112	C	0.995684	-0.010941	0.374606
C113	C	0.987013	-0.122668	0.309707
H114	H	0.972642	-0.024326	0.446095
H115	H	1.060875	0.011558	0.373826
H116	H	0.959405	0.055740	0.347919
H117	H	1.023301	-0.189341	0.336387
H118	H	0.921827	-0.145178	0.310494
O119	O	1.144447	-0.332061	-0.193088
C120	C	1.064559	-0.406137	-0.167615
H121	H	1.032371	-0.374477	-0.083864
H122	H	1.087696	-0.510595	-0.169650
C123	C	1.029053	-0.427598	-0.353040
C124	C	0.989514	-0.388705	-0.250179
H125	H	0.982763	-0.416852	-0.403972
H126	H	1.082877	-0.377696	-0.370203
H127	H	1.048333	-0.514645	-0.354721
H128	H	0.970246	-0.301657	-0.248497
H129	H	0.935684	-0.438592	-0.233018
O130	O	1.027650	0.417173	0.528157
C131	C	0.935198	0.384038	0.500764
H132	H	0.935759	0.279992	0.469757
H133	H	0.911781	0.446520	0.435597
C134	C	0.864394	0.531782	0.638839
C135	C	0.865082	0.403987	0.600764
H136	H	0.821141	0.544093	0.700521
H137	H	0.926681	0.554110	0.657292
H138	H	0.844882	0.583835	0.584524
H139	H	0.884605	0.351938	0.655074
H140	H	0.802796	0.381651	0.582322
