data_functionalizedCrystal
_audit_creation_method	'MofGen! by Chris Wilmer'
_symmetry_space_group_name_H-M	'P1'
_symmetry_Int_Tables_number	1
_symmetry_cell_setting	triclinic
loop_
_symmetry_equiv_pos_as_xyz
  x,y,z
_cell_length_a	19.288864
_cell_length_b	17.766277
_cell_length_c	19.288862
_cell_angle_alpha	89.986134
_cell_angle_beta	96.864237
_cell_angle_gamma	90.023209
loop_
_atom_site_label
_atom_site_type_symbol
_atom_site_fract_x
_atom_site_fract_y
_atom_site_fract_z
O1	O	0.921352	0.062848	-0.086649
O2	O	1.254686	0.396181	0.246684
O3	O	1.588019	0.729515	0.580018
O4	O	0.719092	0.062798	-0.098338
O5	O	1.052425	0.396131	0.234996
O6	O	1.385758	0.729465	0.568329
O7	O	0.826067	0.062805	0.008637
O8	O	1.159401	0.396139	0.341971
O9	O	1.492734	0.729472	0.675304
O10	O	0.814377	0.062841	-0.193624
O11	O	1.147710	0.396174	0.139710
O12	O	1.481043	0.729507	0.473043
O13	O	0.826048	-0.062383	0.008643
O14	O	1.159382	0.270950	0.341976
O15	O	1.492715	0.604283	0.675309
O16	O	0.719073	-0.062390	-0.098332
O17	O	1.052406	0.270943	0.235001
O18	O	1.385740	0.604276	0.568334
O19	O	0.921334	-0.062341	-0.086643
O20	O	1.254667	0.270993	0.246690
O21	O	1.588000	0.604326	0.580023
Cu22	Cu	0.820202	-0.073796	-0.092487
Cu23	Cu	1.153535	0.259537	0.240846
Cu24	Cu	1.486868	0.592870	0.574179
Cu25	Cu	0.820224	0.074254	-0.092494
Cu26	Cu	1.153557	0.407587	0.240840
Cu27	Cu	1.486890	0.740920	0.574173
O28	O	0.814358	-0.062348	-0.193618
O29	O	1.147691	0.270986	0.139715
O30	O	1.481025	0.604319	0.473048
C31	C	0.693206	0.000197	-0.097959
C32	C	1.026539	0.333530	0.235375
C33	C	1.359872	0.666864	0.568708
C34	C	0.616102	0.000177	-0.096830
C35	C	0.949436	0.333511	0.236504
C36	C	1.282769	0.666844	0.569837
N37	N	0.820191	-0.177927	-0.092482
N38	N	1.153524	0.155407	0.240851
N39	N	1.486858	0.488740	0.574184
C40	C	0.571405	0.000200	-0.159598
C41	C	0.904739	0.333533	0.173736
C42	C	1.238072	0.666867	0.507069
C43	C	0.498958	0.000208	-0.158537
C44	C	0.832292	0.333542	0.174796
C45	C	1.165625	0.666875	0.508130
C46	C	0.471211	0.000209	-0.094705
C47	C	0.804545	0.333542	0.238629
C48	C	1.137878	0.666875	0.571962
C49	C	0.515918	0.000181	-0.031929
C50	C	0.849251	0.333515	0.301405
C51	C	1.182585	0.666848	0.634738
C52	C	0.588363	0.000166	-0.032991
C53	C	0.921697	0.333499	0.300342
C54	C	1.255030	0.666832	0.633676
C55	C	0.362956	0.044084	-0.044528
C56	C	0.696290	0.377417	0.288806
C57	C	1.029623	0.710751	0.622139
C58	C	0.290512	0.044104	-0.043468
C59	C	0.623845	0.377438	0.289866
C60	C	0.957179	0.710771	0.623199
C61	C	0.247766	0.000254	-0.091425
C62	C	0.581099	0.333587	0.241908
C63	C	0.914432	0.666920	0.575241
C64	C	0.277472	-0.043608	-0.140454
C65	C	0.610805	0.289725	0.192879
C66	C	0.944138	0.623059	0.526212
C67	C	0.349917	-0.043624	-0.141517
C68	C	0.683250	0.289710	0.191816
C69	C	1.016584	0.623043	0.525150
C70	C	0.392657	0.000225	-0.093546
C71	C	0.725991	0.333558	0.239788
C72	C	1.059324	0.666892	0.573121
C73	C	0.124513	0.000284	-0.153047
C74	C	0.457846	0.333618	0.180286
C75	C	0.791180	0.666951	0.513619
C76	C	0.052065	0.000288	-0.151984
C77	C	0.385398	0.333621	0.181349
C78	C	0.718732	0.666954	0.514683
C79	C	0.069026	0.000268	-0.025374
C80	C	0.402360	0.333602	0.307960
C81	C	0.735693	0.666935	0.641293
C82	C	0.141473	0.000257	-0.026439
C83	C	0.474806	0.333591	0.306894
C84	C	0.808139	0.666924	0.640228
C85	C	0.169211	0.000269	-0.090278
C86	C	0.502545	0.333602	0.243056
C87	C	0.835878	0.666936	0.576389
C88	C	0.867575	-0.217310	-0.045137
C89	C	1.200908	0.116023	0.288196
C90	C	1.534242	0.449356	0.621530
C91	C	0.867579	-0.296112	-0.045134
C92	C	1.200912	0.037221	0.288199
C93	C	1.534246	0.370555	0.621533
C94	C	0.820206	-0.335527	-0.092488
C95	C	1.153539	-0.002194	0.240845
C96	C	1.486872	0.331140	0.574179
C97	C	0.772813	-0.296134	-0.139837
C98	C	1.106146	0.037199	0.193497
C99	C	1.439479	0.370533	0.526830
C100	C	0.772805	-0.217334	-0.139834
C101	C	1.106139	0.116000	0.193499
C102	C	1.439472	0.449333	0.526833
C103	C	0.810906	-0.460355	-0.155776
C104	C	1.144240	-0.127022	0.177558
C105	C	1.477573	0.206311	0.510891
C106	C	0.810918	-0.539154	-0.155779
C107	C	1.144252	-0.205821	0.177554
C108	C	1.477585	0.127512	0.510887
C109	C	0.820224	-0.578574	-0.092496
C110	C	1.153558	-0.245240	0.240837
C111	C	1.486891	0.088093	0.574170
C112	C	0.829533	-0.539184	-0.029207
C113	C	1.162866	-0.205851	0.304127
C114	C	1.496199	0.127482	0.637460
C115	C	0.829525	-0.460384	-0.029204
C116	C	1.162859	-0.127051	0.304129
C117	C	1.496192	0.206283	0.637463
C118	C	0.820208	-0.420973	-0.092496
C119	C	1.153541	-0.087640	0.240837
C120	C	1.486875	0.245694	0.574171
C121	C	0.867615	-0.703403	-0.045144
C122	C	1.200949	-0.370070	0.288190
C123	C	1.534282	-0.036737	0.621523
C124	C	0.867614	-0.782206	-0.045139
C125	C	1.200948	-0.448873	0.288194
C126	C	1.534281	-0.115540	0.621527
C127	C	0.772851	-0.782227	-0.139848
C128	C	1.106185	-0.448893	0.193485
C129	C	1.439518	-0.115560	0.526818
C130	C	0.772849	-0.703425	-0.139846
C131	C	1.106182	-0.370092	0.193487
C132	C	1.439516	-0.036758	0.526820
C133	C	0.820234	-0.664018	-0.092495
C134	C	1.153568	-0.330685	0.240839
C135	C	1.486901	0.002649	0.574172
C136	C	0.947219	0.000262	-0.087022
C137	C	1.280553	0.333595	0.246311
C138	C	1.613886	0.666929	0.579644
C139	C	1.024323	0.000287	-0.088151
C140	C	1.357656	0.333620	0.245182
C141	C	1.690990	0.666953	0.578515
C142	C	0.825682	0.000207	0.034516
C143	C	1.159015	0.333541	0.367850
C144	C	1.492349	0.666874	0.701183
C145	C	0.824554	0.000197	0.111620
C146	C	1.157887	0.333531	0.444953
C147	C	1.491220	0.666864	0.778287
N148	N	0.820240	0.178384	-0.092493
N149	N	1.153573	0.511717	0.240840
N150	N	1.486906	0.845051	0.574174
C151	C	0.887322	0.000207	0.156316
C152	C	1.220655	0.333541	0.489650
C153	C	1.553989	0.666874	0.822983
C154	C	0.886262	0.000216	0.228764
C155	C	1.219595	0.333549	0.562097
C156	C	1.552928	0.666882	0.895430
C157	C	0.822430	0.000199	0.256511
C158	C	1.155763	0.333533	0.589844
C159	C	1.489097	0.666866	0.923178
C160	C	0.759653	0.000193	0.211805
C161	C	1.092987	0.333527	0.545138
C162	C	1.426320	0.666860	0.878472
C163	C	0.760715	0.000192	0.139359
C164	C	1.094049	0.333526	0.472693
C165	C	1.427382	0.666859	0.806026
C166	C	0.772245	-0.043669	0.364801
C167	C	1.105578	0.289665	0.698134
C168	C	1.438911	0.622998	1.031467
C169	C	0.771185	-0.043672	0.437245
C170	C	1.104519	0.289661	0.770578
C171	C	1.437852	0.622994	1.103912
C172	C	0.819152	0.000206	0.479957
C173	C	1.152485	0.333539	0.813290
C174	C	1.485819	0.666872	1.146624
C175	C	0.868190	0.044078	0.450217
C176	C	1.201523	0.377411	0.783550
C177	C	1.534857	0.710744	1.116884
C178	C	0.869252	0.044077	0.377771
C179	C	1.202585	0.377410	0.711105
C180	C	1.535918	0.710743	1.044438
C181	C	0.821271	0.000201	0.335065
C182	C	1.154605	0.333534	0.668399
C183	C	1.487938	0.666867	1.001732
C184	C	0.880775	0.000226	0.603209
C185	C	1.214109	0.333559	0.936543
C186	C	1.547442	0.666893	1.269876
C187	C	0.879713	0.000239	0.675658
C188	C	1.213046	0.333573	1.008991
C189	C	1.546379	0.666906	1.342324
C190	C	0.753102	0.000209	0.658697
C191	C	1.086436	0.333543	0.992031
C192	C	1.419769	0.666876	1.325364
C193	C	0.754167	0.000204	0.586251
C194	C	1.087500	0.333537	0.919584
C195	C	1.420834	0.666870	1.252917
C196	C	0.818005	0.000208	0.558511
C197	C	1.151339	0.333542	0.891845
C198	C	1.484672	0.666875	1.225178
C199	C	0.814745	0.000241	0.780503
C200	C	1.148079	0.333574	1.113836
C201	C	1.481412	0.666907	1.447170
C202	C	0.815880	0.000224	0.703400
C203	C	1.149213	0.333557	1.036733
C204	C	1.482547	0.666891	1.370067
H205	H	0.593985	0.000211	-0.211580
H206	H	0.927319	0.333544	0.121753
H207	H	1.260652	0.666878	0.455087
Cl208	Cl	0.442758	0.000235	-0.237451
Cl209	Cl	0.776091	0.333569	0.095882
Cl210	Cl	1.109424	0.666902	0.429215
Cl211	Cl	0.416687	0.099216	0.015768
Cl212	Cl	0.750021	0.432550	0.349102
Cl213	Cl	1.083354	0.765883	0.682435
Cl214	Cl	0.034151	0.000260	0.054873
Cl215	Cl	0.367485	0.333593	0.388207
Cl216	Cl	0.700818	0.666927	0.721540
Cl217	Cl	0.927154	-0.345631	0.014391
Cl218	Cl	1.260487	-0.012298	0.347724
Cl219	Cl	1.593820	0.321035	0.681058
Cl220	Cl	0.711939	-0.098837	0.311113
Cl221	Cl	1.045273	0.234496	0.644446
Cl222	Cl	1.378606	0.567829	0.977779
H223	H	0.734239	-0.328230	-0.178392
H224	H	1.067573	0.005104	0.154941
H225	H	1.400906	0.338437	0.488275
Cl226	Cl	0.713233	-0.167819	-0.199359
Cl227	Cl	1.046566	0.165514	0.133974
Cl228	Cl	1.379900	0.498847	0.467307
H229	H	0.493322	0.000192	0.020044
H230	H	0.826655	0.333525	0.353377
H231	H	1.159988	0.666859	0.686711
Cl232	Cl	0.681800	0.000179	0.083166
Cl233	Cl	1.015133	0.333513	0.416500
Cl234	Cl	1.348466	0.666846	0.749833
Cl235	Cl	0.841218	-0.410868	0.050356
Cl236	Cl	1.174552	-0.077535	0.383689
Cl237	Cl	1.507885	0.255798	0.717022
H238	H	0.932756	0.000233	0.580623
H239	H	1.266090	0.333567	0.913956
H240	H	1.599423	0.666900	1.247290
Cl241	Cl	0.159388	0.000291	-0.233300
Cl242	Cl	0.492721	0.333624	0.100033
Cl243	Cl	0.826055	0.666958	0.433367
H244	H	0.734267	-0.671357	-0.178402
H245	H	1.067600	-0.338023	0.154931
H246	H	1.400934	-0.004690	0.488264
H247	H	0.837110	-0.571278	0.022324
H248	H	1.170443	-0.237944	0.355658
H249	H	1.503776	0.095389	0.688991
H250	H	0.930828	0.000252	0.712049
H251	H	1.264162	0.333585	1.045383
H252	H	1.597495	0.666918	1.378716
H253	H	0.939304	0.000214	0.133736
H254	H	1.272637	0.333547	0.467069
H255	H	1.605971	0.666880	0.800403
Cl256	Cl	0.965176	0.000229	0.284964
Cl257	Cl	1.298510	0.333562	0.618297
Cl258	Cl	1.631843	0.666896	0.951630
Cl259	Cl	0.927181	-0.653862	0.014388
Cl260	Cl	1.260515	-0.320528	0.347721
Cl261	Cl	1.593848	0.012805	0.681054
H262	H	0.707681	0.000182	0.234402
H263	H	1.041014	0.333515	0.567735
H264	H	1.374348	0.666848	0.901068
H265	H	0.242669	-0.079316	-0.179506
H266	H	0.576002	0.254017	0.153828
H267	H	0.909335	0.587351	0.487161
Cl268	Cl	0.387260	-0.098765	-0.203147
Cl269	Cl	0.720593	0.234569	0.130186
Cl270	Cl	1.053927	0.567902	0.463519
Cl271	Cl	0.927140	-0.167771	0.014393
Cl272	Cl	1.260474	0.165563	0.347726
Cl273	Cl	1.593807	0.498896	0.681059
H274	H	0.015673	0.000302	-0.203099
H275	H	0.349006	0.333635	0.130234
H276	H	0.682339	0.666969	0.463567
H277	H	0.907249	0.079808	0.484992
H278	H	1.240582	0.413141	0.818325
H279	H	1.573915	0.746474	1.151659
Cl280	Cl	0.713291	-0.831771	-0.199374
Cl281	Cl	1.046624	-0.498438	0.133959
Cl282	Cl	1.379958	-0.165105	0.467293
H283	H	0.177866	0.000243	0.024674
H284	H	0.511199	0.333576	0.358007
H285	H	0.844533	0.666910	0.691340
Cl286	Cl	0.253174	0.099252	0.018162
Cl287	Cl	0.586507	0.432585	0.351495
Cl288	Cl	0.919841	0.765918	0.684828
H289	H	0.731253	-0.079391	0.461453
H290	H	1.064586	0.253942	0.794786
H291	H	1.397920	0.587275	1.128120
Cl292	Cl	0.799222	-0.588664	-0.235342
Cl293	Cl	1.132555	-0.255331	0.097991
Cl294	Cl	1.465888	0.078003	0.431325
Cl295	Cl	0.672855	0.000193	0.693573
Cl296	Cl	1.006189	0.333526	1.026906
Cl297	Cl	1.339522	0.666859	1.360240
H298	H	0.624756	0.000148	0.018124
H299	H	0.958090	0.333481	0.351457
H300	H	1.291423	0.666814	0.684790
H301	H	0.906198	-0.814273	-0.006581
H302	H	1.239531	-0.480940	0.326752
H303	H	1.572865	-0.147607	0.660085
Cl304	Cl	0.799272	-0.410808	-0.235341
Cl305	Cl	1.132605	-0.077475	0.097992
Cl306	Cl	1.465938	0.255859	0.431325
H307	H	0.909179	0.079800	0.353560
H308	H	1.242512	0.413134	0.686893
H309	H	1.575845	0.746467	1.020227
Cl310	Cl	0.675253	0.000188	0.530058
Cl311	Cl	1.008587	0.333521	0.863391
Cl312	Cl	1.341920	0.666854	1.196725
