data_functionalizedCrystal
_audit_creation_method	'MofGen! by Chris Wilmer'
_symmetry_space_group_name_H-M	'P1'
_symmetry_Int_Tables_number	1
_symmetry_cell_setting	triclinic
loop_
_symmetry_equiv_pos_as_xyz
  x,y,z
_cell_length_a	12.759401
_cell_length_b	12.645330
_cell_length_c	12.759393
_cell_angle_alpha	90.030048
_cell_angle_beta	90.018567
_cell_angle_gamma	90.016736
loop_
_atom_site_label
_atom_site_type_symbol
_atom_site_fract_x
_atom_site_fract_y
_atom_site_fract_z
Zn1	Zn	1.606234	-0.422004	0.593994
Zn2	Zn	1.606119	-0.599308	0.418319
Zn3	Zn	1.430536	-0.422056	0.418334
Zn4	Zn	1.430515	-0.599223	0.593960
O5	O	1.518351	-0.510648	0.506152
O6	O	1.753239	-0.445537	0.570699
O7	O	1.582788	-0.575852	0.271300
O8	O	1.453899	-0.273702	0.441656
O9	O	1.753155	-0.575802	0.441631
O10	O	1.582983	-0.273664	0.570713
O11	O	1.453788	-0.445626	0.271311
O12	O	1.283512	-0.445544	0.441623
O13	O	1.453864	-0.575657	0.740986
O14	O	1.283497	-0.575707	0.570655
O15	O	1.582964	-0.445455	0.741011
O16	O	1.582768	-0.747644	0.441598
O17	O	1.453753	-0.747581	0.570641
C18	C	1.245383	-0.510623	0.506137
C19	C	1.128607	-0.510638	0.506156
C20	C	1.073782	-0.442937	0.573466
C21	C	0.964058	-0.442957	0.573472
C22	C	0.963993	-0.578388	0.438856
C23	C	1.073715	-0.578362	0.438845
C24	C	1.073818	-0.364750	0.651188
C25	C	0.964094	-0.364770	0.651195
C26	C	1.518274	-0.786077	0.506137
C27	C	1.518337	-0.903907	0.506166
C28	C	1.437509	-1.071476	0.587597
C29	C	1.437095	-0.948917	0.587335
C30	C	1.488364	-0.948511	0.395445
C31	C	1.487871	-1.071109	0.395939
C32	C	1.629634	-1.070996	0.534558
C33	C	1.628952	-0.948389	0.536979
C34	C	1.792384	-0.510673	0.506167
C35	C	1.909161	-0.510684	0.506174
C36	C	1.518424	-0.510541	0.780185
C37	C	1.518456	-0.510495	0.896962
C38	C	1.518456	-0.234142	0.506190
C39	C	1.518501	-0.116312	0.506206
C40	C	1.518338	-0.510678	0.233185
C41	C	1.518510	-0.510425	0.116408
C42	C	1.585687	-0.442692	0.951839
C43	C	1.585712	-0.442654	1.061563
C44	C	1.451271	-0.578230	1.061524
C45	C	1.451242	-0.578262	0.951802
C46	C	1.663309	-0.364422	0.951862
C47	C	1.663334	-0.364383	1.061586
H48	H	0.930056	-0.286745	0.622193
Br49	Br	0.914504	-0.401592	0.786755
Br50	Br	1.468349	-0.898640	0.724174
Br51	Br	1.148119	-0.670208	0.347456
H52	H	1.456089	-1.100881	0.669966
H53	H	0.919287	-0.633527	0.384055
H54	H	1.354706	-0.919682	0.568552
H55	H	1.103589	-0.282613	0.629532
Br56	Br	1.359974	-0.670262	0.877328
H57	H	1.544302	-1.100773	0.333228
Br58	Br	1.730213	-1.119343	0.435771
H59	H	1.651556	-0.919231	0.618465
H60	H	1.740579	-0.393855	0.917827
H61	H	1.634224	-0.286377	1.095632
Br62	Br	1.627036	-0.227590	0.902253
Br63	Br	1.301049	-1.123007	0.556719
H64	H	1.656976	-1.101833	0.613924
H65	H	1.107882	-0.394246	0.728427
Br66	Br	1.352469	-1.118938	0.355904
H67	H	1.692473	-0.917745	0.482015
Br68	Br	1.583567	-0.899930	0.291601
Br69	Br	1.360055	-0.670193	1.135956
H70	H	1.407972	-0.917901	0.370991
H71	H	1.744703	-0.386374	1.091365
