data_functionalizedCrystal
_audit_creation_method	'MofGen! by Chris Wilmer'
_symmetry_space_group_name_H-M	'P1'
_symmetry_Int_Tables_number	1
_symmetry_cell_setting	triclinic
loop_
_symmetry_equiv_pos_as_xyz
  x,y,z
_cell_length_a	12.594517
_cell_length_b	12.594516
_cell_length_c	18.215399
_cell_angle_alpha	89.973810
_cell_angle_beta	89.982121
_cell_angle_gamma	90.011248
loop_
_atom_site_label
_atom_site_type_symbol
_atom_site_fract_x
_atom_site_fract_y
_atom_site_fract_z
Zn1	Zn	1.627253	-0.423744	-0.416158
Zn2	Zn	2.127253	0.076256	0.083842
Zn3	Zn	1.627170	-0.601749	-0.293101
Zn4	Zn	2.127170	-0.101749	0.206899
Zn5	Zn	1.449270	-0.423783	-0.293103
Zn6	Zn	1.949270	0.076217	0.206897
Zn7	Zn	1.449252	-0.601679	-0.416123
Zn8	Zn	1.949252	-0.101679	0.083877
O9	O	1.538236	-0.512739	-0.354621
O10	O	2.038236	-0.012739	0.145379
O11	O	1.776188	-0.447369	-0.399848
O12	O	2.276188	0.052631	0.100152
O13	O	1.603544	-0.578187	-0.190117
O14	O	2.103544	-0.078187	0.309883
O15	O	1.472922	-0.274832	-0.309442
O16	O	1.972922	0.225168	0.190558
O17	O	1.776127	-0.578149	-0.309438
O18	O	2.276127	-0.078149	0.190562
O19	O	1.603685	-0.274803	-0.399850
O20	O	2.103685	0.225197	0.100150
O21	O	1.472842	-0.447436	-0.190118
O22	O	1.972842	0.052564	0.309882
O23	O	1.300322	-0.447368	-0.309408
O24	O	1.800322	0.052632	0.190592
O25	O	1.472891	-0.578030	-0.519112
O26	O	1.972891	-0.078030	-0.019112
O27	O	1.300309	-0.578068	-0.399791
O28	O	1.800309	-0.078068	0.100209
O29	O	1.603668	-0.447302	-0.519138
O30	O	2.103668	0.052698	-0.019138
O31	O	1.603527	-0.750685	-0.309404
O32	O	2.103527	-0.250685	0.190596
O33	O	1.472811	-0.750634	-0.399788
O34	O	1.972811	-0.250634	0.100212
C35	C	1.261695	-0.512716	-0.354597
C36	C	1.761695	-0.012716	0.145403
C37	C	1.143390	-0.512731	-0.354603
C38	C	1.643390	-0.012731	0.145397
C39	C	1.538187	-0.789280	-0.354608
C40	C	2.038187	-0.289280	0.145392
C41	C	1.538263	-0.907585	-0.354628
C42	C	2.038263	-0.407585	0.145372
C43	C	1.003350	-0.441566	-0.305557
C44	C	1.503350	0.058434	0.194443
C45	C	1.074199	-0.415635	-0.372712
C46	C	1.574199	0.084365	0.127288
C47	C	1.074112	-0.538614	-0.287456
C48	C	1.574112	-0.038614	0.212544
C49	C	1.003454	-0.486792	-0.421848
C50	C	1.503454	0.013208	0.078152
C51	C	1.003361	-0.609816	-0.336547
C52	C	1.503361	-0.109816	0.163453
C53	C	1.074178	-0.583923	-0.403748
C54	C	1.574178	-0.083923	0.096252
C55	C	1.609442	-0.976827	-0.305520
C56	C	2.109442	-0.476827	0.194480
C57	C	1.635445	-1.047527	-0.372691
C58	C	2.135445	-0.547527	0.127309
C59	C	1.512393	-1.047684	-0.287499
C60	C	2.012393	-0.547684	0.212501
C61	C	1.564316	-0.976726	-0.421834
C62	C	2.064316	-0.476726	0.078166
C63	C	1.441219	-0.976877	-0.336596
C64	C	1.941219	-0.476877	0.163404
C65	C	1.467185	-1.047545	-0.403814
C66	C	1.967185	-0.547545	0.096186
C67	C	1.815857	-0.512763	-0.354646
C68	C	2.315857	-0.012763	0.145354
C69	C	1.934163	-0.512773	-0.354657
C70	C	2.434163	-0.012773	0.145343
C71	C	1.538287	-0.512654	-0.546574
C72	C	2.038287	-0.012654	-0.046574
C73	C	1.538308	-0.512617	-0.628373
C74	C	2.038308	-0.012617	-0.128373
C75	C	1.538315	-0.235118	-0.354650
C76	C	2.038315	0.264882	0.145350
C77	C	1.538348	-0.116812	-0.354662
C78	C	2.038348	0.383188	0.145338
C79	C	1.470309	-0.444490	-0.816569
C80	C	1.970309	0.055510	-0.316569
C81	C	1.470327	-0.444468	-0.893428
C82	C	1.970327	0.055532	-0.393428
C83	C	1.606434	-0.580618	-0.893415
C84	C	2.106434	-0.080618	-0.393415
C85	C	1.606410	-0.580644	-0.816558
C86	C	2.106410	-0.080644	-0.316558
C87	C	1.538349	-0.512574	-0.778137
C88	C	2.038349	-0.012574	-0.278137
C89	C	1.538392	-0.512526	-0.931853
C90	C	2.038392	-0.012526	-0.431853
C91	C	1.538412	-0.512504	-1.015187
C92	C	2.038412	-0.012504	-0.515187
C93	C	1.538326	-0.512598	-0.694798
C94	C	2.038326	-0.012598	-0.194798
C95	C	1.538247	-0.512747	-0.163415
C96	C	2.038247	-0.012747	0.336585
C97	C	1.538432	-0.512483	-0.081616
C98	C	2.038432	-0.012483	0.418384
H99	H	1.105296	-0.333546	-0.388020
H100	H	1.605296	0.166454	0.111980
H101	H	1.717550	-1.078563	-0.387962
H102	H	2.217550	-0.578563	0.112038
H103	H	1.414889	-0.389062	-0.785289
H104	H	1.914889	0.110938	-0.285289
O105	O	1.404202	-0.378228	-0.930647
O106	O	1.904202	0.121772	-0.430647
C107	C	1.344108	-0.318178	-0.880251
C108	C	1.844108	0.181822	-0.380251
H109	H	1.387692	-0.314514	-0.825469
H110	H	1.887692	0.185486	-0.325469
H111	H	1.332783	-0.234309	-0.902470
H112	H	1.832783	0.265691	-0.402470
H113	H	1.263258	-0.357151	-0.872063
H114	H	1.763258	0.142849	-0.372063
O115	O	1.672517	-0.646633	-0.930853
O116	O	2.172517	-0.146633	-0.430853
C117	C	1.657933	-0.632030	-1.006931
C118	C	2.157933	-0.132030	-0.506931
H119	H	1.623098	-0.549883	-1.017439
H120	H	2.123098	-0.049883	-0.517439
H121	H	1.737667	-0.639245	-1.036144
H122	H	2.237667	-0.139245	-0.536144
H123	H	1.601243	-0.695153	-1.028729
H124	H	2.101243	-0.195153	-0.528729
H125	H	1.661819	-0.636091	-0.785265
H126	H	2.161819	-0.136091	-0.285265
H127	H	1.407028	-1.078400	-0.445406
H128	H	1.907028	-0.578400	0.054594
H129	H	0.972545	-0.464823	-0.478673
H130	H	1.472545	0.035177	0.021327
O131	O	1.590612	-0.939532	-0.489546
O132	O	2.090612	-0.439532	0.010454
C133	C	1.590266	-0.827592	-0.488706
C134	C	2.090266	-0.327592	0.011294
H135	H	1.602145	-0.798343	-0.430064
H136	H	2.102145	-0.298343	0.069936
H137	H	1.657363	-0.796603	-0.524868
H138	H	2.157363	-0.296603	-0.024868
H139	H	1.511014	-0.797311	-0.510507
H140	H	2.011014	-0.297311	-0.010507
H141	H	1.359138	-0.945818	-0.321306
H142	H	1.859138	-0.445818	0.178694
O143	O	1.486424	-1.084918	-0.219737
O144	O	1.986424	-0.584918	0.280263
C145	C	1.570085	-1.148055	-0.192560
C146	C	2.070085	-0.648055	0.307440
H147	H	1.647272	-1.124933	-0.221102
H148	H	2.147272	-0.624933	0.278898
H149	H	1.578442	-1.134974	-0.130908
H150	H	2.078442	-0.634974	0.369092
H151	H	1.552194	-1.235311	-0.203692
H152	H	2.052194	-0.735311	0.296308
O153	O	0.966289	-0.369555	-0.256194
O154	O	1.466289	0.130445	0.243806
C155	C	1.002408	-0.267328	-0.275531
C156	C	1.502408	0.232672	0.224469
H157	H	1.022325	-0.265425	-0.336572
H158	H	1.522325	0.234575	0.163428
H159	H	0.937657	-0.206599	-0.263345
H160	H	1.437657	0.293401	0.236655
H161	H	1.076447	-0.247294	-0.242314
H162	H	1.576447	0.252706	0.257686
H163	H	0.972222	-0.691878	-0.321227
H164	H	1.472222	-0.191878	0.178773
O165	O	1.111182	-0.655608	-0.453355
O166	O	1.611182	-0.155608	0.046645
C167	C	1.174217	-0.603045	-0.506031
C168	C	1.674217	-0.103045	-0.006031
H169	H	1.205416	-0.525584	-0.481909
H170	H	1.705416	-0.025584	0.018091
H171	H	1.243925	-0.655922	-0.522043
H172	H	1.743925	-0.155922	-0.022043
H173	H	1.124283	-0.585124	-0.556735
H174	H	1.624283	-0.085124	-0.056735
O175	O	1.111015	-0.564594	-0.219630
O176	O	1.611015	-0.064594	0.280370
C177	C	1.074945	-0.489314	-0.168074
C178	C	1.574945	0.010686	0.331926
H179	H	1.000439	-0.448823	-0.189946
H180	H	1.500439	0.051177	0.310054
H181	H	1.055815	-0.530951	-0.114083
H182	H	1.555815	-0.030951	0.385917
H183	H	1.139413	-0.427295	-0.158505
H184	H	1.639413	0.072705	0.341495
H185	H	1.669645	-0.945775	-0.264029
H186	H	2.169645	-0.445775	0.235971
