data_functionalizedCrystal
_audit_creation_method	'MofGen! by Chris Wilmer'
_symmetry_space_group_name_H-M	'P1'
_symmetry_Int_Tables_number	1
_symmetry_cell_setting	triclinic
loop_
_symmetry_equiv_pos_as_xyz
  x,y,z
_cell_length_a	12.759395
_cell_length_b	16.120484
_cell_length_c	12.759395
_cell_angle_alpha	87.115561
_cell_angle_beta	90.005123
_cell_angle_gamma	92.926975
loop_
_atom_site_label
_atom_site_type_symbol
_atom_site_fract_x
_atom_site_fract_y
_atom_site_fract_z
Zn1	Zn	1.584810	-0.332013	0.615178
Zn2	Zn	2.084810	0.167987	1.115178
Zn3	Zn	1.575806	-0.471399	0.448387
Zn4	Zn	2.075806	0.028601	0.948387
Zn5	Zn	1.409156	-0.332006	0.439514
Zn6	Zn	1.909156	0.167994	0.939514
Zn7	Zn	1.400159	-0.471393	0.624026
Zn8	Zn	1.900159	0.028607	1.124026
O9	O	1.492483	-0.401703	0.531776
O10	O	1.992483	0.098297	1.031776
O11	O	1.730636	-0.350509	0.593063
O12	O	2.230636	0.149491	1.093063
O13	O	1.553696	-0.452908	0.300189
O14	O	2.053696	0.047092	0.800189
O15	O	1.439990	-0.215339	0.455400
O16	O	1.939990	0.284661	0.955400
O17	O	1.724021	-0.452915	0.470523
O18	O	2.224021	0.047085	0.970523
O19	O	1.569042	-0.215344	0.584459
O20	O	2.069042	0.284656	1.084459
O21	O	1.431259	-0.350496	0.293670
O22	O	1.931259	0.149504	0.793670
O23	O	1.260942	-0.350490	0.463980
O24	O	1.760942	0.149510	0.963980
O25	O	1.424657	-0.452904	0.769873
O26	O	1.924657	0.047096	1.269873
O27	O	1.254332	-0.452897	0.599540
O28	O	1.754332	0.047103	1.099540
O29	O	1.560319	-0.350502	0.763373
O30	O	2.060319	0.149498	1.263373
O31	O	1.544973	-0.588066	0.479103
O32	O	2.044973	-0.088066	0.979103
O33	O	1.415926	-0.588061	0.608144
O34	O	1.915926	-0.088061	1.108144
C35	C	1.219516	-0.401692	0.531758
C36	C	1.719516	0.098308	1.031758
C37	C	1.102738	-0.401708	0.531776
C38	C	1.602738	0.098292	1.031776
C39	C	1.095883	-0.508517	0.672728
C40	C	1.595883	-0.008517	1.172728
C41	C	1.037594	-0.561928	0.743208
C42	C	1.537594	-0.061928	1.243208
C43	C	0.927872	-0.561938	0.743221
C44	C	1.427872	-0.061938	1.243221
C45	C	0.876436	-0.508530	0.672750
C46	C	1.376436	-0.008530	1.172750
C47	C	0.934725	-0.455119	0.602270
C48	C	1.434725	0.044881	1.102270
C49	C	1.044450	-0.455116	0.602262
C50	C	1.544450	0.044884	1.102262
C51	C	0.941581	-0.348307	0.461325
C52	C	1.441581	0.151693	0.961325
C53	C	1.051303	-0.348300	0.461304
C54	C	1.551303	0.151700	0.961304
C55	C	0.890145	-0.294899	0.390853
C56	C	1.390145	0.205101	0.890853
C57	C	0.948434	-0.241491	0.320367
C58	C	1.448434	0.258509	0.820367
C59	C	1.058163	-0.241483	0.320356
C60	C	1.558163	0.258517	0.820356
C61	C	1.109592	-0.294889	0.390825
C62	C	1.609592	0.205111	0.890825
C63	C	1.478524	-0.618314	0.545569
C64	C	1.978524	-0.118314	1.045569
C65	C	1.472649	-0.710982	0.551505
C66	C	1.972649	-0.210982	1.051505
C67	C	1.461928	-0.880646	0.562363
C68	C	1.961928	-0.380646	1.062363
C69	C	1.523225	-0.921919	0.501207
C70	C	2.023225	-0.421919	1.001207
C71	C	1.517260	-1.016326	0.507249
C72	C	2.017260	-0.516326	1.007249
C73	C	1.467892	-0.786230	0.556323
C74	C	1.967892	-0.286230	1.056323
C75	C	1.766515	-0.401713	0.531796
C76	C	2.266515	0.098287	1.031796
C77	C	1.883292	-0.401718	0.531804
C78	C	2.383292	0.098282	1.031804
C79	C	1.492488	-0.401703	0.805810
C80	C	1.992488	0.098297	1.305810
C81	C	1.492491	-0.401703	0.922587
C82	C	1.992491	0.098297	1.422587
C83	C	1.506524	-0.184245	0.517953
C84	C	2.006524	0.315755	1.017953
C85	C	1.512508	-0.091578	0.512062
C86	C	2.012508	0.408422	1.012062
C87	C	1.633765	-0.295079	0.915838
C88	C	2.133765	0.204921	1.415838
C89	C	1.704401	-0.241772	0.967324
C90	C	2.204401	0.258228	1.467324
C91	C	1.704397	-0.241774	1.077046
C92	C	2.204397	0.258226	1.577046
C93	C	1.633747	-0.295089	1.135284
C94	C	2.133747	0.204911	1.635284
C95	C	1.563110	-0.348397	1.083797
C96	C	2.063110	0.151603	1.583797
C97	C	1.563124	-0.348390	0.974073
C98	C	2.063124	0.151610	1.474073
C99	C	1.421833	-0.455015	1.090546
C100	C	1.921833	0.044985	1.590546
C101	C	1.421841	-0.455018	0.980825
C102	C	1.921841	0.044982	1.480825
C103	C	1.351183	-0.508329	1.148784
C104	C	1.851183	-0.008329	1.648784
C105	C	1.280550	-0.561643	1.097298
C106	C	1.780550	-0.061643	1.597298
C107	C	1.280557	-0.561639	0.987569
C108	C	1.780557	-0.061639	1.487569
C109	C	1.351204	-0.508326	0.929338
C110	C	1.851204	-0.008326	1.429338
C111	C	1.492469	-0.401717	1.258810
C112	C	1.992469	0.098283	1.758810
C113	C	1.492470	-0.401707	1.142033
C114	C	1.992470	0.098293	1.642033
H115	H	1.185224	-0.508520	0.672717
H116	H	1.685224	-0.008520	1.172717
H117	H	0.800804	-0.294907	0.390874
H118	H	1.300804	0.205093	0.890874
H119	H	1.404974	-0.916211	0.619253
H120	H	1.904974	-0.416211	1.119253
H121	H	1.223027	-0.605043	1.144723
H122	H	1.723027	-0.105043	1.644723
H123	H	1.079485	-0.605411	0.800586
H124	H	1.579485	-0.105411	1.300586
N125	N	0.864999	-0.619551	0.819229
N126	N	1.364999	-0.119551	1.319229
H127	H	0.787687	-0.611451	0.808538
H128	H	1.287687	-0.111451	1.308538
H129	H	0.885015	-0.606675	0.893473
H130	H	1.385015	-0.106675	1.393473
H131	H	1.633784	-0.295080	0.826497
H132	H	2.133784	0.204920	1.326497
N133	N	0.758094	-0.508538	0.672762
N134	N	1.258094	-0.008538	1.172762
H135	H	0.728974	-0.550477	0.728104
H136	H	1.228974	-0.050477	1.228104
H137	H	0.730762	-0.523748	0.601591
H138	H	1.230762	-0.023748	1.101591
N139	N	1.227933	-0.294890	0.390814
N140	N	1.727933	0.205110	0.890814
H141	H	1.255355	-0.279661	0.461948
H142	H	1.755355	0.220339	0.961948
H143	H	1.256975	-0.252959	0.335428
H144	H	1.756975	0.247041	0.835428
N145	N	1.780625	-0.184291	0.904514
N146	N	2.280625	0.315709	1.404514
H147	H	1.769924	-0.192384	0.827193
H148	H	2.269924	0.307616	1.327193
H149	H	1.854804	-0.197302	0.924549
H150	H	2.354804	0.302698	1.424549
H151	H	0.906546	-0.198006	0.263000
H152	H	1.406546	0.301994	0.763000
N153	N	1.780572	-0.184273	1.132585
N154	N	2.280572	0.315727	1.632585
H155	H	1.825326	-0.150495	1.079048
H156	H	2.325326	0.349505	1.579048
H157	H	1.826993	-0.218216	1.180275
H158	H	2.326993	0.281784	1.680275
H159	H	1.580182	-0.886351	0.444311
H160	H	2.080182	-0.386351	0.944311
H161	H	1.633741	-0.295079	1.224624
H162	H	2.133741	0.204921	1.724624
N163	N	1.351153	-0.508319	1.267125
N164	N	1.851153	-0.008319	1.767125
H165	H	1.406617	-0.466457	1.290907
H166	H	1.906617	0.033543	1.790907
H167	H	1.366721	-0.565540	1.297124
H168	H	1.866721	-0.065540	1.797124
N169	N	1.204356	-0.619124	0.932039
N170	N	1.704356	-0.119124	1.432039
H171	H	1.159600	-0.652892	0.985584
H172	H	1.659600	-0.152892	1.485584
H173	H	1.244615	-0.657717	0.888969
H174	H	1.744615	-0.157717	1.388969
H175	H	1.105616	-0.197984	0.262969
H176	H	1.605616	0.302016	0.762969
N177	N	1.351196	-0.508329	0.810996
N178	N	1.851196	-0.008329	1.310996
H179	H	1.422273	-0.523663	0.785541
H180	H	1.922273	-0.023663	1.285541
H181	H	1.335539	-0.451121	0.781016
H182	H	1.835539	0.048879	1.281016
