data_functionalizedCrystal
_audit_creation_method	'MofGen! by Chris Wilmer'
_symmetry_space_group_name_H-M	'P1'
_symmetry_Int_Tables_number	1
_symmetry_cell_setting	triclinic
loop_
_symmetry_equiv_pos_as_xyz
  x,y,z
_cell_length_a	18.215407
_cell_length_b	25.639239
_cell_length_c	25.639234
_cell_angle_alpha	90.021106
_cell_angle_beta	90.011142
_cell_angle_gamma	90.039134
loop_
_atom_site_label
_atom_site_type_symbol
_atom_site_fract_x
_atom_site_fract_y
_atom_site_fract_z
Zn1	Zn	1.124938	-0.208196	0.295622
Zn2	Zn	1.624938	0.291804	0.795622
Zn3	Zn	1.124836	-0.295618	0.208186
Zn4	Zn	1.624836	0.204382	0.708186
Zn5	Zn	1.001889	-0.208199	0.208199
Zn6	Zn	1.501889	0.291801	0.708199
Zn7	Zn	1.001807	-0.295603	0.295589
Zn8	Zn	1.501807	0.204397	0.795589
O9	O	1.063368	-0.251904	0.251899
O10	O	1.563368	0.248096	0.751899
O11	O	1.227909	-0.219798	0.284032
O12	O	1.727909	0.280202	0.784032
O13	O	1.108518	-0.284030	0.135023
O14	O	1.608518	0.215970	0.635023
O15	O	1.018290	-0.135034	0.219815
O16	O	1.518290	0.364966	0.719815
O17	O	1.227834	-0.284027	0.219793
O18	O	1.727834	0.215973	0.719793
O19	O	1.108693	-0.135031	0.284044
O20	O	1.608693	0.364969	0.784044
O21	O	1.018190	-0.219804	0.135032
O22	O	1.518190	0.280196	0.635032
O23	O	0.898894	-0.219789	0.219783
O24	O	1.398894	0.280211	0.719783
O25	O	1.018149	-0.284000	0.368759
O26	O	1.518149	0.216000	0.868759
O27	O	0.898834	-0.284004	0.283989
O28	O	1.398834	0.215996	0.783989
O29	O	1.108613	-0.219783	0.368783
O30	O	1.608613	0.280217	0.868783
O31	O	1.108438	-0.368782	0.219761
O32	O	1.608438	0.131218	0.719761
O33	O	1.018050	-0.368770	0.283976
O34	O	1.518050	0.131230	0.783976
C35	C	0.872161	-0.251895	0.251884
C36	C	1.372161	0.248105	0.751884
C37	C	0.790362	-0.251904	0.251890
C38	C	1.290362	0.248096	0.751890
C39	C	0.602156	-0.285393	0.285280
C40	C	1.102156	0.214607	0.785280
C41	C	0.525297	-0.285395	0.285286
C42	C	1.025297	0.214605	0.785286
C43	C	0.525331	-0.218425	0.218530
C44	C	1.025331	0.281575	0.718530
C45	C	0.602188	-0.218421	0.218526
C46	C	1.102188	0.281579	0.718526
C47	C	0.640599	-0.251908	0.251901
C48	C	1.140599	0.248092	0.751901
C49	C	0.486883	-0.251914	0.251911
C50	C	0.986883	0.248086	0.751911
C51	C	0.403549	-0.251915	0.251917
C52	C	0.903549	0.248085	0.751917
C53	C	0.723938	-0.251906	0.251895
C54	C	1.223938	0.248094	0.751895
C55	C	1.063244	-0.387747	0.251875
C56	C	1.563244	0.112253	0.751875
C57	C	1.063258	-0.445861	0.251883
C58	C	1.563258	0.054139	0.751883
C59	C	1.110556	-0.806217	0.218520
C60	C	1.610556	-0.306217	0.718520
C61	C	1.110584	-0.860821	0.218527
C62	C	1.610584	-0.360821	0.718527
O63	O	1.150670	-0.889053	0.190134
O64	O	1.650670	-0.389053	0.690134
N65	N	1.063497	-0.888143	0.251934
N66	N	1.563497	-0.388143	0.751934
C67	C	1.016383	-0.860858	0.285340
C68	C	1.516383	-0.360858	0.785340
O69	O	0.976335	-0.889111	0.313757
O70	O	1.476335	-0.389111	0.813757
C71	C	1.016359	-0.806255	0.285335
C72	C	1.516359	-0.306255	0.785335
C73	C	1.063444	-0.778936	0.251922
C74	C	1.563444	-0.278936	0.751922
C75	C	1.157638	-0.778898	0.185110
C76	C	1.657638	-0.278898	0.685110
C77	C	1.157608	-0.724298	0.185102
C78	C	1.657608	-0.224298	0.685102
C79	C	1.110496	-0.697016	0.218505
C80	C	1.610496	-0.197016	0.718505
C81	C	1.063414	-0.724335	0.251915
C82	C	1.563414	-0.224335	0.751915
C83	C	0.969250	-0.778970	0.318744
C84	C	1.469250	-0.278970	0.818744
C85	C	0.969230	-0.724363	0.318736
C86	C	1.469230	-0.224363	0.818736
C87	C	1.016315	-0.697044	0.285323
C88	C	1.516315	-0.197044	0.785323
C89	C	1.016273	-0.642453	0.285310
C90	C	1.516273	-0.142453	0.785310
N91	N	1.063361	-0.615131	0.251902
N92	N	1.563361	-0.115131	0.751902
C93	C	1.110472	-0.642413	0.218500
C94	C	1.610472	-0.142413	0.718500
C95	C	1.016439	-0.975528	0.285348
C96	C	1.516439	-0.475528	0.785348
C97	C	1.016459	-1.030131	0.285351
C98	C	1.516459	-0.530131	0.785351
C99	C	1.110661	-1.030091	0.218538
C100	C	1.610661	-0.530091	0.718538
C101	C	1.110637	-0.975487	0.218533
C102	C	1.610637	-0.475487	0.718533
C103	C	1.063526	-0.948207	0.251941
C104	C	1.563526	-0.448207	0.751941
C105	C	1.110406	-0.527748	0.218486
C106	C	1.610406	-0.027748	0.718486
C107	C	1.110370	-0.473142	0.218480
C108	C	1.610370	0.026858	0.718480
C109	C	1.016171	-0.473187	0.285295
C110	C	1.516171	0.026813	0.785295
C111	C	1.016204	-0.527788	0.285299
C112	C	1.516204	-0.027788	0.785299
C113	C	1.063327	-0.555067	0.251893
C114	C	1.563327	-0.055067	0.751893
O115	O	0.976210	-0.614187	0.313689
O116	O	1.476210	-0.114187	0.813689
O117	O	1.150521	-0.614153	0.190093
O118	O	1.650521	-0.114153	0.690093
C119	C	1.255320	-0.251914	0.251915
C120	C	1.755320	0.248086	0.751915
C121	C	1.337119	-0.251918	0.251921
C122	C	1.837119	0.248082	0.751921
C123	C	1.063383	-0.251889	0.388272
C124	C	1.563383	0.248111	0.888272
C125	C	1.063390	-0.251883	0.446386
C126	C	1.563390	0.248117	0.946386
C127	C	1.063512	-0.115531	0.251935
C128	C	1.563512	0.384469	0.751935
C129	C	1.063573	-0.057417	0.251950
C130	C	1.563573	0.442583	0.751950
C131	C	1.063394	-0.251881	0.116057
C132	C	1.563394	0.248119	0.616057
C133	C	1.063530	-0.251740	0.057943
C134	C	1.563530	0.248260	0.557943
C135	C	1.016335	-0.285255	0.697562
C136	C	1.516335	0.214745	1.197562
C137	C	1.016322	-0.285267	0.642957
C138	C	1.516322	0.214733	1.142957
O139	O	0.976243	-0.313694	0.614705
O140	O	1.476243	0.186306	1.114705
N141	N	1.063418	-0.251841	0.615660
N142	N	1.563418	0.248159	1.115660
C143	C	1.110525	-0.218397	0.642970
C144	C	1.610525	0.281603	1.142970
O145	O	1.150583	-0.189966	0.614738
O146	O	1.650583	0.310034	1.114738
C147	C	1.110534	-0.218383	0.697574
C148	C	1.610534	0.281617	1.197574
C149	C	1.063440	-0.251815	0.724868
C150	C	1.563440	0.248185	1.224868
C151	C	0.969244	-0.318685	0.724856
C152	C	1.469244	0.181315	1.224856
C153	C	0.969258	-0.318673	0.779457
C154	C	1.469258	0.181327	1.279457
C155	C	1.016363	-0.285233	0.806763
C156	C	1.516363	0.214767	1.306763
C157	C	1.063454	-0.251804	0.779469
C158	C	1.563454	0.248196	1.279469
C159	C	1.157637	-0.184937	0.724883
C160	C	1.657637	0.315063	1.224883
C161	C	1.157641	-0.184925	0.779490
C162	C	1.657641	0.315075	1.279490
C163	C	1.110547	-0.218357	0.806784
C164	C	1.610547	0.281643	1.306784
C165	C	1.110573	-0.218352	0.861375
C166	C	1.610573	0.281648	1.361375
N167	N	1.063476	-0.251779	0.888672
N168	N	1.563476	0.248221	1.388672
C169	C	1.016371	-0.285219	0.861366
C170	C	1.516371	0.214781	1.361366
C171	C	1.110502	-0.218428	0.528300
C172	C	1.610502	0.281572	1.028300
C173	C	1.110498	-0.218445	0.473697
C174	C	1.610498	0.281555	0.973697
C175	C	1.016293	-0.285314	0.473688
C176	C	1.516293	0.214686	0.973688
C177	C	1.016302	-0.285300	0.528291
C178	C	1.516302	0.214700	1.028291
C179	C	1.063406	-0.251855	0.555597
C180	C	1.563406	0.248145	1.055597
C181	C	1.016405	-0.285193	0.976031
C182	C	1.516405	0.214807	1.476031
C183	C	1.016425	-0.285181	1.030637
C184	C	1.516425	0.214819	1.530637
C185	C	1.110627	-0.218309	1.030641
C186	C	1.610627	0.281691	1.530641
C187	C	1.110610	-0.218323	0.976041
C188	C	1.610610	0.281677	1.476041
C189	C	1.063493	-0.251767	0.948737
C190	C	1.563493	0.248233	1.448737
O191	O	1.150629	-0.189939	0.889662
O192	O	1.650629	0.310061	1.389662
O193	O	0.976314	-0.313640	0.889605
O194	O	1.476314	0.186360	1.389605
H195	H	0.494001	-0.312661	0.312468
H196	H	0.994001	0.187339	0.812468
H197	H	0.978075	-0.312407	1.052857
H198	H	1.478075	0.187593	1.552857
H199	H	0.633489	-0.191150	0.191345
H200	H	1.133489	0.308850	0.691345
H201	H	0.494048	-0.191161	0.191357
H202	H	0.994048	0.308839	0.691357
H203	H	0.977953	-0.312523	0.550511
H204	H	1.477953	0.187477	1.050511
H205	H	1.148712	-0.450901	0.191269
H206	H	1.648712	0.049099	0.691269
N207	N	1.208432	-0.148877	0.695453
N208	N	1.708432	0.351123	1.195453
H209	H	1.238266	-0.127692	0.721045
H210	H	1.738266	0.372308	1.221045
H211	H	1.178497	-0.124684	0.672801
H212	H	1.678497	0.375316	1.172801
N213	N	1.161224	-0.557170	0.182456
N214	N	1.661224	-0.057170	0.682456
H215	H	1.213793	-0.547622	0.190606
H216	H	1.713793	-0.047622	0.690606
H217	H	1.149759	-0.547680	0.145106
H218	H	1.649759	-0.047680	0.645106
H219	H	0.930868	-0.702154	0.345943
H220	H	1.430868	-0.202154	0.845943
H221	H	1.148978	-0.953247	0.191325
H222	H	1.648978	-0.453247	0.691325
H223	H	0.978031	-0.312422	0.953807
H224	H	1.478031	0.187578	1.453807
H225	H	1.195951	-0.702058	0.157896
H226	H	1.695951	-0.202058	0.657896
N227	N	1.208451	-0.808321	0.149079
N228	N	1.708451	-0.308321	0.649079
H229	H	1.261020	-0.798775	0.157230
H230	H	1.761020	-0.298775	0.657230
H231	H	1.196985	-0.798827	0.111731
H232	H	1.696985	-0.298827	0.611731
H233	H	1.149024	-1.052313	0.191341
H234	H	1.649024	-0.552313	0.691341
N235	N	0.965662	-1.059593	0.321380
N236	N	1.465662	-0.559593	0.821380
H237	H	0.935814	-1.034020	0.342536
H238	H	1.435814	-0.534020	0.842536
H239	H	0.995599	-1.082215	0.345602
H240	H	1.495599	-0.582215	0.845602
N241	N	1.161411	-0.182272	0.946598
N242	N	1.661411	0.317728	1.446598
H243	H	1.191256	-0.161088	0.972184
H244	H	1.691256	0.338912	1.472184
H245	H	1.131474	-0.158077	0.923949
H246	H	1.631474	0.341923	1.423949
H247	H	0.930880	-0.345915	0.702629
H248	H	1.430880	0.154085	1.202629
N249	N	0.965618	-0.946106	0.321379
N250	N	1.465618	-0.446106	0.821379
H251	H	0.935794	-0.971704	0.342539
H252	H	1.435794	-0.471704	0.842539
H253	H	0.931570	-0.923486	0.300071
H254	H	1.431570	-0.423486	0.800071
H255	H	0.930904	-0.801204	0.345950
H256	H	1.430904	-0.301204	0.845950
H257	H	0.633428	-0.312660	0.312457
H258	H	1.133428	0.187340	0.812457
H259	H	1.148855	-0.191226	0.451479
H260	H	1.648855	0.308774	0.951479
H261	H	0.930907	-0.345896	0.801675
H262	H	1.430907	0.154104	1.301675
N263	N	0.965485	-0.321383	0.444231
N264	N	1.465485	0.178617	0.944231
H265	H	0.972628	-0.316315	0.405499
H266	H	1.472628	0.183685	0.905499
H267	H	0.912935	-0.313240	0.453772
H268	H	1.412935	0.186760	0.953772
H269	H	0.977865	-0.550032	0.312508
H270	H	1.477865	-0.050032	0.812508
N271	N	0.965355	-0.443757	0.321317
N272	N	1.465355	0.056243	0.821317
H273	H	0.972486	-0.405021	0.316240
H274	H	1.472486	0.094979	0.816240
H275	H	0.976776	-0.453272	0.358667
H276	H	1.476776	0.046728	0.858667
H277	H	1.148866	-0.191193	0.550528
H278	H	1.648866	0.308807	1.050528
H279	H	1.195996	-0.157687	0.801719
H280	H	1.695996	0.342313	1.301719
N281	N	1.161433	-0.182244	1.060098
N282	N	1.661433	0.317756	1.560098
H283	H	1.154289	-0.187311	1.098830
H284	H	1.654289	0.312689	1.598830
H285	H	1.150012	-0.144905	1.050560
H286	H	1.650012	0.355095	1.550560
