data_functionalizedCrystal
_audit_creation_method	'MofGen! by Chris Wilmer'
_symmetry_space_group_name_H-M	'P1'
_symmetry_Int_Tables_number	1
_symmetry_cell_setting	triclinic
loop_
_symmetry_equiv_pos_as_xyz
  x,y,z
_cell_length_a	15.624803
_cell_length_b	15.538191
_cell_length_c	13.330367
_cell_angle_alpha	89.997411
_cell_angle_beta	71.906471
_cell_angle_gamma	66.736403
loop_
_atom_site_label
_atom_site_type_symbol
_atom_site_fract_x
_atom_site_fract_y
_atom_site_fract_z
O1	O	1.156138	0.122851	-0.504106
O2	O	0.888835	0.137515	-0.406842
O3	O	1.074519	-0.006882	-0.474412
O4	O	0.970454	0.267248	-0.436536
O5	O	1.074500	-0.006886	-0.307558
O6	O	0.888816	0.137511	-0.239987
O7	O	1.156119	0.122848	-0.337252
Cu8	Cu	1.022466	0.130179	-0.273385
Cu9	Cu	1.022488	0.130183	-0.470709
O10	O	0.970435	0.267245	-0.269682
C11	C	0.855451	0.136852	-0.311270
C12	C	0.756008	0.134871	-0.275086
C13	C	0.429114	0.128312	-0.610948
C14	C	0.335681	0.126431	-0.576948
C15	C	0.335637	0.126427	-0.395042
C16	C	0.429075	0.128303	-0.429027
C17	C	0.475806	0.129246	-0.536981
C18	C	0.475766	0.129238	-0.355061
C19	C	0.569193	0.131118	-0.389043
C20	C	0.615929	0.132064	-0.496991
C21	C	0.569233	0.131127	-0.570963
C22	C	0.429031	0.128301	-0.247106
C23	C	0.475722	0.129236	-0.173140
C24	C	0.569154	0.131110	-0.207122
C25	C	0.615890	0.132056	-0.315071
C26	C	0.615850	0.132047	-0.133151
C27	C	0.709277	0.133928	-0.167132
C28	C	0.709317	0.133936	-0.349053
C29	C	1.085398	-0.041966	-0.394950
C30	C	1.117830	-0.146500	-0.406761
C31	C	0.795629	-0.434688	-0.289499
C32	C	0.826126	-0.532917	-0.300594
C33	C	0.997666	-0.555147	-0.363014
C34	C	0.967183	-0.456919	-0.351929
C35	C	0.866164	-0.396697	-0.315170
C36	C	1.037718	-0.418928	-0.377600
C37	C	1.007237	-0.320708	-0.366510
C38	C	0.906222	-0.260480	-0.329750
C39	C	0.835683	-0.298477	-0.304081
C40	C	1.138737	-0.479152	-0.414351
C41	C	1.209272	-0.441160	-0.440022
C42	C	1.178791	-0.342939	-0.428940
C43	C	1.077776	-0.282711	-0.392180
C44	C	1.249330	-0.304941	-0.454609
C45	C	1.218849	-0.206722	-0.443520
C46	C	1.047295	-0.184491	-0.381090
C47	C	1.189504	0.123510	-0.432826
C48	C	1.288947	0.125492	-0.469016
C49	C	0.959557	0.302328	-0.349146
C50	C	0.927125	0.406862	-0.337341
N51	N	1.022457	0.130176	-0.134600
N52	N	1.022507	0.130179	-0.609497
C53	C	0.940273	0.194097	0.367930
C54	C	1.104730	0.066262	0.308052
C55	C	1.104721	0.066259	0.203037
C56	C	1.022487	0.130177	0.180464
C57	C	0.940263	0.194098	0.262905
C58	C	1.186948	0.002346	0.120586
C59	C	1.186943	0.002341	0.015563
C60	C	1.104705	0.066255	-0.007010
C61	C	1.022477	0.130178	0.075439
C62	C	0.940243	0.194096	0.052866
C63	C	0.858010	0.258015	0.135315
C64	C	0.858025	0.258012	0.240332
C65	C	1.104691	0.066258	-0.112027
C66	C	0.940232	0.194097	-0.052158
H67	H	0.467167	0.129076	-0.698855
H68	H	1.253900	-0.049706	-0.051562
H69	H	1.171686	0.014226	0.326434
Cl70	Cl	1.290328	-0.077999	0.148961
H71	H	1.276286	-0.175789	-0.464423
Cl72	Cl	0.920296	-0.108775	-0.334889
Cl73	Cl	0.557085	0.130876	0.002560
H74	H	0.747369	0.134701	-0.436960
H75	H	0.713369	-0.385651	-0.259574
H76	H	0.791075	0.310054	0.307467
H77	H	0.352954	0.126776	-0.219441
Cl78	Cl	1.208064	-0.014086	-0.215669
Cl79	Cl	1.177056	-0.602630	-0.428285
H80	H	0.873319	0.246136	0.435063
H81	H	0.747292	0.134694	-0.106900
Cl82	Cl	0.733380	0.134432	-0.539714
H83	H	0.873265	0.246144	-0.070526
H84	H	0.607285	0.131892	-0.658870
H85	H	0.791057	0.310062	0.116924
Cl86	Cl	0.276984	0.125260	-0.669947
H87	H	0.881406	-0.180504	-0.320716
Cl88	Cl	0.708684	-0.222762	-0.257879
Cl89	Cl	0.737442	-0.580673	-0.268311
Cl90	Cl	0.416965	0.128054	-0.037431
Cl91	Cl	0.276880	0.125246	-0.259333
Cl92	Cl	1.336263	-0.516876	-0.486223
Cl93	Cl	1.376321	-0.380660	-0.500799
Cl94	Cl	1.124658	-0.630863	-0.409215
