data_functionalizedCrystal
_audit_creation_method	'MofGen! by Chris Wilmer'
_symmetry_space_group_name_H-M	'P1'
_symmetry_Int_Tables_number	1
_symmetry_cell_setting	triclinic
loop_
_symmetry_equiv_pos_as_xyz
  x,y,z
_cell_length_a	10.654550
_cell_length_b	14.044220
_cell_length_c	9.730223
_cell_angle_alpha	89.994583
_cell_angle_beta	89.999957
_cell_angle_gamma	88.836904
loop_
_atom_site_label
_atom_site_type_symbol
_atom_site_fract_x
_atom_site_fract_y
_atom_site_fract_z
O1	O	1.681228	0.133232	-0.114191
O2	O	1.317025	0.145925	-0.114216
O3	O	1.493659	0.001558	-0.114190
O4	O	1.504593	0.277599	-0.114217
O5	O	1.493647	0.001554	0.114390
O6	O	1.317012	0.145921	0.114364
O7	O	1.681215	0.133228	0.114389
Zn8	Zn	1.499111	0.139574	0.150668
Zn9	Zn	1.499128	0.139579	-0.150496
O10	O	1.504580	0.277595	0.114363
C11	C	1.270127	0.144991	0.000070
C12	C	1.130403	0.142202	0.000061
C13	C	1.488867	-0.033790	0.000100
C14	C	1.474592	-0.139110	0.000101
C15	C	1.059459	0.227204	0.000057
C16	C	0.928175	0.224578	0.000081
C17	C	0.938790	0.051942	0.000108
C18	C	1.070072	0.054569	0.000094
C19	C	1.448493	-0.331943	0.000079
C20	C	1.549741	-0.388910	0.000082
C21	C	1.535219	-0.496209	0.000070
C22	C	1.463013	-0.224634	0.000091
C23	C	1.728113	0.134162	0.000099
C24	C	1.867836	0.136950	0.000100
C25	C	1.509372	0.312943	0.000070
C26	C	1.523648	0.418262	0.000060
N27	N	1.499109	0.139570	0.356205
N28	N	1.499140	0.139576	-0.356032
C29	C	1.577355	0.075671	0.428142
C30	C	1.577367	0.075671	0.572025
C31	C	1.420885	0.203477	0.572021
C32	C	1.420867	0.203471	0.428140
H33	H	1.108577	0.298560	0.000041
N34	N	1.340974	0.268741	0.645525
N35	N	1.341000	0.268739	0.773988
H36	H	1.284562	0.314834	0.825901
H37	H	0.889652	-0.019406	0.000143
N38	N	0.855727	0.311414	0.000087
N39	N	0.909615	0.389646	0.000066
H40	H	0.858450	0.450979	0.000074
N41	N	1.340919	0.268746	0.354669
N42	N	1.271072	0.325799	0.418910
H43	H	1.214607	0.371895	0.367022
N44	N	1.142530	-0.032272	0.000112
N45	N	1.088651	-0.110508	0.000134
H46	H	1.139823	-0.171837	0.000153
N47	N	1.657293	0.010407	0.645520
N48	N	1.738674	0.041044	0.725805
H49	H	1.795116	-0.005055	0.777717
N50	N	1.657246	0.010392	0.354640
N51	N	1.657219	0.010391	0.226176
H52	H	1.713641	-0.035717	0.174266
H53	H	1.647328	-0.357098	-0.000004
H54	H	1.350913	-0.363754	0.000069
