data_functionalizedCrystal
_audit_creation_method	'MofGen! by Chris Wilmer'
_symmetry_space_group_name_H-M	'P1'
_symmetry_Int_Tables_number	1
_symmetry_cell_setting	triclinic
loop_
_symmetry_equiv_pos_as_xyz
  x,y,z
_cell_length_a	20.919309
_cell_length_b	23.196402
_cell_length_c	23.196401
_cell_angle_alpha	59.999265
_cell_angle_beta	90.004269
_cell_angle_gamma	57.441790
loop_
_atom_site_label
_atom_site_type_symbol
_atom_site_fract_x
_atom_site_fract_y
_atom_site_fract_z
Zr1	Zr	0.641771	0.585964	-0.053121
O2	O	0.535384	0.713713	-0.148907
O3	O	0.674382	0.463405	-0.023762
O4	O	0.674360	0.583693	-0.144037
O5	O	0.535426	0.593408	0.066248
O6	O	0.783991	0.575998	-0.140192
O7	O	0.535406	0.593425	-0.028632
O8	O	0.784030	0.360825	0.074959
O9	O	0.535387	0.808580	-0.148903
O10	O	0.770110	0.506151	-0.008366
O11	O	0.688309	0.511880	0.059572
O12	O	0.688283	0.653503	-0.082037
O13	O	0.606482	0.659233	-0.014099
Zr14	Zr	0.816651	0.573663	0.104334
Zr15	Zr	0.816619	0.573692	-0.046988
Zr16	Zr	0.641804	0.585936	0.098200
Zr17	Zr	0.641776	0.737267	-0.053115
Zr18	Zr	0.816647	0.422361	0.104327
O19	O	0.784041	0.696223	0.074974
O20	O	0.783995	0.696263	-0.140186
O21	O	0.535430	0.713673	0.066253
O22	O	0.923039	0.445915	0.200119
O23	O	0.922993	0.445955	-0.015041
O24	O	0.674428	0.463365	0.191399
O25	O	0.922997	0.566220	-0.015036
O26	O	0.784062	0.575935	0.195249
O27	O	0.674432	0.583630	0.191404
O28	O	0.923017	0.566202	0.079844
O29	O	0.674367	0.798825	-0.144028
O30	O	0.784056	0.360803	0.195240
O31	O	0.923036	0.351048	0.200115
O32	O	0.923010	0.351070	0.079834
O33	O	0.535413	0.808558	-0.028622
O34	O	0.674393	0.798802	-0.023747
O35	O	0.770140	0.506124	0.133249
O36	O	0.851940	0.500395	0.065312
O37	O	0.770114	0.647747	-0.008360
O38	O	0.688313	0.653477	0.059578
C39	C	0.729205	0.390558	0.025598
C40	C	0.729203	0.326326	0.025595
C41	C	0.771897	0.293166	-0.009871
C42	C	0.771905	0.232804	-0.009865
C43	C	0.729203	0.205618	0.025597
C44	C	0.686508	0.238783	0.061070
C45	C	0.686508	0.299137	0.061069
C46	C	0.657667	0.148611	0.017813
C47	C	0.657664	0.088262	0.017808
C48	C	0.729204	0.019463	0.025604
C49	C	0.800746	0.011029	0.033389
C50	C	0.800746	0.071383	0.033388
C51	C	0.729199	0.140174	0.025602
C52	C	0.771910	-0.079149	-0.009857
C53	C	0.771920	-0.139516	-0.009846
C54	C	0.686515	-0.133529	0.061084
C55	C	0.686513	-0.073170	0.061078
C56	C	0.729209	-0.045981	0.025604
C57	C	0.510504	0.595165	0.017934
C58	C	0.436276	0.600375	0.015331
C59	C	0.444115	0.525909	0.052559
C60	C	0.374367	0.530809	0.050111
C61	C	0.296783	0.610177	0.010430
C62	C	0.288946	0.684649	-0.026800
C63	C	0.358692	0.679748	-0.024347
C64	C	0.084056	0.628824	0.001104
C65	C	0.014308	0.633719	-0.001347
C66	C	0.099735	0.479878	0.075565
C67	C	0.169479	0.474984	0.078011
C68	C	0.161636	0.549456	0.040784
C69	C	0.225489	0.615188	0.007925
C70	C	0.232929	0.544445	0.043294
C71	C	0.947919	0.564463	0.033278
C72	C	1.022146	0.559253	0.035882
C73	C	0.729171	0.579849	-0.163675
C74	C	0.729157	0.579861	-0.227915
C75	C	0.729217	0.769070	0.025614
C76	C	0.729219	0.833301	0.025617
C77	C	0.789555	0.575623	-0.255959
C78	C	0.789574	0.575606	-0.316305
C79	C	0.729181	0.579843	-0.348613
C80	C	0.668777	0.584077	-0.320559
C81	C	0.668766	0.584086	-0.260210
C82	C	0.655476	0.632511	-0.470578
C83	C	0.655488	0.632507	-0.530929
C84	C	0.729217	0.579812	-0.534748
C85	C	0.802940	0.527130	-0.478214
C86	C	0.802928	0.527139	-0.417865
C87	C	0.729187	0.579833	-0.414051
C88	C	0.789640	0.575553	-0.628226
C89	C	0.789658	0.575530	-0.688570
C90	C	0.668856	0.584010	-0.692827
C91	C	0.668843	0.584024	-0.632480
C92	C	0.729235	0.579800	-0.600184
C93	C	0.729252	0.579779	0.214887
C94	C	0.729266	0.579767	0.279127
C95	C	0.947913	0.375207	0.033270
C96	C	1.022138	0.305765	0.035870
C97	C	0.729246	0.390523	0.214878
C98	C	0.729258	0.326279	0.279116
C99	C	0.947954	0.375172	0.222550
C100	C	1.022193	0.305718	0.289391
C101	C	0.510469	0.784456	-0.171338
C102	C	0.436230	0.853910	-0.238179
C103	C	0.510510	0.784421	0.017943
C104	C	0.436284	0.853863	0.015342
C105	C	0.729177	0.769105	-0.163666
C106	C	0.729165	0.833349	-0.227903
C107	C	1.014281	0.276159	-0.001373
C108	C	1.084016	0.210920	0.001056
C109	C	1.161609	0.175284	0.040734
C110	C	1.169466	0.204896	0.077979
C111	C	1.099731	0.270138	0.075545
C112	C	0.771978	0.293105	0.347747
C113	C	0.771986	0.232750	0.408111
C114	C	0.729278	0.205565	0.399841
C115	C	0.686552	0.238746	0.331202
C116	C	0.686540	0.299104	0.270840
C117	C	1.099762	0.270110	0.285318
C118	C	1.169525	0.204859	0.348117
C119	C	1.161715	0.175212	0.414988
C120	C	1.084137	0.210826	0.419059
C121	C	1.014377	0.276080	0.356261
C122	C	0.358660	0.889525	-0.234106
C123	C	0.288898	0.954795	-0.296904
C124	C	0.296708	0.984445	-0.363776
C125	C	0.374286	0.948827	-0.367847
C126	C	0.444046	0.883562	-0.305049
C127	C	0.444142	0.883475	0.052579
C128	C	0.374406	0.948731	0.050133
C129	C	0.296813	0.984369	0.010453
C130	C	0.288957	0.954754	-0.026789
C131	C	0.358692	0.889504	-0.024346
C132	C	0.771882	0.860514	-0.219611
C133	C	0.771887	0.920868	-0.279962
C134	C	0.729170	0.954062	-0.348606
C135	C	0.686452	0.926891	-0.356897
C136	C	0.686452	0.866533	-0.296546
H137	H	0.859003	-0.044994	0.039746
H138	H	0.651673	0.953926	-0.412795
F139	F	0.729298	0.141325	0.464091
H140	H	0.806781	0.205741	0.463994
H141	H	0.806756	0.315231	0.354494
F142	F	0.641102	0.209805	0.322412
H143	H	0.352283	0.865396	-0.054668
H144	H	0.507284	0.461278	0.084875
H145	H	1.232651	0.175872	0.110283
H146	H	0.651754	0.326107	0.214959
H147	H	0.651664	0.844423	-0.303308
F148	F	0.817361	-0.174806	-0.047597
H149	H	1.106137	0.294239	0.230874
F150	F	1.075638	0.179414	-0.038585
F151	F	0.382585	0.980390	-0.439023
H152	H	1.232686	0.175868	0.344789
F153	F	0.817355	-0.050216	-0.047606
H154	H	0.507205	0.854565	-0.308374
H155	H	1.218525	0.122078	0.466116
F156	F	0.641070	-0.037875	0.098824
H157	H	0.225772	0.983781	-0.059095
H158	H	0.240037	1.037500	0.008471
H159	H	0.862955	0.484243	-0.371836
H160	H	1.077791	0.186678	0.473514
H161	H	-0.048867	0.698354	-0.033664
H162	H	0.858998	0.064511	0.039730
H163	H	1.218386	0.122159	0.042710
F164	F	0.931823	0.313966	0.360607
H165	H	0.352286	0.865388	-0.179662
H166	H	0.225738	0.983785	-0.293575
H167	H	0.838731	0.572180	-0.229665
H168	H	1.106140	0.294235	0.105878
F169	F	0.817351	0.825197	-0.146561
H170	H	0.806671	0.942984	-0.273197
F171	F	0.641069	-0.162458	0.098825
F172	F	0.222455	1.053906	-0.430606
F173	F	0.604505	0.588583	-0.354941
H174	H	0.806664	0.315299	-0.038754
F175	F	0.853861	0.571095	-0.346157
F176	F	0.817354	0.197498	-0.047607
F177	F	0.729175	1.018302	-0.412831
H178	H	0.599410	0.095138	0.011465
H179	H	0.599402	0.204638	0.011450
H180	H	0.651740	0.326138	0.089950
F181	F	0.641068	0.209844	0.098816
F182	F	0.382785	0.980235	0.089776
F183	F	0.382715	0.451551	0.089742
H184	H	0.232648	0.410354	0.110310
H185	H	0.507316	0.854463	0.084896
H186	H	0.838816	0.572109	-0.601928
H187	H	0.077660	0.689464	-0.029221
F188	F	0.206372	0.769119	-0.069027
F189	F	0.350347	0.759006	-0.063969
F190	F	0.108073	0.400625	0.115184
F191	F	0.604479	0.588597	-0.230362
F192	F	0.315500	0.459978	0.085530
H193	H	0.162311	0.679810	-0.024384
H194	H	0.862977	0.484220	-0.481320
H195	H	0.619685	0.587456	-0.719129
F196	F	0.853949	0.571013	-0.718415
F197	F	0.604556	0.588541	-0.602633
H198	H	0.595459	0.675408	-0.576957
H199	H	0.595432	0.675415	-0.467473
F200	F	0.931707	0.314076	-0.043608
