data_functionalizedCrystal
_audit_creation_method	'MofGen! by Chris Wilmer'
_symmetry_space_group_name_H-M	'P1'
_symmetry_Int_Tables_number	1
_symmetry_cell_setting	triclinic
loop_
_symmetry_equiv_pos_as_xyz
  x,y,z
_cell_length_a	33.428889
_cell_length_b	33.428139
_cell_length_c	33.424847
_cell_angle_alpha	60.004234
_cell_angle_beta	60.008465
_cell_angle_gamma	59.994972
loop_
_atom_site_label
_atom_site_type_symbol
_atom_site_fract_x
_atom_site_fract_y
_atom_site_fract_z
O1	O	0.055565	-0.584504	0.488714
O2	O	0.555565	-0.084504	0.988714
O3	O	0.020982	-0.455083	0.393778
O4	O	0.520982	0.044917	0.893778
O5	O	0.102943	-0.536959	0.393689
O6	O	0.602943	-0.036959	0.893689
O7	O	-0.026396	-0.502628	0.488803
O8	O	0.473604	-0.002628	0.988803
O9	O	0.130140	-0.509767	0.420792
O10	O	0.630140	-0.009767	0.920792
O11	O	0.048179	-0.427891	0.420881
O12	O	0.548179	0.072109	0.920881
O13	O	0.082762	-0.557312	0.515817
O14	O	0.582762	-0.057312	1.015817
Cu15	Cu	0.067954	-0.490119	0.470823
Cu16	Cu	0.567954	0.009881	0.970823
Cu17	Cu	0.035790	-0.522276	0.438771
Cu18	Cu	0.535790	-0.022276	0.938771
O19	O	0.000801	-0.475436	0.515906
O20	O	0.500801	0.024564	1.015906
N21	N	0.090577	-0.467504	0.493370
N22	N	0.590577	0.032496	0.993370
N23	N	0.013171	-0.544895	0.416225
N24	N	0.513171	-0.044895	0.916225
C25	C	0.143377	-0.280390	0.546067
C26	C	0.643377	0.219610	1.046067
C27	C	0.143515	-0.414755	0.680369
C28	C	0.643515	0.085245	1.180369
C29	C	0.143392	-0.414735	0.546069
C30	C	0.643392	0.085265	1.046069
C31	C	0.277766	-0.414702	0.545966
C32	C	0.777766	0.085298	1.045966
C33	C	0.158177	-0.324719	0.560828
C34	C	0.658177	0.175281	1.060828
C35	C	0.158255	-0.399967	0.636038
C36	C	0.658255	0.100033	1.136038
C37	C	0.233434	-0.399936	0.560773
C38	C	0.733434	0.100064	1.060773
C39	C	0.158186	-0.399955	0.560829
C40	C	0.658186	0.100045	1.060829
C41	C	0.124540	-0.223964	0.527278
C42	C	0.624540	0.276036	1.027278
C43	C	0.124565	-0.433545	0.527281
C44	C	0.624565	0.066455	1.027281
C45	C	0.177014	-0.381145	0.579617
C46	C	0.677014	0.118855	1.079617
C47	C	0.359814	-0.400540	0.502735
C48	C	0.859814	0.099460	1.002735
C49	C	0.411105	-0.417624	0.485606
C50	C	0.911105	0.082376	0.985606
C51	C	0.411136	-0.500620	0.517255
C52	C	0.911136	-0.000620	1.017255
C53	C	0.359845	-0.483534	0.534385
C54	C	0.859845	0.016466	1.034385
C55	C	0.136887	-0.198305	0.476855
C56	C	0.636887	0.301695	0.976855
C57	C	0.119761	-0.147011	0.459777
C58	C	0.619761	0.352989	0.959777
C59	C	0.077945	-0.147038	0.543547
C60	C	0.577945	0.352962	1.043547
C61	C	0.095072	-0.198332	0.560625
C62	C	0.595072	0.301668	1.060625
C63	C	0.074134	-0.421169	0.539710
C64	C	0.574134	0.078831	1.039710
C65	C	0.057023	-0.438269	0.522625
C66	C	0.557023	0.061731	1.022625
C67	C	0.140770	-0.480120	0.480694
C68	C	0.640770	0.019880	0.980694
C69	C	0.157883	-0.463020	0.497773
C70	C	0.657883	0.036980	0.997773
C71	C	0.074339	-0.421208	0.762475
C72	C	0.574339	0.078792	1.262475
C73	C	0.057288	-0.438323	0.813768
C74	C	0.557288	0.061677	1.313768
C75	C	0.141075	-0.480183	0.813699
C76	C	0.641075	0.019817	1.313699
C77	C	0.158125	-0.463069	0.762404
C78	C	0.658125	0.036931	1.262404
C79	C	0.124756	-0.433580	0.736794
C80	C	0.624756	0.066420	1.236794
C81	C	0.334186	-0.433494	0.527123
C82	C	0.834186	0.066506	1.027123
C83	C	-0.173769	-0.597444	0.363037
C84	C	0.326231	-0.097444	0.863037
C85	C	-0.039302	-0.597595	0.228856
C86	C	0.460698	-0.097595	0.728856
C87	C	-0.039496	-0.597587	0.363300
C88	C	0.460504	-0.097587	0.863300
C89	C	-0.039512	-0.731889	0.363237
C90	C	0.460488	-0.231889	0.863237
C91	C	-0.129442	-0.612265	0.348329
C92	C	0.370558	-0.112265	0.848329
C93	C	-0.054138	-0.612351	0.273187
C94	C	0.445862	-0.112351	0.773187
C95	C	-0.054257	-0.687554	0.348440
C96	C	0.445743	-0.187554	0.848440
C97	C	-0.054247	-0.612346	0.348477
C98	C	0.445753	-0.112346	0.848477
C99	C	-0.230191	-0.578579	0.381758
C100	C	0.269809	-0.078579	0.881758
C101	C	-0.020722	-0.578803	0.382168
C102	C	0.479278	-0.078803	0.882168
C103	C	-0.073020	-0.631130	0.329609
C104	C	0.426980	-0.131130	0.829609
C105	C	-0.053713	-0.813916	0.406386
C106	C	0.446287	-0.313916	0.906386
C107	C	-0.036654	-0.865210	0.423504
C108	C	0.463346	-0.365210	0.923504
C109	C	0.046338	-0.865293	0.391984
C110	C	0.546338	-0.365293	0.891984
C111	C	0.029278	-0.813999	0.374865
C112	C	0.529278	-0.313999	0.874865
C113	C	-0.255900	-0.590938	0.432169
C114	C	0.244100	-0.090938	0.932169
C115	C	-0.307191	-0.573786	0.449185
C116	C	0.192809	-0.073786	0.949185
C117	C	-0.307060	-0.531922	0.365377
C118	C	0.192940	-0.031922	0.865377
C119	C	-0.255769	-0.549074	0.348360
C120	C	0.244231	-0.049074	0.848360
C121	C	-0.033081	-0.528377	0.369764
C122	C	0.466919	-0.028377	0.869764
C123	C	-0.016014	-0.511306	0.386922
C124	C	0.483986	-0.011306	0.886922
C125	C	0.025770	-0.595083	0.428877
C126	C	0.525770	-0.095083	0.928877
C127	C	0.008703	-0.612156	0.411725
C128	C	0.508703	-0.112156	0.911725
C129	C	-0.032755	-0.528393	0.146761
C130	C	0.467245	-0.028393	0.646761
C131	C	-0.015585	-0.511324	0.095468
C132	C	0.484415	-0.011324	0.595468
C133	C	0.026262	-0.595106	0.095516
C134	C	0.526262	-0.095106	0.595516
C135	C	0.009094	-0.612174	0.146811
C136	C	0.509094	-0.112174	0.646811
C137	C	-0.020417	-0.578816	0.172432
C138	C	0.479583	-0.078816	0.672432
C139	C	-0.020748	-0.788312	0.382068
C140	C	0.479252	-0.288312	0.882068
N141	N	0.436037	-0.467415	0.493101
N142	N	0.936037	0.032585	0.993101
O143	O	0.592642	-0.471896	0.376066
O144	O	1.092642	0.028104	0.876066
O145	O	0.592838	-0.567146	0.505347
O146	O	1.092838	-0.067146	1.005347
O147	O	0.592754	-0.566928	0.423360
O148	O	1.092754	-0.066928	0.923360
O149	O	0.592727	-0.472113	0.458053
O150	O	1.092727	0.027887	0.958053
O151	O	0.511269	-0.539835	0.450606
O152	O	1.011269	-0.039835	0.950606
O153	O	0.511353	-0.540052	0.532594
O154	O	1.011353	-0.040052	1.032594
O155	O	0.511157	-0.444802	0.403312
O156	O	1.011157	0.055198	0.903312
Cu157	Cu	0.503815	-0.489954	0.470441
Cu158	Cu	1.003815	0.010046	0.970441
Cu159	Cu	0.600180	-0.521995	0.438219
Cu160	Cu	1.100180	-0.021995	0.938219
O161	O	0.511242	-0.445020	0.485300
O162	O	1.011242	0.054980	0.985300
N163	N	0.667959	-0.544533	0.415554
N164	N	1.167959	-0.044533	0.915554
N165	N	0.090544	-0.122107	0.493359
N166	N	0.590544	0.377893	0.993359
O167	O	-0.026406	0.034587	0.488773
O168	O	0.473594	0.534587	0.988773
O169	O	0.102877	0.034627	0.393499
O170	O	0.602877	0.534627	0.893499
O171	O	0.020848	0.034591	0.393771
O172	O	0.520848	0.534591	0.893771
O173	O	0.055623	0.034623	0.488500
O174	O	0.555623	0.534623	0.988500
O175	O	0.048051	-0.046899	0.420925
O176	O	0.548051	0.453101	0.920925
O177	O	0.130080	-0.046864	0.420653
O178	O	0.630080	0.453136	0.920653
O179	O	0.000796	-0.046903	0.515927
O180	O	0.500796	0.453097	1.015927
Cu181	Cu	0.067922	-0.054324	0.470769
Cu182	Cu	0.567922	0.445676	0.970769
Cu183	Cu	0.035752	0.042048	0.438656
Cu184	Cu	0.535752	0.542048	0.938656
O185	O	0.082825	-0.046867	0.515655
O186	O	0.582825	0.453133	1.015655
N187	N	0.013123	0.109830	0.416068
N188	N	0.513123	0.609830	0.916068
N189	N	0.090892	-0.467554	0.838649
N190	N	0.590892	0.032446	1.338649
O191	O	0.086330	-0.584488	0.995334
O192	O	0.586330	-0.084488	1.495334
O193	O	-0.008902	-0.455160	0.995379
O194	O	0.491098	0.044840	1.495379
O195	O	-0.008679	-0.537172	0.995355
O196	O	0.491321	-0.037172	1.495355
O197	O	0.086107	-0.502475	0.995358
O198	O	0.586107	-0.002475	1.495358
O199	O	0.018452	-0.509990	0.913868
O200	O	0.518452	-0.009990	1.413868
O201	O	0.018230	-0.427978	0.913891
O202	O	0.518230	0.072022	1.413891
O203	O	0.113461	-0.557306	0.913847
O204	O	0.613461	-0.057306	1.413847
Cu205	Cu	0.068323	-0.490160	0.906429
Cu206	Cu	0.568323	0.009840	1.406429
Cu207	Cu	0.036237	-0.522306	1.002797
Cu208	Cu	0.536237	-0.022306	1.502797
O209	O	0.113239	-0.475293	0.913870
O210	O	0.613239	0.024707	1.413870
N211	N	0.013667	-0.544916	1.070577
N212	N	0.513667	-0.044916	1.570577
C213	C	0.031339	-0.425179	0.394250
C214	C	0.531339	0.074821	0.894250
C215	C	0.132837	-0.526572	0.394139
C216	C	0.632837	-0.026572	0.894139
C217	C	0.072405	-0.587216	0.515344
C218	C	0.572405	-0.087216	1.015344
C219	C	-0.029093	-0.485823	0.515455
C220	C	0.470907	0.014177	1.015455
C221	C	0.552119	-0.566716	0.535258
C222	C	1.052119	-0.066716	1.035258
C223	C	0.552016	-0.566447	0.433726
C224	C	1.052016	-0.066447	0.933726
C225	C	0.551873	-0.445232	0.373402
C226	C	1.051873	0.054768	0.873402
C227	C	0.551980	-0.445502	0.474933
C228	C	1.051980	0.054498	0.974933
C229	C	0.132731	-0.006013	0.393923
C230	C	0.632731	0.493987	0.893923
C231	C	0.031182	-0.006158	0.394293
C232	C	0.531182	0.493842	0.894293
C233	C	-0.029092	-0.006163	0.515469
C234	C	0.470908	0.493837	1.015469
C235	C	0.072491	-0.006119	0.515133
C236	C	0.572491	0.493881	1.015133
C237	C	-0.008451	-0.425276	0.954641
C238	C	0.491549	0.074724	1.454641
C239	C	-0.008170	-0.526833	0.954596
C240	C	0.491830	-0.026833	1.454596
C241	C	0.113010	-0.587190	0.954585
C242	C	0.613010	-0.087190	1.454585
C243	C	0.112735	-0.485627	0.954611
C244	C	0.612735	0.014373	1.454611
H245	H	0.016234	-0.428240	0.834672
H246	H	0.516234	0.071760	1.334672
H247	H	-0.066220	-0.006175	0.545378
H248	H	0.433780	0.493825	1.045378
O249	O	0.551942	-0.601939	0.424880
O250	O	1.051942	-0.101939	0.924880
C251	C	0.509728	-0.625346	0.403330
C252	C	1.009728	-0.125346	0.903330
C253	C	0.509746	-0.585114	0.413347
C254	C	1.009746	-0.085114	0.913347
H255	H	0.475621	-0.611754	0.393994
H256	H	0.975621	-0.111754	0.893994
H257	H	0.509753	-0.659582	0.437300
H258	H	1.009753	-0.159582	0.937300
H259	H	0.543822	-0.634475	0.371245
H260	H	1.043822	-0.134475	0.871245
H261	H	0.475657	-0.575943	0.445417
H262	H	0.975657	-0.075943	0.945417
H263	H	0.509746	-0.550903	0.379353
H264	H	1.009746	-0.050903	0.879353
O265	O	0.551821	-0.409614	0.329076
O266	O	1.051821	0.090386	0.829076
C267	C	0.551684	-0.386816	0.248399
C268	C	1.051684	0.113184	0.748399
C269	C	0.551756	-0.427201	0.298572
C270	C	1.051756	0.072799	0.798572
H271	H	0.551620	-0.401017	0.223727
H272	H	1.051620	0.098983	0.723727
H273	H	0.585771	-0.376097	0.230739
H274	H	1.085771	0.123903	0.730739
H275	H	0.517568	-0.353420	0.253604
H276	H	1.017568	0.146580	0.753604
H277	H	0.585848	-0.460623	0.293410
H278	H	1.085848	0.039377	0.793410
H279	H	0.517646	-0.437878	0.316215
H280	H	1.017646	0.062122	0.816215
H281	H	0.023949	-0.388000	0.364433
H282	H	0.523949	0.112000	0.864433
O283	O	0.551946	-0.410013	0.483873
O284	O	1.051946	0.089987	0.983873
C285	C	0.552026	-0.387609	0.542056
C286	C	1.052026	0.112391	1.042056
C287	C	0.552052	-0.427839	0.532001
C288	C	1.052052	0.072161	1.032001
H289	H	0.552123	-0.402010	0.580964
H290	H	1.052123	0.097990	1.080964
H291	H	0.517887	-0.354184	0.537748
H292	H	1.017887	0.145816	1.037748
H293	H	0.586089	-0.376858	0.514883
H294	H	1.086089	0.123142	1.014883
H295	H	0.518013	-0.438631	0.559165
H296	H	1.018013	0.061369	1.059165
H297	H	0.586215	-0.461237	0.536293
H298	H	1.086215	0.038763	1.036293
O299	O	0.081211	-0.631605	0.550874
O300	O	0.581211	-0.131605	1.050874
C301	C	0.102734	-0.718782	0.574357
C302	C	0.602734	-0.218782	1.074357
C303	C	0.092763	-0.668542	0.534082
C304	C	0.592763	-0.168542	1.034082
H305	H	0.112086	-0.748660	0.560791
H306	H	0.612086	-0.248660	1.060791
H307	H	0.068739	-0.718989	0.608563
H308	H	0.568739	-0.218989	1.108563
H309	H	0.134794	-0.725891	0.583521
H310	H	0.634794	-0.225891	1.083521
H311	H	0.060719	-0.661401	0.524875
H312	H	0.560719	-0.161401	1.024875
H313	H	0.126782	-0.668359	0.499901
H314	H	0.626782	-0.168359	0.999901
O315	O	0.176952	-0.005705	0.358196
O316	O	0.676952	0.494295	0.858196
C317	C	0.257542	-0.005302	0.335249
C318	C	0.757542	0.494698	0.835249
C319	C	0.207481	-0.005639	0.375749
C320	C	0.707481	0.494361	0.875749
H321	H	0.282242	-0.005258	0.349430
H322	H	0.782242	0.494742	0.849430
H323	H	0.252204	0.028885	0.301944
H324	H	0.752204	0.528885	0.801944
H325	H	0.275251	-0.039321	0.324399
H326	H	0.775251	0.460679	0.824399
H327	H	0.189744	0.028358	0.386641
H328	H	0.689744	0.528358	0.886641
H329	H	0.212851	-0.039848	0.409028
H330	H	0.712851	0.460152	0.909028
H331	H	0.023733	-0.006162	0.364531
H332	H	0.523733	0.493838	0.864531
H333	H	0.142910	-0.624330	0.954565
H334	H	0.642910	-0.124330	1.454565
O335	O	-0.073387	-0.477049	0.551103
O336	O	0.426613	0.022951	1.051103
C337	C	-0.132384	-0.427480	0.602781
C338	C	0.367616	0.072520	1.102781
C339	C	-0.082208	-0.437370	0.562416
C340	C	0.417792	0.062630	1.062416
H341	H	-0.139536	-0.395394	0.611933
H342	H	0.360464	0.104606	1.111933
H343	H	-0.132491	-0.461496	0.636972
H344	H	0.367509	0.038504	1.136972
H345	H	-0.162289	-0.418208	0.589294
H346	H	0.337711	0.081792	1.089294
H347	H	-0.052275	-0.446630	0.575857
H348	H	0.447725	0.053370	1.075857
H349	H	-0.082143	-0.403347	0.528234
H350	H	0.417857	0.096653	1.028234
O351	O	0.081464	-0.006140	0.550596
O352	O	0.581464	0.493860	1.050596
C353	C	0.139700	-0.006100	0.572955
C354	C	0.639700	0.493900	1.072955
C355	C	0.129606	-0.006083	0.532752
C356	C	0.629606	0.493917	1.032752
H357	H	0.178618	-0.006043	0.558539
H358	H	0.678618	0.493957	1.058539
H359	H	0.135378	-0.040219	0.606394
H360	H	0.635378	0.459781	1.106394
H361	H	0.112555	0.027989	0.583685
H362	H	0.612555	0.527989	1.083685
H363	H	0.156741	-0.040148	0.521979
H364	H	0.656741	0.459852	1.021979
H365	H	0.133910	0.028058	0.499338
H366	H	0.633910	0.528058	0.999338
H367	H	0.015959	-0.428182	0.532734
H368	H	0.515959	0.071818	1.032734
O369	O	0.552205	-0.602345	0.579573
O370	O	1.052205	-0.102345	1.079573
C371	C	0.552265	-0.625117	0.660276
C372	C	1.052265	-0.125117	1.160276
C373	C	0.552179	-0.584728	0.610108
C374	C	1.052179	-0.084728	1.110108
H375	H	0.552234	-0.610884	0.684980
H376	H	1.052234	-0.110884	1.184980
H377	H	0.586395	-0.658517	0.655126
H378	H	1.086395	-0.158517	1.155126
H379	H	0.518192	-0.635841	0.677873
H380	H	1.018192	-0.135841	1.177873
H381	H	0.586229	-0.573962	0.592483
H382	H	1.086229	-0.073962	1.092483
H383	H	0.518027	-0.551354	0.615290
H384	H	1.018027	-0.051354	1.115290
O385	O	0.148217	-0.476683	0.954583
O386	O	0.648217	0.023317	1.454583
C387	C	0.170616	-0.418479	0.954619
C388	C	0.670616	0.081521	1.454619
C389	C	0.130394	-0.428538	0.954640
C390	C	0.630394	0.071462	1.454640
H391	H	0.156217	-0.379558	0.954675
H392	H	0.656217	0.120442	1.454675
H393	H	0.204047	-0.422822	0.920500
H394	H	0.704047	0.077178	1.420500
H395	H	0.181351	-0.445629	0.988705
H396	H	0.681351	0.054371	1.488705
H397	H	0.119617	-0.401397	0.920577
H398	H	0.619617	0.098603	1.420577
H399	H	0.096989	-0.424212	0.988781
H400	H	0.596989	0.075788	1.488781
O401	O	-0.043699	-0.535592	0.954489
O402	O	0.456301	-0.035592	1.454489
C403	C	-0.097098	-0.512014	0.912205
C404	C	0.402902	-0.012014	1.412205
C405	C	-0.056871	-0.502034	0.912270
C406	C	0.443129	-0.002034	1.412270
H407	H	-0.107752	-0.484895	0.878069
H408	H	0.392248	0.015105	1.378069
H409	H	-0.130572	-0.507611	0.946278
H410	H	0.369428	-0.007611	1.446278
H411	H	-0.082723	-0.550953	0.912206
H412	H	0.417277	-0.050953	1.412206
H413	H	-0.071199	-0.463097	0.912252
H414	H	0.428801	0.036903	1.412252
H415	H	-0.023405	-0.506470	0.878199
H416	H	0.476595	-0.006470	1.378199
O417	O	-0.044061	-0.380925	0.954591
O418	O	0.455939	0.119075	1.454591
C419	C	-0.067754	-0.293759	0.912382
C420	C	0.432246	0.206241	1.412382
C421	C	-0.027380	-0.343954	0.912384
C422	C	0.472620	0.156046	1.412384
H423	H	-0.054286	-0.263856	0.878257
H424	H	0.445714	0.236144	1.378257
H425	H	-0.076993	-0.286549	0.946466
H426	H	0.423007	0.213451	1.446466
H427	H	-0.101890	-0.293720	0.912409
H428	H	0.398110	0.206280	1.412409
H429	H	0.006781	-0.344029	0.912340
H430	H	0.506781	0.155971	1.412340
H431	H	-0.018184	-0.351144	0.878303
H432	H	0.481816	0.148856	1.378303
O433	O	0.041856	-0.392582	0.737675
O434	O	0.541856	0.107418	1.237675
C435	C	-0.043050	-0.352842	0.743161
C436	C	0.456950	0.147158	1.243161
C437	C	-0.006318	-0.385270	0.771308
C438	C	0.493682	0.114730	1.271308
H439	H	-0.082007	-0.346911	0.770342
H440	H	0.417993	0.153089	1.270342
H441	H	-0.037199	-0.371623	0.719163
H442	H	0.462801	0.128377	1.219163
H443	H	-0.037134	-0.315952	0.719136
H444	H	0.462866	0.184048	1.219136
H445	H	-0.012212	-0.422165	0.795360
H446	H	0.487788	0.077835	1.295360
H447	H	-0.012178	-0.366451	0.795276
H448	H	0.487822	0.133549	1.295276
H449	H	0.168250	-0.504186	0.834549
H450	H	0.668250	-0.004186	1.334549
H451	H	0.199181	-0.473148	0.741498
H452	H	0.699181	0.026852	1.241498
H453	H	0.047002	-0.397168	0.563734
H454	H	0.547002	0.102832	1.063734
H455	H	0.198948	-0.473094	0.487648
H456	H	0.698948	0.026906	0.987648
O457	O	0.173204	-0.508734	0.452020
O458	O	0.673204	-0.008734	0.952020
C459	C	0.258078	-0.548468	0.412259
C460	C	0.758078	-0.048468	0.912259
C461	C	0.221403	-0.516052	0.444727
C462	C	0.721403	-0.016052	0.944727
H463	H	0.297055	-0.554403	0.406361
H464	H	0.797055	-0.054403	0.906361
H465	H	0.252170	-0.529674	0.375357
H466	H	0.752170	-0.029674	0.875357
H467	H	0.252157	-0.585356	0.431053
H468	H	0.752157	-0.085356	0.931053
H469	H	0.227302	-0.479158	0.425976
H470	H	0.727302	0.020842	0.925976
H471	H	0.227321	-0.534884	0.481626
H472	H	0.727321	-0.034884	0.981626
O473	O	0.335028	-0.515611	0.558048
O474	O	0.835028	-0.015611	1.058048
C475	C	0.340480	-0.599741	0.587655
C476	C	0.840480	-0.099741	1.087655
C477	C	0.368645	-0.563463	0.560840
C478	C	0.868645	-0.063463	1.060840
H479	H	0.367647	-0.638438	0.589930
H480	H	0.867647	-0.138438	1.089930
H481	H	0.316454	-0.589487	0.566707
H482	H	0.816454	-0.089487	1.066707
H483	H	0.316481	-0.598154	0.626214
H484	H	0.816481	-0.098154	1.126214
H485	H	0.392671	-0.565032	0.522279
H486	H	0.892671	-0.065032	1.022279
H487	H	0.392640	-0.573729	0.581825
H488	H	0.892640	-0.073729	1.081825
H489	H	0.338923	-0.359792	0.496821
H490	H	0.838923	0.140208	0.996821
H491	H	0.169984	-0.533889	0.364272
H492	H	0.669984	-0.033889	0.864272
H493	H	0.431972	-0.390789	0.465748
H494	H	0.931972	0.109211	0.965748
O495	O	0.165488	-0.223126	0.444394
O496	O	0.665488	0.276874	0.944394
C497	C	0.205174	-0.217685	0.359501
C498	C	0.705174	0.282315	0.859501
C499	C	0.172769	-0.189512	0.396208
C500	C	0.672769	0.310488	0.896208
H501	H	0.211079	-0.190520	0.320534
H502	H	0.711079	0.309480	0.820534
H503	H	0.186390	-0.241696	0.365391
H504	H	0.686390	0.258304	0.865391
H505	H	0.242074	-0.241703	0.365409
H506	H	0.742074	0.258297	0.865409
H507	H	0.135864	-0.165468	0.390322
H508	H	0.635864	0.334532	0.890322
H509	H	0.191591	-0.165533	0.390308
H510	H	0.691591	0.334467	0.890308
H511	H	0.432025	-0.541365	0.523165
H512	H	0.932025	-0.041365	1.023165
H513	H	0.129813	-0.126117	0.418717
H514	H	0.629813	0.373883	0.918717
H515	H	0.085016	-0.219221	0.601683
H516	H	0.585016	0.280779	1.101683
O517	O	0.049311	-0.122213	0.576006
O518	O	0.549311	0.377787	1.076006
C519	C	0.009679	-0.127654	0.660899
C520	C	0.509679	0.372346	1.160899
C521	C	0.042103	-0.155827	0.624193
C522	C	0.542103	0.344173	1.124193
H523	H	0.003850	-0.154819	0.699866
H524	H	0.503850	0.345181	1.199866
H525	H	-0.027254	-0.103664	0.655060
H526	H	0.472746	0.396336	1.155060
H527	H	0.028470	-0.103617	0.654941
H528	H	0.528470	0.396383	1.154941
H529	H	0.023355	-0.179892	0.630129
H530	H	0.523355	0.320108	1.130129
H531	H	0.079035	-0.179787	0.630041
H532	H	0.579035	0.320213	1.130041
H533	H	-0.025639	-0.470264	0.074572
H534	H	0.474361	0.029736	0.574572
H535	H	0.050281	-0.622271	0.074658
H536	H	0.550281	-0.122271	0.574658
O537	O	-0.061404	-0.495921	0.171571
O538	O	0.438596	0.004079	0.671571
C539	C	-0.101131	-0.411018	0.166105
C540	C	0.398869	0.088982	0.666105
C541	C	-0.068675	-0.447737	0.137947
C542	C	0.431325	0.052263	0.637947
H543	H	-0.107029	-0.372054	0.138932
H544	H	0.392971	0.127946	0.638932
H545	H	-0.082393	-0.416902	0.190161
H546	H	0.417607	0.083098	0.690161
H547	H	-0.138031	-0.416918	0.190074
H548	H	0.361969	0.083082	0.690074
H549	H	-0.031770	-0.441859	0.113951
H550	H	0.468230	0.058141	0.613951
H551	H	-0.087452	-0.441844	0.113922
H552	H	0.412548	0.058156	0.613922
H553	H	-0.057039	-0.501216	0.345698
H554	H	0.442961	-0.001216	0.845698
O555	O	0.021107	-0.661174	0.171670
O556	O	0.521107	-0.161174	0.671670
C557	C	0.064444	-0.742472	0.166302
C558	C	0.564444	-0.242472	0.666302
C559	C	0.050868	-0.686994	0.138090
C560	C	0.550868	-0.186994	0.638090
H561	H	0.088516	-0.763364	0.139165
H562	H	0.588516	-0.263364	0.639165
H563	H	0.029633	-0.752553	0.190248
H564	H	0.529633	-0.252553	0.690248
H565	H	0.085260	-0.752570	0.190387
H566	H	0.585260	-0.252570	0.690387
H567	H	0.030064	-0.676857	0.113979
H568	H	0.530064	-0.176857	0.613979
H569	H	0.085697	-0.676944	0.114175
H570	H	0.585697	-0.176944	0.614175
O571	O	-0.028033	-0.462306	0.374800
O572	O	0.471967	0.037694	0.874800
C573	C	-0.071269	-0.381008	0.331366
C574	C	0.428731	0.118992	0.831366
C575	C	-0.057692	-0.436486	0.345055
C576	C	0.442308	0.063514	0.845055
H577	H	-0.095258	-0.360117	0.307324
H578	H	0.404742	0.139883	0.807324
H579	H	-0.036454	-0.370943	0.310513
H580	H	0.463546	0.129057	0.810513
H581	H	-0.092173	-0.370895	0.366162
H582	H	0.407827	0.129105	0.866162
H583	H	-0.036800	-0.446639	0.310284
H584	H	0.463200	0.053361	0.810284
H585	H	-0.092525	-0.446521	0.365927
H586	H	0.407475	0.053479	0.865927
H587	H	0.049734	-0.622248	0.452940
H588	H	0.549734	-0.122248	0.952940
H589	H	0.056124	-0.793157	0.355062
H590	H	0.556124	-0.293157	0.855062
O591	O	0.020771	-0.661157	0.423800
O592	O	0.520771	-0.161157	0.923800
C593	C	0.063992	-0.742453	0.467251
C594	C	0.563992	-0.242453	0.967251
C595	C	0.050371	-0.686974	0.453605
C596	C	0.550371	-0.186974	0.953605
H597	H	0.087917	-0.763342	0.491359
H598	H	0.587917	-0.263342	0.991359
H599	H	0.084946	-0.752599	0.432471
H600	H	0.584946	-0.252599	0.932471
H601	H	0.029163	-0.752488	0.488056
H602	H	0.529163	-0.252488	0.988056
H603	H	0.085174	-0.676899	0.432812
H604	H	0.585174	-0.176899	0.932812
H605	H	0.029397	-0.676858	0.488403
H606	H	0.529397	-0.176858	0.988403
H607	H	-0.063498	-0.886058	0.443304
H608	H	0.436502	-0.386058	0.943304
O609	O	0.094948	-0.890224	0.384902
O610	O	0.594948	-0.390224	0.884902
C611	C	0.176554	-0.905976	0.326332
C612	C	0.676554	-0.405976	0.826332
C613	C	0.121516	-0.877718	0.334282
C614	C	0.621516	-0.377718	0.834282
H615	H	0.198050	-0.895868	0.285408
H616	H	0.698050	-0.395868	0.785408
H617	H	0.183117	-0.947041	0.342709
H618	H	0.683117	-0.447041	0.842709
H619	H	0.189242	-0.895912	0.345001
H620	H	0.689242	-0.395912	0.845001
H621	H	0.108791	-0.887740	0.315613
H622	H	0.608791	-0.387740	0.815613
H623	H	0.114984	-0.836660	0.317918
H624	H	0.614984	-0.336660	0.817918
O625	O	-0.102320	-0.789038	0.413388
O626	O	0.397680	-0.289038	0.913388
C627	C	-0.182834	-0.794373	0.446450
C628	C	0.317166	-0.294373	0.946450
C629	C	-0.127800	-0.822605	0.438550
C630	C	0.372200	-0.322605	0.938550
H631	H	-0.203452	-0.821500	0.466804
H632	H	0.296548	-0.321500	0.966804
H633	H	-0.188503	-0.770383	0.409442
H634	H	0.311497	-0.270383	0.909442
H635	H	-0.197293	-0.770330	0.468984
H636	H	0.302707	-0.270330	0.968984
H637	H	-0.113304	-0.846675	0.416034
H638	H	0.386696	-0.346675	0.916034
H639	H	-0.122163	-0.846565	0.475576
H640	H	0.377837	-0.346565	0.975576
H641	H	-0.235077	-0.614964	0.459366
H642	H	0.264923	-0.114964	0.959366
O643	O	-0.332093	-0.585859	0.498172
O644	O	0.167907	-0.085859	0.998172
C645	C	-0.326810	-0.629181	0.579504
C646	C	0.173190	-0.129181	1.079504
C647	C	-0.298551	-0.615552	0.524040
C648	C	0.201449	-0.115552	1.024040
H649	H	-0.299704	-0.653181	0.600435
H650	H	0.200296	-0.153181	1.100435
H651	H	-0.350816	-0.650060	0.589573
H652	H	0.149184	-0.150060	1.089573
H653	H	-0.350838	-0.594356	0.589565
H654	H	0.149162	-0.094356	1.089565
H655	H	-0.274497	-0.650352	0.513939
H656	H	0.225503	-0.150352	1.013939
H657	H	-0.274576	-0.594654	0.514001
H658	H	0.225424	-0.094654	1.014001
H659	H	-0.327887	-0.507903	0.338181
H660	H	0.172113	-0.007903	0.838181
H661	H	-0.234840	-0.539009	0.307312
H662	H	0.265160	-0.039009	0.807312
