data_functionalizedCrystal
_audit_creation_method	'MofGen! by Chris Wilmer'
_symmetry_space_group_name_H-M	'P1'
_symmetry_Int_Tables_number	1
_symmetry_cell_setting	triclinic
loop_
_symmetry_equiv_pos_as_xyz
  x,y,z
_cell_length_a	6.817900
_cell_length_b	11.168121
_cell_length_c	15.185463
_cell_angle_alpha	93.592701
_cell_angle_beta	104.264314
_cell_angle_gamma	108.508496
loop_
_atom_site_label
_atom_site_type_symbol
_atom_site_fract_x
_atom_site_fract_y
_atom_site_fract_z
V1	V	-4.061106	-0.175539	-0.283400
O2	O	-4.021620	0.007577	-0.277998
O3	O	-4.037726	-0.347239	-0.281470
O4	O	-4.016124	-0.173216	-0.406998
O5	O	-4.043371	-0.167651	-0.151601
V6	V	-4.541049	-0.153592	-0.267635
O7	O	-4.330217	-0.223682	-0.317983
O8	O	-4.722135	-0.105449	-0.233053
O9	O	-4.341222	0.018108	-0.269566
O10	O	-4.697931	-0.336708	-0.273038
O11	O	-4.676180	-0.161480	-0.399435
O12	O	-4.362824	-0.155915	-0.144038
C13	C	-3.888702	-0.389084	-0.277001
C14	C	-3.950896	-0.529453	-0.276246
C15	C	-4.152721	-0.598157	-0.280220
C16	C	-4.217005	-0.743236	-0.279440
C17	C	-3.861146	-0.167099	-0.437123
C18	C	-3.905818	-0.166335	-0.538165
C19	C	-3.911535	-0.156833	-0.960768
C20	C	-4.277904	-0.169464	-0.970019
C21	C	-4.235930	-0.170170	-0.875084
C22	C	-4.031755	-0.164210	-0.822987
C23	C	-3.869554	-0.157543	-0.865824
C24	C	-4.398131	-0.176850	-0.832241
C25	C	-4.356162	-0.177558	-0.737301
C26	C	-4.151980	-0.171588	-0.685200
C27	C	-3.989773	-0.164919	-0.728043
C28	C	-3.785598	-0.158958	-0.675946
C29	C	-3.623384	-0.152281	-0.718786
C30	C	-3.665371	-0.151573	-0.813724
C31	C	-4.109993	-0.172296	-0.590262
C32	C	-3.743616	-0.159668	-0.581002
C33	C	-4.153588	0.059946	-0.274032
C34	C	-4.070633	0.200314	-0.274793
C35	C	-4.181144	-0.162037	-0.113908
C36	C	-4.115710	-0.162794	-0.012865
H37	H	-4.277922	-0.549572	-0.284206
H38	H	-3.533312	-0.146139	-0.848613
H39	H	-3.779464	-0.151391	-0.995652
H40	H	-3.897731	-0.740633	-0.271388
Br41	Br	-4.554997	-0.177574	-1.040725
Br42	Br	-4.675223	-0.184962	-0.902950
H43	H	-4.488251	-0.182993	-0.702429
Br44	Br	-4.505183	-0.841663	-0.285099
Br45	Br	-4.330127	-0.181373	-0.532127
Br46	Br	-3.466503	-0.151563	-0.510303
Br47	Br	-3.742208	-0.610421	-0.269623
Br48	Br	-3.346303	-0.144210	-0.648073
