data_functionalizedCrystal
_audit_creation_method	'MofGen! by Chris Wilmer'
_symmetry_space_group_name_H-M	'P1'
_symmetry_Int_Tables_number	1
_symmetry_cell_setting	triclinic
loop_
_symmetry_equiv_pos_as_xyz
  x,y,z
_cell_length_a	14.908571
_cell_length_b	12.594516
_cell_length_c	14.908308
_cell_angle_alpha	93.271498
_cell_angle_beta	90.175053
_cell_angle_gamma	86.712497
loop_
_atom_site_label
_atom_site_type_symbol
_atom_site_fract_x
_atom_site_fract_y
_atom_site_fract_z
Zn1	Zn	1.345329	-0.555460	-0.587618
Zn2	Zn	1.845329	-0.055460	-0.087618
Zn3	Zn	1.353920	-0.723816	-0.437269
Zn4	Zn	1.853920	-0.223816	0.062731
Zn5	Zn	1.203643	-0.535016	-0.428614
Zn6	Zn	1.703643	-0.035016	0.071386
Zn7	Zn	1.194948	-0.722551	-0.578920
Zn8	Zn	1.694948	-0.222551	-0.078920
O9	O	1.274460	-0.634211	-0.508105
O10	O	1.774460	-0.134211	-0.008105
O11	O	1.472295	-0.586878	-0.574935
O12	O	1.972295	-0.086878	-0.074935
O13	O	1.341220	-0.690745	-0.310295
O14	O	1.841220	-0.190745	0.189705
O15	O	1.222482	-0.388787	-0.449724
O16	O	1.722482	0.111213	0.050276
O17	O	1.478607	-0.710568	-0.464475
O18	O	1.978607	-0.210568	0.035525
O19	O	1.326578	-0.403807	-0.566543
O20	O	1.826578	0.096193	-0.066543
O21	O	1.230812	-0.552034	-0.303937
O22	O	1.730812	-0.052034	0.196063
O23	O	1.076663	-0.550808	-0.441291
O24	O	1.576663	-0.050808	0.058709
O25	O	1.207662	-0.708413	-0.705899
O26	O	1.707662	-0.208413	-0.205899
O27	O	1.070275	-0.688589	-0.551720
O28	O	1.570275	-0.188589	-0.051720
O29	O	1.318147	-0.585652	-0.712289
O30	O	1.818147	-0.085652	-0.212289
O31	O	1.332788	-0.872590	-0.456041
O32	O	1.832788	-0.372590	0.043959
O33	O	1.215992	-0.871661	-0.560112
O34	O	1.715992	-0.371661	-0.060112
C35	C	1.040844	-0.617344	-0.494623
C36	C	1.540844	-0.117344	0.005377
C37	C	0.940900	-0.610155	-0.488877
C38	C	1.440900	-0.110155	0.011123
C39	C	1.274402	-0.910747	-0.508093
C40	C	1.774402	-0.410747	-0.008093
C41	C	1.274457	-1.029058	-0.508123
C42	C	1.774457	-0.529058	-0.008123
C43	C	0.746501	-0.740319	-0.592914
C44	C	1.246501	-0.240319	-0.092914
C45	C	0.652595	-0.733568	-0.587518
C46	C	1.152595	-0.233568	-0.087518
C47	C	0.659180	-0.589898	-0.472693
C48	C	1.159180	-0.089898	0.027307
C49	C	0.753086	-0.596649	-0.478089
C50	C	1.253086	-0.096649	0.021911
C51	C	0.796743	-0.671863	-0.538201
C52	C	1.296743	-0.171863	-0.038201
C53	C	0.890651	-0.678619	-0.543592
C54	C	1.390651	-0.178619	-0.043592
C55	C	0.897235	-0.534943	-0.428772
C56	C	1.397235	-0.034943	0.071228
C57	C	0.803329	-0.528192	-0.423376
C58	C	1.303329	-0.028192	0.076624
C59	C	1.210928	-1.097842	-0.564684
C60	C	1.710928	-0.597842	-0.064684
C61	C	1.193759	-1.161862	-0.481377
C62	C	1.693759	-0.661862	0.018623
C63	C	1.291708	-1.175844	-0.591449
C64	C	1.791708	-0.675844	-0.091449
C65	C	1.257247	-1.091515	-0.424769
C66	C	1.757247	-0.591515	0.075231
C67	C	1.355231	-1.105496	-0.534899
C68	C	1.855231	-0.605496	-0.034899
C69	C	1.338096	-1.169483	-0.451537
C70	C	1.838096	-0.669483	0.048463
C71	C	1.508989	-0.651145	-0.521641
C72	C	2.008989	-0.151145	-0.021641
C73	C	1.608931	-0.658361	-0.527409
C74	C	2.108931	-0.158361	-0.027409
C75	C	1.260976	-0.649172	-0.742631
C76	C	1.760976	-0.149172	-0.242631
C77	C	1.255230	-0.655547	-0.842572
C78	C	1.755230	-0.155547	-0.342572
C79	C	1.274542	-0.356598	-0.508138
C80	C	1.774542	0.143402	-0.008138
C81	C	1.274577	-0.238296	-0.508153
C82	C	1.774577	0.261704	-0.008153
C83	C	1.359477	-0.539672	-1.037028
C84	C	1.859477	-0.039672	-0.537028
C85	C	1.354081	-0.545658	-1.130932
C86	C	1.854081	-0.045658	-0.630932
C87	C	1.239037	-0.673502	-1.124285
C88	C	1.739037	-0.173502	-0.624285
C89	C	1.244433	-0.667515	-1.030381
C90	C	1.744433	-0.167515	-0.530381
C91	C	1.304656	-0.600599	-0.986756
C92	C	1.804656	-0.100599	-0.486756
C93	C	1.310057	-0.594618	-0.892851
C94	C	1.810057	-0.094618	-0.392851
C95	C	1.195009	-0.722455	-0.886206
C96	C	1.695009	-0.222455	-0.386206
C97	C	1.189612	-0.728442	-0.980110
C98	C	1.689612	-0.228442	-0.480110
C99	C	1.287944	-0.619235	-0.274494
C100	C	1.787944	-0.119235	0.225506
C101	C	1.293864	-0.612572	-0.174564
C102	C	1.793864	-0.112572	0.325436
H103	H	0.926195	-0.739864	-0.592536
H104	H	1.426195	-0.239864	-0.092536
H105	H	1.190006	-0.727981	-1.159821
H106	H	1.690006	-0.227981	-0.659821
N107	N	0.791087	-0.817163	-0.654305
N108	N	1.291087	-0.317163	-0.154305
N109	N	0.746217	-0.878289	-0.703144
N110	N	1.246217	-0.378289	-0.203144
H111	H	0.777704	-0.932564	-0.746502
H112	H	1.277704	-0.432564	-0.246502
N113	N	0.601286	-0.803498	-0.643416
N114	N	1.101286	-0.303498	-0.143416
N115	N	0.640280	-0.870642	-0.697083
N116	N	1.140280	-0.370642	-0.197083
H117	H	0.604044	-0.920032	-0.736566
H118	H	1.104044	-0.420032	-0.236566
H119	H	0.938152	-0.479203	-0.384219
H120	H	1.438152	0.020797	0.115781
N121	N	1.309975	-1.222033	-0.679828
N122	N	1.809975	-0.722033	-0.179828
N123	N	1.377505	-1.284253	-0.693639
N124	N	1.877505	-0.784253	-0.193639
H125	H	1.390401	-1.316873	-0.756057
H126	H	1.890401	-0.816873	-0.256057
N127	N	1.238877	-1.045484	-0.336359
N128	N	1.738877	-0.545484	0.163641
N129	N	1.171659	-0.982734	-0.322681
N130	N	1.671659	-0.482734	0.177319
H131	H	1.158676	-0.950224	-0.260244
H132	H	1.658676	-0.450224	0.239756
N133	N	1.405558	-1.208673	-0.391469
N134	N	1.905558	-0.708673	0.108531
N135	N	1.402045	-1.180030	-0.309827
N136	N	1.902045	-0.680030	0.190173
H137	H	1.449687	-1.207708	-0.267401
H138	H	1.949687	-0.707708	0.232599
N139	N	1.440833	-1.074116	-0.563336
N140	N	1.940833	-0.574116	-0.063336
N141	N	1.469985	-1.103858	-0.639744
N142	N	1.969985	-0.603858	-0.139744
H143	H	1.530441	-1.081697	-0.659838
H144	H	2.030441	-0.581697	-0.159838
H145	H	0.623618	-0.528655	-0.423759
H146	H	1.123618	-0.028655	0.076241
H147	H	1.150372	-0.772070	-0.845265
H148	H	1.650372	-0.272070	-0.345265
N149	N	1.371578	-0.526268	-0.848301
N150	N	1.871578	-0.026268	-0.348301
N151	N	1.420519	-0.471873	-0.893202
N152	N	1.920519	0.028127	-0.393202
H153	H	1.463970	-0.423596	-0.861741
H154	H	1.963970	0.076404	-0.361741
H155	H	0.767770	-0.466952	-0.374438
H156	H	1.267770	0.033048	0.125562
N157	N	1.421003	-0.471328	-0.992475
N158	N	1.921003	0.028672	-0.492475
N159	N	1.469952	-0.416940	-1.037372
N160	N	1.969952	0.083060	-0.537372
H161	H	1.513406	-0.368671	-1.005908
H162	H	2.013406	0.131329	-0.505908
N163	N	1.143419	-1.058394	-0.624587
N164	N	1.643419	-0.558394	-0.124587
N165	N	1.062720	-1.074818	-0.611574
N166	N	1.562720	-0.574818	-0.111574
H167	H	1.015040	-1.046957	-0.653877
H168	H	1.515040	-0.546957	-0.153877
H169	H	1.140579	-0.782921	-1.015642
H170	H	1.640579	-0.282921	-0.515642
H171	H	1.125505	-1.186887	-0.458752
H172	H	1.625505	-0.686887	0.041248
N173	N	1.410080	-0.483408	-1.182269
N174	N	1.910080	0.016592	-0.682269
N175	N	1.463839	-0.423665	-1.143303
N176	N	1.963839	0.076335	-0.643303
H177	H	1.503390	-0.379695	-1.179559
H178	H	2.003390	0.120305	-0.679559
