data_functionalizedCrystal
_audit_creation_method	'MofGen! by Chris Wilmer'
_symmetry_space_group_name_H-M	'P1'
_symmetry_Int_Tables_number	1
_symmetry_cell_setting	triclinic
loop_
_symmetry_equiv_pos_as_xyz
  x,y,z
_cell_length_a	16.959453
_cell_length_b	15.297621
_cell_length_c	15.296720
_cell_angle_alpha	88.384271
_cell_angle_beta	99.643062
_cell_angle_gamma	99.676430
loop_
_atom_site_label
_atom_site_type_symbol
_atom_site_fract_x
_atom_site_fract_y
_atom_site_fract_z
Zn1	Zn	-0.615204	-1.253394	-0.726609
Zn2	Zn	-0.729021	-1.278656	-0.580120
Zn3	Zn	-0.570796	-1.132272	-0.554848
Zn4	Zn	-0.721247	-1.106883	-0.701244
O5	O	-0.659067	-1.192801	-0.640705
O6	O	-0.652141	-1.379322	-0.728368
O7	O	-0.692701	-1.280435	-0.454194
O8	O	-0.466090	-1.148392	-0.577671
O9	O	-0.735762	-1.397882	-0.620744
O10	O	-0.498716	-1.237380	-0.703863
O11	O	-0.576454	-1.172888	-0.435627
O12	O	-0.568915	-1.006327	-0.553076
O13	O	-0.722511	-1.105120	-0.827182
O14	O	-0.679451	-0.987674	-0.660632
O15	O	-0.644602	-1.212761	-0.845817
O16	O	-0.838587	-1.255817	-0.596149
O17	O	-0.832875	-1.129616	-0.685138
C18	C	-0.618521	-0.965217	-0.601360
C19	C	-0.601197	-0.867852	-0.584548
C20	C	-0.864414	-1.192723	-0.640656
C21	C	-0.952280	-1.192765	-0.640679
C22	C	-0.782853	-0.554707	-0.760821
C23	C	-0.799136	-0.646187	-0.776614
C24	C	-0.749652	-0.701608	-0.728599
C25	C	-0.683884	-0.665540	-0.664788
C26	C	-0.667604	-0.574052	-0.648989
C27	C	-0.634403	-0.720952	-0.616767
C28	C	-0.568634	-0.684885	-0.552957
C29	C	-0.552357	-0.593405	-0.537161
C30	C	-0.601840	-0.537985	-0.585176
C31	C	-0.650683	-0.812440	-0.632566
C32	C	-0.535433	-0.831785	-0.520734
C33	C	-0.519151	-0.740305	-0.504942
C34	C	-0.976643	-1.146508	-0.574948
C35	C	-1.010481	-1.239056	-0.706435
C36	C	-1.093036	-1.239093	-0.706461
C37	C	-1.117398	-1.192836	-0.640730
C38	C	-1.059205	-1.146542	-0.574974
C39	C	-1.151235	-1.285379	-0.772221
C40	C	-1.233796	-1.285418	-0.772251
C41	C	-1.258160	-1.239166	-0.706516
C42	C	-1.199961	-1.192870	-0.640756
C43	C	-1.224323	-1.146614	-0.575026
C44	C	-1.166126	-1.100323	-0.509262
C45	C	-1.083569	-1.100290	-0.509239
C46	C	-1.340717	-1.239199	-0.706538
C47	C	-1.306886	-1.146648	-0.575051
C48	C	-0.452925	-1.192900	-0.640777
C49	C	-0.365079	-1.192942	-0.640808
C50	C	-0.687643	-1.153290	-0.869170
C51	C	-0.699820	-1.136453	-0.966528
C52	C	-0.699765	-0.421275	-0.680197
C53	C	-0.717090	-0.518640	-0.697008
C54	C	-0.571901	-1.313171	-1.279776
C55	C	-0.560462	-1.328996	-1.188304
C56	C	-0.595300	-1.280861	-1.132856
C57	C	-0.641580	-1.216900	-1.168888
C58	C	-0.653025	-1.201078	-1.260370
C59	C	-0.676425	-1.168769	-1.113449
C60	C	-0.722704	-1.104807	-1.149482
C61	C	-0.734147	-1.088988	-1.240955
C62	C	-0.699309	-1.137122	-1.296403
C63	C	-0.664979	-1.184590	-1.021968
C64	C	-0.746104	-1.072498	-1.002561
C65	C	-0.757543	-1.056673	-1.094033
C66	C	-0.630554	-1.232208	-0.413137
C67	C	-0.618184	-1.249215	-0.315809
H68	H	-0.762913	-0.776094	-0.741462
H69	H	-1.131396	-1.323035	-0.825741
C70	C	-0.584039	-0.438644	-0.568122
C71	C	-0.506260	-0.404494	-0.585415
C72	C	-0.489846	-0.312982	-0.569731
H73	H	-0.586808	-0.427594	-0.508007
H74	H	-0.622893	-0.410778	-0.605884
H75	H	-0.467416	-0.432350	-0.547653
H76	H	-0.503472	-0.415520	-0.645527
H77	H	-0.528701	-0.285116	-0.607493
H78	H	-0.492619	-0.301941	-0.509615
H79	H	-0.437075	-0.289798	-0.581470
H80	H	-0.627297	-1.236668	-0.992639
H81	H	-1.281175	-1.323113	-0.825798
C82	C	-0.722066	-0.851767	-0.701780
C83	C	-0.725749	-0.943747	-0.705329
C84	C	-0.791505	-0.980004	-0.769076
H85	H	-0.715352	-0.826704	-0.758121
H86	H	-0.770893	-0.839042	-0.686262
H87	H	-0.676933	-0.956465	-0.720852
H88	H	-0.732474	-0.968834	-0.649004
H89	H	-0.840332	-0.967280	-0.753558
H90	H	-0.784785	-0.954935	-0.825412
H91	H	-0.794017	-1.042417	-0.771486
C92	C	-0.447641	-0.701167	-0.435775
C93	C	-0.375828	-0.720099	-0.458861
C94	C	-0.309937	-0.684049	-0.395172
H95	H	-0.454310	-0.726291	-0.379446
H96	H	-0.444983	-0.638738	-0.433253
H97	H	-0.378487	-0.782516	-0.461373
H98	H	-0.369133	-0.694974	-0.515179
H99	H	-0.307278	-0.621619	-0.392650
H100	H	-0.316614	-0.709176	-0.338847
H101	H	-0.261203	-0.696882	-0.410831
C102	C	-0.784284	-1.019491	-1.280190
C103	C	-0.736115	-0.954299	-1.323046
C104	C	-0.782281	-0.890276	-1.359213
H105	H	-0.803416	-0.992986	-1.234161
H106	H	-0.829140	-1.046791	-1.321699
H107	H	-0.691274	-0.927002	-1.281541
H108	H	-0.716983	-0.980777	-1.369088
H109	H	-0.827137	-0.917576	-1.400721
H110	H	-0.801410	-0.863778	-1.313178
H111	H	-0.749607	-0.846040	-1.388301
H112	H	-0.708620	-1.124242	-1.370888
C113	C	-1.403778	-1.289526	-0.777991
C114	C	-1.364772	-1.330034	-0.835545
C115	C	-1.422838	-1.376409	-0.901379
H116	H	-1.434812	-1.249474	-0.810422
H117	H	-1.438586	-1.333573	-0.751174
H118	H	-1.329979	-1.285992	-0.862361
H119	H	-1.333743	-1.370099	-0.803141
H120	H	-1.457646	-1.420456	-0.874562
H121	H	-1.453869	-1.336352	-0.933802
H122	H	-1.396382	-1.403906	-0.940432
C123	C	-0.583058	-1.298165	-1.033564
C124	C	-0.658504	-1.325736	-1.007159
C125	C	-0.647260	-1.341713	-0.915700
H126	H	-0.556768	-1.245291	-1.002966
H127	H	-0.550550	-1.343191	-1.020034
H128	H	-0.691000	-1.280714	-1.020680
H129	H	-0.684806	-1.378615	-1.037733
H130	H	-0.614752	-1.386739	-0.902170
H131	H	-0.620968	-1.288836	-0.885110
H132	H	-0.698447	-1.360430	-0.897774
H133	H	-0.823139	-0.509577	-0.799903
C134	C	-0.510245	-1.398397	-1.149016
C135	C	-0.507683	-1.401955	-1.057039
C136	C	-0.461423	-1.465875	-1.020816
H137	H	-0.456705	-1.383056	-1.161725
H138	H	-0.534155	-1.454692	-1.174119
H139	H	-0.483772	-1.345672	-1.031944
H140	H	-0.561211	-1.417307	-1.044305
H141	H	-0.485332	-1.522171	-1.045918
H142	H	-0.407886	-1.450528	-1.033531
H143	H	-0.459684	-1.468304	-0.958407
C144	C	-0.533968	-1.365274	-1.339999
C145	C	-0.481033	-1.306624	-1.383949
C146	C	-0.446066	-1.354595	-1.439427
H147	H	-0.575391	-1.397255	-1.382342
H148	H	-0.504718	-1.405612	-1.305468
H149	H	-0.510281	-1.266301	-1.418478
H150	H	-0.439595	-1.274641	-1.341628
H151	H	-0.416816	-1.394934	-1.404896
H152	H	-0.487495	-1.386575	-1.481764
H153	H	-0.410140	-1.314809	-1.469248
H154	H	-1.185972	-1.062655	-0.455747
C155	C	-0.481773	-0.892088	-0.468722
C156	C	-0.510092	-0.979920	-0.496233
C157	C	-0.460680	-1.035500	-0.448350
H158	H	-0.483187	-0.887376	-0.407238
H159	H	-0.427627	-0.874928	-0.479078
H160	H	-0.564224	-0.997075	-0.485870
H161	H	-0.508675	-0.984660	-0.557710
H162	H	-0.406534	-1.018340	-0.458706
H163	H	-0.462098	-1.030780	-0.386867
H164	H	-0.479883	-1.095099	-0.467014
C165	C	-0.807923	-0.987374	-1.133232
C166	C	-0.873996	-1.027870	-1.194289
C167	C	-0.920429	-0.964063	-1.230408
H168	H	-0.775451	-0.943023	-1.162399
H169	H	-0.827088	-0.960981	-1.087144
H170	H	-0.854831	-1.054249	-1.240370
H171	H	-0.906488	-1.072214	-1.165143
H172	H	-0.939594	-0.937670	-1.184320
H173	H	-0.887951	-0.919716	-1.259570
H174	H	-0.965269	-0.991531	-1.271832
C175	C	-0.784033	-1.020172	-0.942522
C176	C	-0.827036	-0.960794	-0.993659
C177	C	-0.861995	-0.912593	-0.938378
H178	H	-0.742610	-0.988115	-0.900233
H179	H	-0.820014	-1.059814	-0.912633
H180	H	-0.791057	-0.921157	-1.023533
H181	H	-0.868471	-0.992827	-1.035946
H182	H	-0.897977	-0.952235	-0.908489
H183	H	-0.820568	-0.880542	-0.896092
H184	H	-0.891183	-0.872306	-0.973067
C185	C	-0.870447	-0.685269	-0.846032
C186	C	-0.860235	-0.648060	-0.928895
C187	C	-0.925908	-0.684047	-0.992871
H188	H	-0.919298	-0.672508	-0.830636
H189	H	-0.873062	-0.747687	-0.848627
H190	H	-0.857628	-0.585655	-0.926299
H191	H	-0.811397	-0.660818	-0.944318
H192	H	-0.928523	-0.746466	-0.995466
H193	H	-0.974755	-0.671284	-0.977467
H194	H	-0.918985	-0.658813	-1.049102
C195	C	-0.481005	-0.554403	-0.467741
C196	C	-0.491214	-0.591665	-0.384898
C197	C	-0.425498	-0.555778	-0.320924
H198	H	-0.478317	-0.491990	-0.465070
H199	H	-0.432187	-0.567213	-0.483207
H200	H	-0.540019	-0.578849	-0.369436
H201	H	-0.493893	-0.654075	-0.387541
H202	H	-0.376679	-0.568587	-0.336390
H203	H	-0.422815	-0.493365	-0.318261
H204	H	-0.432412	-0.581060	-0.264710
C205	C	-1.333169	-1.096334	-0.503634
C206	C	-1.264531	-1.055773	-0.446054
C207	C	-1.288711	-1.009408	-0.380262
H208	H	-1.366549	-1.136398	-0.471215
H209	H	-1.362742	-1.052316	-0.530487
H210	H	-1.234971	-1.099786	-0.419204
H211	H	-1.231144	-1.015696	-0.478447
H212	H	-1.318284	-0.965390	-0.407114
H213	H	-1.322091	-1.049478	-0.347850
H214	H	-1.242144	-0.981875	-0.341191
H215	H	-0.929257	-1.108821	-0.521402
C216	C	-1.020339	-1.049894	-0.437979
C217	C	-0.969174	-0.985106	-0.477807
C218	C	-0.910919	-0.938654	-0.412194
H219	H	-0.989238	-1.089915	-0.405600
H220	H	-1.046634	-1.022294	-0.398838
H221	H	-0.942881	-1.012705	-0.516932
H222	H	-1.000252	-0.945065	-0.510180
H223	H	-0.937215	-0.911054	-0.373053
H224	H	-0.879825	-0.978682	-0.379819
H225	H	-0.876202	-0.894685	-0.439207
C226	C	-0.983872	-1.289257	-0.777695
C227	C	-0.899116	-1.279334	-0.763587
C228	C	-0.874573	-1.325581	-0.829210
H229	H	-1.002376	-1.266269	-0.834361
H230	H	-1.006204	-1.350358	-0.775100
H231	H	-0.876792	-1.218246	-0.766190
H232	H	-0.880591	-1.302327	-0.706934
H233	H	-0.896906	-1.386682	-0.826615
H234	H	-0.893082	-1.302589	-0.885872
H235	H	-0.817065	-1.318862	-0.819642
