data_functionalizedCrystal
_audit_creation_method	'MofGen! by Chris Wilmer'
_symmetry_space_group_name_H-M	'P1'
_symmetry_Int_Tables_number	1
_symmetry_cell_setting	triclinic
loop_
_symmetry_equiv_pos_as_xyz
  x,y,z
_cell_length_a	18.215407
_cell_length_b	19.805405
_cell_length_c	18.215399
_cell_angle_alpha	89.969390
_cell_angle_beta	89.980167
_cell_angle_gamma	90.026858
loop_
_atom_site_label
_atom_site_type_symbol
_atom_site_fract_x
_atom_site_fract_y
_atom_site_fract_z
Zn1	Zn	1.125064	-0.269462	-0.416102
Zn2	Zn	1.124969	-0.382653	-0.293030
Zn3	Zn	1.001997	-0.269484	-0.293050
Zn4	Zn	1.001959	-0.382615	-0.416055
O5	O	1.063497	-0.326054	-0.354559
O6	O	1.228036	-0.284484	-0.399788
O7	O	1.108633	-0.367666	-0.190049
O8	O	1.018377	-0.174765	-0.309401
O9	O	1.227966	-0.367644	-0.309368
O10	O	1.108794	-0.174748	-0.399807
O11	O	1.018285	-0.284521	-0.190063
O12	O	0.899008	-0.284485	-0.309355
O13	O	1.018313	-0.367580	-0.519046
O14	O	0.898980	-0.367602	-0.399727
O15	O	1.108758	-0.284447	-0.519080
O16	O	1.108596	-0.477365	-0.309322
O17	O	1.018221	-0.477337	-0.399708
C18	C	0.872291	-0.326042	-0.354538
C19	C	0.790492	-0.326053	-0.354547
C20	C	0.602303	-0.369400	-0.401544
C21	C	0.525444	-0.369403	-0.401553
C22	C	0.525444	-0.282719	-0.307591
C23	C	0.602301	-0.282714	-0.307586
C24	C	0.640729	-0.326059	-0.354561
C25	C	0.487013	-0.326066	-0.354575
C26	C	0.403679	-0.326068	-0.354585
C27	C	0.724068	-0.326056	-0.354553
C28	C	1.063415	-0.501910	-0.354524
C29	C	1.063446	-0.577142	-0.354533
C30	C	1.110550	-0.612478	-0.307518
C31	C	1.110582	-0.683166	-0.307535
C32	C	1.063505	-0.718517	-0.354562
C33	C	1.016399	-0.683176	-0.401582
C34	C	1.016372	-0.612489	-0.401569
C35	C	1.016507	-0.968249	-0.401637
C36	C	1.016536	-1.038941	-0.401645
C37	C	1.110717	-1.038927	-0.307602
C38	C	1.110690	-0.968239	-0.307589
C39	C	1.063587	-0.932905	-0.354611
C40	C	1.063555	-0.856256	-0.354594
C41	C	1.063533	-0.795164	-0.354577
C42	C	1.255450	-0.326066	-0.354581
C43	C	1.337249	-0.326071	-0.354590
C44	C	1.063542	-0.326007	-0.546512
C45	C	1.063561	-0.325987	-0.628311
C46	C	1.063601	-0.149511	-0.354611
C47	C	1.063645	-0.074279	-0.354633
C48	C	1.110673	-0.282659	-0.816524
C49	C	1.110682	-0.282639	-0.893383
C50	C	1.016502	-0.369210	-0.893336
C51	C	1.016490	-0.369226	-0.816479
C52	C	1.063580	-0.325952	-0.778075
C53	C	1.063600	-0.325916	-0.931791
C54	C	1.063609	-0.325895	-1.015125
C55	C	1.063570	-0.325972	-0.694736
C56	C	1.063495	-0.326051	-0.163353
C57	C	1.063619	-0.325880	-0.081555
H58	H	0.633588	-0.247416	-0.269327
H59	H	1.148938	-0.711934	-0.269250
C60	C	1.161689	-0.235550	-0.935165
C61	C	1.120048	-0.192141	-0.979275
C62	C	1.167011	-0.148743	-1.017766
H63	H	1.193761	-0.261353	-0.965208
H64	H	1.189715	-0.209741	-0.901304
H65	H	1.092035	-0.217947	-1.013132
H66	H	1.087979	-0.166323	-0.949250
H67	H	1.195036	-0.122935	-0.983905
H68	H	1.199080	-0.174552	-1.047805
H69	H	1.138764	-0.119281	-1.047694
C70	C	0.965353	-0.574084	-0.452704
C71	C	1.006985	-0.533456	-0.499915
C72	C	0.960015	-0.498074	-0.547041
H73	H	0.933279	-0.546494	-0.424605
H74	H	0.937330	-0.605237	-0.480758
H75	H	1.034995	-0.502306	-0.471864
H76	H	1.039057	-0.561029	-0.528031
H77	H	0.931992	-0.529228	-0.575095
H78	H	0.927943	-0.470488	-0.518936
H79	H	0.988255	-0.470509	-0.579084
H80	H	0.494162	-0.404695	-0.439812
C81	C	1.161819	-0.235597	-0.774961
C82	C	1.203048	-0.197667	-0.825088
C83	C	1.250164	-0.154297	-0.786829
H84	H	1.193933	-0.261419	-0.744973
H85	H	1.133693	-0.206076	-0.745000
H86	H	1.231171	-0.227184	-0.855037
H87	H	1.170953	-0.171832	-0.855077
H88	H	1.222038	-0.124776	-0.756868
H89	H	1.282273	-0.180124	-0.756843
H90	H	1.278138	-0.128552	-0.820834
H91	H	0.494146	-0.247431	-0.269344
C92	C	0.965463	-0.416170	-0.935166
C93	C	0.975566	-0.406905	-1.010705
C94	C	0.928569	-0.450161	-1.049259
H95	H	0.915989	-0.406309	-0.922654
H96	H	0.976214	-0.461665	-0.922598
H97	H	0.964810	-0.361421	-1.023267
H98	H	1.025030	-0.416772	-1.023239
H99	H	0.939320	-0.495656	-1.036692
H100	H	0.879098	-0.440296	-1.036741
H101	H	0.935422	-0.443885	-1.100516
H102	H	1.148883	-0.583700	-0.269220
C103	C	1.161681	-0.929824	-0.256439
C104	C	1.120023	-0.889317	-0.209210
C105	C	1.166973	-0.853928	-0.162075
H106	H	1.193733	-0.902151	-0.284531
H107	H	1.189727	-0.960973	-0.228398
H108	H	1.091989	-0.858172	-0.237248
H109	H	1.087973	-0.916973	-0.181102
H110	H	1.195019	-0.885077	-0.134035
H111	H	1.199023	-0.826259	-0.190173
H112	H	1.138715	-0.826445	-0.130021
C113	C	1.161852	-1.077413	-0.256648
C114	C	1.151826	-1.146885	-0.266743
C115	C	1.198929	-1.182358	-0.219830
H116	H	1.151164	-1.065958	-0.207155
H117	H	1.211299	-1.065814	-0.267482
H118	H	1.102391	-1.158480	-0.255905
H119	H	1.162520	-1.158360	-0.316227
H120	H	1.248376	-1.170758	-0.230664
H121	H	1.188237	-1.170896	-0.170340
H122	H	1.192137	-1.229497	-0.226678
C123	C	0.965330	-0.416308	-0.774860
C124	C	0.924112	-0.454220	-0.824941
C125	C	0.876985	-0.497601	-0.786628
H126	H	0.933210	-0.390496	-0.744878
H127	H	0.993447	-0.445841	-0.744889
H128	H	0.895998	-0.424690	-0.854899
H129	H	0.956213	-0.480046	-0.854924
H130	H	0.905102	-0.527134	-0.756657
H131	H	0.844870	-0.471783	-0.756647
H132	H	0.849018	-0.523333	-0.820602
H133	H	0.633589	-0.404693	-0.439797
H134	H	0.978202	-1.067722	-0.439946
H135	H	0.978153	-0.939485	-0.439923
C136	C	0.965313	-0.721677	-0.452562
C137	C	0.975402	-0.791146	-0.442496
C138	C	0.928344	-0.826632	-0.489437
H139	H	0.976003	-0.710136	-0.502047
H140	H	0.915853	-0.710174	-0.441735
H141	H	1.024851	-0.802644	-0.453328
H142	H	0.964706	-0.802707	-0.393021
H143	H	0.878884	-0.815129	-0.478611
H144	H	0.939038	-0.815085	-0.538920
H145	H	0.935178	-0.873770	-0.482610
