data_functionalizedCrystal
_audit_creation_method	'MofGen! by Chris Wilmer'
_symmetry_space_group_name_H-M	'P1'
_symmetry_Int_Tables_number	1
_symmetry_cell_setting	triclinic
loop_
_symmetry_equiv_pos_as_xyz
  x,y,z
_cell_length_a	16.625547
_cell_length_b	16.120444
_cell_length_c	16.625539
_cell_angle_alpha	87.130642
_cell_angle_beta	90.024822
_cell_angle_gamma	92.926748
loop_
_atom_site_label
_atom_site_type_symbol
_atom_site_fract_x
_atom_site_fract_y
_atom_site_fract_z
Zn1	Zn	1.216381	-0.331909	0.472263
Zn2	Zn	1.209437	-0.471333	0.344261
Zn3	Zn	1.081541	-0.331938	0.337434
Zn4	Zn	1.074669	-0.471283	0.479038
O5	O	1.145507	-0.401616	0.408249
O6	O	1.328292	-0.350413	0.455304
O7	O	1.192442	-0.452876	0.230524
O8	O	1.105210	-0.215267	0.349627
O9	O	1.323190	-0.452847	0.361262
O10	O	1.204276	-0.215246	0.448685
O11	O	1.098477	-0.350462	0.225509
O12	O	0.967798	-0.350413	0.356197
O13	O	1.093497	-0.452761	0.590970
O14	O	0.962748	-0.452789	0.460233
O15	O	1.197612	-0.350364	0.585992
O16	O	1.185778	-0.587993	0.367832
O17	O	1.086764	-0.587956	0.466852
C18	C	0.936017	-0.401599	0.408210
C19	C	0.846395	-0.401613	0.408214
C20	C	0.773613	-0.401614	0.408224
C21	C	0.682304	-0.401619	0.408244
C22	C	0.609527	-0.401626	0.408265
C23	C	0.518213	-0.401632	0.408285
C24	C	1.134793	-0.618225	0.418836
C25	C	1.130284	-0.710891	0.423391
C26	C	1.169098	-0.921832	0.384788
C27	C	1.122065	-0.880548	0.431718
C28	C	1.126640	-0.786142	0.427084
C29	C	1.164525	-1.016247	0.389422
C30	C	1.355815	-0.401632	0.408289
C31	C	1.445436	-0.401640	0.408305
C32	C	1.145563	-0.401554	0.618555
C33	C	1.145586	-0.401527	0.708175
C34	C	1.156285	-0.184161	0.397639
C35	C	1.160877	-0.091494	0.393117
C36	C	1.145501	-0.401617	0.198758
C37	C	1.145645	-0.401409	0.109127
C38	C	1.145628	-0.401434	1.036346
C39	C	1.145614	-0.401462	0.945039
C40	C	1.145607	-0.401481	0.872263
C41	C	1.145593	-0.401508	0.780950
H42	H	1.078364	-0.916104	0.475376
C43	C	1.228130	-0.873805	0.325808
C44	C	1.232673	-0.778033	0.321200
C45	C	1.291702	-0.729994	0.262219
C46	C	1.346190	-0.777727	0.207847
C47	C	1.341649	-0.873504	0.212453
C48	C	1.282619	-0.921543	0.271434
H49	H	1.192337	-0.742694	0.361451
H50	H	1.295063	-0.659094	0.258809
H51	H	1.389887	-0.742166	0.164186
H52	H	1.381985	-0.908843	0.172202
H53	H	1.279258	-0.992443	0.274844
