data_functionalizedCrystal
_audit_creation_method	'MofGen! by Chris Wilmer'
_symmetry_space_group_name_H-M	'P1'
_symmetry_Int_Tables_number	1
_symmetry_cell_setting	triclinic
loop_
_symmetry_equiv_pos_as_xyz
  x,y,z
_cell_length_a	12.759400
_cell_length_b	21.395364
_cell_length_c	21.395355
_cell_angle_alpha	89.975273
_cell_angle_beta	90.008741
_cell_angle_gamma	90.000410
loop_
_atom_site_label
_atom_site_type_symbol
_atom_site_fract_x
_atom_site_fract_y
_atom_site_fract_z
Zn1	Zn	0.418435	0.957987	-0.354307
Zn2	Zn	0.918435	1.457987	0.145693
Zn3	Zn	0.594099	0.957944	-0.249547
Zn4	Zn	1.094099	1.457944	0.250453
Zn5	Zn	0.418430	0.853202	-0.249543
Zn6	Zn	0.918430	1.353202	0.250457
Zn7	Zn	0.594067	0.853225	-0.354287
Zn8	Zn	1.094067	1.353225	0.145713
O9	O	0.506258	0.905590	-0.301921
O10	O	1.006258	1.405590	0.198079
O11	O	0.441752	1.045659	-0.340420
O12	O	0.941752	1.545659	0.159580
O13	O	0.570808	0.944022	-0.161869
O14	O	1.070808	1.444022	0.338131
O15	O	0.271409	0.867111	-0.263447
O16	O	0.771409	1.367111	0.236553
O17	O	0.570812	1.045627	-0.263454
O18	O	1.070812	1.545627	0.236546
O19	O	0.271413	0.944096	-0.340416
O20	O	0.771413	1.444096	0.159584
O21	O	0.441744	0.867069	-0.161866
O22	O	0.941744	1.367069	0.338134
O23	O	0.441713	0.765527	-0.263428
O24	O	0.941713	1.265527	0.236572
O25	O	0.570758	0.867150	-0.441968
O26	O	1.070758	1.367150	0.058032
O27	O	0.570753	0.765544	-0.340383
O28	O	1.070753	1.265544	0.159617
O29	O	0.441721	0.944118	-0.441982
O30	O	0.941721	1.444118	0.058018
O31	O	0.741116	0.944044	-0.263435
O32	O	1.241116	1.444044	0.236565
O33	O	0.741092	0.867108	-0.340387
O34	O	1.241092	1.367108	0.159613
C35	C	0.506230	0.742802	-0.301903
C36	C	1.006230	1.242802	0.198097
C37	C	0.506243	0.673161	-0.301910
C38	C	1.006243	1.173161	0.198090
C39	C	0.573572	0.171390	-0.341953
C40	C	1.073572	0.671390	0.158047
C41	C	0.573572	0.236825	-0.341946
C42	C	1.073572	0.736825	0.158054
C43	C	0.506281	0.269522	-0.301941
C44	C	1.006281	0.769522	0.198059
C45	C	0.439003	0.236779	-0.261928
C46	C	0.939003	0.736779	0.238072
C47	C	0.439012	0.171345	-0.261931
C48	C	0.939012	0.671345	0.238069
C49	C	0.411598	0.373182	-0.297080
C50	C	0.911598	0.873182	0.202920
C51	C	0.411587	0.438615	-0.297081
C52	C	0.911587	0.938615	0.202919
C53	C	0.506253	0.471343	-0.301927
C54	C	1.006253	0.971343	0.198073
C55	C	0.600933	0.438630	-0.306785
C56	C	1.100933	0.938630	0.193215
C57	C	0.600942	0.373196	-0.306789
C58	C	1.100942	0.873196	0.193211
C59	C	0.506264	0.340475	-0.301933
C60	C	1.006264	0.840475	0.198067
C61	C	0.573532	0.575031	-0.341928
C62	C	1.073532	1.075031	0.158072
C63	C	0.573534	0.640468	-0.341917
C64	C	1.073534	1.140468	0.158083
C65	C	0.438955	0.640420	-0.261902
C66	C	0.938955	1.140420	0.238098
C67	C	0.438963	0.574985	-0.261909
C68	C	0.938963	1.074985	0.238091
C69	C	0.506250	0.542295	-0.301926
C70	C	1.006250	1.042295	0.198074
C71	C	0.232224	0.905606	-0.301933
C72	C	0.732224	1.405606	0.198067
C73	C	0.115448	0.905613	-0.301939
C74	C	0.615448	1.405613	0.198061
C75	C	0.060564	0.865563	-0.342002
C76	C	0.560564	1.365563	0.157998
C77	C	-0.049160	0.865583	-0.342007
C78	C	0.450840	1.365583	0.157993
C79	C	-0.049107	0.945702	-0.261879
C80	C	0.450893	1.445702	0.238121
C81	C	0.060615	0.945685	-0.261878
C82	C	0.560615	1.445685	0.238122
C83	C	0.115396	0.825491	-0.382063
C84	C	0.615396	1.325491	0.117937
C85	C	0.060512	0.785438	-0.422130
C86	C	0.560512	1.285438	0.077870
C87	C	-0.049212	0.785457	-0.422134
C88	C	0.450788	1.285457	0.077866
C89	C	-0.104052	0.825529	-0.382072
C90	C	0.395948	1.325529	0.117928
C91	C	0.779225	0.905591	-0.301923
C92	C	1.279225	1.405591	0.198077
C93	C	0.896002	0.905648	-0.301944
C94	C	1.396002	1.405648	0.198056
C95	C	0.506236	0.905642	-0.465345
C96	C	1.006236	1.405642	0.034655
C97	C	0.506227	0.905664	-0.534986
C98	C	1.006227	1.405664	-0.034986
C99	C	0.506287	1.069013	-0.301940
C100	C	1.006287	1.569013	0.198060
C101	C	0.506299	1.138654	-0.301948
C102	C	1.006299	1.638654	0.198052
C103	C	0.439035	0.945739	-0.567708
C104	C	0.939035	1.445739	-0.067708
C105	C	0.438990	0.945739	-0.633143
C106	C	0.938990	1.445739	-0.133143
C107	C	0.506156	0.905669	-0.665854
C108	C	1.006156	1.405669	-0.165854
C109	C	0.573353	0.865585	-0.633125
C110	C	1.073353	1.365585	-0.133125
C111	C	0.573388	0.865583	-0.567690
C112	C	1.073388	1.365583	-0.067690
C113	C	0.600754	0.900722	-0.769529
C114	C	1.100754	1.400722	-0.269529
C115	C	0.600720	0.900729	-0.834962
C116	C	1.100720	1.400729	-0.334962
C117	C	0.506045	0.905673	-0.867675
C118	C	1.006045	1.405673	-0.367675
C119	C	0.411400	0.910623	-0.834947
C120	C	0.911400	1.410623	-0.334947
C121	C	0.411436	0.910620	-0.769513
C122	C	0.911436	1.410620	-0.269513
C123	C	0.506124	0.905667	-0.736807
C124	C	1.006124	1.405667	-0.236807
C125	C	0.438798	0.945749	-0.971349
C126	C	0.938798	1.445749	-0.471349
C127	C	0.438751	0.945744	-1.036786
C128	C	0.938751	1.445744	-0.536786
C129	C	0.573123	0.865594	-1.036766
C130	C	1.073123	1.365594	-0.536766
C131	C	0.573160	0.865596	-0.971331
C132	C	1.073160	1.365596	-0.471331
C133	C	0.505999	0.905677	-0.938626
C134	C	1.005999	1.405677	-0.438626
C135	C	0.506203	0.905574	-0.139134
C136	C	1.006203	1.405574	0.360866
C137	C	0.505916	0.905673	-0.069493
C138	C	1.005916	1.405673	0.430507
H139	H	0.628354	0.263484	-0.374525
H140	H	1.128354	0.763484	0.125475
H141	H	0.678033	0.346564	-0.310743
H142	H	1.178033	0.846564	0.189257
C143	C	0.364828	0.989832	-1.072780
C144	C	0.864828	1.489832	-0.572780
N145	N	0.309149	1.023040	-1.099891
N146	N	0.809149	1.523040	-0.599891
H147	H	0.678018	0.465276	-0.310736
H148	H	1.178018	0.965276	0.189264
C149	C	0.647555	0.539070	-0.385942
C150	C	1.147555	1.039070	0.114058
N151	N	0.703311	0.511985	-0.419093
N152	N	1.203311	1.011985	0.080907
H153	H	0.628323	0.667120	-0.374492
H154	H	1.128323	1.167120	0.125508
C155	C	-0.109435	0.989773	-0.217809
C156	C	0.390565	1.489773	0.282191
N157	N	-0.154874	1.022966	-0.184612
N158	N	0.345126	1.522966	0.315388
C159	C	0.647311	0.821496	-0.531696
C160	C	1.147311	1.321496	-0.031696
N161	N	0.702992	0.788290	-0.504583
N162	N	1.202992	1.288290	-0.004583
H163	H	0.628036	0.832958	-0.659762
H164	H	1.128036	1.332958	-0.159762
H165	H	0.384169	0.667042	-0.229326
H166	H	0.884169	1.167042	0.270674
H167	H	0.384178	0.548331	-0.229335
H168	H	0.884178	1.048331	0.270665
H169	H	0.628366	0.144777	-0.374535
H170	H	1.128366	0.644777	0.125465
C171	C	-0.109581	0.741415	-0.466223
C172	C	0.390419	1.241415	0.033777
N173	N	-0.155049	0.708242	-0.499435
N174	N	0.344951	1.208242	0.000565
H175	H	0.677831	0.896528	-0.742900
H176	H	1.177831	1.396528	-0.242900
H177	H	0.627800	0.832962	-1.063399
H178	H	1.127800	1.332962	-0.563399
C179	C	0.365142	0.989821	-0.531736
C180	C	0.865142	1.489821	-0.031736
N181	N	0.309480	1.023022	-0.504642
N182	N	0.809480	1.523022	-0.004642
C183	C	0.307328	0.916057	-0.733514
C184	C	0.807328	1.416057	-0.233514
N185	N	0.228912	0.920148	-0.706400
N186	N	0.728912	1.420148	-0.206400
H187	H	0.105303	0.978299	-0.229256
H188	H	0.605303	1.478299	0.270744
C189	C	0.307438	0.474593	-0.291738
C190	C	0.807438	0.974593	0.208262
N191	N	0.228990	0.501690	-0.287712
N192	N	0.728990	1.001690	0.212288
C193	C	0.364995	0.135334	-0.217925
C194	C	0.864995	0.635334	0.282075
N195	N	0.309241	0.108210	-0.184781
N196	N	0.809241	0.608210	0.315219
H197	H	-0.193397	0.825546	-0.382083
H198	H	0.306603	1.325546	0.117917
H199	H	0.384106	0.978382	-0.944720
H200	H	0.884106	1.478382	-0.444720
C201	C	0.365077	0.989830	-0.669144
C202	C	0.865077	1.489830	-0.169144
N203	N	0.309408	1.023042	-0.696258
N204	N	0.809408	1.523042	-0.196258
C205	C	0.307451	0.337188	-0.291749
C206	C	0.807451	0.837188	0.208251
N207	N	0.229010	0.310078	-0.287734
N208	N	0.729010	0.810078	0.212266
H209	H	0.384216	0.263405	-0.229355
H210	H	0.884216	0.763405	0.270645
H211	H	0.334306	0.914650	-0.861580
H212	H	0.834306	1.414650	-0.361580
C213	C	0.704831	0.895283	-0.870957
C214	C	1.204831	1.395283	-0.370957
N215	N	0.783249	0.891179	-0.898067
N216	N	1.283249	1.391179	-0.398067
C217	C	0.236095	0.825465	-0.382061
C218	C	0.736095	1.325465	0.117939
N219	N	0.327005	0.825446	-0.382058
N220	N	0.827005	1.325446	0.117942
C221	C	0.120838	0.741362	-0.466196
C222	C	0.620838	1.241362	0.033804
N223	N	0.166274	0.708162	-0.499387
N224	N	0.666274	1.208162	0.000613
C225	C	0.647083	0.821512	-0.935336
C226	C	1.147083	1.321512	-0.435336
N227	N	0.702762	0.788304	-0.908224
N228	N	1.202762	1.288304	-0.408224
