data_functionalizedCrystal
_audit_creation_method	'MofGen! by Chris Wilmer'
_symmetry_space_group_name_H-M	'P1'
_symmetry_Int_Tables_number	1
_symmetry_cell_setting	triclinic
loop_
_symmetry_equiv_pos_as_xyz
  x,y,z
_cell_length_a	17.917603
_cell_length_b	14.560438
_cell_length_c	14.560438
_cell_angle_alpha	60.000905
_cell_angle_beta	90.001112
_cell_angle_gamma	57.011185
loop_
_atom_site_label
_atom_site_type_symbol
_atom_site_fract_x
_atom_site_fract_y
_atom_site_fract_z
Zr1	Zr	0.754906	0.920723	-0.078228
O2	O	0.629779	1.126341	-0.231881
O3	O	0.793264	0.724825	-0.031128
O4	O	0.793260	0.916430	-0.222729
O5	O	0.629786	0.934734	0.110861
O6	O	0.922218	0.901986	-0.215507
O7	O	0.629783	0.934737	-0.040280
O8	O	0.922224	0.559240	0.127232
O9	O	0.629779	1.277479	-0.231878
O10	O	0.905863	0.791021	-0.005647
O11	O	0.809626	0.801799	0.101757
O12	O	0.809622	1.027388	-0.123828
O13	O	0.713385	1.038165	-0.016423
Zr14	Zr	0.960583	0.897682	0.174343
Zr15	Zr	0.960578	0.897687	-0.066710
Zr16	Zr	0.754911	0.920718	0.162824
Zr17	Zr	0.754907	1.161771	-0.078224
Zr18	Zr	0.960583	0.656634	0.174338
O19	O	0.922225	1.093580	0.127242
O20	O	0.922218	1.093586	-0.215503
O21	O	0.629786	1.126335	0.110864
O22	O	1.085711	0.692064	0.327996
O23	O	1.085703	0.692070	-0.014750
O24	O	0.793272	0.724819	0.311617
O25	O	1.085704	0.883671	-0.014746
O26	O	0.922229	0.901975	0.318843
O27	O	0.793272	0.916419	0.311621
O28	O	1.085707	0.883668	0.136395
O29	O	0.793261	1.259168	-0.222723
O30	O	0.922229	0.559237	0.318837
O31	O	1.085710	0.540926	0.327993
O32	O	1.085706	0.540930	0.136388
O33	O	0.629783	1.277475	-0.040274
O34	O	0.793265	1.259165	-0.031118
O35	O	0.905868	0.791017	0.219942
O36	O	1.002105	0.780240	0.112537
O37	O	0.905863	1.016606	-0.005643
O38	O	0.809626	1.027384	0.101762
C39	C	0.857744	0.607689	0.048051
C40	C	0.857744	0.505358	0.048049
C41	C	0.907977	0.451656	-0.008015
C42	C	0.907981	0.355497	-0.008004
C43	C	0.807511	0.366753	0.104136
C44	C	0.807514	0.462904	0.104132
C45	C	0.600480	0.938018	0.033649
C46	C	0.513167	0.947797	0.028759
C47	C	0.353323	0.965661	0.019829
C48	C	0.362159	0.852750	0.076283
C49	C	0.273217	0.862689	0.071314
C50	C	0.442272	0.955724	0.024796
C51	C	1.115009	0.880387	0.062465
C52	C	1.202322	0.870608	0.067355
C53	C	0.857738	0.909208	-0.253463
C54	C	0.857736	0.909210	-0.355796
C55	C	0.857745	1.210716	0.048063
C56	C	0.857745	1.313047	0.048065
C57	C	0.807500	1.032589	-0.465561
C58	C	0.807511	1.032582	-0.561709
C59	C	0.907996	0.785806	-0.438313
C60	C	0.907990	0.785814	-0.342167
C61	C	0.857751	0.909197	0.349577
C62	C	0.857754	0.909195	0.451910
C63	C	1.115009	0.578874	0.062460
C64	C	1.202322	0.466763	0.067348
C65	C	0.857751	0.607683	0.349571
C66	C	0.857753	0.505350	0.451902
C67	C	1.115015	0.578868	0.363979
C68	C	1.202330	0.466755	0.471201
C69	C	0.600474	1.239537	-0.267865
C70	C	0.513159	1.351650	-0.375086
C71	C	0.600481	1.239531	0.033655
C72	C	0.513168	1.351642	0.028767
C73	C	0.857739	1.210722	-0.253457
C74	C	0.857737	1.313055	-0.355788
C75	C	1.193087	0.419743	0.007942
C76	C	1.275119	0.314417	0.012512
C77	C	1.366385	0.256107	0.076495
C78	C	1.375617	0.303137	0.135902
C79	C	1.293586	0.408468	0.131325
C80	C	1.293578	0.408480	0.465489
C81	C	1.375628	0.303150	0.566226
C82	C	1.366428	0.256092	0.672673
C83	C	1.275171	0.314379	0.678382
C84	C	1.193123	0.419713	0.577646
C85	C	0.421912	1.409937	-0.369375
C86	C	0.339862	1.515296	-0.470112
C87	C	0.349062	1.562359	-0.576559
C88	C	0.440319	1.504067	-0.582268
C89	C	0.522366	1.398716	-0.481532
C90	C	0.522402	1.398672	0.088162
C91	C	0.440370	1.504025	0.083566
C92	C	0.349105	1.562338	0.019580
C93	C	0.339873	1.515303	-0.039823
C94	C	0.421904	1.409959	-0.035233
C95	C	0.907990	0.451644	0.561669
C96	C	0.907981	0.355502	0.657815
C97	C	0.807496	0.366776	0.534415
C98	C	0.807500	0.462924	0.438271
H99	H	0.948886	0.311773	-0.053655
O100	O	0.962186	0.497411	0.576364
H101	H	0.933151	0.544477	0.621418
H102	H	0.766614	0.332176	0.149795
O103	O	0.753327	0.520841	0.164599
H104	H	0.718385	0.475186	0.203581
H105	H	0.282245	1.648143	-0.658576
H106	H	0.282318	1.648115	0.015851
H107	H	0.596707	1.351201	0.140274
O108	O	0.962178	0.297556	0.776210
H109	H	0.997128	0.343203	0.769531
H110	H	0.447798	1.542399	-0.668949
H111	H	0.436523	0.748619	0.128346
O112	O	0.411968	1.359194	-0.254575
H113	H	0.484345	1.276133	-0.185474
H114	H	0.278965	1.069783	-0.032232
O115	O	1.094709	0.482530	0.583824
H116	H	1.086366	0.527251	0.630061
O117	O	1.094656	0.482636	-0.061084
H118	H	1.102032	0.432244	-0.101632
O119	O	0.620784	1.335834	-0.487698
H120	H	0.613387	1.386255	-0.578644
O121	O	1.265143	0.263708	-0.051567
H122	H	1.337511	0.180682	-0.037657
H123	H	0.265565	1.562741	-0.465441
H124	H	0.766580	1.133066	-0.476664
O125	O	1.454859	0.142491	0.081438
H126	H	1.433096	0.119589	0.029386
O127	O	0.753326	0.520747	0.319907
H128	H	0.697765	0.633033	0.270116
O129	O	0.753317	0.320981	0.519737
H130	H	0.676101	0.410332	0.468738
H131	H	0.766605	1.133049	-0.651082
H132	H	0.948909	0.685342	-0.427231
H133	H	0.948902	0.685338	-0.252785
H134	H	1.449926	0.255704	0.561557
O135	O	1.474055	0.240230	0.204922
H136	H	1.529536	0.159078	0.198129
H137	H	0.447906	1.542302	0.131944
H138	H	0.265554	1.562798	-0.091920
H139	H	0.414372	1.371671	-0.083598
O140	O	1.303550	0.459161	0.195421
H141	H	1.380796	0.400898	0.240689
H142	H	0.948879	0.486218	-0.053679
O143	O	1.454927	0.142463	0.781321
H144	H	1.498252	0.174511	0.783674
H145	H	1.301087	0.446778	0.378824
H146	H	1.267694	0.276048	0.765065
