data_functionalizedCrystal
_audit_creation_method	'MofGen! by Chris Wilmer'
_symmetry_space_group_name_H-M	'P1'
_symmetry_Int_Tables_number	1
_symmetry_cell_setting	triclinic
loop_
_symmetry_equiv_pos_as_xyz
  x,y,z
_cell_length_a	10.908878
_cell_length_b	10.489746
_cell_length_c	10.066281
_cell_angle_alpha	80.272461
_cell_angle_beta	78.556385
_cell_angle_gamma	72.313046
loop_
_atom_site_label
_atom_site_type_symbol
_atom_site_fract_x
_atom_site_fract_y
_atom_site_fract_z
O1	O	1.685063	-0.209659	0.113458
O2	O	1.312119	-0.110252	0.113467
O3	O	1.507076	-0.347429	0.113452
O4	O	1.490107	0.027517	0.113473
O5	O	1.541005	-0.321336	-0.113521
O6	O	1.346048	-0.084160	-0.113506
O7	O	1.718993	-0.183567	-0.113515
Zn8	Zn	1.537908	-0.129720	-0.149547
Zn9	Zn	1.493204	-0.164099	0.149499
O10	O	1.524036	0.053610	-0.113500
C11	C	1.281328	-0.087916	-0.000018
C12	C	1.139031	-0.060250	-0.000015
C13	C	1.089088	-0.161199	-0.000020
C14	C	0.942017	-0.132607	-0.000016
C15	C	1.522757	-0.381630	-0.000034
C16	C	1.518919	-0.522410	-0.000033
C17	C	1.392601	-0.647323	-0.000013
C18	C	1.439025	-0.596768	0.111892
C19	C	1.472506	-0.571090	-0.111885
C20	C	1.558552	-0.722720	0.111995
C21	C	1.592030	-0.697033	-0.111884
C22	C	1.638538	-0.646550	0.000049
C23	C	1.749783	-0.205903	-0.000027
C24	C	1.892079	-0.233571	-0.000021
C25	C	1.508354	0.087811	-0.000011
C26	C	1.512191	0.228590	-0.000003
N27	N	1.568426	-0.106261	-0.353639
C28	C	1.503806	-0.155940	-0.421448
C29	C	1.527326	-0.137884	-0.578604
N30	N	1.462696	-0.187570	0.353591
H31	H	1.072908	0.047343	-0.000003
Br32	Br	1.219256	-0.650203	0.000169
Br33	Br	1.699678	-0.770012	-0.269585
Br34	Br	1.331314	-0.523826	0.269592
Br35	Br	1.648555	-0.044692	-0.675744
Br36	Br	1.619044	-0.831602	0.269861
H37	H	0.875898	-0.025007	-0.000004
H38	H	1.389948	-0.243465	-0.588123
Br39	Br	1.811974	-0.644133	0.000140
H40	H	1.436141	-0.505595	-0.206494
H41	H	1.155209	-0.268794	-0.000020
Br42	Br	1.002264	-0.412920	-0.000009
Br43	Br	1.382558	-0.249100	-0.324302
Br44	Br	1.689650	-0.013073	-0.450785
