data_functionalizedCrystal
_audit_creation_method	'MofGen! by Chris Wilmer'
_symmetry_space_group_name_H-M	'P1'
_symmetry_Int_Tables_number	1
_symmetry_cell_setting	triclinic
loop_
_symmetry_equiv_pos_as_xyz
  x,y,z
_cell_length_a	14.908783
_cell_length_b	18.050590
_cell_length_c	14.908308
_cell_angle_alpha	86.735264
_cell_angle_beta	90.211273
_cell_angle_gamma	93.309344
loop_
_atom_site_label
_atom_site_type_symbol
_atom_site_fract_x
_atom_site_fract_y
_atom_site_fract_z
Zn1	Zn	1.345325	-0.259750	0.587820
Zn2	Zn	1.353911	-0.376401	0.437456
Zn3	Zn	1.203639	-0.258946	0.428792
Zn4	Zn	1.194937	-0.390621	0.579078
O5	O	1.274453	-0.321430	0.508287
O6	O	1.472292	-0.269609	0.575159
O7	O	1.341212	-0.354532	0.310484
O8	O	1.222482	-0.155127	0.449920
O9	O	1.478600	-0.355312	0.464688
O10	O	1.326579	-0.155718	0.566758
O11	O	1.230807	-0.268239	0.304118
O12	O	1.076657	-0.282028	0.441442
O13	O	1.207652	-0.379549	0.706060
O14	O	1.070264	-0.378770	0.551857
O15	O	1.318141	-0.283398	0.712484
O16	O	1.332774	-0.482212	0.456210
O17	O	1.215977	-0.492660	0.560258
C18	C	1.040835	-0.331855	0.494761
C19	C	0.940890	-0.336335	0.488996
C20	C	0.746504	-0.255648	0.593373
C21	C	0.652598	-0.259854	0.587960
C22	C	0.659169	-0.348949	0.472751
C23	C	0.753076	-0.344742	0.478165
C24	C	0.796740	-0.298091	0.538479
C25	C	0.890648	-0.293890	0.543897
C26	C	0.897218	-0.382980	0.428684
C27	C	0.803311	-0.387186	0.423271
C28	C	1.274386	-0.514383	0.508247
C29	C	1.274438	-0.596927	0.508264
C30	C	1.338072	-0.790668	0.451774
C31	C	1.355299	-0.843138	0.535104
C32	C	1.274487	-0.748057	0.508303
C33	C	1.257349	-0.842666	0.425015
C34	C	1.274536	-0.894041	0.508334
C35	C	1.291753	-0.799440	0.591679
C36	C	1.193768	-0.798963	0.481532
C37	C	1.210961	-0.851415	0.564918
C38	C	1.274461	-0.663959	0.508285
C39	C	1.274562	-0.978138	0.508361
C40	C	1.508984	-0.310964	0.521865
C41	C	1.608927	-0.306504	0.527652
C42	C	1.260968	-0.333149	0.742809
C43	C	1.255222	-0.338144	0.842748
C44	C	1.274544	-0.127723	0.508348
C45	C	1.274582	-0.045176	0.508374
C46	C	1.287937	-0.309699	0.274680
C47	C	1.293858	-0.304488	0.174751
C48	C	1.359474	-0.247389	1.037235
C49	C	1.354077	-0.252079	1.131137
C50	C	1.239028	-0.352209	1.124456
C51	C	1.244425	-0.347519	1.030554
C52	C	1.304651	-0.295108	0.986947
C53	C	1.310051	-0.290423	0.893043
C54	C	1.194998	-0.390548	0.886363
C55	C	1.189602	-0.395238	0.980266
H56	H	0.767747	-0.425165	0.374162
F57	F	1.412427	-0.201289	1.184654
F58	F	0.950688	-0.428159	0.370263
F59	F	0.937117	-0.244242	0.608089
F60	F	1.423578	-0.191618	0.990824
H61	H	0.782056	-0.217666	0.642487
F62	F	1.104542	-0.773466	0.451885
F63	F	1.238375	-0.867618	0.332935
F64	F	0.599136	-0.214678	0.646384
F65	F	1.174931	-0.407979	1.170880
H66	H	1.150359	-0.429407	0.845409
F67	F	1.140700	-0.885864	0.627493
F68	F	1.125507	-0.451013	1.026685
H69	H	0.623602	-0.386921	0.423637
H70	H	1.391859	-0.764182	0.404022
H71	H	1.423582	-0.862630	0.557766
H72	H	1.306197	-0.780449	0.662184
H73	H	1.359091	-0.247748	0.857540
