data_functionalizedCrystal
_audit_creation_method	'MofGen! by Chris Wilmer'
_symmetry_space_group_name_H-M	'P1'
_symmetry_Int_Tables_number	1
_symmetry_cell_setting	triclinic
loop_
_symmetry_equiv_pos_as_xyz
  x,y,z
_cell_length_a	19.188930
_cell_length_b	15.995350
_cell_length_c	14.472311
_cell_angle_alpha	89.999517
_cell_angle_beta	90.014772
_cell_angle_gamma	96.681422
loop_
_atom_site_label
_atom_site_type_symbol
_atom_site_fract_x
_atom_site_fract_y
_atom_site_fract_z
O1	O	0.090001	-1.110655	0.076773
O2	O	0.590001	-0.610655	0.576773
O3	O	0.101115	-0.866839	0.076794
O4	O	0.601115	-0.366839	0.576794
O5	O	-0.006080	-0.995783	0.076765
O6	O	0.493920	-0.495783	0.576765
O7	O	0.197196	-0.981711	0.076802
O8	O	0.697196	-0.481711	0.576802
O9	O	-0.006093	-0.995774	-0.076917
O10	O	0.493907	-0.495774	0.423083
O11	O	0.101101	-0.866830	-0.076888
O12	O	0.601101	-0.366830	0.423112
O13	O	0.089988	-1.110646	-0.076909
O14	O	0.589988	-0.610646	0.423091
Cu15	Cu	0.095543	-0.988737	-0.090931
Cu16	Cu	0.595543	-0.488737	0.409069
Cu17	Cu	0.095559	-0.988748	0.090816
Cu18	Cu	0.595559	-0.488748	0.590816
O19	O	0.197182	-0.981702	-0.076880
O20	O	0.697182	-0.481702	0.423120
C21	C	-0.032099	-0.995323	-0.000079
C22	C	0.467901	-0.495323	0.499921
C23	C	-0.109607	-0.993955	-0.000087
C24	C	0.390393	-0.493955	0.499913
C25	C	0.100648	-0.835641	-0.000045
C26	C	0.600648	-0.335641	0.499955
C27	C	0.099271	-0.742696	-0.000038
C28	C	0.599271	-0.242696	0.499962
C29	C	0.090454	-1.141843	-0.000068
C30	C	0.590454	-0.641843	0.499932
C31	C	0.091831	-1.234789	-0.000069
C32	C	0.591831	-0.734789	0.499931
C33	C	-0.154338	-1.069615	-0.000097
C34	C	0.345662	-0.569615	0.499903
C35	C	-0.227165	-1.068330	-0.000082
C36	C	0.272835	-0.568330	0.499918
C37	C	-0.255258	-0.991380	-0.000075
C38	C	0.244742	-0.491380	0.499925
C39	C	-0.210517	-0.915710	-0.000059
C40	C	0.289483	-0.415710	0.499941
C41	C	-0.137691	-0.916997	-0.000065
C42	C	0.362309	-0.416997	0.499935
N43	N	-0.363417	-0.932558	-0.052371
N44	N	0.136583	-0.432558	0.447629
N45	N	-0.432599	-0.931341	-0.052368
N46	N	0.067401	-0.431341	0.447632
C47	C	-0.474676	-0.987497	-0.000056
C48	C	0.025324	-0.487497	0.499944
N49	N	-0.444960	-1.044930	0.052240
N50	N	0.055040	-0.544930	0.552240
N51	N	-0.375772	-1.046150	0.052233
N52	N	0.124228	-0.546150	0.552233
C53	C	-0.334224	-0.989976	-0.000069
C54	C	0.165776	-0.489976	0.499931
C55	C	-0.598375	-1.061769	-0.000050
C56	C	-0.098375	-0.561769	0.499950
C57	C	-0.671204	-1.060480	-0.000029
C58	C	-0.171204	-0.560480	0.499971
C59	C	-0.654553	-0.907859	-0.000015
C60	C	-0.154553	-0.407859	0.499985
C61	C	-0.581727	-0.909149	-0.000027
C62	C	-0.081727	-0.409149	0.499973
C63	C	-0.553643	-0.986106	-0.000048
C64	C	-0.053643	-0.486106	0.499952
C65	C	0.223201	-0.982162	-0.000034
C66	C	0.723201	-0.482162	0.499966
C67	C	0.300709	-0.983530	-0.000020
C68	C	0.800709	-0.483530	0.499980
N69	N	0.095532	-0.988736	-0.218762
N70	N	0.595532	-0.488736	0.281238
C71	C	0.094324	-0.404967	-0.000058
C72	C	0.594324	0.095033	0.499942
C73	C	0.017982	-0.452680	-0.000415
C74	C	0.517982	0.047320	0.499585
C75	C	0.019360	-0.549365	-0.000062
C76	C	0.519360	-0.049365	0.499938
C77	C	0.096778	-0.572518	-0.000049
C78	C	0.596778	-0.072518	0.499951
C79	C	0.134440	-0.531298	0.087714
C80	C	0.634440	-0.031298	0.587714
C81	C	0.132522	-0.434669	0.087781
C82	C	0.632522	0.065331	0.587781
C83	C	0.134084	-0.434315	-0.086984
C84	C	0.634084	0.065685	0.413016
C85	C	0.134066	-0.531260	-0.088137
C86	C	0.634066	-0.031260	0.411863
C87	C	0.098169	-0.667211	-0.000040
C88	C	0.598169	-0.167211	0.499960
C89	C	0.092936	-0.310274	-0.000060
C90	C	0.592936	0.189726	0.499940
C91	C	0.095554	-0.988748	-0.592853
C92	C	0.595554	-0.488748	-0.092853
C93	C	0.038388	-1.057966	-0.553674
C94	C	0.538388	-0.557966	-0.053674
C95	C	0.038177	-1.057787	-0.446586
C96	C	0.538177	-0.557787	0.053414
C97	C	0.095543	-0.988743	-0.407262
C98	C	0.595543	-0.488743	0.092738
C99	C	0.079632	-0.901444	-0.446149
C100	C	0.579632	-0.401444	0.053851
C101	C	0.079228	-0.901854	-0.553271
C102	C	0.579228	-0.401854	-0.053271
C103	C	0.168799	-1.006042	-0.553346
C104	C	0.668799	-0.506042	-0.053346
C105	C	0.168309	-1.008027	-0.446218
C106	C	0.668309	-0.508027	0.053782
C107	C	0.095538	-0.988734	-0.302374
C108	C	0.595538	-0.488734	0.197626
C109	C	0.095557	-0.988751	-0.697741
C110	C	0.595557	-0.488751	-0.197741
N111	N	0.095565	-0.988755	0.218647
N112	N	0.595565	-0.488755	0.718647
H113	H	-0.131477	-1.132280	-0.000112
H114	H	0.368523	-0.632280	0.499888
H115	H	-0.010244	-0.577899	-0.062975
H116	H	0.489756	-0.077899	0.437025
H117	H	-0.012387	-0.433201	0.062166
H118	H	0.487613	0.066799	0.562166
H119	H	-0.545305	-0.847538	-0.000023
H120	H	-0.045305	-0.347538	0.499977
N121	N	0.222171	-0.942730	-0.585149
N122	N	0.722171	-0.442730	-0.085149
N123	N	0.272190	-0.962992	-0.632188
N124	N	0.772190	-0.462992	-0.132188
H125	H	0.309879	-0.918277	-0.654655
H126	H	0.809879	-0.418277	-0.154655
H127	H	-0.263592	-1.129943	-0.000087
H128	H	0.236408	-0.629943	0.499913
N129	N	0.102757	-0.408688	-0.170437
N130	N	0.602757	0.091312	0.329563
N131	N	0.078288	-0.462676	-0.227867
N132	N	0.578288	0.037324	0.272133
H133	H	0.056155	-0.444578	-0.286802
H134	H	0.556155	0.055422	0.213198
N135	N	0.099577	-0.565619	-0.169602
N136	N	0.599577	-0.065619	0.330398
N137	N	0.132782	-0.603161	-0.227683
N138	N	0.632782	-0.103161	0.272317
H139	H	0.108422	-0.627421	-0.285221
H140	H	0.608422	-0.127421	0.214779
N141	N	0.129459	-0.835300	-0.585783
N142	N	0.629459	-0.335300	-0.085783
N143	N	0.123372	-0.760733	-0.564621
N144	N	0.623372	-0.260733	-0.064621
H145	H	0.158841	-0.713724	-0.587580
H146	H	0.658841	-0.213724	-0.087580
N147	N	0.130459	-0.835269	-0.414197
N148	N	0.630459	-0.335269	0.085803
N149	N	0.126238	-0.760955	-0.438189
N150	N	0.626238	-0.260955	0.061811
H151	H	0.162135	-0.714218	-0.415623
H152	H	0.662135	-0.214218	0.084377
N153	N	-0.239220	-0.837115	-0.000044
N154	N	0.260780	-0.337115	0.499956
N155	N	-0.304243	-0.835975	-0.000040
N156	N	0.195757	-0.335975	0.499960
H157	H	-0.324516	-0.780465	-0.000024
H158	H	0.175484	-0.280465	0.499976
N159	N	0.012216	-0.882679	-0.584629
N160	N	0.512216	-0.382679	-0.084629
N161	N	-0.033930	-0.869090	-0.527401
N162	N	0.466070	-0.369090	-0.027401
H163	H	-0.081259	-0.855547	-0.549543
H164	H	0.418741	-0.355547	-0.049543
H165	H	-0.010433	-0.577336	0.062950
H166	H	0.489567	-0.077336	0.562950
N167	N	0.205787	-0.548772	0.091841
N168	N	0.705787	-0.048772	0.591841
N169	N	0.226701	-0.587715	0.159381
N170	N	0.726701	-0.087715	0.659381
H171	H	0.277090	-0.600058	0.162295
H172	H	0.777090	-0.100058	0.662295
N173	N	-0.569694	-1.140382	-0.000074
N174	N	-0.069694	-0.640382	0.499926
N175	N	-0.609645	-1.207933	-0.000078
N176	N	-0.109645	-0.707933	0.499922
H177	H	-0.589391	-1.263455	-0.000097
H178	H	-0.089391	-0.763455	0.499903
H179	H	-0.012539	-0.434266	-0.063354
H180	H	0.487461	0.065734	0.436646
H181	H	0.190521	-0.546418	-0.093428
H182	H	0.690521	-0.046418	0.406572
N183	N	-0.716896	-1.137771	-0.000061
N184	N	-0.216896	-0.637771	0.499939
N185	N	-0.759404	-1.154068	-0.064845
N186	N	-0.259404	-0.654068	0.435155
H187	H	-0.791676	-1.208657	-0.064871
H188	H	-0.291676	-0.708657	0.435129
N189	N	0.098083	-0.411839	0.170074
N190	N	0.598083	0.088161	0.670074
N191	N	0.075628	-0.467244	0.227056
N192	N	0.575628	0.032756	0.727056
H193	H	0.051304	-0.451125	0.285177
H194	H	0.551304	0.048875	0.785177
H195	H	-0.101270	-0.855384	-0.000057
H196	H	0.398730	-0.355384	0.499943
H197	H	0.188571	-0.402216	0.091773
H198	H	0.688571	0.097784	0.591773
H199	H	0.108293	-0.559772	0.153020
H200	H	0.608293	-0.059772	0.653020
H201	H	0.026823	-0.885779	-0.419338
H202	H	0.526823	-0.385779	0.080662
H203	H	0.180382	-1.072246	-0.420802
H204	H	0.680382	-0.572246	0.079198
H205	H	-0.677425	-0.845205	-0.000005
H206	H	-0.177425	-0.345205	0.499995
N207	N	0.187979	-1.084173	-0.587241
N208	N	0.687979	-0.584173	-0.087241
N209	N	0.147892	-1.128063	-0.640934
N210	N	0.647892	-0.628063	-0.140934
H211	H	0.161431	-1.183246	-0.664876
H212	H	0.661431	-0.683246	-0.164876
N213	N	-0.029421	-1.044358	-0.587454
N214	N	0.470579	-0.544358	-0.087454
N215	N	-0.064395	-1.099923	-0.634376
N216	N	0.435605	-0.599923	-0.134376
H217	H	-0.112285	-1.090309	-0.658235
H218	H	0.387715	-0.590309	-0.158235
H219	H	0.190370	-0.402347	-0.087568
H220	H	0.690370	0.097653	0.412432
N221	N	0.050132	-1.139185	-0.413610
N222	N	0.550132	-0.639185	0.086390
N223	N	0.058685	-1.196524	-0.469711
N224	N	0.558685	-0.696524	0.030289
H225	H	0.067151	-1.254007	-0.446427
H226	H	0.567151	-0.754007	0.053573
N227	N	0.050088	-1.139654	-0.585996
N228	N	0.550088	-0.639654	-0.085996
N229	N	0.049512	-1.154858	-0.670730
N230	N	0.549512	-0.654858	-0.170730
H231	H	0.057779	-1.212552	-0.693565
H232	H	0.557779	-0.712552	-0.193565
H233	H	-0.016179	-1.046766	-0.420978
H234	H	0.483821	-0.546766	0.079022
N235	N	0.224171	-0.948852	-0.412628
N236	N	0.724171	-0.448852	0.087372
N237	N	0.211204	-0.891243	-0.359197
N238	N	0.711204	-0.391243	0.140803
H239	H	0.250656	-0.849444	-0.335473
H240	H	0.750656	-0.349444	0.164527
