data_functionalizedCrystal
_audit_creation_method	'MofGen! by Chris Wilmer'
_symmetry_space_group_name_H-M	'P1'
_symmetry_Int_Tables_number	1
_symmetry_cell_setting	triclinic
loop_
_symmetry_equiv_pos_as_xyz
  x,y,z
_cell_length_a	18.215407
_cell_length_b	16.959453
_cell_length_c	18.215399
_cell_angle_alpha	89.971469
_cell_angle_beta	89.982632
_cell_angle_gamma	90.020170
loop_
_atom_site_label
_atom_site_type_symbol
_atom_site_fract_x
_atom_site_fract_y
_atom_site_fract_z
Zn1	Zn	1.125083	-0.314744	-0.416064
Zn2	Zn	1.124996	-0.446929	-0.292997
Zn3	Zn	1.002016	-0.314763	-0.293017
Zn4	Zn	1.001986	-0.446878	-0.416027
O5	O	1.063520	-0.380828	-0.354526
O6	O	1.228056	-0.332292	-0.399746
O7	O	1.108658	-0.429426	-0.190015
O8	O	1.018389	-0.204149	-0.309364
O9	O	1.227992	-0.429408	-0.309329
O10	O	1.108807	-0.204135	-0.399766
O11	O	1.018305	-0.332324	-0.190030
O12	O	0.899027	-0.332275	-0.309328
O13	O	1.018339	-0.429321	-0.519016
O14	O	0.899006	-0.429339	-0.399702
O15	O	1.108778	-0.332242	-0.519044
O16	O	1.108630	-0.557533	-0.309293
O17	O	1.018255	-0.557496	-0.399683
C18	C	0.872314	-0.380804	-0.354514
C19	C	0.790515	-0.380813	-0.354525
C20	C	1.063450	-0.586195	-0.354498
C21	C	1.063487	-0.674051	-0.354510
C22	C	0.602353	-0.330348	-0.401680
C23	C	0.525495	-0.330355	-0.401683
C24	C	0.525439	-0.431330	-0.307386
C25	C	0.602296	-0.431319	-0.307380
C26	C	0.640751	-0.380829	-0.354531
C27	C	0.487035	-0.380847	-0.354540
C28	C	0.403702	-0.380855	-0.354542
C29	C	0.724090	-0.380820	-0.354528
C30	C	1.016468	-0.715401	-0.307408
C31	C	1.110537	-0.715255	-0.401628
C32	C	1.110571	-0.797801	-0.401644
C33	C	1.063553	-0.839151	-0.354542
C34	C	1.016499	-0.797954	-0.307424
C35	C	1.157619	-0.839004	-0.448766
C36	C	1.157654	-0.921555	-0.448785
C37	C	1.110638	-0.962906	-0.401679
C38	C	1.063584	-0.921704	-0.354558
C39	C	1.016565	-0.963054	-0.307457
C40	C	0.969514	-0.921854	-0.260332
C41	C	0.969484	-0.839305	-0.260318
C42	C	1.110669	-1.045454	-0.401692
C43	C	1.016596	-1.045607	-0.307473
C44	C	1.255473	-0.380853	-0.354540
C45	C	1.337272	-0.380864	-0.354545
C46	C	1.063565	-0.380774	-0.546479
C47	C	1.063584	-0.380751	-0.628278
C48	C	1.063611	-0.174660	-0.354571
C49	C	1.063650	-0.086803	-0.354590
C50	C	1.110692	-0.330154	-0.816488
C51	C	1.110701	-0.330131	-0.893347
C52	C	1.016528	-0.431224	-0.893307
C53	C	1.016516	-0.431243	-0.816449
C54	C	1.063602	-0.380709	-0.778042
C55	C	1.063623	-0.380668	-0.931758
C56	C	1.063632	-0.380643	-1.015092
C57	C	1.063592	-0.380732	-0.694703
C58	C	1.063518	-0.380826	-0.163320
C59	C	1.063641	-0.380626	-0.081522
H60	H	0.494234	-0.289247	-0.440075
N61	N	0.643829	-0.275894	-0.452535
H62	H	0.698345	-0.283550	-0.445384
H63	H	0.630405	-0.288278	-0.505072
N64	N	0.965708	-0.485766	-0.774987
H65	H	0.977108	-0.542243	-0.788346
H66	H	0.972858	-0.478042	-0.720483
N67	N	0.483962	-0.485783	-0.256530
H68	H	0.429446	-0.478132	-0.263687
H69	H	0.497389	-0.542249	-0.267888
N70	N	0.643718	-0.485763	-0.256519
H71	H	0.607696	-0.517753	-0.226653
H72	H	0.675614	-0.522377	-0.286411
N73	N	0.965885	-1.090199	-0.256663
H74	H	0.913290	-1.075866	-0.268036
H75	H	0.973104	-1.148731	-0.263845
N76	N	0.918800	-0.966455	-0.209531
H77	H	0.925962	-1.024999	-0.216697
H78	H	0.930287	-0.952062	-0.156979
N79	N	0.918741	-0.794870	-0.209494
H80	H	0.925855	-0.736302	-0.216634
H81	H	0.866179	-0.809333	-0.220898
H82	H	0.978161	-0.681854	-0.269038
H83	H	1.149046	-0.288963	-0.924646
N84	N	1.161239	-0.670662	-0.452437
H85	H	1.154076	-0.612116	-0.445280
H86	H	1.213813	-0.685051	-0.441039
N87	N	1.161479	-0.275652	-0.775065
H88	H	1.195566	-0.307791	-0.743180
H89	H	1.191260	-0.243638	-0.811136
N90	N	0.965733	-0.485715	-0.934732
H91	H	0.972882	-0.478030	-0.989255
H92	H	0.977149	-0.542175	-0.921291
N93	N	1.208318	-0.794409	-0.499576
H94	H	1.201158	-0.735863	-0.492414
H95	H	1.260893	-0.808801	-0.488184
N96	N	1.208378	-0.965989	-0.499629
H97	H	1.238151	-0.927267	-0.529472
H98	H	1.242477	-1.000244	-0.469732
N99	N	1.161403	-1.089892	-0.452519
H100	H	1.191180	-1.051171	-0.482359
H101	H	1.195497	-1.124137	-0.422606
