data_functionalizedCrystal
_audit_creation_method	'MofGen! by Chris Wilmer'
_symmetry_space_group_name_H-M	'P1'
_symmetry_Int_Tables_number	1
_symmetry_cell_setting	triclinic
loop_
_symmetry_equiv_pos_as_xyz
  x,y,z
_cell_length_a	25.639239
_cell_length_b	17.077404
_cell_length_c	25.639233
_cell_angle_alpha	89.987837
_cell_angle_beta	89.981253
_cell_angle_gamma	90.036656
loop_
_atom_site_label
_atom_site_type_symbol
_atom_site_fract_x
_atom_site_fract_y
_atom_site_fract_z
Zn1	Zn	-0.208243	1.199920	-0.295603
Zn2	Zn	-0.295662	1.199805	-0.208167
Zn3	Zn	-0.208239	1.068666	-0.208182
Zn4	Zn	-0.295646	1.068584	-0.295572
O5	O	-0.251947	1.134244	-0.251881
O6	O	-0.219847	1.309752	-0.284011
O7	O	-0.284070	1.182396	-0.135004
O8	O	-0.135074	1.086160	-0.219798
O9	O	-0.284073	1.309668	-0.219772
O10	O	-0.135077	1.182592	-0.284025
O11	O	-0.219841	1.086049	-0.135015
O12	O	-0.219825	0.958809	-0.219768
O13	O	-0.284047	1.086020	-0.368741
O14	O	-0.284043	0.958748	-0.283973
O15	O	-0.219832	1.182512	-0.368764
O16	O	-0.368825	1.182316	-0.219743
O17	O	-0.368813	1.085908	-0.283959
C18	C	-0.251932	0.930296	-0.251869
C19	C	-0.251939	0.843046	-0.251877
C20	C	-0.218556	0.802101	-0.285377
C21	C	-0.218559	0.720120	-0.285379
C22	C	-0.251948	0.679087	-0.251884
C23	C	-0.285333	0.720038	-0.218380
C24	C	-0.285327	0.802017	-0.218375
C25	C	-0.285345	0.549168	-0.218393
C26	C	-0.285352	0.467184	-0.218398
C27	C	-0.218577	0.467271	-0.285397
C28	C	-0.218571	0.549250	-0.285392
C29	C	-0.251956	0.590196	-0.251889
C30	C	-0.387790	1.134112	-0.251857
C31	C	-0.445904	1.134127	-0.251864
C32	C	-0.806260	1.184575	-0.218501
C33	C	-0.860865	1.184605	-0.218508
O34	O	-0.889096	1.227360	-0.190114
N35	N	-0.888186	1.134382	-0.251916
C36	C	-0.860901	1.084131	-0.285323
O37	O	-0.889154	1.041416	-0.313740
C38	C	-0.806297	1.084105	-0.285318
C39	C	-0.778979	1.134326	-0.251904
C40	C	-0.778941	1.234792	-0.185090
C41	C	-0.724341	1.234760	-0.185082
C42	C	-0.697059	1.184511	-0.218486
C43	C	-0.724378	1.134294	-0.251896
C44	C	-0.779013	1.033858	-0.318727
C45	C	-0.724406	1.033837	-0.318720
C46	C	-0.697087	1.084058	-0.285306
C47	C	-0.642496	1.084014	-0.285292
N48	N	-0.615174	1.134237	-0.251884
C49	C	-0.642456	1.184485	-0.218481
C50	C	-0.975571	1.084190	-0.285331
C51	C	-1.030174	1.084211	-0.285333
C52	C	-1.030134	1.184687	-0.218519
C53	C	-0.975530	1.184661	-0.218514
C54	C	-0.948250	1.134413	-0.251923
C55	C	-0.527791	1.184415	-0.218467
C56	C	-0.473186	1.184376	-0.218461
C57	C	-0.473230	1.083904	-0.285277
C58	C	-0.527831	1.083939	-0.285282
C59	C	-0.555110	1.134201	-0.251875
O60	O	-0.614230	1.041282	-0.313672
O61	O	-0.614196	1.227201	-0.190073
C62	C	-0.115574	1.134398	-0.251916
C63	C	-0.057460	1.134464	-0.251932
C64	C	-0.251938	1.134269	-0.388254
C65	C	-0.251934	1.134280	-0.446368
C66	C	-0.251963	1.338988	-0.251893
C67	C	-0.251969	1.426238	-0.251898
C68	C	-0.218398	1.184587	-0.806749
C69	C	-0.218384	1.184597	-0.861353
O70	O	-0.189932	1.227307	-0.889604
N71	N	-0.251812	1.134367	-0.888651
C72	C	-0.285252	1.084118	-0.861341
O73	O	-0.313684	1.041393	-0.889574
C74	C	-0.285264	1.084105	-0.806738
C75	C	-0.251837	1.134344	-0.779443
C76	C	-0.184974	1.234822	-0.779454
C77	C	-0.184990	1.234813	-0.724853
C78	C	-0.218429	1.184570	-0.697548
C79	C	-0.251853	1.134335	-0.724843
C80	C	-0.318701	1.033852	-0.779430
C81	C	-0.318710	1.033843	-0.724823
C82	C	-0.285283	1.084082	-0.697528
C83	C	-0.285307	1.084083	-0.642936
N84	N	-0.251879	1.134313	-0.615639
C85	C	-0.218440	1.184557	-0.642944
C86	C	-0.285225	1.084148	-0.976012
C87	C	-0.285217	1.084164	-1.030614
C88	C	-0.218347	1.184643	-1.030622
C89	C	-0.218359	1.184630	-0.976019
C90	C	-0.251797	1.134378	-0.948714
C91	C	-0.218475	1.184535	-0.528279
C92	C	-0.218495	1.184524	-0.473674
C93	C	-0.285362	1.084043	-0.473671
C94	C	-0.285345	1.084056	-0.528271
C95	C	-0.251897	1.134305	-0.555574
O96	O	-0.313743	1.041393	-0.614650
O97	O	-0.190009	1.227267	-0.614705
C98	C	-0.251919	1.134264	-0.116039
C99	C	-0.251775	1.134405	-0.057925
H100	H	-0.191385	0.582658	-0.312670
H101	H	-0.953362	1.043266	-0.312535
C102	C	-0.809052	0.978620	-0.355487
H103	H	-0.784976	0.948703	-0.375382
H104	H	-0.830386	0.944442	-0.335477
H105	H	-0.830320	1.008643	-0.378291
C106	C	-0.148215	1.290069	-0.694835
H107	H	-0.128297	1.319984	-0.718924
H108	H	-0.168217	1.324250	-0.673533
H109	H	-0.125433	1.260058	-0.673538
H110	H	-0.191367	0.835504	-0.312654
H111	H	-0.191393	0.433930	-0.312675
H112	H	-1.052356	1.225605	-0.191322
C113	C	-0.181839	0.675084	-0.322230
H114	H	-0.161957	0.711263	-0.342183
H115	H	-0.159029	0.643114	-0.302275
H116	H	-0.201879	0.643097	-0.344978
C117	C	-0.322073	0.422044	-0.181550
H118	H	-0.317298	0.367357	-0.186356
H119	H	-0.314363	0.435467	-0.146435
H120	H	-0.357217	0.435452	-0.189134
C121	C	-0.322140	1.028775	-0.443628
H122	H	-0.317354	1.035962	-0.407199
H123	H	-0.357270	1.040215	-0.452570
H124	H	-0.314474	0.976042	-0.452573
H125	H	-0.312530	0.582503	-0.191110
C126	C	-0.322062	0.674907	-0.181535
H127	H	-0.341940	0.711036	-0.161580
H128	H	-0.344875	0.642919	-0.201496
H129	H	-0.302028	0.642933	-0.158790
C130	C	-1.060219	1.028964	-0.322085
H131	H	-1.036146	0.999040	-0.341979
H132	H	-1.081553	0.994792	-0.302071
H133	H	-1.081486	1.058984	-0.344891
H134	H	-0.312510	0.835354	-0.191096
H135	H	-0.450944	1.225272	-0.191250
C136	C	-0.181585	1.239884	-0.945999
H137	H	-0.161667	1.269802	-0.970087
H138	H	-0.201587	1.274061	-0.924694
H139	H	-0.158802	1.209870	-0.924704
C140	C	-0.557790	1.239695	-0.181717
H141	H	-0.533693	1.269588	-0.161816
H142	H	-0.579060	1.273894	-0.201734
H143	H	-0.579119	1.209696	-0.158917
H144	H	-0.191275	1.225437	-0.451452
H145	H	-0.191237	1.225449	-0.550503
H146	H	-0.702197	0.992920	-0.345927
C147	C	-0.694297	1.290013	-0.148333
H148	H	-0.718372	1.319946	-0.128447
H149	H	-0.673023	1.260009	-0.125528
H150	H	-0.672969	1.324188	-0.168356
H151	H	-0.953291	1.225555	-0.191306
C152	C	-0.808943	1.290066	-0.148340
H153	H	-0.784845	1.319960	-0.128441
H154	H	-0.830216	1.324264	-0.168354
H155	H	-0.830269	1.260066	-0.125539
C156	C	-0.557883	1.028697	-0.322035
H157	H	-0.533812	0.998770	-0.341929
H158	H	-0.579221	0.994528	-0.302022
H159	H	-0.579147	1.058724	-0.344840
C160	C	-0.443214	1.028638	-0.322020
H161	H	-0.406782	1.035824	-0.317232
H162	H	-0.452196	0.975906	-0.314345
H163	H	-0.452138	1.040106	-0.357159
C164	C	-0.148191	1.290099	-0.809481
H165	H	-0.128293	1.320014	-0.785398
H166	H	-0.125399	1.260115	-0.830786
H167	H	-0.168194	1.324290	-0.830777
H168	H	-0.191118	1.225552	-1.052864
H169	H	-0.312441	1.043263	-1.052833
H170	H	-0.312458	1.043226	-0.953784
H171	H	-0.345934	0.992913	-0.702594
C172	C	-0.355466	0.978581	-0.809442
H173	H	-0.375374	0.948653	-0.785353
H174	H	-0.378250	1.008572	-0.830746
H175	H	-0.335452	0.944402	-0.830739
H176	H	-0.312568	1.043155	-0.550496
