data_functionalizedCrystal
_audit_creation_method	'MofGen! by Chris Wilmer'
_symmetry_space_group_name_H-M	'P1'
_symmetry_Int_Tables_number	1
_symmetry_cell_setting	triclinic
loop_
_symmetry_equiv_pos_as_xyz
  x,y,z
_cell_length_a	12.759399
_cell_length_b	12.759401
_cell_length_c	12.759387
_cell_angle_alpha	90.040733
_cell_angle_beta	89.936629
_cell_angle_gamma	89.983359
loop_
_atom_site_label
_atom_site_type_symbol
_atom_site_fract_x
_atom_site_fract_y
_atom_site_fract_z
Zn1	Zn	-0.417836	-1.606469	-0.594018
Zn2	Zn	-0.593651	-1.606298	-0.418336
Zn3	Zn	-0.417992	-1.430707	-0.418353
Zn4	Zn	-0.593478	-1.430758	-0.593974
O5	O	-0.505739	-1.518558	-0.506170
O6	O	-0.441166	-1.753467	-0.570725
O7	O	-0.570487	-1.582912	-0.271317
O8	O	-0.270950	-1.454072	-0.441680
O9	O	-0.570336	-1.753341	-0.441653
O10	O	-0.270836	-1.583203	-0.570741
O11	O	-0.441431	-1.453906	-0.271329
O12	O	-0.441263	-1.283692	-0.441638
O13	O	-0.570042	-1.454159	-0.741001
O14	O	-0.570192	-1.283730	-0.570666
O15	O	-0.440998	-1.583253	-0.741033
O16	O	-0.740649	-1.582962	-0.441610
O17	O	-0.740522	-1.453994	-0.570650
C18	C	-0.505726	-1.245590	-0.506149
C19	C	-0.505746	-1.128814	-0.506165
C20	C	-0.778707	-1.518493	-0.506146
C21	C	-0.895483	-1.518562	-0.506171
C22	C	-0.505483	-1.518731	-0.780204
C23	C	-0.505374	-1.518805	-0.896981
C24	C	-0.950376	-1.585792	-0.439056
C25	C	-1.060100	-1.585860	-0.439092
C26	C	-1.060028	-1.451457	-0.573359
C27	C	-0.950306	-1.451396	-0.573329
C28	C	-1.209997	-1.709855	-0.401704
C29	C	-1.264894	-1.777077	-0.334573
C30	C	-1.229411	-1.793204	-0.232063
C31	C	-1.139034	-1.742095	-0.196663
C32	C	-1.084143	-1.674866	-0.263788
C33	C	-1.119623	-1.658758	-0.366313
C34	C	-0.800408	-1.327399	-0.610705
C35	C	-0.745515	-1.260164	-0.677827
C36	C	-0.780995	-1.244026	-0.780339
C37	C	-0.871376	-1.295117	-0.815735
C38	C	-0.926269	-1.362352	-0.748614
C39	C	-0.890781	-1.378491	-0.646103
C40	C	-0.231706	-1.518651	-0.506217
C41	C	-0.114929	-1.518691	-0.506237
C42	C	-0.505753	-1.792591	-0.506192
C43	C	-0.505759	-1.909368	-0.506201
C44	C	-0.572982	-1.073999	-0.573245
C45	C	-0.572986	-0.964275	-0.573265
C46	C	-0.438516	-0.964190	-0.439119
C47	C	-0.438507	-1.073912	-0.439104
C48	C	-0.505919	-1.518446	-0.233203
C49	C	-0.505732	-1.518575	-0.116426
C50	C	-0.572166	-1.586399	0.048225
C51	C	-0.572343	-1.586287	-0.061499
C52	C	-0.438932	-1.450978	-0.061625
C53	C	-0.438751	-1.451096	0.048097
C54	C	-0.609232	-1.710289	-0.211569
C55	C	-0.676041	-1.777874	-0.266366
C56	C	-0.778377	-1.794753	-0.230503
C57	C	-0.813926	-1.744032	-0.139844
C58	C	-0.747123	-1.676439	-0.085052
C59	C	-0.644772	-1.659580	-0.120914
C60	C	-0.401872	-1.327093	0.198169
C61	C	-0.335074	-1.259494	0.252963
C62	C	-0.232736	-1.242604	0.217102
C63	C	-0.197191	-1.293307	0.126440
C64	C	-0.263990	-1.360906	0.071646
C65	C	-0.366327	-1.377797	0.107514
H66	H	-0.905742	-1.640485	-0.384374
F67	F	-0.088272	-1.275331	0.088269
H68	H	-1.010558	-1.633256	-0.234967
F69	F	-0.366960	-0.905751	-0.367750
F70	F	-0.368034	-1.378919	-0.120086
F71	F	-0.161646	-1.170655	0.275422
H72	H	-0.383749	-1.118544	-0.384480
F73	F	-0.643070	-1.658463	0.106674
H74	H	-0.776067	-1.635140	-0.011243
F75	F	-1.101284	-1.759252	-0.087551
H76	H	-0.999860	-1.403957	-0.777444
F77	F	-0.510793	-1.345069	0.236345
F78	F	-1.287841	-1.864746	-0.160618
F79	F	-1.247758	-1.692710	-0.510814
H80	H	-0.235035	-1.402203	-0.002167
H81	H	-1.338479	-1.818690	-0.363406
H82	H	-0.647087	-1.819172	-0.340180
H83	H	-0.897264	-1.757770	-0.110660
H84	H	-0.832776	-1.849776	-0.275133
H85	H	-0.525899	-1.696562	-0.240770
H86	H	-0.627730	-1.118697	-0.627853
F87	F	-0.372886	-1.205581	0.349491
F88	F	-1.118384	-1.379977	-0.644827
F89	F	-0.722604	-1.172416	-0.851752
H90	H	-0.627735	-0.919649	-0.627890
H91	H	-0.900265	-1.281977	-0.899209
H92	H	-0.671917	-1.218569	-0.649000
H93	H	-0.771505	-1.340542	-0.527234
