data_functionalizedCrystal
_audit_creation_method	'MofGen! by Chris Wilmer'
_symmetry_space_group_name_H-M	'P1'
_symmetry_Int_Tables_number	1
_symmetry_cell_setting	triclinic
loop_
_symmetry_equiv_pos_as_xyz
  x,y,z
_cell_length_a	13.897449
_cell_length_b	13.897448
_cell_length_c	13.897441
_cell_angle_alpha	89.969401
_cell_angle_beta	89.976606
_cell_angle_gamma	90.018519
loop_
_atom_site_label
_atom_site_type_symbol
_atom_site_fract_x
_atom_site_fract_y
_atom_site_fract_z
Zn1	Zn	1.474703	-0.383963	-0.545450
Zn2	Zn	1.974703	0.116037	-0.045450
Zn3	Zn	1.474597	-0.545285	-0.384151
Zn4	Zn	1.974597	-0.045285	0.115849
Zn5	Zn	1.313392	-0.384007	-0.384161
Zn6	Zn	1.813392	0.115993	0.115839
Zn7	Zn	1.313373	-0.545220	-0.545396
Zn8	Zn	1.813373	-0.045220	-0.045396
O9	O	1.394016	-0.464619	-0.464789
O10	O	1.894016	0.035381	0.035211
O11	O	1.609670	-0.405371	-0.524071
O12	O	2.109670	0.094629	-0.024071
O13	O	1.453176	-0.523937	-0.249171
O14	O	1.953176	-0.023937	0.250829
O15	O	1.334842	-0.249020	-0.405582
O16	O	1.834842	0.250980	0.094418
O17	O	1.609592	-0.523893	-0.405566
O18	O	2.109592	-0.023893	0.094434
O19	O	1.453356	-0.248987	-0.524081
O20	O	1.953356	0.251013	-0.024081
O21	O	1.334739	-0.405447	-0.249178
O22	O	1.834739	0.094553	0.250822
O23	O	1.178408	-0.405384	-0.405530
O24	O	1.678408	0.094616	0.094470
O25	O	1.334811	-0.523783	-0.680385
O26	O	1.834811	-0.023783	-0.180385
O27	O	1.178394	-0.523826	-0.523990
O28	O	1.678394	-0.023826	-0.023990
O29	O	1.453339	-0.405308	-0.680424
O30	O	1.953339	0.094692	-0.180424
O31	O	1.453158	-0.680258	-0.405514
O32	O	1.953158	-0.180258	0.094486
O33	O	1.334708	-0.680210	-0.523980
O34	O	1.834708	-0.180210	-0.023980
C35	C	1.143402	-0.464604	-0.464756
C36	C	1.643402	0.035396	0.035244
C37	C	1.036188	-0.464621	-0.464764
C38	C	1.536188	0.035379	0.035236
C39	C	0.949118	-0.464624	-0.464780
C40	C	1.449118	0.035376	0.035220
C41	C	0.839886	-0.464631	-0.464810
C42	C	1.339886	0.035369	0.035190
C43	C	1.393946	-0.715233	-0.464761
C44	C	1.893946	-0.215233	0.035239
C45	C	1.394004	-0.822447	-0.464782
C46	C	1.894004	-0.322447	0.035218
C47	C	1.394105	-1.018742	-0.464842
C48	C	1.894105	-0.518742	0.035158
C49	C	1.394046	-0.909510	-0.464812
C50	C	1.894046	-0.409510	0.035188
C51	C	1.645609	-0.464634	-0.464824
C52	C	2.145609	0.035366	0.035176
C53	C	1.752823	-0.464641	-0.464838
C54	C	2.252823	0.035359	0.035162
C55	C	1.394085	-0.464533	-0.716382
C56	C	1.894085	0.035467	-0.216382
C57	C	1.394114	-0.464497	-0.823596
C58	C	1.894114	0.035503	-0.323596
C59	C	1.394113	-0.213026	-0.464839
C60	C	1.894113	0.286974	0.035161
C61	C	1.394154	-0.105812	-0.464859
C62	C	1.894154	0.394188	0.035141
C63	C	1.394140	-0.464432	-1.019892
C64	C	1.894140	0.035568	-0.519892
C65	C	1.394122	-0.464471	-0.910659
C66	C	1.894122	0.035529	-0.410659
C67	C	1.394003	-0.464634	-0.214175
C68	C	1.894003	0.035366	0.285825
C69	C	1.394161	-0.464399	-0.106962
C70	C	1.894161	0.035601	0.393038
