data_functionalizedCrystal
_audit_creation_method	'MofGen! by Chris Wilmer'
_symmetry_space_group_name_H-M	'P1'
_symmetry_Int_Tables_number	1
_symmetry_cell_setting	triclinic
loop_
_symmetry_equiv_pos_as_xyz
  x,y,z
_cell_length_a	16.109301
_cell_length_b	10.489741
_cell_length_c	15.186229
_cell_angle_alpha	89.996534
_cell_angle_beta	89.999362
_cell_angle_gamma	84.000327
loop_
_atom_site_label
_atom_site_type_symbol
_atom_site_fract_x
_atom_site_fract_y
_atom_site_fract_z
O1	O	1.104141	0.163947	-0.073172
O2	O	0.862205	0.184350	-0.073186
O3	O	0.988678	-0.011529	-0.073174
O4	O	0.977668	0.359826	-0.073185
O5	O	0.988670	-0.011532	0.073284
O6	O	0.862196	0.184347	0.073271
O7	O	1.104133	0.163944	0.073285
Zn8	Zn	0.983163	0.174145	0.096531
Zn9	Zn	0.983174	0.174149	-0.096433
O10	O	0.977659	0.359823	0.073272
C11	C	0.831221	0.183522	0.000041
C12	C	0.738910	0.181044	0.000035
C13	C	0.517319	0.291514	0.000042
C14	C	0.430584	0.289175	0.000048
C15	C	0.449026	0.056771	0.000051
C16	C	0.535759	0.059111	0.000052
C17	C	0.569903	0.176486	0.000043
C18	C	0.396435	0.171808	0.000048
C19	C	0.302393	0.169272	0.000054
C20	C	0.663950	0.179022	0.000038
C21	C	0.987842	-0.059050	0.000054
C22	C	0.985354	-0.200644	0.000053
C23	C	0.904883	-0.267616	0.000042
C24	C	0.942893	-0.360292	0.072255
C25	C	0.942920	-0.360264	-0.072141
C26	C	1.023397	-0.291454	0.072325
C27	C	1.023413	-0.291417	-0.072135
C28	C	1.061482	-0.384066	0.000096
C29	C	1.135117	0.164772	0.000056
C30	C	1.227427	0.167250	0.000056
C31	C	0.978495	0.407344	0.000042
C32	C	0.980983	0.548938	0.000038
N33	N	0.983162	0.174142	0.228224
N34	N	0.983183	0.174142	-0.228125
C35	C	1.039183	0.087436	0.453952
C36	C	1.039186	0.087433	0.546142
C37	C	0.927155	0.260852	0.546140
C38	C	0.927149	0.260848	0.453952
C39	C	0.983168	0.174141	0.407860
C40	C	0.983176	0.174142	0.592238
C41	C	0.983179	0.174140	0.692194
C42	C	0.983165	0.174142	0.307898
H43	H	0.838720	-0.217005	0.000110
C44	C	0.411464	-0.072330	0.000050
H45	H	0.352277	-0.057251	0.000040
H46	H	0.429464	-0.119700	0.051121
H47	H	0.429469	-0.119681	-0.051031
C48	C	0.593605	-0.067426	0.000049
H49	H	0.560850	-0.137665	0.000041
H50	H	0.627824	-0.071347	0.051121
H51	H	0.627822	-0.071334	-0.051031
H52	H	0.545116	0.387088	0.000042
C53	C	1.069343	-0.250480	0.154897
H54	H	1.070617	-0.160140	0.154414
H55	H	1.124806	-0.291400	0.155112
H56	H	1.040934	-0.274603	0.206109
C57	C	0.896894	-0.401529	0.154721
H58	H	0.841258	-0.361260	0.154632
H59	H	0.924945	-0.376818	0.206002
H60	H	0.896085	-0.491954	0.154393
C61	C	0.865519	0.356196	0.596839
H62	H	0.832144	0.407815	0.556182
H63	H	0.895720	0.409321	0.632809
H64	H	0.830646	0.310254	0.632793
H65	H	1.127704	-0.434450	0.000140
C66	C	1.069374	-0.250128	-0.154606
H67	H	1.040707	-0.273411	-0.205869
H68	H	1.124690	-0.291604	-0.155123
H69	H	1.071060	-0.159880	-0.153716
H70	H	0.908865	-0.390732	-0.133197
H71	H	0.387773	0.382843	0.000049
H72	H	1.084796	0.016832	0.416427
H73	H	1.084798	0.016828	0.583667
C74	C	0.865531	0.356232	0.403247
H75	H	0.832177	0.407884	0.443900
H76	H	0.830648	0.310332	0.367290
H77	H	0.895759	0.409341	0.367280
