data_functionalizedCrystal
_audit_creation_method	'MofGen! by Chris Wilmer'
_symmetry_space_group_name_H-M	'P1'
_symmetry_Int_Tables_number	1
_symmetry_cell_setting	triclinic
loop_
_symmetry_equiv_pos_as_xyz
  x,y,z
_cell_length_a	10.685901
_cell_length_b	10.685194
_cell_length_c	12.759393
_cell_angle_alpha	85.596526
_cell_angle_beta	94.359977
_cell_angle_gamma	90.347428
loop_
_atom_site_label
_atom_site_type_symbol
_atom_site_fract_x
_atom_site_fract_y
_atom_site_fract_z
Zn1	Zn	1.879633	-0.646282	-0.432467
Zn2	Zn	1.863447	-0.856113	-0.244423
Zn3	Zn	1.669846	-0.630282	-0.271249
Zn4	Zn	1.653786	-0.839959	-0.434508
O5	O	1.766678	-0.743159	-0.345662
O6	O	2.053026	-0.687573	-0.395442
O7	O	1.837714	-0.826221	-0.100959
O8	O	1.711170	-0.456839	-0.303007
O9	O	2.041135	-0.841735	-0.257286
O10	O	1.865299	-0.468594	-0.421453
O11	O	1.695476	-0.660304	-0.120668
O12	O	1.492175	-0.644640	-0.304986
O13	O	1.683797	-0.814203	-0.581259
O14	O	1.480375	-0.798689	-0.424933
O15	O	1.849726	-0.671909	-0.579760
O16	O	1.822141	-1.029536	-0.259266
O17	O	1.668103	-1.017668	-0.398921
C18	C	1.440759	-0.718176	-0.368092
C19	C	1.301328	-0.707518	-0.377712
C20	C	1.741657	-1.069126	-0.326424
C21	C	1.731067	-1.208585	-0.318222
C22	C	2.093869	-0.768241	-0.323144
C23	C	2.233298	-0.778929	-0.313548
C24	C	1.766775	-0.743039	-0.619697
C25	C	1.766817	-0.742988	-0.736474
C26	C	1.791831	-0.415922	-0.364995
C27	C	1.802550	-0.276473	-0.373233
C28	C	1.692783	-0.656582	-0.801597
C29	C	1.692815	-0.656546	-0.911321
C30	C	1.840925	-0.829325	-0.890789
C31	C	1.840885	-0.829366	-0.781067
C32	C	1.548375	-0.600320	-1.074105
C33	C	1.474355	-0.513896	-1.139232
C34	C	1.464494	-0.390015	-1.112184
C35	C	1.528675	-0.352535	-1.020011
C36	C	1.602706	-0.438953	-0.954890
C37	C	1.612541	-0.562849	-0.981937
C38	C	1.985328	-0.885579	-0.618282
C39	C	2.059366	-0.971993	-0.553159
C40	C	2.069239	-1.095877	-0.580203
C41	C	2.005081	-1.133354	-0.672378
C42	C	1.931042	-1.046941	-0.737502
C43	C	1.921167	-0.923058	-0.710450
C44	C	1.766660	-0.743194	-0.072693
C45	C	1.766889	-0.742910	0.044079
H46	H	1.252895	-0.638230	-0.440009
H47	H	1.654966	-0.408435	-0.879848
H48	H	1.871852	-1.227905	-0.426611
O49	O	1.290927	-0.861523	-0.239102
C50	C	1.261082	-0.831525	-0.138232
H51	H	1.169609	-0.776104	-0.145452
H52	H	1.249771	-0.921677	-0.085957
H53	H	1.339729	-0.772540	-0.101721
O54	O	1.648302	-1.266654	-0.254685
C55	C	1.561526	-1.336235	-0.315622
H56	H	1.604260	-1.359022	-0.391102
H57	H	1.537808	-1.427210	-0.268608
H58	H	1.472343	-1.278741	-0.336429
H59	H	1.632472	-0.586248	-0.765293
H60	H	1.520653	-0.251653	-0.998004
H61	H	1.901230	-0.899650	-0.927111
O62	O	1.411965	-0.550082	-1.228822
C63	C	1.344498	-0.447244	-1.280490
H64	H	1.388998	-0.356037	-1.255178
H65	H	1.346948	-0.450487	-1.369407
H66	H	1.242995	-0.452051	-1.258667
O67	O	1.557809	-0.720735	-1.100234
C68	C	1.513518	-0.803103	-1.019565
H69	H	1.446851	-0.750532	-0.972828
H70	H	1.461638	-0.884687	-1.055922
H71	H	1.596248	-0.840694	-0.964718
O72	O	1.392781	-0.305958	-1.175504
C73	C	1.468450	-0.205265	-1.211098
H74	H	1.570398	-0.237234	-1.207160
H75	H	1.435927	-0.172963	-1.295976
H76	H	1.460213	-0.124177	-1.158943
O77	O	1.868754	-1.083565	-0.826980
C78	C	1.893369	-1.211430	-0.836908
H79	H	1.922841	-1.259456	-0.755994
H80	H	1.805060	-1.258339	-0.871324
H81	H	1.972107	-1.219892	-0.891433
H82	H	2.013125	-1.234229	-0.694401
O83	O	2.141176	-1.179674	-0.516802
C84	C	2.195730	-1.120028	-0.429666
H85	H	2.137186	-1.034616	-0.416415
H86	H	2.198981	-1.188388	-0.356380
H87	H	2.295134	-1.088850	-0.445739
H88	H	2.111622	-0.941463	-0.478113
O89	O	1.975913	-0.765268	-0.591877
C90	C	2.048402	-0.750725	-0.496549
H91	H	2.124480	-0.825897	-0.484622
H92	H	2.093927	-0.653879	-0.499775
H93	H	1.985420	-0.760639	-0.428167
