data_functionalizedCrystal
_audit_creation_method	'MofGen! by Chris Wilmer'
_symmetry_space_group_name_H-M	'P1'
_symmetry_Int_Tables_number	1
_symmetry_cell_setting	triclinic
loop_
_symmetry_equiv_pos_as_xyz
  x,y,z
_cell_length_a	17.699077
_cell_length_b	23.532357
_cell_length_c	16.176319
_cell_angle_alpha	89.987656
_cell_angle_beta	89.993140
_cell_angle_gamma	83.054434
loop_
_atom_site_label
_atom_site_type_symbol
_atom_site_fract_x
_atom_site_fract_y
_atom_site_fract_z
O1	O	1.003699	0.072006	-0.068746
O2	O	1.503699	0.572006	0.431254
O3	O	0.783270	0.081379	-0.068751
O4	O	1.283270	0.581379	0.431249
O5	O	0.900151	-0.006222	-0.068731
O6	O	1.400151	0.493778	0.431269
O7	O	0.886818	0.159607	-0.068765
O8	O	1.386818	0.659607	0.431235
O9	O	0.900135	-0.006228	0.068762
O10	O	1.400135	0.493772	0.568762
O11	O	0.783254	0.081374	0.068742
O12	O	1.283254	0.581374	0.568742
O13	O	1.003683	0.072000	0.068748
O14	O	1.503683	0.572000	0.568748
Cu15	Cu	0.893467	0.076686	0.081299
Cu16	Cu	1.393467	0.576686	0.581299
Cu17	Cu	0.893486	0.076693	-0.081303
Cu18	Cu	1.393486	0.576693	0.418697
O19	O	0.886802	0.159601	0.068728
O20	O	1.386802	0.659601	0.568728
C21	C	0.755067	0.081041	-0.000005
C22	C	1.255067	0.581041	0.499995
C23	C	0.671054	0.080035	-0.000006
C24	C	1.171054	0.580035	0.499994
C25	C	0.631580	0.079558	0.074942
C26	C	1.131580	0.579558	0.574942
C27	C	0.552643	0.078604	0.074943
C28	C	1.052643	0.578604	0.574943
C29	C	0.513180	0.078131	-0.000005
C30	C	1.013180	0.578131	0.499995
C31	C	0.552659	0.078606	-0.074959
C32	C	1.052659	0.578606	0.425041
C33	C	0.631596	0.079556	-0.074959
C34	C	1.131596	0.579556	0.425041
C35	C	0.234316	0.074774	-0.074960
C36	C	0.734316	0.574774	0.425040
C37	C	0.155374	0.073825	-0.074954
C38	C	0.655374	0.573825	0.425046
C39	C	0.155363	0.073821	0.074943
C40	C	0.655363	0.573821	0.574943
C41	C	0.234300	0.074771	0.074943
C42	C	0.734300	0.574771	0.574943
C43	C	0.273773	0.075244	-0.000011
C44	C	0.773773	0.575244	0.499989
C45	C	0.359366	0.076277	-0.000011
C46	C	0.859366	0.576277	0.499989
C47	C	0.427587	0.077101	-0.000005
C48	C	0.927587	0.577101	0.499995
C49	C	0.899810	-0.027443	0.000018
C50	C	1.399810	0.472557	0.500018
C51	C	0.898807	-0.090664	0.000026
C52	C	1.398807	0.409336	0.500026
C53	C	0.892521	-0.482690	-0.074967
C54	C	1.392521	0.017310	0.425033
C55	C	0.891568	-0.542092	-0.074971
C56	C	1.391568	-0.042092	0.425029
O57	O	0.891057	-0.572808	-0.138711
O58	O	1.391057	-0.072808	0.361289
N59	N	0.891086	-0.571808	-0.000025
N60	N	1.391086	-0.071808	0.499975
C61	C	0.891551	-0.542118	0.074931
C62	C	1.391551	-0.042118	0.574931
O63	O	0.891053	-0.572847	0.138679
O64	O	1.391053	-0.072847	0.638679
C65	C	0.892498	-0.482716	0.074935
C66	C	1.392498	0.017284	0.574935
C67	C	0.892987	-0.453004	-0.000016
C68	C	1.392987	0.046996	0.499984
C69	C	0.893009	-0.452978	-0.149912
C70	C	1.393009	0.047022	0.350088
C71	C	0.893964	-0.393581	-0.149907
C72	C	1.393964	0.106419	0.350093
C73	C	0.894430	-0.363894	-0.074956
C74	C	1.394430	0.136106	0.425044
C75	C	0.893942	-0.393606	-0.000011
C76	C	1.393942	0.106394	0.499989
C77	C	0.892957	-0.453026	0.149890
C78	C	1.392957	0.046974	0.649890
C79	C	0.893904	-0.393620	0.149888
C80	C	1.393904	0.106380	0.649888
C81	C	0.894393	-0.363909	0.074936
C82	C	1.394393	0.136091	0.574936
C83	C	0.895363	-0.304522	0.074944
C84	C	1.395363	0.195478	0.574944
N85	N	0.895844	-0.274807	-0.000002
N86	N	1.395844	0.225193	0.499998
C87	C	0.895378	-0.304493	-0.074953
C88	C	1.395378	0.195507	0.425047
C89	C	0.889559	-0.666865	0.074917
C90	C	1.389559	-0.166865	0.574917
C91	C	0.888617	-0.726266	0.074914
C92	C	1.388617	-0.226266	0.574914
C93	C	0.888633	-0.726237	-0.074989
C94	C	1.388633	-0.226237	0.425011
C95	C	0.889580	-0.666835	-0.074985
C96	C	1.389580	-0.166835	0.425015
C97	C	0.890040	-0.637149	-0.000029
C98	C	1.390040	-0.137149	0.499971
C99	C	0.897383	-0.179753	-0.074936
C100	C	1.397383	0.320247	0.425064
C101	C	0.898341	-0.120350	-0.074925
C102	C	1.398341	0.379650	0.425075
C103	C	0.898321	-0.120384	0.074978
C104	C	1.398321	0.379616	0.574978
C105	C	0.897367	-0.179782	0.074967
C106	C	1.397367	0.320218	0.574967
C107	C	0.896896	-0.209465	0.000003
C108	C	1.396896	0.290535	0.500003
O109	O	0.895872	-0.273769	0.138652
O110	O	1.395872	0.226231	0.638652
O111	O	0.895866	-0.273755	-0.138689
O112	O	1.395866	0.226245	0.361311
C113	C	1.031886	0.072338	-0.000000
C114	C	1.531886	0.572338	0.500000
C115	C	1.115899	0.073344	-0.000005
C116	C	1.615899	0.573344	0.499995
C117	C	0.887143	0.180822	-0.000023
C118	C	1.387143	0.680822	0.499977
C119	C	0.888146	0.244043	-0.000036
C120	C	1.388146	0.744043	0.499964
N121	N	0.893460	0.076681	0.195664
N122	N	1.393460	0.576681	0.695664
N123	N	0.893500	0.076693	-0.195668
N124	N	1.393500	0.576693	0.304332
C125	C	0.945230	0.037907	0.238937
C126	C	1.445230	0.537907	0.738937
C127	C	0.945234	0.037907	0.325484
C128	C	1.445234	0.537907	0.825484
C129	C	0.893470	0.076683	0.368757
C130	C	1.393470	0.576683	0.868757
C131	C	0.841694	0.115459	0.325478
C132	C	1.341694	0.615459	0.825478
C133	C	0.841688	0.115457	0.238932
C134	C	1.341688	0.615457	0.738932
C135	C	0.841720	0.115470	0.674506
C136	C	1.341720	0.615470	1.174506
C137	C	0.841733	0.115471	0.761058
C138	C	1.341733	0.615471	1.261058
C139	C	0.945266	0.037920	0.761058
C140	C	1.445266	0.537920	1.261058
C141	C	0.945260	0.037917	0.674513
C142	C	1.445260	0.537917	1.174513
C143	C	0.893481	0.076691	0.631241
C144	C	1.393481	0.576691	1.131241
C145	C	0.893477	0.076690	0.537397
C146	C	1.393477	0.576690	1.037397
C147	C	0.893478	0.076687	0.462599
C148	C	1.393478	0.576687	0.962599
H149	H	0.123245	0.073439	-0.135990
H150	H	0.623245	0.573439	0.364010
H151	H	0.520523	0.078217	-0.135983
H152	H	1.020523	0.578217	0.364017
H153	H	0.888250	-0.750417	-0.136017
H154	H	1.388250	-0.250417	0.363983
C155	C	0.509160	0.078425	0.157383
C156	C	1.009160	0.578425	0.657383
H157	H	0.456478	0.077889	0.146651
H158	H	0.956478	0.577889	0.646651
H159	H	0.516209	0.111885	0.187848
H160	H	1.016209	0.611885	0.687848
H161	H	0.527941	0.045482	0.188506
H162	H	1.027941	0.545482	0.688506
H163	H	0.987413	0.006344	0.639283
H164	H	1.487413	0.506344	1.139283
C165	C	1.002215	-0.004737	0.808659
C166	C	1.502215	0.495263	1.308659
H167	H	0.994802	0.000811	0.866400
H168	H	1.494802	0.500811	1.366400
H169	H	1.052675	0.001400	0.794462
H170	H	1.552675	0.501400	1.294462
H171	H	0.994287	-0.042741	0.794488
H172	H	1.494287	0.457259	1.294488
C173	C	0.894487	-0.360904	-0.232354
C174	C	1.394487	0.139096	0.267646
H175	H	0.894064	-0.387097	-0.276986
H176	H	1.394064	0.112903	0.223014
H177	H	0.938997	-0.342135	-0.235481
H178	H	1.438997	0.157865	0.264519
H179	H	0.850707	-0.333326	-0.235468
H180	H	1.350707	0.166674	0.264532
H181	H	0.888230	-0.750453	0.135947
H182	H	1.388230	-0.250453	0.635947
H183	H	0.123215	0.073434	0.135974
H184	H	0.623215	0.573434	0.635974
H185	H	0.266427	0.075159	0.135973
H186	H	0.766427	0.575159	0.635973
H187	H	0.663734	0.079946	-0.135990
H188	H	1.163734	0.579946	0.364010
H189	H	0.799544	0.147030	0.360715
H190	H	1.299544	0.647030	0.860715
H191	H	0.898704	-0.096204	0.136000
H192	H	1.398704	0.403796	0.636000
C193	C	0.784788	0.158123	0.808660
C194	C	1.284788	0.658123	1.308660
H195	H	0.792216	0.152574	0.866401
H196	H	1.292216	0.652574	1.366401
H197	H	0.734325	0.151984	0.794496
H198	H	1.234325	0.651984	1.294496
H199	H	0.792708	0.196129	0.794460
H200	H	1.292708	0.696129	1.294460
H201	H	0.266446	0.075156	-0.135992
H202	H	0.766446	0.575156	0.364008
C203	C	1.002170	-0.004749	0.191345
C204	C	1.502170	0.495251	0.691345
H205	H	1.032997	-0.027845	0.229515
H206	H	1.532997	0.472155	0.729515
H207	H	1.033512	0.015705	0.157567
H208	H	1.533512	0.515705	0.657567
H209	H	0.975121	-0.028434	0.157601
H210	H	1.475121	0.471566	0.657601
H211	H	0.898741	-0.096162	-0.135962
H212	H	1.398741	0.403838	0.364038
H213	H	0.889936	-0.642699	0.135959
H214	H	1.389936	-0.142699	0.635959
H215	H	0.896995	-0.203913	-0.135979
H216	H	1.396995	0.296087	0.364021
C217	C	0.892500	-0.485627	-0.232362
C218	C	1.392500	0.014373	0.267638
H219	H	0.891861	-0.525261	-0.221645
H220	H	1.391861	-0.025261	0.278355
H221	H	0.936802	-0.480288	-0.263150
H222	H	1.436802	0.019712	0.236850
H223	H	0.848512	-0.471476	-0.263158
H224	H	1.348512	0.028524	0.236842
C225	C	0.784743	0.158110	0.191332
C226	C	1.284743	0.658110	0.691332
H227	H	0.753920	0.181209	0.229497
H228	H	1.253920	0.681209	0.729497
H229	H	0.753397	0.137653	0.157585
H230	H	1.253397	0.637653	0.657585
H231	H	0.811785	0.181793	0.157557
H232	H	1.311785	0.681793	0.657557
H233	H	0.799562	0.147042	0.639281
H234	H	1.299562	0.647042	1.139281
C235	C	0.674987	0.080080	0.157385
C236	C	1.174987	0.580080	0.657385
H237	H	0.727651	0.080719	0.146653
H238	H	1.227651	0.580719	0.646653
H239	H	0.668079	0.046725	0.188188
H240	H	1.168079	0.546725	0.688188
H241	H	0.656012	0.113126	0.188171
H242	H	1.156012	0.613126	0.688171
H243	H	0.889977	-0.642647	-0.136017
H244	H	1.389977	-0.142647	0.363983
H245	H	0.892560	-0.477207	0.210924
H246	H	1.392560	0.022793	0.710924
H247	H	0.896976	-0.203976	0.135998
H248	H	1.396976	0.296024	0.635998
C249	C	0.894411	-0.360967	0.232339
C250	C	1.394411	0.139033	0.732339
H251	H	0.895042	-0.321333	0.221613
H252	H	1.395042	0.178667	0.721613
H253	H	0.938391	-0.375117	0.263140
H254	H	1.438391	0.124883	0.763140
H255	H	0.850100	-0.366299	0.263125
H256	H	1.350100	0.133701	0.763125
C257	C	1.002188	-0.004740	0.373081
C258	C	1.502188	0.495260	0.873081
H259	H	1.033023	-0.027828	0.334914
H260	H	1.533023	0.472172	0.834914
H261	H	0.975160	-0.028425	0.406860
H262	H	1.475160	0.471575	0.906860
H263	H	1.033533	0.015727	0.406825
H264	H	1.533533	0.515727	0.906825
