data_functionalizedCrystal
_audit_creation_method	'MofGen! by Chris Wilmer'
_symmetry_space_group_name_H-M	'P1'
_symmetry_Int_Tables_number	1
_symmetry_cell_setting	triclinic
loop_
_symmetry_equiv_pos_as_xyz
  x,y,z
_cell_length_a	12.827893
_cell_length_b	19.121063
_cell_length_c	12.827885
_cell_angle_alpha	87.596223
_cell_angle_beta	90.019272
_cell_angle_gamma	92.468878
loop_
_atom_site_label
_atom_site_type_symbol
_atom_site_fract_x
_atom_site_fract_y
_atom_site_fract_z
Zn1	Zn	1.579836	-0.279578	0.608539
Zn2	Zn	1.913169	0.053755	0.941872
Zn3	Zn	2.246502	0.387089	1.275205
Zn4	Zn	1.572236	-0.397045	0.441232
Zn5	Zn	1.905570	-0.063712	0.774565
Zn6	Zn	2.238903	0.269622	1.107898
Zn7	Zn	1.405075	-0.279613	0.433815
Zn8	Zn	1.738408	0.053721	0.767148
Zn9	Zn	2.071741	0.387054	1.100481
Zn10	Zn	1.397572	-0.396992	0.615928
Zn11	Zn	1.730906	-0.063659	0.949262
Zn12	Zn	2.064239	0.269674	1.282595
O13	O	1.488680	-0.338307	0.524878
O14	O	1.822013	-0.004974	0.858212
O15	O	2.155346	0.328360	1.191545
O16	O	1.725063	-0.295168	0.586357
O17	O	2.058396	0.038165	0.919690
O18	O	2.391730	0.371499	1.253023
O19	O	1.550022	-0.381504	0.294014
O20	O	1.883355	-0.048171	0.627347
O21	O	2.216688	0.285163	0.960681
O22	O	1.434577	-0.181324	0.450795
O23	O	1.767910	0.152009	0.784129
O24	O	2.101244	0.485343	1.117462
O25	O	1.719480	-0.381470	0.463437
O26	O	2.052813	-0.048137	0.796770
O27	O	2.386147	0.285196	1.130104
O28	O	1.562973	-0.181298	0.579165
O29	O	1.896306	0.152035	0.912498
O30	O	2.229640	0.485368	1.245831
O31	O	1.427209	-0.295227	0.288565
O32	O	1.760542	0.038107	0.621898
O33	O	2.093875	0.371440	0.955231
O34	O	1.257844	-0.295176	0.457961
O35	O	1.591177	0.038158	0.791294
O36	O	1.924511	0.371491	1.124628
O37	O	1.421790	-0.381381	0.761182
O38	O	1.755124	-0.048047	1.094515
O39	O	2.088457	0.285286	1.427849
O40	O	1.252332	-0.381414	0.591759
O41	O	1.585665	-0.048081	0.925092
O42	O	1.918999	0.285253	1.258426
O43	O	1.555698	-0.295117	0.755753
O44	O	1.889032	0.038217	1.089086
O45	O	2.222365	0.371550	1.422420
O46	O	1.542747	-0.495322	0.470602
O47	O	1.876080	-0.161989	0.803936
O48	O	2.209414	0.171344	1.137269
O49	O	1.414422	-0.495284	0.598951
O50	O	1.747755	-0.161950	0.932285
O51	O	2.081089	0.171383	1.265618
C52	C	1.217171	-0.338293	0.524858
C53	C	1.550504	-0.004960	0.858191
C54	C	1.883837	0.328373	1.191524
C55	C	1.101017	-0.338305	0.524875
C56	C	1.434350	-0.004971	0.858208
C57	C	1.767684	0.328362	1.191541
C58	C	1.476974	-0.520787	0.536406
C59	C	1.810307	-0.187454	0.869740
C60	C	2.143641	0.145880	1.203073
C61	C	1.472062	-0.598853	0.541373
C62	C	1.805395	-0.265519	0.874706
C63	C	2.138729	0.067814	1.208040
C64	C	1.046528	-0.381045	0.590989
C65	C	1.379861	-0.047711	0.924322
C66	C	1.713195	0.285622	1.257655
C67	C	0.926477	-0.381057	0.591008
C68	C	1.259810	-0.047724	0.924341
C69	C	1.593144	0.285609	1.257674
C70	C	1.536618	-0.635525	0.476937
C71	C	1.869952	-0.302191	0.810271
C72	C	2.203285	0.031142	1.143604
C73	C	1.532005	-0.708876	0.481614
C74	C	1.865338	-0.375542	0.814948
C75	C	2.198671	-0.042209	1.148281
C76	C	1.462829	-0.745553	0.550723
C77	C	1.796162	-0.412220	0.884056
C78	C	2.129495	-0.078887	1.217389
C79	C	1.398270	-0.708876	0.615166
C80	C	1.731603	-0.375542	0.948499
C81	C	2.064937	-0.042209	1.281832
C82	C	1.402890	-0.635526	0.610493
C83	C	1.736223	-0.302193	0.943826
C84	C	2.069556	0.031141	1.277160
C85	C	1.445540	-0.967022	0.568177
C86	C	1.778874	-0.633689	0.901510
C87	C	2.112207	-0.300355	1.234843
C88	C	1.440923	-1.040377	0.572842
C89	C	1.774257	-0.707043	0.906175
C90	C	2.107590	-0.373710	1.239509
C91	C	1.574660	-1.040372	0.439292
C92	C	1.907993	-0.707038	0.772625
C93	C	2.241326	-0.373705	1.105959
C94	C	1.579269	-0.967021	0.434621
C95	C	1.912602	-0.633687	0.767954
C96	C	2.245935	-0.300354	1.101288
C97	C	1.514714	-0.930350	0.499067
C98	C	1.848047	-0.597016	0.832401
C99	C	2.181381	-0.263683	1.165734
C100	C	1.458109	-0.820530	0.555503
C101	C	1.791442	-0.487196	0.888836
C102	C	2.124776	-0.153863	1.222170
C103	C	1.519440	-0.855374	0.494292
C104	C	1.852773	-0.522041	0.827625
C105	C	2.186106	-0.188708	1.160958
C106	C	1.761249	-0.338321	0.524900
C107	C	2.094582	-0.004988	0.858233
C108	C	2.427916	0.328346	1.191567
C109	C	1.877402	-0.338327	0.524909
C110	C	2.210735	-0.004994	0.858242
C111	C	2.544068	0.328340	1.191576
C112	C	1.488755	-0.338239	0.797444
C113	C	1.822089	-0.004906	1.130778
C114	C	2.155422	0.328428	1.464111
C115	C	1.488787	-0.338210	0.913596
C116	C	1.822121	-0.004877	1.246929
C117	C	2.155454	0.328457	1.580262
C118	C	1.500460	-0.155115	0.513328
C119	C	1.833793	0.178219	0.846662
C120	C	2.167126	0.511552	1.179995
C121	C	1.505479	-0.077049	0.508406
C122	C	1.838813	0.256284	0.841740
C123	C	2.172146	0.589618	1.175073
C124	C	1.488668	-0.338324	0.253370
C125	C	1.822001	-0.004991	0.586703
C126	C	2.155335	0.328343	0.920036
C127	C	1.488851	-0.338155	0.137206
C128	C	1.822184	-0.004822	0.470540
C129	C	2.155518	0.328511	0.803873
C130	C	1.428071	-0.295480	1.082726
C131	C	1.761404	0.037853	1.416059
C132	C	2.094738	0.371187	1.749393
C133	C	1.428036	-0.295509	0.962678
C134	C	1.761370	0.037824	1.296011
C135	C	2.094703	0.371158	1.629344
H136	H	1.088756	-0.417624	0.647580
H137	H	1.422089	-0.084291	0.980914
H138	H	1.755422	0.249042	1.314247
F139	F	1.045828	-0.290484	0.450912
F140	F	1.379162	0.042850	0.784245
F141	F	1.712495	0.376183	1.117578
H142	H	1.375997	-0.258975	0.915836
H143	H	1.709331	0.074358	1.249170
H144	H	2.042664	0.407691	1.582503
F145	F	1.600718	-0.747902	0.413036
F146	F	1.934051	-0.414569	0.746369
F147	F	2.267384	-0.081235	1.079702
F148	F	1.556802	-0.385972	0.974811
F149	F	1.890135	-0.052639	1.308144
F150	F	2.223469	0.280694	1.641477
H151	H	0.879628	-0.417651	0.647607
H152	H	1.212961	-0.084317	0.980941
H153	H	1.546295	0.249016	1.314274
F154	F	0.938626	-0.290499	0.450914
F155	F	1.271959	0.042834	0.784248
F156	F	1.605292	0.376167	1.117581
H157	H	1.376065	-0.258920	1.124959
H158	H	1.709398	0.074413	1.458292
H159	H	2.042732	0.407746	1.791626
H160	H	1.592944	-0.605667	0.420657
H161	H	1.926277	-0.272334	0.753991
H162	H	2.259611	0.061000	1.087324
F163	F	1.652907	-0.927991	0.361078
F164	F	1.986240	-0.594658	0.694411
F165	F	2.319573	-0.261324	1.027744
F166	F	1.334183	-0.596497	0.679077
F167	F	1.667516	-0.263164	1.012410
F168	F	2.000849	0.070169	1.345744
F169	F	1.556840	-0.385937	1.082010
F170	F	1.890173	-0.052603	1.415343
F171	F	2.223507	0.280730	1.748677
H172	H	1.627218	-1.070237	0.386825
H173	H	1.960551	-0.736904	0.720158
H174	H	2.293885	-0.403570	1.053491
H175	H	1.575767	-0.825510	0.438028
H176	H	1.909100	-0.492176	0.771361
H177	H	2.242434	-0.158843	1.104694
F178	F	1.384488	-0.859571	0.629051
F179	F	1.717821	-0.526237	0.962384
F180	F	2.051155	-0.192904	1.295717
F181	F	1.367283	-1.079410	0.646389
F182	F	1.700616	-0.746077	0.979723
F183	F	2.033949	-0.412743	1.313056
F184	F	1.376833	-0.928003	0.636766
F185	F	1.710167	-0.594670	0.970099
F186	F	2.043500	-0.261337	1.303433
H187	H	1.341950	-0.738744	0.671440
H188	H	1.675283	-0.405411	1.004773
H189	H	2.008617	-0.072078	1.338106
