data_functionalizedCrystal
_audit_creation_method	'MofGen! by Chris Wilmer'
_symmetry_space_group_name_H-M	'P1'
_symmetry_Int_Tables_number	1
_symmetry_cell_setting	triclinic
loop_
_symmetry_equiv_pos_as_xyz
  x,y,z
_cell_length_a	14.395555
_cell_length_b	14.395555
_cell_length_c	14.560438
_cell_angle_alpha	60.000779
_cell_angle_beta	89.999042
_cell_angle_gamma	59.993552
loop_
_atom_site_label
_atom_site_type_symbol
_atom_site_fract_x
_atom_site_fract_y
_atom_site_fract_z
Zr1	Zr	-0.121958	1.016834	0.884757
O2	O	-0.270308	1.210650	0.738109
O3	O	-0.076470	0.823025	0.929715
O4	O	-0.270287	1.016840	0.929716
O5	O	0.076383	1.016828	0.738105
O6	O	-0.270282	1.016837	1.080857
O7	O	-0.076491	1.016835	0.738108
O8	O	0.076421	0.670138	1.080855
O9	O	-0.270320	1.363527	0.738107
O10	O	-0.057079	0.902737	1.061681
O11	O	0.057006	0.902734	0.948884
O12	O	-0.171188	1.130926	0.948885
O13	O	-0.057104	1.130923	0.836089
Zr14	Zr	0.121867	1.016819	1.125805
Zr15	Zr	-0.121950	1.016830	1.125810
Zr16	Zr	0.121859	1.016823	0.884753
Zr17	Zr	-0.121977	1.260656	0.884754
Zr18	Zr	0.121886	0.772997	1.125809
O19	O	0.076379	1.210628	1.080848
O20	O	-0.270297	1.210643	1.080854
O21	O	0.076368	1.210634	0.738103
O22	O	0.270217	0.823003	1.272454
O23	O	-0.076459	0.823019	1.272460
O24	O	0.270206	0.823010	0.929709
O25	O	-0.076474	1.016825	1.272458
O26	O	0.270196	1.016813	1.080847
O27	O	0.270191	1.016816	0.929706
O28	O	0.076400	1.016818	1.272455
O29	O	-0.270313	1.363524	0.929711
O30	O	0.270223	0.670129	1.080852
O31	O	0.270229	0.670126	1.272456
O32	O	0.076427	0.670134	1.272460
O33	O	-0.076518	1.363519	0.738103
O34	O	-0.076512	1.363515	0.929708
O35	O	0.171098	0.902727	1.061677
O36	O	0.057013	0.902730	1.174474
O37	O	-0.057097	1.130919	1.061678
O38	O	0.056988	1.130916	0.948881
C39	C	-0.000022	0.711842	1.005285
C40	C	-0.000014	0.608333	1.005287
C41	C	0.062151	0.485860	0.943769
C42	C	0.107276	0.471577	1.049831
C43	C	-0.045086	0.623955	0.899245
C44	C	0.045110	0.409611	1.111400
C45	C	-0.107312	0.562052	0.960737
C46	C	-0.062214	0.547722	1.066863
C47	C	-0.305023	1.016840	1.005287
C48	C	-0.408529	1.016845	1.005288
C49	C	-0.531336	1.141264	0.943775
C50	C	-0.562167	1.079065	1.049829
C51	C	-0.562121	1.079039	0.899240
C52	C	-0.437997	0.954646	1.111405
C53	C	-0.437955	0.954637	0.960740
C54	C	-0.468713	0.892348	1.066857
C55	C	0.304932	1.016813	1.005276
C56	C	0.408438	1.016808	1.005274
C57	C	-0.000055	1.016832	0.703762
C58	C	-0.000059	1.016834	0.601429
C59	C	-0.000069	1.321811	1.005277
C60	C	-0.000077	1.425320	1.005276
C61	C	-0.084276	1.016840	0.553347
C62	C	-0.084261	1.016828	0.457201
C63	C	0.084194	1.016809	0.457225
C64	C	0.084183	1.016812	0.553373
C65	C	-0.168518	1.016862	0.601402
C66	C	-0.252743	1.016870	0.553319
C67	C	-0.252728	1.016857	0.457173
C68	C	-0.168487	1.016838	0.409110
C69	C	-0.000035	1.016821	1.306801
C70	C	-0.000032	1.016819	1.409134
C71	C	-0.000012	0.711837	1.306805
C72	C	-0.000000	0.608326	1.409140
C73	C	0.304956	0.711828	1.005280
C74	C	0.408470	0.608315	1.005280
C75	C	0.304966	0.711823	1.306800
C76	C	0.408483	0.608307	1.409132
C77	C	-0.305056	1.321830	0.703763
C78	C	-0.408574	1.425346	0.601430
C79	C	-0.000079	1.321817	0.703758
C80	C	-0.000090	1.425327	0.601423
C81	C	-0.305046	1.321825	1.005283
C82	C	-0.408561	1.425338	1.005283
C83	C	-0.059546	0.559696	1.398343
C84	C	-0.059539	0.462444	1.494501
C85	C	0.059569	0.462456	1.612249
C86	C	0.059554	0.559713	1.516092
C87	C	-0.119101	0.608309	1.291390
C88	C	-0.178651	0.559678	1.280589
C89	C	-0.178644	0.462427	1.376747
C90	C	-0.119087	0.413805	1.483706
C91	C	0.516656	0.559675	1.064158
C92	C	0.613915	0.462419	1.064148
C93	C	0.494788	0.462446	0.946381
C94	C	0.397531	0.559707	0.946385
C95	C	0.527595	0.608283	1.123053
C96	C	0.635786	0.559642	1.181937
C97	C	0.733045	0.462385	1.181927
C98	C	0.722113	0.413769	1.123034
C99	C	0.397569	0.559673	1.516087
C100	C	0.494839	0.462415	1.612236
C101	C	0.613935	0.462432	1.494461
C102	C	0.516666	0.559694	1.398315
C103	C	0.289386	0.608286	1.526905
C104	C	0.278466	0.559650	1.633865
C105	C	0.375736	0.462393	1.730013
C106	C	0.483926	0.413771	1.719202
H107	H	0.114811	0.458601	0.891837
F108	F	0.122925	0.611475	1.527582
F109	F	-0.225858	0.610693	0.911452
H110	H	0.083311	0.318039	1.201116
H111	H	0.152779	1.016795	0.418085
F112	F	0.729077	0.410680	1.482962
F113	F	-0.130951	0.582977	1.134945
F114	F	-0.435164	0.754722	1.134933
H115	H	-0.384434	0.902099	0.923036
F116	F	-0.119107	0.711806	1.189046
F117	F	0.424089	0.711790	1.123069
H118	H	-0.556788	1.246471	0.891848
H119	H	0.210177	0.687475	1.448623
F120	F	0.225845	0.422917	1.099082
F121	F	0.163326	0.611409	1.645366
H122	H	-0.083180	0.715565	0.809570
F123	F	0.364113	0.410644	1.843845
F124	F	0.647416	0.611395	1.244601
H125	H	-0.615694	1.131649	1.087505
F126	F	0.848187	0.410632	1.244585
H127	H	0.108059	0.422860	1.699340
F128	F	-0.632061	1.147801	0.782026
F129	F	-0.368253	0.885964	1.228676
H130	H	0.152761	1.016805	0.592523
F131	F	-0.242030	0.410683	1.365249
F132	F	-0.168543	1.016882	0.703725
H133	H	-0.227147	0.599280	1.193499
H134	H	0.801312	0.334586	1.123022
H135	H	-0.321324	1.016875	0.592462
H136	H	0.525557	0.599293	1.311226
H137	H	-0.321301	1.016850	0.418032
H138	H	-0.168475	1.016814	0.330828
H139	H	-0.119091	0.334622	1.562000
H140	H	0.485897	0.422853	0.898434
F141	F	0.282386	0.611478	0.883718
H142	H	0.563125	0.334586	1.797497
