data_functionalizedCrystal
_audit_creation_method	'MofGen! by Chris Wilmer'
_symmetry_space_group_name_H-M	'P1'
_symmetry_Int_Tables_number	1
_symmetry_cell_setting	triclinic
loop_
_symmetry_equiv_pos_as_xyz
  x,y,z
_cell_length_a	19.188930
_cell_length_b	23.532407
_cell_length_c	18.266242
_cell_angle_alpha	89.988983
_cell_angle_beta	89.977082
_cell_angle_gamma	82.996728
loop_
_atom_site_label
_atom_site_type_symbol
_atom_site_fract_x
_atom_site_fract_y
_atom_site_fract_z
O1	O	0.925922	0.071102	-0.061124
O2	O	1.425922	0.571102	0.438876
O3	O	0.722581	0.080673	-0.061074
O4	O	1.222581	0.580673	0.438926
O5	O	0.830383	-0.007031	-0.061087
O6	O	1.330383	0.492969	0.438913
O7	O	0.818120	0.158806	-0.061111
O8	O	1.318120	0.658806	0.438889
O9	O	0.830365	-0.007035	0.060675
O10	O	1.330365	0.492965	0.560675
O11	O	0.722562	0.080669	0.060688
O12	O	1.222562	0.580669	0.560688
O13	O	0.925904	0.071097	0.060638
O14	O	1.425904	0.571097	0.560638
Zn15	Zn	0.824230	0.075882	0.079995
Zn16	Zn	1.324230	0.575882	0.579995
Zn17	Zn	0.824254	0.075888	-0.080431
Zn18	Zn	1.324254	0.575888	0.419569
O19	O	0.818102	0.158802	0.060651
O20	O	1.318102	0.658802	0.560651
C21	C	0.696561	0.080361	-0.000187
C22	C	1.196561	0.580361	0.499813
C23	C	0.619060	0.079431	-0.000168
C24	C	1.119060	0.579431	0.499832
C25	C	0.830062	-0.028250	-0.000204
C26	C	1.330062	0.471750	0.499796
C27	C	0.829123	-0.091469	-0.000198
C28	C	1.329123	0.408531	0.499802
C29	C	0.573972	0.130893	-0.000187
C30	C	1.073972	0.630893	0.499813
C31	C	0.501151	0.130019	-0.000194
C32	C	1.001151	0.630019	0.499806
C33	C	0.473421	0.077680	-0.000198
C34	C	0.973421	0.577680	0.499802
C35	C	0.518519	0.026211	-0.000175
C36	C	1.018519	0.526211	0.499825
C37	C	0.591339	0.027086	-0.000160
C38	C	1.091339	0.527086	0.499840
N39	N	0.365575	0.037674	-0.041663
N40	N	0.865575	0.537674	0.458337
N41	N	0.296399	0.036846	-0.041679
N42	N	0.796399	0.536846	0.458321
C43	C	0.254021	0.075038	-0.000243
C44	C	0.754021	0.575038	0.499757
N45	N	0.283431	0.114099	0.041201
N46	N	0.783431	0.614099	0.541201
N47	N	0.352613	0.114929	0.041214
N48	N	0.852613	0.614929	0.541214
C49	C	0.394462	0.076724	-0.000214
C50	C	0.894462	0.576724	0.499786
C51	C	0.129971	0.125556	-0.000269
C52	C	0.629971	0.625556	0.499731
C53	C	0.057149	0.124680	-0.000272
C54	C	0.557149	0.624680	0.499728
C55	C	0.074520	0.020870	-0.000260
C56	C	0.574520	0.520870	0.499740
C57	C	0.147340	0.021748	-0.000250
C58	C	0.647340	0.521748	0.499750
C59	C	0.175061	0.074092	-0.000257
C60	C	0.675061	0.574092	0.499743
C61	C	0.887029	-0.490449	-0.000252
C62	C	1.387029	0.009551	0.499748
C63	C	0.886157	-0.549851	-0.000258
C64	C	1.386157	-0.049851	0.499742
O65	O	0.939837	-0.586482	-0.000298
O66	O	1.439837	-0.086482	0.499702
N67	N	0.822068	-0.572613	-0.000242
N68	N	1.322068	-0.072613	0.499758
C69	C	0.758848	-0.535970	-0.000228
C70	C	1.258848	-0.035970	0.499772
O71	O	0.704255	-0.560786	-0.000215
O72	O	1.204255	-0.060786	0.499785
C73	C	0.759721	-0.476569	-0.000228
C74	C	1.259721	0.023431	0.499772
C75	C	0.823814	-0.453810	-0.000236
C76	C	1.323814	0.046190	0.499764
C77	C	0.951117	-0.467690	-0.000262
C78	C	1.451117	0.032310	0.499738
C79	C	0.951989	-0.408292	-0.000255
C80	C	1.451989	0.091708	0.499745
C81	C	0.888773	-0.371653	-0.000239
C82	C	1.388773	0.128347	0.499761
C83	C	0.824685	-0.394412	-0.000230
C84	C	1.324685	0.105588	0.499770
C85	C	0.696501	-0.439927	-0.000219
C86	C	1.196501	0.060073	0.499781
C87	C	0.697379	-0.380523	-0.000219
C88	C	1.197379	0.119477	0.499781
C89	C	0.761472	-0.357764	-0.000228
C90	C	1.261472	0.142236	0.499772
C91	C	0.762342	-0.298376	-0.000207
C92	C	1.262342	0.201624	0.499793
N93	N	0.826430	-0.275614	-0.000223
N94	N	1.326430	0.224386	0.499777
C95	C	0.889646	-0.312252	-0.000239
C96	C	1.389646	0.187748	0.499761
C97	C	0.757019	-0.660717	-0.000229
C98	C	1.257019	-0.160717	0.499771
C99	C	0.756146	-0.720116	-0.000224
C100	C	1.256146	-0.220116	0.499776
C101	C	0.883455	-0.733993	-0.000256
C102	C	1.383455	-0.233993	0.499744
C103	C	0.884328	-0.674592	-0.000255
C104	C	1.384328	-0.174592	0.499745
C105	C	0.821108	-0.637954	-0.000245
C106	C	1.321108	-0.137954	0.499755
C107	C	0.891472	-0.187512	-0.000224
C108	C	1.391472	0.312488	0.499776
C109	C	0.892339	-0.128108	-0.000214
C110	C	1.392339	0.371892	0.499786
C111	C	0.765029	-0.114236	-0.000187
C112	C	1.265029	0.385764	0.499813
C113	C	0.764163	-0.173634	-0.000193
C114	C	1.264163	0.326366	0.499807
C115	C	0.827390	-0.210272	-0.000214
C116	C	1.327390	0.289728	0.499786
O117	O	0.708690	-0.261710	-0.000170
O118	O	1.208690	0.238290	0.499830
O119	O	0.944230	-0.287428	-0.000261
O120	O	1.444230	0.212572	0.499739
C121	C	0.951923	0.071410	-0.000251
C122	C	1.451923	0.571410	0.499749
C123	C	1.029425	0.072340	-0.000275
C124	C	1.529425	0.572340	0.499725
C125	C	0.818423	0.180021	-0.000234
C126	C	1.318423	0.680021	0.499766
C127	C	0.819362	0.243240	-0.000244
C128	C	1.319362	0.743240	0.499756
N129	N	0.824219	0.075878	0.189482
N130	N	1.324219	0.575878	0.689482
N131	N	0.824271	0.075888	-0.189918
N132	N	1.324271	0.575888	0.310082
C133	C	0.871970	0.037062	0.227785
C134	C	1.371970	0.537062	0.727785
C135	C	0.871974	0.037059	0.304430
C136	C	1.371974	0.537059	0.804430
C137	C	0.824235	0.075883	0.342769
C138	C	1.324235	0.575883	0.842769
C139	C	0.776475	0.114702	0.304457
C140	C	1.276475	0.614702	0.804457
C141	C	0.776468	0.114700	0.227813
C142	C	1.276468	0.614700	0.727813
N143	N	0.814998	0.126298	0.463096
N144	N	1.314998	0.626298	0.963096
N145	N	0.815010	0.126298	0.535904
N146	N	1.315010	0.626298	1.035904
C147	C	0.824254	0.075891	0.573691
C148	C	1.324254	0.575891	1.073691
N149	N	0.833500	0.025481	0.535921
N150	N	1.333500	0.525481	1.035921
N151	N	0.833492	0.025482	0.463106
N152	N	1.333492	0.525482	0.963106
C153	C	0.824238	0.075889	0.425876
C154	C	1.324238	0.575889	0.925876
C155	C	0.872012	0.037068	0.695102
C156	C	1.372012	0.537068	1.195102
C157	C	0.872012	0.037065	0.771748
C158	C	1.372012	0.537065	1.271748
C159	C	0.776516	0.114713	0.771773
C160	C	1.276516	0.614713	1.271773
C161	C	0.776513	0.114711	0.695128
C162	C	1.276513	0.614711	1.195128
C163	C	0.824265	0.075890	0.656797
C164	C	1.324265	0.575890	1.156797
H165	H	0.596537	0.173516	-0.000194
H166	H	1.096537	0.673516	0.499806
C167	C	0.451545	0.186629	-0.000226
C168	C	0.951545	0.686629	0.499774
H169	H	0.478484	0.217928	-0.000235
H170	H	0.978484	0.717928	0.499765
H171	H	0.422747	0.188450	0.042224
H172	H	0.922747	0.688450	0.542224
H173	H	0.422808	0.188437	-0.042703
H174	H	0.922808	0.688437	0.457297
H175	H	0.737604	0.146312	0.335676
H176	H	1.237604	0.646312	0.835676
H177	H	0.737643	0.146322	0.802988
H178	H	1.237643	0.646322	1.302988
H179	H	0.051943	-0.021745	-0.000309
H180	H	0.551943	0.478255	0.499691
C181	C	0.488020	-0.031361	-0.000184
C182	C	0.988020	0.468639	0.499816
H183	H	0.438193	-0.024512	-0.000204
H184	H	0.938193	0.475488	0.499796
H185	H	0.503495	-0.052547	0.042282
H186	H	1.003495	0.447453	0.542282
H187	H	0.503548	-0.052539	-0.042645
H188	H	1.003548	0.447461	0.457355
C189	C	1.022491	-0.383265	-0.000279
C190	C	1.522491	0.116735	0.499721
H191	H	1.060010	-0.413599	-0.000298
H192	H	1.560010	0.086401	0.499702
H193	H	1.025483	-0.360386	0.042180
H194	H	1.525483	0.139614	0.542180
H195	H	1.025483	-0.360378	-0.042748
H196	H	1.525483	0.139622	0.457252
H197	H	0.910894	0.005453	0.802935
H198	H	1.410894	0.505453	1.302935
C199	C	0.627835	-0.340224	-0.000205
C200	C	1.127835	0.159776	0.499795
H201	H	0.589544	-0.362290	-0.000195
H202	H	1.089544	0.137710	0.499805
H203	H	0.625535	-0.316754	-0.042663
H204	H	1.125535	0.183246	0.457337
H205	H	0.625520	-0.316772	0.042264
H206	H	1.125520	0.183228	0.542264
H207	H	1.002598	-0.497516	-0.000278
H208	H	1.502598	0.002484	0.499722
C209	C	0.952992	-0.774303	-0.000287
C210	C	1.452992	-0.274303	0.499713
H211	H	0.943288	-0.812939	-0.000296
H212	H	1.443288	-0.312939	0.499704
H213	H	0.979292	-0.767434	0.042164
H214	H	1.479292	-0.267434	0.542164
H215	H	0.979288	-0.767412	-0.042763
H216	H	1.479288	-0.267412	0.457237
H217	H	0.703955	-0.738641	-0.000205
H218	H	1.203955	-0.238641	0.499795
H219	H	0.711973	-0.192165	-0.000165
H220	H	1.211973	0.307835	0.499835
H221	H	0.628050	-0.014822	-0.000145
H222	H	1.128050	0.485178	0.499855
C223	C	0.924525	-0.005639	0.652931
C224	C	1.424525	0.494361	1.152931
H225	H	0.917687	-0.000077	0.601799
H226	H	1.417687	0.499923	1.101799
H227	H	0.917207	-0.043632	0.665507
H228	H	1.417207	0.456368	1.165507
H229	H	0.971082	0.000453	0.665466
H230	H	1.471082	0.500453	1.165466
C231	C	0.695498	-0.073926	-0.000173
C232	C	1.195498	0.426074	0.499827
H233	H	0.705202	-0.035291	-0.000180
H234	H	1.205202	0.464709	0.499820
H235	H	0.669186	-0.080812	0.042289
H236	H	1.169186	0.419188	0.542289
H237	H	0.669213	-0.080802	-0.042638
H238	H	1.169213	0.419198	0.457362
C239	C	0.954829	-0.649563	-0.000272
C240	C	1.454829	-0.149563	0.499728
H241	H	0.992350	-0.679896	-0.000285
H242	H	1.492350	-0.179896	0.499715
H243	H	0.957814	-0.626683	0.042187
H244	H	1.457814	-0.126683	0.542187
H245	H	0.957825	-0.626677	-0.042741
H246	H	1.457825	-0.126677	0.457259
H247	H	0.942958	-0.217335	-0.000244
H248	H	1.442958	0.282665	0.499756
H249	H	0.910860	0.005449	0.335623
H250	H	1.410860	0.505449	0.835623
C251	C	0.626000	-0.464951	-0.000218
C252	C	1.126000	0.035049	0.499782
H253	H	0.634522	-0.505576	-0.000219
H254	H	1.134522	-0.005576	0.499781
H255	H	0.600004	-0.452352	-0.042677
H256	H	1.100004	0.047648	0.457323
H257	H	0.599979	-0.452370	0.042251
H258	H	1.099979	0.047630	0.542251
H259	H	0.184052	-0.020158	-0.000238
H260	H	0.684052	0.479842	0.499762
H261	H	0.705535	-0.630888	-0.000215
H262	H	1.205535	-0.130888	0.499785
C263	C	0.723995	0.157416	0.652992
C264	C	1.223995	0.657416	1.152992
H265	H	0.695566	0.180542	0.686801
H266	H	1.195566	0.680542	1.186801
H267	H	0.695072	0.136989	0.623113
H268	H	1.195072	0.636989	1.123113
H269	H	0.748947	0.181074	0.623076
H270	H	1.248947	0.681074	1.123076
H271	H	0.152543	0.168178	-0.000265
H272	H	0.652543	0.668178	0.499735
H273	H	0.944533	-0.109581	-0.000220
H274	H	1.444533	0.390419	0.499780
C275	C	0.723945	0.157404	0.185678
C276	C	1.223945	0.657404	0.685678
H277	H	0.695514	0.180528	0.219485
H278	H	1.195514	0.680528	0.719485
H279	H	0.695024	0.136976	0.155797
H280	H	1.195024	0.636976	0.655797
H281	H	0.748898	0.181063	0.155763
H282	H	1.248898	0.681063	0.655763
H283	H	0.020438	0.166588	-0.000284
H284	H	0.520438	0.666588	0.499716
H285	H	0.910850	0.005449	0.196579
H286	H	1.410850	0.505449	0.696579
