data_functionalizedCrystal
_audit_creation_method	'MofGen! by Chris Wilmer'
_symmetry_space_group_name_H-M	'P1'
_symmetry_Int_Tables_number	1
_symmetry_cell_setting	triclinic
loop_
_symmetry_equiv_pos_as_xyz
  x,y,z
_cell_length_a	14.971486
_cell_length_b	8.559649
_cell_length_c	13.448316
_cell_angle_alpha	89.994831
_cell_angle_beta	89.998199
_cell_angle_gamma	76.696397
loop_
_atom_site_label
_atom_site_type_symbol
_atom_site_fract_x
_atom_site_fract_y
_atom_site_fract_z
O1	O	1.172521	0.208203	-0.082574
O2	O	0.910393	0.233136	-0.082601
O3	O	1.064550	-0.011888	-0.082584
O4	O	1.018363	0.453227	-0.082591
O5	O	1.064534	-0.011904	0.082800
O6	O	0.910377	0.233121	0.082783
O7	O	1.172504	0.208188	0.082810
Cu8	Cu	1.041439	0.220653	0.097897
Cu9	Cu	1.041458	0.220671	-0.097688
O10	O	1.018347	0.453212	0.082793
C11	C	0.877137	0.232013	0.000088
C12	C	0.778072	0.228672	0.000078
C13	C	0.710872	0.372617	0.000077
C14	C	0.617791	0.369468	0.000092
C15	C	0.591911	0.222372	0.000100
C16	C	0.659119	0.078416	0.000104
C17	C	0.752198	0.081566	0.000096
C18	C	0.465111	0.071859	0.000118
C19	C	0.372025	0.068707	0.000124
C20	C	0.330704	0.359760	0.000113
C21	C	0.423783	0.362910	0.000106
C22	C	0.490984	0.218954	0.000107
C23	C	1.068043	-0.071419	0.000106
C24	C	1.078461	-0.248779	0.000102
C25	C	1.205760	0.209310	0.000119
C26	C	1.304826	0.212652	0.000123
C27	C	1.014855	0.512743	0.000101
C28	C	1.004436	0.690103	0.000098
N29	N	1.041432	0.220639	0.235462
N30	N	1.041473	0.220672	-0.235252
C31	C	1.109709	0.112187	0.287509
C32	C	1.109715	0.112186	0.391613
C33	C	1.041447	0.220646	0.443666
C34	C	0.973163	0.329103	0.391611
C35	C	0.973154	0.329095	0.287510
C36	C	0.973187	0.329114	0.608591
C37	C	0.973196	0.329124	0.712700
C38	C	1.109747	0.112204	0.712694
C39	C	1.109739	0.112197	0.608593
C40	C	1.041456	0.220656	0.556545
H41	H	0.563079	0.486682	0.000090
O42	O	1.176071	0.006674	0.237103
C43	C	1.236346	-0.089022	0.305371
H44	H	1.199812	-0.090928	0.379583
H45	H	1.258754	-0.216576	0.275303
H46	H	1.299211	-0.036950	0.316428
H47	H	0.638040	-0.041353	0.000125
H48	H	1.165310	0.023875	0.433989
H49	H	0.933089	-0.226536	0.000094
O50	O	0.906950	0.434516	0.236838
C51	C	0.948057	0.533246	0.176622
H52	H	1.022403	0.469823	0.161022
H53	H	0.908989	0.558400	0.103421
H54	H	0.946019	0.651348	0.216728
H55	H	0.731935	0.492399	0.000069
O56	O	0.448767	0.505935	0.000139
C57	C	0.369496	0.632320	0.000116
H58	H	0.309202	0.587421	0.031433
H59	H	0.381946	0.735002	0.048127
H60	H	0.353242	0.676737	-0.079227
O61	O	0.265312	0.499454	0.000155
C62	C	0.177607	0.465139	0.000141
H63	H	0.182651	0.339649	0.031467
H64	H	0.129037	0.556889	0.048150
H65	H	0.150212	0.471133	-0.079200
O66	O	0.817361	-0.058410	0.000047
C67	C	0.774563	-0.188918	0.000079
H68	H	0.702153	-0.148500	-0.031228
H69	H	0.815906	-0.289782	-0.047937
H70	H	0.771021	-0.234006	0.079423
H71	H	1.149813	-0.332149	0.000117
H72	H	1.165331	0.023889	0.566211
H73	H	1.165345	0.023893	0.755077
H74	H	0.350958	-0.051071	0.000132
O75	O	0.906781	0.434516	0.763112
C76	C	0.846515	0.530253	0.694854
H77	H	0.850010	0.464753	0.620648
H78	H	0.773430	0.554373	0.724942
H79	H	0.867369	0.649046	0.683776
O80	O	0.530274	-0.068128	0.000070
C81	C	0.487475	-0.198636	0.000098
H82	H	0.415063	-0.158214	-0.031202
H83	H	0.528815	-0.299492	-0.047926
H84	H	0.483939	-0.243736	0.079440
H85	H	0.917581	0.417428	0.566217
H86	H	0.917574	0.417407	0.433999
