data_functionalizedCrystal
_audit_creation_method	'MofGen! by Chris Wilmer'
_symmetry_space_group_name_H-M	'P1'
_symmetry_Int_Tables_number	1
_symmetry_cell_setting	triclinic
loop_
_symmetry_equiv_pos_as_xyz
  x,y,z
_cell_length_a	29.839131
_cell_length_b	25.639242
_cell_length_c	25.639233
_cell_angle_alpha	90.023283
_cell_angle_beta	89.980415
_cell_angle_gamma	89.963922
loop_
_atom_site_label
_atom_site_type_symbol
_atom_site_fract_x
_atom_site_fract_y
_atom_site_fract_z
Zn1	Zn	-0.178972	-0.799215	-0.295755
Zn2	Zn	0.154361	-0.465882	0.037579
Zn3	Zn	0.487695	-0.132548	0.370912
Zn4	Zn	-0.254086	-0.799134	-0.208318
Zn5	Zn	0.079247	-0.465801	0.125016
Zn6	Zn	0.412580	-0.132468	0.458349
Zn7	Zn	-0.178964	-0.711791	-0.208317
Zn8	Zn	0.154369	-0.378458	0.125016
Zn9	Zn	0.487702	-0.045125	0.458350
Zn10	Zn	-0.254069	-0.711732	-0.295706
Zn11	Zn	0.079265	-0.378399	0.037627
Zn12	Zn	0.412598	-0.045066	0.370961
O13	O	-0.216523	-0.755468	-0.252024
O14	O	0.116810	-0.422135	0.081309
O15	O	0.450144	-0.088802	0.414643
O16	O	-0.188947	-0.872370	-0.284177
O17	O	0.144387	-0.539036	0.049157
O18	O	0.477720	-0.205703	0.382490
O19	O	-0.244126	-0.787539	-0.135153
O20	O	0.089208	-0.454206	0.198181
O21	O	0.422541	-0.120872	0.531514
O22	O	-0.116098	-0.723447	-0.219936
O23	O	0.217235	-0.390114	0.113397
O24	O	0.550568	-0.056780	0.446731
O25	O	-0.244133	-0.872310	-0.219937
O26	O	0.089200	-0.538977	0.113396
O27	O	0.422534	-0.205644	0.446729
O28	O	-0.116104	-0.787677	-0.284176
O29	O	0.217229	-0.454343	0.049157
O30	O	0.550563	-0.121010	0.382491
O31	O	-0.188934	-0.723369	-0.135152
O32	O	0.144400	-0.390035	0.198181
O33	O	0.477733	-0.056702	0.531515
O34	O	-0.188916	-0.638618	-0.219889
O35	O	0.144417	-0.305285	0.113445
O36	O	0.477750	0.028048	0.446778
O37	O	-0.244103	-0.723346	-0.368878
O38	O	0.089231	-0.390013	-0.035544
O39	O	0.422564	-0.056680	0.297789
O40	O	-0.244095	-0.638575	-0.284093
O41	O	0.089238	-0.305242	0.049240
O42	O	0.422571	0.028092	0.382574
O43	O	-0.188930	-0.787619	-0.368914
O44	O	0.144404	-0.454286	-0.035580
O45	O	0.477737	-0.120953	0.297753
O46	O	-0.316951	-0.787482	-0.219890
O47	O	0.016382	-0.454149	0.113443
O48	O	0.349715	-0.120815	0.446777
O49	O	-0.316938	-0.723268	-0.284094
O50	O	0.016395	-0.389935	0.049240
O51	O	0.349728	-0.056601	0.382573
C52	C	-0.216503	-0.619626	-0.251986
C53	C	0.116830	-0.286292	0.081347
C54	C	0.450163	0.047041	0.414681
C55	C	-0.216506	-0.561512	-0.251982
C56	C	0.116827	-0.228178	0.081351
C57	C	0.450161	0.105155	0.414685
C58	C	-0.187742	-0.310332	-0.218637
C59	C	0.145592	0.023001	0.114696
C60	C	0.478925	0.356335	0.448029
C61	C	-0.187738	-0.364936	-0.218632
C62	C	0.145596	-0.031603	0.114701
C63	C	0.478929	0.301730	0.448034
O64	O	-0.163256	-0.393185	-0.190259
O65	O	0.170078	-0.059851	0.143074
O66	O	0.503411	0.273482	0.476407
N67	N	-0.216511	-0.392238	-0.252003
N68	N	0.116822	-0.058905	0.081330
N69	N	0.450156	0.274429	0.414663
C70	C	-0.245287	-0.364932	-0.285385
C71	C	0.088047	-0.031599	0.047948
C72	C	0.421380	0.301735	0.381282
O73	O	-0.269760	-0.393168	-0.313770
O74	O	0.063574	-0.059835	0.019564
O75	O	0.396907	0.273499	0.352897
C76	C	-0.245288	-0.310329	-0.285392
C77	C	0.088045	0.023005	0.047941
C78	C	0.421379	0.356338	0.381274
C79	C	-0.216516	-0.283030	-0.252016
C80	C	0.116817	0.050303	0.081318
C81	C	0.450151	0.383636	0.414651
C82	C	-0.158972	-0.283033	-0.185264
C83	C	0.174361	0.050300	0.148070
C84	C	0.507695	0.383633	0.481403
C85	C	-0.158977	-0.228433	-0.185268
C86	C	0.174357	0.104900	0.148065
C87	C	0.507690	0.438234	0.481399
C88	C	-0.187751	-0.201131	-0.218646
C89	C	0.145582	0.132202	0.114687
C90	C	0.478916	0.465536	0.448020
C91	C	-0.216521	-0.228430	-0.252020
C92	C	0.116813	0.104904	0.081313
C93	C	0.450146	0.438237	0.414647
C94	C	-0.274061	-0.283024	-0.318776
C95	C	0.059272	0.050309	0.014557
C96	C	0.392606	0.383643	0.347890
C97	C	-0.274060	-0.228417	-0.318781
C98	C	0.059274	0.104916	0.014552
C99	C	0.392607	0.438250	0.347886
C100	C	-0.245288	-0.201118	-0.285404
C101	C	0.088045	0.132215	0.047929
C102	C	0.421379	0.465548	0.381262
C103	C	-0.245300	-0.146527	-0.285403
C104	C	0.088033	0.186806	0.047931
C105	C	0.421367	0.520139	0.381264
N106	N	-0.216527	-0.119226	-0.252032
N107	N	0.116807	0.214108	0.081302
N108	N	0.450140	0.547441	0.414635
C109	C	-0.187752	-0.146528	-0.218654
C110	C	0.145581	0.186806	0.114680
C111	C	0.478914	0.520139	0.448013
C112	C	-0.245281	-0.479603	-0.285368
C113	C	0.088052	-0.146269	0.047965
C114	C	0.421386	0.187064	0.381299
C115	C	-0.245282	-0.534205	-0.285358
C116	C	0.088051	-0.200872	0.047975
C117	C	0.421384	0.132462	0.381308
C118	C	-0.187733	-0.534206	-0.218606
C119	C	0.145601	-0.200872	0.114727
C120	C	0.478934	0.132461	0.448060
C121	C	-0.187734	-0.479602	-0.218613
C122	C	0.145599	-0.146269	0.114720
C123	C	0.478933	0.187064	0.448053
C124	C	-0.216508	-0.452301	-0.251997
C125	C	0.116825	-0.118968	0.081336
C126	C	0.450159	0.214365	0.414670
C127	C	-0.187765	-0.031863	-0.218665
C128	C	0.145569	0.301471	0.114668
C129	C	0.478902	0.634804	0.448002
C130	C	-0.187773	0.022743	-0.218671
C131	C	0.145560	0.356076	0.114662
C132	C	0.478894	0.689409	0.447996
C133	C	-0.245321	0.022739	-0.285425
C134	C	0.088013	0.356072	0.047908
C135	C	0.421346	0.689405	0.381242
C136	C	-0.245314	-0.031862	-0.285417
C137	C	0.088019	0.301471	0.047916
C138	C	0.421352	0.634805	0.381249
C139	C	-0.216532	-0.059161	-0.252036
C140	C	0.116801	0.274172	0.081298
C141	C	0.450134	0.607505	0.414631
O142	O	-0.269768	-0.118244	-0.313763
O143	O	0.063565	0.215089	0.019571
O144	O	0.396899	0.548423	0.352904
O145	O	-0.163279	-0.118285	-0.190279
O146	O	0.170054	0.215048	0.143055
O147	O	0.503388	0.548382	0.476388
C148	C	-0.333245	-0.755374	-0.251998
C149	C	0.000088	-0.422041	0.081335
C150	C	0.333421	-0.088707	0.414669
C151	C	-0.383180	-0.755381	-0.252004
C152	C	-0.049847	-0.422048	0.081329
C153	C	0.283487	-0.088715	0.414662
C154	C	-0.692817	-0.788965	-0.218642
C155	C	-0.359484	-0.455632	0.114691
C156	C	-0.026151	-0.122299	0.448025
C157	C	-0.880490	-0.789030	-0.218662
C158	C	-0.547157	-0.455696	0.114671
C159	C	-0.213824	-0.122363	0.448004
O160	O	-0.904750	-0.817509	-0.190276
O161	O	-0.571417	-0.484176	0.143057
O162	O	-0.238084	-0.150843	0.476390
N163	N	-0.903965	-0.755577	-0.252063
N164	N	-0.570632	-0.422243	0.081270
N165	N	-0.237298	-0.088910	0.414603
C166	C	-0.880518	-0.722108	-0.285464
C167	C	-0.547185	-0.388774	0.047869
C168	C	-0.213852	-0.055441	0.381202
O169	O	-0.904791	-0.693659	-0.313878
O170	O	-0.571458	-0.360326	0.019455
O171	O	-0.238124	-0.026992	0.352788
C172	C	-0.692846	-0.722046	-0.285446
C173	C	-0.359513	-0.388713	0.047887
C174	C	-0.026179	-0.055379	0.381220
C175	C	-0.669374	-0.755498	-0.252039
C176	C	-0.336041	-0.422164	0.081294
C177	C	-0.002707	-0.088831	0.414628
C178	C	-0.669345	-0.822415	-0.185238
C179	C	-0.336012	-0.489081	0.148095
C180	C	-0.002679	-0.155748	0.481429
C181	C	-0.622430	-0.822396	-0.185231
C182	C	-0.289097	-0.489063	0.148102
C183	C	0.044237	-0.155729	0.481435
C184	C	-0.598987	-0.788928	-0.218628
C185	C	-0.265653	-0.455595	0.114705
C186	C	0.067680	-0.122262	0.448038
C187	C	-0.622459	-0.755479	-0.252032
C188	C	-0.289125	-0.422146	0.081301
C189	C	0.044208	-0.088812	0.414634
C190	C	-0.669400	-0.688580	-0.318849
C191	C	-0.336067	-0.355247	0.014484
C192	C	-0.002734	-0.021913	0.347817
C193	C	-0.622479	-0.688568	-0.318843
C194	C	-0.289146	-0.355235	0.014491
C195	C	0.044187	-0.021902	0.347824
C196	C	-0.599007	-0.722020	-0.285436
C197	C	-0.265674	-0.388687	0.047898
C198	C	0.067659	-0.055353	0.381231
C199	C	-0.552100	-0.721993	-0.285423
C200	C	-0.218766	-0.388660	0.047911
C201	C	0.114567	-0.055326	0.381244
N202	N	-0.528625	-0.755446	-0.252022
N203	N	-0.195292	-0.422113	0.081312
N204	N	0.138041	-0.088779	0.414645
C205	C	-0.552069	-0.788914	-0.218624
C206	C	-0.218735	-0.455580	0.114709
C207	C	0.114598	-0.122247	0.448042
C208	C	-0.979049	-0.722141	-0.285471
C209	C	-0.645716	-0.388808	0.047863
C210	C	-0.312382	-0.055475	0.381196
C211	C	-1.025967	-0.722156	-0.285475
C212	C	-0.692633	-0.388823	0.047859
C213	C	-0.359300	-0.055489	0.381192
C214	C	-1.025936	-0.789079	-0.218673
C215	C	-0.692602	-0.455746	0.114660
C216	C	-0.359269	-0.122413	0.447994
C217	C	-0.979017	-0.789062	-0.218667
C218	C	-0.645684	-0.455728	0.114666
C219	C	-0.312350	-0.122395	0.448000
C220	C	-0.955574	-0.755595	-0.252069
C221	C	-0.622241	-0.422261	0.081264
C222	C	-0.288908	-0.088928	0.414597
C223	C	-0.453543	-0.788872	-0.218612
C224	C	-0.120210	-0.455539	0.114721
C225	C	0.213124	-0.122205	0.448054
C226	C	-0.406623	-0.788849	-0.218607
C227	C	-0.073290	-0.455516	0.114726
C228	C	0.260043	-0.122182	0.448059
C229	C	-0.406658	-0.721928	-0.285410
C230	C	-0.073325	-0.388595	0.047923
C231	C	0.260008	-0.055261	0.381256
C232	C	-0.453574	-0.721949	-0.285414
C233	C	-0.120241	-0.388616	0.047919
C234	C	0.213093	-0.055282	0.381253
C235	C	-0.477015	-0.755425	-0.252013
C236	C	-0.143682	-0.422092	0.081320
C237	C	0.189652	-0.088758	0.414653
O238	O	-0.527811	-0.693533	-0.313798
O239	O	-0.194478	-0.360199	0.019535
O240	O	0.138856	-0.026866	0.352869
O241	O	-0.527788	-0.817366	-0.190223
O242	O	-0.194455	-0.484033	0.143110
O243	O	0.138879	-0.150700	0.476444
C244	C	-0.739733	-0.788984	-0.218649
C245	C	-0.406400	-0.455650	0.114685
C246	C	-0.073066	-0.122317	0.448018
C247	C	-0.763205	-0.755535	-0.252053
C248	C	-0.429872	-0.422201	0.081281
C249	C	-0.096538	-0.088868	0.414614
C250	C	-0.739762	-0.722067	-0.285450
C251	C	-0.406428	-0.388733	0.047884
C252	C	-0.073095	-0.055400	0.381217
C253	C	-0.810123	-0.755549	-0.252057
C254	C	-0.476789	-0.422216	0.081277
C255	C	-0.143456	-0.088882	0.414610
C256	C	-0.833566	-0.789017	-0.218659
C257	C	-0.500233	-0.455684	0.114674
C258	C	-0.166899	-0.122350	0.448007
C259	C	-0.810092	-0.822470	-0.185258
C260	C	-0.476758	-0.489137	0.148075
C261	C	-0.143425	-0.155803	0.481408
C262	C	-0.763176	-0.822451	-0.185251
C263	C	-0.429843	-0.489118	0.148082
C264	C	-0.096510	-0.155785	0.481415
C265	C	-0.763236	-0.688614	-0.318851
C266	C	-0.429903	-0.355280	0.014482
C267	C	-0.096569	-0.021947	0.347816
C268	C	-0.810151	-0.688635	-0.318855
C269	C	-0.476818	-0.355301	0.014479
C270	C	-0.143485	-0.021968	0.347812
C271	C	-0.833595	-0.722102	-0.285457
C272	C	-0.500262	-0.388769	0.047876
C273	C	-0.166928	-0.055436	0.381209
C274	C	-0.099344	-0.755577	-0.252061
C275	C	0.233989	-0.422244	0.081272
C276	C	0.567322	-0.088911	0.414605
C277	C	-0.049410	-0.755624	-0.252077
C278	C	0.283923	-0.422290	0.081256
C279	C	0.617257	-0.088957	0.414589
C280	C	-0.216515	-0.755485	-0.388397
C281	C	0.116818	-0.422152	-0.055064
C282	C	0.450152	-0.088819	0.278270
C283	C	-0.216512	-0.755492	-0.446511
C284	C	0.116822	-0.422159	-0.113178
C285	C	0.450155	-0.088826	0.220156
C286	C	-0.216542	0.108159	-0.252055
C287	C	0.116791	0.441492	0.081278
C288	C	0.450125	0.774825	0.414612
C289	C	-0.216548	0.050045	-0.252049
C290	C	0.116786	0.383378	0.081284
C291	C	0.450119	0.716711	0.414617
C292	C	-0.187698	-0.789002	-0.806899
C293	C	0.145636	-0.455669	-0.473565
C294	C	0.478969	-0.122335	-0.140232
C295	C	-0.187685	-0.789008	-0.861503
C296	C	0.145648	-0.455675	-0.528170
C297	C	0.478982	-0.122342	-0.194836
O298	O	-0.163239	-0.817457	-0.889760
O299	O	0.170094	-0.484124	-0.556427
O300	O	0.503427	-0.150790	-0.223094
N301	N	-0.216406	-0.755550	-0.888794
N302	N	0.116927	-0.422217	-0.555460
N303	N	0.450260	-0.088883	-0.222127
C304	C	-0.245139	-0.722079	-0.861477
C305	C	0.088195	-0.388746	-0.528144
C306	C	0.421528	-0.055413	-0.194811
O307	O	-0.269567	-0.693621	-0.889704
O308	O	0.063767	-0.360287	-0.556371
O309	O	0.397100	-0.026954	-0.223038
C310	C	-0.245148	-0.722071	-0.806874
C311	C	0.088185	-0.388737	-0.473541
C312	C	0.421518	-0.055404	-0.140207
C313	C	-0.216429	-0.755535	-0.779586
C314	C	0.116905	-0.422202	-0.446253
C315	C	0.450238	-0.088868	-0.112919
C316	C	-0.158980	-0.822463	-0.779610
C317	C	0.174354	-0.489130	-0.446277
C318	C	0.507687	-0.155796	-0.112944
C319	C	-0.158993	-0.822457	-0.725010
C320	C	0.174340	-0.489124	-0.391677
C321	C	0.507674	-0.155790	-0.058343
C322	C	-0.187724	-0.788990	-0.697697
C323	C	0.145609	-0.455657	-0.364364
C324	C	0.478943	-0.122323	-0.031031
C325	C	-0.216442	-0.755529	-0.724985
C326	C	0.116892	-0.422196	-0.391652
C327	C	0.450225	-0.088862	-0.058319
C328	C	-0.273878	-0.688598	-0.779559
C329	C	0.059455	-0.355264	-0.446225
C330	C	0.392789	-0.021931	-0.112892
C331	C	-0.273885	-0.688592	-0.724952
C332	C	0.059448	-0.355258	-0.391618
C333	C	0.392782	-0.021925	-0.058285
C334	C	-0.245165	-0.722056	-0.697664
C335	C	0.088168	-0.388722	-0.364330
C336	C	0.421501	-0.055389	-0.030997
C337	C	-0.245186	-0.722056	-0.643072
C338	C	0.088148	-0.388723	-0.309739
C339	C	0.421481	-0.055389	0.023594
N340	N	-0.216465	-0.755514	-0.615782
N341	N	0.116869	-0.422181	-0.282448
N342	N	0.450202	-0.088848	0.050885
C343	C	-0.187734	-0.788981	-0.643094
C344	C	0.145600	-0.455648	-0.309761
C345	C	0.478933	-0.122315	0.023573
C346	C	-0.245115	-0.722100	-0.976148
C347	C	0.088218	-0.388766	-0.642815
C348	C	0.421551	-0.055433	-0.309481
C349	C	-0.245108	-0.722110	-1.030750
C350	C	0.088225	-0.388777	-0.697417
C351	C	0.421559	-0.055444	-0.364084
C352	C	-0.187654	-0.789039	-1.030772
C353	C	0.145679	-0.455706	-0.697439
C354	C	0.479013	-0.122372	-0.364105
C355	C	-0.187664	-0.789030	-0.976169
C356	C	0.145670	-0.455697	-0.642835
C357	C	0.479003	-0.122364	-0.309502
C358	C	-0.216394	-0.755558	-0.948857
C359	C	0.116939	-0.422224	-0.615524
C360	C	0.450273	-0.088891	-0.282191
C361	C	-0.187764	-0.788967	-0.528429
C362	C	0.145570	-0.455633	-0.195096
C363	C	0.478903	-0.122300	0.138238
C364	C	-0.187781	-0.788959	-0.473824
C365	C	0.145553	-0.455626	-0.140490
C366	C	0.478886	-0.122293	0.192843
C367	C	-0.245233	-0.722029	-0.473807
C368	C	0.088100	-0.388696	-0.140473
C369	C	0.421434	-0.055363	0.192860
C370	C	-0.245218	-0.722038	-0.528407
C371	C	0.088116	-0.388705	-0.195074
C372	C	0.421449	-0.055372	0.138259
C373	C	-0.216480	-0.755509	-0.555717
C374	C	0.116854	-0.422175	-0.222384
C375	C	0.450187	-0.088842	0.110950
O376	O	-0.269618	-0.693620	-0.614780
O377	O	0.063716	-0.360287	-0.281447
O378	O	0.397049	-0.026954	0.051886
O379	O	-0.163305	-0.817430	-0.614860
O380	O	0.170028	-0.484097	-0.281527
O381	O	0.503361	-0.150764	0.051806
C382	C	-0.216498	-0.755482	-0.116181
C383	C	0.116835	-0.422148	0.217152
C384	C	0.450168	-0.088815	0.550485
C385	C	-0.216375	-0.755576	-0.058068
C386	C	0.116958	-0.422242	0.275266
C387	C	0.450292	-0.088909	0.608599
H388	H	-0.164326	-0.054083	-0.191485
H389	H	0.169008	0.279250	0.141848
H390	H	0.502341	0.612583	0.475182
H391	H	-0.268499	-0.694866	-1.052964
H392	H	0.064834	-0.361533	-0.719630
H393	H	0.398167	-0.028200	-0.386297
Cl394	Cl	-0.151674	-0.831033	-0.439522
Cl395	Cl	0.181660	-0.497699	-0.106189
Cl396	Cl	0.514993	-0.164366	0.227145
Cl397	Cl	-0.281348	-0.679957	-0.439461
Cl398	Cl	0.051985	-0.346624	-0.106127
Cl399	Cl	0.385318	-0.013290	0.227206
Cl400	Cl	-0.151533	-0.831111	-1.065118
Cl401	Cl	0.181800	-0.497778	-0.731785
Cl402	Cl	0.515133	-0.164444	-0.398451
Cl403	Cl	-0.281241	-0.680020	-0.941819
Cl404	Cl	0.052093	-0.346686	-0.608486
Cl405	Cl	0.385426	-0.013353	-0.275152
H406	H	-0.829187	-0.849719	-0.158064
H407	H	-0.495854	-0.516386	0.175270
H408	H	-0.162521	-0.183052	0.508603
Cl409	Cl	-0.151558	-0.568538	-0.176645
Cl410	Cl	0.181775	-0.235205	0.156688
Cl411	Cl	0.515109	0.098128	0.490021
H412	H	-0.472686	-0.694712	-0.312618
H413	H	-0.139352	-0.361378	0.020715
H414	H	0.193981	-0.028045	0.354048
H415	H	-0.297265	-0.661347	-0.801767
H416	H	0.036069	-0.328014	-0.468434
H417	H	0.369402	0.005319	-0.135101
Cl418	Cl	-1.055416	-0.831152	-0.176688
Cl419	Cl	-0.722083	-0.497819	0.156646
Cl420	Cl	-0.388749	-0.164485	0.489979
Cl421	Cl	-0.839653	-0.646576	-0.360856
Cl422	Cl	-0.506320	-0.313243	-0.027523
Cl423	Cl	-0.172987	0.020091	0.305811
H424	H	-0.164277	-0.816279	-0.953954
H425	H	0.169057	-0.482946	-0.620621
H426	H	0.502390	-0.149612	-0.287288
H427	H	-0.268716	-0.457378	-0.312552
H428	H	0.064617	-0.124044	0.020782
H429	H	0.397951	0.209289	0.354115
H430	H	-0.268750	0.044978	-0.312599
H431	H	0.064583	0.378311	0.020735
H432	H	0.397917	0.711644	0.354068
H433	H	-0.688503	-0.661337	-0.346051
H434	H	-0.355170	-0.328004	-0.012717
H435	H	-0.021836	0.005329	0.320616
Cl436	Cl	-0.310233	-0.317329	-0.360740
Cl437	Cl	0.023100	0.016004	-0.027406
Cl438	Cl	0.356434	0.349338	0.305927
Cl439	Cl	-0.733772	-0.646535	-0.360840
Cl440	Cl	-0.400438	-0.313202	-0.027507
Cl441	Cl	-0.067105	0.020131	0.305826
Cl442	Cl	-0.733676	-0.864510	-0.143254
Cl443	Cl	-0.400342	-0.531176	0.190079
Cl444	Cl	-0.067009	-0.197843	0.523413
Cl445	Cl	-0.151600	0.057058	-0.176708
Cl446	Cl	0.181733	0.390391	0.156625
Cl447	Cl	0.515066	0.723724	0.489959
Cl448	Cl	-0.151633	-0.831042	-0.562753
Cl449	Cl	0.181700	-0.497709	-0.229419
Cl450	Cl	0.515034	-0.164376	0.103914
Cl451	Cl	-0.949585	-0.680063	-0.327466
Cl452	Cl	-0.616251	-0.346729	0.005868
Cl453	Cl	-0.282918	-0.013396	0.339201
Cl454	Cl	-0.310005	-0.646509	-0.690621
Cl455	Cl	0.023328	-0.313175	-0.357287
Cl456	Cl	0.356662	0.020158	-0.023954
Cl457	Cl	-0.122883	-0.864525	-0.690713
Cl458	Cl	0.210451	-0.531192	-0.357380
Cl459	Cl	0.543784	-0.197858	-0.024046
H460	H	-0.297490	-0.206191	-0.345968
H461	H	0.035843	0.127142	-0.012635
H462	H	0.369177	0.460475	0.320698
H463	H	-0.268716	-0.556427	-0.312532
H464	H	0.064617	-0.223094	0.020802
H465	H	0.397951	0.110240	0.354135
Cl466	Cl	-0.281489	-0.066181	-0.327372
Cl467	Cl	0.051844	0.267152	0.005962
Cl468	Cl	0.385177	0.600485	0.339295
H469	H	-0.135538	-0.305257	-0.158083
H470	H	0.197796	0.028076	0.175250
H471	H	0.531129	0.361410	0.508584
Cl472	Cl	-0.377118	-0.830906	-0.176607
Cl473	Cl	-0.043785	-0.497572	0.156727
Cl474	Cl	0.289548	-0.164239	0.490060
Cl475	Cl	-0.483004	-0.830956	-0.176622
Cl476	Cl	-0.149671	-0.497623	0.156712
Cl477	Cl	0.183662	-0.164289	0.490045
H478	H	-0.603322	-0.849637	-0.158030
H479	H	-0.269988	-0.516303	0.175303
H480	H	0.063345	-0.182970	0.508637
H481	H	-0.135547	-0.206211	-0.158089
H482	H	0.197786	0.127122	0.175244
H483	H	0.531119	0.460455	0.508577
Cl484	Cl	-0.698809	-0.864494	-0.143247
Cl485	Cl	-0.365475	-0.531161	0.190086
Cl486	Cl	-0.032142	-0.197828	0.523420
H487	H	-0.268608	-0.694794	-0.550626
H488	H	0.064725	-0.361461	-0.217293
H489	H	0.398059	-0.028127	0.116040
H490	H	-0.135581	-0.849716	-0.801843
H491	H	0.197752	-0.516383	-0.468509
H492	H	0.531086	-0.183049	-0.135176
H493	H	-0.164304	-0.457379	-0.191437
H494	H	0.169029	-0.124046	0.141896
H495	H	0.502363	0.209287	0.475230
H496	H	-0.959909	-0.816301	-0.191464
H497	H	-0.626575	-0.482968	0.141869
H498	H	-0.293242	-0.149634	0.475202
Cl499	Cl	-1.055469	-0.680095	-0.327468
Cl500	Cl	-0.722135	-0.346761	0.005866
Cl501	Cl	-0.388802	-0.013428	0.339199
Cl502	Cl	-0.593012	-0.646494	-0.360838
Cl503	Cl	-0.259678	-0.313160	-0.027505
Cl504	Cl	0.073655	0.020173	0.305828
Cl505	Cl	-0.377178	-0.679859	-0.327396
Cl506	Cl	-0.043845	-0.346526	0.005937
Cl507	Cl	0.289489	-0.013193	0.339271
