data_functionalizedCrystal
_audit_creation_method	'MofGen! by Chris Wilmer'
_symmetry_space_group_name_H-M	'P1'
_symmetry_Int_Tables_number	1
_symmetry_cell_setting	triclinic
loop_
_symmetry_equiv_pos_as_xyz
  x,y,z
_cell_length_a	14.908783
_cell_length_b	18.050590
_cell_length_c	14.908308
_cell_angle_alpha	86.735264
_cell_angle_beta	90.211273
_cell_angle_gamma	93.309344
loop_
_atom_site_label
_atom_site_type_symbol
_atom_site_fract_x
_atom_site_fract_y
_atom_site_fract_z
Zn1	Zn	1.345325	-0.259750	0.587820
Zn2	Zn	1.678659	0.073584	0.921154
Zn3	Zn	2.011992	0.406917	1.254487
Zn4	Zn	1.353911	-0.376401	0.437456
Zn5	Zn	1.687244	-0.043067	0.770790
Zn6	Zn	2.020578	0.290266	1.104123
Zn7	Zn	1.203639	-0.258946	0.428792
Zn8	Zn	1.536972	0.074387	0.762125
Zn9	Zn	1.870305	0.407721	1.095458
Zn10	Zn	1.194937	-0.390621	0.579078
Zn11	Zn	1.528270	-0.057288	0.912411
Zn12	Zn	1.861604	0.276045	1.245744
O13	O	1.274453	-0.321430	0.508287
O14	O	1.607786	0.011904	0.841620
O15	O	1.941120	0.345237	1.174953
O16	O	1.472292	-0.269609	0.575159
O17	O	1.805625	0.063725	0.908493
O18	O	2.138958	0.397058	1.241826
O19	O	1.341212	-0.354532	0.310484
O20	O	1.674545	-0.021199	0.643817
O21	O	2.007878	0.312134	0.977151
O22	O	1.222482	-0.155127	0.449920
O23	O	1.555816	0.178206	0.783253
O24	O	1.889149	0.511539	1.116587
O25	O	1.478600	-0.355312	0.464688
O26	O	1.811933	-0.021978	0.798021
O27	O	2.145266	0.311355	1.131354
O28	O	1.326579	-0.155718	0.566758
O29	O	1.659912	0.177615	0.900091
O30	O	1.993246	0.510949	1.233424
O31	O	1.230807	-0.268239	0.304118
O32	O	1.564141	0.065094	0.637451
O33	O	1.897474	0.398428	0.970785
O34	O	1.076657	-0.282028	0.441442
O35	O	1.409990	0.051305	0.774776
O36	O	1.743324	0.384638	1.108109
O37	O	1.207652	-0.379549	0.706060
O38	O	1.540985	-0.046215	1.039394
O39	O	1.874318	0.287118	1.372727
O40	O	1.070264	-0.378770	0.551857
O41	O	1.403597	-0.045436	0.885190
O42	O	1.736930	0.287897	1.218523
O43	O	1.318141	-0.283398	0.712484
O44	O	1.651475	0.049935	1.045817
O45	O	1.984808	0.383269	1.379150
O46	O	1.332774	-0.482212	0.456210
O47	O	1.666107	-0.148879	0.789543
O48	O	1.999441	0.184454	1.122877
O49	O	1.215977	-0.492660	0.560258
O50	O	1.549310	-0.159327	0.893592
O51	O	1.882643	0.174006	1.226925
C52	C	1.040835	-0.331855	0.494761
C53	C	1.374168	0.001478	0.828094
C54	C	1.707501	0.334811	1.161428
C55	C	0.940890	-0.336335	0.488996
C56	C	1.274224	-0.003001	0.822330
C57	C	1.607557	0.330332	1.155663
C58	C	0.746504	-0.255648	0.593373
C59	C	1.079838	0.077686	0.926707
C60	C	1.413171	0.411019	1.260040
C61	C	0.652598	-0.259854	0.587960
C62	C	0.985931	0.073479	0.921293
C63	C	1.319264	0.406813	1.254626
C64	C	0.659169	-0.348949	0.472751
C65	C	0.992502	-0.015615	0.806085
C66	C	1.325836	0.317718	1.139418
C67	C	0.753076	-0.344742	0.478165
C68	C	1.086409	-0.011409	0.811498
C69	C	1.419742	0.321924	1.144832
C70	C	0.796740	-0.298091	0.538479
C71	C	1.130073	0.035242	0.871812
C72	C	1.463407	0.368575	1.205146
C73	C	0.890648	-0.293890	0.543897
C74	C	1.223981	0.039444	0.877230
C75	C	1.557315	0.372777	1.210563
C76	C	0.897218	-0.382980	0.428684
C77	C	1.230551	-0.049646	0.762018
C78	C	1.563884	0.283687	1.095351
C79	C	0.803311	-0.387186	0.423271
C80	C	1.136644	-0.053853	0.756604
C81	C	1.469978	0.279481	1.089937
C82	C	1.274386	-0.514383	0.508247
C83	C	1.607719	-0.181050	0.841580
C84	C	1.941053	0.152284	1.174913
C85	C	1.274438	-0.596927	0.508264
C86	C	1.607771	-0.263594	0.841598
C87	C	1.941104	0.069740	1.174931
C88	C	1.338072	-0.790668	0.451774
C89	C	1.671406	-0.457334	0.785107
C90	C	2.004739	-0.124001	1.118441
C91	C	1.355299	-0.843138	0.535104
C92	C	1.688633	-0.509805	0.868438
C93	C	2.021966	-0.176471	1.201771
C94	C	1.274487	-0.748057	0.508303
C95	C	1.607820	-0.414724	0.841637
C96	C	1.941153	-0.081390	1.174970
C97	C	1.257349	-0.842666	0.425015
C98	C	1.590682	-0.509333	0.758348
C99	C	1.924016	-0.175999	1.091682
C100	C	1.274536	-0.894041	0.508334
C101	C	1.607869	-0.560708	0.841667
C102	C	1.941203	-0.227374	1.175000
C103	C	1.291753	-0.799440	0.591679
C104	C	1.625087	-0.466107	0.925013
C105	C	1.958420	-0.132774	1.258346
C106	C	1.193768	-0.798963	0.481532
C107	C	1.527102	-0.465630	0.814866
C108	C	1.860435	-0.132296	1.148199
C109	C	1.210961	-0.851415	0.564918
C110	C	1.544294	-0.518082	0.898251
C111	C	1.877627	-0.184748	1.231584
C112	C	1.274461	-0.663959	0.508285
C113	C	1.607794	-0.330626	0.841618
C114	C	1.941127	0.002708	1.174951
C115	C	1.274562	-0.978138	0.508361
C116	C	1.607895	-0.644804	0.841695
C117	C	1.941228	-0.311471	1.175028
C118	C	1.508984	-0.310964	0.521865
C119	C	1.842317	0.022370	0.855199
C120	C	2.175650	0.355703	1.188532
C121	C	1.608927	-0.306504	0.527652
C122	C	1.942260	0.026830	0.860985
C123	C	2.275593	0.360163	1.194318
C124	C	1.260968	-0.333149	0.742809
C125	C	1.594301	0.000184	1.076142
C126	C	1.927635	0.333517	1.409475
C127	C	1.255222	-0.338144	0.842748
C128	C	1.588555	-0.004810	1.176081
C129	C	1.921888	0.328523	1.509415
C130	C	1.274544	-0.127723	0.508348
C131	C	1.607877	0.205611	0.841681
C132	C	1.941210	0.538944	1.175014
C133	C	1.274582	-0.045176	0.508374
C134	C	1.607916	0.288157	0.841707
C135	C	1.941249	0.621491	1.175040
C136	C	1.287937	-0.309699	0.274680
C137	C	1.621270	0.023634	0.608013
C138	C	1.954604	0.356967	0.941346
C139	C	1.293858	-0.304488	0.174751
C140	C	1.627191	0.028845	0.508084
C141	C	1.960524	0.362179	0.841418
C142	C	1.359474	-0.247389	1.037235
C143	C	1.692807	0.085944	1.370568
C144	C	2.026141	0.419277	1.703902
C145	C	1.354077	-0.252079	1.131137
C146	C	1.687411	0.081254	1.464470
C147	C	2.020744	0.414587	1.797804
C148	C	1.239028	-0.352209	1.124456
C149	C	1.572362	-0.018876	1.457789
C150	C	1.905695	0.314457	1.791123
C151	C	1.244425	-0.347519	1.030554
C152	C	1.577758	-0.014186	1.363887
C153	C	1.911092	0.319147	1.697220
C154	C	1.304651	-0.295108	0.986947
C155	C	1.637984	0.038225	1.320280
C156	C	1.971317	0.371558	1.653613
C157	C	1.310051	-0.290423	0.893043
C158	C	1.643384	0.042911	1.226377
C159	C	1.976718	0.376244	1.559710
C160	C	1.194998	-0.390548	0.886363
C161	C	1.528331	-0.057215	1.219697
C162	C	1.861665	0.276118	1.553030
C163	C	1.189602	-0.395238	0.980266
C164	C	1.522935	-0.061905	1.313599
C165	C	1.856268	0.271428	1.646932
H166	H	0.767747	-0.425165	0.374162
H167	H	1.101080	-0.091832	0.707495
H168	H	1.434413	0.241501	1.040829
F169	F	1.412427	-0.201289	1.184654
F170	F	1.745760	0.132044	1.517988
F171	F	2.079094	0.465377	1.851321
F172	F	0.950688	-0.428159	0.370263
F173	F	1.284022	-0.094825	0.703596
F174	F	1.617355	0.238508	1.036929
F175	F	0.937117	-0.244242	0.608089
F176	F	1.270451	0.089091	0.941423
F177	F	1.603784	0.422425	1.274756
F178	F	1.423578	-0.191618	0.990824
F179	F	1.756911	0.141716	1.324157
F180	F	2.090245	0.475049	1.657490
H181	H	0.782056	-0.217666	0.642487
H182	H	1.115390	0.115667	0.975821
H183	H	1.448723	0.449001	1.309154
F184	F	1.104542	-0.773466	0.451885
F185	F	1.437875	-0.440132	0.785218
F186	F	1.771209	-0.106799	1.118552
F187	F	1.238375	-0.867618	0.332935
F188	F	1.571708	-0.534285	0.666268
F189	F	1.905042	-0.200952	0.999601
F190	F	0.599136	-0.214678	0.646384
F191	F	0.932470	0.118655	0.979718
F192	F	1.265803	0.451989	1.313051
F193	F	1.174931	-0.407979	1.170880
F194	F	1.508265	-0.074646	1.504214
F195	F	1.841598	0.258687	1.837547
H196	H	1.150359	-0.429407	0.845409
H197	H	1.483692	-0.096073	1.178742
H198	H	1.817026	0.237260	1.512075
F199	F	1.140700	-0.885864	0.627493
F200	F	1.474033	-0.552530	0.960827
F201	F	1.807366	-0.219197	1.294160
F202	F	1.125507	-0.451013	1.026685
F203	F	1.458840	-0.117680	1.360018
F204	F	1.792174	0.215653	1.693352
H205	H	0.623602	-0.386921	0.423637
H206	H	0.956935	-0.053587	0.756970
H207	H	1.290268	0.279746	1.090303
H208	H	1.391859	-0.764182	0.404022
H209	H	1.725192	-0.430848	0.737356
H210	H	2.058525	-0.097515	1.070689
H211	H	1.423582	-0.862630	0.557766
H212	H	1.756915	-0.529296	0.891099
H213	H	2.090249	-0.195963	1.224433
H214	H	1.306197	-0.780449	0.662184
H215	H	1.639530	-0.447116	0.995517
H216	H	1.972864	-0.113782	1.328850
H217	H	1.359091	-0.247748	0.857540
H218	H	1.692424	0.085585	1.190873
H219	H	2.025758	0.418919	1.524207
