data_functionalizedCrystal
_audit_creation_method	'MofGen! by Chris Wilmer'
_symmetry_space_group_name_H-M	'P1'
_symmetry_Int_Tables_number	1
_symmetry_cell_setting	triclinic
loop_
_symmetry_equiv_pos_as_xyz
  x,y,z
_cell_length_a	17.077404
_cell_length_b	18.215405
_cell_length_c	18.215399
_cell_angle_alpha	90.029950
_cell_angle_beta	90.015445
_cell_angle_gamma	90.020702
loop_
_atom_site_label
_atom_site_type_symbol
_atom_site_fract_x
_atom_site_fract_y
_atom_site_fract_z
Zn1	Zn	1.200033	-0.293014	0.416091
Zn2	Zn	1.700033	0.206986	0.916091
Zn3	Zn	1.199947	-0.416091	0.293025
Zn4	Zn	1.699947	0.083909	0.793025
Zn5	Zn	1.068771	-0.293038	0.293041
Zn6	Zn	1.568771	0.206962	0.793041
Zn7	Zn	1.068733	-0.416039	0.416053
Zn8	Zn	1.568733	0.083961	0.916053
O9	O	1.134371	-0.354546	0.354553
O10	O	1.634371	0.145454	0.854553
O11	O	1.309868	-0.309352	0.399775
O12	O	1.809868	0.190648	0.899775
O13	O	1.182526	-0.399799	0.190043
O14	O	1.682526	0.100201	0.690043
O15	O	1.086235	-0.190051	0.309386
O16	O	1.586235	0.309949	0.809386
O17	O	1.309805	-0.399776	0.309359
O18	O	1.809805	0.100224	0.809359
O19	O	1.182673	-0.190033	0.399790
O20	O	1.682673	0.309967	0.899790
O21	O	1.086152	-0.309393	0.190055
O22	O	1.586152	0.190607	0.690055
O23	O	0.958919	-0.309343	0.309350
O24	O	1.458919	0.190657	0.809350
O25	O	1.086170	-0.399688	0.519043
O26	O	1.586170	0.100312	1.019043
O27	O	0.958891	-0.399711	0.399726
O28	O	1.458891	0.100289	0.899726
O29	O	1.182636	-0.309302	0.519070
O30	O	1.682636	0.190698	1.019070
O31	O	1.182489	-0.519068	0.309323
O32	O	1.682489	-0.019068	0.809323
O33	O	1.086087	-0.519030	0.399711
O34	O	1.586087	-0.019030	0.899711
C35	C	0.930423	-0.354525	0.354536
C36	C	1.430423	0.145475	0.854536
C37	C	0.843173	-0.354533	0.354547
C38	C	1.343173	0.145467	0.854547
C39	C	0.802217	-0.307534	0.401698
C40	C	1.302217	0.192466	0.901698
C41	C	0.720236	-0.307538	0.401701
C42	C	1.220236	0.192462	0.901701
C43	C	0.679214	-0.354547	0.354557
C44	C	1.179214	0.145453	0.854557
C45	C	0.720176	-0.401549	0.307400
C46	C	1.220176	0.098451	0.807400
C47	C	0.802155	-0.401540	0.307394
C48	C	1.302155	0.098460	0.807394
C49	C	0.549306	-0.401566	0.307418
C50	C	1.049306	0.098434	0.807418
C51	C	0.467322	-0.401576	0.307426
C52	C	0.967322	0.098424	0.807426
C53	C	0.467387	-0.307564	0.401726
C54	C	0.967387	0.192436	0.901726
C55	C	0.549366	-0.307555	0.401720
C56	C	1.049366	0.192445	0.901720
C57	C	0.590323	-0.354558	0.354564
C58	C	1.090323	0.145442	0.854564
C59	C	1.134296	-0.545752	0.354527
C60	C	1.634296	-0.045752	0.854527
C61	C	1.134335	-0.627551	0.354541
C62	C	1.634335	-0.127551	0.854541
C63	C	1.184574	-0.815674	0.401678
C64	C	1.684574	-0.315674	0.901678
C65	C	1.184603	-0.892533	0.401692
C66	C	1.684603	-0.392533	0.901692
C67	C	1.084265	-0.892665	0.307473
C68	C	1.584265	-0.392665	0.807473
C69	C	1.084233	-0.815807	0.307463
C70	C	1.584233	-0.315807	0.807463
C71	C	1.134392	-0.777314	0.354565
C72	C	1.634392	-0.277314	0.854565
C73	C	1.134453	-0.931030	0.354588
C74	C	1.634453	-0.431030	0.854588
C75	C	1.134483	-1.014364	0.354603
C76	C	1.634483	-0.514364	0.854603
C77	C	1.134361	-0.693975	0.354551
C78	C	1.634361	-0.193975	0.854551
C79	C	1.339115	-0.354567	0.354570
C80	C	1.839115	0.145433	0.854570
C81	C	1.426365	-0.354576	0.354577
C82	C	1.926365	0.145424	0.854577
C83	C	1.134408	-0.354487	0.546506
C84	C	1.634408	0.145513	1.046506
C85	C	1.134424	-0.354462	0.628305
C86	C	1.634424	0.145538	1.128305
C87	C	1.134468	-0.162593	0.354594
C88	C	1.634468	0.337407	0.854594
C89	C	1.134509	-0.080794	0.354612
C90	C	1.634509	0.419206	0.854612
C91	C	1.134379	-0.354551	0.163346
C92	C	1.634379	0.145449	0.663346
C93	C	1.134516	-0.354369	0.081548
C94	C	1.634516	0.145631	0.581548
C95	C	1.084284	-0.307355	0.816506
C96	C	1.584284	0.192645	1.316506
C97	C	1.084298	-0.307341	0.893364
C98	C	1.584298	0.192659	1.393364
C99	C	1.184657	-0.401480	0.893342
C100	C	1.684657	0.098520	1.393342
C101	C	1.184639	-0.401498	0.816484
C102	C	1.684639	0.098502	1.316484
C103	C	1.134454	-0.354432	0.778068
C104	C	1.634454	0.145568	1.278068
C105	C	1.134486	-0.354399	0.931784
C106	C	1.634486	0.145601	1.431784
C107	C	1.134501	-0.354383	1.015118
C108	C	1.634501	0.145617	1.515118
C109	C	1.134437	-0.354448	0.694729
C110	C	1.634437	0.145552	1.194729
H111	H	0.582651	-0.439839	0.269017
H112	H	1.082651	0.060161	0.769017
H113	H	1.043365	-0.784572	0.269098
H114	H	1.543365	-0.284572	0.769098
O115	O	0.680415	-0.447317	0.261640
O116	O	1.180415	0.052683	0.761640
C117	C	0.655250	-0.572462	0.225730
C118	C	1.155250	-0.072462	0.725730
C119	C	0.700340	-0.520709	0.277585
C120	C	1.200340	-0.020709	0.777585
H121	H	0.671331	-0.631811	0.238614
H122	H	1.171331	-0.131811	0.738614
H123	H	0.671362	-0.559524	0.166397
H124	H	1.171362	-0.059524	0.666397
H125	H	0.589626	-0.564359	0.233824
H126	H	1.089626	-0.064359	0.733824
H127	H	0.765974	-0.528783	0.269557
H128	H	1.265974	-0.028783	0.769557
H129	H	0.684164	-0.533660	0.336899
H130	H	1.184164	-0.033660	0.836899
O131	O	1.233375	-0.778250	0.447332
O132	O	1.733375	-0.278250	0.947332
C133	C	1.339283	-0.691365	0.457328
C134	C	1.839283	-0.191365	0.957328
C135	C	1.284079	-0.733711	0.405537
C136	C	1.784079	-0.233711	0.905537
H137	H	1.380280	-0.655333	0.423559
H138	H	1.880280	-0.155333	0.923559
H139	H	1.375208	-0.731956	0.490991
H140	H	1.875208	-0.231956	0.990991
H141	H	1.303183	-0.655416	0.495786
H142	H	1.803183	-0.155416	0.995786
H143	H	1.320118	-0.769661	0.367034
H144	H	1.820118	-0.269661	0.867034
H145	H	1.248150	-0.693080	0.371926
H146	H	1.748150	-0.193080	0.871926
O147	O	1.233265	-0.447309	0.779109
O148	O	1.733265	0.052691	1.279109
C149	C	1.243753	-0.546658	0.692270
C150	C	1.743753	-0.046658	1.192270
C151	C	1.188601	-0.494836	0.734565
C152	C	1.688601	0.005164	1.234565
H153	H	1.207665	-0.585086	0.656234
H154	H	1.707665	-0.085086	1.156234
H155	H	1.279615	-0.580345	0.732894
H156	H	1.779615	-0.080345	1.232894
H157	H	1.284819	-0.512866	0.656330
H158	H	1.784819	-0.012866	1.156330
H159	H	1.147488	-0.528571	0.770506
H160	H	1.647488	-0.028571	1.270506
H161	H	1.152794	-0.461147	0.693900
H162	H	1.652794	0.038853	1.193900
H163	H	1.043420	-0.269031	0.785230
H164	H	1.543420	0.230969	1.285230
H165	H	1.225517	-0.439800	0.924629
H166	H	1.725517	0.060200	1.424629
H167	H	1.043444	-0.269007	0.924657
H168	H	1.543444	0.230993	1.424657
H169	H	0.835501	-0.439812	0.268998
H170	H	1.335501	0.060188	0.768998
H171	H	1.043429	-0.924015	0.269123
H172	H	1.543429	-0.424015	0.769123
H173	H	0.835611	-0.269255	0.440091
H174	H	1.335611	0.230745	0.940091
H175	H	0.686893	-0.269268	0.440098
H176	H	1.186893	0.230732	0.940098
O177	O	0.427554	-0.447338	0.261664
O178	O	0.927554	0.052662	0.761664
C179	C	0.402372	-0.572475	0.225741
C180	C	0.902372	-0.072475	0.725741
C181	C	0.447473	-0.520734	0.277599
C182	C	0.947473	-0.020734	0.777599
H183	H	0.418447	-0.631828	0.238615
H184	H	0.918447	-0.131828	0.738615
H185	H	0.418479	-0.559532	0.166408
H186	H	0.918479	-0.059532	0.666408
H187	H	0.336750	-0.564367	0.233841
H188	H	0.836750	-0.064367	0.733841
H189	H	0.513105	-0.528813	0.269563
H190	H	1.013105	-0.028813	0.769563
H191	H	0.431301	-0.533690	0.336912
H192	H	0.931301	-0.033690	0.836912
H193	H	0.582765	-0.269280	0.440113
H194	H	1.082765	0.230720	0.940113
H195	H	1.225464	-0.923763	0.440058
H196	H	1.725464	-0.423763	0.940058
O197	O	0.427485	-0.261927	0.447464
O198	O	0.927485	0.238073	0.947464
C199	C	0.301221	-0.220308	0.489305
C200	C	0.801221	0.279692	0.989305
C201	C	0.346316	-0.272009	0.437455
C202	C	0.846316	0.227991	0.937455
H203	H	0.235588	-0.228452	0.481241
H204	H	0.735588	0.271548	0.981241
H205	H	0.317293	-0.160931	0.476491
H206	H	0.817293	0.339069	0.976491
H207	H	0.317406	-0.233304	0.548612
H208	H	0.817406	0.266696	1.048612
H209	H	0.330155	-0.259080	0.378130
H210	H	0.830155	0.240920	0.878130
H211	H	0.330240	-0.331370	0.450332
H212	H	0.830240	0.168630	0.950332
