data_functionalizedCrystal
_audit_creation_method	'MofGen! by Chris Wilmer'
_symmetry_space_group_name_H-M	'P1'
_symmetry_Int_Tables_number	1
_symmetry_cell_setting	triclinic
loop_
_symmetry_equiv_pos_as_xyz
  x,y,z
_cell_length_a	12.837943
_cell_length_b	11.295483
_cell_length_c	12.811415
_cell_angle_alpha	88.701575
_cell_angle_beta	90.588083
_cell_angle_gamma	94.538773
loop_
_atom_site_label
_atom_site_type_symbol
_atom_site_fract_x
_atom_site_fract_y
_atom_site_fract_z
O1	O	-1.385593	-0.127591	0.264767
O2	O	-0.885593	0.372409	0.764767
O3	O	-1.083629	-0.126152	0.251375
O4	O	-0.583629	0.373848	0.751375
O5	O	-1.241059	-0.110562	0.107087
O6	O	-0.741059	0.389438	0.607087
O7	O	-1.228163	-0.143181	0.409054
O8	O	-0.728163	0.356819	0.909054
O9	O	-1.227232	0.086122	0.119738
O10	O	-0.727232	0.586122	0.619738
O11	O	-1.069801	0.070532	0.264026
O12	O	-0.569801	0.570532	0.764026
O13	O	-1.371766	0.069093	0.277418
O14	O	-0.871766	0.569093	0.777418
Cu15	Cu	-1.219521	0.087771	0.271877
Cu16	Cu	-0.719521	0.587771	0.771877
Cu17	Cu	-1.235874	-0.144830	0.256915
Cu18	Cu	-0.735874	0.355170	0.756915
O19	O	-1.214335	0.053502	0.421706
O20	O	-0.714335	0.553502	0.921706
C21	C	-1.038040	-0.027323	0.253176
C22	C	-0.538040	0.472677	0.753176
C23	C	-0.922802	-0.025868	0.239684
C24	C	-0.422802	0.474132	0.739684
C25	C	-1.232999	-0.008018	0.074494
C26	C	-0.732999	0.491982	0.574494
C27	C	-1.229571	0.004501	-0.041474
C28	C	-0.729571	0.504501	0.458526
C29	C	-1.417354	-0.029739	0.275616
C30	C	-0.917354	0.470261	0.775616
C31	C	-1.532593	-0.031202	0.289108
C32	C	-1.032593	0.468798	0.789108
N33	N	-1.208027	0.251370	0.282401
N34	N	-0.708027	0.751370	0.782401
C35	C	-0.683778	-0.043373	0.401888
C36	C	-0.183778	0.456627	0.901888
C37	C	-0.575502	-0.042006	0.389215
C38	C	-0.075502	0.457994	0.889215
C39	C	-0.597969	-0.021759	0.201668
C40	C	-0.097969	0.478241	0.701668
C41	C	-0.706246	-0.023126	0.214340
C42	C	-0.206246	0.476874	0.714340
C43	C	-0.749147	-0.033935	0.314453
C44	C	-0.249147	0.466065	0.814453
C45	C	-0.857426	-0.035310	0.327124
C46	C	-0.357426	0.464690	0.827124
C47	C	-0.879891	-0.015055	0.139578
C48	C	-0.379891	0.484945	0.639578
C49	C	-0.771614	-0.013688	0.126906
C50	C	-0.271614	0.486312	0.626906
N51	N	-1.247376	-0.308429	0.246384
N52	N	-0.747376	0.191571	0.746384
C53	C	-1.330117	0.512743	0.170573
C54	C	-0.830117	1.012743	0.670573
C55	C	-1.321438	0.636546	0.178534
C56	C	-0.821438	1.136546	0.678534
C57	C	-1.181986	0.622784	0.306277
C58	C	-0.681986	1.122784	0.806277
C59	C	-1.190665	0.498980	0.298316
C60	C	-0.690665	0.998980	0.798316
C61	C	-1.264734	0.443964	0.230463
C62	C	-0.764734	0.943964	0.730463
C63	C	-1.273417	0.320158	0.222508
C64	C	-0.773417	0.820158	0.722508
C65	C	-1.133960	0.306398	0.350245
C66	C	-0.633960	0.806398	0.850245
C67	C	-1.125281	0.430202	0.358206
C68	C	-0.625281	0.930202	0.858206
C69	C	-1.238186	-0.186422	-0.273174
C70	C	-0.738186	0.313578	0.226826
C71	C	-1.234966	-0.174665	-0.382136
C72	C	-0.734966	0.325335	0.117864
C73	C	-1.219901	0.039773	-0.368362
C74	C	-0.719901	0.539773	0.131638
C75	C	-1.223122	0.028015	-0.259400
C76	C	-0.723122	0.528015	0.240600
C77	C	-1.232266	-0.085086	-0.211810
C78	C	-0.732266	0.414914	0.288190
C79	C	-1.235494	-0.096843	-0.102846
C80	C	-0.735494	0.403157	0.397154
C81	C	-1.220422	0.117594	-0.089074
C82	C	-0.720422	0.617594	0.410926
C83	C	-1.217201	0.129351	-0.198036
C84	C	-0.717201	0.629351	0.301964
C85	C	-1.222395	-0.049044	0.454299
C86	C	-0.722395	0.450956	0.954299
C87	C	-1.225824	-0.061571	0.570266
C88	C	-0.725824	0.438429	1.070266
H89	H	-0.892353	-0.044110	0.408641
H90	H	-0.392353	0.455890	0.908641
H91	H	-1.121674	0.667595	0.361513
H92	H	-0.621674	1.167595	0.861513
H93	H	-1.064973	0.475010	0.413448
H94	H	-0.564973	0.975010	0.913448
H95	H	-1.239782	-0.257184	-0.432095
H96	H	-0.739782	0.242816	0.067905
H97	H	-1.215605	0.200110	-0.039100
H98	H	-0.715605	0.700110	0.460900
H99	H	-0.522282	-0.049689	0.460414
H100	H	-0.022282	0.450311	0.960414
H101	H	-0.718709	-0.052176	0.483403
H102	H	-0.218709	0.447824	0.983403
H103	H	-1.212447	0.131854	-0.407129
H104	H	-0.712447	0.631854	0.092871
H105	H	-1.080724	0.250384	0.399015
H106	H	-0.580724	0.750384	0.899015
H107	H	-1.209752	0.221435	-0.236799
H108	H	-0.709752	0.721435	0.263201
H109	H	-0.563013	-0.012862	0.120166
H110	H	-0.063013	0.487138	0.620166
H111	H	-1.374678	0.692543	0.129764
H112	H	-0.874678	1.192543	0.629764
H113	H	-1.242944	-0.188935	-0.064100
H114	H	-0.742944	0.311065	0.435900
H115	H	-0.933126	-0.007378	0.068382
H116	H	-0.433126	0.492622	0.568382
H117	H	-1.245641	-0.278514	-0.234425
H118	H	-0.745641	0.221486	0.265575
H119	H	-1.333730	0.275365	0.167262
H120	H	-0.833730	0.775365	0.667262
H121	H	-1.390434	0.467947	0.115332
H122	H	-0.890434	0.967947	0.615332
H123	H	-0.736668	-0.004874	0.045397
H124	H	-0.236668	0.495126	0.545397
