data_functionalizedCrystal
_audit_creation_method	'MofGen! by Chris Wilmer'
_symmetry_space_group_name_H-M	'P1'
_symmetry_Int_Tables_number	1
_symmetry_cell_setting	triclinic
loop_
_symmetry_equiv_pos_as_xyz
  x,y,z
_cell_length_a	21.395364
_cell_length_b	19.805405
_cell_length_c	21.395356
_cell_angle_alpha	89.970920
_cell_angle_beta	89.976411
_cell_angle_gamma	90.041362
loop_
_atom_site_label
_atom_site_type_symbol
_atom_site_fract_x
_atom_site_fract_y
_atom_site_fract_z
Zn1	Zn	0.957872	-0.269210	-0.354255
Zn2	Zn	1.457872	0.230790	0.145745
Zn3	Zn	0.957784	-0.382398	-0.249475
Zn4	Zn	1.457784	0.117602	0.250525
Zn5	Zn	0.853089	-0.269258	-0.249492
Zn6	Zn	1.353089	0.230742	0.250508
Zn7	Zn	0.853064	-0.382392	-0.354216
Zn8	Zn	1.353064	0.117608	0.145784
O9	O	0.905452	-0.325815	-0.301860
O10	O	1.405452	0.174185	0.198140
O11	O	1.045538	-0.284207	-0.340366
O12	O	1.545538	0.215793	0.159634
O13	O	0.943870	-0.367413	-0.161800
O14	O	1.443870	0.132587	0.338200
O15	O	0.867036	-0.174535	-0.263413
O16	O	1.367036	0.325465	0.236587
O17	O	1.045474	-0.367366	-0.263384
O18	O	1.545474	0.132634	0.236616
O19	O	0.944019	-0.174500	-0.340382
O20	O	1.444019	0.325500	0.159618
O21	O	0.866950	-0.284289	-0.161812
O22	O	1.366950	0.215711	0.338188
O23	O	0.765408	-0.284283	-0.263374
O24	O	1.265408	0.215717	0.236626
O25	O	0.866993	-0.367356	-0.441899
O26	O	1.366993	0.132644	0.058101
O27	O	0.765389	-0.367402	-0.340314
O28	O	1.265389	0.132598	0.159686
O29	O	0.943995	-0.284202	-0.441928
O30	O	1.443995	0.215798	0.058072
O31	O	0.943846	-0.477114	-0.263346
O32	O	1.443846	0.022886	0.236654
O33	O	0.866908	-0.477110	-0.340298
O34	O	1.366908	0.022890	0.159702
C35	C	0.742665	-0.325848	-0.301842
C36	C	1.242665	0.174152	0.198158
C37	C	0.673023	-0.325878	-0.301849
C38	C	1.173023	0.174122	0.198151
C39	C	0.640366	-0.282648	-0.341996
C40	C	1.140366	0.217352	0.158004
C41	C	0.574931	-0.282630	-0.341998
C42	C	1.074931	0.217370	0.158002
C43	C	0.542155	-0.325854	-0.301861
C44	C	1.042155	0.174146	0.198139
C45	C	0.574820	-0.369087	-0.261707
C46	C	1.074820	0.130913	0.238293
C47	C	0.640254	-0.369099	-0.261701
C48	C	1.140254	0.130901	0.238299
C49	C	0.438435	-0.386809	-0.296822
C50	C	0.938435	0.113191	0.203178
C51	C	0.373002	-0.386799	-0.296832
C52	C	0.873002	0.113201	0.203168
C53	C	0.340334	-0.325817	-0.301875
C54	C	0.840334	0.174183	0.198125
C55	C	0.373108	-0.264844	-0.306921
C56	C	0.873108	0.235156	0.193079
C57	C	0.438542	-0.264856	-0.306915
C58	C	0.938542	0.235144	0.193085
C59	C	0.471203	-0.325846	-0.301862
C60	C	0.971203	0.174154	0.198138
C61	C	0.236725	-0.282564	-0.342026
C62	C	0.736725	0.217436	0.157974
C63	C	0.171288	-0.282545	-0.342024
C64	C	0.671288	0.217455	0.157976
C65	C	0.171179	-0.369008	-0.261736
C66	C	0.671179	0.130992	0.238264
C67	C	0.236614	-0.369021	-0.261735
C68	C	0.736614	0.130979	0.238265
C69	C	0.269383	-0.325800	-0.301883
C70	C	0.769383	0.174200	0.198117
C71	C	0.905382	-0.501671	-0.301829
C72	C	1.405382	-0.001671	0.198171
C73	C	0.905409	-0.576903	-0.301837
C74	C	1.405409	-0.076903	0.198163
C75	C	0.945509	-0.612227	-0.261810
C76	C	1.445509	-0.112227	0.238190
C77	C	0.945536	-0.682915	-0.261824
C78	C	1.445536	-0.182915	0.238176
C79	C	0.905458	-0.718278	-0.301862
C80	C	1.405458	-0.218278	0.198138
C81	C	0.865356	-0.682949	-0.341894
C82	C	1.365356	-0.182949	0.158106
C83	C	0.865333	-0.612262	-0.341883
C84	C	1.365333	-0.112262	0.158117
C85	C	0.865449	-0.968023	-0.341940
C86	C	1.365449	-0.468023	0.158060
C87	C	0.865474	-1.038715	-0.341947
C88	C	1.365474	-0.538715	0.158053
C89	C	0.945651	-1.038675	-0.261882
C90	C	1.445651	-0.538675	0.238118
C91	C	0.945628	-0.967988	-0.261871
C92	C	1.445628	-0.467988	0.238129
C93	C	0.905529	-0.932666	-0.301904
C94	C	1.405529	-0.432666	0.198096
C95	C	0.905501	-0.856017	-0.301889
C96	C	1.405501	-0.356017	0.198111
C97	C	0.905482	-0.794925	-0.301874
C98	C	1.405482	-0.294925	0.198126
C99	C	1.068875	-0.325782	-0.301878
C100	C	1.568875	0.174218	0.198122
C101	C	1.138517	-0.325768	-0.301885
C102	C	1.638517	0.174232	0.198115
C103	C	0.905501	-0.325773	-0.465283
C104	C	1.405501	0.174227	0.034717
C105	C	0.905522	-0.325755	-0.534924
C106	C	1.405522	0.174245	-0.034924
C107	C	0.905540	-0.149272	-0.301904
C108	C	1.405540	0.350728	0.198096
C109	C	0.905577	-0.074040	-0.301923
C110	C	1.405577	0.425960	0.198077
C111	C	0.865481	-0.282468	-0.567634
C112	C	1.365481	0.217532	-0.067634
C113	C	0.865479	-0.282455	-0.633069
C114	C	1.365479	0.217545	-0.133069
C115	C	0.905529	-0.325723	-0.665793
C116	C	1.405529	0.174277	-0.165793
C117	C	0.945573	-0.369018	-0.633075
C118	C	1.445573	0.130982	-0.133075
C119	C	0.945570	-0.369035	-0.567641
C120	C	1.445570	0.130965	-0.067641
C121	C	0.961982	-0.331028	-0.769479
C122	C	1.461982	0.168972	-0.269479
C123	C	0.961986	-0.331007	-0.834912
C124	C	1.461986	0.168993	-0.334912
C125	C	0.905540	-0.325677	-0.867614
C126	C	1.405540	0.174323	-0.367614
C127	C	0.849087	-0.320353	-0.834874
C128	C	1.349087	0.179647	-0.334874
C129	C	0.849083	-0.320369	-0.769440
C130	C	1.349083	0.179631	-0.269440
C131	C	0.905537	-0.325710	-0.736745
C132	C	1.405537	0.174290	-0.236745
C133	C	0.865493	-0.282374	-0.971276
C134	C	1.365493	0.217626	-0.471276
C135	C	0.865490	-0.282366	-1.036712
C136	C	1.365490	0.217634	-0.536712
C137	C	0.945589	-0.368926	-1.036717
C138	C	1.445589	0.131074	-0.536717
C139	C	0.945587	-0.368937	-0.971281
C140	C	1.445587	0.131063	-0.471281
C141	C	0.905540	-0.325658	-0.938565
C142	C	1.405540	0.174342	-0.438565
C143	C	0.905439	-0.325808	-0.139072
C144	C	1.405439	0.174192	0.360928
C145	C	0.905540	-0.325635	-0.069431
C146	C	1.405540	0.174365	0.430569
H147	H	0.548336	-0.247424	-0.374689
H148	H	1.048336	0.252576	0.125311
N149	N	0.988735	-0.574084	-0.218627
N150	N	1.488735	-0.074084	0.281373
H151	H	0.979033	-0.586430	-0.173853
H152	H	1.479033	-0.086430	0.326147
H153	H	1.033483	-0.586342	-0.228457
H154	H	1.533483	-0.086342	0.271543
H155	H	0.978260	-0.939198	-0.229266
H156	H	1.478260	-0.439198	0.270734
H157	H	0.978194	-0.404185	-0.944649
H158	H	1.478194	0.095815	-0.444649
H159	H	0.803118	-0.316036	-0.742786
H160	H	1.303118	0.183964	-0.242786
H161	H	0.978179	-0.404284	-0.541009
H162	H	1.478179	0.095716	-0.041009
H163	H	0.667043	-0.247454	-0.374687
H164	H	1.167043	0.252546	0.125313
N165	N	0.473664	-0.452588	-0.291382
N166	N	0.973664	0.047412	0.208618
H167	H	0.520089	-0.443345	-0.292140
H168	H	1.020089	0.056655	0.207860
H169	H	0.462186	-0.475527	-0.250796
H170	H	0.962186	0.024473	0.249204
H171	H	0.548130	-0.404280	-0.229026
H172	H	1.048130	0.095720	0.270974
H173	H	0.832883	-0.247133	-0.944636
H174	H	1.332883	0.252867	-0.444636
H175	H	0.666843	-0.404303	-0.229008
H176	H	1.166843	0.095697	0.270992
N177	N	1.022871	-0.336748	-0.870221
N178	N	1.522871	0.163252	-0.370221
H179	H	1.058628	-0.340138	-0.839577
H180	H	1.558628	0.159862	-0.339577
H181	H	1.021944	-0.378447	-0.897359
H182	H	1.521944	0.121553	-0.397359
H183	H	0.465223	-0.215210	-0.311021
H184	H	0.965223	0.284790	0.188979
H185	H	0.803123	-0.316008	-0.861498
H186	H	1.303123	0.183992	-0.361498
N187	N	0.988901	-1.076773	-0.218699
N188	N	1.488901	-0.576773	0.281301
H189	H	0.982838	-1.126920	-0.224780
H190	H	1.482838	-0.626920	0.275220
H191	H	1.033641	-1.064358	-0.228484
H192	H	1.533641	-0.564358	0.271516
H193	H	0.832681	-0.583502	-0.374477
H194	H	1.332681	-0.083502	0.125523
H195	H	0.346511	-0.215187	-0.311027
H196	H	0.846511	0.284813	0.188973
N197	N	0.272072	-0.235956	-0.385333
N198	N	0.772072	0.264044	0.114667
H199	H	0.318480	-0.242532	-0.379246
H200	H	0.818480	0.257468	0.120754
H201	H	0.260637	-0.246568	-0.430058
H202	H	0.760637	0.253432	0.069942
H203	H	0.144700	-0.247338	-0.374715
H204	H	0.644700	0.252662	0.125285
N205	N	0.271842	-0.415648	-0.218434
N206	N	0.771842	0.084352	0.281566
H207	H	0.241152	-0.443028	-0.193007
H208	H	0.741152	0.056972	0.306993
H209	H	0.298979	-0.447013	-0.243882
H210	H	0.798979	0.052987	0.256118
H211	H	0.978189	-0.711673	-0.229230
H212	H	1.478189	-0.211673	0.270770
H213	H	0.144493	-0.404201	-0.229055
H214	H	0.644493	0.095799	0.270945
N215	N	0.337655	-0.452557	-0.291388
N216	N	0.837655	0.047443	0.208612
H217	H	0.349037	-0.482907	-0.327559
H218	H	0.849037	0.017093	0.172441
H219	H	0.349018	-0.475469	-0.250774
H220	H	0.849018	0.024531	0.249226
N221	N	0.822244	-1.076859	-0.385131
N222	N	1.322244	-0.576859	0.114869
H223	H	0.796838	-1.043757	-0.410492
H224	H	1.296838	-0.543757	0.089508
H225	H	0.847745	-1.106140	-0.414150
H226	H	1.347745	-0.606140	0.085850
H227	H	0.832797	-0.939268	-0.374536
H228	H	1.332797	-0.439268	0.125464
H229	H	0.832728	-0.711748	-0.374496
H230	H	1.332728	-0.211748	0.125504
H231	H	0.832879	-0.247118	-1.063344
H232	H	1.332879	0.252882	-0.563344
H233	H	0.832869	-0.247228	-0.541000
H234	H	1.332869	0.252772	-0.041000
N235	N	0.822290	-0.235766	-0.668360
N236	N	1.322290	0.264234	-0.168360
H237	H	0.796919	-0.208352	-0.637705
H238	H	1.296919	0.291648	-0.137705
H239	H	0.847816	-0.204435	-0.695525
H240	H	1.347816	0.295565	-0.195525
H241	H	0.978200	-0.404154	-1.063360
H242	H	1.478200	0.095846	-0.563360
N243	N	1.022866	-0.336790	-0.734210
N244	N	1.522866	0.163210	-0.234210
H245	H	1.058628	-0.340157	-0.764878
H246	H	1.558628	0.159843	-0.264878
H247	H	1.028708	-0.295559	-0.707071
H248	H	1.528708	0.204441	-0.207071
N249	N	0.988766	-0.415692	-0.668365
N250	N	1.488766	0.084308	-0.168365
H251	H	0.982693	-0.409114	-0.714781
H252	H	1.482693	0.090886	-0.214781
H253	H	1.033519	-0.405157	-0.656946
H254	H	1.533519	0.094843	-0.156946
