data_functionalizedCrystal
_audit_creation_method	'MofGen! by Chris Wilmer'
_symmetry_space_group_name_H-M	'P1'
_symmetry_Int_Tables_number	1
_symmetry_cell_setting	triclinic
loop_
_symmetry_equiv_pos_as_xyz
  x,y,z
_cell_length_a	19.077105
_cell_length_b	18.050590
_cell_length_c	19.076919
_cell_angle_alpha	87.729485
_cell_angle_beta	89.923776
_cell_angle_gamma	87.714864
loop_
_atom_site_label
_atom_site_type_symbol
_atom_site_fract_x
_atom_site_fract_y
_atom_site_fract_z
Zn1	Zn	1.058306	-0.359282	0.440410
Zn2	Zn	1.062957	-0.478691	0.322901
Zn3	Zn	0.945523	-0.349334	0.318204
Zn4	Zn	0.940779	-0.478243	0.435654
O5	O	1.001891	-0.416388	0.379292
O6	O	1.157255	-0.379473	0.428779
O7	O	1.051311	-0.457555	0.223947
O8	O	0.960522	-0.246732	0.334440
O9	O	1.160673	-0.467202	0.342445
O10	O	1.043383	-0.254041	0.424224
O11	O	0.965032	-0.362517	0.220496
O12	O	0.846561	-0.362083	0.329827
O13	O	0.952437	-0.466439	0.534616
O14	O	0.843076	-0.456792	0.416117
O15	O	1.038784	-0.379039	0.538111
O16	O	1.046712	-0.582553	0.337833
O17	O	0.956948	-0.582224	0.420672
C18	C	0.819322	-0.408310	0.371947
C19	C	0.741218	-0.404873	0.368821
C20	C	1.001838	-0.609336	0.379262
C21	C	1.001879	-0.691884	0.379275
C22	C	0.702731	-0.452637	0.412209
C23	C	0.629343	-0.449397	0.409275
C24	C	0.594444	-0.398397	0.362950
C25	C	0.632936	-0.350628	0.319561
C26	C	0.706322	-0.353864	0.322498
C27	C	0.375155	-0.383420	0.349358
C28	C	0.301764	-0.380189	0.346422
C29	C	0.298176	-0.478958	0.436137
C30	C	0.371564	-0.482193	0.439068
C31	C	0.410049	-0.434421	0.395681
N32	N	0.519430	-0.395087	0.359949
N33	N	0.485062	-0.437728	0.398687
C34	C	1.050788	-0.891494	0.334297
C35	C	1.065373	-0.944195	0.399117
C36	C	1.001918	-0.843017	0.379305
C37	C	0.987403	-0.937403	0.314516
C38	C	1.001957	-0.989005	0.379328
C39	C	1.016535	-0.894634	0.444160
C40	C	0.938536	-0.887835	0.359515
C41	C	0.953096	-0.940514	0.424378
C42	C	1.001897	-0.758918	0.379291
C43	C	1.001977	-1.073103	0.379349
C44	C	1.185173	-0.424497	0.386667
C45	C	1.263277	-0.427953	0.389809
C46	C	0.994562	-0.423799	0.562572
C47	C	0.991439	-0.426957	0.640675
C48	C	1.001963	-0.222687	0.379339
C49	C	1.001993	-0.140143	0.379358
C50	C	1.009232	-0.408953	0.196727
C51	C	1.012491	-0.405592	0.118630
C52	C	1.034926	-0.382938	0.679189
C53	C	1.031983	-0.385902	0.752575
C54	C	0.985556	-0.432890	0.787446
C55	C	0.942065	-0.476910	0.748927
C56	C	0.945005	-0.473941	0.675542
C57	C	0.971940	-0.446644	1.006726
C58	C	0.969005	-0.449611	1.080116
C59	C	1.058922	-0.358602	1.083759
C60	C	1.061860	-0.355641	1.010373
C61	C	1.018367	-0.399658	0.971860
N62	N	0.982549	-0.435922	0.862458
N63	N	1.021371	-0.396621	0.896850
H64	H	0.731140	-0.494169	0.449929
C65	C	1.112923	-0.303951	0.972016
H66	H	1.108449	-0.308492	0.922795
H67	H	1.102176	-0.254085	0.983641
H68	H	1.159654	-0.317398	0.985942
C69	C	0.263376	-0.324082	0.295467
H70	H	0.296806	-0.296089	0.270053
H71	H	0.235961	-0.349935	0.263654
H72	H	0.233684	-0.291599	0.321265
C73	C	0.594549	-0.294532	0.268602
H74	H	0.545331	-0.299450	0.273060
H75	H	0.606173	-0.245599	0.279449
H76	H	0.608455	-0.303950	0.221851
H77	H	1.067396	-0.350060	0.783929
H78	H	0.936534	-0.482497	0.975379
C79	C	0.417481	-0.330886	0.301622
H80	H	0.386184	-0.300059	0.273606
H81	H	0.445049	-0.300919	0.329694
H82	H	0.447317	-0.359277	0.272102
H83	H	1.092127	-0.869968	0.296277
H84	H	0.904261	-0.515165	0.777324
C85	C	0.917930	-0.501292	1.118476
H86	H	0.922415	-0.496759	1.167697
H87	H	0.871203	-0.487844	1.104553
H88	H	0.928674	-0.551162	1.106853
C89	C	1.137799	-0.977491	0.421751
H90	H	1.132926	-1.007961	0.463090
H91	H	1.156931	-1.006472	0.385335
H92	H	1.168223	-0.938575	0.430802
H93	H	0.911783	-0.961907	0.462496
C94	C	0.748658	-0.301323	0.274774
H95	H	0.717364	-0.270489	0.246760
H96	H	0.776221	-0.271363	0.302858
H97	H	0.778499	-0.329704	0.245250
H98	H	0.975109	-0.956301	0.259716
H99	H	0.909587	-0.509778	0.644185
H100	H	0.598010	-0.488293	0.444605
H101	H	1.028773	-0.875827	0.499005
H102	H	1.094331	-0.322764	1.115124
H103	H	0.884936	-0.863176	0.342744
C104	C	1.085992	-0.331248	0.640837
H105	H	1.111463	-0.305451	0.674287
H106	H	1.117747	-0.359847	0.613434
H107	H	1.060263	-0.296541	0.611137
H108	H	0.266833	-0.517850	0.471461
C109	C	0.409948	-0.538288	0.490030
H110	H	0.376515	-0.566267	0.515455
H111	H	0.439641	-0.570775	0.464242
H112	H	0.437361	-0.512425	0.521843
