data_functionalizedCrystal
_audit_creation_method	'MofGen! by Chris Wilmer'
_symmetry_space_group_name_H-M	'P1'
_symmetry_Int_Tables_number	1
_symmetry_cell_setting	triclinic
loop_
_symmetry_equiv_pos_as_xyz
  x,y,z
_cell_length_a	16.109301
_cell_length_b	15.944493
_cell_length_c	15.186229
_cell_angle_alpha	90.002130
_cell_angle_beta	89.999362
_cell_angle_gamma	83.468262
loop_
_atom_site_label
_atom_site_type_symbol
_atom_site_fract_x
_atom_site_fract_y
_atom_site_fract_z
O1	O	1.103143	0.107969	-0.073161
O2	O	0.861083	0.121406	-0.073174
O3	O	0.988748	-0.007593	-0.073175
O4	O	0.975478	0.236968	-0.073161
O5	O	0.988740	-0.007595	0.073283
O6	O	0.861074	0.121404	0.073283
O7	O	1.103135	0.107967	0.073296
Zn8	Zn	0.982103	0.114685	0.096543
Zn9	Zn	0.982115	0.114688	-0.096421
O10	O	0.975469	0.236966	0.073297
C11	C	0.830104	0.120861	0.000053
C12	C	0.737808	0.119229	0.000048
C13	C	0.988202	-0.038888	0.000050
C14	C	0.986576	-0.132136	0.000039
C15	C	0.515544	0.191980	0.000062
C16	C	0.428824	0.190440	0.000068
C17	C	0.448680	0.037388	0.000055
C18	C	0.535399	0.038928	0.000056
C19	C	0.568829	0.116227	0.000055
C20	C	0.395389	0.113146	0.000060
C21	C	0.301363	0.111476	0.000066
C22	C	0.662861	0.117897	0.000050
C23	C	1.061722	-0.367921	0.000060
C24	C	1.021203	-0.418475	-0.072153
C25	C	0.983563	-0.302856	0.000050
C26	C	1.021176	-0.418453	0.072242
C27	C	0.980658	-0.467765	0.000064
C28	C	0.943064	-0.352182	-0.072223
C29	C	0.943049	-0.352156	0.072238
C30	C	0.902472	-0.402677	0.000007
C31	C	0.985238	-0.207857	0.000041
C32	C	0.978976	-0.562762	0.000066
C33	C	1.134114	0.108513	0.000067
C34	C	1.226410	0.110144	0.000067
C35	C	0.976016	0.268262	0.000070
C36	C	0.977642	0.361510	0.000075
N37	N	0.982102	0.114683	0.228236
N38	N	0.982123	0.114683	-0.228113
C39	C	1.038651	0.057582	0.453958
C40	C	1.038654	0.057580	0.546148
C41	C	0.925567	0.171787	0.546158
C42	C	0.925561	0.171785	0.453970
C43	C	0.982108	0.114683	0.407872
C44	C	0.982116	0.114684	0.592250
C45	C	0.982119	0.114682	0.692206
C46	C	0.982105	0.114683	0.307910
H47	H	0.542760	0.254921	0.000068
C48	C	0.863363	0.234601	0.403272
H49	H	0.829695	0.268617	0.443927
H50	H	0.828760	0.204373	0.367311
H51	H	0.893268	0.269576	0.367308
H52	H	0.385443	0.252126	0.000075
H53	H	0.835095	-0.418121	-0.000036
C54	C	0.863379	0.234602	0.596867
H55	H	0.871486	0.226432	0.658372
H56	H	0.807893	0.225467	0.581767
H57	H	0.872405	0.290667	0.581755
H58	H	0.910066	-0.323186	0.133288
C59	C	0.411908	-0.047636	0.000046
H60	H	0.456065	-0.092531	0.000049
H61	H	0.378493	-0.051415	-0.051029
H62	H	0.378491	-0.051422	0.051123
H63	H	0.578786	-0.022763	0.000053
C64	C	1.065777	-0.457543	0.154716
H65	H	1.122317	-0.445898	0.154623
H66	H	1.063966	-0.516884	0.154414
H67	H	1.038570	-0.433945	0.205994
H68	H	1.129047	-0.352315	-0.000010
C69	C	0.898511	-0.313246	-0.154791
H70	H	0.878843	-0.356644	-0.189229
H71	H	0.936578	-0.285128	-0.188546
H72	H	0.852614	-0.273950	-0.137534
C73	C	1.065796	-0.457600	-0.154618
H74	H	1.122342	-0.445974	-0.154530
H75	H	1.038591	-0.434028	-0.205900
H76	H	1.063980	-0.516945	-0.154287
H77	H	1.084695	0.011082	0.583668
C78	C	1.100842	-0.005234	0.403254
H79	H	1.134511	-0.039247	0.443908
H80	H	1.135444	0.024987	0.367287
H81	H	1.070932	-0.040213	0.367296
