data_functionalizedCrystal
_audit_creation_method	'MofGen! by Chris Wilmer'
_symmetry_space_group_name_H-M	'P1'
_symmetry_Int_Tables_number	1
_symmetry_cell_setting	triclinic
loop_
_symmetry_equiv_pos_as_xyz
  x,y,z
_cell_length_a	10.654541
_cell_length_b	16.992695
_cell_length_c	15.455313
_cell_angle_alpha	87.152573
_cell_angle_beta	92.705766
_cell_angle_gamma	87.576076
loop_
_atom_site_label
_atom_site_type_symbol
_atom_site_fract_x
_atom_site_fract_y
_atom_site_fract_z
O1	O	-1.682527	-0.106780	-0.072105
O2	O	-1.317956	-0.117280	-0.072113
O3	O	-1.498779	0.002120	-0.072102
O4	O	-1.501703	-0.226181	-0.072116
O5	O	-1.488436	-0.004680	0.072159
O6	O	-1.307612	-0.124080	0.072149
O7	O	-1.672183	-0.113580	0.072156
Cu8	Cu	-1.488954	-0.119451	0.085325
Cu9	Cu	-1.501185	-0.111410	-0.085281
O10	O	-1.491360	-0.232980	0.072146
C11	C	-1.265919	-0.119909	0.000017
C12	C	-1.126277	-0.117604	0.000014
C13	C	-1.489847	0.027953	0.000029
C14	C	-1.478628	0.115058	0.000028
C15	C	-1.724220	-0.110951	0.000025
C16	C	-1.863863	-0.113256	0.000022
C17	C	-1.110646	-0.260379	-0.000005
C18	C	-1.037228	-0.330680	-0.000018
C19	C	-0.906022	-0.328509	-0.000019
C20	C	-0.848232	-0.256029	-0.000004
C21	C	-0.921650	-0.185728	0.000009
C22	C	-1.052858	-0.187907	0.000007
C23	C	-0.937281	-0.042955	0.000035
C24	C	-1.068487	-0.045124	0.000029
C25	C	-0.879491	0.029525	0.000050
C26	C	-0.952910	0.099828	0.000057
C27	C	-1.084123	0.097653	0.000057
C28	C	-1.141905	0.025177	0.000043
C29	C	-1.500292	-0.258813	0.000013
C30	C	-1.511512	-0.345918	0.000008
N31	N	-1.480359	-0.125106	0.205320
C32	C	-1.586879	0.164711	0.000031
C33	C	-1.576330	0.246555	0.000023
C34	C	-1.457529	0.278745	0.000017
C35	C	-1.349271	0.229087	0.000012
C36	C	-1.359821	0.147244	0.000014
C37	C	-1.413803	0.522581	0.000005
C38	C	-1.403261	0.604430	0.000005
C39	C	-1.630322	0.621892	0.000014
C40	C	-1.640861	0.540047	0.000022
C41	C	-1.532603	0.490396	0.000012
N42	N	-1.446744	0.362403	0.000011
N43	N	-1.543390	0.406740	0.000011
N44	N	-1.509789	-0.105748	-0.205276
C45	C	-1.557210	-0.074400	0.250719
C46	C	-1.550723	-0.078684	0.341526
C47	C	-1.467391	-0.133679	0.386933
C48	C	-1.390532	-0.184387	0.341528
C49	C	-1.397013	-0.180099	0.250722
C50	C	-1.439412	-0.152168	0.658513
C51	C	-1.432938	-0.156455	0.749325
C52	C	-1.593129	-0.050749	0.749317
C53	C	-1.599608	-0.046469	0.658509
C54	C	-1.522745	-0.097175	0.613112
N55	N	-1.460761	-0.138061	0.479753
N56	N	-1.529369	-0.092788	0.520294
H57	H	-1.084294	-0.389692	-0.000028
H58	H	-1.655706	-0.009466	0.786287
O59	O	-0.720799	-0.253815	-0.000114
C60	C	-0.686595	-0.210423	-0.074833
H61	H	-0.768551	-0.168815	-0.099741
H62	H	-0.601454	-0.174668	-0.058022
H63	H	-0.662122	-0.252696	-0.127155
O64	O	-1.254748	0.098924	0.000128
C65	C	-1.248677	0.047555	0.074852
H66	H	-1.347039	0.041703	0.099767
H67	H	-1.209253	-0.012902	0.058045
H68	H	-1.184832	0.072322	0.127167
O69	O	-1.351862	-0.209894	0.793301
C70	C	-1.285425	-0.253739	0.733762
H71	H	-1.285407	-0.218512	0.669036
H72	H	-1.184405	-0.266350	0.760013
H73	H	-1.332735	-0.311807	0.724091
H74	H	-1.376828	-0.193456	0.621558
H75	H	-1.217481	-0.262153	-0.000024
H76	H	-1.664480	0.286979	0.000027
O77	O	-1.233851	0.260325	-0.000150
C78	C	-1.172711	0.238515	-0.074856
H79	H	-1.245784	0.223585	-0.127074
H80	H	-1.116078	0.289558	-0.099937
H81	H	-1.106833	0.184769	-0.057967
O82	O	-0.752058	0.031741	-0.000068
C83	C	-0.717871	0.075139	-0.074787
H84	H	-0.799833	0.116747	-0.099684
H85	H	-0.632729	0.110895	-0.057981
H86	H	-0.693407	0.032870	-0.127115
O87	O	-1.309691	-0.237787	0.385768
C88	C	-1.320427	-0.230689	0.475652
H89	H	-1.416499	-0.202532	0.488045
H90	H	-1.309944	-0.291652	0.510151
H91	H	-1.243523	-0.192146	0.501440
H92	H	-1.613300	-0.037394	0.378489
H93	H	-1.737601	0.513845	0.000026
O94	O	-1.680583	0.007025	0.614538
C95	C	-1.747047	0.050850	0.674081
H96	H	-1.690824	0.048979	0.738819
H97	H	-1.761807	0.114631	0.647852
H98	H	-1.842253	0.024379	0.683720
O99	O	-0.896925	0.170279	-0.000044
C100	C	-0.939057	0.216697	-0.074766
H101	H	-1.033884	0.196000	-0.099684
H102	H	-0.949485	0.281137	-0.057955
H103	H	-0.867872	0.210489	-0.127081
O104	O	-1.269354	0.022970	-0.000074
C105	C	-1.314261	-0.013367	-0.074807
H106	H	-1.235870	-0.052619	-0.099727
H107	H	-1.396989	-0.050713	-0.058009
H108	H	-1.346235	0.033846	-0.127114
O109	O	-1.735504	0.670084	0.000169
C110	C	-1.801811	0.651869	0.074872
H111	H	-1.734543	0.621806	0.127096
H112	H	-1.844578	0.708473	0.099946
H113	H	-1.879930	0.610601	0.057981
O114	O	-0.834887	-0.396869	-0.000071
C115	C	-0.914018	-0.461308	-0.000060
H116	H	-1.011798	-0.440645	-0.027365
H117	H	-0.873640	-0.508627	-0.041953
H118	H	-0.920601	-0.486759	0.069146
O119	O	-1.287837	0.635673	-0.000162
C120	C	-1.226703	0.613870	-0.074873
H121	H	-1.299778	0.598935	-0.127087
H122	H	-1.170083	0.664919	-0.099957
H123	H	-1.160812	0.560129	-0.057989
H124	H	-1.325651	0.482164	-0.000004
O125	O	-1.702246	0.133401	0.000189
C126	C	-1.709782	0.083051	0.074893
H127	H	-1.638436	0.100299	0.127114
H128	H	-1.808514	0.088670	0.099971
H129	H	-1.688492	0.019472	0.058002
H130	H	-1.143893	0.154901	0.000071
H131	H	-1.625073	-0.029620	0.213754
O132	O	-1.322315	-0.229439	0.206754
C133	C	-1.247352	-0.278886	0.266301
H134	H	-1.294337	-0.283130	0.331023
H135	H	-1.236336	-0.340189	0.240053
H136	H	-1.150768	-0.253327	0.275977
