data_functionalizedCrystal
_audit_creation_method	'MofGen! by Chris Wilmer'
_symmetry_space_group_name_H-M	'P1'
_symmetry_Int_Tables_number	1
_symmetry_cell_setting	triclinic
loop_
_symmetry_equiv_pos_as_xyz
  x,y,z
_cell_length_a	16.625548
_cell_length_b	21.295417
_cell_length_c	16.625539
_cell_angle_alpha	89.968491
_cell_angle_beta	89.982945
_cell_angle_gamma	90.031575
loop_
_atom_site_label
_atom_site_type_symbol
_atom_site_fract_x
_atom_site_fract_y
_atom_site_fract_z
Zn1	Zn	1.232607	-0.250602	-0.455881
Zn2	Zn	1.565941	0.082732	-0.122548
Zn3	Zn	1.899274	0.416065	0.210786
Zn4	Zn	1.232500	-0.355872	-0.321036
Zn5	Zn	1.565833	-0.022538	0.012297
Zn6	Zn	1.899167	0.310795	0.345630
Zn7	Zn	1.097778	-0.250622	-0.321061
Zn8	Zn	1.431111	0.082711	0.012272
Zn9	Zn	1.764444	0.416044	0.345605
Zn10	Zn	1.097721	-0.355839	-0.455826
Zn11	Zn	1.431054	-0.022506	-0.122493
Zn12	Zn	1.764387	0.310828	0.210841
O13	O	1.165151	-0.303234	-0.388451
O14	O	1.498485	0.030100	-0.055118
O15	O	1.831818	0.363433	0.278215
O16	O	1.345426	-0.264571	-0.438006
O17	O	1.678759	0.068762	-0.104673
O18	O	2.012092	0.402096	0.228661
O19	O	1.214608	-0.341932	-0.208207
O20	O	1.547941	-0.008599	0.125126
O21	O	1.881274	0.324734	0.458460
O22	O	1.115732	-0.162530	-0.338979
O23	O	1.449065	0.170803	-0.005646
O24	O	1.782398	0.504137	0.327688
O25	O	1.345347	-0.341913	-0.338936
O26	O	1.678680	-0.008579	-0.005603
O27	O	2.012013	0.324754	0.327731
O28	O	1.214791	-0.162515	-0.438030
O29	O	1.548124	0.170818	-0.104697
O30	O	1.881457	0.504152	0.228636
O31	O	1.115628	-0.264606	-0.208226
O32	O	1.448961	0.068727	0.125108
O33	O	1.782294	0.402061	0.458441
O34	O	0.984938	-0.264574	-0.338926
O35	O	1.318271	0.068759	-0.005593
O36	O	1.651604	0.402092	0.327741
O37	O	1.115635	-0.341857	-0.568666
O38	O	1.448968	-0.008523	-0.235332
O39	O	1.782302	0.324810	0.098001
O40	O	0.984896	-0.341877	-0.437937
O41	O	1.318229	-0.008543	-0.104604
O42	O	1.651563	0.324790	0.228730
O43	O	1.214736	-0.264539	-0.568706
O44	O	1.548069	0.068794	-0.235373
O45	O	1.881402	0.402127	0.097961
O46	O	1.214553	-0.443957	-0.338883
O47	O	1.547886	-0.110623	-0.005550
O48	O	1.881219	0.222710	0.327784
O49	O	1.115531	-0.443933	-0.437912
O50	O	1.448864	-0.110599	-0.104579
O51	O	1.782197	0.222734	0.228754
C52	C	0.955661	-0.303225	-0.388429
C53	C	1.288994	0.030109	-0.055095
C54	C	1.622327	0.363442	0.278238
C55	C	0.866039	-0.303236	-0.388438
C56	C	1.199373	0.030097	-0.055105
C57	C	1.532706	0.363431	0.278229
C58	C	0.537864	-0.303240	-0.388473
C59	C	0.871197	0.030093	-0.055139
C60	C	1.204531	0.363427	0.278194
C61	C	0.629172	-0.303237	-0.388460
C62	C	0.962506	0.030096	-0.055127
C63	C	1.295839	0.363429	0.278206
C64	C	0.701949	-0.303238	-0.388455
C65	C	1.035282	0.030095	-0.055121
C66	C	1.368615	0.363428	0.278212
C67	C	0.793263	-0.303235	-0.388444
C68	C	1.126596	0.030099	-0.055110
C69	C	1.459930	0.363432	0.278223
C70	C	1.165046	-0.466785	-0.388407
C71	C	1.498379	-0.133452	-0.055073
C72	C	1.831712	0.199881	0.278260
C73	C	1.165074	-0.536753	-0.388414
C74	C	1.498408	-0.203420	-0.055081
C75	C	1.831741	0.129913	0.278252
C76	C	1.216681	-0.569612	-0.336903
C77	C	1.550014	-0.236278	-0.003569
C78	C	1.883347	0.097055	0.329764
C79	C	1.216719	-0.635354	-0.336921
C80	C	1.550052	-0.302021	-0.003587
C81	C	1.883385	0.031313	0.329746
C82	C	1.165135	-0.668236	-0.388442
C83	C	1.498469	-0.334903	-0.055109
C84	C	1.831802	-0.001569	0.278224
C85	C	1.113525	-0.635370	-0.439964
C86	C	1.446859	-0.302036	-0.106631
C87	C	1.780192	0.031297	0.226703
C88	C	1.113495	-0.569628	-0.439950
C89	C	1.446828	-0.236295	-0.106617
C90	C	1.780162	0.097038	0.226717
N91	N	1.094600	-0.771503	-0.394581
N92	N	1.427933	-0.438169	-0.061248
N93	N	1.761267	-0.104836	0.272085
N94	N	1.094631	-0.833954	-0.394590
N95	N	1.427965	-0.500621	-0.061257
N96	N	1.761298	-0.167287	0.272077
C97	C	1.165226	-0.866311	-0.388488
C98	C	1.498559	-0.532977	-0.055155
C99	C	1.831892	-0.199644	0.278178
N100	N	1.235789	-0.833856	-0.382362
N101	N	1.569122	-0.500523	-0.049029
N102	N	1.902456	-0.167190	0.284304
N103	N	1.235757	-0.771399	-0.382350
N104	N	1.569090	-0.438066	-0.049016
N105	N	1.902424	-0.104732	0.284317
C106	C	1.165163	-0.739521	-0.388463
C107	C	1.498497	-0.406188	-0.055130
C108	C	1.831830	-0.072855	0.278203
C109	C	1.216878	-0.970454	-0.336993
C110	C	1.550211	-0.637121	-0.003660
C111	C	1.883544	-0.303788	0.329673
C112	C	1.216917	-1.036198	-0.337017
C113	C	1.550250	-0.702865	-0.003684
C114	C	1.883583	-0.369531	0.329649
C115	C	1.113716	-1.036212	-0.440056
C116	C	1.447050	-0.702879	-0.106723
C117	C	1.780383	-0.369546	0.226610
C118	C	1.113684	-0.970470	-0.440037
C119	C	1.447018	-0.637137	-0.106704
C120	C	1.780351	-0.303803	0.226630
C121	C	1.165264	-0.937595	-0.388501
C122	C	1.498597	-0.604262	-0.055168
C123	C	1.831931	-0.270928	0.278166
C124	C	1.375460	-0.303243	-0.388474
C125	C	1.708794	0.030090	-0.055141
C126	C	2.042127	0.363424	0.278192
C127	C	1.465081	-0.303247	-0.388484
C128	C	1.798415	0.030086	-0.055151
C129	C	2.131748	0.363419	0.278183
C130	C	1.165191	-0.303192	-0.598760
C131	C	1.498524	0.030141	-0.265427
C132	C	1.831858	0.363475	0.067906
C133	C	1.165208	-0.303174	-0.688381
C134	C	1.498541	0.030159	-0.355048
C135	C	1.831874	0.363492	-0.021715
C136	C	1.165280	-0.139043	-0.388514
C137	C	1.498613	0.194290	-0.055180
C138	C	1.831946	0.527623	0.278153
C139	C	1.165334	-0.069075	-0.388540
C140	C	1.498667	0.264258	-0.055207
C141	C	1.832001	0.597591	0.278126
C142	C	1.165221	-0.303161	-0.761164
C143	C	1.498554	0.030173	-0.427830
C144	C	1.831888	0.363506	-0.094497
C145	C	1.165240	-0.303137	-0.852472
C146	C	1.498573	0.030196	-0.519139
C147	C	1.831906	0.363530	-0.185806
C148	C	1.165259	-0.303115	-0.925249
C149	C	1.498592	0.030218	-0.591916
C150	C	1.831925	0.363552	-0.258582
C151	C	1.165279	-0.303092	-1.016563
C152	C	1.498612	0.030241	-0.683230
C153	C	1.831946	0.363575	-0.349897
C154	C	1.165158	-0.303230	-0.178960
C155	C	1.498492	0.030104	0.154373
C156	C	1.831825	0.363437	0.487706
C157	C	1.165298	-0.303070	-0.089340
C158	C	1.498631	0.030263	0.243994
C159	C	1.831965	0.363597	0.577327
H160	H	1.258682	-0.542847	-0.294941
H161	H	1.592015	-0.209513	0.038392
H162	H	1.925348	0.123820	0.371726
H163	H	1.258879	-0.943686	-0.295032
H164	H	1.592213	-0.610353	0.038301
H165	H	1.925546	-0.277020	0.371634
H166	H	1.071720	-1.062984	-0.482010
H167	H	1.405053	-0.729651	-0.148677
H168	H	1.738387	-0.396317	0.184657
C169	C	1.056731	-0.533483	-0.496630
C170	C	1.390065	-0.200150	-0.163297
C171	C	1.723398	0.133183	0.170037
N172	N	1.013979	-0.506258	-0.539325
N173	N	1.347313	-0.172924	-0.205992
N174	N	1.680646	0.160409	0.127342
C175	C	1.056781	-0.671541	-0.496635
C176	C	1.390114	-0.338208	-0.163302
C177	C	1.723448	-0.004874	0.170032
N178	N	1.014040	-0.698785	-0.539322
N179	N	1.347374	-0.365452	-0.205989
N180	N	1.680707	-0.032118	0.127345
H181	H	1.258946	-1.062950	-0.295072
H182	H	1.592279	-0.729617	0.038262
H183	H	1.925613	-0.396283	0.371595
H184	H	1.071658	-0.943715	-0.481979
H185	H	1.404992	-0.610382	-0.148646
H186	H	1.738325	-0.277048	0.184687
H187	H	1.258746	-0.662113	-0.294974
H188	H	1.592079	-0.328779	0.038360
H189	H	1.925412	0.004554	0.371693
