data_functionalizedCrystal
_audit_creation_method	'MofGen! by Chris Wilmer'
_symmetry_space_group_name_H-M	'P1'
_symmetry_Int_Tables_number	1
_symmetry_cell_setting	triclinic
loop_
_symmetry_equiv_pos_as_xyz
  x,y,z
_cell_length_a	18.101398
_cell_length_b	18.101395
_cell_length_c	18.101390
_cell_angle_alpha	89.968664
_cell_angle_beta	89.975319
_cell_angle_gamma	90.026371
loop_
_atom_site_label
_atom_site_type_symbol
_atom_site_fract_x
_atom_site_fract_y
_atom_site_fract_z
Zn1	Zn	1.132124	-0.294895	-0.418847
Zn2	Zn	1.382124	-0.044895	-0.168847
Zn3	Zn	1.632124	0.205105	0.081153
Zn4	Zn	1.882124	0.455105	0.331153
Zn5	Zn	1.132019	-0.418752	-0.295009
Zn6	Zn	1.382019	-0.168752	-0.045009
Zn7	Zn	1.632019	0.081248	0.204991
Zn8	Zn	1.882019	0.331248	0.454991
Zn9	Zn	1.008282	-0.294918	-0.295008
Zn10	Zn	1.258282	-0.044918	-0.045008
Zn11	Zn	1.508282	0.205082	0.204992
Zn12	Zn	1.758282	0.455082	0.454992
Zn13	Zn	1.008233	-0.418689	-0.418797
Zn14	Zn	1.258233	-0.168689	-0.168797
Zn15	Zn	1.508233	0.081311	0.081203
Zn16	Zn	1.758233	0.331311	0.331203
O17	O	1.070164	-0.356813	-0.356915
O18	O	1.320164	-0.106813	-0.106915
O19	O	1.570164	0.143187	0.143085
O20	O	1.820164	0.393187	0.393085
O21	O	1.235743	-0.311341	-0.402441
O22	O	1.485743	-0.061341	-0.152441
O23	O	1.735743	0.188659	0.097559
O24	O	1.985743	0.438659	0.347559
O25	O	1.115581	-0.402361	-0.191376
O26	O	1.365581	-0.152361	0.058624
O27	O	1.615581	0.097639	0.308624
O28	O	1.865581	0.347639	0.558624
O29	O	1.024774	-0.191282	-0.311456
O30	O	1.274774	0.058718	-0.061456
O31	O	1.524774	0.308718	0.188544
O32	O	1.774774	0.558718	0.438544
O33	O	1.235666	-0.402338	-0.311457
O34	O	1.485666	-0.152338	-0.061457
O35	O	1.735666	0.097662	0.188543
O36	O	1.985666	0.347662	0.438543
O37	O	1.115760	-0.191265	-0.402440
O38	O	1.365760	0.058735	-0.152440
O39	O	1.615760	0.308735	0.097560
O40	O	1.865760	0.558735	0.347560
O41	O	1.024672	-0.311381	-0.191375
O42	O	1.274672	-0.061381	0.058625
O43	O	1.524672	0.188619	0.308625
O44	O	1.774672	0.438619	0.558625
O45	O	0.904642	-0.311320	-0.311408
O46	O	1.154642	-0.061320	-0.061408
O47	O	1.404642	0.188680	0.188592
O48	O	1.654642	0.438680	0.438592
O49	O	1.024691	-0.402231	-0.522437
O50	O	1.274691	-0.152231	-0.272437
O51	O	1.524691	0.097769	-0.022437
O52	O	1.774691	0.347769	0.227563
O53	O	0.904607	-0.402254	-0.402355
O54	O	1.154607	-0.152254	-0.152355
O55	O	1.404607	0.097746	0.097645
O56	O	1.654607	0.347746	0.347645
O57	O	1.115713	-0.311280	-0.522473
O58	O	1.365713	-0.061280	-0.272473
O59	O	1.615713	0.188720	-0.022473
O60	O	1.865713	0.438720	0.227527
O61	O	1.115534	-0.522376	-0.311409
O62	O	1.365534	-0.272376	-0.061409
O63	O	1.615534	-0.022376	0.188591
O64	O	1.865534	0.227624	0.438591
O65	O	1.024590	-0.522330	-0.402356
O66	O	1.274590	-0.272330	-0.152356
O67	O	1.524590	-0.022330	0.097644
O68	O	1.774590	0.227670	0.347644
C69	C	0.877754	-0.356783	-0.356877
C70	C	1.127754	-0.106783	-0.106877
C71	C	1.377754	0.143217	0.143123
C72	C	1.627754	0.393217	0.393123
C73	C	0.795440	-0.356788	-0.356878
C74	C	1.045440	-0.106788	-0.106878
C75	C	1.295440	0.143212	0.143122
C76	C	1.545440	0.393212	0.393122
C77	C	1.070065	-0.549224	-0.356893
C78	C	1.320065	-0.299224	-0.106893
C79	C	1.570065	-0.049224	0.143107
C80	C	1.820065	0.200776	0.393107
C81	C	1.070091	-0.631538	-0.356909
C82	C	1.320091	-0.381538	-0.106909
C83	C	1.570091	-0.131538	0.143091
C84	C	1.820091	0.118462	0.393091
C85	C	0.496349	-0.356835	-0.356940
C86	C	0.746349	-0.106835	-0.106940
C87	C	0.996349	0.143165	0.143060
C88	C	1.246349	0.393165	0.393060
C89	C	0.527672	-0.299336	-0.299997
C90	C	0.777672	-0.049336	-0.049997
C91	C	1.027672	0.200664	0.200003
C92	C	1.277672	0.450664	0.450003
C93	C	0.613290	-0.299490	-0.299754
C94	C	0.863290	-0.049490	-0.049754
C95	C	1.113290	0.200510	0.200246
C96	C	1.363290	0.450510	0.450246
C97	C	0.644731	-0.356811	-0.356909
C98	C	0.894731	-0.106811	-0.106909
C99	C	1.144731	0.143189	0.143091
C100	C	1.394731	0.393189	0.393091
C101	C	0.613613	-0.434824	-0.335587
C102	C	0.863613	-0.184824	-0.085587
C103	C	1.113613	0.065176	0.164413
C104	C	1.363613	0.315176	0.414413
C105	C	0.527968	-0.434505	-0.335191
C106	C	0.777968	-0.184505	-0.085191
C107	C	1.027968	0.065495	0.164809
C108	C	1.277968	0.315495	0.414809
C109	C	0.527964	-0.336998	-0.435339
C110	C	0.777964	-0.086998	-0.185339
C111	C	1.027964	0.163002	0.064661
C112	C	1.277964	0.413002	0.314661
C113	C	0.613615	-0.335261	-0.434911
C114	C	0.863615	-0.085261	-0.184911
C115	C	1.113615	0.164739	0.065089
C116	C	1.363615	0.414739	0.315089
C117	C	0.728591	-0.356803	-0.356893
C118	C	0.978591	-0.106803	-0.106893
C119	C	1.228591	0.143197	0.143107
C120	C	1.478591	0.393197	0.393107
C121	C	0.412489	-0.356848	-0.356954
C122	C	0.662489	-0.106848	-0.106954
C123	C	0.912489	0.143152	0.143046
C124	C	1.162489	0.393152	0.393046
C125	C	1.070253	-0.930629	-0.356949
C126	C	1.320253	-0.680629	-0.106949
C127	C	1.570253	-0.430629	0.143051
C128	C	1.820253	-0.180629	0.393051
C129	C	1.013166	-0.899306	-0.414312
C130	C	1.263166	-0.649306	-0.164312
C131	C	1.513166	-0.399306	0.085688
C132	C	1.763166	-0.149306	0.335688
C133	C	1.012895	-0.813688	-0.414133
C134	C	1.262895	-0.563688	-0.164133
C135	C	1.512895	-0.313688	0.085867
C136	C	1.762895	-0.063688	0.335867
C137	C	1.070172	-0.782247	-0.356930
C138	C	1.320172	-0.532247	-0.106930
C139	C	1.570172	-0.282247	0.143070
C140	C	1.820172	-0.032247	0.393070
C141	C	1.049043	-0.813402	-0.278878
C142	C	1.299043	-0.563402	-0.028878
C143	C	1.549043	-0.313402	0.221122
C144	C	1.799043	-0.063402	0.471122
C145	C	1.048675	-0.899047	-0.279221
C146	C	1.298675	-0.649047	-0.029221
C147	C	1.548675	-0.399047	0.220779
C148	C	1.798675	-0.149047	0.470779
C149	C	1.148595	-0.898978	-0.376950
C150	C	1.398595	-0.648978	-0.126950
C151	C	1.648595	-0.398978	0.123050
C152	C	1.898595	-0.148978	0.373050
C153	C	1.148134	-0.813327	-0.378661
C154	C	1.398134	-0.563327	-0.128661
C155	C	1.648134	-0.313327	0.121339
C156	C	1.898134	-0.063327	0.371339
C157	C	1.070128	-0.698387	-0.356914
C158	C	1.320128	-0.448387	-0.106914
C159	C	1.570128	-0.198387	0.143086
C160	C	1.820128	0.051613	0.393086
C161	C	1.070296	-1.014488	-0.356959
C162	C	1.320296	-0.764488	-0.106959
C163	C	1.570296	-0.514488	0.143041
C164	C	1.820296	-0.264488	0.393041
C165	C	1.263326	-0.356844	-0.356954
C166	C	1.513326	-0.106844	-0.106954
C167	C	1.763326	0.143156	0.143046
C168	C	2.013326	0.393156	0.393046
C169	C	1.345640	-0.356857	-0.356971
C170	C	1.595640	-0.106857	-0.106971
C171	C	1.845640	0.143143	0.143029
C172	C	2.095640	0.393143	0.393029
C173	C	1.070208	-0.356746	-0.550077
C174	C	1.320208	-0.106746	-0.300077
C175	C	1.570208	0.143254	-0.050077
C176	C	1.820208	0.393254	0.199923
C177	C	1.070227	-0.356717	-0.632391
C178	C	1.320227	-0.106717	-0.382391
C179	C	1.570227	0.143283	-0.132391
C180	C	1.820227	0.393283	0.117609
C181	C	1.070284	-0.163652	-0.356953
C182	C	1.320284	0.086348	-0.106953
C183	C	1.570284	0.336348	0.143047
C184	C	1.820284	0.586348	0.393047
C185	C	1.070335	-0.081337	-0.356970
C186	C	1.320335	0.168663	-0.106970
C187	C	1.570335	0.418663	0.143030
C188	C	1.820335	0.668663	0.393030
C189	C	1.070267	-0.356671	-0.931483
C190	C	1.320267	-0.106671	-0.681483
C191	C	1.570267	0.143329	-0.431483
C192	C	1.820267	0.393329	-0.181483
C193	C	1.127724	-0.299648	-0.900180
C194	C	1.377724	-0.049648	-0.650180
C195	C	1.627724	0.200352	-0.400180
C196	C	1.877724	0.450352	-0.150180
C197	C	1.127545	-0.299437	-0.814562
C198	C	1.377545	-0.049437	-0.564562
C199	C	1.627545	0.200563	-0.314562
C200	C	1.877545	0.450563	-0.064562
C201	C	1.070248	-0.356694	-0.783100
C202	C	1.320248	-0.106694	-0.533100
C203	C	1.570248	0.143306	-0.283100
C204	C	1.820248	0.393306	-0.033100
C205	C	0.992231	-0.335484	-0.814166
C206	C	1.242231	-0.085484	-0.564166
C207	C	1.492231	0.164516	-0.314166
C208	C	1.742231	0.414516	-0.064166
C209	C	0.992575	-0.335057	-0.899811
C210	C	1.242575	-0.085057	-0.649811
C211	C	1.492575	0.164943	-0.399811
C212	C	1.742575	0.414943	-0.149811
C213	C	1.090140	-0.435050	-0.899899
C214	C	1.340140	-0.185050	-0.649899
C215	C	1.590140	0.064950	-0.399899
C216	C	1.840140	0.314950	-0.149899
C217	C	1.091852	-0.434650	-0.814249
C218	C	1.341852	-0.184650	-0.564249
C219	C	1.591852	0.065350	-0.314249
C220	C	1.841852	0.315350	-0.064249
C221	C	1.070232	-0.356708	-0.699240
C222	C	1.320232	-0.106708	-0.449240
C223	C	1.570232	0.143292	-0.199240
C224	C	1.820232	0.393292	0.050760
C225	C	1.070278	-0.356655	-1.015342
C226	C	1.320278	-0.106655	-0.765342
C227	C	1.570278	0.143345	-0.515342
C228	C	1.820278	0.393345	-0.265342
C229	C	1.070163	-0.356827	-0.164505
C230	C	1.320163	-0.106827	0.085495
C231	C	1.570163	0.143173	0.335495
C232	C	1.820163	0.393173	0.585495
C233	C	1.070288	-0.356648	-0.082191
C234	C	1.320288	-0.106648	0.167809
C235	C	1.570288	0.143352	0.417809
C236	C	1.820288	0.393352	0.667809
H237	H	0.634330	-0.241640	-0.313119
H238	H	0.884330	0.008360	-0.063119
H239	H	1.134330	0.258360	0.186881
H240	H	1.384330	0.508360	0.436881
N241	N	0.499390	-0.262959	-0.461026
N242	N	0.749390	-0.012959	-0.211026
N243	N	0.999390	0.237041	0.038974
N244	N	1.249390	0.487041	0.288974
H245	H	0.465657	-0.241525	-0.422098
H246	H	0.715657	0.008475	-0.172098
H247	H	0.965657	0.258475	0.077902
H248	H	1.215657	0.508475	0.327902
H249	H	0.542364	-0.228382	-0.469554
H250	H	0.792364	0.021618	-0.219554
H251	H	1.042364	0.271618	0.030446
H252	H	1.292364	0.521618	0.280446
N253	N	1.034707	-0.491328	-0.926709
N254	N	1.284707	-0.241328	-0.676709
N255	N	1.534707	0.008672	-0.426709
N256	N	1.784707	0.258672	-0.176709
H257	H	1.035571	-0.493172	-0.982468
H258	H	1.285571	-0.243172	-0.732468
H259	H	1.535571	0.006828	-0.482468
H260	H	1.785571	0.256828	-0.232468
H261	H	1.047784	-0.541541	-0.906192
H262	H	1.297784	-0.291541	-0.656192
H263	H	1.547784	-0.041541	-0.406192
H264	H	1.797784	0.208459	-0.156192
N265	N	1.204609	-0.317020	-0.927472
N266	N	1.454609	-0.067020	-0.677472
N267	N	1.704609	0.182980	-0.427472
N268	N	1.954609	0.432980	-0.177472
H269	H	1.202945	-0.362019	-0.960395
H270	H	1.452945	-0.112019	-0.710395
H271	H	1.702945	0.137981	-0.460395
H272	H	1.952945	0.387981	-0.210395
H273	H	1.224367	-0.273531	-0.956353
H274	H	1.474367	-0.023531	-0.706353
H275	H	1.724367	0.226469	-0.456353
H276	H	1.974367	0.476469	-0.206353
H277	H	1.146032	-0.454361	-0.921548
H278	H	1.396032	-0.204361	-0.671548
H279	H	1.646032	0.045639	-0.421548
H280	H	1.896032	0.295639	-0.171548
H281	H	0.507101	-0.241309	-0.313215
H282	H	0.757101	0.008691	-0.063215
H283	H	1.007101	0.258691	0.186785
H284	H	1.257101	0.508691	0.436785
N285	N	0.973989	-0.785072	-0.256035
N286	N	1.223989	-0.535072	-0.006035
N287	N	1.473989	-0.285072	0.243965
N288	N	1.723989	-0.035072	0.493965
H289	H	0.935776	-0.801484	-0.293214
H290	H	1.185776	-0.551484	-0.043214
H291	H	1.435776	-0.301484	0.206786
H292	H	1.685776	-0.051484	0.456786
H293	H	0.960949	-0.805432	-0.205732
H294	H	1.210949	-0.555432	0.044268
H295	H	1.460949	-0.305432	0.294268
H296	H	1.710949	-0.055432	0.544268
H297	H	0.506122	-0.312301	-0.242242
H298	H	0.756122	-0.062301	0.007758
H299	H	1.006122	0.187699	0.257758
H300	H	1.256122	0.437699	0.507758
H301	H	1.114391	-0.241372	-0.794086
H302	H	1.364391	0.008628	-0.544086
H303	H	1.614391	0.258628	-0.294086
H304	H	1.864391	0.508628	-0.044086
N305	N	1.110525	-0.223161	-0.928697
N306	N	1.360525	0.026839	-0.678697
N307	N	1.610525	0.276839	-0.428697
N308	N	1.860525	0.526839	-0.178697
H309	H	1.065677	-0.225287	-0.961805
H310	H	1.315677	0.024713	-0.711805
H311	H	1.565677	0.274713	-0.461805
H312	H	1.815677	0.524713	-0.211805
H313	H	1.100291	-0.189187	-0.885656
H314	H	1.350291	0.060813	-0.635656
H315	H	1.600291	0.310813	-0.385656
H316	H	1.850291	0.560813	-0.135656
H317	H	1.026114	-0.792621	-0.472007
H318	H	1.276114	-0.542621	-0.222007
H319	H	1.526114	-0.292621	0.027993
H320	H	1.776114	-0.042621	0.277993
H321	H	0.507956	-0.451326	-0.277877
H322	H	0.757956	-0.201326	-0.027877
H323	H	1.007956	0.048674	0.222123
H324	H	1.257956	0.298674	0.472123
H325	H	1.149265	-0.450643	-0.793944
H326	H	1.399265	-0.200643	-0.543944
H327	H	1.649265	0.049357	-0.293944
H328	H	1.899265	0.299357	-0.043944
H329	H	0.633743	-0.312604	-0.241661
H330	H	0.883743	-0.062604	0.008339
H331	H	1.133743	0.187396	0.258339
H332	H	1.383743	0.437396	0.508339
N333	N	0.641965	-0.457503	-0.260487
N334	N	0.891965	-0.207503	-0.010487
N335	N	1.141965	0.042497	0.239513
N336	N	1.391965	0.292497	0.489513
H337	H	0.697708	-0.459684	-0.261526
H338	H	0.947708	-0.209684	-0.011526
H339	H	1.197708	0.040316	0.238474
H340	H	1.447708	0.290316	0.488474
H341	H	0.625498	-0.420228	-0.222396
H342	H	0.875498	-0.170228	0.027604
H343	H	1.125498	0.079772	0.277604
H344	H	1.375498	0.329772	0.527604
N345	N	0.936712	-0.927883	-0.396982
N346	N	1.186712	-0.677883	-0.146982
N347	N	1.436712	-0.427883	0.103018
N348	N	1.686712	-0.177883	0.353018
H349	H	0.900380	-0.907498	-0.434086
H350	H	1.150380	-0.657498	-0.184086
H351	H	1.400380	-0.407498	0.065914
H352	H	1.650380	-0.157498	0.315914
H353	H	0.936670	-0.983617	-0.399556
H354	H	1.186670	-0.733617	-0.149556
H355	H	1.436670	-0.483617	0.100444
H356	H	1.686670	-0.233617	0.350444
N357	N	1.102374	-0.786425	-0.220710
N358	N	1.352374	-0.536425	0.029290
N359	N	1.602374	-0.286425	0.279290
N360	N	1.852374	-0.036425	0.529290
H361	H	1.127421	-0.830122	-0.196708
H362	H	1.377421	-0.580122	0.053292
H363	H	1.627421	-0.330122	0.303292
H364	H	1.877421	-0.080122	0.553292
H365	H	1.140795	-0.753659	-0.244500
H366	H	1.390795	-0.503659	0.005500
H367	H	1.640795	-0.253659	0.255500
H368	H	1.890795	-0.003659	0.505500
N369	N	0.970257	-0.259168	-0.926295
N370	N	1.220257	-0.009168	-0.676295
N371	N	1.470257	0.240832	-0.426295
N372	N	1.720257	0.490832	-0.176295
H373	H	0.960289	-0.226307	-0.882335
H374	H	1.210289	0.023693	-0.632335
H375	H	1.460289	0.273693	-0.382335
H376	H	1.710289	0.523693	-0.132335
H377	H	1.011462	-0.237294	-0.956944
H378	H	1.261462	0.012706	-0.706944
H379	H	1.511462	0.262706	-0.456944
H380	H	1.761462	0.512706	-0.206944
H381	H	0.507708	-0.378878	-0.477766
H382	H	0.757708	-0.128878	-0.227766
H383	H	1.007708	0.121122	0.022234
H384	H	1.257708	0.371122	0.272234
H385	H	0.633959	-0.277852	-0.450989
H386	H	0.883959	-0.027852	-0.200989
H387	H	1.133959	0.222148	0.049011
H388	H	1.383959	0.472148	0.299011
N389	N	0.641961	-0.386690	-0.494126
N390	N	0.891961	-0.136690	-0.244126
N391	N	1.141961	0.113310	0.005874
N392	N	1.391961	0.363310	0.255874
H393	H	0.675523	-0.424860	-0.471125
H394	H	0.925523	-0.174860	-0.221125
H395	H	1.175523	0.075140	0.028875
H396	H	1.425523	0.325140	0.278875
H397	H	0.598872	-0.412205	-0.518719
H398	H	0.848872	-0.162205	-0.268719
H399	H	1.098872	0.087795	-0.018719
H400	H	1.348872	0.337795	0.231281
N401	N	0.500523	-0.493183	-0.387722
N402	N	0.750523	-0.243183	-0.137722
N403	N	1.000523	0.006817	0.112278
N404	N	1.250523	0.256817	0.362278
H405	H	0.469577	-0.530264	-0.359729
H406	H	0.719577	-0.280264	-0.109729
H407	H	0.969577	-0.030264	0.140271
H408	H	1.219577	0.219736	0.390271
H409	H	0.469578	-0.469406	-0.427588
H410	H	0.719578	-0.219406	-0.177588
H411	H	0.969578	0.030594	0.072412
H412	H	1.219578	0.280594	0.322412
H413	H	1.167859	-0.920523	-0.432895
H414	H	1.417859	-0.670523	-0.182895
H415	H	1.667859	-0.420523	0.067105
H416	H	1.917859	-0.170523	0.317105
H417	H	0.633978	-0.478814	-0.375763
H418	H	0.883978	-0.228814	-0.125763
H419	H	1.133978	0.021186	0.124237
H420	H	1.383978	0.271186	0.374237
H421	H	1.053046	-0.479420	-0.792829
H422	H	1.303046	-0.229420	-0.542829
H423	H	1.553046	0.020580	-0.292829
H424	H	1.803046	0.270580	-0.042829
H425	H	1.026255	-0.919850	-0.472374
H426	H	1.276255	-0.669850	-0.222374
H427	H	1.526255	-0.419850	0.027626
H428	H	1.776255	-0.169850	0.277626
H429	H	1.088451	-0.919770	-0.235023
H430	H	1.338451	-0.669770	0.014977
H431	H	1.588451	-0.419770	0.264977
H432	H	1.838451	-0.169770	0.514977
H433	H	0.954826	-0.793261	-0.400884
H434	H	1.204826	-0.543261	-0.150884
H435	H	1.454826	-0.293261	0.099116
H436	H	1.704826	-0.043261	0.349116
N437	N	0.972822	-0.925599	-0.256778
N438	N	1.222822	-0.675599	-0.006778
N439	N	1.472822	-0.425599	0.243222
N440	N	1.722822	-0.175599	0.493222
H441	H	0.939937	-0.881668	-0.246756
H442	H	1.189937	-0.631668	0.003244
H443	H	1.439937	-0.381668	0.253244
H444	H	1.689937	-0.131668	0.503244
H445	H	0.950938	-0.956221	-0.297946
H446	H	1.200938	-0.706221	-0.047946
H447	H	1.450938	-0.456221	0.202054
H448	H	1.700938	-0.206221	0.452054
H449	H	1.164068	-0.792961	-0.436103
H450	H	1.414068	-0.542961	-0.186103
H451	H	1.664068	-0.292961	0.063897
H452	H	1.914068	-0.042961	0.313897
N453	N	1.207461	-0.784972	-0.327361
N454	N	1.457461	-0.534972	-0.077361
N455	N	1.707461	-0.284972	0.172639
N456	N	1.957461	-0.034972	0.422639
H457	H	1.184539	-0.751430	-0.289132
H458	H	1.434539	-0.501430	-0.039132
H459	H	1.684539	-0.251430	0.210868
H460	H	1.934539	-0.001430	0.460868
H461	H	1.232134	-0.828056	-0.301911
H462	H	1.482134	-0.578056	-0.051911
H463	H	1.732134	-0.328056	0.198089
H464	H	1.982134	-0.078056	0.448089
H465	H	0.948309	-0.374782	-0.920516
H466	H	1.198309	-0.124782	-0.670516
H467	H	1.448309	0.125218	-0.420516
H468	H	1.698309	0.375218	-0.170516
H469	H	0.948259	-0.375737	-0.793784
H470	H	1.198259	-0.125737	-0.543784
H471	H	1.448259	0.124263	-0.293784
H472	H	1.698259	0.374263	-0.043784
N473	N	1.204937	-0.925804	-0.321611
N474	N	1.454937	-0.675804	-0.071611
N475	N	1.704937	-0.425804	0.178389
N476	N	1.954937	-0.175804	0.428389
H477	H	1.179880	-0.958300	-0.283765
H478	H	1.429880	-0.708300	-0.033765
H479	H	1.679880	-0.458300	0.216235
H480	H	1.929880	-0.208300	0.466235
H481	H	1.244444	-0.955023	-0.348021
H482	H	1.494444	-0.705023	-0.098021
H483	H	1.744444	-0.455023	0.151979
H484	H	1.994444	-0.205023	0.401979
H485	H	1.185396	-0.312720	-0.793559
H486	H	1.435396	-0.062720	-0.543559
H487	H	1.685396	0.187280	-0.293559
H488	H	1.935396	0.437280	-0.043559
H489	H	0.975078	-0.278826	-0.792724
H490	H	1.225078	-0.028826	-0.542724
H491	H	1.475078	0.221174	-0.292724
H492	H	1.725078	0.471174	-0.042724
