data_functionalizedCrystal
_audit_creation_method	'MofGen! by Chris Wilmer'
_symmetry_space_group_name_H-M	'P1'
_symmetry_Int_Tables_number	1
_symmetry_cell_setting	triclinic
loop_
_symmetry_equiv_pos_as_xyz
  x,y,z
_cell_length_a	10.723022
_cell_length_b	10.723022
_cell_length_c	9.798715
_cell_angle_alpha	89.998022
_cell_angle_beta	89.996609
_cell_angle_gamma	84.467226
loop_
_atom_site_label
_atom_site_type_symbol
_atom_site_fract_x
_atom_site_fract_y
_atom_site_fract_z
O1	O	1.657187	0.175015	-0.113478
O2	O	2.157187	0.675015	0.386522
O3	O	1.294035	0.191771	-0.113483
O4	O	1.794035	0.691771	0.386517
O5	O	1.483989	0.001817	-0.113475
O6	O	1.983989	0.501817	0.386525
O7	O	1.467233	0.364969	-0.113486
O8	O	1.967233	0.864969	0.386514
O9	O	1.483975	0.001816	0.113507
O10	O	1.983975	0.501816	0.613507
O11	O	1.294021	0.191770	0.113499
O12	O	1.794021	0.691770	0.613499
O13	O	1.657173	0.175015	0.113504
O14	O	2.157173	0.675015	0.613504
Zn15	Zn	1.475595	0.183392	0.149540
Zn16	Zn	1.975595	0.683392	0.649540
Zn17	Zn	1.475613	0.183393	-0.149519
Zn18	Zn	1.975613	0.683393	0.350481
O19	O	1.467219	0.364969	0.113496
O20	O	1.967219	0.864969	0.613496
C21	C	1.247528	0.190551	0.000008
C22	C	1.747528	0.690551	0.500008
C23	C	1.108974	0.186905	0.000006
C24	C	1.608974	0.686905	0.500006
C25	C	1.060413	0.077365	0.000009
C26	C	1.560413	0.577365	0.500009
C27	C	0.917210	0.073593	0.000007
C28	C	1.417210	0.573593	0.500007
C29	C	1.482763	-0.044683	0.000014
C30	C	1.982763	0.455317	0.500014
C31	C	1.479116	-0.183238	0.000009
C32	C	1.979116	0.316762	0.500009
C33	C	1.369576	-0.231798	0.000006
C34	C	1.869576	0.268202	0.500006
C35	C	1.365804	-0.375001	0.000001
C36	C	1.865804	0.124999	0.500001
C37	C	1.703680	0.176234	0.000010
C38	C	2.203680	0.676234	0.500010
C39	C	1.842234	0.179881	0.000003
C40	C	2.342234	0.679881	0.500003
C41	C	1.468445	0.411469	0.000004
C42	C	1.968445	0.911469	0.500004
C43	C	1.472092	0.550023	-0.000000
C44	C	1.972092	1.050023	0.500000
N45	N	1.475591	0.183391	0.353640
N46	N	1.975591	0.683391	0.853640
N47	N	1.475627	0.183384	-0.353619
N48	N	1.975627	0.683384	0.146381
C49	C	1.555347	0.103283	0.421420
C50	C	2.055347	0.603283	0.921420
C51	C	1.555367	0.103279	0.578582
C52	C	2.055367	0.603279	1.078582
H53	H	1.044531	0.277893	-0.000003
H54	H	1.544531	0.777893	0.499997
F55	F	1.386351	0.273028	0.429865
F56	F	1.886351	0.773028	0.929865
H57	H	1.278587	-0.167355	0.000013
H58	H	1.778587	0.332645	0.500013
H59	H	1.623612	0.034698	0.363100
H60	H	2.123612	0.534698	0.863100
F61	F	0.896871	0.302477	0.000010
F62	F	1.396871	0.802477	0.500010
F63	F	1.243213	-0.429646	-0.000013
F64	F	1.743213	0.070354	0.499987
H65	H	1.565884	-0.408174	-0.000048
H66	H	2.065884	0.091826	0.499952
H67	H	1.570105	-0.247680	0.000015
H68	H	2.070105	0.252320	0.500015
H69	H	1.623655	0.034700	0.636870
H70	H	2.123655	0.534700	1.136870
H71	H	1.124856	-0.013624	0.000005
H72	H	1.624856	0.486376	0.500005
F73	F	0.862565	-0.048999	0.000019
F74	F	1.362565	0.451001	0.500019
H75	H	1.407345	0.251976	0.588102
H76	H	1.907345	0.751976	1.088102
