data_functionalizedCrystal
_audit_creation_method	'MofGen! by Chris Wilmer'
_symmetry_space_group_name_H-M	'P1'
_symmetry_Int_Tables_number	1
_symmetry_cell_setting	triclinic
loop_
_symmetry_equiv_pos_as_xyz
  x,y,z
_cell_length_a	17.640112
_cell_length_b	19.805405
_cell_length_c	19.805399
_cell_angle_alpha	89.970699
_cell_angle_beta	78.823320
_cell_angle_gamma	78.748082
loop_
_atom_site_label
_atom_site_type_symbol
_atom_site_fract_x
_atom_site_fract_y
_atom_site_fract_z
Zn1	Zn	1.208324	0.060067	0.173856
Zn2	Zn	1.708324	0.560067	0.673856
Zn3	Zn	1.208224	0.173273	0.060682
Zn4	Zn	1.708224	0.673273	0.560682
Zn5	Zn	1.076150	0.082993	0.083526
Zn6	Zn	1.576150	0.582993	0.583526
Zn7	Zn	1.076108	0.196134	0.196664
Zn8	Zn	1.576108	0.696134	0.696664
O9	O	1.142202	0.128117	0.128682
O10	O	1.642202	0.628117	0.628682
O11	O	1.318917	0.055923	0.139737
O12	O	1.818917	0.555923	0.639737
O13	O	1.190681	0.161324	-0.031001
O14	O	1.690681	0.661324	0.468999
O15	O	1.093743	-0.014775	0.095524
O16	O	1.593743	0.485225	0.595524
O17	O	1.318844	0.139094	0.056588
O18	O	1.818844	0.639094	0.556588
O19	O	1.190850	-0.031619	0.161889
O20	O	1.690850	0.468381	0.661889
O21	O	1.093646	0.094995	-0.014217
O22	O	1.593646	0.594995	0.485783
O23	O	0.965538	0.117163	0.117640
O24	O	1.465538	0.617163	0.617640
O25	O	1.093670	0.178057	0.288351
O26	O	1.593670	0.678057	0.788351
O27	O	0.965507	0.200287	0.200762
O28	O	1.465507	0.700287	0.700762
O29	O	1.190809	0.078090	0.271594
O30	O	1.690809	0.578090	0.771594
O31	O	1.190639	0.271032	0.078705
O32	O	1.690639	0.771032	0.578705
O33	O	1.093574	0.287828	0.178611
O34	O	1.593574	0.787828	0.678611
C35	C	0.936844	0.163694	0.164156
C36	C	1.436844	0.663694	0.664156
C37	C	0.848991	0.178930	0.179348
C38	C	1.348991	0.678930	0.679348
C39	C	1.142113	0.303988	0.128665
C40	C	1.642113	0.803988	0.628665
C41	C	1.142147	0.379214	0.128667
C42	C	1.642147	0.879214	0.628667
C43	C	1.142246	0.128066	0.305217
C44	C	1.642246	0.628066	0.805217
C45	C	1.142265	0.128045	0.380446
C46	C	1.642265	0.628045	0.880446
C47	C	0.560025	0.012356	0.013277
C48	C	1.060025	0.512356	0.513277
C49	C	0.477474	0.026687	0.027561
C50	C	0.977474	0.526687	0.527561
C51	C	0.477496	0.113363	0.113967
C52	C	0.977496	0.613363	0.613967
C53	C	0.560049	0.099037	0.099692
C54	C	1.060049	0.599037	0.599692
C55	C	0.601307	0.048534	0.049346
C56	C	1.101307	0.548534	0.549346
C57	C	0.601330	0.135215	0.135761
C58	C	1.101330	0.635215	0.635761
C59	C	0.683876	0.120893	0.121485
C60	C	1.183876	0.620893	0.621485
C61	C	0.725140	0.070393	0.071140
C62	C	1.225140	0.570393	0.571140
C63	C	0.683853	0.034212	0.035070
C64	C	1.183853	0.534212	0.535070
C65	C	0.560071	0.185722	0.186103
C66	C	1.060071	0.685722	0.686103
C67	C	0.601352	0.221900	0.222173
C68	C	1.101352	0.721900	0.722173
C69	C	0.683899	0.207574	0.207900
C70	C	1.183899	0.707574	0.707900
C71	C	0.725163	0.157074	0.157555
C72	C	1.225163	0.657074	0.657555
C73	C	0.725187	0.243756	0.243970
C74	C	1.225187	0.743756	0.743970
C75	C	0.807733	0.229434	0.229694
C76	C	1.307733	0.729434	0.729694
C77	C	0.807709	0.142752	0.143279
C78	C	1.307709	0.642752	0.643279
C79	C	1.348361	0.092401	0.093070
C80	C	1.848361	0.592401	0.593070
C81	C	1.436214	0.077181	0.077895
C82	C	1.936214	0.577181	0.577895
C83	C	1.142312	-0.048445	0.128711
C84	C	1.642312	0.451555	0.628711
C85	C	1.142360	-0.123686	0.128723
C86	C	1.642360	0.376314	0.628723
C87	C	1.192738	0.405782	0.076683
C88	C	1.692738	0.905782	0.576683
C89	C	1.192771	0.476464	0.076692
C90	C	1.692771	0.976464	0.576692
C91	C	1.142209	0.520579	0.128684
C92	C	1.642209	1.020579	0.628684
C93	C	1.091616	0.494007	0.180673
C94	C	1.591616	0.994007	0.680673
C95	C	1.091587	0.423324	0.180666
C96	C	1.591587	0.923324	0.680666
C97	C	1.091733	0.779060	0.180703
C98	C	1.591733	1.279060	0.680703
C99	C	1.091764	0.849746	0.180705
C100	C	1.591764	1.349746	0.680705
C101	C	1.192917	0.832199	0.076729
C102	C	1.692917	1.332199	0.576729
C103	C	1.192888	0.761517	0.076722
C104	C	1.692888	1.261517	0.576722
C105	C	1.142298	0.734951	0.128713
C106	C	1.642298	1.234951	0.628713
C107	C	1.142263	0.658308	0.128703
C108	C	1.642263	1.158308	0.628703
C109	C	1.142240	0.597221	0.128691
C110	C	1.642240	1.097221	0.628691
C111	C	1.142203	0.128110	-0.047174
C112	C	1.642203	0.628110	0.452826
C113	C	1.142337	0.127914	-0.122429
C114	C	1.642337	0.627914	0.377571
C115	C	1.192846	0.075989	0.407066
C116	C	1.692846	0.575989	0.907066
C117	C	1.192854	0.075968	0.477753
C118	C	1.692854	0.575968	0.977753
C119	C	1.142284	0.128006	0.521818
C120	C	1.642284	0.628006	1.021818
C121	C	1.091698	0.180064	0.495195
C122	C	1.591698	0.680064	0.995195
C123	C	1.091686	0.180082	0.424509
C124	C	1.591686	0.680082	0.924509
C125	C	1.091742	0.179994	0.780260
C126	C	1.591742	0.679994	1.280260
C127	C	1.091759	0.179973	0.850950
C128	C	1.591759	0.679973	1.350950
C129	C	1.192910	0.075880	0.833504
C130	C	1.692910	0.575880	1.333504
C131	C	1.192899	0.075898	0.762818
C132	C	1.692899	0.575898	1.262818
C133	C	1.142309	0.127953	0.736201
C134	C	1.642309	0.627953	1.236201
C135	C	1.142300	0.127975	0.659555
C136	C	1.642300	0.627975	1.159555
C137	C	1.142297	0.127988	0.598463
C138	C	1.642297	0.627988	1.098463
H139	H	0.792354	0.058734	0.059515
H140	H	1.292354	0.558734	0.559515
H141	H	1.050520	0.222432	0.531079
H142	H	1.550520	0.722432	1.031079
C143	C	1.036000	0.542527	0.237865
C144	C	1.536000	1.042527	0.737865
H145	H	1.005871	0.516578	0.268828
H146	H	1.505871	1.016578	0.768828
H147	H	1.001590	0.576108	0.217901
H148	H	1.501590	1.076108	0.717901
H149	H	1.066233	0.564820	0.262162
H150	H	1.566233	1.064820	0.762162
C151	C	1.036080	0.237241	0.750993
C152	C	1.536080	0.737241	1.250993
H153	H	1.005966	0.268229	0.787362
H154	H	1.505966	0.768229	1.287362
H155	H	1.001658	0.217304	0.729379
H156	H	1.501658	0.717304	1.229379
H157	H	1.066275	0.261517	0.718186
H158	H	1.566275	0.761517	1.218186
C159	C	0.605415	-0.043206	-0.042094
C160	C	1.105415	0.456794	0.457906
H161	H	0.569008	-0.062704	-0.061533
H162	H	1.069008	0.437296	0.438467
H163	H	0.637636	-0.078248	-0.021714
H164	H	1.137636	0.421752	0.478286
H165	H	0.637594	-0.022937	-0.077203
H166	H	1.137594	0.477063	0.422797
H167	H	1.050392	0.401694	0.222997
H168	H	1.550392	0.901694	0.722997
H169	H	0.841345	0.258893	0.259065
H170	H	1.341345	0.758893	0.759065
H171	H	1.234044	0.033581	0.499422
H172	H	1.734044	0.533581	0.999422
H173	H	1.234028	0.033616	0.371191
H174	H	1.734028	0.533616	0.871191
H175	H	1.050539	0.757435	0.223035
H176	H	1.550539	1.257435	0.723035
C177	C	1.248358	0.357262	0.019493
C178	C	1.748358	0.857262	0.519493
H179	H	1.278498	0.383209	-0.011462
H180	H	1.778498	0.883209	0.488538
H181	H	1.218136	0.334964	-0.004805
H182	H	1.718136	0.834964	0.495195
H183	H	1.282770	0.323683	0.039465
H184	H	1.782770	0.823683	0.539465
H185	H	1.233967	0.498092	0.034361
H186	H	1.733967	0.998092	0.534361
C187	C	1.248522	0.018655	0.714350
C188	C	1.748522	0.518655	1.214350
H189	H	1.278643	-0.012356	0.740329
H190	H	1.778643	0.487644	1.240329
H191	H	1.282940	0.038587	0.680822
H192	H	1.782940	0.538587	1.180822
H193	H	1.218292	-0.005594	0.692007
H194	H	1.718292	0.494406	1.192007
C195	C	1.036066	0.237356	0.395224
C196	C	1.536066	0.737356	0.895224
H197	H	1.005961	0.268353	0.431589
H198	H	1.505961	0.768353	0.931589
H199	H	1.001634	0.217450	0.373594
H200	H	1.501634	0.717450	0.873594
H201	H	1.066300	0.261614	0.362429
H202	H	1.566300	0.761614	0.862429
C203	C	0.729242	-0.021351	-0.020302
C204	C	1.229242	0.478649	0.479698
H205	H	0.692835	-0.040849	-0.039740
H206	H	1.192835	0.459151	0.460260
H207	H	0.761463	-0.056393	0.000079
H208	H	1.261463	0.443607	0.500079
H209	H	0.761422	-0.001082	-0.055410
H210	H	1.261422	0.498918	0.444590
H211	H	0.443866	-0.002782	-0.001810
H212	H	0.943866	0.497218	0.498190
H213	H	1.234100	0.033492	0.855184
H214	H	1.734100	0.533492	1.355184
H215	H	0.443892	0.154485	0.154956
H216	H	0.943892	0.654485	0.654956
C217	C	0.853102	0.087196	0.087903
C218	C	1.353102	0.587196	0.587903
H219	H	0.908175	0.083847	0.084572
H220	H	1.408175	0.583847	0.584572
H221	H	0.839550	0.099388	0.044750
H222	H	1.339550	0.599388	0.544750
H223	H	0.839594	0.044073	0.100235
H224	H	1.339594	0.544073	0.600235
C225	C	0.469272	0.201486	0.201803
C226	C	0.969272	0.701486	0.701803
H227	H	0.450612	0.236753	0.236944
H228	H	0.950612	0.736753	0.736944
H229	H	0.450606	0.161065	0.216816
H230	H	0.950606	0.661065	0.716816
H231	H	0.450581	0.216380	0.161331
H232	H	0.950581	0.716380	0.661331
C233	C	1.036124	0.237213	0.899422
C234	C	1.536124	0.737213	1.399422
H235	H	1.005987	0.268215	0.873448
H236	H	1.505987	0.768215	1.373448
H237	H	1.066343	0.261465	0.921771
H238	H	1.566343	0.761465	1.421771
H239	H	1.001710	0.217268	0.932947
H240	H	1.501710	0.717268	1.432947
C241	C	0.555964	0.277447	0.277552
C242	C	1.055964	0.777447	0.777552
H243	H	0.500890	0.280793	0.280893
H244	H	1.000890	0.780793	0.780893
H245	H	0.569475	0.320568	0.265234
H246	H	1.069475	0.820568	0.765234
H247	H	0.569519	0.265239	0.320704
H248	H	1.069519	0.765239	0.820704
C249	C	0.679797	0.299308	0.299344
C250	C	1.179797	0.799308	0.799344
H251	H	0.624723	0.302654	0.302682
H252	H	1.124723	0.802654	0.802682
H253	H	0.693310	0.342427	0.287022
H254	H	1.193310	0.842427	0.787022
H255	H	0.693347	0.287104	0.342499
H256	H	1.193347	0.787104	0.842499
H257	H	1.234058	0.725601	0.034384
H258	H	1.734058	1.225601	0.534384
H259	H	1.234113	0.853838	0.034398
H260	H	1.734113	1.353838	0.534398
H261	H	1.050591	0.885663	0.223047
H262	H	1.550591	1.385663	0.723047
