data_functionalizedCrystal
_audit_creation_method	'MofGen! by Chris Wilmer'
_symmetry_space_group_name_H-M	'P1'
_symmetry_Int_Tables_number	1
_symmetry_cell_setting	triclinic
loop_
_symmetry_equiv_pos_as_xyz
  x,y,z
_cell_length_a	19.188933
_cell_length_b	19.188930
_cell_length_c	9.730223
_cell_angle_alpha	90.008088
_cell_angle_beta	90.002055
_cell_angle_gamma	83.145175
loop_
_atom_site_label
_atom_site_type_symbol
_atom_site_fract_x
_atom_site_fract_y
_atom_site_fract_z
O1	O	0.926143	0.087172	0.114259
O2	O	0.722832	0.098905	0.114274
O3	O	0.830355	-0.008617	0.114240
O4	O	0.818620	0.194694	0.114294
O5	O	0.830347	-0.008617	-0.114340
O6	O	0.722824	0.098905	-0.114306
O7	O	0.926135	0.087172	-0.114320
Zn8	Zn	0.824479	0.093039	-0.150605
Zn9	Zn	0.824489	0.093039	0.150559
O10	O	0.818613	0.194694	-0.114286
C11	C	0.696817	0.098525	-0.000014
C12	C	0.619313	0.097384	-0.000010
C13	C	0.829971	-0.034628	-0.000054
C14	C	0.828830	-0.112132	-0.000066
C15	C	0.066061	0.089239	0.124572
C16	C	0.138886	0.090307	0.124578
C17	C	0.175299	0.090844	-0.000020
C18	C	0.138884	0.090295	-0.124634
C19	C	0.066062	0.089220	-0.124636
N20	N	0.284316	0.132263	-0.092754
N21	N	0.353493	0.133285	-0.092743
C22	C	0.394707	0.094082	-0.000022
N23	N	0.364129	0.053826	0.092710
N24	N	0.294945	0.052806	0.092703
C25	C	0.254262	0.092009	-0.000032
C26	C	0.510079	0.095784	0.124590
C27	C	0.582905	0.096848	0.124590
C28	C	0.582900	0.096843	-0.124625
C29	C	0.510076	0.095772	-0.124622
C30	C	0.473669	0.095246	-0.000011
C31	C	0.891921	-0.157056	-0.000077
C32	C	0.890849	-0.229880	-0.000055
C33	C	0.826683	-0.257777	-0.000049
C34	C	0.763584	-0.212843	-0.000030
C35	C	0.764658	-0.140021	-0.000039
N36	N	0.777633	-0.365782	-0.077836
N37	N	0.776618	-0.434961	-0.077831
C38	C	0.823445	-0.477185	-0.000021
N39	N	0.871337	-0.447620	0.077766
N40	N	0.872354	-0.378435	0.077755
C41	C	0.825512	-0.336739	-0.000040
C42	C	0.885378	-0.601073	-0.000007
C43	C	0.884304	-0.673898	0.000024
C44	C	0.757037	-0.656860	0.000035
C45	C	0.758113	-0.584037	0.000018
C46	C	0.822286	-0.556148	-0.000009
C47	C	0.952150	0.087553	-0.000029
C48	C	1.029655	0.088694	-0.000024
C49	C	0.818997	0.220705	0.000011
C50	C	0.820137	0.298210	0.000032
N51	N	0.824477	0.093039	-0.356141
C52	C	0.866691	0.135282	-0.428054
C53	C	0.866703	0.135278	-0.571937
C54	C	0.782280	0.050785	-0.571982
C55	C	0.782272	0.050786	-0.428102
N56	N	0.824496	0.093034	0.356095
H57	H	0.168533	0.090754	0.226043
H58	H	0.901057	0.169686	-0.369467
H59	H	0.944175	-0.134354	-0.000095
C60	C	0.960253	-0.279307	-0.000081
C61	C	1.030838	-0.248631	-0.000114
C62	C	1.100241	-0.298057	-0.000145
C63	C	1.099059	-0.378158	-0.000143
C64	C	1.028471	-0.408838	-0.000111
C65	C	0.959068	-0.359413	-0.000080
H66	H	1.031716	-0.189332	-0.000115
H67	H	1.152496	-0.275345	-0.000169
H68	H	1.150435	-0.414745	-0.000166
H69	H	1.027593	-0.468138	-0.000109
H70	H	0.906813	-0.382125	-0.000055
C71	C	0.695253	-0.090601	-0.000039
C72	C	0.642613	-0.093570	0.118662
C73	C	0.573208	-0.044148	0.118657
C74	C	0.556443	0.008243	-0.000048
C75	C	0.609084	0.011215	-0.118757
C76	C	0.678489	-0.038207	-0.118753
H77	H	0.655023	-0.132356	0.206542
H78	H	0.534240	-0.046349	0.206535
H79	H	0.505065	0.044828	-0.000051
H80	H	0.596675	0.050000	-0.206638
H81	H	0.717458	-0.036007	-0.206630
H82	H	0.747918	0.016386	-0.630590
H83	H	0.901079	0.169676	-0.630481
H84	H	0.747896	0.016383	-0.369550
H85	H	0.036424	0.088807	0.226041
H86	H	0.711340	-0.235562	-0.000023
C87	C	0.178934	0.090888	-0.261694
C88	C	0.259035	0.092075	-0.261699
C89	C	0.299085	0.092664	-0.398765
C90	C	0.259034	0.092065	-0.535826
C91	C	0.178929	0.090878	-0.535827
C92	C	0.138879	0.090289	-0.398761
H93	H	0.288687	0.092518	-0.160233
H94	H	0.358384	0.093543	-0.398763
H95	H	0.288681	0.092501	-0.637290
H96	H	0.149277	0.090435	-0.637292
H97	H	0.079579	0.089410	-0.398762
H98	H	0.612547	0.097278	-0.226076
H99	H	0.036419	0.088779	-0.226101
C100	C	0.622958	0.097442	0.261654
C101	C	0.664915	0.158792	0.295926
C102	C	0.704971	0.159385	0.432990
C103	C	0.703070	0.098629	0.535783
C104	C	0.661112	0.037275	0.501513
C105	C	0.621056	0.036682	0.364448
H106	H	0.666324	0.203771	0.219831
H107	H	0.736032	0.204803	0.458358
H108	H	0.732722	0.099068	0.637246
H109	H	0.659703	-0.007705	0.577608
H110	H	0.589995	-0.008737	0.339080
H111	H	0.480435	0.095353	0.226055
H112	H	0.480433	0.095331	-0.226082
H113	H	0.937631	-0.578365	-0.000023
H114	H	0.704792	-0.679573	0.000046
C115	C	0.953710	-0.723316	0.000015
C116	C	1.006342	-0.720345	-0.118699
C117	C	1.075749	-0.769764	-0.118708
C118	C	1.092524	-0.822154	-0.000004
C119	C	1.039890	-0.825127	0.118719
C120	C	0.970483	-0.775709	0.118728
H121	H	0.993925	-0.681561	-0.206579
H122	H	1.114712	-0.767563	-0.206595
H123	H	1.143903	-0.858737	-0.000010
H124	H	1.052307	-0.863912	0.206599
H125	H	0.931521	-0.777910	0.206615
H126	H	0.706738	-0.547459	0.000019
