data_functionalizedCrystal
_audit_creation_method	'MofGen! by Chris Wilmer'
_symmetry_space_group_name_H-M	'P1'
_symmetry_Int_Tables_number	1
_symmetry_cell_setting	triclinic
loop_
_symmetry_equiv_pos_as_xyz
  x,y,z
_cell_length_a	18.101398
_cell_length_b	19.121111
_cell_length_c	18.101389
_cell_angle_alpha	87.578568
_cell_angle_beta	89.985654
_cell_angle_gamma	87.531715
loop_
_atom_site_label
_atom_site_type_symbol
_atom_site_fract_x
_atom_site_fract_y
_atom_site_fract_z
Zn1	Zn	1.119549	0.279724	-0.431217
Zn2	Zn	1.369549	0.529724	-0.181217
Zn3	Zn	1.619549	0.779724	0.068783
Zn4	Zn	1.869549	1.029724	0.318783
Zn5	Zn	1.114167	0.397160	-0.312655
Zn6	Zn	1.364167	0.647160	-0.062655
Zn7	Zn	1.614167	0.897160	0.187345
Zn8	Zn	1.864167	1.147160	0.437345
Zn9	Zn	0.995708	0.279723	-0.307400
Zn10	Zn	1.245708	0.529723	-0.057400
Zn11	Zn	1.495708	0.779723	0.192600
Zn12	Zn	1.745708	1.029723	0.442600
Zn13	Zn	0.990382	0.397136	-0.436464
Zn14	Zn	1.240382	0.647136	-0.186464
Zn15	Zn	1.490382	0.897136	0.063536
Zn16	Zn	1.740382	1.147136	0.313536
O17	O	1.054952	0.338436	-0.371934
O18	O	1.304952	0.588436	-0.121934
O19	O	1.554952	0.838436	0.128066
O20	O	1.804952	1.088436	0.378066
O21	O	1.222468	0.295313	-0.415493
O22	O	1.472468	0.545313	-0.165493
O23	O	1.722468	0.795313	0.084507
O24	O	1.972468	1.045313	0.334507
O25	O	1.098430	0.381591	-0.208326
O26	O	1.348430	0.631591	0.041674
O27	O	1.598430	0.881591	0.291674
O28	O	1.848430	1.131591	0.541674
O29	O	1.016618	0.181438	-0.319429
O30	O	1.266618	0.431438	-0.069429
O31	O	1.516618	0.681438	0.180571
O32	O	1.766618	0.931438	0.430571
O33	O	1.218514	0.381593	-0.328386
O34	O	1.468514	0.631593	-0.078386
O35	O	1.718514	0.881593	0.171614
O36	O	1.968514	1.131593	0.421614
O37	O	1.107603	0.181439	-0.410397
O38	O	1.357603	0.431439	-0.160397
O39	O	1.607603	0.681439	0.089603
O40	O	1.857603	0.931439	0.339603
O41	O	1.011399	0.295310	-0.204464
O42	O	1.261399	0.545310	0.045536
O43	O	1.511399	0.795310	0.295536
O44	O	1.761399	1.045310	0.545536
O45	O	0.891369	0.295287	-0.324517
O46	O	1.141369	0.545287	-0.074517
O47	O	1.391369	0.795287	0.175483
O48	O	1.641369	1.045287	0.425483
O49	O	1.007540	0.381551	-0.539401
O50	O	1.257540	0.631551	-0.289401
O51	O	1.507540	0.881551	-0.039401
O52	O	1.757540	1.131551	0.210599
O53	O	0.887456	0.381550	-0.419340
O54	O	1.137456	0.631550	-0.169340
O55	O	1.387456	0.881550	0.080660
O56	O	1.637456	1.131550	0.330660
O57	O	1.102438	0.295289	-0.535546
O58	O	1.352438	0.545289	-0.285546
O59	O	1.602438	0.795289	-0.035546
O60	O	1.852438	1.045289	0.214454
O61	O	1.093266	0.495442	-0.333474
O62	O	1.343266	0.745442	-0.083474
O63	O	1.593266	0.995442	0.166526
O64	O	1.843266	1.245442	0.416526
O65	O	1.002321	0.495424	-0.424436
O66	O	1.252321	0.745424	-0.174436
O67	O	1.502321	0.995424	0.075564
O68	O	1.752321	1.245424	0.325564
C69	C	0.862542	0.338416	-0.371928
C70	C	1.112542	0.588416	-0.121928
C71	C	1.362542	0.838416	0.128072
C72	C	1.612542	1.088416	0.378072
C73	C	0.780228	0.338425	-0.371944
C74	C	1.030228	0.588425	-0.121944
C75	C	1.280228	0.838425	0.128056
C76	C	1.530228	1.088425	0.378056
C77	C	0.629519	0.338438	-0.371943
C78	C	0.879519	0.588438	-0.121943
C79	C	1.129519	0.838438	0.128057
C80	C	1.379519	1.088438	0.378057
C81	C	0.595724	0.392796	-0.431519
C82	C	0.845724	0.642796	-0.181519
C83	C	1.095724	0.892796	0.068481
C84	C	1.345724	1.142796	0.318481
C85	C	0.510096	0.393016	-0.431359
C86	C	0.760096	0.643016	-0.181359
C87	C	1.010096	0.893016	0.068641
C88	C	1.260096	1.143016	0.318641
C89	C	0.481136	0.338451	-0.371944
C90	C	0.731136	0.588451	-0.121944
C91	C	0.981136	0.838451	0.128056
C92	C	1.231136	1.088451	0.378056
C93	C	0.511301	0.358190	-0.294689
C94	C	0.761301	0.608190	-0.044689
C95	C	1.011301	0.858190	0.205311
C96	C	1.261301	1.108190	0.455311
C97	C	0.596929	0.358577	-0.295037
C98	C	0.846929	0.608577	-0.045037
C99	C	1.096929	0.858577	0.204963
C100	C	1.346929	1.108577	0.454963
C101	C	0.601334	0.264206	-0.388934
C102	C	0.851334	0.514206	-0.138934
C103	C	1.101334	0.764206	0.111066
C104	C	1.351334	1.014206	0.361066
C105	C	0.515665	0.264613	-0.390673
C106	C	0.765665	0.514613	-0.140673
C107	C	1.015665	0.764613	0.109327
C108	C	1.265665	1.014613	0.359327
C109	C	0.397276	0.338457	-0.371939
C110	C	0.647276	0.588457	-0.121939
C111	C	0.897276	0.838457	0.128061
C112	C	1.147276	1.088457	0.378061
C113	C	0.713378	0.338434	-0.371943
C114	C	0.963378	0.588434	-0.121943
C115	C	1.213378	0.838434	0.128057
C116	C	1.463378	1.088434	0.378057
C117	C	1.046651	0.520917	-0.380111
C118	C	1.296651	0.770917	-0.130111
C119	C	1.546651	1.020917	0.119889
C120	C	1.796651	1.270917	0.369889
C121	C	1.043168	0.598984	-0.383634
C122	C	1.293168	0.848984	-0.133634
C123	C	1.543168	1.098984	0.116366
C124	C	1.793168	1.348984	0.366366
C125	C	1.088919	0.635646	-0.337969
C126	C	1.338919	0.885646	-0.087969
C127	C	1.588919	1.135646	0.162031
C128	C	1.838919	1.385646	0.412031
C129	C	1.085647	0.708997	-0.341286
C130	C	1.335647	0.958997	-0.091286
C131	C	1.585647	1.208997	0.158714
C132	C	1.835647	1.458997	0.408714
C133	C	1.036621	0.745686	-0.390266
C134	C	1.286621	0.995686	-0.140266
C135	C	1.536621	1.245686	0.109734
C136	C	1.786621	1.495686	0.359734
C137	C	0.990869	0.709019	-0.435935
C138	C	1.240869	0.959019	-0.185935
C139	C	1.490869	1.209019	0.064065
C140	C	1.740869	1.459019	0.314065
C141	C	0.994145	0.635669	-0.432621
C142	C	1.244145	0.885669	-0.182621
C143	C	1.494145	1.135669	0.067379
C144	C	1.744145	1.385669	0.317379
C145	C	1.024363	0.967158	-0.402644
C146	C	1.274363	1.217158	-0.152644
C147	C	1.524363	1.467158	0.097356
C148	C	1.774363	1.717158	0.347356
C149	C	1.021089	1.040513	-0.405953
C150	C	1.271089	1.290513	-0.155953
C151	C	1.521089	1.540513	0.094047
C152	C	1.771089	1.790513	0.344047
C153	C	1.115869	1.040486	-0.311305
C154	C	1.365869	1.290486	-0.061305
C155	C	1.615869	1.540486	0.188695
C156	C	1.865869	1.790486	0.438695
C157	C	1.119137	0.967134	-0.307991
C158	C	1.369137	1.217134	-0.057991
C159	C	1.619137	1.467134	0.192009
C160	C	1.869137	1.717134	0.442009
C161	C	1.073388	0.930474	-0.353664
C162	C	1.323388	1.180474	-0.103664
C163	C	1.573388	1.430474	0.146336
C164	C	1.823388	1.680474	0.396336
C165	C	1.033274	0.820663	-0.393656
C166	C	1.283274	1.070663	-0.143656
C167	C	1.533274	1.320663	0.106344
C168	C	1.783274	1.570663	0.356344
C169	C	1.076739	0.855498	-0.350277
C170	C	1.326739	1.105498	-0.100277
C171	C	1.576739	1.355498	0.149723
C172	C	1.826739	1.605498	0.399723
C173	C	1.248113	0.338456	-0.371941
C174	C	1.498113	0.588456	-0.121941
C175	C	1.748113	0.838456	0.128059
C176	C	1.998113	1.088456	0.378059
C177	C	1.330426	0.338464	-0.371943
C178	C	1.580426	0.588464	-0.121943
C179	C	1.830426	0.838464	0.128057
C180	C	2.080426	1.088464	0.378057
C181	C	1.063299	1.155241	-0.363751
C182	C	1.313299	1.405241	-0.113751
C183	C	1.563299	1.655241	0.136249
C184	C	1.813299	1.905241	0.386249
C185	C	1.066839	1.077175	-0.360288
C186	C	1.316839	1.327175	-0.110288
C187	C	1.566839	1.577175	0.139712
C188	C	1.816839	1.827175	0.389712
C189	C	1.054995	0.338418	-0.565095
C190	C	1.304995	0.588418	-0.315095
C191	C	1.554995	0.838418	-0.065095
C192	C	1.804995	1.088418	0.184905
C193	C	1.055014	0.338410	-0.647409
C194	C	1.305014	0.588410	-0.397409
C195	C	1.555014	0.838410	-0.147409
C196	C	1.805014	1.088410	0.102591
C197	C	1.055063	0.338279	-0.946494
C198	C	1.305063	0.588279	-0.696494
C199	C	1.555063	0.838279	-0.446494
C200	C	1.805063	1.088279	-0.196494
C201	C	0.995166	0.392380	-0.917587
C202	C	1.245166	0.642380	-0.667587
C203	C	1.495166	0.892380	-0.417587
C204	C	1.745166	1.142380	-0.167587
C205	C	0.995310	0.392631	-0.831980
C206	C	1.245310	0.642631	-0.581980
C207	C	1.495310	0.892631	-0.331980
C208	C	1.745310	1.142631	-0.081980
C209	C	1.055038	0.338344	-0.798115
C210	C	1.305038	0.588344	-0.548115
C211	C	1.555038	0.838344	-0.298115
C212	C	1.805038	1.088344	-0.048115
C213	C	1.132160	0.358437	-0.830110
C214	C	1.382160	0.608437	-0.580110
C215	C	1.632160	0.858437	-0.330110
C216	C	1.882160	1.108437	-0.080110
C217	C	1.131824	0.358792	-0.915771
C218	C	1.381824	0.608792	-0.665771
C219	C	1.631824	0.858792	-0.415771
C220	C	1.881824	1.108792	-0.165771
C221	C	1.038522	0.263964	-0.911581
C222	C	1.288522	0.513964	-0.661581
C223	C	1.538522	0.763964	-0.411581
C224	C	1.788522	1.013964	-0.161581
C225	C	1.036766	0.264393	-0.825950
C226	C	1.286766	0.514393	-0.575950
C227	C	1.536766	0.764393	-0.325950
C228	C	1.786766	1.014393	-0.075950
C229	C	1.055029	0.338380	-0.714257
C230	C	1.305029	0.588380	-0.464257
C231	C	1.555029	0.838380	-0.214257
C232	C	1.805029	1.088380	0.035743
C233	C	1.055077	0.338245	-1.030352
C234	C	1.305077	0.588245	-0.780352
C235	C	1.555077	0.838245	-0.530352
C236	C	1.805077	1.088245	-0.280352
C237	C	1.054953	0.338403	-0.179522
C238	C	1.304953	0.588403	0.070478
C239	C	1.554953	0.838403	0.320478
C240	C	1.804953	1.088403	0.570478
C241	C	1.055087	0.338212	-0.097200
C242	C	1.305087	0.588212	0.152800
C243	C	1.555087	0.838212	0.402800
C244	C	1.805087	1.088212	0.652800
H245	H	0.614433	0.412829	-0.280295
H246	H	0.864433	0.662829	-0.030295
H247	H	1.114433	0.912829	0.219705
H248	H	1.364433	1.162829	0.469705
H249	H	0.981175	1.070383	-0.445850
H250	H	1.231175	1.320383	-0.195850
H251	H	1.481175	1.570383	0.054150
H252	H	1.731175	1.820383	0.304150
H253	H	1.116659	0.825624	-0.310400
H254	H	1.366659	1.075624	-0.060400
H255	H	1.616659	1.325624	0.189600
H256	H	1.866659	1.575624	0.439600
H257	H	1.153116	1.070343	-0.274122
H258	H	1.403116	1.320343	-0.024122
H259	H	1.653116	1.570343	0.225878
H260	H	1.903116	1.820343	0.475878
F261	F	0.483375	0.376925	-0.506356
F262	F	0.733375	0.626925	-0.256356
F263	F	0.983375	0.876925	-0.006356
F264	F	1.233375	1.126925	0.243644
F265	F	0.938696	0.748068	-0.488067
F266	F	1.188696	0.998068	-0.238067
F267	F	1.438696	1.248068	0.011933
F268	F	1.688696	1.498068	0.261933
H269	H	0.993356	0.850543	-0.433534
H270	H	1.243356	1.100543	-0.183534
H271	H	1.493356	1.350543	0.066466
H272	H	1.743356	1.600543	0.316466
F273	F	1.171325	0.928093	-0.255869
F274	F	1.421325	1.178093	-0.005869
F275	F	1.671325	1.428093	0.244131
F276	F	1.921325	1.678093	0.494131
H277	H	1.077475	0.221945	-0.802650
H278	H	1.327475	0.471945	-0.552650
H279	H	1.577475	0.721945	-0.302650
H280	H	1.827475	0.971945	-0.052650
H281	H	1.177842	0.320271	-0.808041
H282	H	1.427842	0.570271	-0.558041
H283	H	1.677842	0.820271	-0.308041
H284	H	1.927842	1.070271	-0.058041
F285	F	0.975671	0.928150	-0.451252
F286	F	1.225671	1.178150	-0.201252
F287	F	1.475671	1.428150	0.048748
F288	F	1.725671	1.678150	0.298748
F289	F	0.962600	0.244589	-0.798506
F290	F	1.212600	0.494589	-0.548506
F291	F	1.462600	0.744589	-0.298506
F292	F	1.712600	0.994589	-0.048506
H293	H	1.146237	0.413117	-0.938194
H294	H	1.396237	0.663117	-0.688194
H295	H	1.646237	0.913117	-0.438194
H296	H	1.896237	1.163117	-0.188194
F297	F	0.620598	0.464285	-0.417322
F298	F	0.870598	0.714285	-0.167322
F299	F	1.120598	0.964285	0.082678
F300	F	1.370598	1.214285	0.332678
F301	F	1.191869	0.309492	-0.940656
F302	F	1.441869	0.559492	-0.690656
F303	F	1.691869	0.809492	-0.440656
F304	F	1.941869	1.059492	-0.190656
H305	H	0.623770	0.246169	-0.444144
H306	H	0.873770	0.496169	-0.194144
H307	H	1.123770	0.746169	0.055856
H308	H	1.373770	0.996169	0.305856
F309	F	0.480071	0.428327	-0.274999
F310	F	0.730071	0.678327	-0.024999
F311	F	0.980071	0.928327	0.225001
F312	F	1.230071	1.178327	0.475001
F313	F	0.920424	0.376192	-0.803761
F314	F	1.170424	0.626192	-0.553761
F315	F	1.420424	0.876192	-0.303761
F316	F	1.670424	1.126192	-0.053761
H317	H	0.616891	0.380627	-0.489083
H318	H	0.866891	0.630627	-0.239083
H319	H	1.116891	0.880627	0.010917
H320	H	1.366891	1.130627	0.260917
F321	F	0.945453	0.596651	-0.481226
F322	F	1.195453	0.846651	-0.231226
F323	F	1.445453	1.096651	0.018774
F324	F	1.695453	1.346651	0.268774
H325	H	0.487101	0.448026	-0.420346
H326	H	0.737101	0.698026	-0.170346
H327	H	0.987101	0.948026	0.079654
H328	H	1.237101	1.198026	0.329654
F329	F	0.626265	0.309058	-0.235246
F330	F	0.876265	0.559058	0.014754
F331	F	1.126265	0.809058	0.264754
F332	F	1.376265	1.059058	0.514754
H333	H	1.122901	0.738844	-0.304101
H334	H	1.372901	0.988844	-0.054101
H335	H	1.622901	1.238844	0.195899
H336	H	1.872901	1.488844	0.445899
F337	F	0.920040	0.376110	-0.943768
F338	F	1.170040	0.626110	-0.693768
F339	F	1.420040	0.876110	-0.443768
F340	F	1.670040	1.126110	-0.193768
H341	H	1.082188	0.223656	-0.930037
H342	H	1.332188	0.473656	-0.680037
H343	H	1.582188	0.723656	-0.430037
H344	H	1.832188	0.973656	-0.180037
F345	F	1.008901	0.463932	-0.948979
F346	F	1.258901	0.713932	-0.698979
F347	F	1.508901	0.963932	-0.448979
F348	F	1.758901	1.213932	-0.198979
H349	H	1.146891	0.412185	-0.811081
H350	H	1.396891	0.662185	-0.561081
H351	H	1.646891	0.912185	-0.311081
H352	H	1.896891	1.162185	-0.061081
H353	H	1.005960	0.447715	-0.813971
H354	H	1.255960	0.697715	-0.563971
H355	H	1.505960	0.947715	-0.313971
H356	H	1.755960	1.197715	-0.063971
F357	F	0.486963	0.308028	-0.235265
F358	F	0.736963	0.558028	0.014735
F359	F	0.986963	0.808028	0.264735
F360	F	1.236963	1.058028	0.514735
H361	H	0.983437	0.245658	-0.932354
H362	H	1.233437	0.495658	-0.682354
H363	H	1.483437	0.745658	-0.432354
H364	H	1.733437	0.995658	-0.182354
H365	H	1.128838	0.605778	-0.298082
H366	H	1.378838	0.855778	-0.048082
H367	H	1.628838	1.105778	0.201918
H368	H	1.878838	1.355778	0.451918
F369	F	0.490218	0.208880	-0.337793
F370	F	0.740218	0.458880	-0.087793
F371	F	0.990218	0.708880	0.162207
F372	F	1.240218	0.958880	0.412207
F373	F	0.490017	0.245148	-0.464966
F374	F	0.740017	0.495148	-0.214966
F375	F	0.990017	0.745148	0.035034
F376	F	1.240017	0.995148	0.285034
H377	H	0.623431	0.223710	-0.345506
H378	H	0.873431	0.473710	-0.095506
H379	H	1.123431	0.723710	0.154494
H380	H	1.373431	0.973710	0.404494
