data_functionalizedCrystal
_audit_creation_method	'MofGen! by Chris Wilmer'
_symmetry_space_group_name_H-M	'P1'
_symmetry_Int_Tables_number	1
_symmetry_cell_setting	triclinic
loop_
_symmetry_equiv_pos_as_xyz
  x,y,z
_cell_length_a	15.995350
_cell_length_b	15.995350
_cell_length_c	14.472311
_cell_angle_alpha	90.001458
_cell_angle_beta	90.006054
_cell_angle_gamma	83.492375
loop_
_atom_site_label
_atom_site_type_symbol
_atom_site_fract_x
_atom_site_fract_y
_atom_site_fract_z
O1	O	0.107931	1.110986	0.076758
O2	O	0.607931	1.610986	0.576758
O3	O	0.121258	0.867211	0.076776
O4	O	0.621258	1.367211	0.576776
O5	O	-0.007293	0.995762	0.076766
O6	O	0.492707	1.495762	0.576766
O7	O	0.236482	0.982434	0.076769
O8	O	0.736482	1.482434	0.576769
O9	O	-0.007306	0.995750	-0.076916
O10	O	0.492694	1.495750	0.423084
O11	O	0.121246	0.867199	-0.076906
O12	O	0.621246	1.367199	0.423094
O13	O	0.107918	1.110974	-0.076924
O14	O	0.607918	1.610974	0.423076
Cu15	Cu	0.114581	0.989086	-0.090947
Cu16	Cu	0.614581	1.489086	0.409053
Cu17	Cu	0.114596	0.989099	0.090800
Cu18	Cu	0.614596	1.489099	0.590800
O19	O	0.236470	0.982423	-0.076913
O20	O	0.736470	1.482423	0.423087
C21	C	0.120701	0.836010	-0.000062
C22	C	0.620701	1.336010	0.499938
C23	C	0.119049	0.743060	-0.000055
C24	C	0.619049	1.243060	0.499945
C25	C	0.113117	0.405312	-0.000074
C26	C	0.613117	0.905312	0.499926
C27	C	0.021565	0.452746	-0.000418
C28	C	0.521565	0.952746	0.499582
C29	C	0.023217	0.549436	-0.000065
C30	C	0.523217	1.049436	0.499935
C31	C	0.116060	0.572873	-0.000065
C32	C	0.616060	1.072873	0.499935
C33	C	0.161223	0.531792	0.087692
C34	C	0.661223	1.031792	0.587692
C35	C	0.158923	0.435156	0.087759
C36	C	0.658923	0.935156	0.587759
C37	C	0.160801	0.434804	-0.087007
C38	C	0.660801	0.934804	0.412993
C39	C	0.160779	0.531750	-0.088160
C40	C	0.660779	1.031750	0.411840
C41	C	0.117727	0.667570	-0.000057
C42	C	0.617727	1.167570	0.499943
C43	C	0.111452	0.310614	-0.000076
C44	C	0.611452	0.810614	0.499924
C45	C	-0.038494	0.995205	-0.000073
C46	C	0.461506	1.495205	0.499927
C47	C	-0.131444	0.993553	-0.000068
C48	C	0.368556	1.493553	0.499932
C49	C	-0.469192	0.987621	-0.000071
C50	C	0.030808	1.487621	0.499929
C51	C	-0.421758	0.896069	0.000281
C52	C	0.078242	1.396069	0.500281
C53	C	-0.325068	0.897721	-0.000066
C54	C	0.174932	1.397721	0.499934
C55	C	-0.301631	0.990564	-0.000069
C56	C	0.198369	1.490564	0.499931
C57	C	-0.342716	1.035714	-0.087831
C58	C	0.157284	1.535714	0.412169
C59	C	-0.439352	1.033414	-0.087904
C60	C	0.060648	1.533414	0.412096
C61	C	-0.439696	1.035318	0.086861
C62	C	0.060304	1.535318	0.586861
C63	C	-0.342750	1.035297	0.088021
C64	C	0.157250	1.535297	0.588021
C65	C	-0.206934	0.992231	-0.000071
C66	C	0.293066	1.492231	0.499929
C67	C	-0.563890	0.985956	-0.000075
C68	C	-0.063890	1.485956	0.499925
C69	C	0.267671	0.982980	-0.000072
C70	C	0.767671	1.482980	0.499928
C71	C	0.360621	0.984631	-0.000071
C72	C	0.860621	1.484631	0.499929
C73	C	0.108476	1.142175	-0.000083
C74	C	0.608476	1.642175	0.499917
C75	C	0.110127	1.235125	-0.000084
C76	C	0.610127	1.735125	0.499916
N77	N	0.114570	0.989082	-0.218778
N78	N	0.614570	1.489082	0.281222
C79	C	0.114581	0.989091	-0.407278
C80	C	0.614581	1.489091	0.092722
C81	C	0.045819	1.057892	-0.446486
C82	C	0.545819	1.557892	0.053514
C83	C	0.046001	1.058142	-0.553574
C84	C	0.546001	1.558142	-0.053574
C85	C	0.114589	0.989100	-0.592869
C86	C	0.614589	1.489100	-0.092869
C87	C	0.202062	1.007820	-0.553977
C88	C	0.702062	1.507820	-0.053977
C89	C	0.201654	1.008309	-0.446855
C90	C	0.701654	1.508309	0.053145
C91	C	0.096657	0.901363	-0.446763
C92	C	0.596657	1.401363	0.053237
C93	C	0.094677	0.901957	-0.553891
C94	C	0.594677	1.401957	-0.053891
C95	C	0.114600	0.989104	-0.697757
C96	C	0.614600	1.489104	-0.197757
C97	C	0.114576	0.989089	-0.302390
C98	C	0.614576	1.489089	0.197610
N99	N	0.114600	0.989109	0.218631
N100	N	0.614600	1.489109	0.718631
H101	H	0.125999	0.416853	0.153359
H102	H	0.625999	0.916853	0.653359
H103	H	0.034216	0.883285	-0.419754
H104	H	0.534216	1.383285	0.080246
H105	H	0.226140	0.402908	0.091741
H106	H	0.726140	0.902908	0.591741
H107	H	0.229432	0.545917	0.090955
H108	H	0.729432	1.045917	0.590955
C109	C	-0.287422	0.849445	-0.085189
C110	C	0.212578	1.349445	0.414811
H111	H	-0.228130	0.850282	-0.085686
H112	H	0.271870	1.350282	0.414314
H113	H	-0.310907	0.875403	-0.139782
H114	H	0.189093	1.375403	0.360218
H115	H	-0.299993	0.792852	-0.082604
H116	H	0.200007	1.292852	0.417396
C117	C	-0.322005	1.126762	0.095178
C118	C	0.177995	1.626762	0.595178
H119	H	-0.287847	1.138921	0.044306
H120	H	0.212153	1.638921	0.544306
H121	H	-0.292655	1.133858	0.151190
H122	H	0.207345	1.633858	0.651190
H123	H	-0.372721	1.163940	0.094431
H124	H	0.127279	1.663940	0.594431
H125	H	-0.441357	0.859634	-0.062299
H126	H	0.058643	1.359634	0.437701
C127	C	0.007753	0.882746	-0.588238
C128	C	0.507753	1.382746	-0.088238
H129	H	-0.016308	0.927638	-0.626179
H130	H	0.483692	1.427638	-0.126179
H131	H	-0.027921	0.876721	-0.536765
H132	H	0.472079	1.376721	-0.036765
H133	H	0.013866	0.832030	-0.622984
H134	H	0.513866	1.332030	-0.122984
H135	H	0.127810	0.559061	-0.153082
H136	H	0.627810	1.059061	0.346918
H137	H	0.228482	0.547114	-0.093461
H138	H	0.728482	1.047114	0.406539
H139	H	0.129865	0.560171	0.153002
H140	H	0.629865	1.060171	0.653002
C141	C	-0.041826	1.043176	-0.589104
C142	C	0.458174	1.543176	-0.089104
H143	H	-0.077940	1.036891	-0.538069
H144	H	0.422060	1.536891	-0.038069
H145	H	-0.037434	0.993571	-0.625701
H146	H	0.462566	1.493571	-0.125701
H147	H	-0.064300	1.089855	-0.625448
H148	H	0.435700	1.589855	-0.125448
H149	H	0.130865	0.414264	-0.153524
H150	H	0.630865	0.914264	0.346476
H151	H	0.228301	0.403043	-0.087600
H152	H	0.728301	0.903043	0.412400
C153	C	-0.027882	0.427714	-0.085433
C154	C	0.472118	0.927714	0.414567
H155	H	0.006860	0.388106	-0.121478
H156	H	0.506860	0.888106	0.378522
H157	H	-0.044719	0.476294	-0.121566
H158	H	0.455281	0.976294	0.378434
H159	H	-0.076289	0.403278	-0.065700
H160	H	0.423711	0.903278	0.434300
H161	H	-0.314340	1.004345	-0.153137
H162	H	0.185660	1.504345	0.346863
H163	H	0.141492	0.848387	-0.580637
H164	H	0.641492	1.348387	-0.080637
H165	H	-0.471456	1.102819	0.087449
H166	H	0.028544	1.602819	0.587449
H167	H	0.254253	0.959947	-0.420917
H168	H	0.754253	1.459947	0.079083
C169	C	-0.464086	0.988914	-0.176515
C170	C	0.035914	1.488914	0.323485
H171	H	-0.415096	0.972406	-0.212127
H172	H	0.084904	1.472406	0.287873
H173	H	-0.502060	1.026318	-0.211606
H174	H	-0.002060	1.526318	0.288394
H175	H	-0.490347	0.940549	-0.160475
H176	H	0.009653	1.440549	0.339525
C177	C	-0.286659	0.849765	0.084911
C178	C	0.213341	1.349765	0.584911
H179	H	-0.330144	0.829092	0.119954
H180	H	0.169856	1.329092	0.619954
H181	H	-0.258365	0.886661	0.122043
H182	H	0.241635	1.386661	0.622043
H183	H	-0.247782	0.803936	0.065156
H184	H	0.252218	1.303936	0.565156
C185	C	-0.446792	0.846633	0.085292
C186	C	0.053208	1.346633	0.585292
H187	H	-0.486401	0.881379	0.121331
H188	H	0.013599	1.381379	0.621331
H189	H	-0.398214	0.829797	0.121433
H190	H	0.101786	1.329797	0.621433
H191	H	-0.471230	0.798225	0.065552
H192	H	0.028770	1.298225	0.565552
C193	C	-0.024748	0.587845	-0.085038
C194	C	0.475252	1.087845	0.414962
H195	H	-0.023799	0.647124	-0.084937
H196	H	0.476201	1.147124	0.415063
H197	H	-0.081374	0.575351	-0.082863
H198	H	0.418626	1.075351	0.417137
H199	H	0.001348	0.564760	-0.139743
H200	H	0.501348	1.064760	0.360257
C201	C	-0.323642	1.127858	-0.092252
C202	C	0.176358	1.627858	0.407748
H203	H	-0.349073	1.153971	-0.145828
H204	H	0.150927	1.653971	0.354172
H205	H	-0.264506	1.129463	-0.094881
H206	H	0.235494	1.629463	0.405119
H207	H	-0.345599	1.156994	-0.038772
H208	H	0.154401	1.656994	0.461228
H209	H	-0.012513	0.577299	0.062951
H210	H	0.487487	1.077299	0.562951
C211	C	0.164378	0.832198	-0.412492
C212	C	0.664378	1.332198	0.087508
H213	H	0.203391	0.856620	-0.374307
H214	H	0.703391	1.356620	0.125693
H215	H	0.193083	0.805648	-0.463985
H216	H	0.693083	1.305648	0.036015
H217	H	0.138435	0.791666	-0.378017
H218	H	0.638435	1.291666	0.121983
H219	H	-0.460230	1.005390	0.153379
H220	H	0.039770	1.505390	0.653379
H221	H	0.057134	1.122633	-0.419552
H222	H	0.557134	1.622633	0.080448
H223	H	-0.315496	1.002286	0.152945
H224	H	0.184504	1.502286	0.652945
H225	H	-0.019408	1.046995	-0.420715
H226	H	0.480592	1.546995	0.079285
C227	C	0.061533	1.146094	-0.588198
C228	C	0.561533	1.646094	-0.088198
H229	H	0.067764	1.181808	-0.536795
H230	H	0.567764	1.681808	-0.036795
H231	H	0.015114	1.169021	-0.624655
H232	H	0.515114	1.669021	-0.124655
H233	H	0.111322	1.141714	-0.624494
H234	H	0.611322	1.641714	-0.124494
C235	C	0.222912	1.094725	-0.413094
C236	C	0.722912	1.594725	0.086906
H237	H	0.231712	1.129203	-0.464847
H238	H	0.731712	1.629203	0.035153
H239	H	0.272525	1.087470	-0.376526
H240	H	0.772525	1.587470	0.123474
H241	H	0.177599	1.120823	-0.377096
H242	H	0.677599	1.620823	0.122904
H243	H	0.254479	0.959027	-0.579428
H244	H	0.754479	1.459027	-0.079428
C245	C	0.223843	1.093248	-0.590208
C246	C	0.723843	1.593248	-0.090208
H247	H	0.179749	1.117614	-0.629025
H248	H	0.679749	1.617614	-0.129025
H249	H	0.274801	1.085152	-0.624414
H250	H	0.774801	1.585152	-0.124414
H251	H	0.230399	1.129688	-0.539529
H252	H	0.730399	1.629688	-0.039529
H253	H	-0.014857	0.433157	0.062168
H254	H	0.485143	0.933157	0.562168
H255	H	-0.471600	1.100630	-0.091888
H256	H	0.028400	1.600630	0.408112
