data_functionalizedCrystal
_audit_creation_method	'MofGen! by Chris Wilmer'
_symmetry_space_group_name_H-M	'P1'
_symmetry_Int_Tables_number	1
_symmetry_cell_setting	triclinic
loop_
_symmetry_equiv_pos_as_xyz
  x,y,z
_cell_length_a	19.188905
_cell_length_b	10.540539
_cell_length_c	18.266242
_cell_angle_alpha	90.002342
_cell_angle_beta	89.987252
_cell_angle_gamma	96.169976
loop_
_atom_site_label
_atom_site_type_symbol
_atom_site_fract_x
_atom_site_fract_y
_atom_site_fract_z
O1	O	0.927212	-0.158317	-0.060998
O2	O	1.177212	0.091683	0.189002
O3	O	1.427212	0.341683	0.439002
O4	O	1.677212	0.591683	0.689002
O5	O	0.724041	-0.179683	-0.060973
O6	O	0.974041	0.070317	0.189027
O7	O	1.224041	0.320317	0.439027
O8	O	1.474041	0.570317	0.689027
O9	O	0.830262	0.015809	-0.060985
O10	O	1.080262	0.265809	0.189015
O11	O	1.330262	0.515809	0.439015
O12	O	1.580262	0.765809	0.689015
O13	O	0.820992	-0.353810	-0.060986
O14	O	1.070992	-0.103810	0.189014
O15	O	1.320992	0.146190	0.439014
O16	O	1.570992	0.396190	0.689014
O17	O	0.830250	0.015814	0.060777
O18	O	1.080250	0.265814	0.310777
O19	O	1.330250	0.515814	0.560777
O20	O	1.580250	0.765814	0.810777
O21	O	0.724030	-0.179679	0.060789
O22	O	0.974030	0.070321	0.310789
O23	O	1.224030	0.320321	0.560789
O24	O	1.474030	0.570321	0.810789
O25	O	0.927201	-0.158313	0.060764
O26	O	1.177201	0.091687	0.310764
O27	O	1.427201	0.341687	0.560764
O28	O	1.677201	0.591687	0.810764
Zn29	Zn	0.825613	-0.168995	0.080109
Zn30	Zn	1.075613	0.081005	0.330109
Zn31	Zn	1.325613	0.331005	0.580109
Zn32	Zn	1.575613	0.581005	0.830109
Zn33	Zn	0.825629	-0.169001	-0.080318
Zn34	Zn	1.075629	0.080999	0.169682
Zn35	Zn	1.325629	0.330999	0.419682
Zn36	Zn	1.575629	0.580999	0.669682
O37	O	0.820980	-0.353805	0.060776
O38	O	1.070980	-0.103805	0.310776
O39	O	1.320980	0.146195	0.560776
O40	O	1.570980	0.396195	0.810776
C41	C	0.698019	-0.178994	-0.000089
C42	C	0.948019	0.071006	0.249911
C43	C	1.198019	0.321006	0.499911
C44	C	1.448019	0.571006	0.749911
C45	C	0.620500	-0.176933	-0.000079
C46	C	0.870500	0.073067	0.249921
C47	C	1.120500	0.323067	0.499921
C48	C	1.370500	0.573067	0.749921
C49	C	0.584108	-0.175946	-0.066453
C50	C	0.834108	0.074054	0.183547
C51	C	1.084108	0.324054	0.433547
C52	C	1.334108	0.574054	0.683547
C53	C	0.511272	-0.173995	-0.066463
C54	C	0.761272	0.076005	0.183537
C55	C	1.011272	0.326005	0.433537
C56	C	1.261272	0.576005	0.683537
C57	C	0.474831	-0.173006	-0.000094
C58	C	0.724831	0.076994	0.249906
C59	C	0.974831	0.326994	0.499906
C60	C	1.224831	0.576994	0.749906
C61	C	0.511232	-0.174001	0.066290
C62	C	0.761232	0.075999	0.316290
C63	C	1.011232	0.325999	0.566290
C64	C	1.261232	0.575999	0.816290
C65	C	0.584066	-0.175965	0.066297
C66	C	0.834066	0.074035	0.316297
C67	C	1.084066	0.324035	0.566297
C68	C	1.334066	0.574035	0.816297
N69	N	0.365304	-0.097688	0.049299
N70	N	0.615304	0.152312	0.299299
N71	N	0.865304	0.402312	0.549299
N72	N	1.115304	0.652312	0.799299
N73	N	0.296115	-0.095820	0.049287
N74	N	0.546115	0.154180	0.299287
N75	N	0.796115	0.404180	0.549287
N76	N	1.046115	0.654180	0.799287
C77	C	0.255385	-0.167093	-0.000111
C78	C	0.505385	0.082907	0.249889
C79	C	0.755385	0.332907	0.499889
C80	C	1.005385	0.582907	0.749889
N81	N	0.286460	-0.240289	-0.049509
N82	N	0.536460	0.009711	0.200491
N83	N	0.786460	0.259711	0.450491
N84	N	1.036460	0.509711	0.700491
N85	N	0.355656	-0.242151	-0.049500
N86	N	0.605656	0.007849	0.200500
N87	N	0.855656	0.257849	0.450500
N88	N	1.105656	0.507849	0.700500
C89	C	0.395855	-0.170878	-0.000094
C90	C	0.645855	0.079122	0.249906
C91	C	0.895855	0.329122	0.499906
C92	C	1.145855	0.579122	0.749906
C93	C	0.140015	-0.163992	-0.066500
C94	C	0.390015	0.086008	0.183500
C95	C	0.640015	0.336008	0.433500
C96	C	0.890015	0.586008	0.683500
C97	C	0.067177	-0.162049	-0.066506
C98	C	0.317177	0.087951	0.183494
C99	C	0.567177	0.337951	0.433494
C100	C	0.817177	0.587951	0.683494
C101	C	0.067139	-0.162043	0.066248
C102	C	0.317139	0.087957	0.316248
C103	C	0.567139	0.337957	0.566248
C104	C	0.817139	0.587957	0.816248
C105	C	0.139976	-0.163998	0.066252
C106	C	0.389976	0.086002	0.316252
C107	C	0.639976	0.336002	0.566252
C108	C	0.889976	0.586002	0.816252
C109	C	0.176410	-0.164967	-0.000124
C110	C	0.426410	0.085033	0.249876
C111	C	0.676410	0.335033	0.499876
C112	C	0.926410	0.585033	0.749876
C113	C	0.829561	0.063099	-0.000106
C114	C	1.079561	0.313099	0.249894
C115	C	1.329561	0.563099	0.499894
C116	C	1.579561	0.813099	0.749894
C117	C	0.827481	0.204001	-0.000109
C118	C	1.077481	0.454001	0.249891
C119	C	1.327481	0.704001	0.499891
C120	C	1.577481	0.954001	0.749891
C121	C	0.953223	-0.159002	-0.000122
C122	C	1.203223	0.090998	0.249878
C123	C	1.453223	0.340998	0.499878
C124	C	1.703223	0.590998	0.749878
C125	C	1.030742	-0.161063	-0.000137
C126	C	1.280742	0.088937	0.249863
C127	C	1.530742	0.338937	0.499863
C128	C	1.780742	0.588937	0.749863
C129	C	0.821681	-0.401095	-0.000105
C130	C	1.071681	-0.151095	0.249895
C131	C	1.321681	0.098905	0.499895
C132	C	1.571681	0.348905	0.749895
C133	C	0.823761	-0.541997	-0.000106
C134	C	1.073761	-0.291997	0.249894
C135	C	1.323761	-0.041997	0.499894
C136	C	1.573761	0.208003	0.749894
N137	N	0.825608	-0.168990	0.189596
N138	N	1.075608	0.081010	0.439596
N139	N	1.325608	0.331010	0.689596
N140	N	1.575608	0.581010	0.939596
C141	C	0.747779	0.385658	-0.000373
C142	C	0.997779	0.635658	0.249627
C143	C	1.247779	0.885658	0.499627
C144	C	1.497779	1.135658	0.749627
C145	C	0.749887	0.239087	-0.000099
C146	C	0.999887	0.489087	0.249901
C147	C	1.249887	0.739087	0.499901
C148	C	1.499887	0.989087	0.749901
C149	C	0.864816	0.266490	0.069418
C150	C	1.114816	0.516490	0.319418
C151	C	1.364816	0.766490	0.569418
C152	C	1.614816	1.016490	0.819418
C153	C	0.862168	0.412976	0.069477
C154	C	1.112168	0.662976	0.319477
C155	C	1.362168	0.912976	0.569477
C156	C	1.612168	1.162976	0.819477
C157	C	0.863759	0.413524	-0.068989
C158	C	1.113759	0.663524	0.181011
C159	C	1.363759	0.913524	0.431011
C160	C	1.613759	1.163524	0.681011
C161	C	0.864474	0.266558	-0.069909
C162	C	1.114474	0.516558	0.180091
C163	C	1.364474	0.766558	0.430091
C164	C	1.614474	1.016558	0.680091
N165	N	0.825640	-0.168996	-0.189805
N166	N	1.075640	0.081004	0.060195
N167	N	1.325640	0.331004	0.310195
N168	N	1.575640	0.581004	0.560195
C169	C	0.872675	-0.082455	0.771867
C170	C	1.122675	0.167545	1.021867
C171	C	1.372675	0.417545	1.271867
C172	C	1.622675	0.667545	1.521867
C173	C	0.872676	-0.082458	0.695222
C174	C	1.122676	0.167542	0.945222
C175	C	1.372676	0.417542	1.195222
C176	C	1.622676	0.667542	1.445222
C177	C	0.825629	-0.168990	0.656908
C178	C	1.075629	0.081010	0.906908
C179	C	1.325629	0.331010	1.156908
C180	C	1.575629	0.581010	1.406908
C181	C	0.778590	-0.255546	0.695245
C182	C	1.028590	-0.005546	0.945245
C183	C	1.278590	0.244454	1.195245
C184	C	1.528590	0.494454	1.445245
C185	C	0.778595	-0.255549	0.771889
C186	C	1.028595	-0.005549	1.021889
C187	C	1.278595	0.244451	1.271889
C188	C	1.528595	0.494451	1.521889
N189	N	0.763926	-0.185449	0.536589
N190	N	1.013926	0.064551	0.786589
N191	N	1.263926	0.314551	1.036589
N192	N	1.513926	0.564551	1.286589
N193	N	0.763923	-0.185438	0.463781
N194	N	1.013923	0.064562	0.713781
N195	N	1.263923	0.314562	0.963781
N196	N	1.513923	0.564562	1.213781
C197	C	0.825612	-0.168987	0.425986
C198	C	1.075612	0.081013	0.675986
C199	C	1.325612	0.331013	0.925986
C200	C	1.575612	0.581013	1.175986
N201	N	0.887306	-0.152522	0.463749
N202	N	1.137306	0.097478	0.713749
N203	N	1.387306	0.347478	0.963749
N204	N	1.637306	0.597478	1.213749
N205	N	0.887308	-0.152526	0.536564
N206	N	1.137308	0.097474	0.786564
N207	N	1.387308	0.347474	1.036564
N208	N	1.637308	0.597474	1.286564
C209	C	0.825619	-0.168996	0.573801
C210	C	1.075619	0.081004	0.823801
C211	C	1.325619	0.331004	1.073801
C212	C	1.575619	0.581004	1.323801
C213	C	0.872653	-0.082445	0.304551
C214	C	1.122653	0.167555	0.554551
C215	C	1.372653	0.417555	0.804551
C216	C	1.622653	0.667555	1.054551
C217	C	0.872655	-0.082457	0.227905
C218	C	1.122655	0.167543	0.477905
C219	C	1.372655	0.417543	0.727905
C220	C	1.622655	0.667543	0.977905
C221	C	0.778562	-0.255539	0.227929
C222	C	1.028562	-0.005539	0.477929
C223	C	1.278562	0.244461	0.727929
C224	C	1.528562	0.494461	0.977929
C225	C	0.778566	-0.255533	0.304574
C226	C	1.028566	-0.005533	0.554574
C227	C	1.278566	0.244467	0.804574
C228	C	1.528566	0.494467	1.054574
C229	C	0.825611	-0.168979	0.342880
C230	C	1.075611	0.081021	0.592880
C231	C	1.325611	0.331021	0.842880
C232	C	1.575611	0.581021	1.092880
H233	H	0.169681	-0.164794	-0.120547
H234	H	0.419681	0.085206	0.129453
H235	H	0.669681	0.335206	0.379453
H236	H	0.919681	0.585206	0.629453
H237	H	0.919805	0.461994	-0.069464
H238	H	1.169805	0.711994	0.180536
H239	H	1.419805	0.961994	0.430536
H240	H	1.669805	1.211994	0.680536
H241	H	0.740292	-0.326023	0.803096
H242	H	0.990292	-0.076023	1.053096
H243	H	1.240292	0.173977	1.303096
H244	H	1.490292	0.423977	1.553096
H245	H	0.613768	-0.176735	-0.120502
H246	H	0.863768	0.073265	0.129498
H247	H	1.113768	0.323265	0.379498
H248	H	1.363768	0.573265	0.629498
H249	H	0.717248	0.415190	0.049215
H250	H	0.967248	0.665190	0.299215
H251	H	1.217248	0.915190	0.549215
H252	H	1.467248	1.165190	0.799215
H253	H	0.834566	0.440564	0.121457
H254	H	1.084566	0.690564	0.371457
H255	H	1.334566	0.940564	0.621457
H256	H	1.584566	1.190564	0.871457
H257	H	0.910961	-0.011971	0.335741
H258	H	1.160961	0.238029	0.585741
H259	H	1.410961	0.488029	0.835741
H260	H	1.660961	0.738029	1.085741
H261	H	0.838651	0.444517	-0.121687
H262	H	1.088651	0.694517	0.128313
H263	H	1.338651	0.944517	0.378313
H264	H	1.588651	1.194517	0.628313
H265	H	0.169607	-0.164794	0.120302
H266	H	0.419607	0.085206	0.370302
H267	H	0.669607	0.335206	0.620302
H268	H	0.919607	0.585206	0.870302
H269	H	0.720510	0.195830	-0.049938
H270	H	0.970510	0.445830	0.200062
H271	H	1.220510	0.695830	0.450062
H272	H	1.470510	0.945830	0.700062
H273	H	0.740263	-0.325997	0.335782
H274	H	0.990263	-0.075997	0.585782
H275	H	1.240263	0.174003	0.835782
H276	H	1.490263	0.424003	1.085782
H277	H	0.037470	-0.161245	0.120287
H278	H	0.287470	0.088755	0.370287
H279	H	0.537470	0.338755	0.620287
H280	H	0.787470	0.588755	0.870287
H281	H	0.481635	-0.173193	-0.120514
H282	H	0.731635	0.076807	0.129486
H283	H	0.981635	0.326807	0.379486
H284	H	1.231635	0.576807	0.629486
H285	H	0.481557	-0.173199	0.120328
H286	H	0.731557	0.076801	0.370328
H287	H	0.981557	0.326801	0.620328
H288	H	1.231557	0.576801	0.870328
H289	H	0.720294	0.196676	0.049831
H290	H	0.970294	0.446676	0.299831
H291	H	1.220294	0.696676	0.549831
H292	H	1.470294	0.946676	0.799831
H293	H	0.910983	-0.011982	0.803054
H294	H	1.160983	0.238018	1.053054
H295	H	1.410983	0.488018	1.303054
H296	H	1.660983	0.738018	1.553054
H297	H	0.837156	0.225091	-0.121343
H298	H	1.087156	0.475091	0.128657
H299	H	1.337156	0.725091	0.378657
H300	H	1.587156	0.975091	0.628657
H301	H	0.921046	0.243592	-0.074115
H302	H	1.171046	0.493592	0.175885
H303	H	1.421046	0.743592	0.425885
H304	H	1.671046	0.993592	0.675885
H305	H	0.613696	-0.176770	0.120349
H306	H	0.863696	0.073230	0.370349
H307	H	1.113696	0.323230	0.620349
H308	H	1.363696	0.573230	0.870349
H309	H	0.037547	-0.161253	-0.120559
H310	H	0.287547	0.088747	0.129441
H311	H	0.537547	0.338747	0.379441
H312	H	0.787547	0.588747	0.629441
H313	H	0.917972	0.462183	0.072625
H314	H	1.167972	0.712183	0.322625
H315	H	1.417972	0.962183	0.572625
H316	H	1.667972	1.212183	0.822625
H317	H	0.921798	0.245401	0.071996
H318	H	1.171798	0.495401	0.321996
H319	H	1.421798	0.745401	0.571996
H320	H	1.671798	0.995401	0.821996
H321	H	0.910961	-0.011989	0.196698
H322	H	1.160961	0.238011	0.446698
H323	H	1.410961	0.488011	0.696698
H324	H	1.660961	0.738011	0.946698
H325	H	0.740285	-0.326003	0.664046
H326	H	0.990285	-0.076003	0.914046
H327	H	1.240285	0.173997	1.164046
H328	H	1.490285	0.423997	1.414046
H329	H	0.717132	0.413576	-0.050231
H330	H	0.967132	0.663576	0.199769
H331	H	1.217132	0.913576	0.449769
H332	H	1.467132	1.163576	0.699769
H333	H	0.838872	0.223317	0.121165
H334	H	1.088872	0.473317	0.371165
H335	H	1.338872	0.723317	0.621165
H336	H	1.588872	0.973317	0.871165
H337	H	0.910980	-0.011984	0.664010
H338	H	1.160980	0.238016	0.914010
H339	H	1.410980	0.488016	1.164010
H340	H	1.660980	0.738016	1.414010
H341	H	0.740258	-0.325999	0.196734
H342	H	0.990258	-0.075999	0.446734
H343	H	1.240258	0.174001	0.696734
H344	H	1.490258	0.424001	0.946734
