data_functionalizedCrystal
_audit_creation_method	'MofGen! by Chris Wilmer'
_symmetry_space_group_name_H-M	'P1'
_symmetry_Int_Tables_number	1
_symmetry_cell_setting	triclinic
loop_
_symmetry_equiv_pos_as_xyz
  x,y,z
_cell_length_a	15.995300
_cell_length_b	15.995350
_cell_length_c	15.186229
_cell_angle_alpha	89.998487
_cell_angle_beta	89.995056
_cell_angle_gamma	83.482091
loop_
_atom_site_label
_atom_site_type_symbol
_atom_site_fract_x
_atom_site_fract_y
_atom_site_fract_z
O1	O	1.111011	0.107725	-0.073256
O2	O	1.444344	0.441058	0.260077
O3	O	1.777677	0.774391	0.593410
O4	O	0.867230	0.121096	-0.073251
O5	O	1.200563	0.454430	0.260083
O6	O	1.533896	0.787763	0.593416
O7	O	0.995784	-0.007478	-0.073253
O8	O	1.329117	0.325855	0.260080
O9	O	1.662451	0.659188	0.593414
O10	O	0.982456	0.236299	-0.073254
O11	O	1.315789	0.569633	0.260079
O12	O	1.649123	0.902966	0.593413
O13	O	0.995775	-0.007480	0.073204
O14	O	1.329109	0.325853	0.406538
O15	O	1.662442	0.659187	0.739871
O16	O	0.867221	0.121095	0.073207
O17	O	1.200554	0.454428	0.406540
O18	O	1.533888	0.787761	0.739873
O19	O	1.111002	0.107723	0.073201
O20	O	1.444335	0.441056	0.406534
O21	O	1.777669	0.774390	0.739868
Zn22	Zn	0.989110	0.114408	0.096457
Zn23	Zn	1.322443	0.447742	0.429790
Zn24	Zn	1.655777	0.781075	0.763124
Zn25	Zn	0.989121	0.114411	-0.096507
Zn26	Zn	1.322455	0.447744	0.236827
Zn27	Zn	1.655788	0.781078	0.570160
O28	O	0.982448	0.236298	0.073203
O29	O	1.315781	0.569631	0.406536
O30	O	1.649114	0.902964	0.739870
C31	C	0.836030	0.120550	-0.000021
C32	C	1.169363	0.453883	0.333312
C33	C	1.502696	0.787217	0.666645
C34	C	0.743077	0.118915	-0.000019
C35	C	1.076410	0.452248	0.333314
C36	C	1.409744	0.785582	0.666648
C37	C	0.995229	-0.038674	-0.000026
C38	C	1.328562	0.294660	0.333307
C39	C	1.661895	0.627993	0.666641
C40	C	0.993577	-0.131624	-0.000031
C41	C	1.326910	0.201709	0.333303
C42	C	1.660243	0.535043	0.666636
C43	C	0.572894	0.115896	-0.000026
C44	C	0.906227	0.449229	0.333307
C45	C	1.239561	0.782562	0.666641
C46	C	0.525428	0.207443	-0.000024
C47	C	0.858762	0.540777	0.333309
C48	C	1.192095	0.874110	0.666642
C49	C	0.428740	0.205773	-0.000359
C50	C	0.762074	0.539107	0.332974
C51	C	1.095407	0.872440	0.666308
C52	C	0.405337	0.112924	-0.000032
C53	C	0.738671	0.446257	0.333302
C54	C	1.072004	0.779590	0.666635
C55	C	0.446475	0.067505	-0.083501
C56	C	0.779808	0.400838	0.249833
C57	C	1.113142	0.734171	0.583166
C58	C	0.543108	0.069821	-0.083568
C59	C	0.876442	0.403155	0.249765
C60	C	1.209775	0.736488	0.583098
C61	C	0.543378	0.068464	0.082987
C62	C	0.876711	0.401797	0.416320
C63	C	1.210044	0.735130	0.749653
C64	C	0.446433	0.068472	0.084081
C65	C	0.779767	0.401805	0.417415
C66	C	1.113100	0.735139	0.750748
C67	C	0.310642	0.111239	-0.000038
C68	C	0.643975	0.444573	0.333296
C69	C	0.977309	0.777906	0.666629
C70	C	0.667590	0.117577	-0.000026
C71	C	1.000923	0.450911	0.333308
C72	C	1.334256	0.784244	0.666641
C73	C	0.987644	-0.469370	-0.000028
C74	C	1.320978	-0.136037	0.333306
C75	C	1.654311	0.197296	0.666639
C76	C	0.896090	-0.421920	-0.000354
C77	C	1.229424	-0.088586	0.332979
C78	C	1.562757	0.244747	0.666313
C79	C	0.897743	-0.325230	-0.000024
C80	C	1.231076	0.008103	0.333309
C81	C	1.564409	0.341437	0.666643
C82	C	0.990587	-0.301810	-0.000030
C83	C	1.323920	0.031523	0.333304
C84	C	1.657254	0.364856	0.666637
C85	C	1.035740	-0.342897	0.083602
C86	C	1.369073	-0.009564	0.416935
C87	C	1.702407	0.323770	0.750269
C88	C	1.033440	-0.439532	0.083672
C89	C	1.366773	-0.106199	0.417005
C90	C	1.700107	0.227134	0.750339
C91	C	1.035341	-0.439889	-0.082877
C92	C	1.368674	-0.106555	0.250456
C93	C	1.702008	0.226778	0.583789
C94	C	1.035319	-0.342943	-0.083983
C95	C	1.368653	-0.009610	0.249351
C96	C	1.701986	0.323723	0.582684
C97	C	0.992255	-0.207113	-0.000028
C98	C	1.325588	0.126220	0.333305
C99	C	1.658922	0.459554	0.666639
C100	C	0.985979	-0.564068	-0.000024
C101	C	1.319313	-0.230735	0.333310
C102	C	1.652646	0.102599	0.666643
C103	C	1.142202	0.108269	-0.000030
C104	C	1.475535	0.441603	0.333303
C105	C	1.808868	0.774936	0.666636
C106	C	1.235154	0.109904	-0.000038
C107	C	1.568488	0.443238	0.333295
C108	C	1.901821	0.776571	0.666628
C109	C	0.983003	0.267493	-0.000026
C110	C	1.316336	0.600826	0.333308
C111	C	1.649669	0.934160	0.666641
C112	C	0.984655	0.360443	-0.000027
C113	C	1.317988	0.693777	0.333307
C114	C	1.651321	1.027110	0.666640
N115	N	0.989108	0.114406	0.228150
N116	N	1.322442	0.447740	0.561483
N117	N	1.655775	0.781073	0.894816
N118	N	0.989130	0.114406	-0.228199
N119	N	1.322463	0.447740	0.105134
N120	N	1.655796	0.781073	0.438467
C121	C	1.046052	0.057493	0.453872
C122	C	1.379385	0.390826	0.787205
C123	C	1.712718	0.724159	1.120538
C124	C	1.046054	0.057491	0.546061
C125	C	1.379388	0.390824	0.879395
C126	C	1.712721	0.724157	1.212728
C127	C	0.932180	0.171323	0.546072
C128	C	1.265514	0.504656	0.879406
C129	C	1.598847	0.837989	1.212739
C130	C	0.932174	0.171320	0.453884
C131	C	1.265508	0.504653	0.787218
C132	C	1.598841	0.837987	1.120551
C133	C	0.989115	0.114406	0.407786
C134	C	1.322448	0.447739	0.741120
C135	C	1.655781	0.781073	1.074453
C136	C	0.989123	0.114407	0.592164
C137	C	1.322457	0.447740	0.925497
C138	C	1.655790	0.781073	1.258831
C139	C	0.989126	0.114405	0.692120
C140	C	1.322459	0.447738	1.025453
C141	C	1.655792	0.781072	1.358787
C142	C	0.989111	0.114406	0.307824
C143	C	1.322445	0.447740	0.641157
C144	C	1.655778	0.781073	0.974490
H145	H	0.400274	0.241462	0.059461
H146	H	0.733607	0.574795	0.392795
H147	H	1.066940	0.908128	0.726128
Cl148	Cl	0.555702	0.263403	-0.092300
Cl149	Cl	0.889035	0.596737	0.241033
Cl150	Cl	1.222369	0.930070	0.574366
Cl151	Cl	0.839681	-0.452519	0.091455
Cl152	Cl	1.173014	-0.119186	0.424789
Cl153	Cl	1.506348	0.214148	0.758122
H154	H	1.000507	-0.457829	0.146192
H155	H	1.333840	-0.124495	0.479525
H156	H	1.667174	0.208838	0.812859
H157	H	0.862003	-0.297359	0.060030
H158	H	1.195337	0.035974	0.393364
H159	H	1.528670	0.369307	0.726697
H160	H	0.575159	0.000967	0.083790
H161	H	0.908492	0.334300	0.417123
H162	H	1.241825	0.667634	0.750457
H163	H	1.100657	-0.471793	0.087462
H164	H	1.433991	-0.138459	0.420796
H165	H	1.767324	0.194874	0.754129
Cl166	Cl	1.117631	-0.014060	0.395924
Cl167	Cl	1.450964	0.319274	0.729257
Cl168	Cl	1.784297	0.652607	1.062590
Cl169	Cl	1.141052	-0.321109	0.088403
Cl170	Cl	1.474385	0.012224	0.421736
Cl171	Cl	1.807719	0.345557	0.755070
H172	H	0.418093	0.098644	-0.145853
H173	H	0.751427	0.431978	0.187481
H174	H	1.084760	0.765311	0.520814
Cl175	Cl	0.989123	-0.471577	-0.180745
Cl176	Cl	1.322457	-0.138244	0.152589
Cl177	Cl	1.655790	0.195089	0.485922
H178	H	0.859501	-0.440444	-0.060328
H179	H	1.192834	-0.107111	0.273006
H180	H	1.526167	0.226223	0.606339
H181	H	0.432376	-0.000719	-0.086370
H182	H	0.765709	0.332614	0.246963
H183	H	1.099042	0.665948	0.580297
H184	H	0.862249	-0.296801	-0.059974
H185	H	1.195582	0.036533	0.273359
H186	H	1.528916	0.369866	0.606692
H187	H	1.092417	0.011146	0.583581
H188	H	1.425750	0.344479	0.916915
H189	H	1.759083	0.677812	1.250248
Cl190	Cl	0.860587	0.242870	0.395943
Cl191	Cl	1.193920	0.576203	0.729276
Cl192	Cl	1.527254	0.909537	1.062610
H193	H	1.002307	-0.315688	-0.145851
H194	H	1.335640	0.017645	0.187482
H195	H	1.668973	0.350979	0.520816
Cl196	Cl	0.860604	0.242872	0.604028
Cl197	Cl	1.193938	0.576205	0.937361
Cl198	Cl	1.527271	0.909539	1.270695
H199	H	0.543916	0.244233	0.059822
H200	H	0.877249	0.577567	0.393155
H201	H	1.210583	0.910900	0.726489
H202	H	0.400896	0.241310	-0.060542
H203	H	0.734229	0.574643	0.272791
H204	H	1.067563	0.907976	0.606124
H205	H	0.563874	0.098603	0.146272
H206	H	0.897208	0.431936	0.479605
H207	H	1.230541	0.765270	0.812939
H208	H	1.004372	-0.314511	0.145842
H209	H	1.337705	0.018823	0.479175
H210	H	1.671039	0.352156	0.812508
H211	H	1.103026	-0.327594	-0.089037
H212	H	1.436359	0.005740	0.244297
H213	H	1.769692	0.339073	0.577630
H214	H	0.419090	0.101640	0.145833
H215	H	0.752423	0.434973	0.479166
H216	H	1.085757	0.768306	0.812500
Cl217	Cl	0.422749	-0.036043	0.092252
Cl218	Cl	0.756082	0.297291	0.425585
Cl219	Cl	1.089415	0.630624	0.758919
Cl220	Cl	0.592940	-0.033965	-0.089070
Cl221	Cl	0.926273	0.299369	0.244263
Cl222	Cl	1.259606	0.632702	0.577596
Cl223	Cl	0.571401	0.120361	-0.180266
Cl224	Cl	0.904735	0.453694	0.153068
Cl225	Cl	1.238068	0.787028	0.486401
Cl226	Cl	1.139558	-0.488945	-0.083755
Cl227	Cl	1.472891	-0.155612	0.249579
Cl228	Cl	1.806225	0.177722	0.582912
