data_functionalizedCrystal
_audit_creation_method	'MofGen! by Chris Wilmer'
_symmetry_space_group_name_H-M	'P1'
_symmetry_Int_Tables_number	1
_symmetry_cell_setting	triclinic
loop_
_symmetry_equiv_pos_as_xyz
  x,y,z
_cell_length_a	19.188933
_cell_length_b	19.288874
_cell_length_c	17.766277
_cell_angle_alpha	90.002040
_cell_angle_beta	89.994823
_cell_angle_gamma	96.857103
loop_
_atom_site_label
_atom_site_type_symbol
_atom_site_fract_x
_atom_site_fract_y
_atom_site_fract_z
O1	O	0.926143	-0.086719	-0.062570
O2	O	0.722831	-0.098391	-0.062577
O3	O	0.830358	0.008574	-0.062567
O4	O	0.818616	-0.193685	-0.062580
O5	O	0.830344	0.008570	0.062621
O6	O	0.722817	-0.098395	0.062611
O7	O	0.926129	-0.086723	0.062619
Cu8	Cu	0.824472	-0.092559	0.074046
Cu9	Cu	0.824488	-0.092555	-0.074004
O10	O	0.818602	-0.193688	0.062609
C11	C	0.696813	-0.098015	0.000016
C12	C	0.619309	-0.096880	0.000014
C13	C	0.066062	-0.088775	-0.068218
C14	C	0.138886	-0.089837	-0.068221
C15	C	0.175295	-0.090374	0.000019
C16	C	0.138876	-0.089830	0.068267
C17	C	0.066054	-0.088760	0.068268
N18	N	0.284307	-0.131579	0.050811
N19	N	0.353485	-0.132597	0.050805
C20	C	0.394703	-0.093595	0.000020
N21	N	0.364130	-0.053546	-0.050771
N22	N	0.294946	-0.052531	-0.050767
C23	C	0.254258	-0.091533	0.000026
C24	C	0.510078	-0.095286	-0.068227
C25	C	0.582905	-0.096344	-0.068227
C26	C	0.582893	-0.096344	0.068263
C27	C	0.510069	-0.095279	0.068261
C28	C	0.473666	-0.094753	0.000014
C29	C	0.829972	0.034449	0.000027
C30	C	0.828835	0.111552	0.000026
C31	C	0.952147	-0.087099	0.000023
C32	C	1.029651	-0.088235	0.000021
C33	C	0.818988	-0.219563	0.000013
C34	C	0.820125	-0.296666	0.000008
C35	C	0.820659	0.667120	0.068248
C36	C	0.821720	0.594672	0.068252
C37	C	0.822262	0.558443	0.000013
C38	C	0.821724	0.594665	-0.068236
C39	C	0.820656	0.667111	-0.068238
C40	C	0.864853	0.449109	-0.052265
C41	C	0.865926	0.376666	-0.052260
C42	C	0.825554	0.334996	0.000017
C43	C	0.784118	0.365780	0.052300
C44	C	0.783050	0.438226	0.052298
C45	C	0.823420	0.479888	0.000007
C46	C	0.827237	0.220226	0.068265
C47	C	0.828294	0.147776	0.068267
C48	C	0.828305	0.147772	-0.068223
C49	C	0.827241	0.220219	-0.068223
C50	C	0.826711	0.256442	0.000024
N51	N	0.824465	-0.092562	0.178176
N52	N	0.824501	-0.092547	-0.178135
C53	C	0.866713	-0.134564	0.782463
C54	C	0.866706	-0.134571	0.703661
C55	C	0.824495	-0.092547	0.664265
C56	C	0.782274	-0.050527	0.703677
C57	C	0.782277	-0.050527	0.782477
C58	C	0.822758	-0.029923	0.539424
C59	C	0.822760	-0.029922	0.460626
C60	C	0.824482	-0.092549	0.421218
C61	C	0.826217	-0.155178	0.460620
C62	C	0.826220	-0.155178	0.539420
C63	C	0.824487	-0.092543	0.578819
C64	C	0.866689	-0.134577	0.296370
C65	C	0.866677	-0.134585	0.217567
C66	C	0.782249	-0.050535	0.217584
C67	C	0.782257	-0.050534	0.296386
C68	C	0.824481	-0.092553	0.335774
H69	H	0.612537	-0.096778	0.123825
O70	O	0.622182	-0.096927	-0.141831
H71	H	0.584630	-0.096388	-0.189283
O72	O	0.912246	-0.179889	0.824948
H73	H	0.941593	-0.209112	0.784305
H74	H	0.820226	0.696608	0.123820
O75	O	0.470788	-0.094710	0.141862
H76	H	0.508337	-0.095268	0.189315
O77	O	0.828866	0.108711	0.141871
H78	H	0.876925	0.082031	0.145127
O79	O	0.820068	0.706169	-0.141846
H80	H	0.867849	0.698602	-0.174578
H81	H	0.828738	0.118274	-0.123785
H82	H	0.826812	0.249706	-0.123791
H83	H	0.822142	0.565179	0.123823
H84	H	0.480438	-0.094856	-0.123798
H85	H	0.901080	-0.168789	0.671573
O86	O	0.828088	-0.222721	0.581921
H87	H	0.829282	-0.266274	0.541287
H88	H	0.827620	-0.206175	0.428537
H89	H	0.749312	0.463287	0.094870
O90	O	0.026815	-0.088191	-0.141834
H91	H	-0.012733	-0.135034	-0.145118
H92	H	0.826799	0.249720	0.123836
O93	O	0.740563	0.320849	0.108686
H94	H	0.748257	0.265300	0.099900
H95	H	0.899669	0.351608	-0.094829
O96	O	0.178161	-0.090419	-0.141830
H97	H	0.217705	-0.043572	-0.145100
O98	O	0.912218	-0.179904	0.338862
H99	H	0.941562	-0.209133	0.298221
H100	H	0.747875	-0.016323	0.185509
O101	O	0.908403	0.494053	-0.108648
H102	H	0.937404	0.460479	-0.144993
O103	O	0.822309	0.555596	-0.141840
H104	H	0.823149	0.499136	-0.130375
H105	H	0.901050	-0.168805	0.185487
H106	H	0.747886	-0.016315	0.328468
H107	H	0.821352	0.021075	0.428551
O108	O	0.820904	0.037629	0.581926
H109	H	0.819710	0.081179	0.541292
O110	O	0.178139	-0.090414	0.141872
H111	H	0.234893	-0.091258	0.130407
H112	H	0.747904	-0.016313	0.671595
O113	O	0.736769	-0.005185	0.824984
H114	H	0.707423	0.024046	0.784354
H115	H	0.036409	-0.088323	0.123838
