data_functionalizedCrystal
_audit_creation_method	'MofGen! by Chris Wilmer'
_symmetry_space_group_name_H-M	'P1'
_symmetry_Int_Tables_number	1
_symmetry_cell_setting	triclinic
loop_
_symmetry_equiv_pos_as_xyz
  x,y,z
_cell_length_a	19.851628
_cell_length_b	20.875641
_cell_length_c	20.875641
_cell_angle_alpha	90.154292
_cell_angle_beta	117.556692
_cell_angle_gamma	122.418679
loop_
_atom_site_label
_atom_site_type_symbol
_atom_site_fract_x
_atom_site_fract_y
_atom_site_fract_z
Zr1	Zr	-0.683285	0.643592	-0.058422
O2	O	-0.823832	0.541145	-0.160842
O3	O	-0.542739	0.675013	-0.027025
O4	O	-0.672971	0.679900	-0.155935
O5	O	-0.701736	0.532386	0.069753
O6	O	-0.664834	0.789334	-0.152063
O7	O	-0.693600	0.536259	-0.031933
O8	O	-0.431874	0.780593	0.078532
O9	O	-0.934697	0.541128	-0.160842
O10	O	-0.594476	0.770065	-0.010745
O11	O	-0.606620	0.685505	0.062252
O12	O	-0.759950	0.691259	-0.089521
O13	O	-0.772095	0.606699	-0.016524
Zr14	Zr	-0.683285	0.811951	0.109930
Zr15	Zr	-0.670308	0.818127	-0.052248
Zr16	Zr	-0.696262	0.637416	0.103755
Zr17	Zr	-0.860102	0.643564	-0.058422
Zr18	Zr	-0.506468	0.811979	0.109929
O19	O	-0.823831	0.780531	0.078533
O20	O	-0.805380	0.789312	-0.152062
O21	O	-0.842282	0.532364	0.069753
O22	O	-0.542739	0.914398	0.212350
O23	O	-0.524288	0.923179	-0.018246
O24	O	-0.561190	0.666232	0.203570
O25	O	-0.664834	0.923157	-0.018245
O26	O	-0.693599	0.775644	0.207442
O27	O	-0.701736	0.666210	0.203570
O28	O	-0.672970	0.919285	0.083441
O29	O	-0.924382	0.679860	-0.155934
O30	O	-0.442188	0.775684	0.207441
O31	O	-0.431874	0.914416	0.212350
O32	O	-0.421559	0.919325	0.083440
O33	O	-0.945011	0.536219	-0.031933
O34	O	-0.934696	0.674951	-0.027024
O35	O	-0.606620	0.764285	0.141029
O36	O	-0.594475	0.848844	0.068031
O37	O	-0.759950	0.770038	-0.010745
O38	O	-0.772094	0.685479	0.062253
C39	C	-0.462114	0.727807	0.025753
C40	C	-0.387051	0.727819	0.025753
C41	C	-0.199092	0.773902	-0.014059
C42	C	-0.102245	0.803467	0.058434
C43	C	-0.249644	0.727799	0.025750
C44	C	-0.212739	0.698252	-0.046738
C45	C	-0.116918	0.727780	0.025741
C46	C	-0.153741	0.757407	0.098288
C47	C	-0.264288	0.652152	-0.006938
C48	C	-0.167453	0.681696	0.065598
C49	C	-0.326103	0.727811	0.025754
C50	C	-0.040456	0.727769	0.025745
C51	C	-0.699517	0.509455	0.018030
C52	C	-0.705026	0.435360	0.015409
C53	C	0.095547	0.727745	0.025750
C54	C	0.020492	0.727758	0.025739
C55	C	-0.621240	0.441684	0.055293
C56	C	-0.626422	0.372062	0.052829
C57	C	-0.715391	0.296116	0.010474
C58	C	-0.799183	0.289793	-0.029412
C59	C	-0.794001	0.359415	-0.026942
C60	C	-0.740154	0.083483	-0.001317
C61	C	-0.745330	0.013859	-0.003786
C62	C	-0.572568	0.096132	0.078456
C63	C	-0.567393	0.165752	0.080918
C64	C	-0.651186	0.159423	0.041036
N65	N	-0.720690	0.224949	0.007952
N66	N	-0.645886	0.230589	0.043563
C67	C	-0.667054	0.735497	-0.177105
C68	C	-0.661545	0.738118	-0.245954
C69	C	-0.667053	0.946089	0.033478
C70	C	-0.661544	1.020183	0.036099
C71	C	-0.745331	0.698216	-0.319420
C72	C	-0.740148	0.700689	-0.384107
C73	C	-0.651179	0.743062	-0.375328
C74	C	-0.567387	0.782970	-0.301854
C75	C	-0.572570	0.780500	-0.237168
C76	C	-0.626416	0.754863	-0.564379
C77	C	-0.621239	0.757328	-0.629073
C78	C	-0.794001	0.675049	-0.711321
C79	C	-0.799176	0.672579	-0.646630
C80	C	-0.715384	0.712490	-0.573163
N81	N	-0.645880	0.745589	-0.441448
N82	N	-0.720684	0.709967	-0.507044
C83	C	-0.699517	0.720047	0.228613
C84	C	-0.705025	0.717425	0.297462
C85	C	-0.445882	0.946124	0.033477
C86	C	-0.365309	1.020230	0.036098
C87	C	-0.478345	0.720082	0.228612
C88	C	-0.408791	0.717472	0.297461
C89	C	-0.462113	0.938399	0.236336
C90	C	-0.387050	1.009883	0.307806
C91	C	-0.904457	0.517145	-0.184829
C92	C	-0.979520	0.445660	-0.256298
C93	C	-0.920688	0.509420	0.018031
C94	C	-1.001261	0.435313	0.015409
C95	C	-0.888225	0.735462	-0.177105
C96	C	-0.957779	0.738072	-0.245953
C97	C	-0.327471	1.013909	-0.003798
C98	C	-0.251774	1.083534	-0.001351
C99	C	-0.213912	1.159479	0.040998
C100	C	-0.251757	1.165798	0.080896
C101	C	-0.327457	1.096174	0.078443
C102	C	-0.376128	0.757368	0.370920
C103	C	-0.310784	0.754913	0.435617
C104	C	-0.278100	0.712565	0.426852
C105	C	-0.310770	0.672664	0.353385
C106	C	-0.376117	0.675115	0.288690
C107	C	-0.345459	1.087600	0.303265
C108	C	-0.274938	1.154774	0.370413
C109	C	-0.246003	1.144231	0.442100
C110	C	-0.287601	1.066506	0.446639
C111	C	-0.358126	0.999333	0.379493
C112	C	-1.021119	0.367943	-0.251758
C113	C	-1.091663	0.300769	-0.318905
C114	C	-1.120601	0.311313	-0.390593
C115	C	-1.078999	0.389037	-0.395132
C116	C	-1.008461	0.456210	-0.327985
C117	C	-1.039106	0.441634	0.055299
C118	C	-1.114821	0.372010	0.052834
C119	C	-1.152686	0.296065	0.010483
C120	C	-1.114837	0.289746	-0.029412
C121	C	-1.039128	0.359370	-0.026951
C122	C	-0.990442	0.780427	-0.237164
C123	C	-1.055786	0.782894	-0.301848
C124	C	-1.088471	0.743002	-0.375320
C125	C	-1.055801	0.700646	-0.384107
C126	C	-0.990453	0.698183	-0.319424
H127	H	-0.032996	0.867433	0.086081
F128	F	-1.090549	0.827973	-0.292480
F129	F	-1.155144	0.208913	-0.074480
H130	H	-0.402732	0.791852	0.378071
F131	F	-0.256797	1.055297	0.522941
F132	F	-0.990333	0.356704	-0.175469
H133	H	-1.008283	0.503466	0.089791
F134	F	-0.964190	0.538920	-0.332830
F135	F	-0.883173	0.632576	-0.789512
H136	H	-0.817782	-0.047981	-0.038279
F137	F	-0.472700	0.246577	0.125998
H138	H	-1.125524	0.237489	-0.315194
H139	H	-0.358297	0.952078	-0.038292
H140	H	-0.153457	0.642707	0.099309
H141	H	-1.178037	0.256609	-0.445262
H142	H	-1.102569	0.397613	-0.453508
F143	F	-0.208550	0.709964	0.495714
H144	H	-1.008317	0.354212	-0.059432
F145	F	-1.155086	0.378752	0.095300
F146	F	-1.090602	0.658187	-0.462308
H147	H	-0.504349	0.101275	0.110927
F148	F	-0.276024	0.797386	0.513798
H149	H	-0.504343	0.812993	-0.177349
F150	F	-0.211507	1.076792	-0.043815
H151	H	-0.402703	0.642629	0.228879
F152	F	-0.402379	0.916623	0.384337
H153	H	-1.214333	0.239380	0.008485
F154	F	-0.133343	1.233573	0.043602
F155	F	-0.376244	1.098840	0.226977
F156	F	-0.211448	1.246631	0.125966
H157	H	-0.963841	0.812912	-0.177346
F158	F	-0.955705	0.653094	-0.328790
H159	H	-0.129422	0.782461	0.159617
F160	F	-0.526546	0.522509	0.100369
F161	F	-0.367715	1.102914	0.120914
H162	H	-1.141682	0.745014	-0.427983
H163	H	-0.494946	0.817475	-0.294711
F164	F	-0.526542	0.802429	-0.619723
F165	F	-0.883178	0.352682	-0.069391
F166	F	-0.840025	0.653115	-0.328772
H167	H	-0.558186	0.787362	-0.504567
H168	H	-0.808375	0.668198	-0.443924
H169	H	-0.871624	0.638077	-0.653787
F170	F	-0.354819	0.568560	-0.043095
F171	F	-0.217446	0.824924	-0.057981
F172	F	-0.230675	1.237487	0.365566
F173	F	-0.244334	0.665603	-0.126857
H174	H	-0.284149	0.638185	0.346260
H175	H	-0.558195	0.377218	0.085308
H176	H	-0.808382	0.078320	-0.033806
H177	H	-0.871624	0.227952	-0.063894
F178	F	-0.170942	1.215730	0.513558
