data_functionalizedCrystal
_audit_creation_method	'MofGen! by Chris Wilmer'
_symmetry_space_group_name_H-M	'P1'
_symmetry_Int_Tables_number	1
_symmetry_cell_setting	triclinic
loop_
_symmetry_equiv_pos_as_xyz
  x,y,z
_cell_length_a	12.759401
_cell_length_b	12.759400
_cell_length_c	11.169409
_cell_angle_alpha	89.967324
_cell_angle_beta	89.978902
_cell_angle_gamma	90.013397
loop_
_atom_site_label
_atom_site_type_symbol
_atom_site_fract_x
_atom_site_fract_y
_atom_site_fract_z
Zn1	Zn	1.606282	-0.418175	-0.678581
Zn2	Zn	1.606176	-0.593900	-0.477896
Zn3	Zn	1.430579	-0.418237	-0.477911
Zn4	Zn	1.430577	-0.593813	-0.678537
O5	O	1.518404	-0.506031	-0.578231
O6	O	1.753289	-0.441496	-0.651972
O7	O	1.582840	-0.570661	-0.309948
O8	O	1.453932	-0.271208	-0.504554
O9	O	1.753211	-0.570601	-0.504530
O10	O	1.583020	-0.271162	-0.651986
O11	O	1.453829	-0.441602	-0.309959
O12	O	1.283558	-0.441517	-0.504512
O13	O	1.453928	-0.570452	-0.846492
O14	O	1.283557	-0.570512	-0.651911
O15	O	1.583018	-0.441411	-0.846525
O16	O	1.582838	-0.740910	-0.504488
O17	O	1.453826	-0.740846	-0.651897
C18	C	1.245436	-0.506012	-0.578209
C19	C	1.128660	-0.506029	-0.578228
C20	C	1.073761	-0.573147	-0.501350
C21	C	0.964037	-0.573165	-0.501371
C22	C	0.964120	-0.438939	-0.655150
C23	C	1.073842	-0.438927	-0.655135
C24	C	1.128579	-0.640249	-0.424443
C25	C	1.073680	-0.707370	-0.347558
C26	C	0.963956	-0.707389	-0.347579
C27	C	0.909131	-0.640285	-0.424484
C28	C	1.518349	-0.778999	-0.578212
C29	C	1.518421	-0.895775	-0.578244
C30	C	1.585604	-0.950534	-0.655075
C31	C	1.585653	-1.060258	-0.655104
C32	C	1.451334	-1.060455	-0.501462
C33	C	1.451280	-0.950733	-0.501440
C34	C	1.652745	-0.895576	-0.731879
C35	C	1.719933	-0.950335	-0.808715
C36	C	1.719982	-1.060059	-0.808744
C37	C	1.652842	-1.115024	-0.731938
C38	C	1.792437	-0.506051	-0.578254
C39	C	1.909214	-0.506059	-0.578264
C40	C	1.518484	-0.505915	-0.891274
C41	C	1.518519	-0.505865	-1.024674
C42	C	1.518488	-0.231998	-0.578276
C43	C	1.518524	-0.115221	-0.578296
C44	C	1.518384	-0.506072	-0.266406
C45	C	1.518553	-0.505825	-0.133007
H46	H	1.118326	-0.762011	-0.284952
H47	H	1.774591	-0.905576	-0.871255
H48	H	0.919260	-0.762050	-0.284984
C49	C	1.134234	-0.365093	-0.739702
N50	N	1.179722	-0.309480	-0.803402
C51	C	1.793891	-1.120290	-0.893262
N52	N	1.849568	-1.165654	-0.956918
C53	C	1.652894	-1.235724	-0.731981
N54	N	1.652937	-1.326635	-0.732012
C55	C	1.652693	-0.774877	-0.731858
N56	N	1.652654	-0.683967	-0.731842
H57	H	1.396672	-1.105217	-0.438929
C58	C	1.377386	-0.890495	-0.416911
N59	N	1.321727	-0.845124	-0.353241
H60	H	0.819786	-0.640312	-0.424503
C61	C	0.903808	-0.365114	-0.739722
N62	N	0.858381	-0.309501	-0.803415
C63	C	1.249277	-0.640235	-0.424413
N64	N	1.340187	-0.640223	-0.424391
