data_functionalizedCrystal
_audit_creation_method	'MofGen! by Chris Wilmer'
_symmetry_space_group_name_H-M	'P1'
_symmetry_Int_Tables_number	1
_symmetry_cell_setting	triclinic
loop_
_symmetry_equiv_pos_as_xyz
  x,y,z
_cell_length_a	12.827893
_cell_length_b	16.120444
_cell_length_c	12.827885
_cell_angle_alpha	87.135329
_cell_angle_beta	90.019272
_cell_angle_gamma	92.926466
loop_
_atom_site_label
_atom_site_type_symbol
_atom_site_fract_x
_atom_site_fract_y
_atom_site_fract_z
Zn1	Zn	1.576496	-0.331868	0.611901
Zn2	Zn	2.076496	0.168132	1.111901
Zn3	Zn	1.567494	-0.471303	0.446006
Zn4	Zn	2.067494	0.028697	0.946006
Zn5	Zn	1.401735	-0.331908	0.437177
Zn6	Zn	1.901735	0.168092	0.937177
Zn7	Zn	1.392831	-0.471241	0.620702
Zn8	Zn	1.892831	0.028759	1.120702
O9	O	1.484639	-0.401580	0.528946
O10	O	1.984639	0.098420	1.028946
O11	O	1.721537	-0.350373	0.589906
O12	O	2.221537	0.149627	1.089906
O13	O	1.545465	-0.452855	0.298601
O14	O	2.045465	0.047145	0.798601
O15	O	1.432411	-0.215237	0.452976
O16	O	1.932411	0.284763	0.952976
O17	O	1.714924	-0.452816	0.468024
O18	O	2.214924	0.047184	0.968024
O19	O	1.560808	-0.215207	0.581345
O20	O	2.060808	0.284793	1.081345
O21	O	1.423682	-0.350442	0.292115
O22	O	1.923682	0.149558	0.792115
O23	O	1.254318	-0.350382	0.461510
O24	O	1.754318	0.149618	0.961510
O25	O	1.417235	-0.452710	0.765768
O26	O	1.917235	0.047290	1.265768
O27	O	1.247776	-0.452750	0.596346
O28	O	1.747776	0.047250	1.096346
O29	O	1.552173	-0.350313	0.759302
O30	O	2.052173	0.149687	1.259302
O31	O	1.536831	-0.587961	0.476558
O32	O	2.036831	-0.087961	0.976558
O33	O	1.408506	-0.587915	0.604907
O34	O	1.908506	-0.087915	1.104907
C35	C	1.213130	-0.401564	0.528926
C36	C	1.713130	0.098436	1.028926
C37	C	1.096976	-0.401577	0.528943
C38	C	1.596976	0.098423	1.028943
C39	C	1.041977	-0.452311	0.595570
C40	C	1.541977	0.047689	1.095570
C41	C	0.921925	-0.452326	0.595590
C42	C	1.421925	0.047674	1.095590
C43	C	1.470754	-0.618188	0.542669
C44	C	1.970754	-0.118188	1.042669
C45	C	1.464909	-0.710854	0.548574
C46	C	1.964909	-0.210854	1.048574
C47	C	1.515214	-0.921799	0.498537
C48	C	2.015214	-0.421799	0.998537
C49	C	1.454258	-0.880510	0.559367
C50	C	1.954258	-0.380510	1.059367
C51	C	1.460186	-0.786105	0.553360
C52	C	1.960186	-0.286105	1.053360
C53	C	1.509287	-1.016213	0.504543
C54	C	2.009287	-0.516213	1.004543
C55	C	1.757208	-0.401597	0.528968
C56	C	2.257208	0.098403	1.028968
C57	C	1.873361	-0.401604	0.528977
C58	C	2.373361	0.098396	1.028977
C59	C	1.484715	-0.401500	0.801512
C60	C	1.984715	0.098500	1.301512
C61	C	1.484748	-0.401466	0.917663
C62	C	1.984748	0.098534	1.417663
C63	C	1.498607	-0.184126	0.515194
C64	C	1.998607	0.315874	1.015194
C65	C	1.504559	-0.091460	0.509333
C66	C	2.004559	0.408540	1.009333
C67	C	1.484627	-0.401600	0.257438
C68	C	1.984627	0.098400	0.757438
C69	C	1.484812	-0.401399	0.141272
C70	C	1.984812	0.098601	0.641272
C71	C	1.551527	-0.350787	0.966247
C72	C	2.051527	0.149213	1.466247
C73	C	1.551562	-0.350750	1.086295
C74	C	2.051562	0.149250	1.586295
H75	H	0.874640	-0.495763	0.652629
H76	H	1.374640	0.004237	1.152629
H77	H	1.397620	-0.916063	0.615955
H78	H	1.897620	-0.416063	1.115955
H79	H	1.083767	-0.495732	0.652602
H80	H	1.583767	0.004268	1.152602
Cl81	Cl	1.639736	-0.283815	0.893257
Cl82	Cl	2.139736	0.216185	1.393257
H83	H	1.571847	-0.886250	0.441951
H84	H	2.071847	-0.386250	0.941951
H85	H	1.608737	-0.307365	1.128089
H86	H	2.108737	0.192635	1.628089
Cl87	Cl	0.946354	-0.334542	0.440895
Cl88	Cl	1.446354	0.165458	0.940895
Cl89	Cl	1.396540	-0.468398	1.076760
Cl90	Cl	1.896540	0.031602	1.576760
H91	H	1.427595	-0.444822	0.964943
H92	H	1.927595	0.055178	1.464943
H93	H	1.055186	-0.358150	0.471918
H94	H	1.555186	0.141850	0.971918
