data_functionalizedCrystal
_audit_creation_method	'MofGen! by Chris Wilmer'
_symmetry_space_group_name_H-M	'P1'
_symmetry_Int_Tables_number	1
_symmetry_cell_setting	triclinic
loop_
_symmetry_equiv_pos_as_xyz
  x,y,z
_cell_length_a	12.759401
_cell_length_b	12.759394
_cell_length_c	12.759393
_cell_angle_alpha	90.030600
_cell_angle_beta	90.018496
_cell_angle_gamma	90.014017
loop_
_atom_site_label
_atom_site_type_symbol
_atom_site_fract_x
_atom_site_fract_y
_atom_site_fract_z
Zn1	Zn	1.606262	-0.418200	0.593988
Zn2	Zn	1.606158	-0.593919	0.418311
Zn3	Zn	1.430564	-0.418255	0.418328
Zn4	Zn	1.430555	-0.593838	0.593953
O5	O	1.518385	-0.506053	0.506145
O6	O	1.753269	-0.441520	0.570692
O7	O	1.582826	-0.570674	0.271293
O8	O	1.453917	-0.271227	0.441651
O9	O	1.753193	-0.570620	0.441623
O10	O	1.583002	-0.271186	0.570708
O11	O	1.453817	-0.441614	0.271305
O12	O	1.283541	-0.441536	0.441617
O13	O	1.453902	-0.570482	0.740979
O14	O	1.283535	-0.570536	0.570648
O15	O	1.582993	-0.441442	0.741005
O16	O	1.582817	-0.740929	0.441589
O17	O	1.453802	-0.740870	0.570632
C18	C	1.245417	-0.506034	0.506131
C19	C	1.128641	-0.506051	0.506150
C20	C	1.073803	-0.573329	0.573225
C21	C	0.964079	-0.573342	0.573236
C22	C	0.964040	-0.438796	0.439088
C23	C	1.073762	-0.438779	0.439083
C24	C	1.128681	-0.640601	0.640292
C25	C	1.073843	-0.707885	0.707372
C26	C	0.964119	-0.707898	0.707383
C27	C	0.909233	-0.640627	0.640315
C28	C	1.518326	-0.779021	0.506128
C29	C	1.518397	-0.895797	0.506156
C30	C	1.652713	-0.895597	0.640643
C31	C	1.719903	-0.950358	0.707895
C32	C	1.719966	-1.060079	0.707918
C33	C	1.652828	-1.115043	0.640684
C34	C	1.585637	-1.060282	0.573432
C35	C	1.585584	-0.950558	0.573414
C36	C	1.451318	-1.060482	0.438951
C37	C	1.451260	-0.950761	0.438921
C38	C	1.384181	-1.115446	0.371717
C39	C	1.316994	-1.060685	0.304458
C40	C	1.316935	-0.950957	0.304437
C41	C	1.384069	-0.896000	0.371669
C42	C	1.792418	-0.506073	0.506160
C43	C	1.909194	-0.506082	0.506166
C44	C	1.518458	-0.505947	0.780179
C45	C	1.518489	-0.505902	0.896955
C46	C	1.518472	-0.232020	0.506186
C47	C	1.518509	-0.115243	0.506203
C48	C	1.518372	-0.506083	0.233178
C49	C	1.518544	-0.505832	0.116402
C50	C	1.585716	-0.438704	0.951833
C51	C	1.585741	-0.438666	1.061557
C52	C	1.451310	-0.573033	1.061517
C53	C	1.451280	-0.573065	0.951795
C54	C	1.652926	-0.371541	0.896993
C55	C	1.720159	-0.304339	0.951871
C56	C	1.720184	-0.304301	1.061595
C57	C	1.652976	-0.371465	1.116442
H58	H	1.118412	-0.383987	0.384472
C59	C	1.794079	-0.230457	0.891538
N60	N	1.849757	-0.174808	0.846096
C61	C	1.794137	-0.230374	1.121957
N62	N	1.849845	-0.174694	1.167420
H63	H	1.652989	-0.371417	1.205787
C64	C	1.243198	-1.121151	0.230461
N65	N	1.187633	-1.166699	0.174706
H66	H	1.396522	-0.627767	0.907112
C67	C	1.652901	-0.371573	0.776295
N68	N	1.652881	-0.371598	0.685385
H69	H	0.919473	-0.762677	0.762010
C70	C	1.134220	-0.781877	0.781145
N71	N	1.179694	-0.837610	0.836711
C72	C	1.384264	-1.236142	0.371731
N73	N	1.384333	-1.327053	0.371733
C74	C	0.788533	-0.640645	0.640332
N75	N	0.697622	-0.640664	0.640341
C76	C	1.384009	-0.775303	0.371655
N77	N	1.383963	-0.684393	0.371651
C78	C	1.377387	-0.646910	1.121852
N79	N	1.321709	-0.702557	1.167297
H80	H	0.919343	-0.384029	0.384483
C81	C	1.249380	-0.640618	0.640260
N82	N	1.340290	-0.640640	0.640224
C83	C	1.793754	-0.889890	0.781846
N84	N	1.849379	-0.844348	0.837546
H85	H	1.262216	-0.906376	0.249677
H86	H	1.652678	-0.806256	0.640622
H87	H	1.774667	-1.104665	0.762691
H88	H	1.652876	-1.204384	0.640717
