data_functionalizedCrystal
_audit_creation_method	'MofGen! by Chris Wilmer'
_symmetry_space_group_name_H-M	'P1'
_symmetry_Int_Tables_number	1
_symmetry_cell_setting	triclinic
loop_
_symmetry_equiv_pos_as_xyz
  x,y,z
_cell_length_a	10.654550
_cell_length_b	10.723024
_cell_length_c	9.130313
_cell_angle_alpha	89.996649
_cell_angle_beta	89.999724
_cell_angle_gamma	84.476400
loop_
_atom_site_label
_atom_site_type_symbol
_atom_site_fract_x
_atom_site_fract_y
_atom_site_fract_z
O1	O	1.667813	0.175275	-0.121686
O2	O	1.302332	0.191974	-0.121712
O3	O	1.493503	0.002049	-0.121693
O4	O	1.476642	0.365199	-0.121705
O5	O	1.493490	0.002044	0.121906
O6	O	1.302319	0.191968	0.121886
O7	O	1.667800	0.175269	0.121913
Cu8	Cu	1.485058	0.183618	0.144142
Cu9	Cu	1.485074	0.183625	-0.143942
O10	O	1.476629	0.365194	0.121894
C11	C	1.255528	0.190745	0.000084
C12	C	1.116085	0.187077	0.000073
C13	C	1.036583	0.298901	0.000074
C14	C	0.905562	0.295447	0.000100
C15	C	0.933560	0.068334	0.000118
C16	C	1.064577	0.071789	0.000103
C17	C	1.492269	-0.044453	0.000104
C18	C	1.488598	-0.183008	0.000099
C19	C	1.595567	-0.257975	0.000105
C20	C	1.591776	-0.401179	0.000099
C21	C	1.714604	0.176498	0.000114
C22	C	1.854047	0.180167	0.000114
C23	C	1.477863	0.411696	0.000093
C24	C	1.481534	0.550251	0.000089
N25	N	1.485056	0.183613	0.346765
N26	N	1.485085	0.183620	-0.346564
C27	C	1.569736	0.099550	0.423425
C28	C	1.569748	0.099550	0.576762
C29	C	1.400397	0.267687	0.576765
C30	C	1.400380	0.267680	0.423431
H31	H	0.891606	-0.025530	0.000151
F32	F	1.091396	0.421600	0.000049
F33	F	1.361830	-0.365560	0.000093
H34	H	1.683350	-0.465598	0.000111
F35	F	1.365223	-0.237684	0.000077
F36	F	1.659853	0.010075	0.341838
H37	H	1.331457	0.336135	0.639201
H38	H	1.129312	-0.019278	0.000107
H39	H	1.689955	-0.216138	0.000121
H40	H	1.638700	0.031097	0.639175
H41	H	0.840836	0.386506	0.000103
H42	H	1.331418	0.336135	0.361009
