data_functionalizedCrystal
_audit_creation_method	'MofGen! by Chris Wilmer'
_symmetry_space_group_name_H-M	'P1'
_symmetry_Int_Tables_number	1
_symmetry_cell_setting	triclinic
loop_
_symmetry_equiv_pos_as_xyz
  x,y,z
_cell_length_a	18.050591
_cell_length_b	29.839131
_cell_length_c	18.050582
_cell_angle_alpha	90.033130
_cell_angle_beta	90.020922
_cell_angle_gamma	90.031233
loop_
_atom_site_label
_atom_site_type_symbol
_atom_site_fract_x
_atom_site_fract_y
_atom_site_fract_z
Zn1	Zn	1.135256	-0.178930	0.419977
Zn2	Zn	1.635256	0.321070	0.919977
Zn3	Zn	1.135152	-0.254052	0.295764
Zn4	Zn	1.635152	0.245948	0.795764
Zn5	Zn	1.011076	-0.178932	0.295788
Zn6	Zn	1.511076	0.321068	0.795788
Zn7	Zn	1.011008	-0.254028	0.419899
Zn8	Zn	1.511008	0.245972	0.919899
O9	O	1.073123	-0.216485	0.357857
O10	O	1.573123	0.283515	0.857857
O11	O	1.239167	-0.188904	0.403522
O12	O	1.739167	0.311096	0.903522
O13	O	1.118677	-0.244098	0.191843
O14	O	1.618677	0.255902	0.691843
O15	O	1.027620	-0.116064	0.312304
O16	O	1.527620	0.383936	0.812304
O17	O	1.239090	-0.244096	0.312263
O18	O	1.739090	0.255904	0.812263
O19	O	1.118855	-0.116063	0.403545
O20	O	1.618855	0.383937	0.903545
O21	O	1.027519	-0.188907	0.191860
O22	O	1.527519	0.311093	0.691860
O23	O	0.907142	-0.188884	0.312229
O24	O	1.407142	0.311116	0.812229
O25	O	1.027506	-0.244056	0.523834
O26	O	1.527506	0.255944	1.023834
O27	O	0.907093	-0.244057	0.403413
O28	O	1.407093	0.255943	0.903413
O29	O	1.118790	-0.188881	0.523891
O30	O	1.618790	0.311119	1.023891
O31	O	1.118612	-0.316916	0.312188
O32	O	1.618612	0.183084	0.812188
O33	O	1.027404	-0.316898	0.403390
O34	O	1.527404	0.183102	0.903390
C35	C	0.880171	-0.216469	0.357816
C36	C	1.380171	0.283531	0.857816
C37	C	0.797625	-0.216472	0.357816
C38	C	1.297625	0.283528	0.857816
C39	C	0.598180	-0.186434	0.308344
C40	C	1.098180	0.313566	0.808344
C41	C	0.548752	-0.227410	0.290056
C42	C	1.048752	0.272590	0.790056
C43	C	0.646495	-0.216486	0.357850
C44	C	1.146495	0.283514	0.857850
C45	C	0.548841	-0.175525	0.376136
C46	C	1.048841	0.324475	0.876136
C47	C	0.500510	-0.216495	0.357881
C48	C	1.000510	0.283505	0.857881
C49	C	0.598154	-0.257483	0.339526
C50	C	1.098154	0.242517	0.839526
C51	C	0.598248	-0.205570	0.425638
C52	C	1.098248	0.294430	0.925638
C53	C	0.548842	-0.246574	0.407375
C54	C	1.048842	0.253426	0.907375
C55	C	0.730593	-0.216480	0.357830
C56	C	1.230593	0.283520	0.857830
C57	C	0.416413	-0.216506	0.357901
C58	C	0.916413	0.283494	0.857901
C59	C	1.073010	-0.333208	0.357794
C60	C	1.573010	0.166792	0.857794
C61	C	1.073029	-0.383142	0.357793
C62	C	1.573029	0.116858	0.857793
C63	C	1.120619	-0.692750	0.405434
C64	C	1.620619	-0.192750	0.905434
C65	C	1.120699	-0.880423	0.405479
C66	C	1.620699	-0.380423	0.905479
O67	O	1.161051	-0.904658	0.445939
O68	O	1.661051	-0.404658	0.945939
N69	N	1.073249	-0.903927	0.357940
N70	N	1.573249	-0.403927	0.857940
C71	C	1.025772	-0.880510	0.310389
C72	C	1.525772	-0.380510	0.810389
O73	O	0.985409	-0.904808	0.269961
O74	O	1.485409	-0.404808	0.769961
C75	C	1.025688	-0.692838	0.310349
C76	C	1.525688	-0.192838	0.810349
C77	C	1.073147	-0.669337	0.357886
C78	C	1.573147	-0.169337	0.857886
C79	C	1.168073	-0.669248	0.452968
C80	C	1.668073	-0.169248	0.952968
C81	C	1.168055	-0.622333	0.452953
C82	C	1.668055	-0.122333	0.952953
C83	C	1.120583	-0.598919	0.405405
C84	C	1.620583	-0.098919	0.905405
C85	C	1.073129	-0.622421	0.357871
C86	C	1.573129	-0.122421	0.857871
C87	C	0.978208	-0.669422	0.262803
C88	C	1.478208	-0.169422	0.762803
C89	C	0.978190	-0.622501	0.262799
C90	C	1.478190	-0.122501	0.762799
C91	C	1.025648	-0.598999	0.310335
C92	C	1.525648	-0.098999	0.810335
C93	C	1.025639	-0.552092	0.310309
C94	C	1.525639	-0.052092	0.810309
N95	N	1.073089	-0.528588	0.357848
N96	N	1.573089	-0.028588	0.857848
C97	C	1.120561	-0.552001	0.405396
C98	C	1.620561	-0.052001	0.905396
C99	C	1.025820	-0.979041	0.310413
C100	C	1.525820	-0.479041	0.810413
C101	C	1.025842	-1.025959	0.310422
C102	C	1.525842	-0.525959	0.810422
C103	C	1.120769	-1.025868	0.405512
C104	C	1.620769	-0.525868	0.905512
C105	C	1.120750	-0.978950	0.405499
C106	C	1.620750	-0.478950	0.905499
C107	C	1.073271	-0.955537	0.357952
C108	C	1.573271	-0.455537	0.857952
C109	C	1.120521	-0.453476	0.405362
C110	C	1.620521	0.046524	0.905362
C111	C	1.120501	-0.406556	0.405341
C112	C	1.620501	0.093444	0.905341
C113	C	1.025572	-0.406651	0.310253
C114	C	1.525572	0.093349	0.810253
C115	C	1.025594	-0.453566	0.310271
C116	C	1.525594	0.046434	0.810271
C117	C	1.073071	-0.476977	0.357831
C118	C	1.573071	0.023023	0.857831
O119	O	0.985303	-0.527828	0.269876
O120	O	1.485303	-0.027828	0.769876
O121	O	1.160907	-0.527695	0.445830
O122	O	1.660907	-0.027695	0.945830
C123	C	1.120637	-0.739666	0.405448
C124	C	1.620637	-0.239666	0.905448
C125	C	1.073182	-0.763167	0.357915
C126	C	1.573182	-0.263167	0.857915
C127	C	1.025710	-0.739754	0.310367
C128	C	1.525710	-0.239754	0.810367
C129	C	1.073204	-0.810085	0.357924
C130	C	1.573204	-0.310085	0.857924
C131	C	1.120676	-0.833499	0.405472
C132	C	1.620676	-0.333499	0.905472
C133	C	1.168126	-0.809995	0.453011
C134	C	1.668126	-0.309995	0.953011
C135	C	1.168108	-0.763079	0.452997
C136	C	1.668108	-0.263079	0.952997
C137	C	0.978260	-0.763258	0.262828
C138	C	1.478260	-0.263258	0.762828
C139	C	0.978282	-0.810173	0.262845
C140	C	1.478282	-0.310173	0.762845
C141	C	1.025754	-0.833587	0.310394
C142	C	1.525754	-0.333587	0.810394
C143	C	1.266829	-0.216502	0.357899
C144	C	1.766829	0.283498	0.857899
C145	C	1.349374	-0.216510	0.357916
C146	C	1.849374	0.283490	0.857916
C147	C	1.073152	-0.216465	0.551563
C148	C	1.573152	0.283535	1.051563
C149	C	1.073164	-0.216457	0.634109
C150	C	1.573164	0.283543	1.134109
C151	C	1.073257	-0.099307	0.357936
C152	C	1.573257	0.400693	0.857936
C153	C	1.073314	-0.049373	0.357970
C154	C	1.573314	0.450627	0.857970
C155	C	1.073137	-0.216473	0.164905
C156	C	1.573137	0.283527	0.664905
C157	C	1.073268	-0.216355	0.082360
C158	C	1.573268	0.283645	0.582360
C159	C	1.023562	-0.246420	0.833528
C160	C	1.523562	0.253580	1.333528
C161	C	1.091315	-0.257404	0.882924
C162	C	1.591315	0.242596	1.382924
C163	C	1.073201	-0.216423	0.785239
C164	C	1.573201	0.283577	1.285239
C165	C	1.005485	-0.205426	0.882926
C166	C	1.505485	0.294574	1.382926
C167	C	1.073231	-0.216390	0.931224
C168	C	1.573231	0.283610	1.431224
C169	C	1.140990	-0.227429	0.833547
C170	C	1.640990	0.272571	1.333547
C171	C	1.055114	-0.175431	0.833545
C172	C	1.555114	0.324569	1.333545
C173	C	1.122914	-0.186400	0.882918
C174	C	1.622914	0.313600	1.382918
C175	C	1.073183	-0.216442	0.701141
C176	C	1.573183	0.283558	1.201141
C177	C	1.073256	-0.216371	1.015321
C178	C	1.573256	0.283629	1.515321
H179	H	0.527140	-0.140885	0.391565
H180	H	1.027140	0.359115	0.891565
H181	H	0.527315	-0.272021	0.449253
H182	H	1.027315	0.227979	0.949253
O183	O	0.624175	-0.194456	0.493970
O184	O	1.124175	0.305544	0.993970
C185	C	0.599080	-0.151223	0.513028
C186	C	1.099080	0.348777	1.013028
H187	H	0.585191	-0.131798	0.460468
H188	H	1.085191	0.368202	0.960468
H189	H	0.644321	-0.132820	0.544968
H190	H	1.144321	0.367180	1.044968
H191	H	0.547438	-0.154092	0.549060
H192	H	1.047438	0.345908	1.049060
O193	O	0.623845	-0.298854	0.321129
O194	O	1.123845	0.201146	0.821129
C195	C	0.598103	-0.330508	0.373070
C196	C	1.098103	0.169492	0.873070
H197	H	0.583990	-0.312784	0.427216
H198	H	1.083990	0.187216	0.927216
H199	H	0.643040	-0.356576	0.383560
H200	H	1.143040	0.143424	0.883560
H201	H	0.546464	-0.347759	0.350435
H202	H	1.046464	0.152241	0.850435
H203	H	0.939602	-0.744198	0.224109
H204	H	1.439602	-0.244198	0.724109
O205	O	1.166626	-0.383796	0.451593
O206	O	1.666626	0.116204	0.951593
C207	C	1.208539	-0.414527	0.493550
C208	C	1.708539	0.085473	0.993550
H209	H	1.178129	-0.447984	0.496096
H210	H	1.678129	0.052016	0.996096
H211	H	1.216416	-0.400942	0.552069
H212	H	1.716416	0.099058	1.052069
H213	H	1.264963	-0.419503	0.466415
H214	H	1.764963	0.080497	0.966415
O215	O	1.109482	-0.298738	0.908896
O216	O	1.609482	0.201262	1.408896
C217	C	1.051121	-0.315365	0.952920
C218	C	1.551121	0.184635	1.452920
H219	H	1.016594	-0.286189	0.974579
H220	H	1.516594	0.213811	1.474579
H221	H	1.074948	-0.334932	1.001632
H222	H	1.574948	0.165068	1.501632
H223	H	1.014628	-0.338418	0.918150
H224	H	1.514628	0.161582	1.418150
O225	O	1.166679	-0.476261	0.451457
O226	O	1.666679	0.023739	0.951457
C227	C	1.214702	-0.503387	0.409238
C228	C	1.714702	-0.003387	0.909238
H229	H	1.188549	-0.510463	0.352935
H230	H	1.688549	-0.010463	0.852935
H231	H	1.224659	-0.536357	0.439516
H232	H	1.724659	-0.036357	0.939516
H233	H	1.269730	-0.485278	0.401122
H234	H	1.769730	0.014722	0.901122
H235	H	0.527012	-0.236650	0.232742
H236	H	1.027012	0.263350	0.732742
H237	H	0.986923	-0.387580	0.271538
H238	H	1.486923	0.112420	0.771538
H239	H	1.206754	-0.743947	0.491706
H240	H	1.706754	-0.243947	0.991706
H241	H	1.206730	-0.688307	0.491691
H242	H	1.706730	-0.188307	0.991691
H243	H	1.164953	-0.161018	0.904466
H244	H	1.664953	0.338982	1.404466
O245	O	0.932059	-0.692292	0.216735
O246	O	1.432059	-0.192292	0.716735
C247	C	0.884062	-0.719421	0.258983
C248	C	1.384062	-0.219421	0.758983
H249	H	0.910232	-0.726422	0.315283
H250	H	1.410232	-0.226422	0.815283
H251	H	0.874118	-0.752428	0.228727
H252	H	1.374118	-0.252428	0.728727
H253	H	0.829024	-0.701353	0.267100
H254	H	1.329024	-0.201353	0.767100
H255	H	0.948207	-0.196138	0.904617
H256	H	1.448207	0.303862	1.404617
O257	O	0.623942	-0.156092	0.258398
O258	O	1.123942	0.343908	0.758398
C259	C	0.597753	-0.113039	0.277084
C260	C	1.097753	0.386961	0.777084
H261	H	0.545415	-0.116272	0.312005
H262	H	1.045415	0.383728	0.812005
H263	H	0.584655	-0.093616	0.224318
H264	H	1.084655	0.406384	0.724318
H265	H	0.642011	-0.094415	0.310039
H266	H	1.142011	0.405585	0.810039
H267	H	1.206698	-0.603200	0.491664
H268	H	1.706698	-0.103200	0.991664
H269	H	1.206782	-0.829066	0.491724
H270	H	1.706782	-0.329066	0.991724
O271	O	1.166869	-0.956191	0.451752
O272	O	1.666869	-0.456191	0.951752
C273	C	1.208784	-0.986924	0.493702
C274	C	1.708784	-0.486924	0.993702
H275	H	1.178377	-1.020382	0.496240
H276	H	1.678377	-0.520382	0.996240
H277	H	1.216659	-0.973344	0.552224
H278	H	1.716659	-0.473344	1.052224
H279	H	1.265209	-0.991896	0.466567
H280	H	1.765209	-0.491896	0.966567
O281	O	1.166774	-1.048637	0.451784
O282	O	1.666774	-0.548637	0.951784
C283	C	1.124460	-1.075784	0.499689
C284	C	1.624460	-0.575784	0.999689
H285	H	1.065962	-1.061667	0.504206
H286	H	1.565962	-0.561667	1.004206
H287	H	1.151273	-1.076284	0.556874
H288	H	1.651273	-0.576284	1.056874
H289	H	1.121929	-1.111352	0.476727
H290	H	1.621929	-0.611352	0.976727
H291	H	1.198285	-0.236756	0.811948
H292	H	1.698285	0.263244	1.311948
O293	O	1.036867	-0.134126	0.807517
O294	O	1.536867	0.365874	1.307517
C295	C	1.037759	-0.134633	0.729416
C296	C	1.537759	0.365367	1.229416
H297	H	1.074848	-0.163046	0.709279
H298	H	1.574848	0.336954	1.209279
H299	H	1.060077	-0.101311	0.708063
H300	H	1.560077	0.398689	1.208063
H301	H	0.979073	-0.139951	0.707751
H302	H	1.479073	0.360049	1.207751
O303	O	0.973437	-0.276692	0.807740
O304	O	1.473437	0.223308	1.307740
C305	C	0.902255	-0.265464	0.833963
C306	C	1.402255	0.234536	1.333963
H307	H	0.907580	-0.244329	0.886328
H308	H	1.407580	0.255671	1.386328
H309	H	0.870186	-0.297418	0.847029
H310	H	1.370186	0.202582	1.347029
H311	H	0.871440	-0.245567	0.789739
H312	H	1.371440	0.254433	1.289739
O313	O	0.979677	-1.048716	0.264215
O314	O	1.479677	-0.548716	0.764215
C315	C	0.937788	-1.017984	0.222237
C316	C	1.437788	-0.517984	0.722237
H317	H	0.935187	-0.984529	0.252651
H318	H	1.435187	-0.484529	0.752651
H319	H	0.879284	-1.031569	0.214257
H320	H	1.379284	-0.531569	0.714257
H321	H	0.965018	-1.013004	0.165861
H322	H	1.465018	-0.513004	0.665861
H323	H	0.939524	-0.603441	0.224081
H324	H	1.439524	-0.103441	0.724081
H325	H	0.987156	-0.959981	0.271692
H326	H	1.487156	-0.459981	0.771692
O327	O	0.979428	-0.476329	0.264067
O328	O	1.479428	0.023671	0.764067
C329	C	0.937541	-0.445600	0.222082
C330	C	1.437541	0.054400	0.722082
H331	H	0.934944	-0.412142	0.252485
H332	H	1.434944	0.087858	0.752485
H333	H	0.879036	-0.459184	0.214106
H334	H	1.379036	0.040816	0.714106
H335	H	0.964772	-0.440627	0.165704
H336	H	1.464772	0.059373	0.665704
H337	H	0.939637	-0.829305	0.224128
H338	H	1.439637	-0.329305	0.724128
