data_functionalizedCrystal
_audit_creation_method	'MofGen! by Chris Wilmer'
_symmetry_space_group_name_H-M	'P1'
_symmetry_Int_Tables_number	1
_symmetry_cell_setting	triclinic
loop_
_symmetry_equiv_pos_as_xyz
  x,y,z
_cell_length_a	27.732048
_cell_length_b	18.366186
_cell_length_c	19.288857
_cell_angle_alpha	89.991598
_cell_angle_beta	82.887882
_cell_angle_gamma	89.996446
loop_
_atom_site_label
_atom_site_type_symbol
_atom_site_fract_x
_atom_site_fract_y
_atom_site_fract_z
O1	O	0.641178	-0.060459	0.082650
O2	O	0.500423	-0.060482	0.095216
O3	O	0.574870	-0.060461	-0.012223
O4	O	0.566731	-0.060480	0.190089
O5	O	0.574857	0.060638	-0.012228
O6	O	0.500410	0.060618	0.095211
O7	O	0.641166	0.060640	0.082644
Zn8	Zn	0.570786	0.079856	0.088927
Zn9	Zn	0.570802	-0.079698	0.088934
O10	O	0.566719	0.060619	0.190084
C11	C	0.482409	0.000065	0.094950
C12	C	0.428751	0.000057	0.094156
N13	N	0.570778	0.188747	0.088922
N14	N	0.570814	-0.188589	0.088933
C15	C	0.090112	0.000083	0.152645
C16	C	-0.111557	0.000090	0.149697
O17	O	-0.142652	0.000116	0.203181
N18	N	-0.130872	0.000094	0.085990
C19	C	-0.099766	0.000102	0.023015
O20	O	-0.120822	0.000114	-0.031239
C21	C	0.101901	0.000100	0.025963
C22	C	0.121213	0.000088	0.089675
C23	C	0.109424	0.000072	0.216351
C24	C	0.159838	0.000066	0.217087
C25	C	0.190940	0.000072	0.154117
C26	C	0.171628	0.000083	0.090411
C27	C	0.133006	0.000113	-0.037011
C28	C	0.183426	0.000115	-0.036268
C29	C	0.202738	0.000103	0.027443
C30	C	0.253143	0.000083	0.028177
N31	N	0.272458	0.000078	0.091884
C32	C	0.241357	0.000073	0.154854
C33	C	-0.205645	0.000101	0.021472
C34	C	-0.256061	0.000101	0.020735
C35	C	-0.267849	0.000090	0.147417
C36	C	-0.217431	0.000085	0.148154
C37	C	-0.186330	0.000097	0.085179
C38	C	0.347231	0.000060	0.156395
C39	C	0.397650	0.000051	0.157126
C40	C	0.409432	0.000066	0.030444
C41	C	0.359018	0.000071	0.029713
C42	C	0.327917	0.000070	0.092694
O43	O	0.284267	0.000064	-0.025278
O44	O	0.262422	0.000077	0.209101
C45	C	0.039698	0.000089	0.151909
C46	C	0.020385	0.000100	0.088202
C47	C	0.051487	0.000105	0.025232
C48	C	-0.030032	0.000099	0.087465
C49	C	-0.061133	0.000093	0.150435
C50	C	-0.041818	0.000089	0.214142
C51	C	0.008596	0.000083	0.214879
C52	C	0.032172	0.000110	-0.038475
C53	C	-0.018243	0.000115	-0.039206
C54	C	-0.049345	0.000109	0.023764
C55	C	0.659180	0.000092	0.082911
C56	C	0.712837	0.000095	0.083705
C57	C	0.574602	0.000089	-0.038101
C58	C	0.573818	0.000091	-0.115200
C59	C	0.603754	0.226857	0.041371
C60	C	0.603757	0.303084	0.041368
C61	C	0.570789	0.341200	0.088928
C62	C	0.537807	0.303081	0.136482
C63	C	0.537801	0.226855	0.136479
C64	C	0.564317	0.461954	0.152256
C65	C	0.564326	0.538179	0.152260
C66	C	0.570802	0.576307	0.088936
C67	C	0.577281	0.538202	0.025606
C68	C	0.577276	0.461975	0.025603
C69	C	0.570791	0.423855	0.088936
C70	C	0.603783	0.697072	0.041378
C71	C	0.603783	0.773301	0.041374
C72	C	0.537835	0.773296	0.136494
C73	C	0.537833	0.697068	0.136492
C74	C	0.570810	0.658961	0.088935
C75	C	0.573459	-0.065920	-0.151405
C76	C	0.572715	-0.065926	-0.223846
C77	C	0.572340	0.000084	-0.260082
C78	C	0.572697	0.066104	-0.223867
C79	C	0.573435	0.066108	-0.151426
C80	C	0.599477	0.050656	-0.380484
C81	C	0.598741	0.050649	-0.452925
C82	C	0.570059	0.000075	-0.483513
C83	C	0.542120	-0.050505	-0.441654
C84	C	0.542859	-0.050501	-0.369213
C85	C	0.571539	0.000087	-0.338632
C86	C	0.568893	-0.065947	-0.598268
C87	C	0.568146	-0.065950	-0.670710
C88	C	0.568133	0.066082	-0.670730
C89	C	0.568874	0.066083	-0.598288
C90	C	0.569257	0.000067	-0.562062
C91	C	0.566986	0.000067	0.215961
C92	C	0.567770	0.000061	0.293060
H93	H	0.413370	0.000041	0.209009
Cl94	Cl	0.645207	0.178950	-0.018418
Cl95	Cl	0.572263	-0.148918	-0.269372
Cl96	Cl	0.071264	0.000117	-0.117646
Cl97	Cl	0.308141	0.000058	0.235573
Cl98	Cl	0.506058	-0.114085	-0.480098
Cl99	Cl	0.569370	-0.148937	-0.552722
H100	H	0.024315	0.000074	0.266759
H101	H	0.175557	0.000056	0.268967
H102	H	0.520108	-0.091683	-0.335133
Cl103	Cl	0.108741	0.000116	-0.117110
Cl104	Cl	0.569326	0.149074	-0.552770
H105	H	0.573726	0.119864	-0.121947
H106	H	0.084106	0.000070	0.267631
Cl107	Cl	0.633866	0.114232	-0.505541
Cl108	Cl	0.635550	0.114224	-0.342041
Cl109	Cl	0.572221	0.149088	-0.269417
H110	H	-0.201711	0.000080	0.200033
Cl111	Cl	0.567691	-0.148943	-0.716225
H112	H	-0.033961	0.000119	-0.091091
Cl113	Cl	0.645217	0.351002	-0.018416
H114	H	-0.293180	0.000085	0.198690
H115	H	0.343293	0.000070	-0.022166
H116	H	0.582549	0.430953	-0.025962
Cl117	Cl	0.222522	0.000131	-0.115441
Cl118	Cl	0.585428	0.586126	-0.054006
Cl119	Cl	-0.280333	0.000097	-0.059362
Cl120	Cl	0.496378	0.649155	0.196277
Cl121	Cl	-0.166552	0.000114	-0.057704
H122	H	0.434764	0.000068	-0.020825
Cl123	Cl	0.645237	0.649164	-0.018412
Cl124	Cl	0.496386	0.821207	0.196279
H125	H	0.630635	0.804330	0.002648
Cl126	Cl	-0.080927	0.000079	0.293304
Cl127	Cl	0.556185	0.586075	0.231873
H128	H	0.559034	0.430915	0.203825
H129	H	0.567824	0.119829	-0.700231
H130	H	0.510963	0.334118	0.175205
Cl131	Cl	0.496343	0.178942	0.196264
H132	H	0.573769	-0.119676	-0.121914
