data_functionalizedCrystal
_audit_creation_method	'MofGen! by Chris Wilmer'
_symmetry_space_group_name_H-M	'P1'
_symmetry_Int_Tables_number	1
_symmetry_cell_setting	triclinic
loop_
_symmetry_equiv_pos_as_xyz
  x,y,z
_cell_length_a	12.759401
_cell_length_b	12.759399
_cell_length_c	12.759393
_cell_angle_alpha	90.030906
_cell_angle_beta	90.020566
_cell_angle_gamma	90.013324
loop_
_atom_site_label
_atom_site_type_symbol
_atom_site_fract_x
_atom_site_fract_y
_atom_site_fract_z
Zn1	Zn	-1.606263	0.418266	-0.594007
Zn2	Zn	-1.606153	0.593981	-0.418326
Zn3	Zn	-1.430562	0.418311	-0.418343
Zn4	Zn	-1.430553	0.593898	-0.593964
O5	O	-1.518383	0.506114	-0.506160
O6	O	-1.753270	0.441591	-0.570713
O7	O	-1.582818	0.570732	-0.271307
O8	O	-1.453919	0.271284	-0.441670
O9	O	-1.753189	0.570688	-0.441641
O10	O	-1.583006	0.271251	-0.570730
O11	O	-1.453812	0.441669	-0.271320
O12	O	-1.283540	0.441587	-0.441629
O13	O	-1.453903	0.570546	-0.740991
O14	O	-1.283533	0.570590	-0.570657
O15	O	-1.582997	0.441510	-0.741022
O16	O	-1.582809	0.740991	-0.441599
O17	O	-1.453796	0.740930	-0.570640
C18	C	-1.245415	0.506085	-0.506141
C19	C	-1.128639	0.506098	-0.506157
C20	C	-1.073820	0.438997	-0.573468
C21	C	-0.964096	0.439003	-0.573473
C22	C	-0.964020	0.573222	-0.438854
C23	C	-1.073742	0.573210	-0.438845
C24	C	-1.518318	0.779081	-0.506136
C25	C	-1.518387	0.895858	-0.506161
C26	C	-1.518461	0.506013	-0.780193
C27	C	-1.518495	0.505970	-0.896970
C28	C	-0.792416	0.506134	-0.506176
C29	C	-0.909193	0.506117	-0.506172
C30	C	-1.518476	0.232081	-0.506207
C31	C	-1.518516	0.115304	-0.506227
C32	C	-1.585641	0.950717	-0.439046
C33	C	-1.585708	1.060441	-0.439081
C34	C	-1.451259	1.060437	-0.573349
C35	C	-1.451198	0.950715	-0.573319
C36	C	-1.585719	0.438770	-0.951850
C37	C	-1.585737	0.438725	-1.061574
C38	C	-1.451303	0.573088	-1.061529
C39	C	-1.451281	0.573128	-0.951806
C40	C	-1.518365	0.506139	-0.233192
C41	C	-1.518535	0.505886	-0.116416
H42	H	-0.919309	0.627863	-0.384052
O43	O	-1.127162	0.638300	-0.373491
C44	C	-1.296166	0.697804	-0.313867
C45	C	-1.235798	0.624027	-0.387913
H46	H	-1.384009	0.686305	-0.325517
H47	H	-1.274638	0.679255	-0.229161
H48	H	-1.274531	0.782534	-0.332159
H49	H	-1.257401	0.539272	-0.369716
H50	H	-1.257332	0.642666	-0.472597
H51	H	-1.640352	0.906055	-0.384363
H52	H	-1.396583	0.627768	-1.106190
H53	H	-1.640446	0.384083	-0.907205
O54	O	-1.651206	1.113745	-0.374065
C55	C	-1.793192	1.237461	-0.360189
C56	C	-1.719056	1.177163	-0.433920
H57	H	-1.848053	1.288766	-0.408552
H58	H	-1.841275	1.179412	-0.312249
H59	H	-1.745073	1.288902	-0.305167
H60	H	-1.767094	1.125721	-0.489007
H61	H	-1.670970	1.235270	-0.481787
O62	O	-1.127262	0.373750	-0.638701
C63	C	-1.251112	0.231860	-0.653070
C64	C	-1.190678	0.305707	-0.579077
H65	H	-1.302381	0.176815	-0.604893
H66	H	-1.302570	0.280096	-0.707904
H67	H	-1.193057	0.183951	-0.701201
H68	H	-1.248657	0.353633	-0.530878
H69	H	-1.139204	0.257412	-0.524313
O70	O	-0.911007	0.373790	-0.638961
C71	C	-0.922669	0.240622	-0.772443
C72	C	-0.982921	0.314444	-0.698348
H73	H	-0.980785	0.192606	-0.820461
H74	H	-0.871345	0.288878	-0.827367
H75	H	-0.871260	0.185675	-0.724292
H76	H	-1.034387	0.369406	-0.746413
H77	H	-1.034179	0.266122	-0.643421
H78	H	-1.396555	1.105116	-0.628025
O79	O	-1.651140	0.373416	-1.114722
C80	C	-1.784436	0.240110	-1.103180
C81	C	-1.710437	0.314040	-1.042862
H82	H	-1.832381	0.192070	-1.045108
H83	H	-1.839433	0.288283	-1.154524
H84	H	-1.736215	0.185190	-1.154577
H85	H	-1.758573	0.368975	-0.991408
H86	H	-1.655437	0.265802	-0.991584
O87	O	-1.385764	0.897581	-0.638552
C88	C	-1.252463	0.909147	-0.771779
C89	C	-1.326485	0.969452	-0.697940
H90	H	-1.204532	0.967228	-0.819829
H91	H	-1.197454	0.857887	-0.723533
H92	H	-1.300664	0.857667	-0.826693
H93	H	-1.278369	1.020988	-0.643010
H94	H	-1.381497	1.020645	-0.746251
H95	H	-1.396532	0.627849	-0.907122
