data_functionalizedCrystal
_audit_creation_method	'MofGen! by Chris Wilmer'
_symmetry_space_group_name_H-M	'P1'
_symmetry_Int_Tables_number	1
_symmetry_cell_setting	triclinic
loop_
_symmetry_equiv_pos_as_xyz
  x,y,z
_cell_length_a	17.640112
_cell_length_b	19.121063
_cell_length_c	17.639306
_cell_angle_alpha	104.052388
_cell_angle_beta	87.804122
_cell_angle_gamma	103.148881
loop_
_atom_site_label
_atom_site_type_symbol
_atom_site_fract_x
_atom_site_fract_y
_atom_site_fract_z
Zn1	Zn	1.244351	-0.091800	-0.200150
Zn2	Zn	1.214879	-0.192751	-0.078766
Zn3	Zn	1.091355	-0.101224	-0.099325
Zn4	Zn	1.111880	-0.239101	-0.233905
O5	O	1.165616	-0.156219	-0.153036
O6	O	1.347577	-0.081849	-0.161318
O7	O	1.177570	-0.165156	0.025629
O8	O	1.115395	-0.000024	-0.107177
O9	O	1.325924	-0.156017	-0.072138
O10	O	1.227801	0.006900	-0.181253
O11	O	1.086817	-0.097912	0.010524
O12	O	0.986943	-0.142856	-0.139907
O13	O	1.150376	-0.235014	-0.336549
O14	O	1.002022	-0.244153	-0.238783
O15	O	1.247703	-0.126793	-0.311750
O16	O	1.197471	-0.298849	-0.104868
O17	O	1.121798	-0.332902	-0.218847
C18	C	0.966703	-0.199557	-0.195239
C19	C	0.881610	-0.218117	-0.213313
C20	C	0.562475	-0.015208	-0.015739
C21	C	0.482518	-0.032664	-0.032733
C22	C	0.498237	-0.138246	-0.135530
C23	C	0.578197	-0.120797	-0.118547
C24	C	0.610309	-0.059277	-0.058650
C25	C	0.626031	-0.164866	-0.161458
C26	C	0.705984	-0.147420	-0.144474
C27	C	0.738101	-0.085905	-0.084578
C28	C	0.690261	-0.041831	-0.041666
C29	C	0.593917	-0.226388	-0.221351
C30	C	0.641751	-0.270458	-0.264262
C31	C	0.721706	-0.253009	-0.247282
C32	C	0.753824	-0.191494	-0.187386
C33	C	0.769546	-0.297082	-0.290194
C34	C	0.849498	-0.279637	-0.273210
C35	C	0.833776	-0.174048	-0.170402
C36	C	1.158688	-0.341789	-0.163302
C37	C	1.155799	-0.421166	-0.167704
C38	C	1.193887	-0.440702	-0.110462
C39	C	1.191175	-0.515285	-0.114605
C40	C	1.150370	-0.570331	-0.175989
C41	C	1.112282	-0.550792	-0.233237
C42	C	1.114998	-0.476209	-0.229096
C43	C	1.140198	-0.796410	-0.191464
C44	C	1.137483	-0.870997	-0.195600
C45	C	1.216377	-0.835485	-0.076968
C46	C	1.219087	-0.760903	-0.072830
C47	C	1.181001	-0.741369	-0.130080
C48	C	1.147596	-0.646568	-0.180225
C49	C	1.183781	-0.665133	-0.125846
C50	C	1.365306	-0.112712	-0.110670
C51	C	1.450402	-0.094172	-0.092615
C52	C	1.204616	-0.185022	-0.352702
C53	C	1.221236	-0.197297	-0.437787
C54	C	1.172596	0.030079	-0.142743
C55	C	1.175570	0.109467	-0.138357
C56	C	1.039668	-0.062640	-0.756963
C57	C	1.055301	-0.074185	-0.836910
C58	C	1.149792	-0.144199	-0.821164
C59	C	1.134169	-0.132657	-0.741212
C60	C	1.079106	-0.091878	-0.709119
C61	C	1.173608	-0.161894	-0.693368
C62	C	1.157983	-0.150356	-0.613425
C63	C	1.102921	-0.109581	-0.581325
C64	C	1.063482	-0.080340	-0.629175
C65	C	1.228667	-0.202678	-0.725465
C66	C	1.268105	-0.231915	-0.677620
C67	C	1.252485	-0.220373	-0.597674
C68	C	1.197422	-0.179598	-0.565575
C69	C	1.291924	-0.249614	-0.549824
C70	C	1.276299	-0.238076	-0.469881
C71	C	1.181798	-0.168059	-0.485631
C72	C	1.126814	-0.127466	0.045864
C73	C	1.110351	-0.114958	0.130991
H74	H	0.803204	-0.071703	-0.070749
O75	O	1.327488	-0.275901	-0.712244
H76	H	1.352282	-0.294298	-0.665543
O77	O	0.980285	-0.018647	-0.722341
H78	H	0.976053	-0.015533	-0.658712
H79	H	1.252313	-0.716084	-0.022846
H80	H	1.217008	-0.620312	-0.075870
O81	O	1.099118	-0.775338	-0.253201
H82	H	1.054741	-0.744930	-0.225273
O83	O	1.068259	-0.610160	-0.299440
H84	H	1.072757	-0.665305	-0.292697
O85	O	1.257456	-0.856558	-0.015227
H86	H	1.286281	-0.805751	0.028154
H87	H	1.241388	-0.212069	-0.790560
O88	O	0.597114	0.051148	0.048864
H89	H	0.641597	0.090434	0.024281
H90	H	0.615594	-0.320548	-0.313028
H91	H	1.083984	-0.460306	-0.275709
H92	H	0.716411	0.008273	0.007097
H93	H	0.859926	-0.123944	-0.121638
H94	H	0.443574	0.003232	0.002210
H95	H	1.336750	-0.282823	-0.575969
O96	O	1.012771	-0.042622	-0.888500
H97	H	1.055528	-0.004074	-0.915634
H98	H	0.472080	-0.188337	-0.184296
O99	O	1.086068	-0.097132	-0.495099
H100	H	1.099435	-0.036846	-0.467772
H101	H	0.743387	-0.347176	-0.338957
H102	H	0.528814	-0.240591	-0.235178
O103	O	1.237911	-0.381330	-0.044263
H104	H	1.197309	-0.349226	-0.010658
H105	H	0.888447	-0.315522	-0.308153
O106	O	1.318839	-0.269601	-0.418267
H107	H	1.359759	-0.299888	-0.454012
H108	H	1.018652	-0.047124	-0.603041
O109	O	1.209180	-0.188183	-0.855778
H110	H	1.256449	-0.152983	-0.882164
O111	O	1.232249	-0.536359	-0.052863
H112	H	1.261070	-0.485552	-0.009477
H113	H	1.104266	-0.915816	-0.245597
H114	H	1.114371	-0.691396	-0.230203
H115	H	1.136968	-0.134844	-0.459497
