data_functionalizedCrystal
_audit_creation_method	'MofGen! by Chris Wilmer'
_symmetry_space_group_name_H-M	'P1'
_symmetry_Int_Tables_number	1
_symmetry_cell_setting	triclinic
loop_
_symmetry_equiv_pos_as_xyz
  x,y,z
_cell_length_a	29.839135
_cell_length_b	25.639239
_cell_length_c	25.639233
_cell_angle_alpha	89.975333
_cell_angle_beta	90.016634
_cell_angle_gamma	89.957589
loop_
_atom_site_label
_atom_site_type_symbol
_atom_site_fract_x
_atom_site_fract_y
_atom_site_fract_z
Zn1	Zn	0.686730	0.208179	0.295644
Zn2	Zn	0.686662	0.295598	0.208199
Zn3	Zn	0.611611	0.208182	0.208216
Zn4	Zn	0.611562	0.295589	0.295597
O5	O	0.649141	0.251887	0.251914
O6	O	0.749588	0.219778	0.284056
O7	O	0.676699	0.284007	0.135036
O8	O	0.621624	0.135017	0.219840
O9	O	0.749538	0.284004	0.219811
O10	O	0.676813	0.135014	0.284073
O11	O	0.621559	0.219783	0.135049
O12	O	0.548737	0.219775	0.219795
O13	O	0.621541	0.283989	0.368769
O14	O	0.548701	0.283992	0.283994
O15	O	0.676766	0.219769	0.368803
O16	O	0.676651	0.368762	0.219766
O17	O	0.621476	0.368756	0.283977
C18	C	0.532419	0.251883	0.251892
C19	C	0.482484	0.251894	0.251894
C20	C	0.172864	0.218495	0.285416
C21	C	-0.014810	0.218499	0.285431
O22	O	-0.039055	0.190090	0.313907
N23	N	-0.038301	0.251888	0.251933
C24	C	-0.014871	0.285276	0.218427
O25	O	-0.039158	0.313671	0.189932
C26	C	0.172801	0.285269	0.218410
C27	C	0.196290	0.251882	0.251913
C28	C	0.196353	0.185110	0.318916
C29	C	0.243268	0.185112	0.318914
C30	C	0.266694	0.218498	0.285412
C31	C	0.243205	0.251883	0.251911
C32	C	0.196230	0.318654	0.184902
C33	C	0.243151	0.318648	0.184900
C34	C	0.266640	0.285261	0.218403
C35	C	0.313547	0.285271	0.218407
N36	N	0.337039	0.251882	0.251904
C37	C	0.313612	0.218496	0.285407
C38	C	-0.113402	0.285277	0.218439
C39	C	-0.160320	0.285280	0.218444
C40	C	-0.160255	0.218502	0.285447
C41	C	-0.113336	0.218503	0.285444
C42	C	-0.089910	0.251889	0.251937
C43	C	0.412138	0.218502	0.285400
C44	C	0.459058	0.218508	0.285397
C45	C	0.458989	0.285283	0.218392
C46	C	0.412073	0.285279	0.218397
C47	C	0.388649	0.251884	0.251903
O48	O	0.337822	0.313661	0.189942
O49	O	0.337908	0.190096	0.313889
C50	C	0.125948	0.218494	0.285418
C51	C	0.102459	0.251879	0.251918
C52	C	0.125885	0.285265	0.218415
C53	C	0.055541	0.251881	0.251922
C54	C	0.032115	0.218495	0.285425
C55	C	0.055606	0.185106	0.318922
C56	C	0.102522	0.185107	0.318920
C57	C	0.102394	0.318654	0.184918
C58	C	0.055479	0.318650	0.184923
C59	C	0.032052	0.285264	0.218425
C60	C	0.649063	0.387730	0.251876
C61	C	0.649071	0.445844	0.251877
C62	C	0.677833	0.806167	0.285432
C63	C	0.677841	0.860771	0.285444
O64	O	0.702250	0.888975	0.313926
N65	N	0.649135	0.888126	0.251978
C66	C	0.620418	0.860874	0.218502
O67	O	0.596002	0.889155	0.190039
C68	C	0.620408	0.806270	0.218494
C69	C	0.649119	0.778919	0.251958
C70	C	0.706541	0.778815	0.318894
C71	C	0.706534	0.724215	0.318882
C72	C	0.677819	0.696966	0.285407
C73	C	0.649112	0.724318	0.251945
C74	C	0.591689	0.779019	0.185021
C75	C	0.591682	0.724412	0.185015
C76	C	0.620392	0.697060	0.218479
C77	C	0.620390	0.642469	0.218458
N78	N	0.649096	0.615114	0.251924
C79	C	0.677810	0.642363	0.285398
C80	C	0.620439	0.975544	0.218524
C81	C	0.620450	1.030147	0.218530
C82	C	0.677873	1.030041	0.285472
C83	C	0.677863	0.975437	0.285464
C84	C	0.649144	0.948190	0.251990
C85	C	0.677794	0.527698	0.285369
C86	C	0.677785	0.473092	0.285352
C87	C	0.620361	0.473203	0.218411
C88	C	0.620371	0.527804	0.218426
C89	C	0.649089	0.555050	0.251909
O90	O	0.595992	0.614231	0.189993
O91	O	0.702217	0.614075	0.313862
C92	C	0.766319	0.251892	0.251937
C93	C	0.816254	0.251893	0.251946
C94	C	0.649156	0.251878	0.388287
C95	C	0.649162	0.251874	0.446401
C96	C	0.649205	1.115514	0.251969
C97	C	0.649163	1.057400	0.252007
C98	C	0.649153	0.251859	0.116071
C99	C	0.649233	0.251715	0.057958
C100	C	0.677954	0.218335	0.806788
C101	C	0.677960	0.218321	0.861392
O102	O	0.702403	0.189867	0.889649
N103	N	0.649211	0.251751	0.888684
C104	C	0.620452	0.285195	0.861368
O105	O	0.596000	0.313628	0.889596
C106	C	0.620445	0.285206	0.806765
C107	C	0.649198	0.251777	0.779476
C108	C	0.706705	0.184909	0.779499
C109	C	0.706700	0.184924	0.724898
C110	C	0.677944	0.218366	0.697587
C111	C	0.649193	0.251793	0.724876
C112	C	0.591684	0.318647	0.779451
C113	C	0.591679	0.318655	0.724844
C114	C	0.620432	0.285226	0.697555
C115	C	0.620432	0.285250	0.642963
N116	N	0.649181	0.251819	0.615672
C117	C	0.677936	0.218377	0.642983
C118	C	0.620470	0.285168	0.976039
C119	C	0.620479	0.285159	1.030641
C120	C	0.677986	0.218285	1.030661
C121	C	0.677978	0.218296	0.976058
C122	C	0.649218	0.251737	0.948747
C123	C	0.677924	0.218412	0.528318
C124	C	0.677918	0.218432	0.473713
C125	C	0.620409	0.285305	0.473698
C126	C	0.620417	0.285287	0.528298
C127	C	0.649176	0.251837	0.555607
O128	O	0.596000	0.313688	0.614672
O129	O	0.702381	0.189944	0.614749
H130	H	0.036524	0.157923	0.346203
H131	H	0.597076	1.052412	0.191274
H132	H	0.597049	0.312402	0.953806
F133	F	0.708359	0.556687	0.321005
H134	H	0.177113	0.345841	0.157619
F135	F	0.737104	0.807807	0.354528
H136	H	0.568270	0.345868	0.801660
F137	F	0.589804	0.444194	0.182787
F138	F	0.708420	0.946332	0.321081
F139	F	0.708433	1.059050	0.321100
H140	H	0.121642	0.157920	0.346202
F141	F	0.708523	0.182852	0.444673
F142	F	0.589873	0.946550	0.182891
F143	F	0.737317	0.149317	0.808558
H144	H	0.036358	0.345843	0.157641
F145	F	0.561130	0.808117	0.149404
F146	F	0.127320	0.354186	0.149253
F147	F	0.708345	0.443985	0.320969
H148	H	0.730113	0.157702	0.702684
H149	H	0.729911	0.701948	0.346132
H150	H	0.568294	0.702230	0.157757
F151	F	0.589820	0.556915	0.182804
F152	F	0.708590	0.182691	1.059738
H153	H	0.701340	0.191172	0.550547
F154	F	0.561066	0.354248	0.695781
F155	F	0.589818	0.320869	0.557342
F156	F	0.589807	0.320894	0.444621
F157	F	0.708581	0.182716	0.947020
H158	H	0.597070	0.312386	1.052855
H159	H	0.478180	0.191319	0.312681
H160	H	0.393072	0.191307	0.312682
H161	H	0.177284	0.157920	0.346198
F162	F	-0.088341	0.182967	0.321102
F163	F	-0.185195	0.182969	0.321102
F164	F	-0.185313	0.320820	0.182790
F165	F	-0.088476	0.320810	0.182770
F166	F	0.268261	0.149575	0.354572
H167	H	0.262222	0.345835	0.157612
H168	H	0.478071	0.312466	0.191117
F169	F	0.387074	0.320827	0.182753
