data_functionalizedCrystal
_audit_creation_method	'MofGen! by Chris Wilmer'
_symmetry_space_group_name_H-M	'P1'
_symmetry_Int_Tables_number	1
_symmetry_cell_setting	triclinic
loop_
_symmetry_equiv_pos_as_xyz
  x,y,z
_cell_length_a	17.077404
_cell_length_b	16.959453
_cell_length_c	17.077396
_cell_angle_alpha	89.970936
_cell_angle_beta	89.981638
_cell_angle_gamma	90.017958
loop_
_atom_site_label
_atom_site_type_symbol
_atom_site_fract_x
_atom_site_fract_y
_atom_site_fract_z
Zn1	Zn	1.200070	-0.314724	-0.443816
Zn2	Zn	1.199984	-0.446912	-0.312548
Zn3	Zn	1.068802	-0.314747	-0.312566
Zn4	Zn	1.068777	-0.446860	-0.443775
O5	O	1.134408	-0.380811	-0.378176
O6	O	1.309906	-0.332272	-0.426413
O7	O	1.182557	-0.429411	-0.202704
O8	O	1.086262	-0.204133	-0.330001
O9	O	1.309842	-0.429390	-0.329971
O10	O	1.182704	-0.204116	-0.426430
O11	O	1.086178	-0.332310	-0.202717
O12	O	0.958952	-0.332260	-0.329962
O13	O	1.086219	-0.429301	-0.553627
O14	O	0.958933	-0.429323	-0.426360
O15	O	1.182680	-0.332221	-0.553657
O16	O	1.182532	-0.557516	-0.329931
O17	O	1.086135	-0.557478	-0.426342
C18	C	0.930461	-0.380788	-0.378159
C19	C	0.843211	-0.380798	-0.378170
C20	C	1.134343	-0.586177	-0.378147
C21	C	1.134387	-0.674034	-0.378161
C22	C	0.802254	-0.330319	-0.428463
C23	C	0.720274	-0.330324	-0.428467
C24	C	0.679251	-0.380813	-0.378180
C25	C	0.720213	-0.431294	-0.327881
C26	C	0.802192	-0.431285	-0.327874
C27	C	0.549343	-0.431312	-0.327900
C28	C	0.467359	-0.431323	-0.327908
C29	C	0.467425	-0.330351	-0.428494
C30	C	0.549404	-0.330342	-0.428487
C31	C	0.590360	-0.380824	-0.378188
C32	C	1.184690	-1.045442	-0.428481
C33	C	1.084346	-1.045576	-0.327988
C34	C	1.084317	-0.963031	-0.327970
C35	C	1.134474	-0.921687	-0.378209
C36	C	1.184661	-0.962889	-0.428466
C37	C	1.034126	-0.921822	-0.277719
C38	C	1.034094	-0.839271	-0.277699
C39	C	1.084256	-0.797926	-0.327935
C40	C	1.134445	-0.839133	-0.378194
C41	C	1.184603	-0.797789	-0.428434
C42	C	1.234796	-0.838995	-0.478689
C43	C	1.234823	-0.921543	-0.478702
C44	C	1.084229	-0.715378	-0.327922
C45	C	1.184573	-0.715236	-0.428419
C46	C	1.339153	-0.380834	-0.378194
C47	C	1.426402	-0.380844	-0.378202
C48	C	1.134456	-0.380753	-0.582921
C49	C	1.134476	-0.380728	-0.670170
C50	C	1.134496	-0.174643	-0.378222
C51	C	1.134533	-0.086786	-0.378242
C52	C	1.184705	-0.330174	-0.711178
C53	C	1.184715	-0.330148	-0.793158
C54	C	1.134498	-0.380680	-0.834130
C55	C	1.084264	-0.431236	-0.793117
C56	C	1.084251	-0.431257	-0.711138
C57	C	1.084296	-0.431188	-0.963987
C58	C	1.084309	-0.431168	-1.045972
C59	C	1.184759	-0.330079	-1.046007
C60	C	1.184746	-0.330100	-0.964028
C61	C	1.134512	-0.380657	-0.923021
C62	C	1.134406	-0.380812	-0.174228
C63	C	1.134538	-0.380614	-0.086979
H64	H	0.835649	-0.289207	-0.469415
Br65	Br	0.411843	-0.261839	-0.496756
Br66	Br	1.302855	-0.782876	-0.546878
H67	H	1.043359	-0.681832	-0.287009
H68	H	0.582802	-0.289234	-0.469439
Br69	Br	1.016076	-0.499863	-0.655484
Br70	Br	0.664693	-0.261814	-0.496727
H71	H	0.433960	-0.472436	-0.286961
H72	H	0.582688	-0.472419	-0.286940
H73	H	0.686806	-0.472399	-0.286933
H74	H	0.835538	-0.472390	-0.286919
Br75	Br	1.252866	-0.261598	-0.655581
H76	H	1.043374	-0.472377	-0.826483
Br77	Br	1.252655	-0.659132	-0.496598
Br78	Br	1.252937	-0.261469	-1.101658
Br79	Br	1.016118	-0.499799	-0.908335
H80	H	1.043417	-0.472313	-1.079329
Br81	Br	1.016264	-1.101686	-0.259823
Br82	Br	0.965972	-0.783357	-0.209501
H83	H	1.275687	-0.955100	-0.519618
H84	H	1.225641	-0.288957	-0.930671
Br85	Br	1.252812	-1.101360	-0.496677
H86	H	0.993288	-0.955491	-0.236819
Br87	Br	1.252922	-0.261573	-0.848808
