data_functionalizedCrystal
_audit_creation_method	'MofGen! by Chris Wilmer'
_symmetry_space_group_name_H-M	'P1'
_symmetry_Int_Tables_number	1
_symmetry_cell_setting	triclinic
loop_
_symmetry_equiv_pos_as_xyz
  x,y,z
_cell_length_a	15.944493
_cell_length_b	15.944551
_cell_length_c	9.730217
_cell_angle_alpha	89.995798
_cell_angle_beta	89.999156
_cell_angle_gamma	83.486891
loop_
_atom_site_label
_atom_site_type_symbol
_atom_site_fract_x
_atom_site_fract_y
_atom_site_fract_z
O1	O	1.114551	0.108099	-0.114275
O2	O	1.614551	0.608099	0.385725
O3	O	0.869995	0.121506	-0.114282
O4	O	1.369995	0.621506	0.385718
O5	O	0.998951	-0.007474	-0.114266
O6	O	1.498951	0.492526	0.385734
O7	O	0.985594	0.237078	-0.114291
O8	O	1.485594	0.737078	0.385709
O9	O	0.998947	-0.007475	0.114314
O10	O	1.498947	0.492525	0.614314
O11	O	0.869991	0.121505	0.114298
O12	O	1.369991	0.621505	0.614298
O13	O	1.114547	0.108098	0.114305
O14	O	1.614547	0.608098	0.614305
Zn15	Zn	0.992268	0.114801	0.150594
Zn16	Zn	1.492268	0.614801	0.650594
Zn17	Zn	0.992273	0.114802	-0.150570
Zn18	Zn	1.492273	0.614802	0.349430
O19	O	0.985591	0.237077	0.114289
O20	O	1.485591	0.737077	0.614289
C21	C	0.838698	0.120957	0.000007
C22	C	1.338698	0.620957	0.500007
C23	C	0.745449	0.119314	0.000005
C24	C	1.245449	0.619314	0.500005
C25	C	0.509689	0.195235	-0.000004
C26	C	1.009689	0.695235	0.499996
C27	C	0.459129	0.154293	0.112708
C28	C	0.959129	0.654293	0.612708
C29	C	0.574728	0.116270	0.000008
C30	C	1.074728	0.616270	0.500008
C31	C	0.459137	0.154276	-0.112654
C32	C	0.959137	0.654276	0.387346
C33	C	0.409819	0.113336	0.000005
C34	C	0.909819	0.613336	0.500005
C35	C	0.525396	0.075350	0.112813
C36	C	1.025396	0.575350	0.612813
C37	C	0.525408	0.075344	-0.112650
C38	C	1.025408	0.575344	0.387350
C39	C	0.474880	0.034345	0.000089
C40	C	0.974880	0.534345	0.500089
C41	C	0.669728	0.117963	0.000011
C42	C	1.169728	0.617963	0.500011
C43	C	0.314821	0.111637	0.000012
C44	C	0.814821	0.611637	0.500012
C45	C	0.998395	-0.038768	0.000025
C46	C	1.498395	0.461232	0.500025
C47	C	0.996732	-0.132014	0.000025
C48	C	1.496732	0.367986	0.500025
C49	C	0.912826	-0.346853	0.000004
C50	C	1.412826	0.153147	0.500004
C51	C	0.951787	-0.407879	0.112709
C52	C	1.451787	0.092121	0.612709
C53	C	0.993725	-0.302739	0.000015
C54	C	1.493725	0.197261	0.500015
C55	C	0.951810	-0.407862	-0.112653
C56	C	1.451810	0.092138	0.387347
C57	C	0.990814	-0.467651	-0.000002
C58	C	1.490814	0.032349	0.499998
C59	C	1.032709	-0.362537	0.112813
C60	C	1.532709	0.137463	0.612813
C61	C	1.032720	-0.362513	-0.112651
C62	C	1.532720	0.137487	0.387349
C63	C	1.071741	-0.423521	0.000082
C64	C	1.571741	0.076479	0.500082
C65	C	0.995399	-0.207737	0.000025
C66	C	1.495399	0.292263	0.500025
C67	C	0.989146	-0.562652	-0.000002
C68	C	1.489146	-0.062652	0.499998
C69	C	1.145844	0.108646	0.000013
C70	C	1.645844	0.608646	0.500013
C71	C	1.239092	0.110289	0.000006
C72	C	1.739092	0.610289	0.500006
C73	C	0.986147	0.268372	-0.000004
C74	C	1.486147	0.768372	0.499996
C75	C	0.987809	0.361617	-0.000014
C76	C	1.487809	0.861617	0.499986
N77	N	0.992271	0.114799	0.356130
N78	N	1.492271	0.614799	0.856130
N79	N	0.992277	0.114797	-0.356107
N80	N	1.492277	0.614797	0.143893
C81	C	1.106508	0.000621	0.356135
C82	C	1.606508	0.500621	0.856135
C83	C	1.163632	-0.056466	0.428078
C84	C	1.663632	0.443534	0.928078
C85	C	1.163641	-0.056467	0.571957
C86	C	1.663641	0.443533	1.071957
C87	C	1.106517	0.000624	0.643898
C88	C	1.606517	0.500624	1.143898
C89	C	1.049393	0.057711	0.571956
C90	C	1.549393	0.557711	1.071956
C91	C	1.049392	0.057707	0.428073
C92	C	1.549392	0.557707	0.928073
C93	C	0.935153	0.171884	0.571951
C94	C	1.435153	0.671884	1.071951
C95	C	0.935147	0.171890	0.428071
C96	C	1.435147	0.671890	0.928071
C97	C	0.878030	0.228975	0.643892
C98	C	1.378030	0.728975	1.143892
C99	C	0.820908	0.286068	0.571949
C100	C	1.320908	0.786068	1.071949
C101	C	0.820902	0.286066	0.428061
C102	C	1.320902	0.786066	0.928061
C103	C	0.878023	0.228977	0.356129
C104	C	1.378023	0.728977	0.856129
H105	H	0.430201	0.187640	-0.207929
H106	H	0.930201	0.687640	0.292071
Cl107	Cl	0.878035	0.228973	0.824770
Cl108	Cl	1.378035	0.728973	1.324770
Cl109	Cl	1.085507	-0.331440	-0.259766
Cl110	Cl	1.585507	0.168560	0.240234
H111	H	1.138950	-0.456694	0.000147
H112	H	1.638950	0.043306	0.500147
H113	H	0.878026	0.228974	0.238974
H114	H	1.378026	0.728974	0.738974
H115	H	0.525313	0.263254	0.000095
H116	H	1.025313	0.763254	0.500095
H117	H	1.210153	-0.102955	0.630533
H118	H	1.710153	0.397045	1.130533
Cl119	Cl	0.450992	-0.070748	0.000200
Cl120	Cl	0.950992	0.429252	0.500200
Cl121	Cl	0.898962	-0.438869	-0.259752
Cl122	Cl	1.398962	0.061131	0.240248
Cl123	Cl	1.106514	0.000626	0.175257
Cl124	Cl	1.606514	0.500626	0.675257
H125	H	0.554356	0.042022	-0.207936
H126	H	1.054356	0.542022	0.292064
Cl127	Cl	0.569896	0.023896	0.260083
Cl128	Cl	1.069896	0.523896	0.760083
H129	H	1.210140	-0.102951	0.369491
H130	H	1.710140	0.397049	0.869491
H131	H	0.845675	-0.313532	0.000114
H132	H	1.345675	0.186468	0.500114
H133	H	1.066895	-0.342554	0.208200
H134	H	1.566895	0.157446	0.708200
Cl135	Cl	0.414447	0.205777	0.259814
Cl136	Cl	0.914447	0.705777	0.759814
H137	H	0.774398	0.332543	0.630532
H138	H	1.274398	0.832543	1.130532
H139	H	0.917568	-0.427981	0.207990
H140	H	1.417568	0.072019	0.707990
H141	H	0.774382	0.332550	0.369493
H142	H	1.274382	0.832550	0.869493
Cl143	Cl	1.106518	0.000612	0.824777
Cl144	Cl	1.606518	0.500612	1.324777
