data_functionalizedCrystal
_audit_creation_method	'MofGen! by Chris Wilmer'
_symmetry_space_group_name_H-M	'P1'
_symmetry_Int_Tables_number	1
_symmetry_cell_setting	triclinic
loop_
_symmetry_equiv_pos_as_xyz
  x,y,z
_cell_length_a	18.050589
_cell_length_b	19.077142
_cell_length_c	19.076919
_cell_angle_alpha	89.925643
_cell_angle_beta	92.275255
_cell_angle_gamma	92.276109
loop_
_atom_site_label
_atom_site_type_symbol
_atom_site_fract_x
_atom_site_fract_y
_atom_site_fract_z
Zn1	Zn	-0.359299	-1.058246	-0.440474
Zn2	Zn	-0.109299	-0.808246	-0.190474
Zn3	Zn	0.140701	-0.558246	0.059526
Zn4	Zn	0.390701	-0.308246	0.309526
Zn5	Zn	-0.478707	-1.062878	-0.322974
Zn6	Zn	-0.228707	-0.812878	-0.072974
Zn7	Zn	0.021293	-0.562878	0.177026
Zn8	Zn	0.271293	-0.312878	0.427026
Zn9	Zn	-0.349349	-0.945464	-0.318263
Zn10	Zn	-0.099349	-0.695464	-0.068263
Zn11	Zn	0.150651	-0.445464	0.181737
Zn12	Zn	0.400651	-0.195464	0.431737
Zn13	Zn	-0.478257	-0.940700	-0.435722
Zn14	Zn	-0.228257	-0.690700	-0.185722
Zn15	Zn	0.021743	-0.440700	0.064278
Zn16	Zn	0.271743	-0.190700	0.314278
O17	O	-0.416403	-1.001822	-0.379358
O18	O	-0.166403	-0.751822	-0.129358
O19	O	0.083597	-0.501822	0.120642
O20	O	0.333597	-0.251822	0.370642
O21	O	-0.379491	-1.157192	-0.428847
O22	O	-0.129491	-0.907192	-0.178847
O23	O	0.120509	-0.657192	0.071153
O24	O	0.370509	-0.407192	0.321153
O25	O	-0.457572	-1.051235	-0.224017
O26	O	-0.207572	-0.801235	0.025983
O27	O	0.042428	-0.551235	0.275983
O28	O	0.292428	-0.301235	0.525983
O29	O	-0.246747	-0.960480	-0.334491
O30	O	0.003253	-0.710480	-0.084491
O31	O	0.253253	-0.460480	0.165509
O32	O	0.503253	-0.210480	0.415509
O33	O	-0.467220	-1.160595	-0.342520
O34	O	-0.217220	-0.910595	-0.092520
O35	O	0.032780	-0.660595	0.157480
O36	O	0.282780	-0.410595	0.407480
O37	O	-0.254058	-1.043340	-0.424279
O38	O	-0.004058	-0.793340	-0.174279
O39	O	0.245942	-0.543340	0.075721
O40	O	0.495942	-0.293340	0.325721
O41	O	-0.362532	-0.964972	-0.220556
O42	O	-0.112532	-0.714972	0.029444
O43	O	0.137468	-0.464972	0.279444
O44	O	0.387468	-0.214972	0.529444
O45	O	-0.362096	-0.846501	-0.329884
O46	O	-0.112096	-0.596501	-0.079884
O47	O	0.137904	-0.346501	0.170116
O48	O	0.387904	-0.096501	0.420116
O49	O	-0.466453	-0.952360	-0.534684
O50	O	-0.216453	-0.702360	-0.284684
O51	O	0.033547	-0.452360	-0.034684
O52	O	0.283547	-0.202360	0.215316
O53	O	-0.456805	-0.843000	-0.416181
O54	O	-0.206805	-0.593000	-0.166181
O55	O	0.043195	-0.343000	0.083819
O56	O	0.293195	-0.093000	0.333819
O57	O	-0.379055	-1.038720	-0.538175
O58	O	-0.129055	-0.788720	-0.288175
O59	O	0.120945	-0.538720	-0.038175
O60	O	0.370945	-0.288720	0.211825
O61	O	-0.582569	-1.046615	-0.337913
O62	O	-0.332569	-0.796615	-0.087913
O63	O	-0.082569	-0.546615	0.162087
O64	O	0.167431	-0.296615	0.412087
O65	O	-0.582239	-0.956852	-0.420749
O66	O	-0.332239	-0.706852	-0.170749
O67	O	-0.082239	-0.456852	0.079251
O68	O	0.167761	-0.206852	0.329251
C69	C	-0.408322	-0.819254	-0.372006
C70	C	-0.158322	-0.569254	-0.122006
C71	C	0.091678	-0.319254	0.127994
C72	C	0.341678	-0.069254	0.377994
C73	C	-0.404884	-0.741151	-0.368877
C74	C	-0.154884	-0.491151	-0.118877
C75	C	0.095116	-0.241151	0.131123
C76	C	0.345116	0.008849	0.381123
C77	C	-0.452647	-0.702656	-0.412267
C78	C	-0.202647	-0.452656	-0.162267
C79	C	0.047353	-0.202656	0.087733
C80	C	0.297353	0.047344	0.337733
C81	C	-0.449407	-0.629269	-0.409331
C82	C	-0.199407	-0.379269	-0.159331
C83	C	0.050593	-0.129269	0.090669
C84	C	0.300593	0.120731	0.340669
C85	C	-0.398406	-0.594378	-0.363001
C86	C	-0.148406	-0.344378	-0.113001
C87	C	0.101594	-0.094378	0.136999
C88	C	0.351594	0.155622	0.386999
C89	C	-0.350638	-0.632878	-0.319609
C90	C	-0.100638	-0.382878	-0.069609
C91	C	0.149362	-0.132878	0.180391
C92	C	0.399362	0.117122	0.430391
C93	C	-0.353875	-0.706263	-0.322550
C94	C	-0.103875	-0.456263	-0.072550
C95	C	0.146125	-0.206263	0.177450
C96	C	0.396125	0.043737	0.427450
C97	C	-0.383425	-0.375092	-0.349400
C98	C	-0.133425	-0.125092	-0.099400
C99	C	0.116575	0.124908	0.150600
C100	C	0.366575	0.374908	0.400600
C101	C	-0.380193	-0.301701	-0.346462
C102	C	-0.130193	-0.051701	-0.096462
C103	C	0.119807	0.198299	0.153538
C104	C	0.369807	0.448299	0.403538
C105	C	-0.478961	-0.298097	-0.436185
C106	C	-0.228961	-0.048097	-0.186185
C107	C	0.021039	0.201903	0.063815
C108	C	0.271039	0.451903	0.313815
C109	C	-0.482197	-0.371485	-0.439118
C110	C	-0.232197	-0.121485	-0.189118
C111	C	0.017803	0.128515	0.060882
C112	C	0.267803	0.378515	0.310882
C113	C	-0.434426	-0.409978	-0.395729
C114	C	-0.184426	-0.159978	-0.145729
C115	C	0.065574	0.090022	0.104271
C116	C	0.315574	0.340022	0.354271
N117	N	-0.395094	-0.519365	-0.359997
N118	N	-0.145094	-0.269365	-0.109997
N119	N	0.104906	-0.019365	0.140003
N120	N	0.354906	0.230635	0.390003
N121	N	-0.437735	-0.484990	-0.398737
N122	N	-0.187735	-0.234990	-0.148737
N123	N	0.062265	0.015010	0.101263
N124	N	0.312265	0.265010	0.351263
C125	C	-0.609351	-1.001738	-0.379343
C126	C	-0.359351	-0.751738	-0.129343
C127	C	-0.109351	-0.501738	0.120657
C128	C	0.140649	-0.251738	0.370657
C129	C	-0.691899	-1.001765	-0.379363
C130	C	-0.441899	-0.751765	-0.129363
C131	C	-0.191899	-0.501765	0.120637
C132	C	0.058101	-0.251765	0.370637
C133	C	-0.891198	-0.952998	-0.424394
C134	C	-0.641198	-0.702998	-0.174394
C135	C	-0.391198	-0.452998	0.075606
C136	C	-0.141198	-0.202998	0.325606
C137	C	-0.937272	-0.938448	-0.359587
C138	C	-0.687272	-0.688448	-0.109587
C139	C	-0.437272	-0.438448	0.140413
C140	C	-0.187272	-0.188448	0.390413
C141	C	-0.843032	-1.001834	-0.379375
C142	C	-0.593032	-0.751834	-0.129375
C143	C	-0.343032	-0.501834	0.120625
C144	C	-0.093032	-0.251834	0.370625
C145	C	-0.944042	-1.016418	-0.444191
C146	C	-0.694042	-0.766418	-0.194191
C147	C	-0.444042	-0.516418	0.055809
C148	C	-0.194042	-0.266418	0.305809
C149	C	-0.989021	-1.001898	-0.379392
C150	C	-0.739021	-0.751898	-0.129392
C151	C	-0.489021	-0.501898	0.120608
C152	C	-0.239021	-0.251898	0.370608
C153	C	-0.888016	-0.987251	-0.314532
C154	C	-0.638016	-0.737251	-0.064532
C155	C	-0.388016	-0.487251	0.185468
C156	C	-0.138016	-0.237251	0.435468
C157	C	-0.894786	-1.065249	-0.399180
C158	C	-0.644786	-0.815249	-0.149180
C159	C	-0.394786	-0.565249	0.100820
C160	C	-0.144786	-0.315249	0.350820
C161	C	-0.940836	-1.050725	-0.334330
C162	C	-0.690836	-0.800725	-0.084330
C163	C	-0.440836	-0.550725	0.165670
C164	C	-0.190836	-0.300725	0.415670
C165	C	-0.758932	-1.001794	-0.379366
C166	C	-0.508932	-0.751794	-0.129366
C167	C	-0.258932	-0.501794	0.120634
C168	C	-0.008932	-0.251794	0.370634
C169	C	-1.073119	-1.001938	-0.379393
C170	C	-0.823119	-0.751938	-0.129393
C171	C	-0.573119	-0.501938	0.120607
C172	C	-0.323119	-0.251938	0.370607
C173	C	-0.222703	-1.001925	-0.379389
C174	C	0.027297	-0.751925	-0.129389
C175	C	0.277297	-0.501925	0.120611
C176	C	0.527297	-0.251925	0.370611
C177	C	-0.140160	-1.001969	-0.379403
C178	C	0.109840	-0.751969	-0.129403
C179	C	0.359840	-0.501969	0.120597
C180	C	0.609840	-0.251969	0.370597
C181	C	-0.423814	-0.994492	-0.562638
C182	C	-0.173814	-0.744492	-0.312638
C183	C	0.076186	-0.494492	-0.062638
C184	C	0.326186	-0.244492	0.187362
C185	C	-0.426972	-0.991368	-0.640742
C186	C	-0.176972	-0.741368	-0.390742
C187	C	0.073028	-0.491368	-0.140742
C188	C	0.323028	-0.241368	0.109258
C189	C	-0.424512	-0.185103	-0.386731
C190	C	-0.174512	0.064897	-0.136731
C191	C	0.075488	0.314897	0.113269
C192	C	0.325488	0.564897	0.363269
C193	C	-0.427956	-0.263207	-0.389851
C194	C	-0.177956	-0.013207	-0.139851
C195	C	0.072044	0.236793	0.110149
C196	C	0.322044	0.486793	0.360149
C197	C	-0.382954	-1.034862	-0.679253
C198	C	-0.132954	-0.784862	-0.429253
C199	C	0.117046	-0.534862	-0.179253
C200	C	0.367046	-0.284862	0.070747
C201	C	-0.385918	-1.031918	-0.752639
C202	C	-0.135918	-0.781918	-0.502639
C203	C	0.114082	-0.531918	-0.252639
C204	C	0.364082	-0.281918	-0.002639
C205	C	-0.432905	-0.985485	-0.787512
C206	C	-0.182905	-0.735485	-0.537512
C207	C	0.067095	-0.485485	-0.287512
C208	C	0.317095	-0.235485	-0.037512
C209	C	-0.476924	-0.941986	-0.748995
C210	C	-0.226924	-0.691986	-0.498995
C211	C	0.023076	-0.441986	-0.248995
C212	C	0.273076	-0.191986	0.001005
C213	C	-0.473956	-0.944927	-0.675611
C214	C	-0.223956	-0.694927	-0.425611
C215	C	0.026044	-0.444927	-0.175611
C216	C	0.276044	-0.194927	0.074389
C217	C	-0.446659	-0.971866	-1.006794
C218	C	-0.196659	-0.721866	-0.756794
C219	C	0.053341	-0.471866	-0.506794
C220	C	0.303341	-0.221866	-0.256794
C221	C	-0.449626	-0.968930	-1.080184
C222	C	-0.199626	-0.718930	-0.830184
C223	C	0.050374	-0.468930	-0.580184
C224	C	0.300374	-0.218930	-0.330184
C225	C	-0.358618	-1.058862	-1.083822
C226	C	-0.108618	-0.808862	-0.833822
C227	C	0.141382	-0.558862	-0.583822
C228	C	0.391382	-0.308862	-0.333822
C229	C	-0.355657	-1.061801	-1.010436
C230	C	-0.105657	-0.811801	-0.760436
C231	C	0.144343	-0.561801	-0.510436
C232	C	0.394343	-0.311801	-0.260436
C233	C	-0.399674	-1.018300	-0.971926
C234	C	-0.149674	-0.768300	-0.721926
C235	C	0.100326	-0.518300	-0.471926
C236	C	0.350326	-0.268300	-0.221926
N237	N	-0.435938	-0.982476	-0.862524
N238	N	-0.185938	-0.732476	-0.612524
N239	N	0.064062	-0.482476	-0.362524
N240	N	0.314062	-0.232476	-0.112524
N241	N	-0.396637	-1.021305	-0.896915
N242	N	-0.146637	-0.771305	-0.646915
N243	N	0.103363	-0.521305	-0.396915
N244	N	0.353363	-0.271305	-0.146915
C245	C	-0.408969	-1.009164	-0.196792
C246	C	-0.158969	-0.759164	0.053208
C247	C	0.091031	-0.509164	0.303208
C248	C	0.341031	-0.259164	0.553208
C249	C	-0.405608	-1.012424	-0.118695
C250	C	-0.155608	-0.762424	0.131305
C251	C	0.094392	-0.512424	0.381305
C252	C	0.344392	-0.262424	0.631305
H253	H	-0.344532	-0.406425	-0.314064
H254	H	-0.094532	-0.156425	-0.064064
H255	H	0.155468	0.093575	0.185936
H256	H	0.405468	0.343575	0.435936
Br257	Br	-0.281415	-0.585527	-0.256738
Br258	Br	-0.031415	-0.335527	-0.006738
Br259	Br	0.218585	-0.085527	0.243262
Br260	Br	0.468585	0.164473	0.493262
H261	H	-0.494179	-0.731059	-0.449992
H262	H	-0.244179	-0.481059	-0.199992
H263	H	0.005821	-0.231059	0.050008
H264	H	0.255821	0.018941	0.300008
Br265	Br	-0.289047	-0.758507	-0.263665
Br266	Br	-0.039047	-0.508507	-0.013665
Br267	Br	0.210953	-0.258507	0.236335
Br268	Br	0.460953	-0.008507	0.486335
H269	H	-0.869403	-0.911643	-0.462407
H270	H	-0.619403	-0.661643	-0.212407
H271	H	-0.369403	-0.411643	0.037593
H272	H	-0.119403	-0.161643	0.287593
H273	H	-0.875993	-1.118833	-0.415947
H274	H	-0.625993	-0.868833	-0.165947
H275	H	-0.375993	-0.618833	0.084053
H276	H	-0.125993	-0.368833	0.334053
Br277	Br	-0.543792	-0.245853	-0.495064
Br278	Br	-0.293792	0.004147	-0.245064
Br279	Br	-0.043792	0.254147	0.004936
Br280	Br	0.206208	0.504147	0.254936
Br281	Br	-0.298884	-1.117894	-1.136090
Br282	Br	-0.048884	-0.867894	-0.886090
Br283	Br	0.201116	-0.617894	-0.636090
Br284	Br	0.451116	-0.367894	-0.386090
H285	H	-0.487889	-0.931116	-1.108575
H286	H	-0.237889	-0.681116	-0.858575
H287	H	0.012111	-0.431116	-0.608575
H288	H	0.262111	-0.181116	-0.358575
H289	H	-0.488301	-0.597930	-0.444663
H290	H	-0.238301	-0.347930	-0.194663
H291	H	0.011699	-0.097930	0.055337
H292	H	0.261699	0.152070	0.305337
Br293	Br	-0.319190	-1.097888	-0.631933
Br294	Br	-0.069190	-0.847888	-0.381933
Br295	Br	0.180810	-0.597888	-0.131933
Br296	Br	0.430810	-0.347888	0.118067
Br297	Br	-0.976927	-1.119612	-0.270815
Br298	Br	-0.726927	-0.869612	-0.020815
Br299	Br	-0.476927	-0.619612	0.229185
Br300	Br	-0.226927	-0.369612	0.479185
Br301	Br	-0.968566	-0.849111	-0.331668
Br302	Br	-0.718566	-0.599111	-0.081668
Br303	Br	-0.468566	-0.349111	0.168332
Br304	Br	-0.218566	-0.099111	0.418332
H305	H	-0.863604	-0.974879	-0.259707
H306	H	-0.613604	-0.724879	-0.009707
H307	H	-0.363604	-0.474879	0.240293
H308	H	-0.113604	-0.224879	0.490293
H309	H	-0.968540	-1.028727	-0.498998
H310	H	-0.718540	-0.778727	-0.248998
H311	H	-0.468540	-0.528727	0.001002
H312	H	-0.218540	-0.278727	0.251002
H313	H	-0.350076	-1.067337	-0.783992
H314	H	-0.100076	-0.817337	-0.533992
H315	H	0.149924	-0.567337	-0.283992
H316	H	0.399924	-0.317337	-0.033992
H317	H	-0.317398	-1.099614	-0.982048
H318	H	-0.067398	-0.849614	-0.732048
H319	H	0.182602	-0.599614	-0.482048
H320	H	0.432602	-0.349614	-0.232048
H321	H	-0.482511	-0.936454	-0.975447
H322	H	-0.232511	-0.686454	-0.725447
H323	H	0.017489	-0.436454	-0.475447
H324	H	0.267489	-0.186454	-0.225447
Br325	Br	-0.540688	-0.878964	-0.796322
Br326	Br	-0.290688	-0.628964	-0.546322
Br327	Br	-0.040688	-0.378964	-0.296322
Br328	Br	0.209312	-0.128964	-0.046322
Br329	Br	-0.533692	-0.885893	-0.623344
Br330	Br	-0.283692	-0.635893	-0.373344
Br331	Br	-0.033692	-0.385893	-0.123344
Br332	Br	0.216308	-0.135893	0.126656
H333	H	-0.523729	-0.399888	-0.476843
H334	H	-0.273729	-0.149888	-0.226843
H335	H	-0.023729	0.100112	0.023157
H336	H	0.226271	0.350112	0.273157
Br337	Br	-0.310981	-0.254350	-0.283573
Br338	Br	-0.060981	-0.004350	-0.033573
Br339	Br	0.189019	0.245650	0.216427
Br340	Br	0.439019	0.495650	0.466427
