data_functionalizedCrystal
_audit_creation_method	'MofGen! by Chris Wilmer'
_symmetry_space_group_name_H-M	'P1'
_symmetry_Int_Tables_number	1
_symmetry_cell_setting	triclinic
loop_
_symmetry_equiv_pos_as_xyz
  x,y,z
_cell_length_a	12.759401
_cell_length_b	19.076919
_cell_length_c	12.759400
_cell_angle_alpha	92.274856
_cell_angle_beta	90.013799
_cell_angle_gamma	92.283001
loop_
_atom_site_label
_atom_site_type_symbol
_atom_site_fract_x
_atom_site_fract_y
_atom_site_fract_z
Zn1	Zn	1.582345	-0.397930	-0.442178
Zn2	Zn	1.589311	-0.280242	-0.610814
Zn3	Zn	1.413718	-0.280253	-0.435147
Zn4	Zn	1.406638	-0.397902	-0.617811
O5	O	1.498003	-0.339082	-0.526488
O6	O	1.730290	-0.382326	-0.464562
O7	O	1.571897	-0.181754	-0.581641
O8	O	1.436135	-0.295879	-0.289060
O9	O	1.735408	-0.295861	-0.588458
O10	O	1.560025	-0.382336	-0.294225
O11	O	1.442889	-0.181762	-0.452579
O12	O	1.265758	-0.295852	-0.459364
O13	O	1.424067	-0.496395	-0.600383
O14	O	1.260556	-0.382288	-0.593566
O15	O	1.553159	-0.496416	-0.471347
O16	O	1.565031	-0.295834	-0.758762
O17	O	1.430822	-0.382278	-0.763903
C18	C	1.225037	-0.339068	-0.526462
C19	C	1.108259	-0.339079	-0.526478
C20	C	1.056070	-0.294155	-0.456516
C21	C	0.946345	-0.294164	-0.456541
C22	C	0.941009	-0.384028	-0.596495
C23	C	1.050731	-0.384015	-0.596473
C24	C	1.059150	-0.242274	-0.375711
C25	C	0.949426	-0.242283	-0.375737
C26	C	1.487046	-0.522657	-0.537430
C27	C	1.482377	-0.600885	-0.542093
C28	C	1.547391	-0.637649	-0.477104
C29	C	1.542991	-0.711153	-0.481481
C30	C	1.473582	-0.747892	-0.550853
C31	C	1.408561	-0.711123	-0.615845
C32	C	1.412956	-0.637620	-0.611461
C33	C	1.453224	-0.967721	-0.571162
C34	C	1.448836	-1.041229	-0.575542
C35	C	1.583266	-1.041254	-0.441177
C36	C	1.587660	-0.967750	-0.436804
C37	C	1.522635	-0.930987	-0.501791
N38	N	1.469085	-0.823025	-0.555332
N39	N	1.527127	-0.855855	-0.497307
C40	C	1.772036	-0.339096	-0.526514
C41	C	1.888812	-0.339101	-0.526525
C42	C	1.497942	-0.339067	-0.799454
C43	C	1.498010	-0.339084	-0.916232
C44	C	1.508978	-0.156221	-0.515512
C45	C	1.513850	-0.077993	-0.510553
C46	C	1.567964	-0.294123	-0.968385
C47	C	1.568028	-0.294144	-1.078110
C48	C	1.428173	-0.384091	-1.083519
C49	C	1.428116	-0.384073	-0.973796
C50	C	1.648705	-0.242190	-0.965263
C51	C	1.648769	-0.242212	-1.074988
C52	C	1.498093	-0.339112	-0.252456
C53	C	1.498131	-0.339125	-0.135680
H54	H	1.092160	-0.187735	-0.394117
H55	H	0.894156	-0.420613	-0.653483
H56	H	1.630307	-0.187695	-1.101569
C57	C	1.613829	-0.173186	-0.915777
C58	C	1.524228	-0.185645	-0.854898
C59	C	1.492059	-0.122096	-0.809307
H60	H	1.668440	-0.152784	-0.872557
H61	H	1.598157	-0.142030	-0.969375
H62	H	1.539904	-0.216790	-0.801307
H63	H	1.469596	-0.206037	-0.898094
H64	H	1.476387	-0.090939	-0.862905
H65	H	1.546676	-0.101698	-0.766093
H66	H	1.431256	-0.130539	-0.768004
C67	C	1.102841	-0.268532	-0.274268
C68	C	1.064701	-0.337359	-0.260295
C69	C	1.104914	-0.361567	-0.166851
H70	H	1.177247	-0.267688	-0.277636
H71	H	1.081565	-0.239111	-0.216984
H72	H	1.085983	-0.366772	-0.317565
H73	H	0.990299	-0.338222	-0.256909
H74	H	1.083638	-0.332146	-0.109567
H75	H	1.179319	-0.360719	-0.170227
H76	H	1.079034	-0.408266	-0.157353
C77	C	1.107201	-0.432862	-0.672487
C78	C	1.033333	-0.472228	-0.733768
C79	C	1.085313	-0.517240	-0.803798
H80	H	1.151600	-0.405954	-0.716677
H81	H	1.148161	-0.463611	-0.634225
H82	H	0.992391	-0.441483	-0.772028
H83	H	0.988931	-0.499149	-0.689606
H84	H	1.126273	-0.547989	-0.765535
H85	H	1.129710	-0.490327	-0.847981
H86	H	1.035201	-0.543959	-0.845378
C87	C	0.908341	-0.173134	-0.410291
C88	C	0.992968	-0.127316	-0.433167
C89	C	0.955159	-0.063610	-0.464990
H90	H	0.865964	-0.181332	-0.471102
H91	H	0.867676	-0.152795	-0.355534
H92	H	1.033615	-0.147652	-0.487920
H93	H	1.035353	-0.119099	-0.372371
H94	H	0.914494	-0.043270	-0.410233
H95	H	0.912782	-0.071815	-0.525799
H96	H	1.012572	-0.032513	-0.480506
H97	H	1.352042	-0.741042	-0.672325
H98	H	1.636204	-1.071194	-0.388266
C99	C	1.750263	-0.268422	-1.121693
C100	C	1.764301	-0.337228	-1.091672
C101	C	1.857789	-0.361393	-1.134665
H102	H	1.746919	-0.267606	-1.196005
H103	H	1.807510	-0.238961	-1.096892
H104	H	1.707069	-0.366681	-1.116479
H105	H	1.767665	-0.338063	-1.017367
H106	H	1.915036	-0.331932	-1.109864
H107	H	1.854435	-0.360572	-1.208975
H108	H	1.867331	-0.408078	-1.114294
H109	H	1.371268	-0.420720	-1.130402
C110	C	1.373565	-1.081246	-0.650818
C111	C	1.383656	-1.153484	-0.640762
C112	C	1.314345	-1.190370	-0.710092
H113	H	1.303655	-1.069280	-0.634775
H114	H	1.389629	-1.069237	-0.720723
H115	H	1.367585	-1.165488	-0.570874
H116	H	1.453551	-1.165471	-0.656815
H117	H	1.330409	-1.178361	-0.779996
H118	H	1.244440	-1.178398	-0.694042
H119	H	1.321189	-1.239387	-0.703285
H120	H	1.729169	-0.256830	-0.936288
C121	C	1.352289	-0.432868	-0.916981
C122	C	1.367215	-0.423239	-0.808569
C123	C	1.297391	-0.468186	-0.756199
H124	H	1.282289	-0.422581	-0.934282
H125	H	1.364816	-0.480182	-0.937683
H126	H	1.354681	-0.375936	-0.787875
H127	H	1.437201	-0.433531	-0.791237
H128	H	1.309918	-0.515501	-0.776901
H129	H	1.227396	-0.457896	-0.773509
H130	H	1.307516	-0.461664	-0.682637
H131	H	0.918779	-0.256979	-0.295281
C132	C	1.622785	-0.597892	-0.401676
C133	C	1.678757	-0.645824	-0.345678
C134	C	1.748208	-0.609228	-0.276171
H135	H	1.670358	-0.569215	-0.440040
H136	H	1.584346	-0.569235	-0.354130
H137	H	1.717194	-0.674469	-0.393218
H138	H	1.631212	-0.674502	-0.307293
H139	H	1.709769	-0.580571	-0.228625
H140	H	1.795774	-0.580552	-0.314544
H141	H	1.786187	-0.641744	-0.238161
C142	C	1.613399	-0.751099	-0.410781
C143	C	1.551405	-0.793277	-0.345925
C144	C	1.616226	-0.830075	-0.280763
H145	H	1.657469	-0.779835	-0.452553
H146	H	1.655342	-0.718709	-0.368783
H147	H	1.509479	-0.825664	-0.387919
H148	H	1.507336	-0.764558	-0.304132
H149	H	1.658170	-0.797685	-0.238765
H150	H	1.660293	-0.858807	-0.322543
H151	H	1.574173	-0.858692	-0.236744
H152	H	1.644183	-0.937842	-0.380317
C153	C	1.382565	-0.927940	-0.641825
C154	C	1.320855	-0.975850	-0.703527
C155	C	1.255749	-0.939226	-0.768638
H156	H	1.338426	-0.899274	-0.600020
H157	H	1.424407	-0.899272	-0.685961
H158	H	1.279016	-1.004506	-0.659396
H159	H	1.364966	-1.004518	-0.745353
H160	H	1.297592	-0.910558	-0.812774
H161	H	1.211618	-0.910561	-0.726825
H162	H	1.213878	-0.971727	-0.810517
H163	H	1.360004	-0.607688	-0.664372
