data_functionalizedCrystal
_audit_creation_method	'MofGen! by Chris Wilmer'
_symmetry_space_group_name_H-M	'P1'
_symmetry_Int_Tables_number	1
_symmetry_cell_setting	triclinic
loop_
_symmetry_equiv_pos_as_xyz
  x,y,z
_cell_length_a	12.759400
_cell_length_b	17.077404
_cell_length_c	17.077396
_cell_angle_alpha	90.017442
_cell_angle_beta	89.973580
_cell_angle_gamma	89.988247
loop_
_atom_site_label
_atom_site_type_symbol
_atom_site_fract_x
_atom_site_fract_y
_atom_site_fract_z
Zn1	Zn	-0.418340	-1.200082	-0.443863
Zn2	Zn	0.081660	-0.700082	0.056137
Zn3	Zn	-0.594043	-1.200013	-0.312603
Zn4	Zn	-0.094043	-0.700013	0.187397
Zn5	Zn	-0.418370	-1.068819	-0.312610
Zn6	Zn	0.081630	-0.568819	0.187390
Zn7	Zn	-0.593968	-1.068800	-0.443826
Zn8	Zn	-0.093968	-0.568800	0.056174
O9	O	-0.506180	-1.134429	-0.378226
O10	O	-0.006180	-0.634429	0.121774
O11	O	-0.441666	-1.309920	-0.426463
O12	O	0.058334	-0.809920	0.073537
O13	O	-0.570783	-1.182589	-0.202757
O14	O	-0.070783	-0.682589	0.297243
O15	O	-0.271345	-1.086268	-0.330039
O16	O	0.228655	-0.586268	0.169961
O17	O	-0.570754	-1.309869	-0.330027
O18	O	-0.070754	-0.809869	0.169973
O19	O	-0.271323	-1.182706	-0.426470
O20	O	0.228677	-0.682706	0.073530
O21	O	-0.441717	-1.086201	-0.202762
O22	O	0.058283	-0.586201	0.297238
O23	O	-0.441644	-0.958970	-0.330004
O24	O	0.058356	-0.458970	0.169996
O25	O	-0.570627	-1.086236	-0.553678
O26	O	-0.070627	-0.586236	-0.053678
O27	O	-0.570656	-0.958956	-0.426408
O28	O	-0.070656	-0.458956	0.073592
O29	O	-0.441594	-1.182688	-0.553705
O30	O	0.058406	-0.682688	-0.053705
O31	O	-0.741054	-1.182571	-0.329992
O32	O	-0.241054	-0.682571	0.170008
O33	O	-0.740999	-1.086170	-0.426401
O34	O	-0.240999	-0.586170	0.073599
C35	C	-0.506146	-0.930481	-0.378203
C36	C	-0.006146	-0.430481	0.121797
C37	C	-0.506157	-0.843231	-0.378212
C38	C	-0.006157	-0.343231	0.121788
C39	C	-0.439059	-0.802268	-0.428502
C40	C	0.060941	-0.302268	0.071498
C41	C	-0.439064	-0.720287	-0.428504
C42	C	0.060936	-0.220287	0.071496
C43	C	-0.506173	-0.679271	-0.378219
C44	C	-0.006173	-0.179271	0.121781
C45	C	-0.573274	-0.720240	-0.327924
C46	C	-0.073274	-0.220240	0.172076
C47	C	-0.573262	-0.802219	-0.327919
C48	C	-0.073262	-0.302219	0.172081
C49	C	-0.573294	-0.549370	-0.327939
C50	C	-0.073294	-0.049370	0.172061
C51	C	-0.573307	-0.467386	-0.327945
C52	C	-0.073307	0.032614	0.172055
C53	C	-0.439096	-0.467438	-0.428524
C54	C	0.060904	0.032562	0.071476
C55	C	-0.439084	-0.549417	-0.428519
C56	C	0.060916	-0.049417	0.071481
C57	C	-0.506187	-0.590380	-0.378225
C58	C	-0.006187	-0.090380	0.121775
C59	C	-0.779148	-1.134382	-0.378209
C60	C	-0.279148	-0.634382	0.121791
C61	C	-0.895924	-1.134434	-0.378228
C62	C	-0.395924	-0.634434	0.121772
C63	C	-0.950780	-1.184686	-0.328084
C64	C	-0.450780	-0.684686	0.171916
C65	C	-1.060504	-1.184734	-0.328108
C66	C	-0.560504	-0.684734	0.171892
C67	C	-1.060507	-1.084272	-0.428424
C68	C	-0.560507	-0.584272	0.071576
C69	C	-0.950785	-1.084228	-0.428403
C70	C	-0.450785	-0.584228	0.071597
C71	C	-0.895919	-1.234891	-0.277909
C72	C	-0.395919	-0.734891	0.222091
C73	C	-0.950775	-1.285147	-0.227760
C74	C	-0.450775	-0.785147	0.272240
C75	C	-1.060499	-1.285195	-0.227784
C76	C	-0.560499	-0.785195	0.272216
C77	C	-1.115367	-1.234988	-0.277958
C78	C	-0.615367	-0.734988	0.222042
C79	C	-0.232147	-1.134497	-0.378259
C80	C	0.267853	-0.634497	0.121741
C81	C	-0.115370	-1.134526	-0.378274
C82	C	0.384630	-0.634526	0.121726
C83	C	-0.506099	-1.134468	-0.582970
C84	C	-0.006099	-0.634468	-0.082970
C85	C	-0.506064	-1.134485	-0.670220
C86	C	-0.006064	-0.634485	-0.170220
C87	C	-0.506210	-0.339173	-0.378243
C88	C	-0.006210	0.160827	0.121757
C89	C	-0.506209	-0.426423	-0.378235
C90	C	-0.006209	0.073577	0.121765
C91	C	-0.438851	-1.084311	-0.711212
C92	C	0.061149	-0.584311	-0.211212
C93	C	-0.438827	-1.084324	-0.793193
C94	C	0.061173	-0.584324	-0.293193
C95	C	-0.506012	-1.134515	-0.834179
C96	C	-0.006012	-0.634515	-0.334179
C97	C	-0.573232	-1.184691	-0.793181
C98	C	-0.073232	-0.684691	-0.293181
C99	C	-0.573261	-1.184674	-0.711202
C100	C	-0.073261	-0.684674	-0.211202
C101	C	-0.573167	-1.184725	-0.964052
C102	C	-0.073167	-0.684725	-0.464052
C103	C	-0.573137	-1.184743	-1.046036
C104	C	-0.073137	-0.684743	-0.546036
C105	C	-0.438733	-1.084375	-1.046042
C106	C	0.061267	-0.584375	-0.546042
C107	C	-0.438762	-1.084358	-0.964063
C108	C	0.061238	-0.584358	-0.464063
C109	C	-0.505981	-1.134535	-0.923070
C110	C	-0.005981	-0.634535	-0.423070
C111	C	-0.506185	-1.134434	-0.174278
C112	C	-0.006185	-0.634434	0.325722
C113	C	-0.505924	-1.134570	-0.087028
C114	C	-0.005924	-0.634570	0.412972
H115	H	-0.384414	-0.835657	-0.469452
H116	H	0.115586	-0.335657	0.030548
H117	H	-0.384136	-1.043444	-0.677846
H118	H	0.115864	-0.543444	-0.177846
H119	H	-0.384456	-0.434082	-0.469474
H120	H	0.115544	0.065918	0.030526
Br121	Br	-0.664490	-1.252763	-0.655569
Br122	Br	-0.164490	-0.752763	-0.155569
H123	H	-0.384000	-1.043520	-1.079421
H124	H	0.116000	-0.543520	-0.579421
H125	H	-0.906121	-1.043309	-0.469236
H126	H	-0.406121	-0.543309	0.030764
Br127	Br	-1.134970	-1.016137	-0.496511
Br128	Br	-0.634970	-0.516137	0.003489
Br129	Br	-0.347572	-1.016248	-0.908438
Br130	Br	0.152428	-0.516248	-0.408438
Br131	Br	-0.347663	-1.016185	-0.848822
Br132	Br	0.152337	-0.516185	-0.348822
Br133	Br	-0.664307	-1.252868	-1.101661
Br134	Br	-0.164307	-0.752868	-0.601661
H135	H	-0.627894	-1.225591	-0.930678
H136	H	-0.127894	-0.725591	-0.430678
Br137	Br	-0.876315	-1.353291	-0.159681
Br138	Br	-0.376315	-0.853291	0.340319
Br139	Br	-0.348000	-0.664697	-0.496758
Br140	Br	0.152000	-0.164697	0.003242
Br141	Br	-0.664422	-1.252801	-0.848805
Br142	Br	-0.164422	-0.752801	-0.348805
H143	H	-0.384445	-0.582810	-0.469470
H144	H	0.115555	-0.082810	0.030530
Br145	Br	-0.664414	-0.411721	-0.259724
Br146	Br	-0.164414	0.088279	0.240276
H147	H	-0.627933	-0.582720	-0.286982
H148	H	-0.127933	-0.082720	0.213018
Br149	Br	-0.664343	-0.664577	-0.259673
Br150	Br	-0.164343	-0.164577	0.240327
H151	H	-0.806576	-1.234856	-0.277882
H152	H	-0.306576	-0.734856	0.222118
Br153	Br	-0.664325	-0.857813	-0.259664
Br154	Br	-0.164325	-0.357813	0.240336
Br155	Br	-1.264278	-1.234696	-0.277630
Br156	Br	-0.764278	-0.734696	0.222370
Br157	Br	-1.134944	-1.353406	-0.159735
Br158	Br	-0.634944	-0.853406	0.340265
