data_functionalizedCrystal
_audit_creation_method	'MofGen! by Chris Wilmer'
_symmetry_space_group_name_H-M	'P1'
_symmetry_Int_Tables_number	1
_symmetry_cell_setting	triclinic
loop_
_symmetry_equiv_pos_as_xyz
  x,y,z
_cell_length_a	17.699077
_cell_length_b	27.731996
_cell_length_c	16.176319
_cell_angle_alpha	89.987220
_cell_angle_beta	89.993140
_cell_angle_gamma	82.950982
loop_
_atom_site_label
_atom_site_type_symbol
_atom_site_fract_x
_atom_site_fract_y
_atom_site_fract_z
O1	O	1.003525	0.061115	-0.068746
O2	O	1.503525	0.561115	0.431254
O3	O	0.783073	0.069071	-0.068752
O4	O	1.283073	0.569071	0.431248
O5	O	0.900166	-0.005281	-0.068731
O6	O	1.400166	0.494719	0.431269
O7	O	0.886432	0.135467	-0.068767
O8	O	1.386432	0.635467	0.431233
O9	O	0.900151	-0.005286	0.068762
O10	O	1.400151	0.494714	0.568762
O11	O	0.783057	0.069066	0.068741
O12	O	1.283057	0.569066	0.568741
O13	O	1.003509	0.061110	0.068747
O14	O	1.503509	0.561110	0.568747
Cu15	Cu	0.893282	0.065088	0.081298
Cu16	Cu	1.393282	0.565088	0.581298
Cu17	Cu	0.893301	0.065093	-0.081303
Cu18	Cu	1.393301	0.565093	0.418697
O19	O	0.886416	0.135462	0.068726
O20	O	1.386416	0.635462	0.568726
C21	C	0.754871	0.068784	-0.000006
C22	C	1.254871	0.568784	0.499994
C23	C	0.670860	0.067930	-0.000007
C24	C	1.170860	0.567930	0.499993
C25	C	0.631388	0.067525	0.074941
C26	C	1.131388	0.567525	0.574941
C27	C	0.552453	0.066715	0.074943
C28	C	1.052453	0.566715	0.574943
C29	C	0.512991	0.066314	-0.000006
C30	C	1.012991	0.566314	0.499994
C31	C	0.552469	0.066717	-0.074960
C32	C	1.052469	0.566717	0.425040
C33	C	0.631404	0.067524	-0.074960
C34	C	1.131404	0.567524	0.425040
C35	C	0.234135	0.063464	-0.074961
C36	C	0.734135	0.563464	0.425039
C37	C	0.155195	0.062659	-0.074955
C38	C	0.655195	0.562659	0.425045
C39	C	0.155185	0.062656	0.074942
C40	C	0.655185	0.562656	0.574942
C41	C	0.234119	0.063462	0.074942
C42	C	0.734119	0.563462	0.574942
C43	C	0.273591	0.063863	-0.000012
C44	C	0.773591	0.563863	0.499988
C45	C	0.359182	0.064740	-0.000012
C46	C	0.859182	0.564740	0.499988
C47	C	0.427401	0.065440	-0.000006
C48	C	0.927401	0.565440	0.499994
C49	C	0.899876	-0.023292	0.000018
C50	C	1.399876	0.476708	0.500018
C51	C	0.899027	-0.076951	0.000027
C52	C	1.399027	0.423049	0.500027
C53	C	0.893689	-0.409684	-0.074961
C54	C	1.393689	0.090316	0.425039
C55	C	0.890462	-0.611354	-0.074976
C56	C	1.390462	-0.111354	0.425024
O57	O	0.890019	-0.637424	-0.138716
O58	O	1.390019	-0.137424	0.361284
N59	N	0.890052	-0.636575	-0.000029
N60	N	1.390052	-0.136575	0.499971
C61	C	0.890444	-0.611375	0.074927
C62	C	1.390444	-0.111375	0.574927
O63	O	0.890014	-0.637454	0.138673
O64	O	1.390014	-0.137454	0.638673
C65	C	0.893666	-0.409706	0.074940
C66	C	1.393666	0.090294	0.574940
C67	C	0.894083	-0.384488	-0.000011
C68	C	1.394083	0.115512	0.499989
C69	C	0.894105	-0.384466	-0.149907
C70	C	1.394105	0.115534	0.350093
C71	C	0.894916	-0.334052	-0.149903
C72	C	1.394916	0.165948	0.350097
C73	C	0.895310	-0.308856	-0.074953
C74	C	1.395310	0.191144	0.425047
C75	C	0.894894	-0.334074	-0.000007
C76	C	1.394894	0.165926	0.499993
C77	C	0.894053	-0.384507	0.149895
C78	C	1.394053	0.115493	0.649895
C79	C	0.894856	-0.334086	0.149892
C80	C	1.394856	0.165914	0.649892
C81	C	0.895274	-0.308868	0.074940
C82	C	1.395274	0.191132	0.574940
C83	C	0.896099	-0.258464	0.074948
C84	C	1.396099	0.241536	0.574948
N85	N	0.896509	-0.233243	0.000001
N86	N	1.396509	0.266757	0.500001
C87	C	0.896114	-0.258439	-0.074949
C88	C	1.396114	0.241561	0.425051
C89	C	0.888754	-0.717255	0.074914
C90	C	1.388754	-0.217255	0.574914
C91	C	0.887950	-0.767672	0.074911
C92	C	1.387950	-0.267672	0.574911
C93	C	0.887966	-0.767647	-0.074992
C94	C	1.387966	-0.267647	0.425008
C95	C	0.888776	-0.717229	-0.074988
C96	C	1.388776	-0.217229	0.425012
C97	C	0.889164	-0.692034	-0.000033
C98	C	1.389164	-0.192034	0.499967
C99	C	0.897818	-0.152566	-0.074934
C100	C	1.397818	0.347434	0.425066
C101	C	0.898632	-0.102147	-0.074923
C102	C	1.398632	0.397853	0.425077
C103	C	0.898612	-0.102176	0.074979
C104	C	1.398612	0.397824	0.574979
C105	C	0.897802	-0.152591	0.074969
C106	C	1.397802	0.347409	0.574969
C107	C	0.897402	-0.177784	0.000005
C108	C	1.397402	0.322216	0.500005
O109	O	0.896534	-0.232362	0.138655
O110	O	1.396534	0.267638	0.638655
O111	O	0.896528	-0.232350	-0.138686
O112	O	1.396528	0.267650	0.361314
C113	C	0.892878	-0.460098	-0.074966
C114	C	1.392878	0.039902	0.425034
C115	C	0.892461	-0.485316	-0.000020
C116	C	1.392461	0.014684	0.499980
C117	C	0.892856	-0.460120	0.074930
C118	C	1.392856	0.039880	0.574930
C119	C	0.891657	-0.535733	-0.000023
C120	C	1.391657	-0.035733	0.499977
C121	C	0.891263	-0.560929	-0.074973
C122	C	1.391263	-0.060929	0.425027
C123	C	0.891672	-0.535708	-0.149920
C124	C	1.391672	-0.035708	0.350080
C125	C	0.892483	-0.485294	-0.149916
C126	C	1.392483	0.014706	0.350084
C127	C	0.892446	-0.485341	0.149877
C128	C	1.392446	0.014659	0.649877
C129	C	0.891636	-0.535755	0.149866
C130	C	1.391636	-0.035755	0.649866
C131	C	0.891242	-0.560952	0.074916
C132	C	1.391242	-0.060952	0.574916
C133	C	1.031711	0.061397	-0.000001
C134	C	1.531711	0.561397	0.499999
C135	C	1.115722	0.062251	-0.000005
C136	C	1.615722	0.562251	0.499995
C137	C	0.886706	0.153473	-0.000025
C138	C	1.386706	0.653473	0.499975
C139	C	0.887556	0.207132	-0.000039
C140	C	1.387556	0.707132	0.499961
N141	N	0.893274	0.065083	0.195663
N142	N	1.393274	0.565083	0.695663
N143	N	0.893314	0.065094	-0.195669
N144	N	1.393314	0.565094	0.304331
C145	C	0.945138	0.032174	0.238937
C146	C	1.445138	0.532174	0.738937
C147	C	0.945142	0.032173	0.325484
C148	C	1.445142	0.532173	0.825484
C149	C	0.893285	0.065085	0.368756
C150	C	1.393285	0.565085	0.868756
C151	C	0.841415	0.097996	0.325477
C152	C	1.341415	0.597996	0.825477
C153	C	0.841408	0.097994	0.238931
C154	C	1.341408	0.597994	0.738931
C155	C	0.841441	0.098005	0.674505
C156	C	1.341441	0.598005	1.174505
C157	C	0.841453	0.098006	0.761056
C158	C	1.341453	0.598006	1.261056
C159	C	0.945175	0.032184	0.761058
C160	C	1.445175	0.532184	1.261058
C161	C	0.945168	0.032182	0.674512
C162	C	1.445168	0.532182	1.174512
C163	C	0.893296	0.065092	0.631240
C164	C	1.393296	0.565092	1.131240
C165	C	0.893291	0.065091	0.537396
C166	C	1.393291	0.565091	1.037396
C167	C	0.893292	0.065088	0.462599
C168	C	1.393292	0.565088	0.962599
H169	H	0.266245	0.063792	0.135973
H170	H	0.766245	0.563792	0.635973
H171	H	0.799188	0.124792	0.360714
H172	H	1.299188	0.624792	0.860714
F173	F	0.673379	0.067956	0.154713
F174	F	1.173379	0.567956	0.654713
F175	F	0.673413	0.067953	-0.154731
F176	F	1.173413	0.567953	0.345269
F177	F	1.000380	-0.002843	0.807117
F178	F	1.500380	0.497157	1.307117
F179	F	0.899034	-0.075352	0.154742
F180	F	1.399034	0.424648	0.654742
H181	H	0.892822	-0.464766	-0.210949
H182	H	1.392822	0.035234	0.289051
H183	H	0.123038	0.062327	0.135973
H184	H	0.623038	0.562327	0.635973
F185	F	0.510472	0.066275	-0.154726
F186	F	1.010472	0.566275	0.345274
F187	F	0.113198	0.062231	-0.154729
F188	F	0.613198	0.562231	0.345271
F189	F	0.891256	-0.562533	-0.229688
F190	F	1.391256	-0.062533	0.270312
F191	F	0.899078	-0.075312	-0.154701
F192	F	1.399078	0.424688	0.345299
H193	H	0.887622	-0.788201	0.135944
H194	H	1.387622	-0.288201	0.635944
F195	F	0.786205	0.133020	0.192878
F196	F	1.286205	0.633020	0.692878
F197	F	0.276134	0.063891	-0.154733
F198	F	0.776134	0.563891	0.345267
F199	F	0.891197	-0.562589	0.229646
F200	F	1.391197	-0.062589	0.729646
H201	H	0.897489	-0.173072	-0.135977
H202	H	1.397489	0.326928	0.364023
H203	H	0.520320	0.066377	0.135973
H204	H	1.020320	0.566377	0.635973
H205	H	0.895253	-0.313524	-0.210936
H206	H	1.395253	0.186476	0.289064
F207	F	0.786238	0.133030	0.628458
F208	F	1.286238	0.633030	1.128458
F209	F	0.893606	-0.411334	0.229671
F210	F	1.393606	0.088666	0.729671
F211	F	1.000341	-0.002853	0.371539
F212	F	1.500341	0.497147	0.871539
F213	F	0.893684	-0.411274	-0.229686
F214	F	1.393684	0.088726	0.270314
F215	F	0.892861	-0.458532	0.229653
F216	F	1.392861	0.041468	0.729653
F217	F	1.000337	-0.002854	0.192892
F218	F	1.500337	0.497146	0.692892
H219	H	0.889074	-0.696745	0.135955
H220	H	1.389074	-0.196745	0.635955
H221	H	0.799222	0.124808	0.796287
H222	H	1.299222	0.624808	1.296287
H223	H	0.889114	-0.696700	-0.136020
H224	H	1.389114	-0.196700	0.363980
H225	H	0.987397	0.005384	0.639283
H226	H	1.487397	0.505384	1.139283
F227	F	0.895269	-0.307274	0.229672
F228	F	1.395269	0.192726	0.729672
F229	F	0.887544	-0.794471	-0.154760
F230	F	1.387544	-0.294471	0.345240
F231	F	0.897372	-0.179431	0.154740
F232	F	1.397372	0.320569	0.654740
