data_functionalizedCrystal
_audit_creation_method	'MofGen! by Chris Wilmer'
_symmetry_space_group_name_H-M	'P1'
_symmetry_Int_Tables_number	1
_symmetry_cell_setting	triclinic
loop_
_symmetry_equiv_pos_as_xyz
  x,y,z
_cell_length_a	23.532361
_cell_length_b	26.809956
_cell_length_c	23.532407
_cell_angle_alpha	89.990736
_cell_angle_beta	97.160827
_cell_angle_gamma	90.011773
loop_
_atom_site_label
_atom_site_type_symbol
_atom_site_fract_x
_atom_site_fract_y
_atom_site_fract_z
O1	O	0.755286	0.041435	-0.069007
O2	O	0.589419	0.041447	-0.079038
O3	O	0.677355	0.041431	0.008910
O4	O	0.667351	0.041450	-0.156955
O5	O	0.677328	-0.041528	0.008910
O6	O	0.589392	-0.041512	-0.079038
O7	O	0.755259	-0.041525	-0.069007
Zn8	Zn	0.672322	-0.054690	-0.074023
Zn9	Zn	0.672357	0.054613	-0.074023
O10	O	0.667324	-0.041509	-0.156955
C11	C	0.568189	-0.000031	-0.078787
C12	C	0.504971	-0.000026	-0.078032
N13	N	0.672302	-0.129286	-0.074022
C14	C	0.231742	0.045191	-0.074728
C15	C	0.291141	0.045193	-0.075443
O16	O	0.321880	0.083651	-0.075793
N17	N	0.320832	-0.000029	-0.075804
C18	C	0.291121	-0.045254	-0.075445
O19	O	0.321830	-0.083718	-0.075817
C20	C	0.231723	-0.045255	-0.074726
C21	C	0.202035	-0.000031	-0.074370
C22	C	0.202053	0.090412	-0.074372
C23	C	0.142657	0.090410	-0.073658
C24	C	0.112950	0.045188	-0.073301
C25	C	0.142639	-0.000032	-0.073657
C26	C	0.202014	-0.090480	-0.074362
C27	C	0.142612	-0.090477	-0.073642
C28	C	0.112923	-0.045253	-0.073287
C29	C	0.053536	-0.045256	-0.072585
N30	N	0.023845	-0.000034	-0.072224
C31	C	0.053552	0.045188	-0.072582
C32	C	0.415862	-0.045249	-0.076954
C33	C	0.475258	-0.045249	-0.077677
C34	C	0.475274	0.045198	-0.077674
C35	C	0.415876	0.045197	-0.076955
C36	C	0.386171	-0.000028	-0.076593
C37	C	-0.071184	0.045181	-0.071083
C38	C	-0.130585	0.045175	-0.070372
C39	C	-0.130595	-0.045271	-0.070371
C40	C	-0.071200	-0.045266	-0.071086
C41	C	-0.041495	-0.000036	-0.071440
O42	O	0.022760	-0.083694	-0.072232
O43	O	0.022837	0.083645	-0.072202
C44	C	0.706694	-0.473911	-0.108377
C45	C	0.706713	-0.682788	-0.108377
O46	O	0.735940	-0.709791	-0.137580
N47	N	0.672371	-0.708913	-0.074017
C48	C	0.638024	-0.682815	-0.039652
O49	O	0.608819	-0.709828	-0.010422
C50	C	0.638010	-0.473938	-0.039650
C51	C	0.672349	-0.447816	-0.074016
C52	C	0.741032	-0.447789	-0.142740
C53	C	0.741025	-0.395572	-0.142743
C54	C	0.706680	-0.369478	-0.108381
C55	C	0.672342	-0.395600	-0.074018
C56	C	0.603667	-0.447841	-0.005282
C57	C	0.603667	-0.395619	-0.005283
C58	C	0.638007	-0.369497	-0.039650
C59	C	0.637990	-0.317289	-0.039659
N60	N	0.672332	-0.291165	-0.074019
C61	C	0.706677	-0.317259	-0.108380
C62	C	0.638034	-0.792478	-0.039656
C63	C	0.638037	-0.844697	-0.039657
C64	C	0.706726	-0.844667	-0.108382
C65	C	0.706720	-0.792447	-0.108383
C66	C	0.672376	-0.766354	-0.074016
C67	C	0.706659	-0.207601	-0.108382
C68	C	0.706646	-0.155380	-0.108383
C69	C	0.637960	-0.155415	-0.039657
C70	C	0.637969	-0.207631	-0.039658
C71	C	0.672323	-0.233723	-0.074023
O72	O	0.608783	-0.290255	-0.010466
O73	O	0.735887	-0.290237	-0.137596
C74	C	0.706702	-0.526127	-0.108375
C75	C	0.672364	-0.552249	-0.074012
C76	C	0.638019	-0.526155	-0.039651
C77	C	0.672367	-0.604468	-0.074013
C78	C	0.706712	-0.630562	-0.108374
C79	C	0.741054	-0.604437	-0.142734
C80	C	0.741047	-0.552221	-0.142736
C81	C	0.603677	-0.552279	-0.005291
C82	C	0.603687	-0.604496	-0.005292
C83	C	0.638032	-0.630590	-0.039653
C84	C	0.776489	-0.000045	-0.069258
C85	C	0.839708	-0.000047	-0.070014
C86	C	0.677086	-0.000049	0.030126
C87	C	0.676320	-0.000053	0.093343
N88	N	0.672382	0.129208	-0.074019
C89	C	0.667592	-0.000027	-0.178171
C90	C	0.668358	-0.000020	-0.241388
C91	C	0.723555	-0.000030	0.492454
C92	C	0.722844	-0.000026	0.551854
O93	O	0.766630	-0.000011	0.588606
N94	N	0.670566	-0.000022	0.574471
C95	C	0.618997	-0.000017	0.537685
O96	O	0.574465	-0.000013	0.562377
C97	C	0.619709	-0.000017	0.478286
C98	C	0.671990	-0.000026	0.455672
C99	C	0.775832	-0.000038	0.469839
C100	C	0.776543	-0.000042	0.410443
C101	C	0.724977	-0.000039	0.373662
C102	C	0.672701	-0.000031	0.396276
C103	C	0.568140	-0.000009	0.441501
C104	C	0.568857	-0.000009	0.382099
C105	C	0.621137	-0.000018	0.359485
C106	C	0.621847	-0.000032	0.300099
N107	N	0.674124	-0.000036	0.277481
C108	C	0.725690	-0.000039	0.314263
C109	C	0.617505	-0.000016	0.662427
C110	C	0.616793	-0.000019	0.721825
C111	C	0.720640	-0.000027	0.735990
C112	C	0.721352	-0.000027	0.676591
C113	C	0.669783	-0.000019	0.639810
C114	C	0.727179	-0.000050	0.189526
C115	C	0.727886	-0.000057	0.130124
C116	C	0.624039	-0.000046	0.115965
C117	C	0.623332	-0.000042	0.175361
C118	C	0.674907	-0.000042	0.212141
O119	O	0.578083	-0.000045	0.263312
O120	O	0.770214	-0.000037	0.289562
H121	H	-0.154755	0.082004	-0.070084
O122	O	0.739953	-0.129929	-0.141754
C123	C	0.732595	-0.078242	-0.134382
H124	H	0.689554	-0.071122	-0.118370
H125	H	0.768499	-0.063417	-0.101751
C126	C	0.787064	-0.060174	-0.211702
C127	C	0.734197	-0.051428	-0.192041
H128	H	0.788055	-0.043633	-0.247267
H129	H	0.792023	-0.094996	-0.216667
H130	H	0.816978	-0.047819	-0.184504
H131	H	0.704285	-0.063789	-0.219234
H132	H	0.729233	-0.016608	-0.187081
O133	O	0.778689	0.000026	0.108186
C134	C	0.810120	0.042984	0.127013
H135	H	0.779552	0.073017	0.139188
H136	H	0.842077	0.033270	0.165913
C137	C	0.880122	0.025572	0.063633
C138	C	0.842577	0.062461	0.078582
H139	H	0.900146	0.037586	0.033760
H140	H	0.858948	-0.003370	0.050950
H141	H	0.906748	0.017481	0.096054
H142	H	0.815948	0.070547	0.046163
H143	H	0.863748	0.091406	0.091258
O144	O	0.740043	-0.232864	-0.141818
C145	C	0.770355	-0.198602	-0.172134
H146	H	0.746751	-0.161387	-0.175575
H147	H	0.815191	-0.193038	-0.148439
C148	C	0.803775	-0.264674	-0.228382
C149	C	0.774782	-0.218966	-0.232612
H150	H	0.806509	-0.277235	-0.265687
H151	H	0.783355	-0.287757	-0.207956
H152	H	0.841136	-0.260030	-0.208634
H153	H	0.737420	-0.223611	-0.252354
H154	H	0.795196	-0.195884	-0.253043
O155	O	0.774355	-0.370258	-0.176204
C156	C	0.758238	-0.383010	-0.234095
H157	H	0.736131	-0.420925	-0.236652
H158	H	0.727572	-0.353622	-0.255239
C159	C	0.839074	-0.338851	-0.262179
C160	C	0.811926	-0.385421	-0.265318
H161	H	0.872190	-0.340336	-0.281440
H162	H	0.849931	-0.330258	-0.223177
H163	H	0.813513	-0.314366	-0.279798
H164	H	0.837485	-0.409904	-0.247694
H165	H	0.801074	-0.394018	-0.304319
O166	O	0.827314	-0.000132	0.388452
C167	C	0.830823	-0.043090	0.354512
H168	H	0.801136	-0.073122	0.368392
H169	H	0.817421	-0.033376	0.307589
C170	C	0.929326	-0.025686	0.345026
C171	C	0.892867	-0.062572	0.362077
H172	H	0.967597	-0.037702	0.349690
H173	H	0.926961	0.003257	0.367890
H174	H	0.918150	-0.017594	0.305925
H175	H	0.904038	-0.070659	0.401180
H176	H	0.895235	-0.091517	0.339220
H177	H	0.582056	-0.000045	0.086007
O178	O	-0.042426	0.089161	-0.071456
C179	C	-0.081375	0.129069	-0.070977
H180	H	-0.126178	0.115804	-0.088496
H181	H	-0.081453	0.142972	-0.025206
C182	C	-0.008266	0.188091	-0.087099
C183	C	-0.063294	0.171800	-0.108621
H184	H	0.002888	0.214451	-0.110318
H185	H	0.017976	0.161205	-0.087420
H186	H	-0.008338	0.199673	-0.048957
H187	H	-0.063219	0.160212	-0.146759
H188	H	-0.089535	0.198685	-0.108307
O189	O	0.565957	0.000006	0.743694
C190	C	0.520601	-0.000006	0.698485
H191	H	0.536340	0.015696	0.658219
H192	H	0.504699	-0.039805	0.689998
C193	C	0.451944	0.013249	0.764416
C194	C	0.471274	0.032538	0.714961
H195	H	0.421515	0.033321	0.774579
H196	H	0.482500	0.013255	0.794874
H197	H	0.438697	-0.019916	0.757337
H198	H	0.484527	0.065700	0.722044
H199	H	0.440718	0.032538	0.684504
H200	H	0.817825	-0.000039	0.499782
O201	O	0.230944	0.134331	-0.074622
C202	C	0.272051	0.137038	-0.025717
H203	H	0.258863	0.111372	0.008983
H204	H	0.315544	0.124898	-0.037417
C205	C	0.292215	0.222591	-0.045987
C206	C	0.276014	0.191070	-0.003365
H207	H	0.294662	0.255920	-0.032200
H208	H	0.264522	0.220767	-0.078937
H209	H	0.328458	0.212468	-0.055733
H210	H	0.239769	0.201189	0.006374
H211	H	0.303701	0.192896	0.029586
O212	O	0.504105	-0.089166	-0.078129
C213	C	0.531744	-0.091865	-0.127865
H214	H	0.509147	-0.066197	-0.162130
H215	H	0.578287	-0.079720	-0.117252
C216	C	0.557339	-0.177416	-0.108158
C217	C	0.529583	-0.145894	-0.150244
H218	H	0.556009	-0.210744	-0.121962
H219	H	0.538721	-0.175598	-0.074648
H220	H	0.596123	-0.167290	-0.099318
H221	H	0.490798	-0.156017	-0.159078
H222	H	0.548194	-0.147715	-0.183756
O223	O	0.387091	-0.089229	-0.076636
C224	C	0.426042	-0.129137	-0.077096
H225	H	0.465922	-0.115870	-0.095638
H226	H	0.438597	-0.143049	-0.031477
C227	C	0.348777	-0.188154	-0.091398
C228	C	0.397756	-0.171860	-0.114177
H229	H	0.331329	-0.214509	-0.114270
H230	H	0.322534	-0.161267	-0.091087
H231	H	0.359246	-0.199744	-0.053383
H232	H	0.387285	-0.160265	-0.152189
H233	H	0.423996	-0.198746	-0.114496
H234	H	0.575509	-0.000014	0.632483
H235	H	0.769003	-0.469029	-0.170721
H236	H	0.734682	-0.771182	-0.136368
H237	H	0.763923	-0.000034	0.658183
H238	H	0.118490	0.127237	-0.073367
H239	H	0.575700	-0.374376	0.022703
H240	H	0.769176	-0.000048	0.219466
H241	H	0.525567	0.000001	0.459902
O242	O	0.770718	0.000064	0.771748
C243	C	0.773412	0.043026	0.806529
H244	H	0.744170	0.073055	0.784598
H245	H	0.758916	0.033316	0.849644
C246	C	0.871353	0.025627	0.842843
C247	C	0.835441	0.062510	0.815904
H248	H	0.909616	0.037645	0.848629
H249	H	0.869538	-0.003319	0.819412
H250	H	0.859266	0.017538	0.878769
H251	H	0.847524	0.070593	0.779976
H252	H	0.837260	0.091457	0.839329
O253	O	0.518708	-0.000024	0.346451
C254	C	0.472417	-0.000002	0.379154
H255	H	0.487128	-0.015708	0.423575
H256	H	0.456393	0.039800	0.383286
C257	C	0.405555	-0.013239	0.294731
C258	C	0.423622	-0.032533	0.349288
H259	H	0.375455	-0.033304	0.276307
H260	H	0.436742	-0.013252	0.272698
H261	H	0.392206	0.019930	0.298182
H262	H	0.436977	-0.065699	0.345835
H263	H	0.392436	-0.032527	0.371320
O264	O	0.774500	-0.629736	-0.176079
C265	C	0.832396	-0.616975	-0.159984
H266	H	0.834965	-0.579060	-0.137889
H267	H	0.853544	-0.646361	-0.129314
C268	C	0.860445	-0.661124	-0.240818
C269	C	0.863601	-0.614555	-0.213685
H270	H	0.879695	-0.659633	-0.273942
H271	H	0.821440	-0.669723	-0.251660
H272	H	0.878068	-0.685608	-0.215254
H273	H	0.845972	-0.590073	-0.239246
H274	H	0.902604	-0.605952	-0.202848
O275	O	0.572498	-0.000013	0.197237
C276	C	0.527138	-0.000026	0.152032
H277	H	0.542875	0.015669	0.111762
H278	H	0.511232	-0.039824	0.143552
C279	C	0.458489	0.013243	0.217968
C280	C	0.477817	0.032524	0.168509
H281	H	0.428064	0.033319	0.228132
H282	H	0.489048	0.013250	0.248424
H283	H	0.445238	-0.019922	0.210895
H284	H	0.491074	0.065686	0.175585
H285	H	0.447259	0.032524	0.138054
H286	H	0.575717	-0.625760	0.022692
H287	H	0.610067	-0.865961	-0.011680
H288	H	0.610000	-0.228901	-0.011682
H289	H	0.610065	-0.771238	-0.011669
H290	H	0.499473	0.082020	-0.077965
O291	O	0.570258	-0.527013	0.028102
C292	C	0.539963	-0.561274	0.058436
H293	H	0.536518	-0.598494	0.034840
H294	H	0.563678	-0.566827	0.103265
C295	C	0.483722	-0.495206	0.091871
C296	C	0.479486	-0.540919	0.062887
H297	H	0.446418	-0.482649	0.094619
H298	H	0.504133	-0.472123	0.071436
H299	H	0.503487	-0.499840	0.129225
H300	H	0.459728	-0.536283	0.025531
H301	H	0.459070	-0.564001	0.083316
H302	H	0.226176	-0.127306	-0.074649
O303	O	0.113841	-0.134455	-0.073318
C304	C	0.152790	-0.174365	-0.073770
H305	H	0.192671	-0.161103	-0.092313
H306	H	0.165342	-0.188273	-0.028149
C307	C	0.075521	-0.233380	-0.088067
C308	C	0.124503	-0.217091	-0.110847
H309	H	0.058072	-0.259736	-0.110935
H310	H	0.049280	-0.206491	-0.087760
H311	H	0.085988	-0.244966	-0.050050
H312	H	0.114034	-0.205500	-0.148860
H313	H	0.150741	-0.243979	-0.111161
H314	H	0.391707	0.082023	-0.076666
H315	H	-0.047027	-0.082091	-0.071386
O316	O	0.604547	-0.130139	-0.006264
C317	C	0.574249	-0.164388	0.024082
H318	H	0.570786	-0.201611	0.000492
H319	H	0.597971	-0.169942	0.068908
C320	C	0.518038	-0.098300	0.057520
C321	C	0.513781	-0.144017	0.028543
H322	H	0.480739	-0.085734	0.060275
H323	H	0.538451	-0.075225	0.037077
H324	H	0.537808	-0.102934	0.094872
H325	H	0.494017	-0.139381	-0.008810
H326	H	0.493362	-0.167090	0.048980
O327	O	-0.159471	-0.089184	-0.069921
C328	C	-0.187108	-0.091883	-0.020182
H329	H	-0.164490	-0.066225	0.014078
H330	H	-0.233642	-0.079727	-0.030793
C331	C	-0.212766	-0.177427	-0.039878
C332	C	-0.184984	-0.145916	0.002204
H333	H	-0.211460	-0.210756	-0.026070
H334	H	-0.194149	-0.175608	-0.073389
H335	H	-0.251543	-0.167291	-0.048716
H336	H	-0.146207	-0.156048	0.011036
H337	H	-0.203595	-0.147737	0.035717
H338	H	0.575704	-0.469101	0.022704
H339	H	0.734689	-0.865922	-0.136362
H340	H	0.769010	-0.530957	-0.170721
