data_functionalizedCrystal
_audit_creation_method	'MofGen! by Chris Wilmer'
_symmetry_space_group_name_H-M	'P1'
_symmetry_Int_Tables_number	1
_symmetry_cell_setting	triclinic
loop_
_symmetry_equiv_pos_as_xyz
  x,y,z
_cell_length_a	14.044220
_cell_length_b	14.519709
_cell_length_c	13.596369
_cell_angle_alpha	90.000291
_cell_angle_beta	90.006843
_cell_angle_gamma	91.565489
loop_
_atom_site_label
_atom_site_type_symbol
_atom_site_fract_x
_atom_site_fract_y
_atom_site_fract_z
O1	O	0.124273	-1.233892	0.081665
O2	O	0.624273	-0.733892	0.581665
O3	O	0.138907	-0.966596	0.081695
O4	O	0.638907	-0.466596	0.581695
O5	O	-0.006402	-1.096232	0.081671
O6	O	0.493598	-0.596232	0.581671
O7	O	0.269581	-1.104256	0.081690
O8	O	0.769581	-0.604256	0.581690
O9	O	-0.006409	-1.096217	-0.081912
O10	O	0.493591	-0.596217	0.418088
O11	O	0.138899	-0.966581	-0.081887
O12	O	0.638899	-0.466581	0.418113
O13	O	0.124265	-1.233878	-0.081918
O14	O	0.624265	-0.733878	0.418082
Zn15	Zn	0.131581	-1.100227	-0.107875
Zn16	Zn	0.631581	-0.600227	0.392125
Zn17	Zn	0.131591	-1.100246	0.107653
Zn18	Zn	0.631591	-0.600246	0.607653
O19	O	0.269574	-1.104241	-0.081893
O20	O	0.769574	-0.604241	0.418107
C21	C	0.138221	-0.932174	-0.000092
C22	C	0.638221	-0.432174	0.499908
C23	C	0.136177	-0.829628	-0.000081
C24	C	0.636177	-0.329628	0.499919
C25	C	-0.041726	-1.092712	-0.000120
C26	C	0.458274	-0.592712	0.499880
C27	C	-0.146969	-1.082235	-0.000120
C28	C	0.353031	-0.582235	0.499880
C29	C	0.124951	-1.268300	-0.000128
C30	C	0.624951	-0.768300	0.499872
C31	C	0.126995	-1.370846	-0.000133
C32	C	0.626995	-0.870846	0.499867
C33	C	-0.339663	-1.063081	-0.000104
C34	C	0.160337	-0.563081	0.499896
C35	C	-0.397170	-1.137389	-0.000110
C36	C	0.102830	-0.637389	0.499890
C37	C	-0.504392	-1.126731	-0.000101
C38	C	-0.004392	-0.626731	0.499899
C39	C	-0.232432	-1.073737	-0.000113
C40	C	0.267568	-0.573737	0.499887
C41	C	0.304898	-1.107761	-0.000100
C42	C	0.804898	-0.607761	0.499900
C43	C	0.410141	-1.118238	-0.000093
C44	C	0.910141	-0.618238	0.499907
N45	N	0.131573	-1.100220	-0.254967
N46	N	0.631573	-0.600220	0.245033
C47	C	0.128653	-0.454125	-0.000126
C48	C	0.628653	0.045875	0.499874
C49	C	0.130743	-0.558601	-0.000113
C50	C	0.630743	-0.058601	0.499887
C51	C	0.132415	-0.641873	-0.000103
C52	C	0.632415	-0.141873	0.499897
C53	C	0.134505	-0.746356	-0.000092
C54	C	0.634505	-0.246356	0.499908
C55	C	0.131592	-1.100245	-0.656258
C56	C	0.631592	-0.600245	-0.156258
C57	C	0.131590	-1.100236	-0.544606
C58	C	0.631590	-0.600236	-0.044606
C59	C	0.131583	-1.100233	-0.455616
C60	C	0.631583	-0.600233	0.044384
C61	C	0.131580	-1.100223	-0.343957
C62	C	0.631580	-0.600223	0.156043
N63	N	0.131591	-1.100260	0.254744
N64	N	0.631591	-0.600260	0.754744
H65	H	-0.365878	-1.209010	-0.000052
H66	H	0.134122	-0.709010	0.499948
H67	H	-0.370954	-0.991465	-0.000094
H68	H	0.129046	-0.491465	0.499906
