data_functionalizedCrystal
_audit_creation_method	'MofGen! by Chris Wilmer'
_symmetry_space_group_name_H-M	'P1'
_symmetry_Int_Tables_number	1
_symmetry_cell_setting	triclinic
loop_
_symmetry_equiv_pos_as_xyz
  x,y,z
_cell_length_a	15.625110
_cell_length_b	19.188924
_cell_length_c	14.750779
_cell_angle_alpha	77.399495
_cell_angle_beta	120.099500
_cell_angle_gamma	83.719059
loop_
_atom_site_label
_atom_site_type_symbol
_atom_site_fract_x
_atom_site_fract_y
_atom_site_fract_z
O1	O	1.286341	0.021421	0.368011
O2	O	1.786341	0.521421	0.868011
O3	O	0.999243	0.051221	0.268055
O4	O	1.499243	0.551221	0.768055
O5	O	1.151084	-0.065859	0.320931
O6	O	1.651084	0.434141	0.820931
O7	O	1.134501	0.138501	0.315135
O8	O	1.634501	0.638501	0.815135
O9	O	1.194008	-0.098952	0.495529
O10	O	1.694008	0.401048	0.995529
O11	O	1.042167	0.018128	0.442653
O12	O	1.542167	0.518128	0.942653
O13	O	1.329265	-0.011673	0.542609
O14	O	1.829265	0.488327	1.042609
Zn15	Zn	1.192531	-0.002027	0.520352
Zn16	Zn	1.692531	0.497973	1.020352
Zn17	Zn	1.135977	0.041576	0.290312
Zn18	Zn	1.635977	0.541576	0.790312
O19	O	1.177424	0.105407	0.489733
O20	O	1.677424	0.605407	0.989733
C21	C	0.983975	0.036606	0.342566
C22	C	1.483975	0.536606	0.842566
C23	C	0.874530	0.042352	0.304462
C24	C	1.374530	0.542352	0.804462
C25	C	0.696876	0.068490	0.155590
C26	C	1.196876	0.568490	0.655590
C27	C	0.799718	0.063088	0.191405
C28	C	1.299718	0.563088	0.691405
C29	C	0.846521	0.027013	0.381748
C30	C	1.346521	0.527013	0.881748
C31	C	0.743679	0.032415	0.345948
C32	C	1.243679	0.532415	0.845948
C33	C	0.668864	0.053153	0.232868
C34	C	1.168864	0.553153	0.732868
C35	C	0.715668	0.017079	0.423226
C36	C	1.215668	0.517079	0.923226
C37	C	0.612836	0.022477	0.387429
C38	C	1.112836	0.522477	0.887429
C39	C	0.538016	0.043212	0.274354
C40	C	1.038016	0.543212	0.774354
C41	C	0.566032	0.058551	0.197070
C42	C	1.066032	0.558551	0.697070
C43	C	0.790486	-0.003664	0.536306
C44	C	1.290486	0.496336	1.036306
C45	C	0.762474	-0.019001	0.613584
C46	C	1.262474	0.480999	1.113584
C47	C	0.659640	-0.013598	0.577787
C48	C	1.159640	0.486402	1.077787
C49	C	0.584819	0.007137	0.464712
C50	C	1.084819	0.507137	0.964712
C51	C	0.631623	-0.028938	0.655070
C52	C	1.131623	0.471062	1.155070
C53	C	0.528791	-0.023539	0.619273
C54	C	1.028791	0.476461	1.119273
C55	C	0.481987	0.012535	0.428915
C56	C	0.981987	0.512535	0.928915
C57	C	1.172010	-0.108383	0.408044
C58	C	1.672010	0.391617	0.908044
C59	C	1.170403	-0.185787	0.407487
C60	C	1.670403	0.314213	0.907487
C61	C	1.146255	-0.204099	0.312053
C62	C	1.646255	0.295901	0.812053
C63	C	1.144728	-0.276825	0.311514
C64	C	1.644728	0.223175	0.811514
C65	C	1.167370	-0.331239	0.406422
C66	C	1.667370	0.168761	0.906422
C67	C	1.191516	-0.312920	0.501867
C68	C	1.691516	0.187080	1.001867
C69	C	1.193032	-0.240194	0.502400
C70	C	1.693032	0.259806	1.002400
N71	N	1.238512	-0.467709	0.495961
N72	N	1.738512	0.032291	0.995961
N73	N	1.237072	-0.536795	0.495449
N74	N	1.737072	-0.036795	0.995449
C75	C	1.162801	-0.550359	0.404822
C76	C	1.662801	-0.050359	0.904822
N77	N	1.090033	-0.492226	0.314714
N78	N	1.590033	0.007774	0.814714
N79	N	1.091477	-0.423134	0.315224
N80	N	1.591477	0.076866	0.815224
C81	C	1.165728	-0.410100	0.405855
C82	C	1.665728	0.089900	0.905855
C83	C	1.136994	-0.647527	0.308796
C84	C	1.636994	-0.147527	0.808796
C85	C	1.135462	-0.720253	0.308259
C86	C	1.635462	-0.220253	0.808259
C87	C	1.182261	-0.756349	0.498618
C88	C	1.682261	-0.256349	0.998618
C89	C	1.183782	-0.683622	0.499149
C90	C	1.683782	-0.183622	0.999149
C91	C	1.161153	-0.629215	0.404237
C92	C	1.661153	-0.129215	0.904237
C93	C	1.344533	0.002943	0.468096
C94	C	1.844533	0.502943	0.968096
C95	C	1.453976	-0.002801	0.506193
C96	C	1.953976	0.497199	1.006193
C97	C	1.156497	0.147932	0.402617
C98	C	1.656497	0.647932	0.902617
C99	C	1.158103	0.225338	0.403167
C100	C	1.658103	0.725338	0.903167
N101	N	1.231134	-0.031785	0.677351
N102	N	1.731134	0.468215	1.177351
N103	N	1.097382	0.071328	0.133316
N104	N	1.597382	0.571328	0.633316
C105	C	0.989568	0.154408	0.945047
C106	C	1.489568	0.654408	1.445047
C107	C	1.016626	0.133560	1.054969
C108	C	1.516626	0.633560	1.554969
C109	C	1.151108	0.029918	1.101763
C110	C	1.651108	0.529918	1.601763
C111	C	1.124058	0.050756	0.991842
C112	C	1.624058	0.550756	1.491842
C113	C	1.043288	0.113002	0.913492
C114	C	1.543288	0.613002	1.413492
C115	C	1.177778	0.009350	0.960287
C116	C	1.677778	0.509350	1.460287
C117	C	1.150734	0.030189	0.850376
C118	C	1.650734	0.530189	1.350376
C119	C	1.069969	0.092434	0.772021
C120	C	1.569969	0.592434	1.272021
C121	C	1.016243	0.133841	0.803581
C122	C	1.516243	0.633841	1.303581
C123	C	1.258553	-0.052892	1.038640
C124	C	1.758553	0.447108	1.538640
C125	C	1.312273	-0.094298	1.007085
C126	C	1.812273	0.405702	1.507085
C127	C	1.285224	-0.073463	0.897171
C128	C	1.785224	0.426537	1.397171
C129	C	1.204459	-0.011218	0.818816
C130	C	1.704459	0.488782	1.318816
C131	C	1.338949	-0.114870	0.865611
C132	C	1.838949	0.385130	1.365611
C133	C	1.311905	-0.094031	0.755701
C134	C	1.811905	0.405969	1.255701
C135	C	1.177414	0.009621	0.708906
C136	C	1.677414	0.509621	1.208906
H137	H	0.505111	0.075447	0.104989
H138	H	1.005111	0.575447	0.604989
H139	H	0.972874	0.167284	1.080651
H140	H	1.472874	0.667284	1.580651
H141	H	0.907449	0.010125	0.473818
H142	H	1.407449	0.510125	0.973818
H143	H	1.209949	-0.357228	0.579141
H144	H	1.709949	0.142772	1.079141
H145	H	0.874216	-0.008058	0.565448
H146	H	1.374216	0.491942	1.065448
H147	H	0.823402	-0.035889	0.705655
H148	H	1.323402	0.464111	1.205655
H149	H	1.111636	0.060303	0.645106
H150	H	1.611636	0.560303	1.145106
H151	H	1.378040	-0.144978	1.070890
H152	H	1.878040	0.355022	1.570890
H153	H	1.355651	-0.127748	0.730011
H154	H	1.855651	0.372252	1.230011
H155	H	1.047953	0.109402	0.682527
H156	H	1.547953	0.609402	1.182527
H157	H	1.404720	-0.165547	0.929419
H158	H	1.904720	0.334453	1.429419
H159	H	0.692553	-0.045829	0.747141
H160	H	1.192553	0.454171	1.247141
H161	H	0.822517	0.075583	0.128467
H162	H	1.322517	0.575583	0.628467
H163	H	0.454284	0.047607	0.245209
H164	H	0.954284	0.547607	0.745209
H165	H	0.421066	0.029431	0.336833
H166	H	0.921066	0.529431	0.836833
H167	H	1.216875	-0.020762	1.165568
H168	H	1.716875	0.479238	1.665568
H169	H	0.505983	-0.036015	0.682200
H170	H	1.005983	0.463985	1.182200
H171	H	1.280573	-0.069855	1.128136
H172	H	1.780573	0.430145	1.628136
H173	H	1.118562	-0.603225	0.231510
H174	H	1.618562	-0.103225	0.731510
H175	H	1.127825	-0.159804	0.234766
H176	H	1.627825	0.340196	0.734766
H177	H	0.635954	0.085385	0.063508
H178	H	1.135954	0.585385	0.563508
H179	H	1.212693	-0.225286	0.580116
H180	H	1.712693	0.274714	1.080116
H181	H	1.125057	-0.291737	0.233795
H182	H	1.625057	0.208263	0.733795
H183	H	1.115792	-0.735158	0.230539
H184	H	1.615792	-0.235158	0.730539
H185	H	1.200689	-0.800651	0.575892
H186	H	1.700689	-0.300651	1.075892
H187	H	1.203455	-0.668715	0.576866
H188	H	1.703455	-0.168715	1.076866
H189	H	0.950465	0.184523	0.739782
H190	H	1.450465	0.684523	1.239782
H191	H	0.923790	0.205091	0.881247
H192	H	1.423790	0.705091	1.381247
