data_functionalizedCrystal
_audit_creation_method	'MofGen! by Chris Wilmer'
_symmetry_space_group_name_H-M	'P1'
_symmetry_Int_Tables_number	1
_symmetry_cell_setting	triclinic
loop_
_symmetry_equiv_pos_as_xyz
  x,y,z
_cell_length_a	19.077105
_cell_length_b	19.121063
_cell_length_c	19.076919
_cell_angle_alpha	94.606347
_cell_angle_beta	90.076224
_cell_angle_gamma	90.263052
loop_
_atom_site_label
_atom_site_type_symbol
_atom_site_fract_x
_atom_site_fract_y
_atom_site_fract_z
Zn1	Zn	1.043169	-0.339734	-0.454309
Zn2	Zn	1.376503	-0.006401	-0.120976
Zn3	Zn	1.709836	0.326933	0.212357
Zn4	Zn	1.042790	-0.452646	-0.341419
Zn5	Zn	1.376124	-0.119312	-0.008086
Zn6	Zn	1.709457	0.214021	0.325247
Zn7	Zn	0.930805	-0.330327	-0.331718
Zn8	Zn	1.264139	0.003007	0.001615
Zn9	Zn	1.597472	0.336340	0.334949
Zn10	Zn	0.920631	-0.452222	-0.454155
Zn11	Zn	1.253964	-0.118889	-0.120821
Zn12	Zn	1.587297	0.214445	0.212512
O13	O	0.984349	-0.393732	-0.395400
O14	O	1.317682	-0.060399	-0.062067
O15	O	1.651015	0.272935	0.271266
O16	O	1.141268	-0.358826	-0.443459
O17	O	1.474601	-0.025493	-0.110126
O18	O	1.807934	0.307840	0.223208
O19	O	1.032035	-0.432660	-0.241647
O20	O	1.365368	-0.099327	0.091686
O21	O	1.698701	0.234007	0.425019
O22	O	0.950127	-0.233307	-0.343985
O23	O	1.283460	0.100026	-0.010651
O24	O	1.616794	0.433360	0.322682
O25	O	1.140989	-0.441782	-0.360519
O26	O	1.474323	-0.108449	-0.027186
O27	O	1.807656	0.224885	0.306147
O28	O	1.032681	-0.240219	-0.434052
O29	O	1.366014	0.093115	-0.100719
O30	O	1.699347	0.426448	0.232615
O31	O	0.949760	-0.342793	-0.234520
O32	O	1.283093	-0.009459	0.098813
O33	O	1.616426	0.323874	0.432147
O34	O	0.831307	-0.342382	-0.343835
O35	O	1.164640	-0.009049	-0.010501
O36	O	1.497973	0.324285	0.322832
O37	O	0.932786	-0.441060	-0.552660
O38	O	1.266120	-0.107727	-0.219327
O39	O	1.599453	0.225607	0.114007
O40	O	0.823831	-0.431938	-0.433788
O41	O	1.157165	-0.098605	-0.100455
O42	O	1.490498	0.234729	0.232878
O43	O	1.022815	-0.358416	-0.552774
O44	O	1.356148	-0.025082	-0.219440
O45	O	1.689481	0.308251	0.113893
O46	O	1.022169	-0.550857	-0.360369
O47	O	1.355502	-0.217524	-0.027036
O48	O	1.688836	0.115810	0.306297
O49	O	0.932419	-0.550546	-0.443195
O50	O	1.265752	-0.217212	-0.109862
O51	O	1.599085	0.116121	0.223471
C52	C	0.802120	-0.386094	-0.387742
C53	C	1.135453	-0.052760	-0.054409
C54	C	1.468787	0.280573	0.278924
C55	C	0.724160	-0.382844	-0.384484
C56	C	1.057494	-0.049510	-0.051150
C57	C	1.390827	0.283823	0.282183
C58	C	0.683661	-0.428009	-0.429719
C59	C	1.016995	-0.094676	-0.096386
C60	C	1.350328	0.238658	0.236948
C61	C	0.610410	-0.424946	-0.426660
C62	C	0.943743	-0.091613	-0.093327
C63	C	1.277077	0.241721	0.240007
C64	C	0.577659	-0.376721	-0.378362
C65	C	0.910993	-0.043387	-0.045029
C66	C	1.244326	0.289946	0.288305
C67	C	0.618164	-0.331551	-0.333125
C68	C	0.951497	0.001783	0.000208
C69	C	1.284831	0.335116	0.333542
C70	C	0.691414	-0.334611	-0.336188
C71	C	1.024747	-0.001277	-0.002854
C72	C	1.358081	0.332056	0.330479
C73	C	0.359002	-0.362559	-0.364190
C74	C	0.692335	-0.029225	-0.030857
C75	C	1.025668	0.304108	0.302476
C76	C	0.285746	-0.359503	-0.361130
C77	C	0.619080	-0.026170	-0.027796
C78	C	0.952413	0.307163	0.305537
C79	C	0.277998	-0.452898	-0.454666
C80	C	0.611331	-0.119565	-0.121333
C81	C	0.944664	0.213769	0.212001
C82	C	0.351249	-0.455957	-0.457722
C83	C	0.684582	-0.122623	-0.124388
C84	C	1.017916	0.210710	0.208945
C85	C	0.391747	-0.410784	-0.412487
C86	C	0.725081	-0.077451	-0.079154
C87	C	1.058414	0.255882	0.254180
N88	N	0.502785	-0.373590	-0.375233
N89	N	0.836118	-0.040257	-0.041899
N90	N	1.169452	0.293076	0.291434
N91	N	0.466620	-0.413912	-0.415620
N92	N	0.799954	-0.080578	-0.082287
N93	N	1.133287	0.252755	0.251046
C94	C	0.976167	-0.576182	-0.402834
C95	C	1.309500	-0.242849	-0.069501
C96	C	1.642834	0.090484	0.263832
C97	C	0.972730	-0.654239	-0.406041
C98	C	1.306063	-0.320906	-0.072708
C99	C	1.639397	0.012428	0.260626
C100	C	1.017877	-0.691052	-0.364463
C101	C	1.351210	-0.357718	-0.031130
C102	C	1.684543	-0.024385	0.302204
C103	C	1.014648	-0.764395	-0.367483
C104	C	1.347981	-0.431061	-0.034150
C105	C	1.681315	-0.097728	0.299184
C106	C	0.966269	-0.800923	-0.412078
C107	C	1.299602	-0.467590	-0.078745
C108	C	1.632936	-0.134256	0.254589
C109	C	0.921120	-0.764105	-0.453660
C110	C	1.254454	-0.430772	-0.120327
C111	C	1.587787	-0.097439	0.213006
C112	C	0.924353	-0.690764	-0.450644
C113	C	1.257686	-0.357431	-0.117310
C114	C	1.591020	-0.024097	0.216023
C115	C	0.954173	-1.022359	-0.423346
C116	C	1.287506	-0.689026	-0.090012
C117	C	1.620840	-0.355693	0.243321
C118	C	0.950942	-1.095705	-0.426358
C119	C	1.284276	-0.762372	-0.093025
C120	C	1.617609	-0.429039	0.240309
C121	C	1.044471	-1.095990	-0.340181
C122	C	1.377805	-0.762656	-0.006848
C123	C	1.711138	-0.429323	0.326486
C124	C	1.047697	-1.022647	-0.337165
C125	C	1.381030	-0.689314	-0.003832
C126	C	1.714363	-0.355980	0.329502
C127	C	1.002551	-0.985836	-0.378750
C128	C	1.335884	-0.652502	-0.045417
C129	C	1.669217	-0.319169	0.287916
C130	C	0.962966	-0.875891	-0.415164
C131	C	1.296300	-0.542558	-0.081831
C132	C	1.629633	-0.209224	0.251502
C133	C	1.005857	-0.910869	-0.375667
C134	C	1.339191	-0.577536	-0.042334
C135	C	1.672524	-0.244203	0.291000
C136	C	1.167289	-0.401401	-0.403088
C137	C	1.500622	-0.068067	-0.069755
C138	C	1.833956	0.265266	0.263578
C139	C	1.245247	-0.404669	-0.406365
C140	C	1.578581	-0.071335	-0.073031
C141	C	1.911914	0.261998	0.260302
C142	C	0.976708	-0.400740	-0.578967
C143	C	1.310041	-0.067407	-0.245634
C144	C	1.643375	0.265927	0.087700
C145	C	0.973452	-0.403726	-0.657192
C146	C	1.306785	-0.070393	-0.323859
C147	C	1.640118	0.262940	0.009474
C148	C	0.992581	-0.210571	-0.387953
C149	C	1.325914	0.122763	-0.054620
C150	C	1.659248	0.456096	0.278713
C151	C	0.996089	-0.132518	-0.384780
C152	C	1.329422	0.200815	-0.051447
C153	C	1.662756	0.534149	0.281887
C154	C	1.018793	-0.362103	-0.694003
C155	C	1.352126	-0.028769	-0.360670
C156	C	1.685459	0.304564	-0.027336
C157	C	1.015725	-0.364906	-0.767503
C158	C	1.349058	-0.031572	-0.434170
C159	C	1.682391	0.301761	-0.100837
C160	C	0.967319	-0.409336	-0.804192
C161	C	1.300652	-0.076003	-0.470859
C162	C	1.633986	0.257330	-0.137525
C163	C	0.921973	-0.450962	-0.767376
C164	C	1.255306	-0.117628	-0.434043
C165	C	1.588640	0.215705	-0.100709
C166	C	0.925038	-0.448154	-0.693877
C167	C	1.258371	-0.114821	-0.360543
C168	C	1.591705	0.218512	-0.027210
C169	C	0.953123	-0.422342	-1.024005
C170	C	1.286456	-0.089009	-0.690672
C171	C	1.619789	0.244325	-0.357338
C172	C	0.950063	-0.425148	-1.097510
C173	C	1.283396	-0.091814	-0.764176
C174	C	1.616729	0.241519	-0.430843
C175	C	1.043814	-0.339090	-1.097632
C176	C	1.377147	-0.005757	-0.764298
C177	C	1.710480	0.327576	-0.430965
C178	C	1.046877	-0.336290	-1.024131
C179	C	1.380211	-0.002957	-0.690798
C180	C	1.713544	0.330376	-0.357464
C181	C	1.001529	-0.377913	-0.987321
C182	C	1.334862	-0.044579	-0.653988
C183	C	1.668196	0.288754	-0.320655
N184	N	0.964183	-0.412204	-0.879321
N185	N	1.297517	-0.078871	-0.545988
N186	N	1.630850	0.254463	-0.212655
N187	N	1.004662	-0.375041	-0.912193
N188	N	1.337995	-0.041707	-0.578860
N189	N	1.671328	0.291626	-0.245526
C190	C	0.992003	-0.386702	-0.212547
C191	C	1.325336	-0.053369	0.120786
C192	C	1.658669	0.279964	0.454119
C193	C	0.995403	-0.383524	-0.134320
C194	C	1.328737	-0.050191	0.199013
C195	C	1.662070	0.283143	0.532347
H196	H	0.377909	-0.495228	-0.497049
H197	H	0.711243	-0.161895	-0.163716
H198	H	1.044576	0.171438	0.169617
H199	H	0.916207	-0.456245	-0.994044
H200	H	1.249540	-0.122911	-0.660711
H201	H	1.582874	0.210422	-0.327377
H202	H	0.881732	-0.793853	-0.489974
H203	H	1.215065	-0.460519	-0.156640
H204	H	1.548399	-0.127186	0.176693
H205	H	0.591493	-0.292282	-0.293803
H206	H	0.924826	0.041051	0.039531
H207	H	1.258159	0.374385	0.372864
H208	H	0.911554	-1.125446	-0.462685
H209	H	1.244888	-0.792112	-0.129352
H210	H	1.578221	-0.458779	0.203982
H211	H	1.081228	-1.125969	-0.306326
H212	H	1.414561	-0.792636	0.027008
H213	H	1.747894	-0.459303	0.360341
H214	H	0.882558	-0.487135	-0.797254
H215	H	1.215891	-0.153802	-0.463920
H216	H	1.549224	0.179531	-0.130587
O217	O	0.402684	-0.313848	-0.315402
O218	O	0.736017	0.019486	0.017932
O219	O	1.069351	0.352819	0.351265
H220	H	0.436140	-0.345254	-0.282227
H221	H	0.769473	-0.011920	0.051106
H222	H	1.102806	0.321413	0.384440
O223	O	1.099087	-0.288365	-0.984565
O224	O	1.432421	0.044968	-0.651231
O225	O	1.765754	0.378301	-0.317898
H226	H	1.093605	-0.293412	-0.927272
H227	H	1.426939	0.039922	-0.593939
H228	H	1.760272	0.373255	-0.260605
O229	O	0.566796	-0.473792	-0.475383
O230	O	0.900129	-0.140458	-0.142050
O231	O	1.233463	0.192875	0.191283
H232	H	0.579088	-0.464637	-0.530768
H233	H	0.912421	-0.131303	-0.197435
H234	H	1.245754	0.202030	0.135898
O235	O	0.735095	-0.285903	-0.287389
O236	O	1.068428	0.047430	0.045945
O237	O	1.401762	0.380764	0.379278
H238	H	0.722997	-0.230684	-0.296709
H239	H	1.056330	0.102649	0.036624
H240	H	1.389664	0.435983	0.369957
O241	O	1.064631	-0.320012	-0.807205
O242	O	1.397964	0.013321	-0.473872
O243	O	1.731298	0.346655	-0.140538
H244	H	1.097499	-0.354219	-0.843476
H245	H	1.430832	-0.020885	-0.510143
H246	H	1.764166	0.312448	-0.176810
H247	H	0.923575	-0.905641	-0.451472
H248	H	1.256908	-0.572307	-0.118139
H249	H	1.590241	-0.238974	0.215195
H250	H	1.080733	-0.305203	-1.127610
H251	H	1.414066	0.028131	-0.794277
H252	H	1.747399	0.361464	-0.460943
O253	O	1.070060	-0.651654	-0.316367
O254	O	1.403393	-0.318321	0.016966
O255	O	1.736727	0.015013	0.350299
H256	H	1.100916	-0.689578	-0.287969
H257	H	1.434249	-0.356244	0.045364
H258	H	1.767583	-0.022911	0.378697
O259	O	0.876127	-0.493038	-0.654167
O260	O	1.209460	-0.159705	-0.320834
O261	O	1.542793	0.173629	0.012499
H262	H	0.841952	-0.524406	-0.692026
H263	H	1.175285	-0.191073	-0.358692
H264	H	1.508619	0.142261	-0.025359
O265	O	0.875652	-0.651062	-0.495487
O266	O	1.208985	-0.317728	-0.162154
O267	O	1.542319	0.015605	0.171180
H268	H	0.906996	-0.620292	-0.531267
H269	H	1.240330	-0.286959	-0.197934
H270	H	1.573663	0.046375	0.135399
O271	O	0.234341	-0.501634	-0.503458
O272	O	0.567674	-0.168301	-0.170125
O273	O	0.901008	0.165033	0.163208
H274	H	0.200888	-0.470257	-0.536664
H275	H	0.534222	-0.136923	-0.203330
H276	H	0.867555	0.196410	0.130003
O277	O	0.897847	-0.473066	-1.137085
O278	O	1.231180	-0.139733	-0.803752
O279	O	1.564513	0.193600	-0.470419
H280	H	0.866823	-0.501532	-1.099141
H281	H	1.200156	-0.168199	-0.765808
H282	H	1.533489	0.165134	-0.432475
O283	O	0.250418	-0.307482	-0.309040
O284	O	0.583751	0.025851	0.024294
O285	O	0.917085	0.359185	0.357627
H286	H	0.290884	-0.276579	-0.278104
H287	H	0.624218	0.056754	0.055229
H288	H	0.957551	0.390087	0.388562
H289	H	0.710321	-0.467281	-0.469046
H290	H	1.043654	-0.133948	-0.135713
H291	H	1.376988	0.199385	0.197621
H292	H	1.051411	-0.794364	-0.333625
H293	H	1.384744	-0.461031	-0.000292
H294	H	1.718077	-0.127698	0.333041
H295	H	1.087091	-0.992907	-0.300852
H296	H	1.420424	-0.659574	0.032481
H297	H	1.753757	-0.326240	0.365814
H298	H	0.917412	-0.992393	-0.457205
H299	H	1.250745	-0.659060	-0.123871
H300	H	1.584079	-0.325726	0.209462
O301	O	1.058045	-0.871472	-0.327581
O302	O	1.391378	-0.538139	0.005753
O303	O	1.724711	-0.204805	0.339086
H304	H	1.029646	-0.835417	-0.289058
H305	H	1.362980	-0.502083	0.044275
H306	H	1.696313	-0.168750	0.377608
O307	O	1.071002	-0.314181	-0.654432
O308	O	1.404336	0.019153	-0.321099
O309	O	1.737669	0.352486	0.012235
H310	H	1.102010	-0.285704	-0.692380
H311	H	1.435343	0.047630	-0.359046
H312	H	1.768677	0.380963	-0.025713
