data_functionalizedCrystal
_audit_creation_method	'MofGen! by Chris Wilmer'
_symmetry_space_group_name_H-M	'P1'
_symmetry_Int_Tables_number	1
_symmetry_cell_setting	triclinic
loop_
_symmetry_equiv_pos_as_xyz
  x,y,z
_cell_length_a	14.519709
_cell_length_b	23.532357
_cell_length_c	12.996460
_cell_angle_alpha	89.988323
_cell_angle_beta	90.000034
_cell_angle_gamma	83.254219
loop_
_atom_site_label
_atom_site_type_symbol
_atom_site_fract_x
_atom_site_fract_y
_atom_site_fract_z
O1	O	1.222964	0.074656	-0.085446
O2	O	0.954380	0.083447	-0.085479
O3	O	1.096795	-0.003846	-0.085440
O4	O	1.080549	0.161949	-0.085485
O5	O	1.096781	-0.003850	0.085694
O6	O	0.954366	0.083442	0.085655
O7	O	1.222949	0.074651	0.085688
Cu8	Cu	1.088656	0.079046	0.101297
Cu9	Cu	1.088673	0.079052	-0.101088
O10	O	1.080534	0.161944	0.085649
C11	C	0.920018	0.083035	0.000084
C12	C	0.817652	0.081807	0.000072
C13	C	0.442811	0.077287	0.000120
C14	C	0.547104	0.078543	0.000107
C15	C	0.630228	0.079547	0.000095
C16	C	0.734527	0.080803	0.000084
C17	C	1.096382	-0.025066	0.000130
C18	C	1.095160	-0.088290	0.000139
C19	C	1.087498	-0.480334	-0.093202
C20	C	1.086336	-0.539738	-0.093208
O21	O	1.085711	-0.570455	-0.172544
N22	N	1.085752	-0.569455	0.000075
C23	C	1.086320	-0.539763	0.093371
O24	O	1.085716	-0.570494	0.172716
C25	C	1.087475	-0.480359	0.093376
C26	C	1.088068	-0.450646	0.000086
C27	C	1.088090	-0.450621	-0.186484
C28	C	1.089253	-0.391221	-0.186478
C29	C	1.089824	-0.361533	-0.093189
C30	C	1.089232	-0.391246	0.000093
C31	C	1.088037	-0.450667	0.186671
C32	C	1.089191	-0.391259	0.186668
C33	C	1.089784	-0.361546	0.093378
C34	C	1.090965	-0.302157	0.093388
N35	N	1.091549	-0.272441	0.000104
C36	C	1.090979	-0.302129	-0.093185
C37	C	1.083894	-0.664515	0.093354
C38	C	1.082746	-0.723919	0.093350
C39	C	1.082760	-0.723890	-0.093230
C40	C	1.083914	-0.664486	-0.093225
C41	C	1.084478	-0.634799	0.000070
C42	C	1.093422	-0.177384	-0.093164
C43	C	1.094589	-0.117978	-0.093149
C44	C	1.094570	-0.118012	0.093430
C45	C	1.093408	-0.177412	0.093416
C46	C	1.092831	-0.207096	0.000111
O47	O	1.091587	-0.271402	0.172683
O48	O	1.091571	-0.271390	-0.172516
C49	C	1.257311	0.075063	0.000123
C50	C	1.359678	0.076291	0.000127
C51	C	1.080948	0.183165	0.000077
C52	C	1.082170	0.246389	0.000061
N53	N	1.088651	0.079042	0.243644
N54	N	1.088686	0.079052	-0.243435
C55	C	1.088672	0.079053	0.663459
C56	C	1.088663	0.079051	0.546654
C57	C	1.088662	0.079048	0.453555
C58	C	1.088652	0.079046	0.336743
H59	H	1.095074	-0.093789	-0.169120
H60	H	1.092947	-0.201545	-0.169142
H61	H	1.095039	-0.093829	0.169383
H62	H	1.089733	-0.367034	-0.262444
H63	H	1.087555	-0.474849	0.262638
H64	H	1.087622	-0.474786	-0.262455
C65	C	1.171401	-0.250555	0.201667
C66	C	1.092780	-0.210073	0.195965
H67	H	1.171012	-0.270710	0.264983
H68	H	1.170878	-0.276740	0.146122
H69	H	1.225633	-0.231666	0.197781
H70	H	1.038547	-0.228962	0.199844
H71	H	1.093294	-0.183884	0.251526
C72	C	1.011185	-0.318144	0.294904
C73	C	1.089808	-0.358625	0.289221
H74	H	1.011566	-0.298001	0.358218
H75	H	1.011713	-0.291949	0.239356
H76	H	0.956954	-0.337033	0.291010
H77	H	1.144039	-0.339736	0.293107
H78	H	1.089289	-0.384824	0.344784
H79	H	1.084396	-0.640298	-0.169190
H80	H	1.082276	-0.748107	0.169316
C81	C	1.080973	-0.814944	-0.176071
C82	C	1.082120	-0.756530	-0.195778
H83	H	1.080573	-0.835093	-0.239376
H84	H	1.134565	-0.828971	-0.137745
H85	H	1.026993	-0.820382	-0.137739
H86	H	1.136104	-0.751091	-0.234103
H87	H	1.028523	-0.742499	-0.234120
C88	C	1.083773	-0.670521	0.277781
C89	C	1.084526	-0.631887	0.195914
H90	H	1.084167	-0.650378	0.341095
H91	H	1.029539	-0.689397	0.273887
H92	H	1.137112	-0.697982	0.273889
H93	H	1.031184	-0.604428	0.199801
H94	H	1.138765	-0.613001	0.199810
