data_functionalizedCrystal
_audit_creation_method	'MofGen! by Chris Wilmer'
_symmetry_space_group_name_H-M	'P1'
_symmetry_Int_Tables_number	1
_symmetry_cell_setting	triclinic
loop_
_symmetry_equiv_pos_as_xyz
  x,y,z
_cell_length_a	29.019771
_cell_length_b	29.019011
_cell_length_c	29.015668
_cell_angle_alpha	60.004890
_cell_angle_beta	60.009825
_cell_angle_gamma	59.993818
loop_
_atom_site_label
_atom_site_type_symbol
_atom_site_fract_x
_atom_site_fract_y
_atom_site_fract_z
O1	O	0.063866	-0.673289	0.563007
O2	O	0.563866	-0.173289	1.063007
O3	O	0.024059	-0.524205	0.453633
O4	O	0.524059	-0.024205	0.953633
O5	O	0.118464	-0.618532	0.453552
O6	O	0.618464	-0.118532	0.953552
O7	O	-0.030540	-0.578962	0.563088
O8	O	0.469460	-0.078962	1.063088
O9	O	0.149785	-0.587215	0.484789
O10	O	0.649785	-0.087215	0.984789
O11	O	0.055379	-0.492888	0.484869
O12	O	0.555379	0.007112	0.984869
O13	O	0.095186	-0.641972	0.594244
O14	O	0.595186	-0.141972	1.094244
Cu15	Cu	0.078143	-0.564571	0.542409
Cu16	Cu	0.578143	-0.064571	1.042409
Cu17	Cu	0.041102	-0.601606	0.505468
Cu18	Cu	0.541102	-0.101606	1.005468
O19	O	0.000781	-0.547645	0.594325
O20	O	0.500781	-0.047645	1.094325
N21	N	0.104196	-0.538525	0.568394
N22	N	0.604196	-0.038525	1.068394
N23	N	0.015054	-0.627656	0.479483
N24	N	0.515054	-0.127656	0.979483
C25	C	0.143783	-0.499167	0.850823
C26	C	0.643783	0.000833	1.350823
C27	C	0.386758	-0.499111	0.607645
C28	C	0.886758	0.000889	1.107645
C29	C	0.143618	-0.499136	0.607763
C30	C	0.643618	0.000864	1.107763
C31	C	0.143598	-0.256029	0.607770
C32	C	0.643598	0.243971	1.107770
C33	C	0.182748	-0.373362	0.646852
C34	C	0.682748	0.126638	1.146852
C35	C	0.182758	-0.460025	0.646847
C36	C	0.682758	0.039975	1.146847
C37	C	0.204440	-0.438361	0.668500
C38	C	0.704440	0.061639	1.168500
C39	C	0.298958	-0.422064	0.618723
C40	C	0.798958	0.077936	1.118723
C41	C	0.358043	-0.441753	0.599006
C42	C	0.858043	0.058247	1.099006
C43	C	0.358069	-0.537354	0.635461
C44	C	0.858069	-0.037354	1.135461
C45	C	0.298985	-0.517664	0.655180
C46	C	0.798985	-0.017664	1.155180
C47	C	0.196983	-0.343808	0.588767
C48	C	0.696983	0.156192	1.088767
C49	C	0.177262	-0.284720	0.569090
C50	C	0.677262	0.215280	1.069090
C51	C	0.129075	-0.284743	0.665586
C52	C	0.629075	0.215257	1.165586
C53	C	0.148797	-0.343831	0.685263
C54	C	0.648797	0.156169	1.185263
C55	C	0.124666	-0.445760	0.661149
C56	C	0.624666	0.054240	1.161149
C57	C	0.104961	-0.465454	0.641458
C58	C	0.604961	0.034546	1.141458
C59	C	0.201435	-0.513678	0.593176
C60	C	0.701435	-0.013678	1.093176
C61	C	0.221143	-0.493984	0.612860
C62	C	0.721143	0.006016	1.112860
C63	C	0.124738	-0.445777	0.763064
C64	C	0.624738	0.054223	1.263064
C65	C	0.105085	-0.465488	0.822151
C66	C	0.605085	0.034512	1.322151
C67	C	0.201594	-0.513722	0.822097
C68	C	0.701594	-0.013722	1.322097
C69	C	0.221247	-0.494012	0.763009
C70	C	0.721247	0.005988	1.263009
C71	C	0.182817	-0.460038	0.733494
C72	C	0.682817	0.039962	1.233494
C73	C	0.269432	-0.460018	0.646809
C74	C	0.769432	0.039982	1.146809
C75	C	0.121399	-0.520450	0.915812
C76	C	0.621399	-0.020450	1.415812
C77	C	0.451745	-0.520012	0.585655
C78	C	0.951745	-0.020012	1.085655
C79	C	0.121177	-0.520429	0.586502
C80	C	0.621177	-0.020429	1.086502
C81	C	0.121544	-0.191035	0.586883
C82	C	0.621544	0.308965	1.086883
C83	C	-0.110592	-0.666601	0.440035
C84	C	0.389408	-0.166601	0.940035
C85	C	-0.023978	-0.666709	0.440231
C86	C	0.476022	-0.166709	0.940231
C87	C	-0.045598	-0.688342	0.418486
C88	C	0.454402	-0.188342	0.918486
C89	C	-0.061967	-0.782825	0.468184
C90	C	0.438033	-0.282825	0.968184
C91	C	-0.042323	-0.841914	0.487907
C92	C	0.457677	-0.341914	0.987907
C93	C	0.053280	-0.842025	0.451623
C94	C	0.553280	-0.342025	0.951623
C95	C	0.033634	-0.782937	0.431899
C96	C	0.533634	-0.282937	0.931899
C97	C	-0.140218	-0.680832	0.498102
C98	C	0.359782	-0.180832	0.998102
C99	C	-0.199302	-0.661065	0.517690
C100	C	0.300698	-0.161065	1.017690
C101	C	-0.199129	-0.612843	0.421140
C102	C	0.300871	-0.112843	0.921140
C103	C	-0.140045	-0.632610	0.401552
C104	C	0.359955	-0.132610	0.901552
C105	C	-0.038209	-0.608622	0.425941
C106	C	0.461791	-0.108622	0.925941
C107	C	-0.018555	-0.588961	0.445716
C108	C	0.481445	-0.088961	0.945716
C109	C	0.029562	-0.685470	0.494059
C110	C	0.529562	-0.185470	0.994059
C111	C	0.009908	-0.705133	0.474291
C112	C	0.509908	-0.205133	0.974291
C113	C	-0.038037	-0.608631	0.323917
C114	C	0.461963	-0.108631	0.823917
C115	C	-0.018247	-0.588973	0.264830
C116	C	0.481753	-0.088973	0.764830
C117	C	0.029955	-0.685489	0.264893
C118	C	0.529955	-0.185489	0.764893
C119	C	0.010165	-0.705145	0.323981
C120	C	0.510165	-0.205145	0.823981
C121	C	-0.023833	-0.666715	0.353492
C122	C	0.476167	-0.166715	0.853492
C123	C	-0.023990	-0.753339	0.440182
C124	C	0.476010	-0.253339	0.940182
N125	N	0.504925	-0.538487	0.568205
N126	N	1.004925	-0.038487	1.068205
O127	O	0.685342	-0.543679	0.433426
O128	O	1.185342	-0.043679	0.933426
O129	O	0.685533	-0.653395	0.582361
O130	O	1.185533	-0.153395	1.082361
O131	O	0.685457	-0.653145	0.487904
O132	O	1.185457	-0.153145	0.987904
O133	O	0.685418	-0.543929	0.527882
O134	O	1.185418	-0.043929	1.027882
O135	O	0.591592	-0.621921	0.519268
O136	O	1.091592	-0.121921	1.019268
O137	O	0.591667	-0.622171	0.613725
O138	O	1.091667	-0.122171	1.113725
O139	O	0.591477	-0.512455	0.464790
O140	O	1.091477	-0.012455	0.964790
Cu141	Cu	0.583001	-0.564462	0.542121
Cu142	Cu	1.083001	-0.064462	1.042121
Cu143	Cu	0.694008	-0.601388	0.505029
Cu144	Cu	1.194008	-0.101388	1.005029
O145	O	0.591553	-0.512705	0.559246
O146	O	1.091553	-0.012705	1.059246
N147	N	0.772084	-0.627363	0.478939
N148	N	1.272084	-0.127363	0.978939
N149	N	0.104168	-0.137853	0.568408
N150	N	0.604168	0.362147	1.068408
O151	O	-0.030538	0.042663	0.563097
O152	O	0.469462	0.542663	1.063097
O153	O	0.118403	0.042683	0.453379
O154	O	0.618403	0.542683	0.953379
O155	O	0.023918	0.042657	0.453664
O156	O	0.523918	0.542657	0.953664
O157	O	0.063947	0.042689	0.562813
O158	O	0.563947	0.542689	1.062813
O159	O	0.055242	-0.051215	0.484950
O160	O	0.555242	0.448785	0.984950
O161	O	0.149727	-0.051189	0.484666
O162	O	0.649727	0.448811	0.984666
O163	O	0.000787	-0.051210	0.594384
O164	O	0.500787	0.448790	1.094384
Cu165	Cu	0.078117	-0.059771	0.542381
Cu166	Cu	0.578117	0.440229	1.042381
Cu167	Cu	0.041072	0.051244	0.505382
Cu168	Cu	0.541072	0.551244	1.005382
O169	O	0.095272	-0.051184	0.594099
O170	O	0.595272	0.448816	1.094099
N171	N	0.015015	0.129326	0.479356
N172	N	0.515015	0.629326	0.979356
N173	N	0.104469	-0.538576	0.968995
N174	N	0.604469	-0.038576	1.468995
O175	O	0.099171	-0.673268	1.149499
O176	O	0.599171	-0.173268	1.649499
O177	O	-0.010519	-0.524279	1.149527
O178	O	0.489481	-0.024279	1.649527
O179	O	-0.010265	-0.618748	1.149494
O180	O	0.489735	-0.118748	1.649494
O181	O	0.098916	-0.578799	1.149533
O182	O	0.598916	-0.078799	1.649533
O183	O	0.021008	-0.587443	1.055625
O184	O	0.521008	-0.087443	1.555625
O185	O	0.020753	-0.492974	1.055659
O186	O	0.520753	0.007026	1.555659
O187	O	0.130444	-0.641963	1.055630
O188	O	0.630444	-0.141963	1.555630
Cu189	Cu	0.078454	-0.564610	1.047074
Cu190	Cu	0.578454	-0.064610	1.547074
Cu191	Cu	0.041470	-0.601632	1.158084
Cu192	Cu	0.541470	-0.101632	1.658084
O193	O	0.130189	-0.547494	1.055664
O194	O	0.630189	-0.047494	1.555664
N195	N	0.015455	-0.627672	1.236163
N196	N	0.515455	-0.127672	1.736163
C197	C	0.035988	-0.489761	0.454182
C198	C	0.535988	0.010239	0.954182
C199	C	0.152897	-0.606574	0.454082
C200	C	0.652897	-0.106574	0.954082
C201	C	0.083257	-0.676417	0.593694
C202	C	0.583257	-0.176417	1.093694
C203	C	-0.033653	-0.559604	0.593794
C204	C	0.466347	-0.059604	1.093794
C205	C	0.638623	-0.652892	0.616806
C206	C	1.138623	-0.152892	1.116806
C207	C	0.638531	-0.652583	0.499833
C208	C	1.138531	-0.152583	0.999833
C209	C	0.638384	-0.512957	0.430345
C210	C	1.138384	-0.012957	0.930345
C211	C	0.638480	-0.513267	0.547317
C212	C	1.138480	-0.013267	1.047317
C213	C	0.152789	-0.004135	0.453875
C214	C	0.652789	0.495865	0.953875
C215	C	0.035820	-0.004282	0.454266
C216	C	0.535820	0.495718	0.954266
C217	C	-0.033639	-0.004275	0.593849
C218	C	0.466361	0.495725	1.093849
C219	C	0.083370	-0.004245	0.593498
C220	C	0.583370	0.495755	1.093498
C221	C	-0.009989	-0.489856	1.102597
C222	C	0.490011	0.010144	1.602597
C223	C	-0.009667	-0.606839	1.102536
C224	C	0.490333	-0.106839	1.602536
C225	C	0.129914	-0.676386	1.102561
C226	C	0.629914	-0.176386	1.602561
C227	C	0.129599	-0.559396	1.102601
C228	C	0.629599	-0.059396	1.602601
H229	H	0.093440	-0.418108	0.739036
H230	H	0.593440	0.081892	1.239036
H231	H	-0.076413	-0.004282	0.628294
H232	H	0.423587	0.495718	1.128294
O233	O	0.191111	-0.255946	0.512676
O234	O	0.691111	0.244054	1.012676
C235	C	0.236556	-0.189241	0.434433
C236	C	0.736556	0.310759	0.934433
C237	C	0.220895	-0.221780	0.498329
C238	C	0.720895	0.278220	0.998329
H239	H	0.260649	-0.161620	0.422812
H240	H	0.760649	0.338380	0.922812
H241	H	0.196462	-0.161542	0.422802
H242	H	0.696462	0.338458	0.922802
H243	H	0.264187	-0.220510	0.410374
H244	H	0.764187	0.279490	0.910374
H245	H	0.193279	-0.190553	0.522432
H246	H	0.693279	0.309447	1.022432
H247	H	0.261012	-0.249488	0.509917
H248	H	0.761012	0.250512	1.009917
H249	H	0.027247	-0.004286	0.419974
H250	H	0.527247	0.495714	0.919974
H251	H	-0.108889	-0.758731	0.474933
H252	H	0.391111	-0.258731	0.974933
H253	H	0.195476	-0.003868	0.419344
H254	H	0.695476	0.496132	0.919344
H255	H	0.638471	-0.478960	0.555871
H256	H	1.138471	0.021040	1.055871
O257	O	0.093547	-0.004315	0.634481
O258	O	0.593547	0.495685	1.134481
C259	C	0.098913	-0.052963	0.728443
C260	C	0.598913	0.447037	1.228443
C261	C	0.087362	-0.052946	0.682081
C262	C	0.587362	0.447054	1.182081
H263	H	0.093929	-0.092284	0.766935
H264	H	0.593929	0.407716	1.266935
H265	H	0.067655	-0.013707	0.740832
H266	H	0.567655	0.486293	1.240832
H267	H	0.143752	-0.052928	0.711865
H268	H	0.643752	0.447072	1.211865
H269	H	0.042540	-0.053002	0.698620
H270	H	0.542540	0.446998	1.198620
H271	H	0.118656	-0.092199	0.669699
H272	H	0.618656	0.407801	1.169699
H273	H	0.638547	-0.686893	0.491276
H274	H	1.138547	-0.186893	0.991276
H275	H	-0.044426	-0.447066	1.102605
H276	H	0.455574	0.052934	1.602605
O277	O	-0.050501	-0.617098	1.102450
O278	O	0.449499	-0.117098	1.602450
C279	C	-0.076298	-0.684134	1.102383
C280	C	0.423702	-0.184134	1.602383
C281	C	-0.030000	-0.672586	1.102468
C282	C	0.470000	-0.172586	1.602468
H283	H	-0.059744	-0.729000	1.102410
H284	H	0.440256	-0.229000	1.602410
H285	H	-0.088608	-0.652907	1.063077
H286	H	0.411392	-0.152907	1.563077
H287	H	-0.114838	-0.679054	1.141645
H288	H	0.385162	-0.179054	1.641645
H289	H	0.008570	-0.677675	1.063233
H290	H	0.508570	-0.177675	1.563233
H291	H	-0.017738	-0.703812	1.141800
H292	H	0.482262	-0.203812	1.641800
O293	O	0.025787	-0.438696	0.413182
O294	O	0.525787	0.061304	0.913182
C295	C	-0.031441	-0.370712	0.353770
C296	C	0.468559	0.129288	0.853770
C297	C	-0.019941	-0.428558	0.400195
C298	C	0.480059	0.071442	0.900195
H299	H	-0.068419	-0.362491	0.343264
H300	H	0.431581	0.137509	0.843264
H301	H	0.007699	-0.370504	0.314348
H302	H	0.507699	0.129496	0.814348
H303	H	-0.042140	-0.336295	0.369360
H304	H	0.457860	0.163705	0.869360
H305	H	-0.009256	-0.463007	0.384659
H306	H	0.490744	0.036993	0.884659
H307	H	-0.059091	-0.428717	0.439607
H308	H	0.440909	0.071283	0.939607
H309	H	0.164353	-0.719173	1.102545
H310	H	0.664353	-0.219173	1.602545
H311	H	0.638671	-0.687334	0.659583
H312	H	1.138671	-0.187334	1.159583
H313	H	0.163899	-0.550848	1.102605
H314	H	0.663899	-0.050848	1.602605
H315	H	0.057789	-0.453866	0.846219
H316	H	0.557789	0.046134	1.346219
H317	H	0.232890	-0.541375	0.846122
H318	H	0.732890	-0.041375	1.346122
H319	H	0.638322	-0.478510	0.387573
H320	H	1.138322	0.021490	0.887573
H321	H	0.268542	-0.505632	0.738936
H322	H	0.768542	-0.005632	1.238936
H323	H	0.093408	-0.418110	0.688821
H324	H	0.593408	0.081890	1.188821
O325	O	0.203953	-0.616539	0.413024
O326	O	0.703953	-0.116539	0.913024
C327	C	0.286859	-0.589188	0.351339
C328	C	0.786859	-0.089188	0.851339
C329	C	0.229045	-0.577833	0.397826
C330	C	0.729045	-0.077833	0.897826
H331	H	0.307168	-0.557909	0.339045
H332	H	0.807168	-0.057909	0.839045
H333	H	0.280970	-0.584066	0.312824
H334	H	0.780970	-0.084066	0.812824
H335	H	0.315261	-0.634030	0.367764
H336	H	0.815261	-0.134030	0.867764
H337	H	0.200613	-0.532994	0.381454
H338	H	0.700613	-0.032994	0.881454
H339	H	0.234978	-0.582992	0.436332
H340	H	0.734978	-0.082992	0.936332
H341	H	0.057658	-0.453826	0.653091
H342	H	0.557658	0.046174	1.153091
H343	H	0.232695	-0.541333	0.565509
H344	H	0.732695	-0.041333	1.065509
H345	H	0.274946	-0.548573	0.678050
H346	H	0.774946	-0.048573	1.178050
O347	O	0.277592	-0.507896	0.598922
O348	O	0.777592	-0.007896	1.098922
C349	C	0.371206	-0.557738	0.548888
C350	C	0.871206	-0.057738	1.048888
C351	C	0.307294	-0.542046	0.564650
C352	C	0.807294	-0.042046	1.064650
H353	H	0.395239	-0.585341	0.521168
H354	H	0.895239	-0.085341	1.021168
H355	H	0.382920	-0.581834	0.588939
H356	H	0.882920	-0.081834	1.088939
H357	H	0.382772	-0.517616	0.524857
H358	H	0.882772	-0.017616	1.024857
H359	H	0.295682	-0.582139	0.588667
H360	H	0.795682	-0.082139	1.088667
H361	H	0.295614	-0.517929	0.524579
H362	H	0.795614	-0.017929	1.024579
H363	H	-0.076451	-0.551170	0.628189
H364	H	0.423549	-0.051170	1.128189
H365	H	0.382132	-0.584293	0.642268
H366	H	0.882132	-0.084293	1.142268
H367	H	0.274901	-0.375125	0.611905
H368	H	0.774901	0.124875	1.111905
O369	O	0.386699	-0.404848	0.571637
O370	O	0.886699	0.095152	1.071637
C371	C	0.404699	-0.322919	0.492017
C372	C	0.904699	0.177081	0.992017
C373	C	0.372221	-0.364683	0.522949
C374	C	0.872221	0.135317	1.022949
H375	H	0.392996	-0.290428	0.452653
H376	H	0.892996	0.209572	0.952653
H377	H	0.452012	-0.346859	0.479316
H378	H	0.952012	0.153141	0.979316
H379	H	0.393104	-0.300528	0.521211
H380	H	0.893104	0.199472	1.021211
H381	H	0.383769	-0.387085	0.493787
H382	H	0.883769	0.112915	0.993787
H383	H	0.324916	-0.340712	0.535659
H384	H	0.824916	0.159288	1.035659
O385	O	0.229877	-0.372472	0.551437
O386	O	0.729877	0.127528	1.051437
C387	C	0.237386	-0.390515	0.474985
C388	C	0.737386	0.109485	0.974985
C389	C	0.200070	-0.358029	0.517241
C390	C	0.700070	0.141971	1.017241
H391	H	0.213305	-0.378841	0.447318
H392	H	0.713305	0.121159	0.947318
H393	H	0.249025	-0.437830	0.498998
H394	H	0.749025	0.062170	0.998998
H395	H	0.277475	-0.378894	0.447328
H396	H	0.777475	0.121106	0.947328
H397	H	0.159957	-0.369603	0.544908
H398	H	0.659957	0.130397	1.044908
H399	H	0.188476	-0.310722	0.493192
H400	H	0.688476	0.189278	0.993192
O401	O	0.096085	-0.256140	0.702972
O402	O	0.596085	0.243860	1.202972
C403	C	0.050416	-0.262396	0.800761
C404	C	0.550416	0.237604	1.300761
C405	C	0.087770	-0.294857	0.758483
C406	C	0.587770	0.205143	1.258483
H407	H	0.043692	-0.293684	0.845650
H408	H	0.543692	0.206316	1.345650
H409	H	0.007875	-0.234756	0.794025
H410	H	0.507875	0.265244	1.294025
H411	H	0.072062	-0.234709	0.793902
H412	H	0.572062	0.265291	1.293902
H413	H	0.066174	-0.322574	0.765317
H414	H	0.566174	0.177426	1.265317
H415	H	0.130309	-0.322461	0.765230
H416	H	0.630309	0.177539	1.265230
O417	O	-0.032129	-0.532528	0.236194
O418	O	0.467871	-0.032528	0.736194
C419	C	-0.082011	-0.438875	0.242374
C420	C	0.417989	0.061125	0.742374
C421	C	-0.066343	-0.502782	0.274875
C422	C	0.433657	-0.002782	0.774875
H423	H	-0.109666	-0.414806	0.273633
H424	H	0.390334	0.085194	0.773633
H425	H	-0.106040	-0.427193	0.214654
H426	H	0.393960	0.072807	0.714654
H427	H	-0.041885	-0.427315	0.214765
H428	H	0.458115	0.072685	0.714765
H429	H	-0.106440	-0.514387	0.302514
H430	H	0.393560	-0.014387	0.802514
H431	H	-0.042292	-0.514430	0.302559
H432	H	0.457708	-0.014430	0.802559
O433	O	-0.071198	-0.571348	0.392923
O434	O	0.428802	-0.071348	0.892923
C435	C	-0.161088	-0.537462	0.382229
C436	C	0.338912	-0.037462	0.882229
C437	C	-0.123781	-0.579716	0.419669
C438	C	0.376219	-0.079716	0.919669
H439	H	-0.203613	-0.544204	0.403843
H440	H	0.296387	-0.044204	0.903843
H441	H	-0.139427	-0.544291	0.339733
H442	H	0.360573	-0.044291	0.839733
H443	H	-0.167855	-0.492576	0.375408
H444	H	0.332145	0.007424	0.875408
H445	H	-0.117002	-0.624619	0.426534
H446	H	0.382998	-0.124619	0.926534
H447	H	-0.145460	-0.572837	0.462141
H448	H	0.354540	-0.072837	0.962141
O449	O	0.062985	-0.722897	0.236319
O450	O	0.562985	-0.222897	0.736319
C451	C	0.108665	-0.820704	0.242626
C452	C	0.608665	-0.320704	0.742626
C453	C	0.071263	-0.778399	0.275056
C454	C	0.571263	-0.278399	0.775056
H455	H	0.115360	-0.865587	0.273931
H456	H	0.615360	-0.365587	0.773931
H457	H	0.151215	-0.814001	0.215053
H458	H	0.651215	-0.314001	0.715053
H459	H	0.087073	-0.813839	0.214877
H460	H	0.587073	-0.313839	0.714877
H461	H	0.092805	-0.785239	0.302835
H462	H	0.592805	-0.285239	0.802835
H463	H	0.028715	-0.785113	0.302593
H464	H	0.528715	-0.285113	0.802593
H465	H	0.137197	-0.367895	0.732563
H466	H	0.637197	0.132105	1.232563
H467	H	-0.065723	-0.577332	0.347941
H468	H	0.434277	-0.077332	0.847941
H469	H	-0.030145	-0.541661	0.434082
H470	H	0.469855	-0.041661	0.934082
O471	O	0.062538	-0.722852	0.527074
O472	O	0.562538	-0.222852	1.027074
C473	C	0.149447	-0.799353	0.534773
C474	C	0.649447	-0.299353	1.034773
C475	C	0.112152	-0.757057	0.497327
C476	C	0.612152	-0.257057	0.997327
H477	H	0.189574	-0.827011	0.510734
H478	H	0.689574	-0.327011	1.010734
H479	H	0.125372	-0.827016	0.574830
H480	H	0.625372	-0.327016	1.074830
H481	H	0.161023	-0.775313	0.546468
H482	H	0.661023	-0.275313	1.046468
H483	H	0.100567	-0.781050	0.485590
H484	H	0.600567	-0.281050	0.985590
H485	H	0.136249	-0.729394	0.457298
H486	H	0.636249	-0.229394	0.957298
O487	O	0.023707	-0.761569	0.488248
O488	O	0.523707	-0.261569	0.988248
C489	C	0.019044	-0.850040	0.563128
C490	C	0.519044	-0.350040	1.063128
C491	C	0.003390	-0.786140	0.547416
C492	C	0.503390	-0.286140	1.047416
H493	H	0.002614	-0.869923	0.610965
H494	H	0.502614	-0.369923	1.110965
H495	H	0.066885	-0.870043	0.546939
H496	H	0.566885	-0.370043	1.046939
H497	H	-0.000813	-0.857455	0.543104
H498	H	0.499187	-0.357455	1.043104
H499	H	0.023209	-0.778675	0.567435
H500	H	0.523209	-0.278675	1.067435
H501	H	-0.044456	-0.766170	0.563594
H502	H	0.455544	-0.266170	1.063594
H503	H	0.021738	-0.752445	0.348058
H504	H	0.521738	-0.252445	0.848058
O505	O	0.093311	-0.727467	0.634748
O506	O	0.593311	-0.227467	1.134748
C507	C	0.056283	-0.785513	0.729867
C508	C	0.556283	-0.285513	1.229867
C509	C	0.044826	-0.727670	0.683428
C510	C	0.544826	-0.227670	1.183428
H511	H	0.017087	-0.785700	0.769232
H512	H	0.517087	-0.285700	1.269232
H513	H	0.093200	-0.793747	0.740475
H514	H	0.593200	-0.293747	1.240475
H515	H	0.067035	-0.819933	0.714253
H516	H	0.567035	-0.319933	1.214253
H517	H	0.034049	-0.693213	0.699003
H518	H	0.534049	-0.193213	1.199003
H519	H	0.007924	-0.719485	0.672828
H520	H	0.507924	-0.219485	1.172828
H521	H	0.100203	-0.866125	0.444882
H522	H	0.600203	-0.366125	0.944882
O523	O	0.070600	-0.754381	0.404731
O524	O	0.570600	-0.254381	0.904731
C525	C	0.167504	-0.760730	0.370795
C526	C	0.667504	-0.260730	0.870795
C527	C	0.125700	-0.793139	0.401585
C528	C	0.625700	-0.293139	0.901585
H529	H	0.212062	-0.792052	0.368232
H530	H	0.712062	-0.292052	0.868232
H531	H	0.155658	-0.733076	0.394963
H532	H	0.655658	-0.233076	0.894963
H533	H	0.165740	-0.733062	0.326356
H534	H	0.665740	-0.233062	0.826356
H535	H	0.127442	-0.820837	0.446025
H536	H	0.627442	-0.320837	0.946025
H537	H	0.137559	-0.820758	0.377374
H538	H	0.637559	-0.320758	0.877374
H539	H	-0.073247	-0.865920	0.510699
H540	H	0.426753	-0.365920	1.010699
H541	H	-0.223425	-0.672650	0.564976
H542	H	0.276575	-0.172650	1.064976
O543	O	-0.111666	-0.713906	0.535535
O544	O	0.388334	-0.213906	1.035535
C545	C	-0.093717	-0.800872	0.612023
C546	C	0.406283	-0.300872	1.112023
C547	C	-0.126096	-0.763464	0.569668
C548	C	0.373904	-0.263464	1.069668
H549	H	-0.105362	-0.840954	0.639622
H550	H	0.394638	-0.340954	1.139622
H551	H	-0.105379	-0.776846	0.639735
H552	H	0.394621	-0.276846	1.139735
H553	H	-0.046402	-0.812526	0.588035
H554	H	0.453598	-0.312526	1.088035
H555	H	-0.173418	-0.751800	0.593610
H556	H	0.326582	-0.251800	1.093610
H557	H	-0.114387	-0.787512	0.541957
H558	H	0.385613	-0.287512	1.041957
O559	O	-0.227657	-0.579815	0.383683
O560	O	0.272343	-0.079815	0.883683
C561	C	-0.221253	-0.534117	0.285850
C562	C	0.278747	-0.034117	0.785850
C563	C	-0.188877	-0.571515	0.328207
C564	C	0.311123	-0.071515	0.828207
H565	H	-0.189914	-0.527405	0.240989
H566	H	0.310086	-0.027405	0.740989
H567	H	-0.248885	-0.491571	0.292575
H568	H	0.251115	0.008429	0.792575
H569	H	-0.248935	-0.555726	0.292634
H570	H	0.251065	-0.055726	0.792634
H571	H	-0.161164	-0.549956	0.321449
H572	H	0.338836	-0.049956	0.821449
H573	H	-0.161280	-0.614060	0.321472
H574	H	0.338720	-0.114060	0.821472
H575	H	-0.115923	-0.621016	0.354266
H576	H	0.384077	-0.121016	0.854266
