data_functionalizedCrystal
_audit_creation_method	'MofGen! by Chris Wilmer'
_symmetry_space_group_name_H-M	'P1'
_symmetry_Int_Tables_number	1
_symmetry_cell_setting	triclinic
loop_
_symmetry_equiv_pos_as_xyz
  x,y,z
_cell_length_a	9.065215
_cell_length_b	17.699092
_cell_length_c	8.140239
_cell_angle_alpha	90.003630
_cell_angle_beta	89.999849
_cell_angle_gamma	84.150533
loop_
_atom_site_label
_atom_site_type_symbol
_atom_site_fract_x
_atom_site_fract_y
_atom_site_fract_z
O1	O	1.957113	0.110964	0.136587
O2	O	1.527558	0.120069	0.136594
O3	O	1.754465	0.005422	0.136587
O4	O	1.730206	0.225611	0.136595
O5	O	1.754464	0.005416	-0.136640
O6	O	1.527557	0.120063	-0.136633
O7	O	1.957111	0.110958	-0.136640
Zn8	Zn	1.742334	0.115510	-0.180017
Zn9	Zn	1.742336	0.115518	0.179972
O10	O	1.730204	0.225605	-0.136632
C11	C	1.472597	0.119192	-0.000018
C12	C	1.308831	0.116577	-0.000015
C13	C	1.753593	-0.022784	-0.000024
C14	C	1.750979	-0.106822	-0.000016
C15	C	1.749755	-0.146296	0.148922
C16	C	1.747290	-0.225258	0.148924
C17	C	1.746059	-0.264746	-0.000014
C18	C	1.747278	-0.225266	-0.148964
C19	C	1.749733	-0.146305	-0.148964
C20	C	1.737376	-0.543709	-0.148966
C21	C	1.734925	-0.622676	-0.148954
C22	C	1.734932	-0.622662	0.148922
C23	C	1.737387	-0.543701	0.148921
C24	C	1.738599	-0.504227	-0.000027
C25	C	1.741269	-0.418608	-0.000027
C26	C	1.743398	-0.350365	-0.000016
C27	C	2.012073	0.111836	-0.000023
C28	C	2.175839	0.114451	-0.000015
C29	C	1.731076	0.253812	-0.000018
C30	C	1.733690	0.337850	-0.000014
N31	N	1.742338	0.115517	0.425654
N32	N	1.742343	0.115504	-0.425699
H33	H	1.750766	-0.114151	0.270204
H34	H	1.733918	-0.654824	-0.270244
H35	H	1.733938	-0.654810	0.270203
H36	H	1.738392	-0.511581	-0.270249
C37	C	1.743539	-0.346315	-0.281233
C38	C	1.745938	-0.268670	-0.312681
H39	H	1.742727	-0.373109	-0.382310
H40	H	1.657145	-0.354071	-0.220054
H41	H	1.829137	-0.364424	-0.220028
H42	H	1.660334	-0.250560	-0.373876
H43	H	1.832341	-0.260909	-0.373886
C44	C	1.619867	-0.241910	0.402905
C45	C	1.746006	-0.268637	0.312660
H46	H	1.619098	-0.268684	0.504002
H47	H	1.533463	-0.249691	0.341766
H48	H	1.621511	-0.189228	0.424172
H49	H	1.744357	-0.321317	0.291382
H50	H	1.832433	-0.260862	0.373812
C51	C	1.737129	-0.551619	0.443370
C52	C	1.738733	-0.500296	0.312638
H53	H	1.737946	-0.524821	0.544442
H54	H	1.822164	-0.587595	0.437182
H55	H	1.650172	-0.577238	0.437161
H56	H	1.825696	-0.474681	0.318841
H57	H	1.653690	-0.464306	0.318830
C58	C	1.749461	-0.154244	-0.443411
C59	C	1.751063	-0.102912	-0.312681
H60	H	1.750279	-0.127453	-0.544484
H61	H	1.662521	-0.179863	-0.437197
H62	H	1.834513	-0.190220	-0.437223
H63	H	1.666004	-0.066938	-0.318862
H64	H	1.838011	-0.077279	-0.318899
