data_functionalizedCrystal
_audit_creation_method	'MofGen! by Chris Wilmer'
_symmetry_space_group_name_H-M	'P1'
_symmetry_Int_Tables_number	1
_symmetry_cell_setting	triclinic
loop_
_symmetry_equiv_pos_as_xyz
  x,y,z
_cell_length_a	16.625548
_cell_length_b	16.625546
_cell_length_c	19.805398
_cell_angle_alpha	89.973797
_cell_angle_beta	89.985099
_cell_angle_gamma	90.023536
loop_
_atom_site_label
_atom_site_type_symbol
_atom_site_fract_x
_atom_site_fract_y
_atom_site_fract_z
Zn1	Zn	1.232635	-0.321011	-0.382701
Zn2	Zn	1.232552	-0.455844	-0.269512
Zn3	Zn	1.097811	-0.321031	-0.269527
Zn4	Zn	1.097768	-0.455807	-0.382661
O5	O	1.165191	-0.388423	-0.326100
O6	O	1.345457	-0.338903	-0.367697
O7	O	1.214661	-0.437985	-0.174798
O8	O	1.115748	-0.208196	-0.284563
O9	O	1.345395	-0.437964	-0.284537
O10	O	1.214803	-0.208181	-0.367711
O11	O	1.115667	-0.338939	-0.174809
O12	O	0.984972	-0.338903	-0.284524
O13	O	1.115675	-0.437902	-0.477383
O14	O	0.984941	-0.437923	-0.367643
O15	O	1.214762	-0.338868	-0.477412
O16	O	1.214620	-0.568671	-0.284498
O17	O	1.115594	-0.568645	-0.367628
C18	C	1.165115	-0.597914	-0.326072
C19	C	1.165156	-0.687535	-0.326082
C20	C	0.955700	-0.388412	-0.326081
C21	C	0.866079	-0.388426	-0.326089
C22	C	1.165297	-1.015711	-0.326153
C23	C	1.165255	-0.924402	-0.326135
C24	C	1.165226	-0.851626	-0.326117
C25	C	1.165185	-0.760312	-0.326100
C26	C	0.537904	-0.388432	-0.326118
C27	C	0.629212	-0.388428	-0.326108
C28	C	0.701989	-0.388429	-0.326103
C29	C	0.793303	-0.388425	-0.326094
C30	C	1.375500	-0.388435	-0.326120
C31	C	1.465121	-0.388441	-0.326128
C32	C	1.165223	-0.388379	-0.502643
C33	C	1.165236	-0.388360	-0.577875
C34	C	1.165290	-0.178114	-0.326144
C35	C	1.165332	-0.088493	-0.326162
C36	C	1.216928	-0.336650	-1.039683
C37	C	1.216915	-0.336674	-0.968994
C38	C	1.165319	-0.388247	-0.933637
C39	C	1.113738	-0.439805	-0.968972
C40	C	1.113755	-0.439784	-1.039659
C41	C	1.113668	-0.439893	-0.683898
C42	C	1.113653	-0.439908	-0.613206
C43	C	1.216828	-0.336783	-0.613234
C44	C	1.216845	-0.336762	-0.683921
C45	C	1.165267	-0.388322	-0.719250
C46	C	1.165283	-0.388296	-0.795898
C47	C	1.165299	-0.388270	-0.856990
C48	C	1.165206	-0.388410	-0.150244
C49	C	1.165349	-0.388202	-0.075013
H50	H	1.258918	-0.294698	-0.940232
C51	C	1.325406	-0.325425	-1.119188
C52	C	1.273643	-0.279957	-1.078547
H53	H	1.360417	-0.290424	-1.143182
H54	H	1.356224	-0.360557	-1.091608
H55	H	1.294680	-0.356120	-1.150344
H56	H	1.304369	-0.249266	-1.047387
H57	H	1.242822	-0.244811	-1.106129
H58	H	1.258857	-0.294763	-0.712705
H59	H	1.258828	-0.294802	-0.584461
H60	H	1.071631	-0.481905	-0.584420
H61	H	1.071669	-0.481875	-0.712655
C62	C	1.067891	-0.485624	-0.860603
C63	C	1.057020	-0.496494	-0.930109
H64	H	1.032869	-0.520618	-0.836613
H65	H	1.122051	-0.497433	-0.849021
H66	H	1.056112	-0.431448	-0.849036
H67	H	1.068804	-0.550669	-0.941676
H68	H	1.002848	-0.484691	-0.941695
H69	H	1.071755	-0.481764	-1.068424
