data_functionalizedCrystal
_audit_creation_method	'MofGen! by Chris Wilmer'
_symmetry_space_group_name_H-M	'P1'
_symmetry_Int_Tables_number	1
_symmetry_cell_setting	triclinic
loop_
_symmetry_equiv_pos_as_xyz
  x,y,z
_cell_length_a	19.077236
_cell_length_b	15.297327
_cell_length_c	19.076919
_cell_angle_alpha	78.489658
_cell_angle_beta	90.112677
_cell_angle_gamma	102.353600
loop_
_atom_site_label
_atom_site_type_symbol
_atom_site_fract_x
_atom_site_fract_y
_atom_site_fract_z
Zn1	Zn	1.011717	-0.332096	0.483479
Zn2	Zn	0.995795	-0.478709	0.384927
Zn3	Zn	0.899000	-0.331616	0.361197
Zn4	Zn	0.871903	-0.490914	0.499244
O5	O	0.944604	-0.408334	0.432212
O6	O	1.108627	-0.346637	0.473739
O7	O	0.987632	-0.453888	0.282762
O8	O	0.931955	-0.203656	0.360888
O9	O	1.096929	-0.454353	0.401334
O10	O	1.014768	-0.204008	0.450728
O11	O	0.916517	-0.345820	0.265327
O12	O	0.796383	-0.357655	0.376175
O13	O	0.885772	-0.475155	0.596170
O14	O	0.776475	-0.474690	0.477598
O15	O	0.988493	-0.358472	0.584587
O16	O	0.961357	-0.608352	0.416621
O17	O	0.870334	-0.617319	0.500609
C18	C	0.760754	-0.417445	0.426023
C19	C	0.682098	-0.421366	0.423394
C20	C	0.651220	-0.367223	0.459938
C21	C	0.577316	-0.370903	0.457462
C22	C	0.534290	-0.428730	0.418446
C23	C	0.565173	-0.482876	0.381898
C24	C	0.639077	-0.479191	0.384370
C25	C	0.312610	-0.445750	0.406997
C26	C	0.238701	-0.449433	0.404529
C27	C	0.250849	-0.337458	0.480093
C28	C	0.324753	-0.333782	0.482565
C29	C	0.355630	-0.387924	0.446014
N30	N	0.458747	-0.432495	0.415916
N31	N	0.431173	-0.384154	0.448540
C32	C	0.911196	-0.646031	0.462917
C33	C	0.896968	-0.747717	0.476078
C34	C	1.046575	-1.015551	0.338395
C35	C	1.059943	-0.920012	0.326025
C36	C	1.019201	-0.876933	0.363537
C37	C	0.965088	-0.929403	0.413421
C38	C	0.951715	-1.024952	0.425788
C39	C	0.924340	-0.886334	0.450931
C40	C	0.870227	-0.938804	0.500815
C41	C	0.856857	-1.034343	0.513179
C42	C	0.897599	-1.077421	0.475667
C43	C	0.937713	-0.790786	0.438564
C44	C	0.842852	-0.800186	0.525957
C45	C	0.829484	-0.895725	0.538327
C46	C	1.129171	-0.399187	0.438425
C47	C	1.207823	-0.395289	0.441073
C48	C	0.935886	-0.418229	0.616770
C49	C	0.932171	-0.422445	0.695418
C50	C	0.978160	-0.169708	0.401403
C51	C	0.992460	-0.068021	0.388274
C52	C	0.953337	-0.398409	0.248364
C53	C	0.957225	-0.393928	0.169688
C54	C	0.983905	-0.363678	0.726338
C55	C	0.980406	-0.367637	0.800235
C56	C	0.925177	-0.430368	0.843212
C57	C	0.873438	-0.489137	0.812287
C58	C	0.876935	-0.485173	0.738390
C59	C	0.908983	-0.448733	1.064866
C60	C	0.905492	-0.452695	1.138768
C61	C	1.012459	-0.331193	1.126711
C62	C	1.015953	-0.327239	1.052814
C63	C	0.964213	-0.386004	1.021894
N64	N	0.921601	-0.434418	0.918747
N65	N	0.967786	-0.381949	0.946360
H66	H	0.203670	-0.496527	0.372758
H67	H	0.981772	-0.748073	0.397948
N68	N	0.672386	-0.537590	0.344959
H69	H	0.709819	-0.497057	0.308430
H70	H	0.633872	-0.574777	0.319912
N71	N	1.036212	-0.304262	0.833584
H72	H	1.025617	-0.316287	0.886918
H73	H	1.035004	-0.238774	0.811860
N74	N	0.813855	-0.556778	0.858634
H75	H	0.819487	-0.550370	0.910139
H76	H	0.816277	-0.620885	0.854529
N77	N	1.068256	-0.267799	1.160053
H78	H	1.117426	-0.278809	1.150732
H79	H	1.057601	-0.279852	1.213376
H80	H	0.886719	-1.155217	0.485738
N81	N	0.518772	-0.545239	0.339807
H82	H	0.467268	-0.539359	0.343785
H83	H	0.521995	-0.610542	0.359608
H84	H	0.812786	-1.077062	0.553790
N85	N	1.075524	-0.259582	1.006462
H86	H	1.107767	-0.222953	1.037263
H87	H	1.054126	-0.217027	0.969362
N88	N	1.033616	-0.773888	0.350198
H89	H	1.074078	-0.747185	0.312906
H90	H	1.047488	-0.752871	0.396233
N91	N	0.853161	-0.512085	1.031518
H92	H	0.817640	-0.552417	1.069957
H93	H	0.877433	-0.551364	1.007280
H94	H	0.860515	-0.503780	1.173758
H95	H	0.834802	-0.533019	0.713216
N96	N	0.798900	-0.753736	0.566418
H97	H	0.815583	-0.685249	0.551016
H98	H	0.805151	-0.772564	0.619488
N99	N	1.043478	-0.296024	0.679988
H100	H	1.075719	-0.259396	0.710791
H101	H	1.022080	-0.253468	0.642889
N102	N	0.771116	-0.952317	0.592125
H103	H	0.792757	-0.992245	0.631029
H104	H	0.734171	-0.992034	0.567320
N105	N	0.697623	-0.304859	0.502027
H106	H	0.694464	-0.239525	0.482246
H107	H	0.749103	-0.310823	0.498037
N108	N	0.544014	-0.312487	0.496861
H109	H	0.582485	-0.275293	0.521951
H110	H	0.506565	-0.353059	0.533353
N111	N	0.371158	-0.271414	0.524650
H112	H	0.340382	-0.237672	0.547425
H113	H	0.409130	-0.225949	0.491451
H114	H	0.337740	-0.489837	0.377235
H115	H	0.225701	-0.293378	0.509850
H116	H	1.104001	-0.877294	0.285410
H117	H	1.079738	-1.050634	0.307853
