data_functionalizedCrystal
_audit_creation_method	'MofGen! by Chris Wilmer'
_symmetry_space_group_name_H-M	'P1'
_symmetry_Int_Tables_number	1
_symmetry_cell_setting	triclinic
loop_
_symmetry_equiv_pos_as_xyz
  x,y,z
_cell_length_a	18.215405
_cell_length_b	21.295419
_cell_length_c	18.215399
_cell_angle_alpha	90.017422
_cell_angle_beta	89.970050
_cell_angle_gamma	89.960709
loop_
_atom_site_label
_atom_site_type_symbol
_atom_site_fract_x
_atom_site_fract_y
_atom_site_fract_z
Zn1	Zn	-0.292649	-0.962341	-0.416130
Zn2	Zn	0.040684	-0.629007	-0.082797
Zn3	Zn	0.374018	-0.295674	0.250537
Zn4	Zn	-0.415726	-0.962272	-0.293064
Zn5	Zn	-0.082392	-0.628939	0.040269
Zn6	Zn	0.250941	-0.295605	0.373602
Zn7	Zn	-0.292713	-0.857078	-0.293076
Zn8	Zn	0.040620	-0.523745	0.040257
Zn9	Zn	0.373954	-0.190412	0.373591
Zn10	Zn	-0.415714	-0.857048	-0.416088
Zn11	Zn	-0.082381	-0.523714	-0.082755
Zn12	Zn	0.250953	-0.190381	0.250579
O13	O	-0.354200	-0.909685	-0.354590
O14	O	-0.020867	-0.576351	-0.021256
O15	O	0.312466	-0.243018	0.312077
O16	O	-0.308954	-1.050421	-0.399818
O17	O	0.024380	-0.717088	-0.066484
O18	O	0.357713	-0.383754	0.266849
O19	O	-0.399439	-0.948302	-0.190082
O20	O	-0.066106	-0.614968	0.143252
O21	O	0.267227	-0.281635	0.476585
O22	O	-0.189720	-0.871083	-0.309422
O23	O	0.143613	-0.537750	0.023912
O24	O	0.476946	-0.204417	0.357245
O25	O	-0.399377	-1.050370	-0.309402
O26	O	-0.066044	-0.717037	0.023931
O27	O	0.267289	-0.383704	0.357265
O28	O	-0.189673	-0.948419	-0.399829
O29	O	0.143660	-0.615086	-0.066495
O30	O	0.476993	-0.281752	0.266838
O31	O	-0.309062	-0.871017	-0.190090
O32	O	0.024271	-0.537683	0.143243
O33	O	0.357604	-0.204350	0.476577
O34	O	-0.309051	-0.768985	-0.309381
O35	O	0.024282	-0.435652	0.023952
O36	O	0.357615	-0.102318	0.357286
O37	O	-0.399358	-0.871031	-0.519078
O38	O	-0.066024	-0.537698	-0.185745
O39	O	0.267309	-0.204364	0.147589
O40	O	-0.399420	-0.768962	-0.399758
O41	O	-0.066086	-0.435629	-0.066424
O42	O	0.267247	-0.102296	0.266909
O43	O	-0.308942	-0.948389	-0.519109
O44	O	0.024391	-0.615056	-0.185775
O45	O	0.357724	-0.281723	0.147558
O46	O	-0.518708	-0.948272	-0.309362
O47	O	-0.185375	-0.614939	0.023972
O48	O	0.147958	-0.281605	0.357305
O49	O	-0.518700	-0.870964	-0.399746
O50	O	-0.185367	-0.537631	-0.066413
O51	O	0.147967	-0.204297	0.266920
C52	C	-0.354242	-0.746133	-0.354566
C53	C	-0.020908	-0.412800	-0.021233
C54	C	0.312425	-0.079466	0.312100
C55	C	-0.354277	-0.676165	-0.354574
C56	C	-0.020944	-0.342832	-0.021241
C57	C	0.312390	-0.009498	0.312093
C58	C	-0.545407	-0.909624	-0.354564
C59	C	-0.212073	-0.576291	-0.021231
C60	C	0.121260	-0.242958	0.312102
C61	C	-0.627206	-0.909656	-0.354578
C62	C	-0.293872	-0.576323	-0.021245
C63	C	0.039461	-0.242989	0.312089
C64	C	-0.307271	-0.643347	-0.401726
C65	C	0.026062	-0.310014	-0.068392
C66	C	0.359395	0.023320	0.264941
C67	C	-0.307254	-0.577605	-0.401728
C68	C	0.026079	-0.244271	-0.068394
C69	C	0.359413	0.089062	0.264939
C70	C	-0.354255	-0.544682	-0.354585
C71	C	-0.020922	-0.211349	-0.021252
C72	C	0.312411	0.121984	0.312081
C73	C	-0.401264	-0.577508	-0.307425
C74	C	-0.067931	-0.244175	0.025909
C75	C	0.265403	0.089158	0.359242
C76	C	-0.401275	-0.643249	-0.307419
C77	C	-0.067942	-0.309916	0.025914
C78	C	0.265392	0.023417	0.359248
N79	N	-0.418651	-0.441415	-0.348837
N80	N	-0.085317	-0.108082	-0.015504
N81	N	0.248016	0.225252	0.317829
N82	N	-0.418638	-0.378964	-0.348847
N83	N	-0.085305	-0.045630	-0.015514
N84	N	0.248029	0.287703	0.317820
C85	C	-0.354224	-0.346608	-0.354599
C86	C	-0.020891	-0.013274	-0.021265
C87	C	0.312442	0.320059	0.312068
N88	N	-0.289822	-0.379062	-0.360354
N89	N	0.043511	-0.045729	-0.027021
N90	N	0.376845	0.287604	0.306312
N91	N	-0.289835	-0.441520	-0.360349
N92	N	0.043498	-0.108186	-0.027015
N93	N	0.376831	0.225147	0.306318
C94	C	-0.354248	-0.473397	-0.354586
C95	C	-0.020915	-0.140064	-0.021253
C96	C	0.312418	0.193270	0.312081
C97	C	-0.307196	-0.242504	-0.401755
C98	C	0.026137	0.090829	-0.068421
C99	C	0.359471	0.424162	0.264912
C100	C	-0.307177	-0.176761	-0.401752
C101	C	0.026156	0.156573	-0.068418
C102	C	0.359489	0.489906	0.264915
C103	C	-0.401194	-0.176665	-0.307452
C104	C	-0.067861	0.156668	0.025881
C105	C	0.265473	0.490001	0.359214
C106	C	-0.401206	-0.242408	-0.307452
C107	C	-0.067873	0.090925	0.025881
C108	C	0.265461	0.424259	0.359215
C109	C	-0.354208	-0.275323	-0.354607
C110	C	-0.020875	0.058010	-0.021274
C111	C	0.312459	0.391343	0.312060
C112	C	-0.815314	-0.949944	-0.401717
C113	C	-0.481981	-0.616611	-0.068383
C114	C	-0.148647	-0.283277	0.264950
C115	C	-0.892173	-0.949967	-0.401731
C116	C	-0.558839	-0.616634	-0.068397
C117	C	-0.225506	-0.283300	0.264936
C118	C	-0.892335	-0.869503	-0.307508
C119	C	-0.559001	-0.536170	0.025825
C120	C	-0.225668	-0.202836	0.359159
C121	C	-0.815477	-0.869478	-0.307498
C122	C	-0.482144	-0.536144	0.025835
C123	C	-0.148811	-0.202811	0.359168
C124	C	-0.776969	-0.909702	-0.354602
C125	C	-0.443636	-0.576368	-0.021268
C126	C	-0.110302	-0.243035	0.312065
C127	C	-0.930685	-0.909750	-0.354625
C128	C	-0.597352	-0.576417	-0.021292
C129	C	-0.264018	-0.243083	0.312042
C130	C	-1.014019	-0.909774	-0.354640
C131	C	-0.680685	-0.576441	-0.021306
C132	C	-0.347352	-0.243108	0.312027
C133	C	-0.693630	-0.909676	-0.354588
C134	C	-0.360297	-0.576343	-0.021255
C135	C	-0.026963	-0.243010	0.312078
C136	C	-0.162247	-0.909762	-0.354631
C137	C	0.171086	-0.576429	-0.021298
C138	C	0.504419	-0.243096	0.312036
C139	C	-0.080449	-0.909795	-0.354649
C140	C	0.252885	-0.576462	-0.021316
C141	C	0.586218	-0.243129	0.312018
C142	C	-0.354142	-0.909714	-0.546543
C143	C	-0.020808	-0.576381	-0.213209
C144	C	0.312525	-0.243048	0.120124
C145	C	-0.354117	-0.909727	-0.628342
C146	C	-0.020783	-0.576394	-0.295008
C147	C	0.312550	-0.243060	0.038325
C148	C	-0.354169	-0.073875	-0.354609
C149	C	-0.020835	0.259458	-0.021276
C150	C	0.312498	0.592792	0.312057
C151	C	-0.354178	-0.143843	-0.354608
C152	C	-0.020845	0.189490	-0.021275
C153	C	0.312489	0.522824	0.312059
C154	C	-0.307026	-0.869519	-0.816541
C155	C	0.026308	-0.536185	-0.483208
C156	C	0.359641	-0.202852	-0.149874
C157	C	-0.307011	-0.869530	-0.893400
C158	C	0.026323	-0.536196	-0.560066
C159	C	0.359656	-0.202863	-0.226733
C160	C	-0.401120	-0.950011	-0.893380
C161	C	-0.067786	-0.616677	-0.560047
C162	C	0.265547	-0.283344	-0.226713
C163	C	-0.401138	-0.949996	-0.816523
C164	C	-0.067804	-0.616663	-0.483189
C165	C	0.265529	-0.283329	-0.149856
C166	C	-0.354087	-0.909751	-0.778105
C167	C	-0.020753	-0.576418	-0.444772
C168	C	0.312580	-0.243084	-0.111438
C169	C	-0.354054	-0.909777	-0.931821
C170	C	-0.020720	-0.576443	-0.598488
C171	C	0.312613	-0.243110	-0.265155
C172	C	-0.354038	-0.909789	-1.015155
C173	C	-0.020705	-0.576455	-0.681822
C174	C	0.312629	-0.243122	-0.348488
C175	C	-0.354103	-0.909738	-0.694766
C176	C	-0.020770	-0.576405	-0.361433
C177	C	0.312564	-0.243071	-0.028099
C178	C	-0.354206	-0.909691	-0.163383
C179	C	-0.020873	-0.576358	0.169950
C180	C	0.312461	-0.243025	0.503283
C181	C	-0.354024	-0.909801	-0.081585
C182	C	-0.020690	-0.576467	0.251748
C183	C	0.312643	-0.243134	0.585082
H184	H	-0.268973	-0.550879	-0.440123
H185	H	0.064360	-0.217546	-0.106790
H186	H	0.397694	0.115788	0.226544
N187	N	-0.258933	-0.828446	-0.932672
N188	N	0.074400	-0.495113	-0.599338
N189	N	0.407734	-0.161779	-0.266005
N190	N	-0.258920	-0.828464	-1.001294
N191	N	0.074413	-0.495130	-0.667960
N192	N	0.407746	-0.161797	-0.334627
H193	H	-0.224963	-0.799448	-1.029031
H194	H	0.108371	-0.466115	-0.695698
H195	H	0.441704	-0.132781	-0.362364
N196	N	-0.449175	-0.991113	-0.932636
N197	N	-0.115842	-0.657780	-0.599302
N198	N	0.217492	-0.324447	-0.265969
N199	N	-0.449153	-0.991122	-1.001258
N200	N	-0.115820	-0.657788	-0.667924
N201	N	0.217513	-0.324455	-0.334591
H202	H	-0.483093	-1.020152	-1.028982
H203	H	-0.149759	-0.686819	-0.695649
H204	H	0.183574	-0.353485	-0.362315
N205	N	-0.775990	-0.991035	-0.449833
N206	N	-0.442656	-0.657701	-0.116500
N207	N	-0.109323	-0.324368	0.216833
N208	N	-0.810239	-1.026962	-0.491897
N209	N	-0.476906	-0.693629	-0.158563
N210	N	-0.143573	-0.360295	0.174770
H211	H	-0.782469	-1.055983	-0.525882
H212	H	-0.449135	-0.722650	-0.192549
H213	H	-0.115802	-0.389317	0.140785
H214	H	-0.268895	-0.150041	-0.440147
H215	H	0.064438	0.183292	-0.106814
H216	H	0.397771	0.516625	0.226520
H217	H	-0.439463	-0.982760	-0.785228
H218	H	-0.106130	-0.649426	-0.451894
H219	H	0.227203	-0.316093	-0.118561
H220	H	-0.268714	-0.836748	-0.785263
H221	H	0.064620	-0.503415	-0.451930
H222	H	0.397953	-0.170082	-0.118597
H223	H	-0.439532	-0.550699	-0.269041
H224	H	-0.106199	-0.217365	0.064293
H225	H	0.227134	0.115968	0.397626
H226	H	-0.269001	-0.670143	-0.440123
H227	H	0.064332	-0.336809	-0.106789
H228	H	0.397665	-0.003476	0.226544
H229	H	-0.923390	-0.982735	-0.440098
H230	H	-0.590057	-0.649402	-0.106765
H231	H	-0.256723	-0.316068	0.226569
H232	H	-0.923698	-0.836755	-0.269157
H233	H	-0.590364	-0.503422	0.064176
H234	H	-0.257031	-0.170089	0.397510
H235	H	-0.784255	-0.836704	-0.269132
H236	H	-0.450921	-0.503371	0.064202
H237	H	-0.117588	-0.170038	0.397535
H238	H	-0.439554	-0.669969	-0.269021
H239	H	-0.106220	-0.336636	0.064312
H240	H	0.227113	-0.003303	0.397646
H241	H	-0.268923	-0.269306	-0.440147
H242	H	0.064411	0.064028	-0.106813
H243	H	0.397744	0.397361	0.226520
H244	H	-0.439463	-0.149861	-0.269068
H245	H	-0.106130	0.183472	0.064265
H246	H	0.227204	0.516806	0.397598
H247	H	-0.439486	-0.269129	-0.269059
H248	H	-0.106153	0.064205	0.064275
H249	H	0.227181	0.397538	0.397608
