data_functionalizedCrystal
_audit_creation_method	'MofGen! by Chris Wilmer'
_symmetry_space_group_name_H-M	'P1'
_symmetry_Int_Tables_number	1
_symmetry_cell_setting	triclinic
loop_
_symmetry_equiv_pos_as_xyz
  x,y,z
_cell_length_a	12.594517
_cell_length_b	21.295417
_cell_length_c	12.594509
_cell_angle_alpha	89.964802
_cell_angle_beta	89.977786
_cell_angle_gamma	90.029134
loop_
_atom_site_label
_atom_site_type_symbol
_atom_site_fract_x
_atom_site_fract_y
_atom_site_fract_z
Zn1	Zn	1.627166	-0.250600	-0.601834
Zn2	Zn	1.627014	-0.355878	-0.423833
Zn3	Zn	1.449170	-0.250626	-0.423860
Zn4	Zn	1.449110	-0.355834	-0.601761
O5	O	1.538115	-0.303235	-0.512822
O6	O	1.776092	-0.264573	-0.578241
O7	O	1.603385	-0.341946	-0.274891
O8	O	1.472870	-0.162533	-0.447510
O9	O	1.775980	-0.341921	-0.447465
O10	O	1.603643	-0.162514	-0.578267
O11	O	1.472723	-0.264618	-0.274910
O12	O	1.300216	-0.264574	-0.447439
O13	O	1.472767	-0.341845	-0.750716
O14	O	1.300172	-0.341870	-0.578142
O15	O	1.603585	-0.264530	-0.750770
O16	O	1.603326	-0.443962	-0.447394
O17	O	1.472621	-0.443929	-0.578117
C18	C	1.261574	-0.303221	-0.512786
C19	C	1.143269	-0.303230	-0.512796
C20	C	1.003245	-0.261143	-0.441869
C21	C	1.074110	-0.245805	-0.538999
C22	C	1.073975	-0.318539	-0.415678
C23	C	1.003348	-0.287888	-0.610055
C24	C	1.003207	-0.360648	-0.486668
C25	C	1.074040	-0.345333	-0.583864
C26	C	1.537979	-0.466786	-0.512768
C27	C	1.538019	-0.536754	-0.512781
C28	C	1.606073	-0.569554	-0.580914
C29	C	1.606111	-0.635296	-0.580940
C30	C	1.538105	-0.668237	-0.512814
C31	C	1.470037	-0.635429	-0.444676
C32	C	1.469994	-0.569688	-0.444659
N33	N	1.530063	-0.771503	-0.419663
N34	N	1.530110	-0.833954	-0.419682
C35	C	1.538229	-0.866311	-0.512862
N36	N	1.546320	-0.833858	-0.606024
N37	N	1.546278	-0.771401	-0.606004
C38	C	1.538144	-0.739522	-0.512825
C39	C	1.606328	-0.970396	-0.581030
C40	C	1.606358	-1.036140	-0.581058
C41	C	1.470290	-1.036272	-0.444784
C42	C	1.470255	-0.970530	-0.444765
C43	C	1.538279	-0.937596	-0.512887
C44	C	1.815736	-0.303249	-0.512858
C45	C	1.934041	-0.303255	-0.512874
C46	C	1.538186	-0.303179	-0.790443
C47	C	1.538217	-0.303156	-0.908749
C48	C	1.538280	-0.139044	-0.512899
C49	C	1.538351	-0.069076	-0.512932
C50	C	1.467088	-0.345184	-0.977973
C51	C	1.564202	-0.360565	-1.048761
C52	C	1.441178	-0.287737	-1.048759
C53	C	1.635382	-0.318567	-0.977979
C54	C	1.512292	-0.245712	-0.977970
C55	C	1.609474	-0.261072	-1.048727
C56	C	1.538105	-0.303244	-0.236281
C57	C	1.538281	-0.303090	-0.117976
H58	H	0.972163	-0.225514	-0.381930
O59	O	1.403852	-0.537921	-0.378367
C60	C	1.268848	-0.544989	-0.243256
C61	C	1.343715	-0.581045	-0.318261
H62	H	1.220192	-0.579839	-0.194657
H63	H	1.317676	-0.514230	-0.187566
H64	H	1.213197	-0.514199	-0.292080
H65	H	1.399382	-0.611870	-0.269522
H66	H	1.294821	-0.611765	-0.373954
O67	O	1.110936	-0.334091	-0.317688
C68	C	1.115135	-0.411693	-0.178430
C69	C	1.073230	-0.394174	-0.289422
H70	H	1.084649	-0.460266	-0.155533
H71	H	1.205646	-0.412033	-0.179494
H72	H	1.086072	-0.375724	-0.118057
H73	H	1.102215	-0.430125	-0.349856
H74	H	0.982722	-0.393814	-0.288270
H75	H	1.490302	-0.197176	-0.946852
H76	H	1.406983	-0.380781	-0.946907
O77	O	0.966373	-0.272470	-0.708099
C78	C	0.862293	-0.304603	-0.859112
C79	C	0.904076	-0.322139	-0.748082
H80	H	0.811936	-0.344755	-0.891481
H81	H	0.811856	-0.260292	-0.853426
H82	H	0.932227	-0.295791	-0.914661
H83	H	0.834207	-0.330983	-0.692472
H84	H	0.954545	-0.366432	-0.753852
O85	O	1.343329	-0.272131	-1.085976
C86	C	1.239738	-0.199348	-1.189534
C87	C	1.350615	-0.216950	-1.147482
H88	H	1.245588	-0.154726	-1.239252
H89	H	1.207687	-0.239233	-1.240669
H90	H	1.183834	-0.191031	-1.119738
H91	H	1.406598	-0.225257	-1.217212
H92	H	1.382579	-0.177055	-1.096315
O93	O	1.111224	-0.187853	-0.565235
C94	C	1.117208	-0.077956	-0.520156
C95	C	1.075132	-0.143554	-0.490318
H96	H	1.088027	-0.042120	-0.459614
H97	H	1.207720	-0.078584	-0.520577
H98	H	1.086967	-0.064594	-0.602424
H99	H	1.105294	-0.156956	-0.408043
H100	H	0.984622	-0.142891	-0.489969
O101	O	0.965841	-0.418518	-0.460296
C102	C	0.811728	-0.483462	-0.431634
C103	C	0.853902	-0.417898	-0.461552
H104	H	0.721220	-0.482979	-0.432618
H105	H	0.842003	-0.519495	-0.491301
H106	H	0.840749	-0.496440	-0.348753
H107	H	0.824897	-0.404861	-0.544409
H108	H	0.823635	-0.381903	-0.401817
O109	O	1.590427	-0.418438	-1.086050
C110	C	1.620641	-0.483088	-1.240073
C111	C	1.590969	-0.417513	-1.197991
H112	H	1.621067	-0.482365	-1.330582
H113	H	1.702836	-0.496574	-1.209829
H114	H	1.559908	-0.518887	-1.210952
H115	H	1.651630	-0.381669	-1.227095
H116	H	1.508747	-0.404080	-1.228227
O117	O	1.111078	-0.387798	-0.655456
C118	C	1.264827	-0.435781	-0.735293
C119	C	1.223022	-0.387684	-0.654158
H120	H	1.355338	-0.435695	-0.734286
H121	H	1.234487	-0.484595	-0.713702
H122	H	1.235593	-0.422629	-0.818021
H123	H	1.252239	-0.400777	-0.571402
H124	H	1.253353	-0.338883	-0.675840
H125	H	1.661715	-0.943581	-0.636502
O126	O	1.672180	-0.537660	-0.647190
C127	C	1.807198	-0.544470	-0.782298
C128	C	1.732370	-0.580669	-0.707314
H129	H	1.855898	-0.579227	-0.830912
H130	H	1.758337	-0.513710	-0.837975
H131	H	1.862812	-0.513668	-0.733455
H132	H	1.676742	-0.611506	-0.756071
H133	H	1.781298	-0.611390	-0.651634
O134	O	1.404008	-0.938735	-0.378621
C135	C	1.222970	-0.918710	-0.326812
C136	C	1.297882	-0.954767	-0.401772
H137	H	1.137151	-0.931648	-0.345518
H138	H	1.241633	-0.931678	-0.240992
H139	H	1.234675	-0.866068	-0.338482
H140	H	1.286218	-1.007416	-0.390197
H141	H	1.279200	-0.941746	-0.487565
H142	H	1.661520	-0.662007	-0.636435
H143	H	1.717497	-0.331636	-0.947019
O144	O	1.403925	-0.667494	-0.378644
C145	C	1.260237	-0.741773	-0.364213
C146	C	1.335067	-0.705512	-0.439110
H147	H	1.204532	-0.772509	-0.413071
H148	H	1.309096	-0.772591	-0.308627
H149	H	1.211636	-0.707022	-0.315487
H150	H	1.383684	-0.740217	-0.487905
H151	H	1.286147	-0.674683	-0.494627
O152	O	1.672574	-1.067906	-0.647278
C153	C	1.807506	-1.060835	-0.782461
C154	C	1.732585	-1.024781	-0.707506
H155	H	1.856029	-1.025983	-0.831190
H156	H	1.863270	-1.091589	-0.733697
H157	H	1.758619	-1.091630	-0.838040
H158	H	1.781386	-0.993951	-0.651912
H159	H	1.676818	-0.994066	-0.756336
O160	O	1.404321	-1.068360	-0.378646
C161	C	1.344017	-1.169696	-0.318343
C162	C	1.418809	-1.133432	-0.393273
H163	H	1.355688	-1.222313	-0.330158
H164	H	1.362740	-1.156851	-0.232504
H165	H	1.258189	-1.156765	-0.336947
H166	H	1.504662	-1.146344	-0.374764
H167	H	1.399994	-1.146281	-0.479089
O168	O	1.681489	-0.218709	-1.085516
C169	C	1.865131	-0.187062	-1.090942
C170	C	1.783689	-0.235087	-1.049226
H171	H	1.947775	-0.200279	-1.061600
H172	H	1.864236	-0.187053	-1.181456
H173	H	1.843655	-0.138269	-1.060592
H174	H	1.805108	-0.283903	-1.079497
H175	H	1.784599	-0.235041	-0.958713
