data_functionalizedCrystal
_audit_creation_method	'MofGen! by Chris Wilmer'
_symmetry_space_group_name_H-M	'P1'
_symmetry_Int_Tables_number	1
_symmetry_cell_setting	triclinic
loop_
_symmetry_equiv_pos_as_xyz
  x,y,z
_cell_length_a	16.625545
_cell_length_b	18.215407
_cell_length_c	18.215399
_cell_angle_alpha	89.980167
_cell_angle_beta	90.026887
_cell_angle_gamma	89.973994
loop_
_atom_site_label
_atom_site_type_symbol
_atom_site_fract_x
_atom_site_fract_y
_atom_site_fract_z
Zn1	Zn	-0.321000	-1.125069	0.416121
Zn2	Zn	0.179000	-0.625069	0.916121
Zn3	Zn	-0.455841	-1.124975	0.293057
Zn4	Zn	0.044159	-0.624975	0.793057
Zn5	Zn	-0.321027	-1.002001	0.293069
Zn6	Zn	0.178973	-0.502001	0.793069
Zn7	Zn	-0.455796	-1.001966	0.416082
Zn8	Zn	0.044204	-0.501966	0.916082
O9	O	-0.388416	-1.063503	0.354582
O10	O	0.111584	-0.563503	0.854582
O11	O	-0.338895	-1.228040	0.399808
O12	O	0.161105	-0.728040	0.899808
O13	O	-0.437987	-1.108639	0.190074
O14	O	0.062013	-0.608639	0.690074
O15	O	-0.208191	-1.018380	0.309413
O16	O	0.291809	-0.518380	0.809413
O17	O	-0.437961	-1.227972	0.309394
O18	O	0.062039	-0.727972	0.809394
O19	O	-0.208171	-1.108797	0.399819
O20	O	0.291829	-0.608797	0.899819
O21	O	-0.338940	-1.018290	0.190083
O22	O	0.161060	-0.518290	0.690083
O23	O	-0.338896	-0.899012	0.309375
O24	O	0.161104	-0.399012	0.809375
O25	O	-0.437885	-1.018319	0.519072
O26	O	0.062115	-0.518319	1.019072
O27	O	-0.437910	-0.898986	0.399753
O28	O	0.062090	-0.398986	0.899753
O29	O	-0.338851	-1.108763	0.519100
O30	O	0.161149	-0.608763	1.019100
O31	O	-0.568667	-1.108604	0.309356
O32	O	-0.068667	-0.608604	0.809356
O33	O	-0.568634	-1.018229	0.399742
O34	O	-0.068634	-0.518229	0.899742
C35	C	-0.388402	-0.872296	0.354561
C36	C	0.111598	-0.372296	0.854561
C37	C	-0.388415	-0.790497	0.354570
C38	C	0.111585	-0.290497	0.854570
C39	C	-0.597907	-1.063423	0.354559
C40	C	-0.097907	-0.563423	0.854559
C41	C	-0.687528	-1.063456	0.354574
C42	C	-0.187528	-0.563456	0.854574
C43	C	-0.760310	-1.063484	0.354589
C44	C	-0.260310	-0.563484	0.854589
C45	C	-0.851619	-1.063527	0.354605
C46	C	-0.351619	-0.563527	0.854605
C47	C	-0.924395	-1.063565	0.354614
C48	C	-0.424395	-0.563565	0.854614
C49	C	-1.015709	-1.063608	0.354629
C50	C	-0.515709	-0.563608	0.854629
C51	C	-0.388360	-1.063547	0.546535
C52	C	0.111640	-0.563547	1.046535
C53	C	-0.388336	-1.063567	0.628334
C54	C	0.111664	-0.563567	1.128334
C55	C	-0.178107	-1.063603	0.354622
C56	C	0.321893	-0.563603	0.854622
C57	C	-0.088486	-1.063646	0.354639
C58	C	0.411514	-0.563646	0.854639
C59	C	-0.388430	-1.255456	0.354604
C60	C	0.111570	-0.755456	0.854604
C61	C	-0.388436	-1.337254	0.354613
C62	C	0.111564	-0.837254	0.854613
C63	C	-0.440053	-0.602309	0.401570
C64	C	0.059947	-0.102309	0.901570
C65	C	-0.440056	-0.525450	0.401579
C66	C	0.059944	-0.025450	0.901579
C67	C	-0.336793	-0.525448	0.307611
C68	C	0.163207	-0.025448	0.807611
C69	C	-0.336787	-0.602305	0.307606
C70	C	0.163213	-0.102305	0.807606
C71	C	-0.388422	-0.640734	0.354584
C72	C	0.111578	-0.140734	0.854584
C73	C	-0.388430	-0.487018	0.354598
C74	C	0.111570	0.012982	0.854598
C75	C	-0.388433	-0.403684	0.354608
C76	C	0.111567	0.096316	0.854608
C77	C	-0.388418	-0.724073	0.354576
C78	C	0.111582	-0.224073	0.854576
C79	C	-0.388413	-1.063500	0.163376
C80	C	0.111587	-0.563500	0.663376
C81	C	-0.388210	-1.063624	0.081578
C82	C	0.111790	-0.563624	0.581578
C83	C	-0.336721	-1.110677	0.816544
C84	C	0.163279	-0.610677	1.316544
C85	C	-0.336698	-1.110686	0.893403
C86	C	0.163302	-0.610686	1.393403
C87	C	-0.439827	-1.016508	0.893362
C88	C	0.060173	-0.516508	1.393362
C89	C	-0.439846	-1.016496	0.816505
C90	C	0.060154	-0.516496	1.316505
C91	C	-0.388294	-1.063585	0.778098
C92	C	0.111706	-0.563585	1.278098
C93	C	-0.388252	-1.063606	0.931814
C94	C	0.111748	-0.563606	1.431814
C95	C	-0.388227	-1.063615	1.015148
C96	C	0.111773	-0.563615	1.515148
C97	C	-0.388318	-1.063575	0.694759
C98	C	0.111682	-0.563575	1.194759
H99	H	-0.482098	-0.494168	0.439841
H100	H	0.017902	0.005832	0.939841
O101	O	-0.286756	-0.488082	0.261898
O102	O	0.213244	0.011918	0.761898
C103	C	-0.332598	-0.443575	0.214308
C104	C	0.167402	0.056425	0.714308
H105	H	-0.396094	-0.466714	0.209658
H106	H	0.103906	0.033286	0.709658
H107	H	-0.303355	-0.442687	0.157720
H108	H	0.196645	0.057313	0.657720
H109	H	-0.335414	-0.385335	0.237064
H110	H	0.164586	0.114665	0.737064
H111	H	-0.294737	-0.633592	0.269344
H112	H	0.205263	-0.133592	0.769344
O113	O	-0.286565	-1.156436	0.779349
O114	O	0.213435	-0.656436	1.279349
C115	C	-0.241055	-1.198014	0.829769
C116	C	0.258945	-0.698014	1.329769
H117	H	-0.238251	-1.167880	0.884550
H118	H	0.261749	-0.667880	1.384550
H119	H	-0.177531	-1.205888	0.807579
H120	H	0.322469	-0.705888	1.307579
H121	H	-0.270579	-1.253896	0.837947
H122	H	0.229421	-0.753896	1.337947
H123	H	-0.482096	-0.633595	0.439825
H124	H	0.017904	-0.133595	0.939825
H125	H	-0.294701	-1.149032	0.924703
H126	H	0.205299	-0.649032	1.424703
H127	H	-0.481800	-0.978171	0.924642
H128	H	0.018200	-0.478171	1.424642
O129	O	-0.490024	-0.970725	0.779267
O130	O	0.009976	-0.470725	1.279267
C131	C	-0.535512	-0.929158	0.829644
C132	C	-0.035512	-0.429158	1.329644
H133	H	-0.538295	-0.959307	0.884437
H134	H	-0.038295	-0.459307	1.384437
H135	H	-0.599044	-0.921277	0.807419
H136	H	-0.099044	-0.421277	1.307419
H137	H	-0.505981	-0.873279	0.837813
H138	H	-0.005981	-0.373279	1.337813
