data_functionalizedCrystal
_audit_creation_method	'MofGen! by Chris Wilmer'
_symmetry_space_group_name_H-M	'P1'
_symmetry_Int_Tables_number	1
_symmetry_cell_setting	triclinic
loop_
_symmetry_equiv_pos_as_xyz
  x,y,z
_cell_length_a	14.395555
_cell_length_b	23.196402
_cell_length_c	23.196401
_cell_angle_alpha	60.008520
_cell_angle_beta	90.011331
_cell_angle_gamma	59.999649
loop_
_atom_site_label
_atom_site_type_symbol
_atom_site_fract_x
_atom_site_fract_y
_atom_site_fract_z
Zr1	Zr	0.894815	0.631057	-0.075678
O2	O	0.746453	0.751322	-0.167721
O3	O	0.940299	0.510789	-0.047463
O4	O	0.940248	0.631060	-0.167731
O5	O	0.746540	0.631049	0.047418
O6	O	1.093114	0.631066	-0.167738
O7	O	0.746504	0.631050	-0.047453
O8	O	1.093204	0.415923	0.047400
O9	O	0.746450	0.846192	-0.167719
O10	O	1.073776	0.560262	-0.035433
O11	O	0.959721	0.560257	0.035373
O12	O	0.959662	0.701861	-0.106227
O13	O	0.845607	0.701855	-0.035421
Zr14	Zr	1.138677	0.631064	0.075621
Zr15	Zr	1.138618	0.631066	-0.075688
Zr16	Zr	0.894874	0.631054	0.075631
Zr17	Zr	0.894810	0.782364	-0.075675
Zr18	Zr	1.138682	0.479756	0.075618
O19	O	1.093193	0.751332	0.047407
O20	O	1.093110	0.751336	-0.167735
O21	O	0.746536	0.751318	0.047421
O22	O	1.287038	0.510799	0.167664
O23	O	1.286956	0.510803	-0.047478
O24	O	0.940382	0.510785	0.167678
O25	O	1.286952	0.631072	-0.047475
O26	O	1.093243	0.631061	0.167675
O27	O	0.940378	0.631055	0.167681
O28	O	1.286988	0.631070	0.047396
O29	O	0.940241	0.846200	-0.167727
O30	O	1.093251	0.415921	0.167670
O31	O	1.287042	0.415929	0.167662
O32	O	1.286995	0.415930	0.047392
O33	O	0.746497	0.846190	-0.047449
O34	O	0.940288	0.846198	-0.047456
O35	O	1.073830	0.560260	0.106170
O36	O	1.187885	0.560266	0.035364
O37	O	1.073771	0.701864	-0.035430
O38	O	0.959716	0.701859	0.035376
C39	C	1.016752	0.441798	-0.000032
C40	C	1.016754	0.377563	-0.000034
C41	C	1.076284	-0.085277	-0.036976
C42	C	1.076281	-0.024918	-0.036982
C43	C	1.016747	0.005261	-0.000022
C44	C	0.957188	-0.024909	0.036932
C45	C	0.957183	-0.085261	0.036932
C46	C	1.025279	0.067288	0.061883
C47	C	1.025292	0.127635	0.061885
C48	C	1.016755	0.191409	-0.000022
C49	C	1.008229	0.194821	-0.061931
C50	C	1.008224	0.134470	-0.061931
C51	C	1.016745	0.070703	-0.000018
C52	C	1.076301	0.287024	-0.036985
C53	C	1.076290	0.347388	-0.036993
C54	C	0.957205	0.347390	0.036928
C55	C	0.957208	0.287033	0.036930
C56	C	1.016763	0.256851	-0.000025
C57	C	0.711785	0.631048	-0.000016
C58	C	0.608285	0.631044	-0.000012
C59	C	0.547994	0.553853	0.038571
C60	C	0.578840	0.592429	-0.027988
C61	C	0.578830	0.592447	0.066536
C62	C	0.454689	0.669654	-0.066644
C63	C	0.454683	0.669661	0.027928
C64	C	0.485455	0.708294	-0.038672
C65	C	1.321707	0.631073	-0.000041
C66	C	1.425207	0.631077	-0.000045
C67	C	1.016673	0.631063	-0.189293
C68	C	1.016648	0.631064	-0.253527
C69	C	1.016740	0.820323	-0.000024
C70	C	1.016738	0.884557	-0.000023
C71	C	0.957088	0.704975	-0.320654
C72	C	0.957116	0.704976	-0.381009
C73	C	1.016691	0.631062	-0.374234
C74	C	1.076264	0.557142	-0.307095
C75	C	1.076243	0.557143	-0.246742
C76	C	1.008233	0.574432	-0.441552
C77	C	1.008246	0.574434	-0.501905
C78	C	1.016763	0.631056	-0.560381
C79	C	1.025243	0.687690	-0.558503
C80	C	1.025222	0.687691	-0.498150
C81	C	1.016721	0.631053	-0.439672
C82	C	0.957230	0.704973	-0.692955
C83	C	0.957267	0.704971	-0.753310
C84	C	1.076408	0.557135	-0.679393
C85	C	1.076378	0.557139	-0.619040
C86	C	1.016783	0.631060	-0.625826
C87	C	1.016819	0.631058	0.189236
C88	C	1.016844	0.631057	0.253471
C89	C	1.321713	0.441810	-0.000045
C90	C	1.425216	0.377580	-0.000050
C91	C	1.016825	0.441795	0.189232
C92	C	1.016852	0.377560	0.253465
C93	C	1.321786	0.441807	0.189220
C94	C	1.425314	0.377576	0.253449
C95	C	0.711706	0.820314	-0.189276
C96	C	0.608178	0.884545	-0.253505
C97	C	0.711779	0.820311	-0.000012
C98	C	0.608276	0.884541	-0.000006
C99	C	1.016667	0.820326	-0.189289
C100	C	1.016640	0.884561	-0.253522
C101	C	1.414258	0.347415	-0.037015
C102	C	1.511501	0.287072	-0.037034
C103	C	1.619700	0.256892	-0.000085
C104	C	1.630656	0.287063	0.036881
C105	C	1.533414	0.347408	0.036896
C106	C	1.076429	0.347396	0.320591
C107	C	1.076449	0.287049	0.380951
C108	C	1.016900	0.256862	0.374183
C109	C	0.957316	0.287032	0.307050
C110	C	0.957289	0.347382	0.246692
C111	C	1.533477	0.347415	0.246651
C112	C	1.630761	0.287072	0.306995
C113	C	1.619880	0.256886	0.374136
C114	C	1.511706	0.287053	0.380932
C115	C	1.414423	0.347399	0.320589
C116	C	0.500015	0.914713	-0.246708
C117	C	0.402730	0.975075	-0.307052
C118	C	0.413612	1.005264	-0.374193
C119	C	0.521786	0.975094	-0.380989
C120	C	0.619069	0.914737	-0.320646
C121	C	0.619234	0.914712	0.036951
C122	C	0.521991	0.975071	0.036954
C123	C	0.413792	1.005254	0.000003
C124	C	0.402836	0.975081	-0.036960
C125	C	0.500078	0.914727	-0.036966
C126	C	1.076201	0.914729	-0.246732
C127	C	1.076198	0.975076	-0.307080
C128	C	1.016627	1.005260	-0.374218
C129	C	0.957064	0.975086	-0.381007
C130	C	0.957074	0.914736	-0.320659
H131	H	1.001278	0.137252	-0.112340
H132	H	1.326356	0.371948	0.326133
H133	H	0.314660	0.999630	-0.301505
H134	H	1.698871	0.207754	-0.000102
H135	H	0.491134	0.890136	-0.192044
H136	H	0.908779	0.371933	0.192037
H137	H	1.502558	0.262515	-0.067135
H138	H	0.908770	0.765160	-0.807969
H139	H	1.124711	0.890163	-0.192070
H140	H	1.032226	0.015364	0.112297
H141	H	0.401321	0.702268	-0.122963
H142	H	1.326165	0.371987	-0.067112
H143	H	1.124700	0.999637	-0.301538
H144	H	1.542358	0.371984	0.191987
H145	H	1.124746	0.496954	-0.192082
H146	H	0.530633	0.999681	-0.435663
H147	H	1.502863	0.262466	0.435607
H148	H	0.401185	0.702271	0.051593
H149	H	1.718833	0.262516	0.301449
H150	H	0.334389	1.054410	-0.423323
H151	H	0.632342	0.559795	0.122829
H152	H	1.124775	0.371953	-0.067089
H153	H	1.124916	0.496953	-0.673875
H154	H	1.032246	0.124846	0.112296
H155	H	1.718765	0.262481	0.066963
H156	H	0.908705	0.765164	-0.698480
H157	H	1.542352	0.371961	0.067000
H158	H	1.124921	0.371967	0.326116
H159	H	1.124974	0.262492	0.435608
H160	H	1.016931	0.207721	0.423337
H161	H	0.459825	0.773624	-0.071359
H162	H	1.699103	0.207748	0.423266
H163	H	0.314727	0.999665	-0.067045
H164	H	1.124771	0.496961	-0.301582
H165	H	0.707137	0.890175	-0.326189
H166	H	0.908832	0.262445	0.301550
H167	H	0.707327	0.890142	0.067046
H168	H	0.530934	0.999629	0.067056
H169	H	0.334621	1.054398	0.000014
H170	H	0.491140	0.890163	-0.067060
H171	H	1.016627	1.054401	-0.423351
H172	H	0.908562	0.999671	-0.435679
H173	H	0.908567	0.890180	-0.326198
H174	H	0.908566	0.765168	-0.326186
H175	H	1.124772	-0.000352	-0.067075
H176	H	1.124773	-0.109847	-0.067069
H177	H	0.908725	0.262468	0.067025
H178	H	1.001274	0.246749	-0.112342
H179	H	0.908612	0.765165	-0.435674
H180	H	1.124790	0.262451	-0.067079
H181	H	0.908725	0.371965	0.067018
H182	H	1.001335	0.528323	-0.503430
H183	H	0.908713	-0.000331	0.067024
H184	H	1.032172	0.733799	-0.606117
H185	H	0.908692	-0.109821	0.067024
H186	H	1.032129	0.733802	-0.496624
H187	H	0.573409	0.488577	0.071158
H188	H	1.124874	0.496953	-0.564381
H189	H	1.001290	0.528324	-0.393942
H190	H	0.632342	0.559791	-0.051636
