data_functionalizedCrystal
_audit_creation_method	'MofGen! by Chris Wilmer'
_symmetry_space_group_name_H-M	'P1'
_symmetry_Int_Tables_number	1
_symmetry_cell_setting	triclinic
loop_
_symmetry_equiv_pos_as_xyz
  x,y,z
_cell_length_a	14.044220
_cell_length_b	14.044190
_cell_length_c	15.186229
_cell_angle_alpha	89.991383
_cell_angle_beta	90.001537
_cell_angle_gamma	93.190328
loop_
_atom_site_label
_atom_site_type_symbol
_atom_site_fract_x
_atom_site_fract_y
_atom_site_fract_z
O1	O	1.277172	0.230167	-0.073153
O2	O	1.777172	0.730167	0.426847
O3	O	1.000501	0.221861	-0.073174
O4	O	1.500501	0.721861	0.426826
O5	O	1.134680	0.087678	-0.073147
O6	O	1.634680	0.587678	0.426853
O7	O	1.142993	0.364350	-0.073181
O8	O	1.642993	0.864350	0.426819
O9	O	1.134670	0.087675	0.073311
O10	O	1.634670	0.587675	0.573311
O11	O	1.000491	0.221858	0.073283
O12	O	1.500491	0.721858	0.573283
O13	O	1.277162	0.230164	0.073304
O14	O	1.777162	0.730164	0.573304
Zn15	Zn	1.138825	0.226011	0.096547
Zn16	Zn	1.638825	0.726011	0.596547
Zn17	Zn	1.138838	0.226015	-0.096417
Zn18	Zn	1.638838	0.726015	0.403583
O19	O	1.142983	0.364347	0.073277
O20	O	1.642983	0.864347	0.573277
C21	C	0.964874	0.218224	0.000052
C22	C	1.464874	0.718224	0.500052
C23	C	0.858731	0.207380	0.000044
C24	C	1.358731	0.707380	0.500044
C25	C	0.664392	0.187553	0.000064
C26	C	1.164392	0.687553	0.500064
C27	C	0.613264	0.264468	0.000058
C28	C	1.113264	0.764468	0.500058
C29	C	0.505128	0.253436	0.000069
C30	C	1.005128	0.753436	0.500069
C31	C	0.772539	0.198583	0.000053
C32	C	1.272539	0.698583	0.500053
C33	C	1.131039	0.052054	0.000084
C34	C	1.631039	0.552054	0.500084
C35	C	1.120191	-0.054089	0.000091
C36	C	1.620191	0.445911	0.500091
C37	C	1.177292	-0.299547	0.000061
C38	C	1.677292	0.200453	0.500061
C39	C	1.100375	-0.248422	0.000061
C40	C	1.600375	0.251578	0.500061
C41	C	1.111404	-0.140285	0.000078
C42	C	1.611404	0.359715	0.500078
C43	C	1.166265	-0.407694	0.000044
C44	C	1.666265	0.092306	0.500044
C45	C	1.312789	0.233801	0.000076
C46	C	1.812789	0.733801	0.500076
C47	C	1.418932	0.244646	0.000078
C48	C	1.918932	0.744646	0.500078
C49	C	1.146624	0.399971	0.000044
C50	C	1.646624	0.899971	0.500044
C51	C	1.157472	0.506114	0.000031
C52	C	1.657472	1.006114	0.500031
N53	N	1.138823	0.226008	0.228240
N54	N	1.638823	0.726008	0.728240
N55	N	1.138847	0.226010	-0.228110
N56	N	1.638847	0.726010	0.271890
C57	C	1.198261	0.166615	0.453975
C58	C	1.698261	0.666615	0.953975
C59	C	1.198264	0.166613	0.546164
C60	C	1.698264	0.666613	1.046164
C61	C	1.079402	0.285405	0.546149
C62	C	1.579402	0.785405	1.046149
C63	C	1.079395	0.285402	0.453961
C64	C	1.579395	0.785402	0.953961
C65	C	1.138830	0.226008	0.407876
C66	C	1.638830	0.726008	0.907876
C67	C	1.138840	0.226010	0.592254
C68	C	1.638840	0.726010	1.092254
C69	C	1.138842	0.226008	0.692210
C70	C	1.638842	0.726008	1.192210
C71	C	1.138826	0.226009	0.307914
C72	C	1.638826	0.726009	0.807914
H73	H	0.650706	0.338602	0.000045
H74	H	1.150706	0.838602	0.500045
H75	H	0.626954	0.113425	0.000078
H76	H	1.126954	0.613425	0.500078
H77	H	1.026243	-0.285865	0.000050
H78	H	1.526243	0.214135	0.500050
C79	C	1.250962	0.113793	0.312664
C80	C	1.750962	0.613793	0.812664
C81	C	1.263535	0.101276	0.403316
C82	C	1.763535	0.601276	0.903316
H83	H	1.291250	0.073441	0.281394
H84	H	1.791250	0.573441	0.781394
H85	H	1.186360	0.098047	0.297589
H86	H	1.686360	0.598047	0.797589
H87	H	1.266768	0.178380	0.297530
H88	H	1.766768	0.678380	0.797530
H89	H	1.247723	0.036690	0.418452
H90	H	1.747723	0.536690	0.918452
H91	H	1.328152	0.117016	0.418398
H92	H	1.828152	0.617016	0.918398
C93	C	1.269054	-0.150113	0.000109
C94	C	1.769054	0.349887	0.500109
C95	C	1.277364	-0.249007	0.000090
C96	C	1.777364	0.250993	0.500090
H97	H	1.330834	-0.118906	0.000135
H98	H	1.830834	0.381094	0.500135
H99	H	1.235370	-0.132160	-0.050965
H100	H	1.735370	0.367840	0.449035
H101	H	1.235334	-0.132204	0.051181
H102	H	1.735334	0.367796	0.551181
H103	H	1.311077	-0.266917	-0.050986
H104	H	1.811077	0.233083	0.449014
H105	H	1.311062	-0.266967	0.051169
H106	H	1.811062	0.233033	0.551169
H107	H	1.246657	0.118249	0.583695
H108	H	1.746657	0.618249	1.083695
H109	H	1.031012	0.333764	0.583680
H110	H	1.531012	0.833764	1.083680
H111	H	1.030994	0.333767	0.416425
H112	H	1.530994	0.833767	0.916425
