data_functionalizedCrystal
_audit_creation_method	'MofGen! by Chris Wilmer'
_symmetry_space_group_name_H-M	'P1'
_symmetry_Int_Tables_number	1
_symmetry_cell_setting	triclinic
loop_
_symmetry_equiv_pos_as_xyz
  x,y,z
_cell_length_a	17.077404
_cell_length_b	19.121449
_cell_length_c	17.077396
_cell_angle_alpha	92.468915
_cell_angle_beta	90.021444
_cell_angle_gamma	87.583306
loop_
_atom_site_label
_atom_site_type_symbol
_atom_site_fract_x
_atom_site_fract_y
_atom_site_fract_z
Zn1	Zn	1.213368	-0.279643	0.430556
Zn2	Zn	1.713368	0.220357	0.930556
Zn3	Zn	1.218867	-0.397098	0.293692
Zn4	Zn	1.718867	0.102902	0.793692
Zn5	Zn	1.082101	-0.279663	0.299298
Zn6	Zn	1.582101	0.220337	0.799298
Zn7	Zn	1.087657	-0.397052	0.424913
Zn8	Zn	1.587657	0.102948	0.924913
O9	O	1.150498	-0.338364	0.362115
O10	O	1.650498	0.161636	0.862115
O11	O	1.323945	-0.295234	0.412415
O12	O	1.823945	0.204766	0.912415
O13	O	1.200700	-0.381548	0.184587
O14	O	1.700700	0.118452	0.684587
O15	O	1.094887	-0.181377	0.321417
O16	O	1.594887	0.318623	0.821417
O17	O	1.327985	-0.381528	0.311862
O18	O	1.827985	0.118472	0.811862
O19	O	1.191328	-0.181362	0.417852
O20	O	1.691328	0.318638	0.917852
O21	O	1.100219	-0.295269	0.188706
O22	O	1.600219	0.204731	0.688706
O23	O	0.972990	-0.295225	0.315946
O24	O	1.472990	0.204775	0.815946
O25	O	1.104357	-0.381450	0.535510
O26	O	1.604357	0.118550	1.035510
O27	O	0.977073	-0.381470	0.408235
O28	O	1.477073	0.118530	0.908235
O29	O	1.196716	-0.295190	0.539655
O30	O	1.696716	0.204810	1.039655
O31	O	1.206088	-0.495375	0.306391
O32	O	1.706088	0.004625	0.806391
O33	O	1.109689	-0.495341	0.402798
O34	O	1.609689	0.004659	0.902798
C35	C	0.946549	-0.338345	0.362087
C36	C	1.446549	0.161655	0.862087
C37	C	0.859300	-0.338354	0.362093
C38	C	1.359300	0.161646	0.862093
C39	C	0.481384	-0.293531	0.414577
C40	C	0.981384	0.206469	0.914577
C41	C	0.563365	-0.293526	0.414568
C42	C	1.063365	0.206474	0.914568
C43	C	0.606452	-0.338379	0.362134
C44	C	1.106452	0.161621	0.862134
C45	C	0.567556	-0.383245	0.309709
C46	C	1.067556	0.116755	0.809709
C47	C	0.485578	-0.383253	0.309722
C48	C	0.985578	0.116747	0.809722
C49	C	0.738425	-0.383224	0.309685
C50	C	1.238425	0.116776	0.809685
C51	C	0.820409	-0.383215	0.309671
C52	C	1.320409	0.116785	0.809671
C53	C	0.816212	-0.293497	0.414531
C54	C	1.316212	0.206503	0.914531
C55	C	0.734234	-0.293505	0.414544
C56	C	1.234234	0.206495	0.914544
C57	C	0.695343	-0.338370	0.362119
C58	C	1.195343	0.161630	0.862119
C59	C	1.159110	-0.520842	0.353391
C60	C	1.659110	-0.020842	0.853391
C61	C	1.162866	-0.598907	0.349685
C62	C	1.662866	-0.098907	0.849685
C63	C	1.114406	-0.635590	0.398097
C64	C	1.614406	-0.135590	0.898097
C65	C	1.117939	-0.708940	0.394612
C66	C	1.617939	-0.208940	0.894612
C67	C	1.169935	-0.745606	0.342718
C68	C	1.669935	-0.245606	0.842718
C69	C	1.218397	-0.708918	0.294301
C70	C	1.718397	-0.208918	0.794301
C71	C	1.214860	-0.635569	0.297783
C72	C	1.714860	-0.135569	0.797783
C73	C	1.183124	-0.967072	0.329693
C74	C	1.683124	-0.467072	0.829693
C75	C	1.186659	-1.040426	0.326217
C76	C	1.686659	-0.540426	0.826217
C77	C	1.086199	-1.040443	0.426527
C78	C	1.586199	-0.540443	0.926527
C79	C	1.082670	-0.967093	0.430007
C80	C	1.582670	-0.467093	0.930007
C81	C	1.131129	-0.930411	0.381587
C82	C	1.631129	-0.430411	0.881587
C83	C	1.173549	-0.820582	0.339157
C84	C	1.673549	-0.320582	0.839157
C85	C	1.127511	-0.855437	0.385146
C86	C	1.627511	-0.355437	0.885146
C87	C	1.355243	-0.338384	0.362143
C88	C	1.855243	0.161616	0.862143
C89	C	1.442494	-0.338392	0.362155
C90	C	1.942494	0.161608	0.862155
C91	C	1.150543	-0.338312	0.566861
C92	C	1.650543	0.161688	1.066861
C93	C	1.150562	-0.338290	0.654112
C94	C	1.650562	0.161710	1.154112
C95	C	1.141874	-0.155174	0.370889
C96	C	1.641874	0.344826	0.870889
C97	C	1.138199	-0.077109	0.374629
C98	C	1.638199	0.422891	0.874629
C99	C	1.150496	-0.338365	0.158167
C100	C	1.650496	0.161635	0.658167
C101	C	1.150620	-0.338189	0.070926
C102	C	1.650620	0.161811	0.570926
C103	C	1.198655	-0.293371	0.697263
C104	C	1.698655	0.206629	1.197263
C105	C	1.198664	-0.293347	0.779244
C106	C	1.698664	0.206653	1.279244
C107	C	1.150583	-0.338248	0.818074
C108	C	1.650583	0.161752	1.318074
C109	C	1.102484	-0.383169	0.774918
C110	C	1.602484	0.116831	1.274918
C111	C	1.102472	-0.383188	0.692938
C112	C	1.602472	0.116812	1.192938
C113	C	1.102514	-0.383127	0.945790
C114	C	1.602514	0.116873	1.445790
C115	C	1.102527	-0.383109	1.027776
C116	C	1.602527	0.116891	1.527776
C117	C	1.198705	-0.293286	1.032096
C118	C	1.698705	0.206714	1.532096
C119	C	1.198693	-0.293305	0.950116
C120	C	1.698693	0.206695	1.450116
C121	C	1.150596	-0.338228	0.906966
C122	C	1.650596	0.161772	1.406966
H123	H	0.595026	-0.256998	0.457258
H124	H	1.095026	0.243002	0.957258
H125	H	1.237850	-0.256747	0.918503
H126	H	1.737850	0.243253	1.418503
H127	H	1.237828	-0.256771	0.814374
H128	H	1.737828	0.243229	1.314374
F129	F	1.072172	-0.816413	0.440371
F130	F	1.572172	-0.316413	0.940371
H131	H	0.446308	-0.257002	0.457271
H132	H	0.946308	0.242998	0.957271
H133	H	1.237867	-0.256707	1.067233
H134	H	1.737867	0.243293	1.567233
H135	H	1.063373	-0.419669	1.059388
H136	H	1.563373	0.080331	1.559388
H137	H	0.602645	-0.419768	0.267019
H138	H	1.102645	0.080232	0.767019
H139	H	1.215885	-0.850443	0.296905
H140	H	1.715885	-0.350443	0.796905
F141	F	1.051321	-0.430937	0.899868
F142	F	1.551321	0.069063	1.399868
F143	F	1.051309	-0.430953	0.816246
F144	F	1.551309	0.069047	1.316246
H145	H	1.046746	-1.070317	0.465947
H146	H	1.546746	-0.570317	0.965947
F147	F	1.051283	-0.430996	0.647015
F148	F	1.551283	0.069004	1.147015
H149	H	0.699153	-0.256978	0.457238
H150	H	1.199153	0.243022	0.957238
H151	H	0.706763	-0.419761	0.266998
H152	H	1.206763	0.080239	0.766998
H153	H	1.040331	-0.937241	0.472263
H154	H	1.540331	-0.437241	0.972263
F155	F	1.242003	-1.079447	0.270982
F156	F	1.742003	-0.579447	0.770982
F157	F	0.444188	-0.431005	0.253932
F158	F	0.944188	0.068995	0.753932
H159	H	1.222582	-0.937211	0.290269
H160	H	1.722582	-0.437211	0.790269
H161	H	1.072069	-0.605741	0.440358
H162	H	1.572069	-0.105741	0.940358
F163	F	0.866266	-0.430968	0.253881
F164	F	1.366266	0.069032	0.753881
F165	F	0.857603	-0.245744	0.470324
F166	F	1.357603	0.254256	0.970324
F167	F	1.066368	-0.747978	0.446145
F168	F	1.566368	-0.247978	0.946145
H169	H	1.260730	-0.738777	0.252045
H170	H	1.760730	-0.238777	0.752045
H171	H	1.254320	-0.605702	0.258360
H172	H	1.754320	-0.105702	0.758360
F173	F	1.249835	-0.245585	0.655944
F174	F	1.749835	0.254415	1.155944
