data_functionalizedCrystal
_audit_creation_method	'MofGen! by Chris Wilmer'
_symmetry_space_group_name_H-M	'P1'
_symmetry_Int_Tables_number	1
_symmetry_cell_setting	triclinic
loop_
_symmetry_equiv_pos_as_xyz
  x,y,z
_cell_length_a	13.897449
_cell_length_b	12.759401
_cell_length_c	12.759393
_cell_angle_alpha	89.979062
_cell_angle_beta	90.023295
_cell_angle_gamma	89.995856
loop_
_atom_site_label
_atom_site_type_symbol
_atom_site_fract_x
_atom_site_fract_y
_atom_site_fract_z
Zn1	Zn	0.383929	1.606355	-0.594073
Zn2	Zn	0.545255	1.606283	-0.418415
Zn3	Zn	0.383980	1.430653	-0.418408
Zn4	Zn	0.545188	1.430682	-0.594052
O5	O	0.464588	1.518493	-0.506237
O6	O	0.405336	1.753366	-0.570783
O7	O	0.523911	1.582943	-0.271393
O8	O	0.248992	1.453978	-0.441716
O9	O	0.523862	1.753313	-0.441728
O10	O	0.248954	1.583065	-0.570776
O11	O	0.405423	1.453909	-0.271388
O12	O	0.405358	1.283636	-0.441696
O13	O	0.523747	1.454028	-0.741076
O14	O	0.523797	1.283657	-0.570741
O15	O	0.405271	1.583093	-0.741091
O16	O	0.680228	1.582971	-0.441708
O17	O	0.680178	1.453958	-0.570748
C18	C	0.464576	1.245526	-0.506216
C19	C	0.464594	1.128749	-0.506232
C20	C	0.212995	1.518527	-0.506247
C21	C	0.105781	1.518541	-0.506252
C22	C	0.526359	1.073926	-0.573320
C23	C	0.526363	0.964202	-0.573341
C24	C	0.402834	0.964134	-0.439177
C25	C	0.402827	1.073856	-0.439162
C26	C	-0.090514	1.518573	-0.506285
C27	C	0.018719	1.518558	-0.506270
C28	C	0.715202	1.518488	-0.506249
C29	C	0.822416	1.518582	-0.506290
C30	C	0.464495	1.518572	-0.780270
C31	C	0.464456	1.518605	-0.897047
C32	C	0.464601	1.792526	-0.506258
C33	C	0.464606	1.909303	-0.506268
C34	C	0.402756	1.585815	-0.951919
C35	C	0.402714	1.585833	-1.061643
C36	C	0.526082	1.451428	-1.061614
C37	C	0.526118	1.451406	-0.951892
C38	C	0.464611	1.518475	-0.233270
C39	C	0.464378	1.518645	-0.116493
H40	H	0.576657	0.919569	-0.627972
H41	H	0.576361	1.396669	-0.907214
H42	H	0.352470	1.640560	-1.106314
H43	H	0.352547	0.919427	-0.384569
C44	C	0.594294	1.134310	-0.647103
C45	C	0.703941	1.119217	-0.638346
C46	C	0.771876	1.179598	-0.712134
C47	C	0.730163	1.255072	-0.794679
C48	C	0.620510	1.270168	-0.803439
C49	C	0.552576	1.209787	-0.729651
H50	H	0.734825	1.063343	-0.577238
H51	H	0.853048	1.168422	-0.705648
H52	H	0.780452	1.299769	-0.849301
H53	H	0.589626	1.326042	-0.864547
H54	H	0.471403	1.220963	-0.736137
H55	H	0.352544	1.640530	-0.907267
C56	C	0.334884	1.134168	-0.365355
C57	C	0.225238	1.119087	-0.374117
C58	C	0.157297	1.179398	-0.300315
C59	C	0.199001	1.254790	-0.217751
C60	C	0.308652	1.269875	-0.208986
C61	C	0.376593	1.209563	-0.282788
H62	H	0.194361	1.063274	-0.435238
H63	H	0.076126	1.168231	-0.306804
H64	H	0.148707	1.299436	-0.163118
H65	H	0.339529	1.325687	-0.147864
H66	H	0.457765	1.220730	-0.276298
H67	H	0.576286	1.396720	-1.106282
