data_functionalizedCrystal
_audit_creation_method	'MofGen! by Chris Wilmer'
_symmetry_space_group_name_H-M	'P1'
_symmetry_Int_Tables_number	1
_symmetry_cell_setting	triclinic
loop_
_symmetry_equiv_pos_as_xyz
  x,y,z
_cell_length_a	16.120530
_cell_length_b	18.101397
_cell_length_c	16.120297
_cell_angle_alpha	87.130973
_cell_angle_beta	89.871860
_cell_angle_gamma	87.115827
loop_
_atom_site_label
_atom_site_type_symbol
_atom_site_fract_x
_atom_site_fract_y
_atom_site_fract_z
Zn1	Zn	1.247464	-0.375192	0.534538
Zn2	Zn	1.254422	-0.493085	0.395472
Zn3	Zn	1.115454	-0.362678	0.388457
Zn4	Zn	1.108379	-0.492403	0.527442
O5	O	1.181430	-0.430840	0.461477
O6	O	1.364754	-0.396354	0.521997
O7	O	1.241861	-0.470835	0.278177
O8	O	1.133014	-0.260709	0.407869
O9	O	1.369866	-0.482969	0.419826
O10	O	1.230001	-0.269903	0.515194
O11	O	1.139761	-0.375025	0.273023
O12	O	0.998148	-0.374364	0.400988
O13	O	1.120956	-0.481807	0.644748
O14	O	0.992950	-0.469672	0.503099
O15	O	1.223141	-0.395692	0.649962
O16	O	1.235000	-0.596624	0.412944
O17	O	1.127703	-0.596123	0.509902
C18	C	0.965377	-0.420587	0.450513
C19	C	0.872948	-0.416219	0.445842
C20	C	0.703717	-0.408228	0.437321
C21	C	0.659979	-0.453509	0.485695
C22	C	0.565814	-0.449063	0.480954
C23	C	0.797891	-0.412673	0.442061
C24	C	1.181360	-0.623245	0.461434
C25	C	1.181406	-0.705562	0.461446
C26	C	1.181508	-1.004661	0.461528
C27	C	1.248846	-0.973605	0.400344
C28	C	1.249060	-0.888004	0.400522
C29	C	1.181457	-0.856275	0.461487
C30	C	1.200770	-0.892157	0.550340
C31	C	1.201283	-0.977810	0.550014
C32	C	1.094648	-0.968039	0.434609
C33	C	1.095182	-0.882327	0.432674
C34	C	1.181427	-0.772413	0.461469
C35	C	1.181540	-1.088523	0.461552
C36	C	1.398326	-0.441134	0.472485
C37	C	1.490754	-0.445520	0.477176
C38	C	1.170483	-0.440070	0.678371
C39	C	1.165818	-0.444003	0.770798
C40	C	1.181521	-0.237685	0.461541
C41	C	1.181560	-0.155374	0.461568
C42	C	1.192381	-0.421595	0.245430
C43	C	1.197207	-0.417461	0.153012
C44	C	1.157271	-0.451166	0.940022
C45	C	1.205752	-0.410300	0.983793
C46	C	1.200996	-0.414285	1.077955
C47	C	1.162026	-0.447181	0.845851
H48	H	1.237492	-0.863558	0.334778
C49	C	1.336094	-0.865274	0.425066
H50	H	1.336525	-0.812819	0.425252
H51	H	1.349683	-0.886019	0.478911
H52	H	1.375774	-0.882952	0.386165
C53	C	1.285398	-0.868351	0.580808
H54	H	1.296538	-0.890363	0.634625
H55	H	1.327705	-0.884049	0.543550
H56	H	1.284163	-0.815962	0.583048
H57	H	0.670445	-0.366126	0.392350
H58	H	1.237468	-0.990763	0.334414
C59	C	1.266654	-0.358997	0.938888
H60	H	1.261908	-0.363020	0.880574
H61	H	1.253814	-0.309250	0.952460
H62	H	1.321819	-0.373087	0.955917
C63	C	0.704926	-0.510410	0.546428
H64	H	0.763238	-0.505984	0.541675
H65	H	0.687951	-0.501395	0.601631
H66	H	0.691330	-0.558966	0.533427
C67	C	1.335420	-1.007594	0.424627
H68	H	1.330706	-1.040627	0.471893
H69	H	1.358210	-1.033863	0.379656
H70	H	1.370752	-0.969255	0.437333
H71	H	1.264642	-1.001591	0.572299
C72	C	1.137590	-1.005827	0.614029
H73	H	1.111521	-0.964859	0.640124
H74	H	1.096841	-1.031967	0.586739
H75	H	1.165129	-1.037930	0.654735
H76	H	1.153030	-0.871763	0.597344
H77	H	1.076220	-0.985989	0.370708
H78	H	1.080539	-0.858460	0.367264
H79	H	1.042670	-0.860418	0.473617
H80	H	1.044530	-0.988050	0.479117
H81	H	1.112198	-0.489143	0.973265
