data_functionalizedCrystal
_audit_creation_method	'MofGen! by Chris Wilmer'
_symmetry_space_group_name_H-M	'P1'
_symmetry_Int_Tables_number	1
_symmetry_cell_setting	triclinic
loop_
_symmetry_equiv_pos_as_xyz
  x,y,z
_cell_length_a	15.298183
_cell_length_b	15.297510
_cell_length_c	14.909241
_cell_angle_alpha	83.058736
_cell_angle_beta	84.152145
_cell_angle_gamma	88.423408
loop_
_atom_site_label
_atom_site_type_symbol
_atom_site_fract_x
_atom_site_fract_y
_atom_site_fract_z
Zn1	Zn	-1.303619	0.562527	-0.381424
Zn2	Zn	-0.803619	1.062527	0.118576
Zn3	Zn	-1.270343	0.714509	-0.262623
Zn4	Zn	-0.770343	1.214509	0.237377
Zn5	Zn	-1.148783	0.543143	-0.254067
Zn6	Zn	-0.648783	1.043143	0.245933
Zn7	Zn	-1.135042	0.681329	-0.431153
Zn8	Zn	-0.635042	1.181329	0.068847
O9	O	-1.214447	0.625377	-0.332317
O10	O	-0.714447	1.125377	0.167683
O11	O	-1.420628	0.604686	-0.348434
O12	O	-0.920628	1.104686	0.151566
O13	O	-1.246042	0.697550	-0.137659
O14	O	-0.746042	1.197550	0.362341
O15	O	-1.188998	0.424278	-0.246568
O16	O	-0.688998	0.924278	0.253432
O17	O	-1.396180	0.716346	-0.261152
O18	O	-0.896180	1.216346	0.238848
O19	O	-1.302756	0.438519	-0.340137
O20	O	-0.802756	0.938519	0.159863
O21	O	-1.156732	0.571648	-0.131372
O22	O	-0.656732	1.071648	0.368628
O23	O	-1.025537	0.539475	-0.294788
O24	O	-0.525537	1.039475	0.205212
O25	O	-1.165580	0.659797	-0.548386
O26	O	-0.665580	1.159797	-0.048386
O27	O	-1.015442	0.641001	-0.424893
O28	O	-0.515442	1.141001	0.075107
O29	O	-1.289433	0.572513	-0.511851
O30	O	-0.789433	1.072513	-0.011851
O31	O	-1.232718	0.831544	-0.309372
O32	O	-0.732718	1.331544	0.190628
O33	O	-1.133314	0.807167	-0.433190
O34	O	-0.633314	1.307167	0.066810
C35	C	-0.989006	0.584535	-0.364309
C36	C	-0.489006	1.084535	0.135691
C37	C	-0.892559	0.567082	-0.378021
C38	C	-0.392559	1.067082	0.121979
C39	C	-0.859976	0.500829	-0.430015
C40	C	-0.359976	1.000829	0.069985
C41	C	-0.769361	0.484423	-0.442898
C42	C	-0.269361	0.984423	0.057102
C43	C	-0.711320	0.534273	-0.403794
C44	C	-0.211320	1.034273	0.096206
C45	C	-0.743902	0.600532	-0.351804
C46	C	-0.243902	1.100532	0.148196
C47	C	-0.834527	0.616935	-0.338913
C48	C	-0.334527	1.116935	0.161087
C49	C	-0.685871	0.650379	-0.312692
C50	C	-0.185871	1.150379	0.187308
C51	C	-0.718453	0.716638	-0.260702
C52	C	-0.218453	1.216638	0.239298
C53	C	-0.809069	0.733038	-0.247814
C54	C	-0.309069	1.233038	0.252186
C55	C	-0.867110	0.683188	-0.286919
C56	C	-0.367110	1.183188	0.213081
C57	C	-0.595247	0.633976	-0.325582
C58	C	-0.095247	1.133976	0.174418
C59	C	-0.569798	0.750082	-0.234480
C60	C	-0.069798	1.250082	0.265520
C61	C	-0.660412	0.766488	-0.221597
C62	C	-0.160412	1.266488	0.278403
C63	C	-1.177939	0.850846	-0.377622
C64	C	-0.677939	1.350846	0.122378
C65	C	-1.162402	0.947316	-0.397022
C66	C	-0.662402	1.447316	0.102978
C67	C	-0.440768	0.666374	-0.300191
C68	C	0.059232	1.166374	0.199809
C69	C	-0.537214	0.683829	-0.286475
C70	C	-0.037214	1.183829	0.213525
C71	C	-1.325828	1.269917	-0.193971
C72	C	-0.825828	1.769917	0.306029
C73	C	-1.340425	1.179279	-0.175739
C74	C	-0.840425	1.679279	0.324261
C75	C	-1.295921	1.121284	-0.231058
C76	C	-0.795921	1.621284	0.268942
C77	C	-1.236817	1.153935	-0.304612
C78	C	-0.736817	1.653935	0.195388
C79	C	-1.222213	1.244581	-0.322841
C80	C	-0.722213	1.744581	0.177159
C81	C	-1.192306	1.095948	-0.359929
C82	C	-0.692306	1.595948	0.140071
C83	C	-1.133202	1.128600	-0.433483
C84	C	-0.633202	1.628600	0.066517
C85	C	-1.118602	1.219237	-0.451709
C86	C	-0.618602	1.719237	0.048291
C87	C	-1.163106	1.277232	-0.396390
C88	C	-0.663106	1.777232	0.103610
C89	C	-1.206909	1.005302	-0.341700
C90	C	-0.706909	1.505302	0.158300
C91	C	-1.103295	0.979967	-0.470570
C92	C	-0.603295	1.479967	0.029430
C93	C	-1.088698	1.070605	-0.488802
C94	C	-0.588698	1.570605	0.011198
C95	C	-1.229686	0.614616	-0.563124
C96	C	-0.729686	1.114616	-0.063124
C97	C	-1.236179	0.610030	-0.661480
C98	C	-0.736179	1.110030	-0.161480
C99	C	-1.251114	1.399029	-0.286862
C100	C	-0.751114	1.899029	0.213138
C101	C	-1.266720	1.302568	-0.267519
C102	C	-0.766720	1.802568	0.232481
C103	C	-1.119414	0.692322	-0.884352
C104	C	-0.619414	1.192322	-0.384352
C105	C	-1.125512	0.688016	-0.976767
C106	C	-0.625512	1.188016	-0.476767
C107	C	-1.254477	0.597117	-0.938728
C108	C	-0.754477	1.097117	-0.438728
C109	C	-1.248379	0.601424	-0.846313
C110	C	-0.748379	1.101424	-0.346313
C111	C	-1.180844	0.649027	-0.819129
C112	C	-0.680844	1.149027	-0.319129
C113	C	-1.174743	0.653327	-0.726711
C114	C	-0.674743	1.153327	-0.226711
C115	C	-1.303711	0.562434	-0.688674
C116	C	-0.803711	1.062434	-0.188674
C117	C	-1.309809	0.558128	-0.781090
C118	C	-0.809809	1.058128	-0.281090
C119	C	-1.199327	0.636042	-0.102388
C120	C	-0.699327	1.136042	0.397612
C121	C	-1.193041	0.640414	-0.003959
C122	C	-0.693041	1.140414	0.496041
H123	H	-0.568727	0.580026	-0.367912
H124	H	-0.068727	1.080026	0.132088
N125	N	-1.369980	0.515733	-0.618332
N126	N	-0.869980	1.015733	-0.118332
H127	H	-1.367605	0.450540	-0.623882
H128	H	-0.867605	0.950540	-0.123882
H129	H	-1.355837	0.525746	-0.555693
H130	H	-0.855837	1.025746	-0.055693
N131	N	-1.404177	1.144067	-0.096420
N132	N	-0.904177	1.644067	0.403580
H133	H	-1.406674	1.077847	-0.093264
H134	H	-0.906674	1.577847	0.406736
H135	H	-1.383990	1.160456	-0.038313
H136	H	-0.883990	1.660456	0.461687
N137	N	-0.613585	0.516578	-0.417683
N138	N	-0.113585	1.016578	0.082317
H139	H	-0.601751	0.467040	-0.456551
H140	H	-0.101751	0.967040	0.043449
H141	H	-0.583250	0.571473	-0.448889
H142	H	-0.083250	1.071473	0.051111
H143	H	-1.040575	1.097203	-0.548690
H144	H	-0.540575	1.597203	-0.048690
H145	H	-1.119745	0.692078	-0.704579
H146	H	-0.619745	1.192078	-0.204579
H147	H	-0.907240	0.460244	-0.461843
H148	H	-0.407240	0.960244	0.038157
H149	H	-0.742839	0.430476	-0.485230
H150	H	-0.242839	0.930476	0.014770
N151	N	-1.059250	0.734696	-1.047122
N152	N	-0.559250	1.234696	-0.547122
H153	H	-1.090525	0.779511	-1.088543
H154	H	-0.590525	1.279511	-0.588543
H155	H	-1.015557	0.765450	-1.015812
H156	H	-0.515557	1.265450	-0.515812
H157	H	-1.362051	1.317143	-0.148933
H158	H	-0.862051	1.817143	0.351067
H159	H	-1.255032	0.978726	-0.281811
H160	H	-0.755032	1.478726	0.218189
N161	N	-1.382649	0.506790	-0.810413
N162	N	-0.882649	1.006790	-0.310413
H163	H	-1.377193	0.510632	-0.878855
H164	H	-0.877193	1.010632	-0.378855
H165	H	-1.378113	0.443119	-0.783731
H166	H	-0.878113	0.943119	-0.283731
N167	N	-1.046569	0.743649	-0.855022
N168	N	-0.546569	1.243649	-0.355022
H169	H	-1.008574	0.770420	-0.910365
H170	H	-0.508574	1.270420	-0.410365
H171	H	-1.072849	0.791995	-0.819731
H172	H	-0.572849	1.291995	-0.319731
N173	N	-0.964842	0.700939	-0.273091
N174	N	-0.464842	1.200939	0.226909
H175	H	-0.996660	0.659325	-0.305780
H176	H	-0.496660	1.159325	0.194220
H177	H	-0.985234	0.691713	-0.206088
H178	H	-0.485234	1.191713	0.293912
H179	H	-0.835595	0.786984	-0.205471
H180	H	-0.335595	1.286984	0.294529
N181	N	-0.695559	0.837949	-0.165521
N182	N	-0.195559	1.337949	0.334479
H183	H	-0.761772	0.840771	-0.163291
H184	H	-0.261772	1.340771	0.336709
H185	H	-0.677735	0.824418	-0.101866
H186	H	-0.177735	1.324418	0.398134
N187	N	-0.507208	0.803850	-0.192292
N188	N	-0.007208	1.303850	0.307708
H189	H	-0.444857	0.783407	-0.208349
H190	H	0.055143	1.283407	0.291651
H191	H	-0.513918	0.868082	-0.216160
H192	H	-0.013918	1.368082	0.283840
H193	H	-1.307808	1.047483	-0.216209
H194	H	-0.807808	1.547483	0.283791
N195	N	-1.147362	1.374995	-0.416057
N196	N	-0.647362	1.874995	0.083943
H197	H	-1.184528	1.406776	-0.369853
H198	H	-0.684528	1.906776	0.130147
H199	H	-1.083231	1.386793	-0.412607
H200	H	-0.583231	1.886793	0.087393
H201	H	-1.067054	0.932747	-0.515614
H202	H	-0.567054	1.432747	-0.015614
H203	H	-1.070464	1.245817	-0.511592
H204	H	-0.570464	1.745817	-0.011592
N205	N	-1.327319	0.545787	-0.968058
N206	N	-0.827319	1.045787	-0.468058
H207	H	-1.321860	0.549635	-1.036501
H208	H	-0.821860	1.049635	-0.536501
H209	H	-1.322790	0.482114	-0.941381
H210	H	-0.822790	0.982114	-0.441381
