data_functionalizedCrystal
_audit_creation_method	'MofGen! by Chris Wilmer'
_symmetry_space_group_name_H-M	'P1'
_symmetry_Int_Tables_number	1
_symmetry_cell_setting	triclinic
loop_
_symmetry_equiv_pos_as_xyz
  x,y,z
_cell_length_a	21.395364
_cell_length_b	12.759401
_cell_length_c	21.395361
_cell_angle_alpha	90.015573
_cell_angle_beta	90.045659
_cell_angle_gamma	90.008753
loop_
_atom_site_label
_atom_site_type_symbol
_atom_site_fract_x
_atom_site_fract_y
_atom_site_fract_z
Zn1	Zn	0.957761	0.594015	-0.249298
Zn2	Zn	1.457761	1.094015	0.250702
Zn3	Zn	0.957693	0.418311	-0.354047
Zn4	Zn	1.457693	0.918311	0.145953
Zn5	Zn	0.853005	0.418344	-0.249315
Zn6	Zn	1.353005	0.918344	0.250685
Zn7	Zn	0.852946	0.593943	-0.354069
Zn8	Zn	1.352946	1.093943	0.145931
O9	O	0.905351	0.506153	-0.301682
O10	O	1.405351	1.006153	0.198318
O11	O	1.045430	0.570723	-0.263177
O12	O	1.545430	1.070723	0.236823
O13	O	0.943802	0.271295	-0.340152
O14	O	1.443802	0.771295	0.159848
O15	O	0.866955	0.441691	-0.161634
O16	O	1.366955	0.941691	0.338366
O17	O	1.045380	0.441635	-0.340136
O18	O	1.545380	0.941635	0.159864
O19	O	0.943919	0.570755	-0.161622
O20	O	1.443919	1.070755	0.338378
O21	O	0.866889	0.271319	-0.263205
O22	O	1.366889	0.771319	0.236795
O23	O	0.765320	0.441622	-0.263227
O24	O	1.265320	0.941622	0.236773
O25	O	0.866853	0.740973	-0.340173
O26	O	1.366853	1.240973	0.159827
O27	O	0.765276	0.570633	-0.340189
O28	O	1.265276	1.070633	0.159811
O29	O	0.943861	0.741026	-0.263198
O30	O	1.443861	1.241026	0.236802
O31	O	0.943744	0.441565	-0.441728
O32	O	1.443744	0.941565	0.058272
O33	O	0.866787	0.570601	-0.441744
O34	O	1.366787	1.070601	0.058256
C35	C	0.742564	0.506124	-0.301713
C36	C	1.242564	1.006124	0.198287
C37	C	0.672922	0.506136	-0.301741
C38	C	1.172922	1.006136	0.198259
C39	C	0.640258	0.573456	-0.261734
C40	C	1.140258	1.073456	0.238266
C41	C	0.574823	0.573460	-0.261717
C42	C	1.074823	1.073460	0.238283
C43	C	0.542054	0.506155	-0.301719
C44	C	1.042054	1.006155	0.198281
C45	C	0.574727	0.438822	-0.341728
C46	C	1.074727	0.938822	0.158272
C47	C	0.640161	0.438812	-0.341739
C48	C	1.140161	0.938812	0.158261
C49	C	0.438331	0.497703	-0.358143
C50	C	0.938331	0.997703	0.141857
C51	C	0.372898	0.497720	-0.358133
C52	C	0.872898	0.997720	0.141867
C53	C	0.340233	0.506179	-0.301684
C54	C	0.840233	1.006179	0.198316
C55	C	0.373010	0.514642	-0.245244
C56	C	0.873010	1.014642	0.254756
C57	C	0.438444	0.514633	-0.245255
C58	C	0.938444	1.014633	0.254745
C59	C	0.471102	0.506158	-0.301711
C60	C	0.971102	1.006158	0.198289
C61	C	0.236616	0.573507	-0.261656
C62	C	0.736616	1.073507	0.238344
C63	C	0.171180	0.573503	-0.261638
C64	C	0.671180	1.073503	0.238362
C65	C	0.171085	0.438871	-0.341655
C66	C	0.671085	0.938871	0.158345
C67	C	0.236520	0.438868	-0.341667
C68	C	0.736520	0.938868	0.158333
C69	C	0.269282	0.506192	-0.301668
C70	C	0.769282	1.006192	0.198332
C71	C	0.905358	0.780187	-0.301686
C72	C	1.405358	1.280187	0.198314
C73	C	0.905361	0.896963	-0.301688
C74	C	1.405361	1.396963	0.198312
C75	C	0.945454	0.951854	-0.261614
C76	C	1.445454	1.451854	0.238386
C77	C	0.945449	1.061578	-0.261613
C78	C	1.445449	1.561578	0.238387
C79	C	0.865256	1.061511	-0.341765
C80	C	1.365256	1.561511	0.158235
C81	C	0.865259	0.951789	-0.341763
C82	C	1.365259	1.451789	0.158237
C83	C	0.967878	1.211574	-0.187720
C84	C	1.467878	1.711574	0.312280
C85	C	1.007981	1.266469	-0.147651
C86	C	1.507981	1.766469	0.352349
C87	C	1.069123	1.230883	-0.138020
C88	C	1.569123	1.730883	0.361980
C89	C	1.090176	1.140404	-0.168468
C90	C	1.590176	1.640404	0.331532
C91	C	1.050076	1.085515	-0.208541
C92	C	1.550076	1.585515	0.291459
C93	C	0.988925	1.121099	-0.218160
C94	C	1.488925	1.621099	0.281840
C95	C	0.842836	0.801791	-0.415657
C96	C	1.342836	1.301791	0.084343
C97	C	0.802739	0.746900	-0.455734
C98	C	1.302739	1.246900	0.044266
C99	C	0.741595	0.782483	-0.465371
C100	C	1.241595	1.282483	0.034629
C101	C	0.720545	0.872966	-0.434934
C102	C	1.220545	1.372966	0.065066
C103	C	0.760642	0.927857	-0.394857
C104	C	1.260642	1.427857	0.105143
C105	C	0.821785	0.892266	-0.385220
C106	C	1.321785	1.392266	0.114780
C107	C	1.068775	0.506184	-0.301652
C108	C	1.568775	1.006184	0.198348
C109	C	1.138416	0.506196	-0.301639
C110	C	1.638416	1.006196	0.198361
C111	C	0.905344	1.233186	-0.301692
C112	C	1.405344	1.733186	0.198308
C113	C	0.905353	1.116409	-0.301689
C114	C	1.405353	1.616409	0.198311
C115	C	0.905269	0.506095	-0.464470
C116	C	1.405269	1.006095	0.035530
C117	C	0.905291	0.506105	-0.534111
C118	C	1.405291	1.006105	-0.034111
C119	C	0.945398	0.438985	-0.566795
C120	C	1.445398	0.938985	-0.066795
C121	C	0.945427	0.439008	-0.632230
C122	C	1.445427	0.939008	-0.132230
C123	C	0.905338	0.506141	-0.664979
C124	C	1.405338	1.006141	-0.164979
C125	C	0.865228	0.573274	-0.632288
C126	C	1.365228	1.073274	-0.132288
C127	C	0.865204	0.573256	-0.566853
C128	C	1.365204	1.073256	-0.066853
C129	C	0.848922	0.514374	-0.768710
C130	C	1.348922	1.014374	-0.268710
C131	C	0.848944	0.514385	-0.834143
C132	C	1.348944	1.014385	-0.334143
C133	C	0.905411	0.506203	-0.866800
C134	C	1.405411	1.006203	-0.366800
C135	C	0.961856	0.497988	-0.834016
C136	C	1.461856	0.997988	-0.334016
C137	C	0.961833	0.497970	-0.768582
C138	C	1.461833	0.997970	-0.268582
C139	C	0.905359	0.506168	-0.735932
C140	C	1.405359	1.006168	-0.235932
C141	C	0.945553	0.439104	-0.970436
C142	C	1.445553	0.939104	-0.470436
C143	C	0.945583	0.439135	-1.035873
C144	C	1.445583	0.939135	-0.535873
C145	C	0.865378	0.573395	-1.035929
C146	C	1.365378	1.073395	-0.535929
C147	C	0.865354	0.573370	-0.970494
C148	C	1.365354	1.073370	-0.470494
C149	C	0.905440	0.506219	-0.937751
C150	C	1.405440	1.006219	-0.437751
C151	C	0.905451	0.506235	-0.138259
C152	C	1.405451	1.006235	0.361741
C153	C	0.905494	0.506270	-0.068617
C154	C	1.405494	1.006270	0.431383
H155	H	0.666756	0.383990	-0.374319
H156	H	1.166756	0.883990	0.125681
H157	H	0.346415	0.521530	-0.199278
H158	H	0.846415	1.021530	0.300722
O159	O	0.987594	1.354461	-0.118143
O160	O	1.487594	1.854461	0.381857
C161	C	1.025230	1.440226	-0.135729
C162	C	1.525230	1.940226	0.364271
H163	H	1.048271	1.423036	-0.182649
H164	H	1.548271	1.923036	0.317351
H165	H	0.995006	1.513458	-0.139961
H166	H	1.495006	2.013458	0.360039
H167	H	1.062846	1.453534	-0.098800
H168	H	1.562846	1.953534	0.401200
H169	H	0.978247	0.384480	-1.062483
H170	H	1.478247	0.884480	-0.562483
H171	H	1.007837	0.491325	-0.860604
H172	H	1.507837	0.991325	-0.360604
O173	O	0.826271	0.638602	-0.535170
O174	O	1.326271	1.138602	-0.035170
C175	C	0.839933	0.743342	-0.551100
C176	C	1.339933	1.243342	-0.051100
H177	H	0.864035	0.745575	-0.598580
H178	H	1.364035	1.245575	-0.098580
H179	H	0.794694	0.790384	-0.553377
H180	H	1.294694	1.290384	-0.053377
H181	H	0.872116	0.778763	-0.514224
H182	H	1.372116	1.278763	-0.014224
O183	O	0.139544	0.638999	-0.222752
O184	O	0.639544	1.138999	0.277248
C185	C	0.182496	0.698396	-0.187443
C186	C	0.682496	1.198396	0.312557
H187	H	0.229114	0.701948	-0.213120
H188	H	0.729114	1.201948	0.286880
H189	H	0.163606	0.781196	-0.180837
H190	H	0.663606	1.281196	0.319163
H191	H	0.189499	0.660076	-0.139821
H192	H	0.689499	1.160076	0.360179
H193	H	0.832740	0.628061	-1.062593
H194	H	1.332740	1.128061	-0.562593
H195	H	0.978107	0.907219	-0.228981
H196	H	1.478107	1.407219	0.271019
H197	H	0.263116	0.384053	-0.374247
H198	H	0.763116	0.884053	0.125753
H199	H	0.832692	0.628021	-0.943881
H200	H	1.332692	1.128021	-0.443881
O201	O	0.794062	0.522415	-0.865889
O202	O	1.294062	1.022415	-0.365889
C203	C	0.744218	0.529622	-0.823036
C204	C	1.244218	1.029622	-0.323036
H205	H	0.762454	0.560086	-0.776364
H206	H	1.262454	1.060086	-0.276364
H207	H	0.707351	0.585783	-0.841971
H208	H	1.207351	1.085783	-0.341971
H209	H	0.722543	0.448829	-0.816120
H210	H	1.222543	0.948829	-0.316120
H211	H	0.548042	0.384021	-0.374297
H212	H	1.048042	0.884021	0.125703
O213	O	0.702718	0.729015	-0.504305
O214	O	1.202718	1.229015	-0.004305
C215	C	0.734412	0.641544	-0.529124
C216	C	1.234412	1.141544	-0.029124
H217	H	0.774613	0.619110	-0.496790
H218	H	1.274613	1.119110	0.003210
H219	H	0.700609	0.572831	-0.533366
H220	H	1.200609	1.072831	-0.033366
H221	H	0.753641	0.661958	-0.577286
H222	H	1.253641	1.161958	-0.077286
H223	H	0.465127	0.521521	-0.199299
H224	H	0.965127	1.021521	0.300701
O225	O	0.984292	0.373727	-0.664050
O226	O	1.484292	0.873727	-0.164050
C227	C	0.948644	0.305818	-0.701935
C228	C	1.448644	0.805818	-0.201935
H229	H	0.901158	0.342832	-0.711785
H230	H	1.401158	0.842832	-0.211785
H231	H	0.974182	0.291752	-0.747922
H232	H	1.474182	0.791752	-0.247922
H233	H	0.941768	0.227958	-0.676733
H234	H	1.441768	0.727958	-0.176733
H235	H	1.067218	1.011852	-0.233333
H236	H	1.567218	1.511852	0.266667
O237	O	0.268475	0.639004	-0.222889
O238	O	0.768475	1.139004	0.277111
C239	C	0.306309	0.706730	-0.258632
C240	C	0.806309	1.206730	0.241368
H241	H	0.286539	0.713072	-0.307980
H242	H	0.786539	1.213072	0.192020
H243	H	0.307086	0.787652	-0.236046
H244	H	0.807086	1.287652	0.263954
H245	H	0.355893	0.674233	-0.260772
H246	H	0.855893	1.174233	0.239228
H247	H	1.139967	1.111442	-0.160628
H248	H	1.639967	1.611442	0.339372
H249	H	0.802936	0.521041	-0.742126
H250	H	1.302936	1.021041	-0.242126
O251	O	0.139235	0.373640	-0.380580
O252	O	0.639235	0.873640	0.119420
C253	C	0.101342	0.433333	-0.421087
C254	C	0.601342	0.933333	0.078913
H255	H	0.121067	0.516066	-0.425037
H256	H	0.621067	1.016066	0.074963
H257	H	0.100549	0.395186	-0.469270
H258	H	0.600549	0.895186	0.030730
H259	H	0.051770	0.437015	-0.401711
H260	H	0.551770	0.937015	0.098289
H261	H	1.101775	1.275586	-0.105395
H262	H	1.601775	1.775586	0.394605
H263	H	0.832588	0.627936	-0.658956
H264	H	1.332588	1.127936	-0.158956
H265	H	0.918089	1.240552	-0.195552
H266	H	1.418089	1.740552	0.304448
H267	H	0.346217	0.490833	-0.404090
H268	H	0.846217	0.990833	0.095910
O269	O	0.826364	1.114932	-0.380675
O270	O	1.326364	1.614932	0.119325
C271	C	0.834948	1.223547	-0.372075
C272	C	1.334948	1.723547	0.127925
H273	H	0.883314	1.238560	-0.351548
H274	H	1.383314	1.738560	0.148452
H275	H	0.830666	1.265221	-0.419008
H276	H	1.330666	1.765221	0.080992
H277	H	0.797804	1.254690	-0.338715
H278	H	1.297804	1.754690	0.161285
H279	H	0.666928	0.628276	-0.229164
H280	H	1.166928	1.128276	0.270836
O281	O	0.740086	1.015707	-0.365316
O282	O	1.240086	1.515707	0.134684
C283	C	0.677525	1.035366	-0.382427
C284	C	1.177525	1.535366	0.117573
H285	H	0.654811	0.959396	-0.398911
H286	H	1.154811	1.459396	0.101089
H287	H	0.650894	1.067151	-0.340368
H288	H	1.150894	1.567151	0.159632
H289	H	0.676283	1.095447	-0.421838
H290	H	1.176283	1.595447	0.078162
H291	H	0.670758	0.901942	-0.442783
H292	H	1.170758	1.401942	0.057217
H293	H	0.819886	0.673231	-0.480523
H294	H	1.319886	1.173231	0.019477
O295	O	0.902229	0.767121	-0.406399
O296	O	1.402229	1.267121	0.093601
C297	C	0.912210	0.675491	-0.441858
C298	C	1.412210	1.175491	0.058142
H299	H	0.877745	0.673197	-0.482497
H300	H	1.377745	1.173197	0.017503
H301	H	0.962006	0.675459	-0.460776
H302	H	1.462006	1.175459	0.039224
H303	H	0.904950	0.603723	-0.410975
H304	H	1.404950	1.103723	0.089025
H305	H	0.548222	0.628279	-0.229136
H306	H	1.048222	1.128279	0.270864
H307	H	0.978040	0.384309	-0.540138
H308	H	1.478040	0.884309	-0.040138
O309	O	1.016718	0.490039	-0.736833
O310	O	1.516718	0.990039	-0.236833
C311	C	1.066564	0.482792	-0.779682
C312	C	1.566564	0.982792	-0.279682
H313	H	1.051734	0.518082	-0.826335
H314	H	1.551734	1.018082	-0.326335
H315	H	1.108647	0.527479	-0.760713
H316	H	1.608647	1.027479	-0.260713
H317	H	1.079619	0.396960	-0.786645
H318	H	1.579619	0.896960	-0.286645
H319	H	0.978196	0.384429	-0.943776
H320	H	1.478196	0.884429	-0.443776
H321	H	0.464921	0.490814	-0.404113
H322	H	0.964921	0.990814	0.095887
