data_functionalizedCrystal
_audit_creation_method	'MofGen! by Chris Wilmer'
_symmetry_space_group_name_H-M	'P1'
_symmetry_Int_Tables_number	1
_symmetry_cell_setting	triclinic
loop_
_symmetry_equiv_pos_as_xyz
  x,y,z
_cell_length_a	12.759401
_cell_length_b	21.295417
_cell_length_c	12.759393
_cell_angle_alpha	89.961905
_cell_angle_beta	89.979062
_cell_angle_gamma	90.032032
loop_
_atom_site_label
_atom_site_type_symbol
_atom_site_fract_x
_atom_site_fract_y
_atom_site_fract_z
Zn1	Zn	1.606151	-0.250553	-0.593965
Zn2	Zn	1.605994	-0.355835	-0.418261
Zn3	Zn	1.430450	-0.250587	-0.418300
Zn4	Zn	1.430393	-0.355791	-0.593899
O5	O	1.518247	-0.303192	-0.506106
O6	O	1.753151	-0.264523	-0.570669
O7	O	1.582665	-0.341906	-0.271245
O8	O	1.453846	-0.162493	-0.441646
O9	O	1.753035	-0.341874	-0.441580
O10	O	1.582933	-0.162468	-0.570706
O11	O	1.453694	-0.264581	-0.271274
O12	O	1.283421	-0.264538	-0.441582
O13	O	1.453750	-0.341799	-0.740929
O14	O	1.283380	-0.341831	-0.570594
O15	O	1.582879	-0.264481	-0.740977
O16	O	1.582610	-0.443919	-0.441516
O17	O	1.453597	-0.443886	-0.570556
C18	C	1.245279	-0.303184	-0.506085
C19	C	1.128503	-0.303196	-0.506101
C20	C	1.518109	-0.466743	-0.506048
C21	C	1.518146	-0.536711	-0.506058
C22	C	1.073647	-0.343504	-0.573172
C23	C	0.963923	-0.343506	-0.573193
C24	C	0.963921	-0.262891	-0.439063
C25	C	1.073643	-0.262886	-0.439048
C26	C	1.585383	-0.569574	-0.438936
C27	C	1.585432	-0.635316	-0.438960
C28	C	1.518226	-0.668194	-0.506094
C29	C	1.450985	-0.635323	-0.573230
C30	C	1.450945	-0.569582	-0.573212
N31	N	1.426319	-0.771460	-0.514097
N32	N	1.426360	-0.833912	-0.514108
C33	C	1.518344	-0.866268	-0.506155
N34	N	1.610287	-0.833814	-0.498169
N35	N	1.610245	-0.771357	-0.498153
C36	C	1.518262	-0.739479	-0.506122
C37	C	1.585640	-0.970417	-0.439054
C38	C	1.585691	-1.036160	-0.439085
C39	C	1.451233	-1.036166	-0.573350
C40	C	1.451192	-0.970423	-0.573325
C41	C	1.518393	-0.937553	-0.506171
C42	C	1.792280	-0.303200	-0.506128
C43	C	1.909057	-0.303203	-0.506137
C44	C	1.518325	-0.303131	-0.780140
C45	C	1.518359	-0.303105	-0.896916
C46	C	1.518414	-0.139001	-0.506188
C47	C	1.518485	-0.069033	-0.506222
C48	C	1.585601	-0.262839	-0.951805
C49	C	1.585619	-0.262812	-1.061529
C50	C	1.451149	-0.343322	-1.061466
C51	C	1.451127	-0.343346	-0.951744
C52	C	1.518229	-0.303206	-0.233139
C53	C	1.518399	-0.303055	-0.116363
H54	H	0.919264	-0.376328	-0.627810
C55	C	1.133400	-0.387238	-0.645864
C56	C	1.241232	-0.378620	-0.631480
C57	C	1.296306	-0.418902	-0.698420
H58	H	1.115586	-0.378115	-0.716528
H59	H	1.115436	-0.429537	-0.630351
H60	H	1.259189	-0.336331	-0.647000
H61	H	1.259077	-0.387748	-0.560831
H62	H	1.278342	-0.461201	-0.682907
H63	H	1.278484	-0.409776	-0.769080
H64	H	1.369475	-0.413065	-0.688663
H65	H	0.919240	-0.230073	-0.384470
C66	C	1.658625	-0.219077	-0.892466
C67	C	1.717495	-0.183796	-0.964026
C68	C	1.784764	-0.143468	-0.909406
H69	H	1.704464	-0.243096	-0.849655
H70	H	1.618477	-0.191624	-0.849694
H71	H	1.757640	-0.211246	-1.006781
H72	H	1.671684	-0.159764	-1.006840
H73	H	1.744616	-0.116014	-0.866634
H74	H	1.830596	-0.167492	-0.866596
H75	H	1.824709	-0.119521	-0.957951
C76	C	1.378063	-0.934853	-0.646230
C77	C	1.319195	-0.977714	-0.705011
C78	C	1.251807	-0.944970	-0.772177
H79	H	1.418092	-0.909159	-0.692129
H80	H	1.332236	-0.909268	-0.606011
H81	H	1.365016	-1.003289	-0.745227
H82	H	1.279144	-1.003410	-0.659139
H83	H	1.205980	-0.919385	-0.731958
H84	H	1.291844	-0.919277	-0.818069
H85	H	1.211850	-0.974046	-0.812060
H86	H	1.118308	-0.230058	-0.384431
H87	H	1.396414	-0.376086	-1.106120
C88	C	1.658470	-0.534000	-0.366001
C89	C	1.717386	-0.576856	-0.307244
C90	C	1.784738	-0.544107	-0.240060
H91	H	1.618412	-0.508394	-0.320088
H92	H	1.704268	-0.508325	-0.406206
H93	H	1.671594	-0.602520	-0.267043
H94	H	1.757466	-0.602464	-0.353130
H95	H	1.830536	-0.518433	-0.280265
H96	H	1.744672	-0.518503	-0.194154
H97	H	1.824727	-0.573180	-0.200193
H98	H	1.640188	-0.662078	-0.384301
C99	C	1.658542	-0.934802	-0.365986
C100	C	1.635749	-0.950873	-0.262022
C101	C	1.702893	-0.918085	-0.194684
H102	H	1.648949	-0.890932	-0.375441
H103	H	1.729151	-0.945539	-0.381365
H104	H	1.565158	-0.940132	-0.246648
H105	H	1.645349	-0.994737	-0.252534
H106	H	1.773502	-0.928822	-0.210063
H107	H	1.693294	-0.874217	-0.204148
H108	H	1.687444	-0.928989	-0.124138
C109	C	1.378056	-0.671129	-0.646005
C110	C	1.392459	-0.735737	-0.631633
C111	C	1.325288	-0.768740	-0.698652
H112	H	1.393323	-0.660389	-0.716649
H113	H	1.307444	-0.660437	-0.630554
H114	H	1.463055	-0.746425	-0.647091
H115	H	1.377185	-0.746496	-0.561003
H116	H	1.254676	-0.758048	-0.683201
H117	H	1.340560	-0.757995	-0.769292
H118	H	1.335044	-0.812580	-0.688903
C119	C	1.377822	-0.534012	-0.646127
C120	C	1.318958	-0.576872	-0.704915
C121	C	1.251575	-0.544127	-0.772084
H122	H	1.417855	-0.508317	-0.692022
H123	H	1.331992	-0.508427	-0.605911
H124	H	1.364782	-0.602446	-0.745128
H125	H	1.278904	-0.602569	-0.659047
H126	H	1.205745	-0.518542	-0.731868
H127	H	1.291617	-0.518433	-0.817972
H128	H	1.211621	-0.573202	-0.811973
H129	H	1.640373	-0.230023	-1.106215
C130	C	1.658915	-1.071728	-0.366270
C131	C	1.762815	-1.055612	-0.389258
C132	C	1.830319	-1.088344	-0.322193
H133	H	1.649513	-1.115606	-0.375799
H134	H	1.643640	-1.060976	-0.295647
H135	H	1.778085	-1.066369	-0.459864
H136	H	1.772250	-1.011741	-0.379722
H137	H	1.815044	-1.077592	-0.251570
H138	H	1.820908	-1.132220	-0.331728
H139	H	1.900822	-1.077410	-0.337774
C140	C	1.378249	-0.387172	-0.892196
C141	C	1.401082	-0.449452	-0.918832
C142	C	1.333979	-0.489838	-0.863987
H143	H	1.307633	-0.378037	-0.910124
H144	H	1.387873	-0.381463	-0.818988
H145	H	1.391449	-0.455159	-0.992024
H146	H	1.471686	-0.458607	-0.900901
H147	H	1.343603	-0.484129	-0.790778
H148	H	1.263367	-0.480697	-0.881919
H149	H	1.349468	-0.532100	-0.882044
C150	C	1.378309	-1.071967	-0.646132
C151	C	1.392719	-1.136575	-0.631769
C152	C	1.325553	-1.169577	-0.698794
H153	H	1.393578	-1.061223	-0.716774
H154	H	1.307696	-1.061278	-0.630682
H155	H	1.463317	-1.147259	-0.647226
H156	H	1.377443	-1.147338	-0.561140
H157	H	1.254939	-1.158888	-0.683344
H158	H	1.340827	-1.158828	-0.769432
H159	H	1.335314	-1.213417	-0.689051
