data_functionalizedCrystal
_audit_creation_method	'MofGen! by Chris Wilmer'
_symmetry_space_group_name_H-M	'P1'
_symmetry_Int_Tables_number	1
_symmetry_cell_setting	triclinic
loop_
_symmetry_equiv_pos_as_xyz
  x,y,z
_cell_length_a	17.019330
_cell_length_b	17.000371
_cell_length_c	12.376457
_cell_angle_alpha	100.368332
_cell_angle_beta	105.060036
_cell_angle_gamma	100.491333
loop_
_atom_site_label
_atom_site_type_symbol
_atom_site_fract_x
_atom_site_fract_y
_atom_site_fract_z
O1	O	-1.073827	0.069207	-0.198553
O2	O	-0.573827	0.569207	0.301447
O3	O	-0.839336	0.085835	-0.175725
O4	O	-0.339336	0.585835	0.324275
O5	O	-0.971141	-0.038590	-0.188548
O6	O	-0.471141	0.461410	0.311452
O7	O	-0.942023	0.193632	-0.185730
O8	O	-0.442023	0.693632	0.314270
O9	O	-0.938203	-0.007526	0.002668
O10	O	-0.438203	0.492474	0.502668
O11	O	-0.806399	0.116899	0.015491
O12	O	-0.306399	0.616899	0.515491
O13	O	-1.040890	0.100271	-0.007336
O14	O	-0.540890	0.600271	0.492664
Zn15	Zn	-0.918415	0.113517	0.034437
Zn16	Zn	-0.418415	0.613517	0.534437
Zn17	Zn	-0.961811	0.072589	-0.217499
Zn18	Zn	-0.461811	0.572589	0.282501
O19	O	-0.909086	0.224696	0.005487
O20	O	-0.409086	0.724696	0.505487
C21	C	-0.793012	0.101347	-0.077210
C22	C	-0.293012	0.601347	0.422790
C23	C	-0.704054	0.101279	-0.068550
C24	C	-0.204054	0.601279	0.431450
C25	C	-0.956236	-0.052738	-0.093093
C26	C	-0.456236	0.447262	0.406907
C27	C	-0.960887	-0.141175	-0.093547
C28	C	-0.460887	0.358825	0.406453
C29	C	-0.200014	0.101769	-0.014342
C30	C	0.299986	0.601769	0.485658
C31	C	-0.283601	0.101833	-0.022482
C32	C	0.216399	0.601833	0.477518
C33	C	-0.343350	0.084925	-0.130786
C34	C	0.156650	0.584925	0.369214
C35	C	-0.319508	0.067961	-0.230956
C36	C	0.180492	0.567961	0.269044
C37	C	-0.235921	0.067903	-0.222816
C38	C	0.264079	0.567903	0.277184
C39	C	-0.596625	0.084257	-0.160580
C40	C	-0.096625	0.584257	0.339420
C41	C	-0.680216	0.084314	-0.168713
C42	C	-0.180216	0.584314	0.331287
C43	C	-0.644303	0.118187	0.039762
C44	C	-0.144303	0.618187	0.539762
C45	C	-0.560718	0.118123	0.047893
C46	C	-0.060718	0.618123	0.547893
C47	C	-0.536882	0.101163	-0.052277
C48	C	-0.036882	0.601163	0.447723
C49	C	-0.428790	0.084987	-0.139108
C50	C	0.071210	0.584987	0.360892
C51	C	-0.451442	0.101107	-0.043953
C52	C	0.048558	0.601107	0.456047
C53	C	-0.889315	-0.171993	-0.086584
C54	C	-0.389315	0.328007	0.413416
C55	C	-0.893690	-0.255090	-0.087007
C56	C	-0.393690	0.244910	0.412993
C57	C	-0.969638	-0.307368	-0.094400
C58	C	-0.469638	0.192632	0.405600
C59	C	-1.041215	-0.276545	-0.101360
C60	C	-0.541215	0.223455	0.398640
C61	C	-1.036838	-0.193448	-0.100929
C62	C	-0.536838	0.306552	0.399071
C63	C	-0.986541	-0.558801	-0.096054
C64	C	-0.486541	-0.058801	0.403946
C65	C	-0.990913	-0.641902	-0.096488
C66	C	-0.490913	-0.141902	0.403512
C67	C	-0.843387	-0.620441	-0.082132
C68	C	-0.343387	-0.120441	0.417868
C69	C	-0.839018	-0.537346	-0.081709
C70	C	-0.339018	-0.037346	0.418291
C71	C	-0.910594	-0.506528	-0.088662
C72	C	-0.410594	-0.006528	0.411338
C73	C	-0.974112	-0.392307	-0.094836
C74	C	-0.474112	0.107693	0.405164
C75	C	-0.906118	-0.421590	-0.088218
C76	C	-0.406118	0.078410	0.411782
C77	C	-0.087215	0.084753	-0.105850
C78	C	0.412785	0.584753	0.394150
C79	C	-0.176177	0.084804	-0.114505
C80	C	0.323823	0.584804	0.385495
C81	C	-0.923991	0.238844	-0.089971
C82	C	-0.423991	0.738844	0.410029
C83	C	-0.919341	0.327280	-0.089525
C84	C	-0.419341	0.827280	0.410475
N85	N	-0.888804	0.141449	0.206376
N86	N	-0.388804	0.641449	0.706376
N87	N	-0.991429	0.044650	-0.389439
N88	N	-0.491429	0.544650	0.110561
C89	C	-1.060166	-0.020205	0.544690
C90	C	-0.560166	0.479795	1.044690
C91	C	-1.080886	-0.039755	0.424334
C92	C	-0.580886	0.460245	0.924334
C93	C	-1.032867	0.005544	0.369839
C94	C	-0.532867	0.505544	0.869839
C95	C	-0.964125	0.070397	0.435711
C96	C	-0.464125	0.570397	0.935711
C97	C	-0.943407	0.089953	0.556078
C98	C	-0.443407	0.589953	1.056078
C99	C	-0.916108	0.115702	0.381227
C100	C	-0.416108	0.615702	0.881227
C101	C	-0.847366	0.180555	0.447099
C102	C	-0.347366	0.680555	0.947099
C103	C	-0.826651	0.200107	0.567454
C104	C	-0.326651	0.700107	1.067454
C105	C	-0.874670	0.154808	0.621950
C106	C	-0.374670	0.654808	1.121950
C107	C	-0.936826	0.096146	0.260860
C108	C	-0.436826	0.596146	0.760860
C109	C	-0.820067	0.206305	0.272248
C110	C	-0.320067	0.706305	0.772248
C111	C	-0.799347	0.225854	0.392604
C112	C	-0.299347	0.725854	0.892604
H113	H	-0.151370	0.115541	0.073851
H114	H	0.348630	0.615541	0.573851
F115	F	-1.054939	-0.447951	-0.102701
F116	F	-0.554939	0.052049	0.397299
H117	H	-0.777173	-0.494786	-0.075691
H118	H	-0.277173	0.005214	0.424309
H119	H	-0.402790	0.114878	0.044227
H120	H	0.097210	0.614878	0.544227
F121	F	-0.767216	-0.653246	-0.074731
F122	F	-0.267216	-0.153246	0.425269
F123	F	-1.071753	-0.697542	-0.104364
F124	F	-0.571753	-0.197542	0.395636
F125	F	-0.492388	0.066985	-0.254371
F126	F	0.007612	0.566985	0.245629
H127	H	-1.099261	-0.057078	0.589068
H128	H	-0.599261	0.442922	1.089068
F129	F	-0.753497	0.269137	0.637560
F130	F	-0.253497	0.769137	1.137560
F131	F	-0.808481	-0.116363	-0.078722
F132	F	-0.308481	0.383637	0.421278
F133	F	-0.308965	0.119894	0.084126
F134	F	0.191035	0.619894	0.584126
H135	H	-0.512077	0.131874	0.136085
H136	H	-0.012077	0.631874	0.636085
F137	F	-1.113014	-0.160649	-0.108330
F138	F	-0.613014	0.339351	0.391670
F139	F	-0.825290	-0.365949	-0.080344
F140	F	-0.325290	0.134051	0.419656
F141	F	-1.154044	-0.108772	0.354232
F142	F	-0.654044	0.391228	0.854232
H143	H	-0.857798	0.170723	0.719953
H144	H	-0.357798	0.670723	1.219953
F145	F	-0.817513	-0.287884	-0.079598
F146	F	-0.317513	0.212116	0.420402
H147	H	-0.743376	0.278659	0.446252
H148	H	-0.243376	0.778659	0.946252
H149	H	-0.216515	0.054090	-0.304379
H150	H	0.283485	0.554090	0.195621
F151	F	-0.669678	0.136241	0.146363
F152	F	-0.169678	0.636241	0.646363
H153	H	-0.780967	0.243193	0.227879
H154	H	-0.280967	0.743193	0.727879
F155	F	-1.009984	0.027128	0.190768
F156	F	-0.509984	0.527128	0.690768
F157	F	-1.054920	-0.015265	0.241745
F158	F	-0.554920	0.484735	0.741745
H159	H	-0.728863	0.070551	-0.256912
H160	H	-0.228863	0.570551	0.243088
F161	F	-0.383099	0.049968	-0.346222
F162	F	0.116901	0.549968	0.153778
F163	F	-0.571268	0.066203	-0.267192
F164	F	-0.071268	0.566203	0.232808
H165	H	-1.044824	-0.533720	-0.101719
H166	H	-0.544824	-0.033720	0.398281
H167	H	-1.103053	-0.319115	-0.107373
H168	H	-0.603053	0.180885	0.392627
