data_functionalizedCrystal
_audit_creation_method	'MofGen! by Chris Wilmer'
_symmetry_space_group_name_H-M	'P1'
_symmetry_Int_Tables_number	1
_symmetry_cell_setting	triclinic
loop_
_symmetry_equiv_pos_as_xyz
  x,y,z
_cell_length_a	6.817900
_cell_length_b	14.125469
_cell_length_c	16.255661
_cell_angle_alpha	95.870770
_cell_angle_beta	103.488922
_cell_angle_gamma	100.398878
loop_
_atom_site_label
_atom_site_type_symbol
_atom_site_fract_x
_atom_site_fract_y
_atom_site_fract_z
V1	V	-4.010936	-0.133890	-0.263542
O2	O	-4.014854	0.005634	-0.258862
O3	O	-3.947073	-0.264713	-0.261416
O4	O	-3.962699	-0.132182	-0.378630
O5	O	-3.999120	-0.127814	-0.140837
V6	V	-4.496546	-0.117160	-0.248905
O7	O	-4.267615	-0.170589	-0.295650
O8	O	-4.690064	-0.080461	-0.216797
O9	O	-4.337203	0.013662	-0.251031
O10	O	-4.610025	-0.256684	-0.253585
O11	O	-4.625759	-0.123236	-0.371610
O12	O	-4.321576	-0.118869	-0.133818
C13	C	-3.788307	-0.296593	-0.257175
C14	C	-3.817379	-0.403545	-0.256204
C15	C	-3.870675	-0.599365	-0.254439
C16	C	-4.056174	-0.651697	-0.258011
C17	C	-4.085830	-0.760658	-0.257029
C18	C	-3.841011	-0.490394	-0.255421
C19	C	-3.808239	-0.127536	-0.406692
C20	C	-3.849981	-0.127004	-0.500774
C21	C	-3.761285	-0.120657	-0.723608
C22	C	-3.908049	-0.202574	-0.792883
C23	C	-3.926483	-0.126008	-0.673025
C24	C	-3.854120	-0.043154	-0.771390
C25	C	-4.000365	-0.125041	-0.839411
C26	C	-4.072720	-0.207998	-0.741070
C27	C	-4.018737	-0.048505	-0.719561
C28	C	-4.165635	-0.130445	-0.788817
C29	C	-3.883916	-0.126566	-0.577175
C30	C	-4.042948	-0.124491	-0.935261
C31	C	-4.159310	0.045538	-0.255270
C32	C	-4.109476	0.152488	-0.256246
C33	C	-4.139379	-0.123518	-0.105751
C34	C	-4.076875	-0.124044	-0.011668
H35	H	-3.590007	-0.116625	-0.695138
C36	C	-3.686224	-0.649375	-0.249302
H37	H	-3.565931	-0.602215	-0.247192
H38	H	-3.664803	-0.679449	-0.199216
H39	H	-3.714142	-0.697315	-0.298341
C40	C	-3.729824	0.050963	-0.789966
H41	H	-3.821940	0.086308	-0.820039
H42	H	-3.650108	0.089717	-0.737542
H43	H	-3.640753	0.034919	-0.823794
C44	C	-4.240633	-0.601685	-0.263135
H45	H	-4.360923	-0.648851	-0.265251
H46	H	-4.212706	-0.553746	-0.214101
H47	H	-4.262083	-0.571612	-0.313227
H48	H	-3.861701	-0.267711	-0.824809
H49	H	-4.164719	-0.277739	-0.727432
C50	C	-4.397148	-0.136064	-0.827107
H51	H	-4.474776	-0.194638	-0.816952
H52	H	-4.437070	-0.081883	-0.801016
H53	H	-4.422427	-0.135160	-0.886990
C54	C	-4.081234	0.039491	-0.676392
H55	H	-4.003027	0.097989	-0.686407
H56	H	-4.223978	0.036626	-0.699572
H57	H	-4.055196	0.038158	-0.616551
