data_functionalizedCrystal
_audit_creation_method	'MofGen! by Chris Wilmer'
_symmetry_space_group_name_H-M	'P1'
_symmetry_Int_Tables_number	1
_symmetry_cell_setting	triclinic
loop_
_symmetry_equiv_pos_as_xyz
  x,y,z
_cell_length_a	16.959455
_cell_length_b	13.897441
_cell_length_c	16.959454
_cell_angle_alpha	89.973005
_cell_angle_beta	90.017095
_cell_angle_gamma	89.975321
loop_
_atom_site_label
_atom_site_type_symbol
_atom_site_fract_x
_atom_site_fract_y
_atom_site_fract_z
Zn1	Zn	1.208417	-0.545555	-0.314727
Zn2	Zn	1.708417	-0.045555	0.185273
Zn3	Zn	1.208330	-0.384264	-0.446920
Zn4	Zn	1.708330	0.115736	0.053080
Zn5	Zn	1.076236	-0.384257	-0.314752
Zn6	Zn	1.576236	0.115743	0.185248
Zn7	Zn	1.076211	-0.545500	-0.446860
Zn8	Zn	1.576211	-0.045500	0.053140
O9	O	1.142298	-0.464894	-0.380815
O10	O	1.642298	0.035106	0.119185
O11	O	1.319017	-0.524186	-0.332277
O12	O	1.819017	-0.024186	0.167723
O13	O	1.190781	-0.249281	-0.429423
O14	O	1.690781	0.250719	0.070577
O15	O	1.093817	-0.405673	-0.204138
O16	O	1.593817	0.094327	0.295862
O17	O	1.318952	-0.405686	-0.429398
O18	O	1.818952	0.094314	0.070602
O19	O	1.190930	-0.524179	-0.204119
O20	O	1.690930	-0.024179	0.295881
O21	O	1.093733	-0.249276	-0.332320
O22	O	1.593733	0.250724	0.167680
O23	O	0.965622	-0.405619	-0.332262
O24	O	1.465622	0.094381	0.167738
O25	O	1.093774	-0.680489	-0.429297
O26	O	1.593774	-0.180489	0.070703
O27	O	0.965603	-0.524084	-0.429322
O28	O	1.465603	-0.024084	0.070678
O29	O	1.190906	-0.680530	-0.332219
O30	O	1.690906	-0.180530	0.167781
O31	O	1.190757	-0.405632	-0.557523
O32	O	1.690757	0.094368	-0.057523
O33	O	1.093689	-0.524091	-0.557479
O34	O	1.593689	-0.024091	-0.057479
C35	C	0.936932	-0.464845	-0.380789
C36	C	1.436932	0.035155	0.119211
C37	C	0.849076	-0.464847	-0.380797
C38	C	1.349076	0.035153	0.119203
C39	C	0.477556	-0.403160	-0.431336
C40	C	0.977556	0.096840	0.068664
C41	C	0.477644	-0.526746	-0.330359
C42	C	0.977644	-0.026746	0.169641
C43	C	0.560190	-0.526722	-0.330346
C44	C	1.060190	-0.026722	0.169654
C45	C	0.601423	-0.464918	-0.380830
C46	C	1.101423	0.035082	0.119170
C47	C	0.560109	-0.403136	-0.431326
C48	C	1.060109	0.096864	0.068674
C49	C	0.601509	-0.588509	-0.279856
C50	C	1.101509	-0.088509	0.220144
C51	C	0.684060	-0.588489	-0.279842
C52	C	1.184060	-0.088489	0.220158
C53	C	0.725294	-0.526679	-0.330322
C54	C	1.225294	-0.026679	0.169678
C55	C	0.683976	-0.464894	-0.380820
C56	C	1.183976	0.035106	0.119180
C57	C	0.725209	-0.403089	-0.431303
C58	C	1.225209	0.096911	0.068697
C59	C	0.683892	-0.341299	-0.481798
C60	C	1.183892	0.158701	0.018202
C61	C	0.601344	-0.341326	-0.481806
C62	C	1.101344	0.158674	0.018194
C63	C	0.807843	-0.526652	-0.330314
C64	C	1.307843	-0.026652	0.169686
C65	C	0.807762	-0.403066	-0.431293
C66	C	1.307762	0.096934	0.068707
C67	C	1.142347	-0.716487	-0.380748
C68	C	1.642347	-0.216487	0.119252
C69	C	1.142367	-0.823701	-0.380720
C70	C	1.642367	-0.323701	0.119280
C71	C	1.142384	-0.910771	-0.380698
C72	C	1.642384	-0.410771	0.119302
C73	C	1.142406	-1.020003	-0.380662
C74	C	1.642406	-0.520003	0.119338
C75	C	1.348467	-0.464943	-0.380841
C76	C	1.848467	0.035057	0.119159
C77	C	1.436323	-0.464964	-0.380852
C78	C	1.936323	0.035036	0.119148
C79	C	1.142232	-0.464877	-0.586181
C80	C	1.642232	0.035123	-0.086181
C81	C	1.142276	-0.464903	-0.674038
C82	C	1.642276	0.035097	-0.174038
C83	C	1.142296	-0.214280	-0.380824
C84	C	1.642296	0.285720	0.119176
C85	C	1.142428	-0.107066	-0.380629
C86	C	1.642428	0.392934	0.119371
C87	C	1.091829	-0.526569	-1.045520
C88	C	1.591829	-0.026569	-0.545520
C89	C	1.192988	-0.403317	-1.045506
C90	C	1.692988	0.096683	-0.545506
C91	C	1.192961	-0.403308	-0.962960
C92	C	1.692961	0.096692	-0.462960
C93	C	1.142366	-0.464930	-0.921691
C94	C	1.642366	0.035070	-0.421691
C95	C	1.091798	-0.526560	-0.962967
C96	C	1.591798	-0.026560	-0.462967
C97	C	1.243522	-0.341672	-0.921678
C98	C	1.743522	0.158328	-0.421678
C99	C	1.243496	-0.341660	-0.839127
C100	C	1.743496	0.158340	-0.339127
C101	C	1.192904	-0.403287	-0.797856
C102	C	1.692904	0.096713	-0.297856
C103	C	1.142335	-0.464921	-0.839137
C104	C	1.642335	0.035079	-0.339137
C105	C	1.091739	-0.526542	-0.797867
C106	C	1.591739	-0.026542	-0.297867
C107	C	1.041174	-0.588181	-0.839147
C108	C	1.541174	-0.088181	-0.339147
C109	C	1.041206	-0.588187	-0.921696
C110	C	1.541206	-0.088187	-0.421696
C111	C	1.192871	-0.403281	-0.715307
C112	C	1.692871	0.096719	-0.215307
C113	C	1.091709	-0.526533	-0.715314
C114	C	1.591709	-0.026533	-0.215314
C115	C	1.142386	-0.464932	-0.174647
C116	C	1.642386	0.035068	0.325353
C117	C	1.142424	-0.464948	-0.086790
C118	C	1.642424	0.035052	0.413210
H119	H	0.841479	-0.576963	-0.289203
H120	H	1.341479	-0.076963	0.210797
H121	H	1.050510	-0.576717	-0.681717
H122	H	1.550510	-0.076717	-0.181717
Br123	Br	0.863715	-0.319175	-0.499804
Br124	Br	1.363715	0.180825	0.000196
H125	H	0.567932	-0.638833	-0.238760
H126	H	1.067932	-0.138833	0.261240
Br127	Br	0.740126	-0.672345	-0.211316
Br128	Br	1.240126	-0.172345	0.288684
Br129	Br	1.261649	-0.319691	-1.101515
Br130	Br	1.761649	0.180309	-0.601515
H131	H	1.050662	-0.576757	-1.079134
H132	H	1.550662	-0.076757	-0.579134
H133	H	1.284708	-0.291496	-0.955285
H134	H	1.784708	0.208504	-0.455285
Br135	Br	0.972505	-0.671800	-0.783129
Br136	Br	1.472505	-0.171800	-0.283129
H137	H	1.284669	-0.291472	-0.805522
H138	H	1.784669	0.208528	-0.305522
H139	H	0.717474	-0.290983	-0.522905
H140	H	1.217474	0.209017	-0.022905
Br141	Br	0.545267	-0.257476	-0.550329
Br142	Br	1.045267	0.242524	-0.050329
Br143	Br	0.421487	-0.319299	-0.499855
Br144	Br	0.921487	0.180701	0.000145
H145	H	0.444068	-0.577070	-0.289262
H146	H	0.944068	-0.077070	0.210738
Br147	Br	0.972587	-0.671832	-0.977722
Br148	Br	1.472587	-0.171832	-0.477722
H149	H	1.234038	-0.353091	-0.681701
H150	H	1.734038	0.146909	-0.181701
