data_functionalizedCrystal
_audit_creation_method	'MofGen! by Chris Wilmer'
_symmetry_space_group_name_H-M	'P1'
_symmetry_Int_Tables_number	1
_symmetry_cell_setting	triclinic
loop_
_symmetry_equiv_pos_as_xyz
  x,y,z
_cell_length_a	18.215407
_cell_length_b	16.625546
_cell_length_c	18.215407
_cell_angle_alpha	90.013442
_cell_angle_beta	90.010236
_cell_angle_gamma	90.022916
loop_
_atom_site_label
_atom_site_type_symbol
_atom_site_fract_x
_atom_site_fract_y
_atom_site_fract_z
Zn1	Zn	1.125015	-0.321125	0.416109
Zn2	Zn	1.458348	0.012208	0.749443
Zn3	Zn	1.791681	0.345541	1.082776
Zn4	Zn	1.124949	-0.455929	0.293040
Zn5	Zn	1.458282	-0.122595	0.626374
Zn6	Zn	1.791615	0.210738	0.959707
Zn7	Zn	1.001968	-0.321115	0.293057
Zn8	Zn	1.335301	0.012219	0.626390
Zn9	Zn	1.668634	0.345552	0.959723
Zn10	Zn	1.001918	-0.455921	0.416065
Zn11	Zn	1.335252	-0.122588	0.749399
Zn12	Zn	1.668585	0.210746	1.082732
O13	O	1.063462	-0.388522	0.354568
O14	O	1.396796	-0.055189	0.687901
O15	O	1.730129	0.278144	1.021235
O16	O	1.227990	-0.339015	0.399796
O17	O	1.561323	-0.005682	0.733129
O18	O	1.894657	0.327652	1.066462
O19	O	1.108628	-0.438044	0.190058
O20	O	1.441962	-0.104711	0.523392
O21	O	1.775295	0.228622	0.856725
O22	O	1.018338	-0.208284	0.309405
O23	O	1.351672	0.125049	0.642739
O24	O	1.685005	0.458383	0.976072
O25	O	1.227942	-0.438055	0.309377
O26	O	1.561275	-0.104721	0.642711
O27	O	1.894608	0.228612	0.976044
O28	O	1.108740	-0.208292	0.399811
O29	O	1.442074	0.125042	0.733145
O30	O	1.775407	0.458375	1.066478
O31	O	1.018275	-0.338997	0.190070
O32	O	1.351608	-0.005664	0.523404
O33	O	1.684941	0.327670	0.856737
O34	O	0.898977	-0.338989	0.309363
O35	O	1.232310	-0.005656	0.642696
O36	O	1.565644	0.327677	0.976029
O37	O	1.018254	-0.438041	0.519055
O38	O	1.351587	-0.104708	0.852389
O39	O	1.684921	0.228626	1.185722
O40	O	0.898941	-0.438031	0.399736
O41	O	1.232274	-0.104697	0.733070
O42	O	1.565607	0.228636	1.066403
O43	O	1.108692	-0.339008	0.519088
O44	O	1.442026	-0.005674	0.852421
O45	O	1.775359	0.327659	1.185754
O46	O	1.108580	-0.568760	0.309335
O47	O	1.441914	-0.235427	0.642668
O48	O	1.775247	0.097907	0.976001
O49	O	1.018190	-0.568754	0.399721
O50	O	1.351524	-0.235421	0.733054
O51	O	1.684857	0.097912	1.066387
C52	C	0.872256	-0.388509	0.354547
C53	C	1.205589	-0.055175	0.687880
C54	C	1.538923	0.278158	1.021214
C55	C	0.790457	-0.388522	0.354555
C56	C	1.123791	-0.055189	0.687889
C57	C	1.457124	0.278144	1.021222
C58	C	0.602264	-0.440174	0.401554
C59	C	0.935597	-0.106841	0.734887
C60	C	1.268930	0.226493	1.068221
C61	C	0.525405	-0.440177	0.401563
C62	C	0.858738	-0.106843	0.734896
C63	C	1.192071	0.226490	1.068230
C64	C	0.525413	-0.336885	0.307598
C65	C	0.858746	-0.003552	0.640931
C66	C	1.192080	0.329781	0.974265
C67	C	0.602270	-0.336879	0.307593
C68	C	0.935604	-0.003546	0.640927
C69	C	1.268937	0.329787	0.974260
C70	C	0.640694	-0.388528	0.354570
C71	C	0.974027	-0.055195	0.687903
C72	C	1.307360	0.278138	1.021237
C73	C	0.486978	-0.388537	0.354584
C74	C	0.820311	-0.055204	0.687917
C75	C	1.153644	0.278130	1.021251
C76	C	0.403644	-0.388539	0.354594
C77	C	0.736977	-0.055206	0.687927
C78	C	1.070311	0.278127	1.021260
C79	C	0.724033	-0.388525	0.354562
C80	C	1.057366	-0.055192	0.687895
C81	C	1.390699	0.278142	1.021228
C82	C	1.063393	-0.598013	0.354537
C83	C	1.396726	-0.264680	0.687871
C84	C	1.730059	0.068653	1.021204
C85	C	1.063430	-0.687634	0.354549
C86	C	1.396764	-0.354301	0.687882
C87	C	1.730097	-0.020968	1.021215
C88	C	1.063559	-1.015810	0.354625
C89	C	1.396892	-0.682477	0.687959
C90	C	1.730225	-0.349143	1.021292
C91	C	1.063521	-0.924502	0.354606
C92	C	1.396854	-0.591168	0.687939
C93	C	1.730187	-0.257835	1.021273
C94	C	1.063494	-0.851725	0.354587
C95	C	1.396827	-0.518392	0.687920
C96	C	1.730160	-0.185058	1.021253
C97	C	1.063457	-0.760411	0.354568
C98	C	1.396790	-0.427078	0.687901
C99	C	1.730124	-0.093744	1.021235
C100	C	1.255415	-0.388537	0.354590
C101	C	1.588749	-0.055204	0.687923
C102	C	1.922082	0.278130	1.021256
C103	C	1.337214	-0.388543	0.354599
C104	C	1.670547	-0.055210	0.687932
C105	C	2.003881	0.278124	1.021266
C106	C	1.063475	-0.388525	0.546521
C107	C	1.396808	-0.055191	0.879854
C108	C	1.730142	0.278142	1.213188
C109	C	1.063480	-0.388526	0.628320
C110	C	1.396814	-0.055192	0.961653
C111	C	1.730147	0.278141	1.294986
C112	C	1.063552	-0.178214	0.354615
C113	C	1.396886	0.155120	0.687948
C114	C	1.730219	0.488453	1.021282
C115	C	1.063591	-0.088592	0.354635
C116	C	1.396924	0.244741	0.687968
C117	C	1.730257	0.578074	1.021302
C118	C	1.110557	-0.336967	0.816532
C119	C	1.443890	-0.003634	1.149865
C120	C	1.777224	0.329699	1.483198
C121	C	1.110553	-0.336967	0.893390
C122	C	1.443886	-0.003633	1.226724
C123	C	1.777220	0.329700	1.560057
C124	C	1.016380	-0.440096	0.893346
C125	C	1.349713	-0.106762	1.226679
C126	C	1.683046	0.226571	1.560012
C127	C	1.016381	-0.440091	0.816488
C128	C	1.349714	-0.106758	1.149822
C129	C	1.683047	0.226575	1.483155
C130	C	1.063474	-0.388528	0.778083
C131	C	1.396807	-0.055195	1.111417
C132	C	1.730140	0.278138	1.444750
C133	C	1.063469	-0.388532	0.931799
C134	C	1.396802	-0.055199	1.265133
C135	C	1.730135	0.278134	1.598466
C136	C	1.063464	-0.388532	1.015133
C137	C	1.396797	-0.055199	1.348466
C138	C	1.730130	0.278134	1.681800
C139	C	1.063478	-0.388527	0.694744
C140	C	1.396811	-0.055194	1.028078
C141	C	1.730144	0.278140	1.361411
C142	C	1.063450	-0.388538	1.163362
C143	C	1.396783	-0.055204	1.496695
C144	C	1.730117	0.278129	1.830028
C145	C	1.063462	-0.388535	1.081563
C146	C	1.396795	-0.055202	1.414896
C147	C	1.730128	0.278132	1.748230
H148	H	0.633545	-0.482228	0.439807
H149	H	0.966879	-0.148895	0.773141
H150	H	1.300212	0.184439	1.106474
N151	N	0.483964	-0.281199	0.256921
N152	N	0.817297	0.052135	0.590255
N153	N	1.150631	0.385468	0.923588
H154	H	0.497349	-0.223602	0.268435
H155	H	0.830683	0.109731	0.601768
H156	H	1.164016	0.443065	0.935102
H157	H	0.429458	-0.289118	0.264078
H158	H	0.762792	0.044216	0.597412
H159	H	1.096125	0.377549	0.930745
N160	N	1.161327	-0.281346	0.934861
N161	N	1.494660	0.051988	1.268194
N162	N	1.827994	0.385321	1.601527
H163	H	1.191156	-0.248680	0.898867
H164	H	1.524489	0.084654	1.232200
H165	H	1.857822	0.417987	1.565533
H166	H	1.195372	-0.314162	0.966753
H167	H	1.528705	0.019172	1.300087
H168	H	1.862039	0.352505	1.633420
N169	N	0.483954	-0.495883	0.452235
N170	N	0.817288	-0.162550	0.785568
N171	N	1.150621	0.170783	1.118902
H172	H	0.519960	-0.528601	0.481990
H173	H	0.853293	-0.195268	0.815324
H174	H	1.186627	0.138066	1.148657
H175	H	0.452048	-0.533146	0.422216
H176	H	0.785381	-0.199813	0.755549
H177	H	1.118714	0.133520	1.088883
N178	N	1.161351	-0.281358	0.775110
N179	N	1.494685	0.051976	1.108444
N180	N	1.828018	0.385309	1.441777
H181	H	1.154214	-0.289182	0.720587
H182	H	1.487548	0.044151	1.053920
H183	H	1.820881	0.377484	1.387253
H184	H	1.213901	-0.293921	0.788559
H185	H	1.547235	0.039412	1.121893
H186	H	1.880568	0.372745	1.455226
H187	H	0.978034	-0.482078	0.785183
H188	H	1.311368	-0.148745	1.118516
H189	H	1.644701	0.184589	1.451849
N190	N	0.643727	-0.281163	0.256925
N191	N	0.977060	0.052170	0.590258
N192	N	1.310394	0.385504	0.923592
H193	H	0.607725	-0.248446	0.227165
H194	H	0.941058	0.084887	0.560498
H195	H	1.274392	0.418220	0.893831
H196	H	0.675603	-0.313917	0.222812
H197	H	1.008936	0.019416	0.556145
H198	H	1.342269	0.352749	0.889479
N199	N	0.965578	-0.495696	0.934768
N200	N	1.298911	-0.162362	1.268101
N201	N	1.632245	0.170971	1.601435
H202	H	0.972718	-0.487873	0.989291
H203	H	1.306052	-0.154539	1.322625
H204	H	1.639385	0.178794	1.655958
H205	H	0.976997	-0.553286	0.921327
H206	H	1.310330	-0.219952	1.254660
H207	H	1.643664	0.113381	1.587993
