data_functionalizedCrystal
_audit_creation_method	'MofGen! by Chris Wilmer'
_symmetry_space_group_name_H-M	'P1'
_symmetry_Int_Tables_number	1
_symmetry_cell_setting	triclinic
loop_
_symmetry_equiv_pos_as_xyz
  x,y,z
_cell_length_a	23.532407
_cell_length_b	14.971486
_cell_length_c	14.048226
_cell_angle_alpha	90.001501
_cell_angle_beta	89.988910
_cell_angle_gamma	96.768596
loop_
_atom_site_label
_atom_site_type_symbol
_atom_site_fract_x
_atom_site_fract_y
_atom_site_fract_z
O1	O	0.074216	-1.186163	-0.079061
O2	O	0.083104	-0.925669	-0.079088
O3	O	-0.004238	-1.063771	-0.079057
O4	O	0.161558	-1.048061	-0.079093
O5	O	-0.004243	-1.063755	0.079265
O6	O	0.083099	-0.925652	0.079233
O7	O	0.074211	-1.186146	0.079260
Zn8	Zn	0.078654	-1.055897	0.104383
Zn9	Zn	0.078661	-1.055919	-0.104212
O10	O	0.161553	-1.048044	0.079228
C11	C	0.082704	-0.892340	0.000069
C12	C	0.081513	-0.793056	0.000059
C13	C	-0.025458	-1.063363	0.000107
C14	C	-0.088680	-1.062160	0.000114
C15	C	0.074611	-1.219475	0.000101
C16	C	0.075802	-1.318760	0.000104
C17	C	-0.487466	-1.136342	0.000069
C18	C	-0.546871	-1.135224	0.000062
O19	O	-0.583321	-1.203992	0.000034
N20	N	-0.569849	-1.053123	0.000054
C21	C	-0.533418	-0.972133	0.000044
O22	O	-0.558417	-0.902196	0.000036
C23	C	-0.474014	-0.973251	0.000044
C24	C	-0.451040	-1.055358	0.000062
C25	C	-0.464491	-1.218442	0.000086
C26	C	-0.405090	-1.219559	0.000095
C27	C	-0.368664	-1.138576	0.000087
C28	C	-0.391639	-1.056475	0.000071
C29	C	-0.437584	-0.892263	0.000027
C30	C	-0.378177	-0.893388	0.000027
C31	C	-0.355203	-0.975495	0.000045
C32	C	-0.295812	-0.976609	0.000073
N33	N	-0.272834	-1.058711	0.000081
C34	C	-0.309260	-1.139694	0.000088
C35	C	-0.658170	-0.969791	0.000041
C36	C	-0.717573	-0.968671	0.000047
C37	C	-0.731022	-1.131763	0.000064
C38	C	-0.671618	-1.132882	0.000064
C39	C	-0.635193	-1.051892	0.000049
C40	C	-0.184513	-1.142034	0.000108
C41	C	-0.125106	-1.143143	0.000121
C42	C	-0.111663	-0.980052	0.000100
C43	C	-0.171064	-0.978942	0.000092
C44	C	-0.207489	-1.059940	0.000093
O45	O	-0.259327	-0.907878	0.000097
O46	O	-0.284253	-1.209619	0.000084
C47	C	0.182773	-1.048453	0.000063
C48	C	0.245996	-1.049655	0.000050
N49	N	0.078649	-1.055889	0.246744
C50	C	0.132824	-0.735288	0.000050
C51	C	0.131701	-0.642001	0.000064
C52	C	0.079267	-0.606482	0.000082
C53	C	0.027952	-0.664257	0.000094
C54	C	0.029075	-0.757543	0.000087
C55	C	0.025615	-0.469819	0.000108
C56	C	0.024491	-0.376527	0.000114
C57	C	0.128241	-0.354277	0.000085
C58	C	0.129364	-0.447563	0.000078
C59	C	0.078049	-0.505331	0.000089
N60	N	0.078661	-1.055934	-0.246572
C61	C	0.039990	-1.117059	0.296576
C62	C	0.039990	-1.117065	0.396234
C63	C	0.078652	-1.055904	0.446058
C64	C	0.117313	-0.994727	0.396218
C65	C	0.117310	-0.994717	0.296563
C66	C	0.117317	-0.994753	0.603933
C67	C	0.117320	-0.994763	0.703595
C68	C	0.039997	-1.117101	0.703604
C69	C	0.039994	-1.117091	0.603948
C70	C	0.078656	-1.055915	0.554116
H71	H	-0.106405	-1.210008	0.000138
C72	C	0.184688	-0.290740	0.000078
H73	H	0.216076	-0.325254	0.000055
H74	H	0.186408	-0.253890	0.055292
H75	H	0.186406	-0.253884	-0.055135
H76	H	0.148797	-0.944934	0.563363
C77	C	0.159824	-0.927423	0.451017
H78	H	0.182839	-0.890977	0.407063
H79	H	0.183574	-0.959360	0.489894
H80	H	0.139278	-0.890388	0.489891
H81	H	0.008517	-1.166912	0.744183
H82	H	-0.018205	-0.347612	0.000129
C83	C	0.159837	-0.927434	0.241747
H84	H	0.182867	-0.891015	0.285692
H85	H	0.139310	-0.890383	0.202885
H86	H	0.183579	-0.959397	0.202858
C87	C	-0.002533	-1.184366	0.549143
H88	H	-0.025562	-1.220795	0.593093
H89	H	0.017992	-1.221407	0.510251
H90	H	-0.026276	-1.152391	0.510285
C91	C	0.190501	-0.774355	0.000027
H92	H	0.183822	-0.838186	0.000015
H93	H	0.211630	-0.754497	0.055233
H94	H	0.211630	-0.754490	-0.055195
C95	C	-0.224572	-1.231129	0.000117
H96	H	-0.202373	-1.280179	0.000137
H97	H	-0.248019	-1.234102	-0.055093
H98	H	-0.248030	-1.234078	0.055334
C99	C	0.159811	-0.927432	0.758400
H100	H	0.182821	-0.890972	0.714451
H101	H	0.183568	-0.959340	0.797292
H102	H	0.139244	-0.890414	0.797259
C103	C	-0.379826	-1.309877	0.000096
H104	H	-0.410034	-1.357941	0.000088
H105	H	-0.356937	-1.313713	0.055304
H106	H	-0.356929	-1.313707	-0.055124
H107	H	-0.012707	-0.804577	0.000094
H108	H	-0.494144	-1.284392	0.000088
C109	C	-0.002533	-1.184342	0.241774
H110	H	0.003005	-1.175585	0.175285
H111	H	-0.040553	-1.174979	0.258121
H112	H	0.003723	-1.243980	0.258100
C113	C	-0.771098	-1.220844	0.000054
H114	H	-0.809766	-1.208412	0.000038
H115	H	-0.764141	-1.254539	0.055263
H116	H	-0.764118	-1.254529	-0.055164
C117	C	-0.646352	-1.223198	0.000074
H118	H	-0.676558	-1.271264	0.000074
H119	H	-0.623462	-1.227024	0.055282
H120	H	-0.623455	-1.227033	-0.055145
C121	C	-0.029726	-0.625194	0.000113
H122	H	-0.060124	-0.672961	0.000126
H123	H	-0.032319	-0.589264	-0.055095
H124	H	-0.032322	-0.589268	0.055333
H125	H	-0.736273	-0.901812	0.000050
H126	H	-0.628515	-0.903835	0.000037
H127	H	-0.348522	-0.827435	0.000013
C128	C	-0.462843	-0.801944	-0.000000
H129	H	-0.432634	-0.753881	-0.000017
H130	H	-0.485745	-0.798095	0.055204
H131	H	-0.485726	-0.798125	-0.055223
C132	C	-0.071587	-0.890978	0.000086
H133	H	-0.032919	-0.903410	0.000082
H134	H	-0.078561	-0.857273	0.055287
H135	H	-0.078551	-0.857303	-0.055141
C136	C	-0.196338	-0.888627	0.000070
H137	H	-0.166133	-0.840557	0.000061
H138	H	-0.219245	-0.884786	0.055269
H139	H	-0.219217	-0.884814	-0.055158
H140	H	0.008511	-1.166874	0.436807
H141	H	0.173484	-0.594969	0.000055
H142	H	0.172060	-0.476478	0.000054
H143	H	-0.016172	-0.516853	0.000118
