data_functionalizedCrystal
_audit_creation_method	'MofGen! by Chris Wilmer'
_symmetry_space_group_name_H-M	'P1'
_symmetry_Int_Tables_number	1
_symmetry_cell_setting	triclinic
loop_
_symmetry_equiv_pos_as_xyz
  x,y,z
_cell_length_a	25.639242
_cell_length_b	12.759399
_cell_length_c	12.759393
_cell_angle_alpha	90.032031
_cell_angle_beta	89.969588
_cell_angle_gamma	89.989356
loop_
_atom_site_label
_atom_site_type_symbol
_atom_site_fract_x
_atom_site_fract_y
_atom_site_fract_z
Zn1	Zn	0.799353	0.418329	-0.594313
Zn2	Zn	0.799300	0.594048	-0.418632
Zn3	Zn	0.711917	0.418370	-0.418616
Zn4	Zn	0.711911	0.593953	-0.594237
O5	O	0.755620	0.506175	-0.506450
O6	O	0.872511	0.441661	-0.571048
O7	O	0.787689	0.570801	-0.271609
O8	O	0.723541	0.271344	-0.441948
O9	O	0.872472	0.570761	-0.441975
O10	O	0.787780	0.271313	-0.571032
O11	O	0.723489	0.441731	-0.271597
O12	O	0.638751	0.441639	-0.441874
O13	O	0.723530	0.570599	-0.741268
O14	O	0.638746	0.570639	-0.570902
O15	O	0.787773	0.441569	-0.741324
O16	O	0.787683	0.741056	-0.441901
O17	O	0.723478	0.740986	-0.570918
C18	C	0.755588	0.779142	-0.506426
C19	C	0.755622	0.895919	-0.506451
C20	C	0.619778	0.506134	-0.506379
C21	C	0.561664	0.506141	-0.506373
C22	C	0.755657	0.506069	-0.780483
C23	C	0.755672	0.506023	-0.897260
C24	C	0.201307	0.573458	-0.573571
C25	C	0.146703	0.573464	-0.573588
O26	O	0.118472	0.630647	-0.630661
N27	N	0.119381	0.506204	-0.506518
C28	C	0.146667	0.438925	-0.439436
O29	O	0.118414	0.381715	-0.382390
C30	C	0.201270	0.438915	-0.439425
C31	C	0.228589	0.506187	-0.506491
C32	C	0.228626	0.640723	-0.640632
C33	C	0.283226	0.640718	-0.640614
C34	C	0.310508	0.573447	-0.573534
C35	C	0.283189	0.506181	-0.506473
C36	C	0.228555	0.371632	-0.372349
C37	C	0.283162	0.371626	-0.372345
C38	C	0.310480	0.438898	-0.439411
C39	C	0.365072	0.438905	-0.439375
N40	N	0.392393	0.506165	-0.506444
C41	C	0.365112	0.573436	-0.573524
C42	C	0.031996	0.438952	-0.439464
C43	C	-0.022606	0.438968	-0.439469
C44	C	-0.022566	0.573505	-0.573622
C45	C	0.032037	0.573494	-0.573612
C46	C	0.059318	0.506212	-0.506533
C47	C	0.479777	0.573420	-0.573480
C48	C	0.534382	0.573412	-0.573453
C49	C	0.534337	0.438871	-0.439304
C50	C	0.479737	0.438883	-0.439326
C51	C	0.452458	0.506161	-0.506423
O52	O	0.393338	0.381748	-0.382334
O53	O	0.393371	0.630627	-0.630570
C54	C	0.891993	0.506217	-0.506522
C55	C	0.950107	0.506235	-0.506553
C56	C	0.755667	0.232142	-0.506497
C57	C	0.755686	0.115365	-0.506517
C58	C	0.789092	0.950782	-0.439349
C59	C	0.789125	1.060506	-0.439384
C60	C	0.722215	1.060494	-0.573627
C61	C	0.722185	0.950772	-0.573596
C62	C	0.722255	0.438804	-0.952115
C63	C	0.722268	0.438772	-1.061840
C64	C	0.789118	0.573181	-1.061843
C65	C	0.789103	0.573218	-0.952121
C66	C	0.755614	0.506205	-0.233482
C67	C	0.755700	0.505954	-0.116706
H68	H	0.556622	0.628197	-0.628067
H69	H	0.206321	0.316854	-0.317733
C70	C	0.277764	0.773688	-0.773226
C71	C	0.313250	0.714655	-0.714348
H72	H	0.296298	0.819329	-0.818754
H73	H	0.256453	0.813825	-0.727384
H74	H	0.256480	0.727944	-0.813484
H75	H	0.334532	0.760399	-0.674084
H76	H	0.334571	0.674515	-0.760195
C77	C	0.656079	1.049460	-0.706324
C78	C	0.685460	1.120791	-0.647427
H79	H	0.633389	1.086685	-0.751889
H80	H	0.636080	1.006735	-0.660496
H81	H	0.678843	1.006594	-0.746543
H82	H	0.662696	1.163651	-0.607201
H83	H	0.705461	1.163533	-0.693260
H84	H	0.816316	0.627959	-0.907457
C85	C	0.714851	0.827276	-0.714872
C86	C	0.685393	0.890459	-0.647362
H87	H	0.692138	0.790047	-0.760416
H88	H	0.734757	0.778911	-0.674883
H89	H	0.737630	0.870025	-0.755115
H90	H	0.662616	0.847708	-0.607114
H91	H	0.665478	0.938829	-0.687356
H92	H	0.695034	0.384091	-0.907451
C93	C	0.814600	0.917118	-0.261488
C94	C	0.825849	0.890488	-0.365551
H95	H	0.837297	0.879901	-0.215931
H96	H	0.779475	0.899196	-0.246039
H97	H	0.819410	0.990319	-0.251920
H98	H	0.821036	0.817288	-0.375122
H99	H	0.860983	0.908403	-0.381005
C100	C	0.855194	0.706043	-1.050825
C101	C	0.825868	0.647031	-1.122149
H102	H	0.877880	0.751639	-1.088056
H103	H	0.875194	0.660290	-1.008051
H104	H	0.832395	0.746236	-1.008009
H105	H	0.848667	0.606832	-1.164961
H106	H	0.805866	0.692790	-1.164941
H107	H	0.457572	0.628202	-0.628119
H108	H	0.206419	0.695504	-0.695262
H109	H	0.816380	1.105171	-0.384744
H110	H	0.695056	0.384037	-1.106498
H111	H	0.305371	0.316829	-0.317726
H112	H	0.054276	0.628271	-0.628224
H113	H	-0.044789	0.628278	-0.628245
H114	H	-0.044844	0.384199	-0.384846
C115	C	0.618028	0.379126	-0.379741
C116	C	0.564333	0.364923	-0.365578
H117	H	0.636546	0.333463	-0.334233
H118	H	0.626963	0.449687	-0.364230
H119	H	0.626991	0.363840	-0.450363
H120	H	0.555369	0.380216	-0.294957
H121	H	0.555394	0.294345	-0.381081
H122	H	0.054205	0.384164	-0.384833
C123	C	0.485185	0.305899	-0.306720
C124	C	0.449705	0.364942	-0.365603
H125	H	0.466646	0.260241	-0.261216
H126	H	0.506461	0.351628	-0.266445
H127	H	0.506505	0.265770	-0.352568
H128	H	0.428387	0.405077	-0.319755
H129	H	0.428420	0.319208	-0.405881
