data_functionalizedCrystal
_audit_creation_method	'MofGen! by Chris Wilmer'
_symmetry_space_group_name_H-M	'P1'
_symmetry_Int_Tables_number	1
_symmetry_cell_setting	triclinic
loop_
_symmetry_equiv_pos_as_xyz
  x,y,z
_cell_length_a	16.625547
_cell_length_b	16.625546
_cell_length_c	16.625539
_cell_angle_alpha	90.028532
_cell_angle_beta	90.021309
_cell_angle_gamma	90.022405
loop_
_atom_site_label
_atom_site_type_symbol
_atom_site_fract_x
_atom_site_fract_y
_atom_site_fract_z
Zn1	Zn	1.232653	-0.321016	0.455989
Zn2	Zn	1.482653	-0.071016	0.705989
Zn3	Zn	1.732653	0.178984	0.955989
Zn4	Zn	1.982653	0.428984	1.205989
Zn5	Zn	1.232564	-0.455855	0.321151
Zn6	Zn	1.482564	-0.205855	0.571151
Zn7	Zn	1.732564	0.044145	0.821151
Zn8	Zn	1.982564	0.294145	1.071151
Zn9	Zn	1.097823	-0.321040	0.321160
Zn10	Zn	1.347823	-0.071040	0.571160
Zn11	Zn	1.597823	0.178960	0.821160
Zn12	Zn	1.847823	0.428960	1.071160
Zn13	Zn	1.097785	-0.455811	0.455931
Zn14	Zn	1.347785	-0.205811	0.705931
Zn15	Zn	1.597785	0.044189	0.955931
Zn16	Zn	1.847785	0.294189	1.205931
O17	O	1.165206	-0.388430	0.388558
O18	O	1.415206	-0.138430	0.638558
O19	O	1.665206	0.111570	0.888558
O20	O	1.915206	0.361570	1.138558
O21	O	1.345473	-0.338912	0.438123
O22	O	1.595473	-0.088912	0.688123
O23	O	1.845473	0.161088	0.938123
O24	O	2.095473	0.411088	1.188123
O25	O	1.214669	-0.438000	0.208320
O26	O	1.464669	-0.188000	0.458320
O27	O	1.714669	0.062000	0.708320
O28	O	1.964669	0.312000	0.958320
O29	O	1.115761	-0.208204	0.339073
O30	O	1.365761	0.041796	0.589073
O31	O	1.615761	0.291796	0.839073
O32	O	1.865761	0.541796	1.089073
O33	O	1.345408	-0.437977	0.339059
O34	O	1.595408	-0.187977	0.589059
O35	O	1.845408	0.062023	0.839059
O36	O	2.095408	0.312023	1.089059
O37	O	1.214820	-0.208187	0.438131
O38	O	1.464820	0.041813	0.688131
O39	O	1.714820	0.291813	0.938131
O40	O	1.964820	0.541813	1.188131
O41	O	1.115675	-0.338952	0.208326
O42	O	1.365675	-0.088952	0.458326
O43	O	1.615675	0.161048	0.708326
O44	O	1.865675	0.411048	0.958326
O45	O	0.984985	-0.338909	0.339017
O46	O	1.234985	-0.088909	0.589017
O47	O	1.484985	0.161091	0.839017
O48	O	1.734985	0.411091	1.089017
O49	O	1.115696	-0.437901	0.568771
O50	O	1.365696	-0.187901	0.818771
O51	O	1.615696	0.062099	1.068771
O52	O	1.865696	0.312099	1.318771
O53	O	0.984957	-0.437924	0.438033
O54	O	1.234957	-0.187924	0.688033
O55	O	1.484957	0.062076	0.938033
O56	O	1.734957	0.312076	1.188033
O57	O	1.214783	-0.338869	0.568814
O58	O	1.464783	-0.088869	0.818814
O59	O	1.714783	0.161131	1.068814
O60	O	1.964783	0.411131	1.318814
O61	O	1.214632	-0.568682	0.339003
O62	O	1.464632	-0.318682	0.589003
O63	O	1.714632	-0.068682	0.839003
O64	O	1.964632	0.181318	1.089003
O65	O	1.115611	-0.568649	0.438025
O66	O	1.365611	-0.318649	0.688025
O67	O	1.615611	-0.068649	0.938025
O68	O	1.865611	0.181351	1.188025
C69	C	0.955715	-0.388415	0.388520
C70	C	1.205715	-0.138415	0.638520
C71	C	1.455715	0.111585	0.888520
C72	C	1.705715	0.361585	1.138520
C73	C	0.866094	-0.388428	0.388523
C74	C	1.116094	-0.138428	0.638523
C75	C	1.366094	0.111572	0.888523
C76	C	1.616094	0.361572	1.138523
C77	C	0.793312	-0.388429	0.388533
C78	C	1.043312	-0.138429	0.638533
C79	C	1.293312	0.111571	0.888533
C80	C	1.543312	0.361571	1.138533
C81	C	0.702003	-0.388433	0.388553
C82	C	0.952003	-0.138433	0.638553
C83	C	1.202003	0.111567	0.888553
C84	C	1.452003	0.361567	1.138553
C85	C	0.629227	-0.388441	0.388573
C86	C	0.879227	-0.138441	0.638573
C87	C	1.129227	0.111559	0.888573
C88	C	1.379227	0.361559	1.138573
C89	C	0.537912	-0.388446	0.388593
C90	C	0.787912	-0.138446	0.638593
C91	C	1.037912	0.111554	0.888593
C92	C	1.287912	0.361554	1.138593
C93	C	1.165130	-0.597921	0.388524
C94	C	1.415130	-0.347921	0.638524
C95	C	1.665130	-0.097921	0.888524
C96	C	1.915130	0.152079	1.138524
C97	C	1.165171	-0.687542	0.388537
C98	C	1.415171	-0.437542	0.638537
C99	C	1.665171	-0.187542	0.888537
C100	C	1.915171	0.062458	1.138537
C101	C	1.165311	-1.015718	0.388621
C102	C	1.415311	-0.765718	0.638621
C103	C	1.665311	-0.515718	0.888621
C104	C	1.915311	-0.265718	1.138621
C105	C	1.165270	-0.924410	0.388599
C106	C	1.415270	-0.674410	0.638599
C107	C	1.665270	-0.424410	0.888599
C108	C	1.915270	-0.174410	1.138599
C109	C	1.165240	-0.851633	0.388578
C110	C	1.415240	-0.601633	0.638578
C111	C	1.665240	-0.351633	0.888578
C112	C	1.915240	-0.101633	1.138578
C113	C	1.165200	-0.760319	0.388558
C114	C	1.415200	-0.510319	0.638558
C115	C	1.665200	-0.260319	0.888558
C116	C	1.915200	-0.010319	1.138558
C117	C	1.375515	-0.388447	0.388597
C118	C	1.625515	-0.138447	0.638597
C119	C	1.875515	0.111553	0.888597
C120	C	2.125515	0.361553	1.138597
C121	C	1.465136	-0.388454	0.388613
C122	C	1.715136	-0.138454	0.638613
C123	C	1.965136	0.111546	0.888613
C124	C	2.215136	0.361546	1.138613
C125	C	1.165246	-0.388377	0.598867
C126	C	1.415246	-0.138377	0.848867
C127	C	1.665246	0.111623	1.098867
C128	C	1.915246	0.361623	1.348867
C129	C	1.165262	-0.388355	0.688488
C130	C	1.415262	-0.138355	0.938488
C131	C	1.665262	0.111645	1.188488
C132	C	1.915262	0.361645	1.438488
C133	C	1.165305	-0.178122	0.388609
C134	C	1.415305	0.071878	0.638609
C135	C	1.665305	0.321878	0.888609
C136	C	1.915305	0.571878	1.138609
C137	C	1.165347	-0.088500	0.388631
C138	C	1.415347	0.161500	0.638631
C139	C	1.665347	0.411500	0.888631
C140	C	1.915347	0.661500	1.138631
C141	C	1.165213	-0.388425	0.179067
C142	C	1.415213	-0.138425	0.429067
C143	C	1.665213	0.111575	0.679067
C144	C	1.915213	0.361575	0.929067
C145	C	1.165352	-0.388221	0.089446
C146	C	1.415352	-0.138221	0.339446
C147	C	1.665352	0.111779	0.589446
C148	C	1.915352	0.361779	0.839446
C149	C	1.165276	-0.388337	0.761271
C150	C	1.415276	-0.138337	1.011271
C151	C	1.665276	0.111663	1.261271
C152	C	1.915276	0.361663	1.511271
C153	C	1.165294	-0.388307	0.852579
C154	C	1.415294	-0.138307	1.102579
C155	C	1.665294	0.111693	1.352579
C156	C	1.915294	0.361693	1.602579
C157	C	1.165313	-0.388278	0.925356
C158	C	1.415313	-0.138278	1.175356
C159	C	1.665313	0.111722	1.425356
C160	C	1.915313	0.361722	1.675356
C161	C	1.165333	-0.388249	1.016670
C162	C	1.415333	-0.138249	1.266670
C163	C	1.665333	0.111751	1.516670
C164	C	1.915333	0.361751	1.766670
