data_functionalizedCrystal
_audit_creation_method	'MofGen! by Chris Wilmer'
_symmetry_space_group_name_H-M	'P1'
_symmetry_Int_Tables_number	1
_symmetry_cell_setting	triclinic
loop_
_symmetry_equiv_pos_as_xyz
  x,y,z
_cell_length_a	10.685901
_cell_length_b	10.685194
_cell_length_c	10.685314
_cell_angle_alpha	89.632195
_cell_angle_beta	99.041183
_cell_angle_gamma	90.347428
loop_
_atom_site_label
_atom_site_type_symbol
_atom_site_fract_x
_atom_site_fract_y
_atom_site_fract_z
Zn1	Zn	1.836977	-0.682854	-0.519873
Zn2	Zn	1.839339	-0.876783	-0.293823
Zn3	Zn	1.643092	-0.653220	-0.326071
Zn4	Zn	1.610929	-0.876703	-0.522327
O5	O	1.732584	-0.772390	-0.415524
O6	O	2.014023	-0.721014	-0.475365
O7	O	1.827756	-0.834758	-0.121364
O8	O	1.681283	-0.482463	-0.364248
O9	O	2.015758	-0.863493	-0.309287
O10	O	1.823730	-0.504234	-0.506634
O11	O	1.683574	-0.670508	-0.145057
O12	O	1.462093	-0.670431	-0.366627
O13	O	1.626465	-0.863357	-0.698738
O14	O	1.438463	-0.834623	-0.510816
O15	O	1.792542	-0.720937	-0.696935
O16	O	1.796568	-1.051461	-0.311666
O17	O	1.628756	-1.051402	-0.479547
C18	C	1.404453	-0.749304	-0.442488
C19	C	1.264073	-0.739459	-0.454051
C20	C	1.709460	-1.096731	-0.392398
C21	C	1.699680	-1.235496	-0.382538
C22	C	2.061996	-0.795568	-0.388455
C23	C	2.202372	-0.805444	-0.376920
C24	C	1.705653	-0.795444	-0.744944
C25	C	1.694176	-0.805268	-0.885323
C26	C	1.755830	-0.446788	-0.438764
C27	C	1.765737	-0.308035	-0.448668
C28	C	1.759490	-0.749341	-0.087385
C29	C	1.771236	-0.739183	0.052988
H30	H	1.256942	-0.869472	-0.302047
H31	H	1.209495	-0.675439	-0.528939
C32	C	1.872221	-0.652575	-0.873289
H33	H	1.919020	-0.612428	-0.930814
H34	H	1.927997	-0.700629	-0.813889
H35	H	1.831936	-0.591216	-0.829696
C36	C	1.852256	-1.248529	-0.535343
H37	H	1.847714	-1.159942	-0.530817
H38	H	1.825289	-1.274458	-0.620216
H39	H	1.937157	-1.274456	-0.508451
H40	H	1.635627	-1.279557	-0.318380
H41	H	1.619419	-0.869360	-0.939904
