data_functionalizedCrystal
_audit_creation_method	'MofGen! by Chris Wilmer'
_symmetry_space_group_name_H-M	'P1'
_symmetry_Int_Tables_number	1
_symmetry_cell_setting	triclinic
loop_
_symmetry_equiv_pos_as_xyz
  x,y,z
_cell_length_a	14.044220
_cell_length_b	23.532407
_cell_length_c	12.503572
_cell_angle_alpha	93.496478
_cell_angle_beta	86.164750
_cell_angle_gamma	88.018778
loop_
_atom_site_label
_atom_site_type_symbol
_atom_site_fract_x
_atom_site_fract_y
_atom_site_fract_z
O1	O	1.261903	0.134222	-0.089227
O2	O	0.985982	0.129269	-0.089253
O3	O	1.132262	0.049265	-0.089219
O4	O	1.115623	0.214225	-0.089260
O5	O	1.121261	0.055293	0.089420
O6	O	0.974981	0.135296	0.089386
O7	O	1.250902	0.140249	0.089413
Cu8	Cu	1.111937	0.138323	0.105711
Cu9	Cu	1.124947	0.131195	-0.105551
O10	O	1.104622	0.220253	0.089379
C11	C	0.945188	0.130115	0.000063
C12	C	0.840023	0.123648	0.000054
C13	C	1.126337	0.031040	0.000103
C14	C	1.125063	-0.032246	0.000111
C15	C	0.647472	0.111828	0.000078
C16	C	0.589407	0.157687	0.000072
C17	C	0.482265	0.151110	0.000085
C18	C	0.754624	0.118404	0.000065
C19	C	1.203641	-0.427092	0.000060
C20	C	1.202458	-0.486556	0.000051
O21	O	1.275300	-0.519354	0.000019
N22	N	1.115494	-0.513896	0.000044
C23	C	1.029708	-0.481769	0.000034
O24	O	0.955630	-0.510484	0.000026
C25	C	1.030893	-0.422305	0.000034
C26	C	1.117862	-0.394968	0.000053
C27	C	1.290603	-0.399754	0.000077
C28	C	1.291786	-0.340294	0.000087
C29	C	1.206006	-0.308170	0.000080
C30	C	1.119044	-0.335508	0.000063
C31	C	0.945109	-0.390179	0.000016
C32	C	0.946301	-0.330712	0.000016
C33	C	1.033270	-0.303375	0.000035
C34	C	1.034447	-0.243924	0.000066
N35	N	1.121411	-0.216584	0.000074
C36	C	1.207191	-0.248707	0.000081
C37	C	1.027228	-0.606646	0.000031
C38	C	1.026042	-0.666108	0.000038
C39	C	1.198792	-0.670891	0.000053
C40	C	1.199976	-0.611428	0.000054
C41	C	1.114192	-0.579306	0.000038
C42	C	1.209668	-0.123835	0.000103
C43	C	1.210842	-0.064369	0.000118
C44	C	1.038093	-0.059591	0.000097
C45	C	1.036917	-0.119052	0.000088
C46	C	1.122713	-0.151173	0.000087
O47	O	0.961644	-0.211090	0.000095
O48	O	1.281258	-0.219985	0.000075
C49	C	1.291696	0.139403	0.000094
C50	C	1.396861	0.145869	0.000096
C51	C	1.110547	0.238478	0.000054
C52	C	1.111822	0.301763	0.000039
N53	N	1.102793	0.143337	0.254301
N54	N	1.134098	0.126177	-0.254141
C55	C	1.089342	0.150717	0.473413
C56	C	1.147546	0.118799	0.526753
C57	C	1.140062	0.122905	0.648675
C58	C	1.096825	0.146611	0.351480
H59	H	0.616718	0.067631	0.000095
O60	O	0.626041	0.210436	0.000229
C61	C	0.630668	0.303085	0.092682
C62	C	0.589116	0.243370	0.092660
H63	H	0.600816	0.329733	0.167394
H64	H	0.711795	0.299096	0.092738
H65	H	0.610104	0.324648	0.017876
H66	H	0.609608	0.221773	0.167453
H67	H	0.507997	0.247398	0.092548
O68	O	1.295415	-0.037907	0.000084
C69	C	1.466629	-0.048936	0.000161
C70	C	1.370925	-0.078975	0.000177
H71	H	1.527703	-0.082125	0.000259
H72	H	1.476174	-0.023749	-0.074612
H73	H	1.466852	-0.018686	0.074908
H74	H	1.370635	-0.109252	-0.074519
H75	H	1.361418	-0.104125	0.075000
H76	H	1.279531	-0.149982	0.000099
O77	O	1.213489	0.082383	0.471997
C78	C	1.241534	0.001244	0.345289
C79	C	1.166819	0.042517	0.407146
H80	H	1.203830	-0.031006	0.292859
H81	H	1.292030	0.026262	0.292450
H82	H	1.284061	-0.022106	0.404834
H83	H	1.124225	0.065877	0.347678
H84	H	1.116388	0.017467	0.460001
O85	O	1.373924	-0.430984	-0.000105
C86	C	1.478549	-0.504026	-0.092596
C87	C	1.384166	-0.468695	-0.092547
H88	H	1.486851	-0.534532	-0.167317
H89	H	1.540937	-0.474291	-0.092655
H90	H	1.477701	-0.529438	-0.017800
H91	H	1.384920	-0.443278	-0.167331
H92	H	1.321819	-0.498459	-0.092433
O93	O	1.376355	-0.313835	0.000049
C94	C	1.547568	-0.324876	0.000122
C95	C	1.451858	-0.354908	0.000145
H96	H	1.608636	-0.358069	0.000223
H97	H	1.557117	-0.299692	-0.074654
H98	H	1.547798	-0.294624	0.074867
H99	H	1.451561	-0.385187	-0.074549
H100	H	1.442347	-0.380055	0.074971
O101	O	1.284544	-0.584967	0.000013
C102	C	1.455758	-0.596002	0.000090
C103	C	1.360050	-0.626038	0.000116
H104	H	1.516828	-0.629193	0.000196
H105	H	1.465305	-0.570821	-0.074690
H106	H	1.455984	-0.565747	0.074830
H107	H	1.359756	-0.656320	-0.074573
H108	H	1.350541	-0.651182	0.074946
H109	H	1.268638	-0.697057	0.000055
H110	H	0.955222	-0.688360	0.000041
O111	O	0.943799	-0.575528	0.000078
C112	C	0.772335	-0.577074	0.000005
C113	C	0.866743	-0.612378	-0.000022
H114	H	0.710012	-0.606853	-0.000099
H115	H	0.763895	-0.546612	0.074784
H116	H	0.773215	-0.551616	-0.074736
H117	H	0.865928	-0.637869	0.074669
H118	H	0.875146	-0.642804	-0.074850
H119	H	0.874290	-0.412427	-0.000005
O120	O	0.862913	-0.299575	-0.000141
C121	C	0.721359	-0.280385	-0.092745
C122	C	0.815754	-0.315694	-0.092691
H123	H	0.683213	-0.293395	-0.167576
H124	H	0.673862	-0.288394	-0.018045
H125	H	0.737156	-0.233189	-0.092685
H126	H	0.800046	-0.362900	-0.092790
H127	H	0.863222	-0.307637	-0.167385
H128	H	0.966098	-0.141310	0.000102
H129	H	0.968253	-0.033425	0.000095
O130	O	1.023279	0.186987	0.528327
C131	C	0.955441	0.224160	0.701691
C132	C	1.030309	0.183069	0.639619
H133	H	0.961086	0.220997	0.791682
H134	H	0.968822	0.269653	0.679728
H135	H	0.880935	0.212219	0.679605
H136	H	1.104845	0.194958	0.661672
H137	H	1.016845	0.137587	0.661587
