data_functionalizedCrystal
_audit_creation_method	'MofGen! by Chris Wilmer'
_symmetry_space_group_name_H-M	'P1'
_symmetry_Int_Tables_number	1
_symmetry_cell_setting	triclinic
loop_
_symmetry_equiv_pos_as_xyz
  x,y,z
_cell_length_a	19.077236
_cell_length_b	21.295417
_cell_length_c	19.076919
_cell_angle_alpha	92.267699
_cell_angle_beta	89.887323
_cell_angle_gamma	92.322335
loop_
_atom_site_label
_atom_site_type_symbol
_atom_site_fract_x
_atom_site_fract_y
_atom_site_fract_z
Zn1	Zn	1.058269	-0.228507	-0.440524
Zn2	Zn	1.308269	0.021493	-0.190524
Zn3	Zn	1.558269	0.271493	0.059476
Zn4	Zn	1.808269	0.521493	0.309476
Zn5	Zn	1.062899	-0.329387	-0.323010
Zn6	Zn	1.312899	-0.079387	-0.073010
Zn7	Zn	1.562899	0.170613	0.176990
Zn8	Zn	1.812899	0.420613	0.426990
Zn9	Zn	0.945484	-0.228177	-0.318305
Zn10	Zn	1.195484	0.021823	-0.068305
Zn11	Zn	1.445484	0.271823	0.181695
Zn12	Zn	1.695484	0.521823	0.431695
Zn13	Zn	0.940717	-0.337786	-0.435748
Zn14	Zn	1.190717	-0.087786	-0.185748
Zn15	Zn	1.440717	0.162214	0.064252
Zn16	Zn	1.690717	0.412214	0.314252
O17	O	1.001842	-0.280964	-0.379397
O18	O	1.251842	-0.030964	-0.129397
O19	O	1.501842	0.219036	0.120603
O20	O	1.751842	0.469036	0.370603
O21	O	1.157217	-0.238513	-0.428904
O22	O	1.407217	0.011487	-0.178904
O23	O	1.657217	0.261487	0.071096
O24	O	1.907217	0.511487	0.321096
O25	O	1.051256	-0.312309	-0.224055
O26	O	1.301256	-0.062309	0.025945
O27	O	1.551256	0.187691	0.275945
O28	O	1.801256	0.437691	0.525945
O29	O	0.960503	-0.140130	-0.334547
O30	O	1.210503	0.109870	-0.084547
O31	O	1.460503	0.359870	0.165453
O32	O	1.710503	0.609870	0.415453
O33	O	1.160619	-0.312629	-0.342567
O34	O	1.410619	-0.062629	-0.092567
O35	O	1.660619	0.187371	0.157433
O36	O	1.910619	0.437371	0.407433
O37	O	1.043365	-0.140373	-0.424342
O38	O	1.293365	0.109627	-0.174342
O39	O	1.543365	0.359627	0.075658
O40	O	1.793365	0.609627	0.325658
O41	O	0.964992	-0.237950	-0.220598
O42	O	1.214992	0.012050	0.029402
O43	O	1.464992	0.262050	0.279402
O44	O	1.714992	0.512050	0.529402
O45	O	0.846518	-0.246093	-0.329915
O46	O	1.096518	0.003907	-0.079915
O47	O	1.346518	0.253907	0.170085
O48	O	1.596518	0.503907	0.420085
O49	O	0.952378	-0.326942	-0.534712
O50	O	1.202378	-0.076942	-0.284712
O51	O	1.452378	0.173058	-0.034712
O52	O	1.702378	0.423058	0.215288
O53	O	0.843015	-0.326622	-0.416200
O54	O	1.093015	-0.076622	-0.166200
O55	O	1.343015	0.173378	0.083800
O56	O	1.593015	0.423378	0.333800
O57	O	1.038742	-0.246656	-0.538221
O58	O	1.288742	0.003344	-0.288221
O59	O	1.538742	0.253344	-0.038221
O60	O	1.788742	0.503344	0.211779
O61	O	1.046634	-0.418592	-0.337935
O62	O	1.296634	-0.168592	-0.087935
O63	O	1.546634	0.081408	0.162065
O64	O	1.796634	0.331408	0.412065
O65	O	0.956867	-0.424762	-0.420763
O66	O	1.206867	-0.174762	-0.170763
O67	O	1.456867	0.075238	0.079237
O68	O	1.706867	0.325238	0.329237
C69	C	0.819270	-0.287234	-0.372029
C70	C	1.069270	-0.037234	-0.122029
C71	C	1.319270	0.212766	0.127971
C72	C	1.569270	0.462766	0.377971
C73	C	0.741164	-0.289932	-0.368894
C74	C	0.991164	-0.039932	-0.118894
C75	C	1.241164	0.210068	0.131106
C76	C	1.491164	0.460068	0.381106
C77	C	0.702696	-0.252677	-0.412441
C78	C	0.952696	-0.002677	-0.162441
C79	C	1.202696	0.247323	0.087559
C80	C	1.452696	0.497323	0.337559
C81	C	0.629308	-0.255209	-0.409489
C82	C	0.879308	-0.005209	-0.159489
C83	C	1.129308	0.244791	0.090511
C84	C	1.379308	0.494791	0.340511
C85	C	0.594388	-0.294999	-0.362993
C86	C	0.844388	-0.044999	-0.112993
C87	C	1.094388	0.205001	0.137007
C88	C	1.344388	0.455001	0.387007
C89	C	0.632861	-0.332255	-0.319442
C90	C	0.882861	-0.082255	-0.069442
C91	C	1.132861	0.167745	0.180558
C92	C	1.382861	0.417745	0.430558
C93	C	0.706248	-0.329719	-0.322390
C94	C	0.956248	-0.079719	-0.072390
C95	C	1.206248	0.170281	0.177610
C96	C	1.456248	0.420281	0.427610
C97	C	0.375093	-0.306709	-0.349343
C98	C	0.625093	-0.056709	-0.099343
C99	C	0.875093	0.193291	0.150657
C100	C	1.125093	0.443291	0.400657
C101	C	0.301700	-0.309243	-0.346399
C102	C	0.551700	-0.059243	-0.096399
C103	C	0.801700	0.190757	0.153601
C104	C	1.051700	0.440757	0.403601
C105	C	0.298153	-0.232196	-0.436445
C106	C	0.548153	0.017804	-0.186445
C107	C	0.798153	0.267804	0.063555
C108	C	1.048153	0.517804	0.313555
C109	C	0.371541	-0.229667	-0.439393
C110	C	0.621541	0.020333	-0.189393
C111	C	0.871541	0.270333	0.060607
C112	C	1.121541	0.520333	0.310607
C113	C	0.410008	-0.266921	-0.395839
C114	C	0.660008	-0.016921	-0.145839
C115	C	0.910008	0.233079	0.104161
C116	C	1.160008	0.483079	0.354161
N117	N	0.519373	-0.297589	-0.359976
N118	N	0.769373	-0.047589	-0.109976
N119	N	1.019373	0.202411	0.140024
N120	N	1.269373	0.452411	0.390024
N121	N	0.485022	-0.264327	-0.398853
N122	N	0.735022	-0.014327	-0.148853
N123	N	0.985022	0.235673	0.101147
N124	N	1.235022	0.485673	0.351147
C125	C	1.001754	-0.444518	-0.379358
C126	C	1.251754	-0.194518	-0.129358
C127	C	1.501754	0.055482	0.120642
C128	C	1.751754	0.305482	0.370642
C129	C	1.001780	-0.514485	-0.379367
C130	C	1.251780	-0.264485	-0.129367
C131	C	1.501780	-0.014485	0.120633
C132	C	1.751780	0.235515	0.370633
C133	C	1.044899	-0.547423	-0.426154
C134	C	1.294899	-0.297423	-0.176154
C135	C	1.544899	-0.047423	0.073846
C136	C	1.794899	0.202577	0.323846
C137	C	1.044923	-0.613165	-0.426172
C138	C	1.294923	-0.363165	-0.176172
C139	C	1.544923	-0.113165	0.073828
C140	C	1.794923	0.136835	0.323828
C141	C	1.001836	-0.645967	-0.379391
C142	C	1.251836	-0.395967	-0.129391
C143	C	1.501836	-0.145967	0.120609
C144	C	1.751836	0.104033	0.370609
C145	C	0.958708	-0.613021	-0.332601
C146	C	1.208708	-0.363021	-0.082601
C147	C	1.458708	-0.113021	0.167399
C148	C	1.708708	0.136979	0.417399
C149	C	0.958680	-0.547280	-0.332589
C150	C	1.208680	-0.297280	-0.082589
C151	C	1.458680	-0.047280	0.167411
C152	C	1.708680	0.202720	0.417411
N153	N	0.999002	-0.747112	-0.317682
N154	N	1.249002	-0.497112	-0.067682
N155	N	1.499002	-0.247112	0.182318
N156	N	1.749002	0.002888	0.432318
N157	N	0.999033	-0.809563	-0.317696
N158	N	1.249033	-0.559563	-0.067696
N159	N	1.499033	-0.309563	0.182304
N160	N	1.749033	-0.059563	0.432304
C161	C	1.001917	-0.844040	-0.379426
C162	C	1.251917	-0.594040	-0.129426
C163	C	1.501917	-0.344040	0.120574
C164	C	1.751917	-0.094040	0.370574
N165	N	1.004782	-0.813706	-0.441144
N166	N	1.254782	-0.563706	-0.191144
N167	N	1.504782	-0.313706	0.058856
N168	N	1.754782	-0.063706	0.308856
N169	N	1.004755	-0.751249	-0.441130
N170	N	1.254755	-0.501249	-0.191130
N171	N	1.504755	-0.251249	0.058870
N172	N	1.754755	-0.001249	0.308870
C173	C	1.001861	-0.717251	-0.379400
C174	C	1.251861	-0.467251	-0.129400
C175	C	1.501861	-0.217251	0.120600
C176	C	1.751861	0.032749	0.370600
C177	C	1.045064	-0.948263	-0.426237
C178	C	1.295064	-0.698263	-0.176237
C179	C	1.545064	-0.448263	0.073763
C180	C	1.795064	-0.198263	0.323763
C181	C	1.045083	-1.014006	-0.426256
C182	C	1.295083	-0.764006	-0.176256
C183	C	1.545083	-0.514006	0.073744
C184	C	1.795083	-0.264006	0.323744
C185	C	0.958872	-1.013861	-0.332679
C186	C	1.208872	-0.763861	-0.082679
C187	C	1.458872	-0.513861	0.167321
C188	C	1.708872	-0.263861	0.417321
C189	C	0.958849	-0.948118	-0.332666
C190	C	1.208849	-0.698118	-0.082666
C191	C	1.458849	-0.448118	0.167334
C192	C	1.708849	-0.198118	0.417334
C193	C	1.001949	-0.915323	-0.379444
C194	C	1.251949	-0.665323	-0.129444
C195	C	1.501949	-0.415323	0.120556
C196	C	1.751949	-0.165323	0.370556
C197	C	1.185128	-0.274671	-0.386793
C198	C	1.435128	-0.024671	-0.136793
C199	C	1.685128	0.225329	0.113207
C200	C	1.935128	0.475329	0.363207
C201	C	1.263233	-0.271989	-0.389946
C202	C	1.513233	-0.021989	-0.139946
C203	C	1.763233	0.228011	0.110054
C204	C	2.013233	0.478011	0.360054
C205	C	0.994512	-0.287773	-0.562676
C206	C	1.244512	-0.037773	-0.312676
C207	C	1.494512	0.212227	-0.062676
C208	C	1.744512	0.462227	0.187324
C209	C	0.991388	-0.290674	-0.640778
C210	C	1.241388	-0.040674	-0.390778
C211	C	1.491388	0.209326	-0.140778
C212	C	1.741388	0.459326	0.109222
C213	C	1.001949	-0.116772	-0.379452
C214	C	1.251949	0.133228	-0.129452
C215	C	1.501949	0.383228	0.120548
C216	C	1.751949	0.633228	0.370548
C217	C	1.001995	-0.046803	-0.379476
C218	C	1.251995	0.203197	-0.129476
C219	C	1.501995	0.453197	0.120524
C220	C	1.751995	0.703197	0.370524
C221	C	1.034884	-0.250238	-0.679299
C222	C	1.284884	-0.000238	-0.429299
C223	C	1.534884	0.249762	-0.179299
C224	C	1.784884	0.499762	0.070701
C225	C	1.031940	-0.252962	-0.752684
C226	C	1.281940	-0.002962	-0.502684
C227	C	1.531940	0.247038	-0.252684
C228	C	1.781940	0.497038	-0.002684
C229	C	0.985504	-0.296126	-0.787547
C230	C	1.235504	-0.046126	-0.537547
C231	C	1.485504	0.203874	-0.287547
C232	C	1.735504	0.453874	-0.037547
C233	C	0.942004	-0.336563	-0.749021
C234	C	1.192004	-0.086563	-0.499021
C235	C	1.442004	0.163437	-0.249021
C236	C	1.692004	0.413437	0.000979
C237	C	0.944944	-0.333836	-0.675637
C238	C	1.194944	-0.083836	-0.425637
C239	C	1.444944	0.166164	-0.175637
C240	C	1.694944	0.416164	0.074363
C241	C	0.971884	-0.308762	-1.006826
C242	C	1.221884	-0.058762	-0.756826
C243	C	1.471884	0.191238	-0.506826
C244	C	1.721884	0.441238	-0.256826
C245	C	0.968949	-0.311488	-1.080215
C246	C	1.218949	-0.061488	-0.830215
C247	C	1.468949	0.188512	-0.580215
C248	C	1.718949	0.438512	-0.330215
C249	C	1.058885	-0.227886	-1.083873
C250	C	1.308885	0.022114	-0.833873
C251	C	1.558885	0.272114	-0.583873
C252	C	1.808885	0.522114	-0.333873
C253	C	1.061824	-0.225165	-1.010488
C254	C	1.311824	0.024835	-0.760488
C255	C	1.561824	0.274835	-0.510488
C256	C	1.811824	0.524835	-0.260488
C257	C	1.018321	-0.265600	-0.971968
C258	C	1.268321	-0.015600	-0.721968
C259	C	1.518321	0.234400	-0.471968
C260	C	1.768321	0.484400	-0.221968
N261	N	0.982496	-0.298912	-0.862559
N262	N	1.232496	-0.048912	-0.612559
N263	N	1.482496	0.201088	-0.362559
N264	N	1.732496	0.451088	-0.112559
N265	N	1.021327	-0.262810	-0.896957
N266	N	1.271327	-0.012810	-0.646957
N267	N	1.521327	0.237190	-0.396957
N268	N	1.771327	0.487190	-0.146957
C269	C	1.009184	-0.274136	-0.196833
C270	C	1.259184	-0.024136	0.053167
C271	C	1.509184	0.225864	0.303167
C272	C	1.759184	0.475864	0.553167
C273	C	1.012444	-0.271052	-0.118736
C274	C	1.262444	-0.021052	0.131264
C275	C	1.512444	0.228948	0.381264
C276	C	1.762444	0.478948	0.631264
H277	H	0.731122	-0.220278	-0.450305
H278	H	0.981122	0.029722	-0.200305
H279	H	1.231122	0.279722	0.049695
H280	H	1.481122	0.529722	0.299695
Cl281	Cl	0.754607	-0.376556	-0.267644
Cl282	Cl	1.004607	-0.126556	-0.017644
Cl283	Cl	1.254607	0.123444	0.232356
Cl284	Cl	1.504607	0.373444	0.482356
H285	H	1.079992	-0.520723	-0.464245
H286	H	1.329992	-0.270723	-0.214245
H287	H	1.579992	-0.020723	0.035755
H288	H	1.829992	0.229277	0.285755
Cl289	Cl	0.917195	-0.359596	-0.958410
Cl290	Cl	1.167195	-0.109596	-0.708410
Cl291	Cl	1.417195	0.140404	-0.458410
Cl292	Cl	1.667195	0.390404	-0.208410
H293	H	0.904192	-0.371706	-0.777412
H294	H	1.154192	-0.121706	-0.527412
H295	H	1.404192	0.128294	-0.277412
H296	H	1.654192	0.378294	-0.027412
Cl297	Cl	0.580951	-0.208374	-0.464238
Cl298	Cl	0.830951	0.041626	-0.214238
Cl299	Cl	1.080951	0.291626	0.035762
Cl300	Cl	1.330951	0.541626	0.285762
Cl301	Cl	1.099139	-0.654581	-0.484990
Cl302	Cl	1.349139	-0.404581	-0.234990
Cl303	Cl	1.599139	-0.154581	0.015010
Cl304	Cl	1.849139	0.095419	0.265010
Cl305	Cl	0.904536	-0.654256	-0.273794
Cl306	Cl	1.154536	-0.404256	-0.023794
Cl307	Cl	1.404536	-0.154256	0.226206
Cl308	Cl	1.654536	0.095744	0.476206
Cl309	Cl	0.904468	-0.505871	-0.273766
Cl310	Cl	1.154468	-0.255871	-0.023766
Cl311	Cl	1.404468	-0.005871	0.226234
Cl312	Cl	1.654468	0.244129	0.476234
Cl313	Cl	1.113568	-0.177054	-1.132302
Cl314	Cl	1.363568	0.072946	-0.882302
Cl315	Cl	1.613568	0.322946	-0.632302
Cl316	Cl	1.863568	0.572946	-0.382302
Cl317	Cl	1.120204	-0.170900	-0.966665
Cl318	Cl	1.370204	0.079100	-0.716665
Cl319	Cl	1.620204	0.329100	-0.466665
Cl320	Cl	1.870204	0.579100	-0.216665
Cl321	Cl	0.890259	-0.384670	-0.627210
Cl322	Cl	1.140259	-0.134670	-0.377210
Cl323	Cl	1.390259	0.115330	-0.127210
Cl324	Cl	1.640259	0.365330	0.122790
H325	H	0.399968	-0.197268	-0.477258
H326	H	0.649968	0.052732	-0.227258
H327	H	0.899968	0.302732	0.022742
H328	H	1.149968	0.552732	0.272742
H329	H	1.080196	-1.040823	-0.464359
H330	H	1.330196	-0.790823	-0.214359
H331	H	1.580196	-0.540823	0.035641
H332	H	1.830196	-0.290823	0.285641
Cl333	Cl	0.423442	-0.353529	-0.294574
Cl334	Cl	0.673442	-0.103529	-0.044574
Cl335	Cl	0.923442	0.146471	0.205426
Cl336	Cl	1.173442	0.396471	0.455426
Cl337	Cl	0.249791	-0.185365	-0.491194
Cl338	Cl	0.499791	0.064635	-0.241194
Cl339	Cl	0.749791	0.314635	0.008806
Cl340	Cl	0.999791	0.564635	0.258806
Cl341	Cl	0.904702	-1.055090	-0.273870
Cl342	Cl	1.154702	-0.805090	-0.023870
Cl343	Cl	1.404702	-0.555090	0.226130
Cl344	Cl	1.654702	-0.305090	0.476130
Cl345	Cl	0.257801	-0.359284	-0.287959
Cl346	Cl	0.507801	-0.109284	-0.037959
Cl347	Cl	0.757801	0.140716	0.212041
Cl348	Cl	1.007801	0.390716	0.462041
Cl349	Cl	1.099242	-0.907032	-0.485046
Cl350	Cl	1.349242	-0.657032	-0.235046
Cl351	Cl	1.599242	-0.407032	0.014954
Cl352	Cl	1.849242	-0.157032	0.264954
Cl353	Cl	0.588961	-0.382273	-0.260986
Cl354	Cl	0.838961	-0.132273	-0.010986
Cl355	Cl	1.088961	0.117727	0.239014
Cl356	Cl	1.338961	0.367727	0.489014
H357	H	0.923740	-0.921298	-0.294564
H358	H	1.173740	-0.671298	-0.044564
H359	H	1.423740	-0.421298	0.205436
H360	H	1.673740	-0.171298	0.455436
Cl361	Cl	1.093267	-0.195976	-0.635479
Cl362	Cl	1.343267	0.054024	-0.385479
Cl363	Cl	1.593267	0.304024	-0.135479
Cl364	Cl	1.843267	0.554024	0.114521
H365	H	1.067361	-0.220036	-0.784045
H366	H	1.317361	0.029964	-0.534045
H367	H	1.567361	0.279964	-0.284045
H368	H	1.817361	0.529964	-0.034045
Cl369	Cl	0.910563	-0.365751	-1.124042
Cl370	Cl	1.160563	-0.115751	-0.874042
Cl371	Cl	1.410563	0.134249	-0.624042
Cl372	Cl	1.660563	0.384249	-0.374042
