data_functionalizedCrystal
_audit_creation_method	'MofGen! by Chris Wilmer'
_symmetry_space_group_name_H-M	'P1'
_symmetry_Int_Tables_number	1
_symmetry_cell_setting	triclinic
loop_
_symmetry_equiv_pos_as_xyz
  x,y,z
_cell_length_a	15.297476
_cell_length_b	15.299816
_cell_length_c	19.076919
_cell_angle_alpha	102.310100
_cell_angle_beta	82.980042
_cell_angle_gamma	72.651764
loop_
_atom_site_label
_atom_site_type_symbol
_atom_site_fract_x
_atom_site_fract_y
_atom_site_fract_z
Zn1	Zn	1.455951	-0.646449	-0.681573
Zn2	Zn	1.486839	-0.797835	-0.588506
Zn3	Zn	1.306681	-0.613285	-0.539290
Zn4	Zn	1.327281	-0.774931	-0.681560
O5	O	1.394188	-0.708125	-0.622732
O6	O	1.589294	-0.689996	-0.689830
O7	O	1.467246	-0.769061	-0.483488
O8	O	1.304933	-0.486679	-0.537572
O9	O	1.611987	-0.801219	-0.621455
O10	O	1.414601	-0.511045	-0.642107
O11	O	1.334885	-0.633472	-0.447329
O12	O	1.180168	-0.611262	-0.537559
O13	O	1.340044	-0.762181	-0.780051
O14	O	1.195303	-0.730023	-0.642084
O15	O	1.434577	-0.667786	-0.780060
O16	O	1.487222	-0.925802	-0.621442
O17	O	1.369995	-0.908974	-0.689808
C18	C	1.154223	-0.664559	-0.584480
C19	C	1.051569	-0.645945	-0.568136
C20	C	0.995419	-0.575267	-0.506089
C21	C	0.898969	-0.557776	-0.490731
C22	C	0.858659	-0.610955	-0.537422
C23	C	0.914808	-0.681629	-0.599473
C24	C	1.011268	-0.699128	-0.614829
C25	C	0.874508	-0.734815	-0.646162
C26	C	0.930657	-0.805489	-0.708213
C27	C	1.027107	-0.822984	-0.723567
C28	C	1.067418	-0.769805	-0.676876
C29	C	0.778048	-0.717317	-0.630805
C30	C	0.793897	-0.841177	-0.739545
C31	C	0.890346	-0.858669	-0.754903
C32	C	1.434220	-0.951361	-0.660983
C33	C	1.451429	-1.055435	-0.677384
C34	C	1.271785	-1.298396	-0.505848
C35	C	1.255612	-1.200612	-0.490439
C36	C	1.304565	-1.164313	-0.537174
C37	C	1.369694	-1.225807	-0.599320
C38	C	1.385864	-1.323599	-0.614733
C39	C	1.418644	-1.189517	-0.646060
C40	C	1.483773	-1.251011	-0.708206
C41	C	1.499941	-1.348793	-0.723616
C42	C	1.450988	-1.385093	-0.676881
C43	C	1.402474	-1.091725	-0.630646
C44	C	1.516552	-1.116928	-0.739532
C45	C	1.532726	-1.214712	-0.754941
C46	C	1.635089	-0.751862	-0.661134
C47	C	1.737747	-0.770500	-0.677498
C48	C	1.386163	-0.716128	-0.806307
C49	C	1.382743	-0.719538	-0.884535
C50	C	1.354024	-0.463944	-0.584351
C51	C	1.336909	-0.359889	-0.567995
C52	C	1.430352	-0.671996	-0.921293
C53	C	1.427127	-0.675195	-0.994795
C54	C	1.376298	-0.725942	-1.031538
C55	C	1.328683	-0.773485	-0.994775
C56	C	1.331903	-0.770280	-0.921273
C57	C	1.361384	-0.740792	-1.251363
C58	C	1.358170	-0.743996	-1.324871
C59	C	1.456613	-0.645704	-1.324885
C60	C	1.459833	-0.642508	-1.251383
C61	C	1.412214	-0.690047	-1.214625
N62	N	1.373002	-0.729216	-1.106670
N63	N	1.415505	-0.686768	-1.139494
C64	C	1.402224	-0.700095	-0.439870
C65	C	1.405779	-0.696454	-0.361629
H66	H	0.853260	-0.500237	-0.440207
N67	N	0.750430	-0.898543	-0.789905
H68	H	0.702742	-0.854735	-0.810229
H69	H	0.800694	-0.945971	-0.831500
H70	H	1.231930	-1.327960	-0.467806
H71	H	1.552969	-1.398860	-0.774222
N72	N	1.507955	-0.594423	-1.364535
H73	H	1.483165	-0.524373	-1.338941
H74	H	1.576887	-0.620456	-1.364547
N75	N	1.171450	-0.788677	-0.693442
H76	H	1.183549	-0.729264	-0.700064
H77	H	1.199527	-0.807913	-0.651509
H78	H	1.349444	-1.041664	-0.580046
H79	H	1.028250	-0.531982	-0.468078
N80	N	1.485187	-0.617270	-0.881671
H81	H	1.535584	-0.661765	-0.863988
H82	H	1.514795	-0.587647	-0.916154
H83	H	1.291393	-1.084693	-0.524624
N84	N	1.273856	-0.828225	-1.034392
H85	H	1.206036	-0.801140	-1.008788
H86	H	1.279108	-0.823035	-1.086531
H87	H	0.780125	-0.596709	-0.524914
H88	H	1.293124	-0.808983	-0.891342
N89	N	1.602972	-1.281041	-0.821968
H90	H	1.605784	-1.348494	-0.824636
H91	H	1.583522	-1.263511	-0.867231
N92	N	1.303311	-0.798711	-1.364480
H93	H	1.252921	-0.754209	-1.382164
H94	H	1.346686	-0.850250	-1.407751
N95	N	1.087673	-0.899222	-0.790483
H96	H	1.047504	-0.930256	-0.817732
H97	H	1.120018	-0.869869	-0.823493
N98	N	1.514656	-0.587761	-1.211769
H99	H	1.488741	-0.518829	-1.211767
H100	H	1.509466	-0.593008	-1.159646
N101	N	1.185375	-1.134290	-0.423413
H102	H	1.156821	-1.172121	-0.396143
H103	H	1.217721	-1.099115	-0.390469
N104	N	1.309991	-0.792028	-1.211712
H105	H	1.277295	-0.824651	-1.246142
H106	H	1.356016	-0.840853	-1.194001
N107	N	1.468414	-1.490559	-0.693510
H108	H	1.517093	-1.524009	-0.739974
H109	H	1.491409	-1.515039	-0.651630
N110	N	1.569352	-1.077791	-0.789948
H111	H	1.549228	-1.006513	-0.770753
H112	H	1.638621	-1.106328	-0.792238
N113	N	0.950909	-0.934901	-0.821824
H114	H	0.983261	-0.905610	-0.854886
H115	H	0.999249	-0.984206	-0.806285
N116	N	1.478468	-0.623898	-1.034426
H117	H	1.547411	-0.649857	-1.034444
H118	H	1.468643	-0.633624	-1.086543
N119	N	0.717494	-0.641098	-0.563882
H120	H	0.722791	-0.577754	-0.567050
H121	H	0.650304	-0.638168	-0.561275
