data_functionalizedCrystal
_audit_creation_method	'MofGen! by Chris Wilmer'
_symmetry_space_group_name_H-M	'P1'
_symmetry_Int_Tables_number	1
_symmetry_cell_setting	triclinic
loop_
_symmetry_equiv_pos_as_xyz
  x,y,z
_cell_length_a	19.288864
_cell_length_b	15.995350
_cell_length_c	18.366186
_cell_angle_alpha	89.995992
_cell_angle_beta	89.977106
_cell_angle_gamma	83.314311
loop_
_atom_site_label
_atom_site_type_symbol
_atom_site_fract_x
_atom_site_fract_y
_atom_site_fract_z
O1	O	0.921624	0.104451	-0.060780
O2	O	1.421624	0.604451	0.439220
O3	O	0.719400	0.118542	-0.060729
O4	O	1.219400	0.618542	0.439271
O5	O	0.826040	-0.010412	-0.060755
O6	O	1.326040	0.489588	0.439245
O7	O	0.814984	0.233405	-0.060754
O8	O	1.314984	0.733405	0.439246
O9	O	0.826022	-0.010418	0.060344
O10	O	1.326022	0.489582	0.560344
O11	O	0.719382	0.118535	0.060370
O12	O	1.219382	0.618535	0.560370
O13	O	0.921606	0.104445	0.060320
O14	O	1.421606	0.604445	0.560320
Zn15	Zn	0.820491	0.111489	0.079572
Zn16	Zn	1.320491	0.611489	0.579572
Zn17	Zn	0.820515	0.111498	-0.079982
Zn18	Zn	1.320515	0.611498	0.420018
O19	O	0.814966	0.233399	0.060346
O20	O	1.314966	0.733399	0.560346
C21	C	0.693513	0.118085	-0.000173
C22	C	1.193513	0.618085	0.499827
C23	C	0.616406	0.116724	-0.000154
C24	C	1.116406	0.616724	0.499846
C25	C	0.571906	0.192388	-0.000165
C26	C	1.071906	0.692388	0.499835
C27	C	0.499456	0.191110	-0.000173
C28	C	0.999456	0.691110	0.499827
C29	C	0.471508	0.114163	-0.000185
C30	C	0.971508	0.614163	0.499815
C31	C	0.516018	0.038489	-0.000170
C32	C	1.016018	0.538489	0.499830
C33	C	0.588467	0.039769	-0.000155
C34	C	1.088467	0.539769	0.499845
C35	C	0.363096	0.053676	-0.042636
C36	C	0.863096	0.553676	0.457364
C37	C	0.290648	0.052398	-0.042656
C38	C	0.790648	0.552398	0.457344
C39	C	0.248053	0.110209	-0.000229
C40	C	0.748053	0.610209	0.499771
C41	C	0.277912	0.169312	0.042208
C42	C	0.777912	0.669312	0.542208
C43	C	0.350361	0.170593	0.042224
C44	C	0.850361	0.670593	0.542224
C45	C	0.392951	0.112765	-0.000201
C46	C	0.892951	0.612765	0.499799
C47	C	0.124993	0.184492	-0.000248
C48	C	0.624993	0.684492	0.499752
C49	C	0.052542	0.183210	-0.000251
C50	C	0.552542	0.683210	0.499749
C51	C	0.069106	0.030587	-0.000255
C52	C	0.569106	0.530587	0.499745
C53	C	0.141556	0.031871	-0.000244
C54	C	0.641556	0.531871	0.499756
C55	C	0.169495	0.108826	-0.000244
C56	C	0.669495	0.608826	0.499756
C57	C	0.825574	-0.041608	-0.000207
C58	C	1.325574	0.458392	0.499793
C59	C	0.824203	-0.134553	-0.000211
C60	C	1.324203	0.365447	0.499789
C61	C	0.819282	-0.472282	-0.000207
C62	C	1.319282	0.027718	0.499793
C63	C	0.743335	-0.424562	-0.000460
C64	C	1.243335	0.075438	0.499540
C65	C	0.744706	-0.327877	-0.000187
C66	C	1.244706	0.172123	0.499813
C67	C	0.821723	-0.304731	-0.000209
C68	C	1.321723	0.195269	0.499791
C69	C	0.859173	-0.345953	0.068934
C70	C	1.359173	0.154047	0.568934
C71	C	0.857265	-0.442582	0.068992
C72	C	1.357265	0.057418	0.568992
C73	C	0.858854	-0.442939	-0.068721
C74	C	1.358854	0.057061	0.431279
C75	C	0.858836	-0.345993	-0.069635
C76	C	1.358836	0.154007	0.430365
C77	C	0.823107	-0.210039	-0.000208
C78	C	1.323107	0.289961	0.499792
C79	C	0.817901	-0.566975	-0.000203
C80	C	1.317901	-0.066975	0.499797
C81	C	0.947492	0.104902	-0.000238
C82	C	1.447492	0.604902	0.499762
C83	C	1.024600	0.106263	-0.000262
C84	C	1.524600	0.606263	0.499738
C85	C	0.815432	0.264595	-0.000204
C86	C	1.315432	0.764595	0.499796
C87	C	0.816802	0.357540	-0.000206
C88	C	1.316802	0.857540	0.499794
N89	N	0.820480	0.111483	0.188463
N90	N	1.320480	0.611483	0.688463
N91	N	0.820531	0.111497	-0.188873
N92	N	1.320531	0.611497	0.311127
C93	C	0.867715	0.054410	0.226552
C94	C	1.367715	0.554410	0.726552
C95	C	0.867720	0.054407	0.302780
C96	C	1.367720	0.554407	0.802780
C97	C	0.820495	0.111490	0.340916
C98	C	1.320495	0.611490	0.840916
C99	C	0.773250	0.168567	0.302818
C100	C	1.273250	0.668567	0.802818
C101	C	0.773243	0.168564	0.226591
C102	C	1.273243	0.668564	0.726591
C103	C	0.811395	0.187781	0.461678
C104	C	1.311395	0.687781	0.961678
C105	C	0.811407	0.187785	0.537903
C106	C	1.311407	0.687785	1.037903
C107	C	0.820515	0.111500	0.576023
C108	C	1.320515	0.611500	1.076023
C109	C	0.829624	0.035208	0.537909
C110	C	1.329624	0.535208	1.037909
C111	C	0.829617	0.035204	0.461683
C112	C	1.329617	0.535204	0.961683
C113	C	0.820498	0.111500	0.423571
C114	C	1.320498	0.611500	0.923571
C115	C	0.867758	0.054419	0.696767
C116	C	1.367758	0.554419	1.196767
C117	C	0.867757	0.054414	0.772996
C118	C	1.367757	0.554414	1.272996
C119	C	0.773292	0.168582	0.773033
C120	C	1.273292	0.668582	1.273033
C121	C	0.773289	0.168579	0.696805
C122	C	1.273289	0.668579	1.196805
C123	C	0.820525	0.111499	0.658677
C124	C	1.320525	0.611499	1.158677
H125	H	0.177789	-0.029743	-0.000239
H126	H	0.677789	0.470257	0.499761
H127	H	0.243232	0.216387	0.076757
H128	H	0.743232	0.716387	0.576757
H129	H	0.397772	0.006598	-0.077190
H130	H	0.897772	0.506598	0.422810
C131	C	0.932584	-0.486439	0.073229
C132	C	1.432584	0.013561	0.573229
H133	H	0.931929	-0.545736	0.073291
H134	H	1.431929	-0.045736	0.573291
H135	H	0.953974	-0.469922	0.116674
H136	H	1.453974	0.030078	0.616674
H137	H	0.958312	-0.470721	0.032328
H138	H	1.458312	0.029279	0.532328
C139	C	0.934495	-0.486135	-0.069378
C140	C	1.434495	0.013865	0.430622
H141	H	0.941952	-0.521884	-0.028126
H142	H	1.441952	-0.021884	0.471874
H143	H	0.965875	-0.444592	-0.067870
H144	H	1.465875	0.055408	0.432130
H145	H	0.942316	-0.518598	-0.112540
H146	H	1.442316	-0.018598	0.387460
C147	C	0.919708	-0.008374	0.654823
C148	C	1.419708	0.491626	1.154823
H149	H	0.947834	-0.042375	0.688428
H150	H	1.447834	0.457625	1.188428
H151	H	0.948618	0.021655	0.625070
H152	H	1.448618	0.521655	1.125070
H153	H	0.894716	-0.043154	0.625104
H154	H	1.394716	0.456846	1.125104
H155	H	0.906220	0.007934	0.804009
H156	H	1.406220	0.507934	1.304009
C157	C	0.704653	-0.290076	0.066902
C158	C	1.204653	0.209924	0.566902
H159	H	0.705348	-0.230787	0.067294
H160	H	1.205348	0.269213	0.567294
H161	H	0.726184	-0.313641	0.109913
H162	H	1.226184	0.186359	0.609913
H163	H	0.657707	-0.302470	0.064880
H164	H	1.157707	0.197530	0.564880
C165	C	0.485279	-0.046151	-0.000187
C166	C	0.985279	0.453849	0.499813
H167	H	0.435757	-0.036077	-0.000206
H168	H	0.935757	0.463923	0.499794
H169	H	0.500528	-0.077300	0.042044
H170	H	1.000528	0.422700	0.542044
H171	H	0.500581	-0.077289	-0.042421
H172	H	1.000581	0.422711	0.457579
H173	H	0.734838	0.215057	0.804083
H174	H	1.234838	0.715057	1.304083
C175	C	0.038376	-0.054056	-0.000265
C176	C	0.538376	0.445944	0.499735
H177	H	0.075259	-0.098937	-0.000253
H178	H	0.575259	0.401063	0.499747
H179	H	0.010479	-0.057728	-0.042498
H180	H	0.510479	0.442272	0.457502
H181	H	0.010437	-0.057727	0.041967
H182	H	0.510437	0.442273	0.541967
C183	C	0.257809	-0.012613	-0.089332
C184	C	0.757809	0.487387	0.410668
H185	H	0.293553	-0.046871	-0.114586
H186	H	0.793553	0.453129	0.385414
H187	H	0.226424	0.015828	-0.123456
H188	H	0.726424	0.515828	0.376544
H189	H	0.233199	-0.046920	-0.058741
H190	H	0.733199	0.453080	0.441259
C191	C	0.721343	0.231374	0.654902
C192	C	1.221343	0.731374	1.154902
H193	H	0.728100	0.223195	0.604043
H194	H	1.228100	0.723195	1.104043
H195	H	0.728890	0.287230	0.667388
H196	H	1.228890	0.787230	1.167388
H197	H	0.674985	0.222426	0.667415
H198	H	1.174985	0.722426	1.167415
C199	C	0.637419	-0.043465	-0.000151
C200	C	1.137419	0.456535	0.499849
H201	H	0.610401	-0.089477	-0.000163
H202	H	1.110401	0.410523	0.499837
H203	H	0.666006	-0.046141	0.042081
H204	H	1.166006	0.453859	0.542081
H205	H	0.666044	-0.046131	-0.042384
H206	H	1.166044	0.453869	0.457616
C207	C	0.820345	-0.467173	0.138829
C208	C	1.320345	0.032827	0.638829
H209	H	0.806649	-0.418131	0.166895
H210	H	1.306649	0.081869	0.666895
H211	H	0.851372	-0.505263	0.166470
H212	H	1.351372	-0.005263	0.666470
H213	H	0.780225	-0.493284	0.126202
H214	H	1.280225	0.006716	0.626202
H215	H	0.147742	0.247153	-0.000237
H216	H	0.647742	0.747153	0.499763
C217	C	0.935608	-0.327157	0.072395
C218	C	1.435608	0.172843	0.572395
H219	H	0.945382	-0.293919	0.031606
H220	H	1.445382	0.206081	0.531606
H221	H	0.965726	-0.378557	0.071746
H222	H	1.465726	0.121443	0.571746
H223	H	0.942867	-0.297379	0.115965
H224	H	1.442867	0.202621	0.615965
H225	H	0.833147	-0.317476	0.120403
H226	H	1.333147	0.182524	0.620403
C227	C	0.003591	0.266445	-0.000264
C228	C	0.503591	0.766445	0.499736
H229	H	0.030610	0.312457	-0.000268
H230	H	0.530610	0.812457	0.499732
H231	H	-0.025039	0.269122	0.041961
H232	H	0.474961	0.769122	0.541961
H233	H	-0.024991	0.269114	-0.042504
H234	H	0.475009	0.769114	0.457496
H235	H	0.734777	0.215040	0.195579
H236	H	1.234777	0.715040	0.695579
C237	C	0.383206	0.235592	0.088908
C238	C	0.883206	0.735592	0.588908
H239	H	0.347467	0.269838	0.114179
H240	H	0.847467	0.769838	0.614179
H241	H	0.407820	0.269901	0.058330
H242	H	0.907820	0.769901	0.558330
H243	H	0.414589	0.207132	0.123029
H244	H	0.914589	0.707132	0.623029
H245	H	0.715267	-0.299341	-0.049751
H246	H	1.215267	0.200659	0.450249
C247	C	0.801381	0.271700	0.419753
C248	C	1.301381	0.771700	0.919753
H249	H	0.795969	0.317136	0.453367
H250	H	1.295969	0.817136	0.953367
H251	H	0.760937	0.273523	0.390035
H252	H	1.260937	0.773523	0.890035
H253	H	0.841072	0.276217	0.389999
H254	H	1.341072	0.776217	0.889999
C255	C	0.825320	-0.470548	-0.139519
C256	C	1.325320	0.029452	0.360481
H257	H	0.786867	-0.500231	-0.127953
H258	H	1.286867	-0.000231	0.372047
H259	H	0.858835	-0.506147	-0.166531
H260	H	1.358835	-0.006147	0.333469
H261	H	0.809551	-0.422288	-0.167744
H262	H	1.309551	0.077712	0.332256
H263	H	0.803994	0.249907	0.568929
H264	H	1.303994	0.749907	1.068929
H265	H	0.712987	-0.442976	-0.050043
H266	H	1.212987	0.057024	0.449957
H267	H	0.734798	0.215044	0.333872
H268	H	1.234798	0.715044	0.833872
H269	H	0.837040	-0.026911	0.568945
H270	H	1.337040	0.473089	1.068945
C271	C	0.602636	0.277035	-0.000152
C272	C	1.102636	0.777035	0.499848
H273	H	0.565752	0.321915	-0.000152
H274	H	1.065752	0.821915	0.499848
H275	H	0.630581	0.280715	-0.042372
H276	H	1.130581	0.780715	0.457628
H277	H	0.630525	0.280702	0.042093
H278	H	1.130525	0.780702	0.542093
C279	C	0.450494	0.274341	-0.000189
C280	C	0.950494	0.774341	0.499811
H281	H	0.403345	0.262555	-0.000194
H282	H	0.903345	0.762555	0.499806
H283	H	0.458989	0.305904	-0.042418
H284	H	0.958989	0.805904	0.457582
H285	H	0.458938	0.305906	0.042048
H286	H	0.958938	0.805906	0.542048
H287	H	0.906177	0.007930	0.195510
H288	H	1.406177	0.507930	0.695510
C289	C	0.821903	-0.308970	-0.138738
C290	C	1.321903	0.191030	0.361262
H291	H	0.784026	-0.268530	-0.125343
H292	H	1.284026	0.231470	0.374657
H293	H	0.804846	-0.352804	-0.165887
H294	H	1.304846	0.147196	0.334113
H295	H	0.854054	-0.282714	-0.167610
H296	H	1.354054	0.217286	0.332390
H297	H	0.713107	-0.444044	0.048862
H298	H	1.213107	0.055956	0.548862
C299	C	0.934712	-0.325534	-0.075299
C300	C	1.434712	0.174466	0.424701
H301	H	0.944796	-0.291413	-0.035215
H302	H	1.444796	0.208587	0.464785
H303	H	0.940602	-0.296209	-0.119437
H304	H	1.440602	0.203791	0.380563
H305	H	0.965553	-0.376367	-0.074720
H306	H	1.465553	0.123633	0.425280
H307	H	0.906186	0.007929	0.333798
H308	H	1.406186	0.507929	0.833798
C309	C	0.839626	-0.048709	0.419758
C310	C	1.339626	0.451291	0.919758
H311	H	0.845146	-0.094143	0.453371
H312	H	1.345146	0.405857	0.953371
H313	H	0.880006	-0.050478	0.389918
H314	H	1.380006	0.449522	0.889918
H315	H	0.799885	-0.053279	0.390126
H316	H	1.299885	0.446721	0.890126
