data_functionalizedCrystal
_audit_creation_method	'MofGen! by Chris Wilmer'
_symmetry_space_group_name_H-M	'P1'
_symmetry_Int_Tables_number	1
_symmetry_cell_setting	triclinic
loop_
_symmetry_equiv_pos_as_xyz
  x,y,z
_cell_length_a	14.908520
_cell_length_b	14.908780
_cell_length_c	14.908694
_cell_angle_alpha	96.797826
_cell_angle_beta	96.744522
_cell_angle_gamma	83.210051
loop_
_atom_site_label
_atom_site_type_symbol
_atom_site_fract_x
_atom_site_fract_y
_atom_site_fract_z
Zn1	Zn	-0.313858	-1.396257	-0.608918
Zn2	Zn	0.186142	-0.896257	-0.108918
Zn3	Zn	-0.457411	-1.379587	-0.465375
Zn4	Zn	0.042589	-0.879587	0.034625
Zn5	Zn	-0.313877	-1.236152	-0.448820
Zn6	Zn	0.186123	-0.736152	0.051180
Zn7	Zn	-0.473894	-1.236113	-0.608841
Zn8	Zn	0.026106	-0.736113	-0.108841
O9	O	-0.389760	-1.312027	-0.532988
O10	O	0.110240	-0.812027	-0.032988
O11	O	-0.325994	-1.521094	-0.596837
O12	O	0.174006	-1.021094	-0.096837
O13	O	-0.431481	-1.353599	-0.336136
O14	O	0.068519	-0.853599	0.163864
O15	O	-0.186829	-1.264383	-0.463161
O16	O	0.313171	-0.764383	0.036839
O17	O	-0.431462	-1.508847	-0.491377
O18	O	0.068538	-1.008847	0.008623
O19	O	-0.186815	-1.382011	-0.580784
O20	O	0.313185	-0.882011	-0.080784
O21	O	-0.326027	-1.248219	-0.323973
O22	O	0.173973	-0.748219	0.176027
O23	O	-0.342010	-1.109098	-0.463086
O24	O	0.157990	-0.609098	0.036914
O25	O	-0.459555	-1.264317	-0.735894
O26	O	0.040445	-0.764317	-0.235894
O27	O	-0.459574	-1.109070	-0.580653
O28	O	0.040426	-0.609070	-0.080653
O29	O	-0.341977	-1.381974	-0.735950
O30	O	0.158023	-0.881974	-0.235950
O31	O	-0.586643	-1.353562	-0.491302
O32	O	-0.086643	-0.853562	0.008698
O33	O	-0.598753	-1.248153	-0.596706
O34	O	-0.098753	-0.748153	-0.096706
C35	C	-0.402583	-1.076142	-0.520066
C36	C	0.097417	-0.576142	-0.020066
C37	C	-0.408092	-0.975229	-0.514560
C38	C	0.091908	-0.475229	-0.014560
C39	C	-0.308789	-0.798355	-0.614216
C40	C	0.191211	-0.298355	-0.114216
C41	C	-0.313962	-0.703539	-0.609045
C42	C	0.186038	-0.203539	-0.109045
C43	C	-0.423606	-0.690778	-0.499044
C44	C	0.076394	-0.190778	0.000956
C45	C	-0.418433	-0.785594	-0.504215
C46	C	0.081567	-0.285594	-0.004215
C47	C	-0.361024	-0.839380	-0.561803
C48	C	0.138976	-0.339380	-0.061803
C49	C	-0.355856	-0.934198	-0.566978
C50	C	0.144144	-0.434198	-0.066978
C51	C	-0.465495	-0.921435	-0.456973
C52	C	0.034505	-0.421435	0.043027
C53	C	-0.470668	-0.826619	-0.451802
C54	C	0.029332	-0.326619	0.048198
C55	C	-0.625639	-1.299070	-0.545814
C56	C	-0.125639	-0.799070	-0.045814
C57	C	-0.726546	-1.293611	-0.551335
C58	C	-0.226546	-0.793611	-0.051335
C59	C	-0.903489	-1.393241	-0.452054
C60	C	-0.403489	-0.893241	0.047946
C61	C	-0.998300	-1.388116	-0.457239
C62	C	-0.498300	-0.888116	0.042761
C63	C	-1.010981	-1.278239	-0.566895
C64	C	-0.510981	-0.778239	-0.066895
C65	C	-0.916170	-1.283365	-0.561710
C66	C	-0.416170	-0.783365	-0.061710
C67	C	-0.862427	-1.340867	-0.504286
C68	C	-0.362427	-0.840867	-0.004286
C69	C	-0.767615	-1.345987	-0.499097
C70	C	-0.267615	-0.845987	0.000903
C71	C	-0.780297	-1.236116	-0.608757
C72	C	-0.280297	-0.736116	-0.108757
C73	C	-0.875108	-1.230991	-0.613942
C74	C	-0.375108	-0.730991	-0.113942
C75	C	-0.152960	-1.325061	-0.520134
C76	C	0.347040	-0.825061	-0.020134
C77	C	-0.052049	-1.330615	-0.514657
C78	C	0.447951	-0.830615	-0.014657
C79	C	-0.402602	-1.325001	-0.769784
C80	C	0.097398	-0.825001	-0.269784
C81	C	-0.408075	-1.330529	-0.870692
C82	C	0.091925	-0.830529	-0.370692
C83	C	-0.376879	-0.548834	-0.545955
C84	C	0.123121	-0.048834	-0.045955
C85	C	-0.371370	-0.649747	-0.551463
C86	C	0.128630	-0.149747	-0.051463
C87	C	-0.308553	-1.231163	-1.047644
C88	C	0.191447	-0.731163	-0.547644
C89	C	-0.313692	-1.236355	-1.142456
C90	C	0.186308	-0.736355	-0.642456
C91	C	-0.423497	-1.346098	-1.155129
C92	C	0.076503	-0.846098	-0.655129
C93	C	-0.418358	-1.340907	-1.060317
C94	C	0.081642	-0.840907	-0.560317
C95	C	-0.360883	-1.283438	-1.006578
C96	C	0.139117	-0.783438	-0.506578
C97	C	-0.355739	-1.278252	-0.911764
C98	C	0.144261	-0.778252	-0.411764
C99	C	-0.465548	-1.387990	-0.924439
C100	C	0.034452	-0.887990	-0.424439
C101	C	-0.470688	-1.393182	-1.019251
C102	C	0.029312	-0.893182	-0.519251
C103	C	-0.376899	-1.299160	-0.297113
C104	C	0.123101	-0.799160	0.202887
C105	C	-0.371161	-1.293821	-0.196202
C106	C	0.128839	-0.793821	0.303798
H107	H	-0.517406	-0.782814	-0.404913
H108	H	-0.017406	-0.282814	0.095087
H109	H	-0.508036	-0.954847	-0.414302
H110	H	-0.008036	-0.454847	0.085698
H111	H	-0.262048	-0.842148	-0.661111
H112	H	0.237952	-0.342148	-0.161111
H113	H	-0.517485	-1.439968	-1.063018
H114	H	-0.017485	-0.939968	-0.563018
O115	O	-0.715312	-1.401900	-0.443442
O116	O	-0.215312	-0.901900	0.056558
C117	C	-0.600877	-1.529655	-0.432200
C118	C	-0.100877	-1.029655	0.067800
C119	C	-0.660036	-1.466383	-0.495328
C120	C	-0.160036	-0.966383	0.004672
H121	H	-0.556185	-1.581817	-0.474126
H122	H	-0.056185	-1.081817	0.025874
H123	H	-0.556170	-1.487865	-0.379998
H124	H	-0.056170	-0.987865	0.120002
H125	H	-0.646535	-1.566165	-0.395741
H126	H	-0.146535	-1.066165	0.104259
H127	H	-0.614447	-1.429859	-0.531849
H128	H	-0.114447	-0.929859	-0.031849
H129	H	-0.704750	-1.508222	-0.547474
H130	H	-0.204750	-1.008222	-0.047474
O131	O	-0.479270	-1.402033	-1.207250
O132	O	0.020730	-0.902033	-0.707250
C133	C	-0.516488	-1.555633	-1.247198
C134	C	-0.016488	-1.055633	-0.747198
C135	C	-0.453272	-1.492390	-1.188099
C136	C	0.046728	-0.992390	-0.688099
H137	H	-0.495480	-1.628702	-1.231749
H138	H	0.004520	-1.128702	-0.731749
H139	H	-0.589561	-1.534715	-1.231647
H140	H	-0.089561	-1.034715	-0.731647
H141	H	-0.511185	-1.550301	-1.322007
H142	H	-0.011185	-1.050301	-0.822007
H143	H	-0.458496	-1.497690	-1.113272
H144	H	0.041504	-0.997690	-0.613272
H145	H	-0.380226	-1.513327	-1.203727
H146	H	0.119774	-1.013327	-0.703727
H147	H	-0.470336	-0.646970	-0.452148
H148	H	0.029664	-0.146970	0.047852
H149	H	-0.508156	-1.430560	-0.890994
H150	H	-0.008156	-0.930560	-0.390994
H151	H	-0.309111	-0.977989	-0.613871
H152	H	0.190889	-0.477989	-0.113871
H153	H	-1.031729	-1.430766	-0.414708
H154	H	-0.531729	-0.930766	0.085292
H155	H	-0.261746	-1.184379	-1.003889
H156	H	0.238254	-0.684379	-0.503889
O157	O	-1.063329	-1.222404	-0.622596
O158	O	-0.563329	-0.722404	-0.122596
C159	C	-1.215015	-1.165866	-0.679222
C160	C	-0.715015	-0.665866	-0.179222
C161	C	-1.155840	-1.229121	-0.616088
C162	C	-0.655840	-0.729121	-0.116088
H163	H	-1.289822	-1.171289	-0.673996
H164	H	-0.789822	-0.671289	-0.173996
H165	H	-1.199636	-1.092773	-0.658191
H166	H	-0.699636	-0.592773	-0.158191
H167	H	-1.199386	-1.186756	-0.752275
H168	H	-0.699386	-0.686756	-0.252275
H169	H	-1.171436	-1.208313	-0.543017
H170	H	-0.671436	-0.708313	-0.043017
H171	H	-1.171229	-1.302199	-0.637197
H172	H	-0.671229	-0.802199	-0.137197
H173	H	-0.918878	-1.184177	-0.660697
H174	H	-0.418878	-0.684177	-0.160697
H175	H	-0.271425	-0.670140	-0.651723
H176	H	0.228575	-0.170140	-0.151723
O177	O	-0.851185	-1.449148	-0.396395
O178	O	-0.351185	-0.949148	0.103605
C179	C	-0.736746	-1.576898	-0.385137
C180	C	-0.236746	-1.076898	0.114863
C181	C	-0.795908	-1.513636	-0.448273
C182	C	-0.295908	-1.013636	0.051727
H183	H	-0.692053	-1.629064	-0.427058
H184	H	-0.192053	-1.129064	0.072942
H185	H	-0.692039	-1.535099	-0.332942
H186	H	-0.192039	-1.035099	0.167058
H187	H	-0.782401	-1.613402	-0.348670
H188	H	-0.282401	-1.113402	0.151330
H189	H	-0.750321	-1.477118	-0.484803
H190	H	-0.250321	-0.977118	0.015197
H191	H	-0.840622	-1.555483	-0.500413
H192	H	-0.340622	-1.055483	-0.000413
H193	H	-0.746854	-1.193467	-0.651286
H194	H	-0.246854	-0.693467	-0.151286
H195	H	-0.271080	-1.193787	-1.175888
H196	H	0.228920	-0.693787	-0.675888
H197	H	-0.308937	-1.231462	-0.868011
H198	H	0.191063	-0.731462	-0.368011
