data_functionalizedCrystal
_audit_creation_method	'MofGen! by Chris Wilmer'
_symmetry_space_group_name_H-M	'P1'
_symmetry_Int_Tables_number	1
_symmetry_cell_setting	triclinic
loop_
_symmetry_equiv_pos_as_xyz
  x,y,z
_cell_length_a	16.959455
_cell_length_b	25.639240
_cell_length_c	16.959447
_cell_angle_alpha	89.959742
_cell_angle_beta	89.983277
_cell_angle_gamma	90.031705
loop_
_atom_site_label
_atom_site_type_symbol
_atom_site_fract_x
_atom_site_fract_y
_atom_site_fract_z
Zn1	Zn	1.208314	-0.208155	-0.446905
Zn2	Zn	1.208207	-0.295596	-0.314703
Zn3	Zn	1.076143	-0.208175	-0.314737
Zn4	Zn	1.076078	-0.295560	-0.446836
O5	O	1.142186	-0.251871	-0.380795
O6	O	1.318911	-0.219761	-0.429383
O7	O	1.190671	-0.284022	-0.204097
O8	O	1.093747	-0.135007	-0.332312
O9	O	1.318832	-0.284004	-0.332255
O10	O	1.190853	-0.134993	-0.429415
O11	O	1.093644	-0.219794	-0.204121
O12	O	0.965523	-0.219759	-0.332245
O13	O	1.093637	-0.283942	-0.557456
O14	O	0.965476	-0.283961	-0.429298
O15	O	1.190790	-0.219726	-0.557507
O16	O	1.190608	-0.368756	-0.332188
O17	O	1.093534	-0.368730	-0.429266
C18	C	0.936819	-0.251859	-0.380769
C19	C	0.848963	-0.251866	-0.380776
C20	C	0.807690	-0.218392	-0.330326
C21	C	0.807682	-0.285344	-0.431238
C22	C	0.725136	-0.285350	-0.431249
C23	C	0.683863	-0.251876	-0.380799
C24	C	0.725136	-0.218395	-0.330338
C25	C	0.683857	-0.318827	-0.481716
C26	C	0.601306	-0.318834	-0.481730
C27	C	0.560031	-0.285361	-0.431275
C28	C	0.601310	-0.251880	-0.380811
C29	C	0.560037	-0.218405	-0.330361
C30	C	0.601314	-0.184926	-0.279892
C31	C	0.683862	-0.184923	-0.279883
C32	C	0.477483	-0.285364	-0.431284
C33	C	0.477483	-0.218409	-0.330373
C34	C	1.142074	-0.387714	-0.380733
C35	C	1.142098	-0.445828	-0.380733
C36	C	1.192774	-0.806145	-0.431448
C37	C	1.192797	-0.860749	-0.431464
O38	O	1.235750	-0.888947	-0.474520
N39	N	1.142295	-0.888110	-0.380872
C40	C	1.091761	-0.860864	-0.330265
O41	O	1.048807	-0.889151	-0.287234
C42	C	1.091734	-0.806261	-0.330254
C43	C	1.142245	-0.778903	-0.380844
C44	C	1.243280	-0.778787	-0.482035
C45	C	1.243257	-0.724186	-0.482018
C46	C	1.192729	-0.696944	-0.431414
C47	C	1.142223	-0.724302	-0.380827
C48	C	1.041197	-0.779016	-0.279652
C49	C	1.041174	-0.724409	-0.279645
C50	C	1.091685	-0.697051	-0.330236
C51	C	1.091672	-0.642459	-0.330205
N52	N	1.142174	-0.615098	-0.380798
C53	C	1.192702	-0.642341	-0.431402
C54	C	1.091820	-0.975535	-0.330294
C55	C	1.091850	-1.030137	-0.330301
C56	C	1.192885	-1.030018	-0.431501
C57	C	1.192858	-0.975415	-0.431490
C58	C	1.142322	-0.948174	-0.380887
C59	C	1.192651	-0.527676	-0.431361
C60	C	1.192627	-0.473070	-0.431337
C61	C	1.091589	-0.473194	-0.330141
C62	C	1.091616	-0.527794	-0.330161
C63	C	1.142150	-0.555034	-0.380778
O64	O	1.048738	-0.614227	-0.287174
O65	O	1.235642	-0.614047	-0.474433
C66	C	1.348354	-0.251884	-0.380823
C67	C	1.436210	-0.251890	-0.380834
C68	C	1.142218	-0.251828	-0.586964
C69	C	1.142232	-0.251810	-0.674820
C70	C	1.142319	-0.115498	-0.380875
C71	C	1.142376	-0.057384	-0.380909
C72	C	1.091744	-0.285189	-1.046272
C73	C	1.192910	-0.218320	-1.046320
C74	C	1.192889	-0.218331	-0.963774
C75	C	1.142295	-0.251772	-0.922473
C76	C	1.091723	-0.285202	-0.963719
C77	C	1.243467	-0.184906	-0.922522
C78	C	1.243448	-0.184916	-0.839971
C79	C	1.192850	-0.218355	-0.798669
C80	C	1.142274	-0.251785	-0.839920
C81	C	1.091681	-0.285226	-0.798619
C82	C	1.041101	-0.318655	-0.839868
C83	C	1.041124	-0.318640	-0.922417
C84	C	1.192826	-0.218369	-0.716121
C85	C	1.091660	-0.285239	-0.716066
C86	C	1.142198	-0.251877	-0.175429
C87	C	1.142337	-0.251748	-0.087573
H88	H	1.233761	-0.450797	-0.472534
N89	N	0.849850	-0.319526	-0.482773
N90	N	0.923553	-0.319513	-0.482761
H91	H	0.953339	-0.343654	-0.519161
H92	H	0.999911	-0.345884	-0.806231
N93	N	0.435308	-0.319550	-0.482831
N94	N	0.389277	-0.301193	-0.533253
H95	H	0.359491	-0.325339	-0.569661
H96	H	0.841301	-0.191135	-0.289233
H97	H	0.999947	-0.345858	-0.956009
H98	H	1.050493	-0.550070	-0.288960
N99	N	1.244286	-0.555495	-0.483048
N100	N	1.294691	-0.585948	-0.455292
H101	H	1.331162	-0.605595	-0.491791
N102	N	1.294882	-0.696249	-0.533672
N103	N	1.345268	-0.665784	-0.505883
H104	H	1.381742	-0.646061	-0.542360
H105	H	1.234106	-0.191097	-1.079952
H106	H	1.284426	-0.800962	-0.523247
N107	N	1.244460	-0.947480	-0.483169
N108	N	1.289572	-0.971817	-0.528341
H109	H	1.326019	-0.952090	-0.564843
H110	H	1.284662	-0.157684	-0.956155
N111	N	1.040212	-0.947709	-0.278586
N112	N	1.068037	-0.917253	-0.228233
H113	H	1.031588	-0.897603	-0.191715
H114	H	1.050452	-0.312467	-0.682445
H115	H	1.284633	-0.157696	-0.806393
H116	H	1.234010	-0.191153	-0.682539
N117	N	1.039992	-0.445352	-0.278448
N118	N	1.039986	-0.396600	-0.278446
H119	H	1.003544	-0.376935	-0.241939
H120	H	0.567699	-0.157669	-0.238819
H121	H	1.234027	-1.052209	-0.472707
H122	H	1.000019	-0.702231	-0.238439
N123	N	0.559159	-0.353032	-0.533286
N124	N	0.596020	-0.382915	-0.578328
H125	H	0.566254	-0.407070	-0.614739
H126	H	0.443885	-0.191151	-0.289288
H127	H	0.717477	-0.157666	-0.238794
N128	N	0.726026	-0.353005	-0.533254
N129	N	0.799730	-0.352994	-0.533236
H130	H	0.829517	-0.377132	-0.569639
H131	H	1.050728	-1.052408	-0.289097
H132	H	1.050560	-0.312404	-1.079861
N133	N	0.989586	-0.806944	-0.227979
N134	N	0.944468	-0.782604	-0.182817
H135	H	0.908009	-0.802327	-0.146325
