data_functionalizedCrystal
_audit_creation_method	'MofGen! by Chris Wilmer'
_symmetry_space_group_name_H-M	'P1'
_symmetry_Int_Tables_number	1
_symmetry_cell_setting	triclinic
loop_
_symmetry_equiv_pos_as_xyz
  x,y,z
_cell_length_a	16.974885
_cell_length_b	11.792254
_cell_length_c	16.053802
_cell_angle_alpha	92.583162
_cell_angle_beta	91.069328
_cell_angle_gamma	83.794934
loop_
_atom_site_label
_atom_site_type_symbol
_atom_site_fract_x
_atom_site_fract_y
_atom_site_fract_z
O1	O	1.049691	0.144712	0.001430
O2	O	1.549691	0.644712	0.501430
O3	O	0.820306	0.162079	-0.014056
O4	O	1.320306	0.662079	0.485944
O5	O	0.940559	-0.011806	-0.005932
O6	O	1.440559	0.488194	0.494068
O7	O	0.929437	0.318597	-0.006695
O8	O	1.429437	0.818597	0.493305
O9	O	0.933940	-0.002275	0.132480
O10	O	1.433940	0.497725	0.632480
O11	O	0.813687	0.171610	0.124355
O12	O	1.313687	0.671610	0.624355
O13	O	1.043071	0.154243	0.139842
O14	O	1.543071	0.654243	0.639842
Zn15	Zn	0.927328	0.164440	0.154074
Zn16	Zn	1.427328	0.664440	0.654074
Zn17	Zn	0.936049	0.151882	-0.028289
Zn18	Zn	1.436049	0.651882	0.471711
O19	O	0.922818	0.328128	0.131717
O20	O	1.422818	0.828128	0.631717
C21	C	0.787630	0.166008	0.053167
C22	C	1.287630	0.666008	0.553167
C23	C	0.700127	0.163503	0.047259
C24	C	1.200127	0.663503	0.547259
C25	C	0.207974	0.148800	0.005851
C26	C	0.707974	0.648800	0.505851
C27	C	0.290191	0.151155	0.011413
C28	C	0.790191	0.651155	0.511413
C29	C	0.327683	0.157537	0.089643
C30	C	0.827683	0.657537	0.589643
C31	C	0.282954	0.161552	0.162316
C32	C	0.782954	0.661552	0.662316
C33	C	0.200739	0.159189	0.156753
C34	C	0.700739	0.659189	0.656753
C35	C	0.573183	0.165155	0.114370
C36	C	1.073183	0.665155	0.614370
C37	C	0.655404	0.167521	0.119927
C38	C	1.155404	0.667521	0.619927
C39	C	0.662636	0.157122	-0.030977
C40	C	1.162636	0.657122	0.469023
C41	C	0.580418	0.154766	-0.036532
C42	C	1.080418	0.654766	0.463468
C43	C	0.535697	0.158776	0.036140
C44	C	1.035697	0.658776	0.536140
N45	N	0.411722	0.159948	0.095330
N46	N	0.911722	0.659948	0.595330
N47	N	0.451660	0.156356	0.030453
N48	N	0.951660	0.656356	0.530453
C49	C	0.936549	-0.049327	0.063226
C50	C	1.436549	0.450673	0.563226
C51	C	0.934452	-0.175328	0.063084
C52	C	1.434452	0.324672	0.563084
C53	C	0.932748	-0.277655	0.062966
C54	C	1.432748	0.222345	0.562966
C55	C	0.930618	-0.406030	0.062814
C56	C	1.430618	0.093970	0.562814
C57	C	1.075748	0.150314	0.072616
C58	C	1.575748	0.650314	0.572616
C59	C	1.163250	0.152819	0.078518
C60	C	1.663250	0.652819	0.578518
C61	C	0.926828	0.365649	0.062557
C62	C	1.426828	0.865649	0.562557
C63	C	0.928926	0.491650	0.062694
C64	C	1.428926	0.991650	0.562694
N65	N	0.921382	0.173010	0.278533
N66	N	1.421382	0.673010	0.778533
N67	N	0.942002	0.143303	-0.152747
N68	N	1.442002	0.643303	0.347253
C69	C	0.972569	0.099048	0.325685
C70	C	1.472569	0.599048	0.825685
C71	C	0.968417	0.105054	0.412811
C72	C	1.468417	0.605054	0.912811
C73	C	0.913081	0.185028	0.452784
C74	C	1.413081	0.685028	0.952784
C75	C	0.861889	0.258993	0.405625
C76	C	1.361889	0.758993	0.905625
C77	C	0.866038	0.252981	0.318500
C78	C	1.366038	0.752981	0.818500
C79	C	0.894958	0.211256	0.712969
C80	C	1.394958	0.711256	1.212969
C81	C	0.890815	0.217265	0.800101
C82	C	1.390815	0.717265	1.300101
C83	C	0.997342	0.063324	0.807280
C84	C	1.497342	0.563324	1.307280
C85	C	1.001489	0.057324	0.720154
C86	C	1.501489	0.557324	1.220154
C87	C	0.950294	0.131285	0.673003
C88	C	1.450294	0.631285	1.173003
N89	N	0.908837	0.191171	0.541841
N90	N	1.408837	0.691171	1.041841
N91	N	0.954535	0.125135	0.583947
N92	N	1.454535	0.625135	1.083947
H93	H	0.313487	0.166741	0.226012
H94	H	0.813487	0.666741	0.726012
H95	H	0.164325	0.162473	0.215927
H96	H	0.664325	0.662473	0.715927
H97	H	1.039022	0.003107	0.845679
H98	H	1.539022	0.503107	1.345679
N99	N	0.542135	0.148263	-0.116450
N100	N	1.042135	0.648263	0.383550
N101	N	0.582076	0.144683	-0.181327
N102	N	1.082076	0.644683	0.318673
H103	H	0.555038	0.140097	-0.237770
H104	H	1.055038	0.640097	0.262230
H105	H	1.017632	0.033930	0.293146
H106	H	1.517632	0.533930	0.793146
N107	N	0.813753	0.328551	0.270346
N108	N	1.313753	0.828551	0.770346
N109	N	0.814817	0.434135	0.280167
N110	N	1.314817	0.934135	0.780167
H111	H	0.777888	0.487508	0.246159
H112	H	1.277888	0.987508	0.746159
N113	N	0.834278	0.298960	0.840919
N114	N	1.334278	0.798960	1.340919
N115	N	0.788568	0.364984	0.798812
N116	N	1.288568	0.864984	1.298812
H117	H	0.748639	0.422676	0.827639
H118	H	1.248639	0.922676	1.327639
N119	N	0.708329	0.153029	-0.105197
N120	N	1.208329	0.653029	0.394803
N121	N	0.781735	0.155140	-0.100224
N122	N	1.281735	0.655140	0.399776
H123	H	0.814008	0.152247	-0.152645
H124	H	1.314008	0.652247	0.347355
H125	H	0.816829	0.324106	0.438176
H126	H	1.316829	0.824106	0.938176
H127	H	1.010097	0.044828	0.451202
H128	H	1.510097	0.544828	0.951202
N129	N	1.058154	-0.024181	0.679348
N130	N	1.558154	0.475819	1.179348
N131	N	1.103942	-0.090085	0.721465
N132	N	1.603942	0.409915	1.221465
H133	H	1.144015	-0.147574	0.692650
H134	H	1.644015	0.352426	1.192650
H135	H	0.853274	0.271480	0.674585
H136	H	1.353274	0.771480	1.174585
H137	H	0.177454	0.143612	-0.057852
H138	H	0.677454	0.643612	0.442148
H139	H	0.326602	0.147876	-0.047761
H140	H	0.826602	0.647876	0.452239
N141	N	0.693685	0.174090	0.199848
N142	N	1.193685	0.674090	0.699848
N143	N	0.653745	0.177701	0.264727
N144	N	1.153745	0.677701	0.764727
H145	H	0.680779	0.182360	0.321169
H146	H	1.180779	0.682360	0.821169
H147	H	0.536782	0.168403	0.173545
H148	H	1.036782	0.668403	0.673545
