data_functionalizedCrystal
_audit_creation_method	'MofGen! by Chris Wilmer'
_symmetry_space_group_name_H-M	'P1'
_symmetry_Int_Tables_number	1
_symmetry_cell_setting	triclinic
loop_
_symmetry_equiv_pos_as_xyz
  x,y,z
_cell_length_a	19.805407
_cell_length_b	19.805405
_cell_length_c	17.077396
_cell_angle_alpha	89.968350
_cell_angle_beta	89.974830
_cell_angle_gamma	90.025657
loop_
_atom_site_label
_atom_site_type_symbol
_atom_site_fract_x
_atom_site_fract_y
_atom_site_fract_z
Zn1	Zn	1.034742	-0.269477	-0.443944
Zn2	Zn	1.534742	0.230523	0.056056
Zn3	Zn	1.034655	-0.382670	-0.312671
Zn4	Zn	1.534655	0.117330	0.187329
Zn5	Zn	0.921555	-0.269499	-0.312679
Zn6	Zn	1.421555	0.230501	0.187321
Zn7	Zn	0.921520	-0.382628	-0.443881
Zn8	Zn	1.421520	0.117372	0.056119
O9	O	0.978118	-0.326068	-0.378294
O10	O	1.478118	0.173932	0.121706
O11	O	1.129447	-0.284501	-0.426553
O12	O	1.629447	0.215499	0.073447
O13	O	1.019630	-0.367684	-0.202825
O14	O	1.519630	0.132316	0.297175
O15	O	0.936620	-0.174779	-0.330121
O16	O	1.436620	0.325221	0.169879
O17	O	1.129383	-0.367663	-0.330107
O18	O	1.629383	0.132337	0.169893
O19	O	1.019779	-0.174763	-0.426561
O20	O	1.519779	0.325237	0.073439
O21	O	0.936536	-0.284538	-0.202831
O22	O	1.436536	0.215462	0.297169
O23	O	0.826834	-0.284497	-0.330061
O24	O	1.326834	0.215503	0.169939
O25	O	0.936561	-0.367591	-0.553737
O26	O	1.436561	0.132409	-0.053737
O27	O	0.826808	-0.367612	-0.426454
O28	O	1.326808	0.132388	0.073546
O29	O	1.019745	-0.284460	-0.553783
O30	O	1.519745	0.215540	-0.053783
O31	O	1.019597	-0.477381	-0.330047
O32	O	1.519597	0.022619	0.169953
O33	O	0.936477	-0.477350	-0.426446
O34	O	1.436477	0.022650	0.073554
C35	C	0.802262	-0.326053	-0.378252
C36	C	1.302262	0.173947	0.121748
C37	C	0.727030	-0.326063	-0.378253
C38	C	1.227030	0.173937	0.121747
C39	C	0.265244	-0.369428	-0.428458
C40	C	0.765244	0.130572	0.071542
C41	C	0.335932	-0.369427	-0.428441
C42	C	0.835932	0.130573	0.071559
C43	C	0.371268	-0.326085	-0.378325
C44	C	0.871268	0.173915	0.121675
C45	C	0.335913	-0.282746	-0.328216
C46	C	0.835913	0.217254	0.171784
C47	C	0.265226	-0.282751	-0.328229
C48	C	0.765226	0.217249	0.171771
C49	C	0.620986	-0.282725	-0.328161
C50	C	1.120986	0.217275	0.171839
C51	C	0.691678	-0.282722	-0.328153
C52	C	1.191678	0.217278	0.171847
C53	C	0.691692	-0.369401	-0.428373
C54	C	1.191692	0.130599	0.071627
C55	C	0.621005	-0.369406	-0.428386
C56	C	1.121005	0.130594	0.071614
C57	C	0.585656	-0.326070	-0.378275
C58	C	1.085656	0.173930	0.121725
C59	C	0.509007	-0.326072	-0.378292
C60	C	1.009007	0.173928	0.121708
C61	C	0.447916	-0.326078	-0.378310
C62	C	0.947916	0.173922	0.121690
C63	C	0.978042	-0.501924	-0.378256
C64	C	1.478042	-0.001924	0.121744
C65	C	0.978071	-0.577156	-0.378266
C66	C	1.478071	-0.077156	0.121734
C67	C	1.021394	-0.612494	-0.328123
C68	C	1.521394	-0.112494	0.171877
C69	C	1.021422	-0.683182	-0.328140
C70	C	1.521422	-0.183182	0.171860
C71	C	0.978125	-0.718532	-0.378297
C72	C	1.478125	-0.218532	0.121703
C73	C	0.934801	-0.683189	-0.428446
C74	C	1.434801	-0.183189	0.071554
C75	C	0.934776	-0.612502	-0.428432
C76	C	1.434776	-0.112502	0.071568
C77	C	0.934900	-0.968262	-0.428504
C78	C	1.434900	-0.468262	0.071496
C79	C	0.934927	-1.038954	-0.428512
C80	C	1.434927	-0.538954	0.071488
C81	C	1.021547	-1.038943	-0.328213
C82	C	1.521547	-0.538943	0.171787
C83	C	1.021522	-0.968256	-0.328199
C84	C	1.521522	-0.468256	0.171801
C85	C	0.978201	-0.932919	-0.378350
C86	C	1.478201	-0.432919	0.121650
C87	C	0.978171	-0.856271	-0.378331
C88	C	1.478171	-0.356271	0.121669
C89	C	0.978151	-0.795179	-0.378312
C90	C	1.478151	-0.295179	0.121688
C91	C	1.154661	-0.326084	-0.378336
C92	C	1.654661	0.173916	0.121664
C93	C	1.229893	-0.326091	-0.378354
C94	C	1.729893	0.173909	0.121646
C95	C	0.978159	-0.326018	-0.583038
C96	C	1.478159	0.173982	-0.083038
C97	C	0.978177	-0.325997	-0.670288
C98	C	1.478177	0.174003	-0.170288
C99	C	0.978213	-0.149525	-0.378349
C100	C	1.478213	0.350475	0.121651
C101	C	0.978253	-0.074293	-0.378373
C102	C	1.478253	0.425707	0.121627
C103	C	1.021492	-0.282707	-0.711304
C104	C	1.521492	0.217293	-0.211304
C105	C	1.021500	-0.282684	-0.793284
C106	C	1.521500	0.217316	-0.293284
C107	C	0.978196	-0.325956	-0.834248
C108	C	1.478196	0.174044	-0.334248
C109	C	0.934876	-0.369248	-0.793226
C110	C	1.434876	0.130752	-0.293226
C111	C	0.934865	-0.369267	-0.711247
C112	C	1.434865	0.130733	-0.211247
C113	C	0.934903	-0.369207	-0.964097
C114	C	1.434903	0.130793	-0.464097
C115	C	0.934915	-0.369190	-1.046081
C116	C	1.434915	0.130810	-0.546081
C117	C	1.021538	-0.282625	-1.046133
C118	C	1.521538	0.217375	-0.546133
C119	C	1.021527	-0.282644	-0.964154
C120	C	1.521527	0.217356	-0.464154
C121	C	0.978208	-0.325937	-0.923139
C122	C	1.478208	0.174063	-0.423139
C123	C	0.978116	-0.326069	-0.174346
C124	C	1.478116	0.173931	0.325654
C125	C	0.978230	-0.325900	-0.087097
C126	C	1.478230	0.174100	0.412903
H127	H	0.592213	-0.247440	-0.287354
H128	H	1.092213	0.252560	0.212646
C129	C	0.887247	-0.929398	-0.483663
C130	C	1.387247	-0.429398	0.016337
H131	H	0.893436	-0.882236	-0.476481
H132	H	1.393436	-0.382236	0.023519
H133	H	0.841780	-0.941025	-0.472124
H134	H	1.341780	-0.441025	0.027876
H135	H	0.897137	-0.940946	-0.536420
H136	H	1.397137	-0.440946	-0.036420
C137	C	0.374815	-0.417093	-0.483559
C138	C	0.874815	0.082907	0.016441
H139	H	0.343646	-0.442900	-0.513416
H140	H	0.843646	0.057100	-0.013416
H141	H	0.402364	-0.446553	-0.453470
H142	H	0.902364	0.053447	0.046530
H143	H	0.402417	-0.391230	-0.517811
H144	H	0.902417	0.108770	-0.017811
C145	C	0.887173	-0.722071	-0.483615
C146	C	1.387173	-0.222071	0.016385
H147	H	0.893386	-0.769232	-0.476437
H148	H	1.393386	-0.269232	0.023563
H149	H	0.897045	-0.710448	-0.536367
H150	H	1.397045	-0.210448	-0.036367
H151	H	0.841696	-0.710528	-0.472064
H152	H	1.341696	-0.210528	0.027936
C153	C	1.069150	-0.235068	-0.838398
C154	C	1.569150	0.264932	-0.338398
H155	H	1.094945	-0.209307	-0.802260
H156	H	1.594945	0.290693	-0.302260
H157	H	1.043283	-0.205564	-0.870379
H158	H	1.543283	0.294436	-0.370379
H159	H	1.098632	-0.260962	-0.870378
H160	H	1.598632	0.239038	-0.370378
H161	H	1.056793	-0.247412	-0.930804
H162	H	1.556793	0.252588	-0.430804
C163	C	1.069137	-0.929372	-0.273015
C164	C	1.569137	-0.429372	0.226985
H165	H	1.062910	-0.882212	-0.280181
H166	H	1.562910	-0.382212	0.219819
H167	H	1.114616	-0.940906	-0.284546
H168	H	1.614616	-0.440906	0.215454
H169	H	1.059248	-0.941002	-0.220265
H170	H	1.559248	-0.441002	0.279735
H171	H	0.720447	-0.247424	-0.287341
H172	H	1.220447	0.252576	0.212659
H173	H	0.236444	-0.247459	-0.287432
H174	H	0.736444	0.252541	0.212568
H175	H	0.899651	-0.404424	-1.079432
H176	H	1.399651	0.095576	-0.579432
C177	C	0.887275	-0.416851	-0.918981
C178	C	1.387275	0.083149	-0.418981
H179	H	0.861497	-0.442631	-0.955117
H180	H	1.361497	0.057369	-0.455117
H181	H	0.857786	-0.390986	-0.886985
H182	H	1.357786	0.109014	-0.386985
H183	H	0.913173	-0.446347	-0.887015
H184	H	1.413173	0.053653	-0.387015
H185	H	0.899614	-0.404478	-0.826586
H186	H	1.399614	0.095522	-0.326586
H187	H	1.056649	-0.583717	-0.287276
H188	H	1.556649	-0.083717	0.212724
C189	C	1.069206	-1.077812	-0.273050
C190	C	1.569206	-0.577812	0.226950
H191	H	1.094983	-1.046634	-0.243171
H192	H	1.594983	-0.546634	0.256829
H193	H	1.098695	-1.105344	-0.303114
H194	H	1.598695	-0.605344	0.196886
H195	H	1.043336	-1.105428	-0.238821
H196	H	1.543336	-0.605428	0.261179
H197	H	0.720483	-0.404689	-0.469173
H198	H	1.220483	0.095311	0.030827
H199	H	1.056699	-0.711951	-0.287309
H200	H	1.556699	-0.211951	0.212691
H201	H	0.899499	-0.583731	-0.469264
H202	H	1.399499	-0.083731	0.030736
C203	C	0.887235	-0.416902	-0.666131
C204	C	1.387235	0.083098	-0.166131
H205	H	0.861454	-0.442680	-0.702267
H206	H	1.361454	0.057320	-0.202267
H207	H	0.857749	-0.391029	-0.634140
H208	H	1.357749	0.108971	-0.134140
H209	H	0.913124	-0.446401	-0.634159
H210	H	1.413124	0.053599	-0.134159
C211	C	0.887303	-1.077838	-0.483694
C212	C	1.387303	-0.577838	0.016306
H213	H	0.861504	-1.046669	-0.513567
H214	H	1.361504	-0.546669	-0.013567
H215	H	0.857835	-1.105456	-0.453641
H216	H	1.357835	-0.605456	0.046359
H217	H	0.913198	-1.105370	-0.517929
H218	H	1.413198	-0.605370	-0.017929
H219	H	1.056757	-0.247472	-0.677957
H220	H	1.556757	0.252528	-0.177957
C221	C	1.069196	-0.235011	-1.091246
C222	C	1.569196	0.264989	-0.591246
H223	H	1.063000	-0.241193	-1.145937
H224	H	1.563000	0.258807	-0.645937
H225	H	1.114662	-0.244936	-1.077818
H226	H	1.614662	0.255064	-0.577818
H227	H	1.059321	-0.189530	-1.077827
H228	H	1.559321	0.310470	-0.577827
H229	H	0.236478	-0.404718	-0.469273
H230	H	0.736478	0.095282	0.030727
C231	C	0.582139	-0.417082	-0.483513
C232	C	1.082139	0.082918	0.016487
H233	H	0.613317	-0.442897	-0.513347
H234	H	1.113317	0.057103	-0.013347
H235	H	0.554590	-0.391231	-0.517774
H236	H	1.054590	0.108769	-0.017774
H237	H	0.554539	-0.446544	-0.453422
H238	H	1.054539	0.053456	0.046578
H239	H	0.364689	-0.247459	-0.287407
H240	H	0.864689	0.252541	0.212593
