data_functionalizedCrystal
_audit_creation_method	'MofGen! by Chris Wilmer'
_symmetry_space_group_name_H-M	'P1'
_symmetry_Int_Tables_number	1
_symmetry_cell_setting	triclinic
loop_
_symmetry_equiv_pos_as_xyz
  x,y,z
_cell_length_a	19.288859
_cell_length_b	19.288857
_cell_length_c	17.766277
_cell_angle_alpha	89.991474
_cell_angle_beta	89.989768
_cell_angle_gamma	83.133417
loop_
_atom_site_label
_atom_site_type_symbol
_atom_site_fract_x
_atom_site_fract_y
_atom_site_fract_z
O1	O	0.921353	0.086629	-0.062613
O2	O	0.719092	0.098322	-0.062611
O3	O	0.826070	-0.008656	-0.062603
O4	O	0.814375	0.193606	-0.062621
O5	O	0.826051	-0.008661	0.062586
O6	O	0.719073	0.098316	0.062577
O7	O	0.921335	0.086623	0.062576
Cu8	Cu	0.820202	0.092469	0.074007
Cu9	Cu	0.820224	0.092476	-0.074043
O10	O	0.814357	0.193601	0.062568
C11	C	0.693206	0.097944	-0.000017
C12	C	0.616102	0.096816	-0.000016
C13	C	0.052060	0.151960	-0.000022
C14	C	0.124506	0.153025	-0.000026
C15	C	0.169215	0.090256	-0.000019
C16	C	0.141472	0.026416	-0.000027
C17	C	0.069026	0.025353	-0.000031
C18	C	0.290480	0.043441	0.043847
C19	C	0.362923	0.044507	0.043855
C20	C	0.392661	0.093533	-0.000012
C21	C	0.349944	0.141505	-0.043877
C22	C	0.277498	0.140442	-0.043880
C23	C	0.247771	0.091402	-0.000016
C24	C	0.498950	0.158524	-0.000013
C25	C	0.571399	0.159587	-0.000022
C26	C	0.588363	0.032976	-0.000015
C27	C	0.515916	0.031915	-0.000014
C28	C	0.471214	0.094691	-0.000009
C29	C	0.825685	-0.034535	-0.000008
C30	C	0.824558	-0.111639	-0.000006
C31	C	0.824042	-0.147846	-0.068246
C32	C	0.822974	-0.220292	-0.068252
C33	C	0.822435	-0.256530	-0.000013
C34	C	0.822947	-0.220313	0.068236
C35	C	0.824008	-0.147867	0.068240
C36	C	0.861429	-0.376764	0.052262
C37	C	0.860371	-0.449209	0.052255
C38	C	0.819157	-0.479975	-0.000022
C39	C	0.779009	-0.438289	-0.052304
C40	C	0.780071	-0.365844	-0.052301
C41	C	0.821283	-0.335085	-0.000009
C42	C	0.817481	-0.594737	-0.068273
C43	C	0.816408	-0.667184	-0.068275
C44	C	0.816388	-0.667204	0.068215
C45	C	0.817454	-0.594758	0.068215
C46	C	0.818004	-0.558529	-0.000030
C47	C	0.947220	0.087001	-0.000020
C48	C	1.024324	0.088129	-0.000026
C49	C	0.814741	0.219480	-0.000029
C50	C	0.815868	0.296584	-0.000036
N51	N	0.820192	0.092464	0.178138
N52	N	0.820240	0.092475	-0.178173
C53	C	0.867577	0.045118	0.217528
C54	C	0.867581	0.045115	0.296330
C55	C	0.820206	0.092470	0.335738
C56	C	0.772812	0.139820	0.296338
C57	C	0.772805	0.139817	0.217538
C58	C	0.810906	0.155758	0.460571
C59	C	0.810918	0.155762	0.539369
C60	C	0.820225	0.092478	0.578785
C61	C	0.829534	0.029188	0.539391
C62	C	0.829527	0.029186	0.460591
C63	C	0.820209	0.092478	0.421184
C64	C	0.867617	0.045124	0.703621
C65	C	0.867616	0.045120	0.782424
C66	C	0.772851	0.139832	0.782431
C67	C	0.772848	0.139830	0.703629
C68	C	0.820235	0.092477	0.664229
H69	H	0.493334	-0.020063	-0.000013
H70	H	0.894989	-0.351721	0.094837
Br71	Br	0.708491	0.204077	0.164074
H72	H	0.242721	0.179501	-0.079598
Br73	Br	0.031382	-0.061282	-0.000041
H74	H	0.906201	0.006561	0.814497
H75	H	0.817880	-0.565278	0.123784
H76	H	0.015667	0.203077	-0.000022
H77	H	0.374153	0.181429	-0.079595
H78	H	0.177878	-0.024691	-0.000024
Br79	Br	0.162158	0.239659	-0.000021
Br80	Br	0.438279	0.243717	-0.000007
H81	H	0.822506	-0.249822	0.123797
H82	H	0.624764	-0.018133	-0.000016
H83	H	0.837105	-0.022347	0.428520
H84	H	0.593978	0.211568	-0.000025
Br85	Br	0.420888	-0.020589	0.103395
H86	H	0.824488	-0.118353	-0.123817
H87	H	0.734266	0.178386	0.671555
H88	H	0.266275	0.003514	0.079570
H89	H	0.822549	-0.249778	-0.123823
Br90	Br	0.708549	0.204093	0.835907
H91	H	0.747380	-0.331906	-0.094870
H92	H	0.745449	-0.463337	-0.094873
Br93	Br	0.798291	0.241653	0.592824
Br94	Br	0.931894	-0.019148	0.349798
Br95	Br	0.818224	-0.545565	-0.160889
Br96	Br	0.815701	-0.716324	-0.160896
Br97	Br	0.815650	-0.716374	0.160826
Br98	Br	0.824705	-0.098724	0.160859
Br99	Br	0.914861	-0.505776	0.123205
Br100	Br	0.842175	-0.056703	0.592872
Br101	Br	0.931924	-0.019142	0.650147
Br102	Br	0.931883	-0.019147	0.164056
H103	H	0.803315	0.207294	0.428485
Br104	Br	0.708513	0.204084	0.349817
