data_functionalizedCrystal
_audit_creation_method	'MofGen! by Chris Wilmer'
_symmetry_space_group_name_H-M	'P1'
_symmetry_Int_Tables_number	1
_symmetry_cell_setting	triclinic
loop_
_symmetry_equiv_pos_as_xyz
  x,y,z
_cell_length_a	18.101398
_cell_length_b	18.101390
_cell_length_c	12.759399
_cell_angle_alpha	89.970129
_cell_angle_beta	90.010383
_cell_angle_gamma	89.975319
loop_
_atom_site_label
_atom_site_type_symbol
_atom_site_fract_x
_atom_site_fract_y
_atom_site_fract_z
Zn1	Zn	1.132206	-0.418854	-0.418359
Zn2	Zn	1.132136	-0.295019	-0.594071
Zn3	Zn	1.008364	-0.295016	-0.418392
Zn4	Zn	1.008350	-0.418808	-0.593982
O5	O	1.070264	-0.356924	-0.506201
O6	O	1.235829	-0.402449	-0.441691
O7	O	1.115693	-0.191386	-0.570818
O8	O	1.024827	-0.311461	-0.271367
O9	O	1.235778	-0.311468	-0.570786
O10	O	1.115813	-0.402445	-0.271342
O11	O	1.024759	-0.191383	-0.441748
O12	O	0.904729	-0.311416	-0.441661
O13	O	1.024803	-0.522447	-0.570634
O14	O	0.904719	-0.402366	-0.570666
O15	O	1.115800	-0.522481	-0.441604
O16	O	1.115680	-0.311423	-0.741080
O17	O	1.024735	-0.402369	-0.741015
C18	C	0.877853	-0.356886	-0.506158
C19	C	0.795539	-0.356887	-0.506165
C20	C	0.496448	-0.356949	-0.506231
C21	C	0.527755	-0.300005	-0.424659
C22	C	0.613373	-0.299762	-0.424878
C23	C	0.644831	-0.356918	-0.506198
C24	C	0.613734	-0.335598	-0.616873
C25	C	0.528089	-0.335202	-0.616420
C26	C	0.528058	-0.435347	-0.478090
C27	C	0.613708	-0.434919	-0.475625
C28	C	0.728690	-0.356902	-0.506185
C29	C	0.412589	-0.356963	-0.506251
C30	C	1.070308	-0.550086	-0.506105
C31	C	1.070327	-0.632401	-0.506064
C32	C	1.070367	-0.931492	-0.505999
C33	C	1.127808	-0.900188	-0.425103
C34	C	1.127628	-0.814570	-0.424802
C35	C	1.070347	-0.783109	-0.506031
C36	C	0.992325	-0.814174	-0.475942
C37	C	0.992669	-0.899820	-0.475335
C38	C	1.090261	-0.899910	-0.617192
C39	C	1.091973	-0.814260	-0.616626
C40	C	1.070332	-0.699250	-0.506051
C41	C	1.070377	-1.015351	-0.505976
C42	C	1.263426	-0.356964	-0.506245
C43	C	1.345740	-0.356980	-0.506263
C44	C	1.070219	-0.356908	-0.779168
C45	C	1.070267	-0.356925	-0.895945
C46	C	1.070263	-0.164514	-0.506221
C47	C	1.070387	-0.082200	-0.505966
C48	C	1.117676	-0.309623	-0.950806
C49	C	1.117723	-0.309648	-1.060530
C50	C	1.022947	-0.404279	-1.060522
C51	C	1.022903	-0.404257	-0.950800
C52	C	1.070330	-0.356958	-0.232168
C53	C	1.070358	-0.356972	-0.115391
H54	H	0.633830	-0.241670	-0.443482
H55	H	0.634036	-0.450996	-0.394181
H56	H	1.149391	-0.793956	-0.639315
H57	H	0.507169	-0.313221	-0.342338
H58	H	0.975806	-0.919806	-0.394053
Cl59	Cl	1.177328	-0.250181	-1.129494
Cl60	Cl	0.497196	-0.246715	-0.653259
Cl61	Cl	0.646766	-0.503937	-0.560674
Cl62	Cl	1.216955	-0.782140	-0.453878
Cl63	Cl	0.496801	-0.500854	-0.569817
H64	H	1.156243	-0.271083	-0.906146
H65	H	0.984384	-0.442814	-1.105199
Cl66	Cl	1.217426	-0.932009	-0.453828
H67	H	0.984297	-0.442780	-0.906129
H68	H	0.634111	-0.375775	-0.679279
Cl69	Cl	0.494476	-0.210838	-0.453036
Cl70	Cl	0.645837	-0.320392	-0.298167
Cl71	Cl	0.496112	-0.396438	-0.713437
H72	H	0.635154	-0.278904	-0.641151
Cl73	Cl	1.107735	-0.933432	-0.298630
H74	H	1.048428	-0.920158	-0.677469
Cl75	Cl	0.494733	-0.465275	-0.355653
H76	H	1.114458	-0.794093	-0.342428
Cl77	Cl	0.924334	-0.931792	-0.562327
H78	H	0.948364	-0.793794	-0.533048
H79	H	0.975155	-0.792732	-0.395563
Cl80	Cl	1.176598	-0.933275	-0.659445
Cl81	Cl	1.032074	-0.781201	-0.714688
