data_functionalizedCrystal
_audit_creation_method	'MofGen! by Chris Wilmer'
_symmetry_space_group_name_H-M	'P1'
_symmetry_Int_Tables_number	1
_symmetry_cell_setting	triclinic
loop_
_symmetry_equiv_pos_as_xyz
  x,y,z
_cell_length_a	29.839131
_cell_length_b	19.121102
_cell_length_c	19.120904
_cell_angle_alpha	90.088173
_cell_angle_beta	92.409150
_cell_angle_gamma	87.595578
loop_
_atom_site_label
_atom_site_type_symbol
_atom_site_fract_x
_atom_site_fract_y
_atom_site_fract_z
Zn1	Zn	-0.219753	1.054749	-0.442036
Zn2	Zn	-0.291816	1.059636	-0.324791
Zn3	Zn	-0.213364	0.942520	-0.319821
Zn4	Zn	-0.291514	0.937448	-0.436994
O5	O	-0.254112	0.998588	-0.380911
O6	O	-0.232113	1.153501	-0.430674
O7	O	-0.278861	1.048269	-0.226027
O8	O	-0.151347	0.957485	-0.336063
O9	O	-0.285057	1.157092	-0.344535
O10	O	-0.156042	1.039939	-0.425855
O11	O	-0.221223	0.962224	-0.222376
O12	O	-0.220930	0.843743	-0.331174
O13	O	-0.284542	0.948840	-0.535767
O14	O	-0.278346	0.840017	-0.417260
O15	O	-0.231820	1.035020	-0.539472
O16	O	-0.354640	1.043351	-0.339645
O17	O	-0.354418	0.953579	-0.422080
C18	C	-0.248912	0.816443	-0.373131
C19	C	-0.246699	0.738519	-0.369819
C20	C	-0.370830	0.998463	-0.380870
C21	C	-0.420765	0.998473	-0.380879
C22	C	-0.275595	0.699992	-0.413013
C23	C	-0.273510	0.626774	-0.409905
C24	C	-0.242531	0.592086	-0.363599
C25	C	-0.213632	0.630619	-0.320403
C26	C	-0.215716	0.703835	-0.323515
C27	C	-0.234741	0.371117	-0.351966
C28	C	-0.232660	0.297896	-0.348855
C29	C	-0.292537	0.294056	-0.438359
C30	C	-0.294620	0.367274	-0.441464
C31	C	-0.265720	0.405800	-0.398271
C32	C	-0.240400	0.517246	-0.360419
C33	C	-0.267849	0.480639	-0.401455
C34	C	-0.730519	1.045411	-0.338056
C35	C	-0.918195	1.045496	-0.338087
O36	O	-0.942551	1.085306	-0.301646
N37	N	-0.941559	0.998731	-0.380970
C38	C	-0.918001	0.951945	-0.423851
O39	O	-0.942181	0.912175	-0.460332
C40	C	-0.730326	0.951864	-0.423824
C41	C	-0.706964	0.998627	-0.380933
C42	C	-0.707157	1.092171	-0.295169
C43	C	-0.660241	1.092146	-0.295159
C44	C	-0.636686	1.045362	-0.338036
C45	C	-0.660048	0.998602	-0.380923
C46	C	-0.706770	0.905081	-0.466708
C47	C	-0.659848	0.905066	-0.466699
C48	C	-0.636486	0.951829	-0.423808
C49	C	-0.589577	0.951794	-0.423789
N50	N	-0.566213	0.998559	-0.380906
C51	C	-0.589768	1.045343	-0.338030
C52	C	-1.016534	0.951990	-0.423862
C53	C	-1.063452	0.952010	-0.423868
C54	C	-1.063642	1.045562	-0.338104
C55	C	-1.016723	1.045539	-0.338095
C56	C	-0.993169	0.998755	-0.380979
C57	C	-0.491240	1.045288	-0.338011
C58	C	-0.444319	1.045257	-0.338003
C59	C	-0.444133	0.951708	-0.423769
C60	C	-0.491049	0.951735	-0.423775
C61	C	-0.514602	0.998531	-0.380894
O62	O	-0.565193	0.912011	-0.460217
O63	O	-0.565581	1.085117	-0.301566
C64	C	-0.777435	1.045435	-0.338066
C65	C	-0.800797	0.998676	-0.380953
C66	C	-0.777243	0.951891	-0.423830
C67	C	-0.847716	0.998695	-0.380959
C68	C	-0.871270	1.045479	-0.338082
C69	C	-0.847906	1.092244	-0.295199
C70	C	-0.800990	1.092220	-0.295189
C71	C	-0.800607	0.905126	-0.466712
C72	C	-0.847523	0.905154	-0.466718
C73	C	-0.871078	0.951938	-0.423842
C74	C	-0.136939	0.998732	-0.380967
C75	C	-0.087007	0.998794	-0.380991
C76	C	-0.258860	0.990819	-0.563768
C77	C	-0.260884	0.987508	-0.641691
C78	C	-0.259331	1.181445	-0.388721
C79	C	-0.261556	1.259368	-0.392050
C80	C	-0.234387	1.030820	-0.680230
C81	C	-0.236286	1.027700	-0.753446
C82	C	-0.264686	0.981272	-0.788123
C83	C	-0.291184	0.937956	-0.749580
C84	C	-0.289282	0.941072	-0.676364
C85	C	-0.271800	0.969615	-1.009090
C86	C	-0.273701	0.966503	-1.082311
C87	C	-0.218802	1.056247	-1.086172
C88	C	-0.216905	1.059362	-1.012955
C89	C	-0.243401	1.016043	-0.974418
C90	C	-0.266629	0.978084	-0.862963
C91	C	-0.241455	1.019228	-0.899580
C92	C	-0.249350	1.006368	-0.198766
C93	C	-0.247204	1.009815	-0.120849
H94	H	-0.297040	0.595408	-0.445078
H95	H	-0.510072	0.913659	-0.458702
N96	N	-0.419121	1.095702	-0.291747
H97	H	-0.398027	1.068614	-0.258013
H98	H	-0.441195	1.125333	-0.264637
N99	N	-0.190218	1.102955	-1.127739
H100	H	-0.171938	1.132837	-1.094661
H101	H	-0.210216	1.134085	-1.159498
N102	N	-0.210829	1.069309	-0.862184
H103	H	-0.219572	1.118846	-0.877067
H104	H	-0.178761	1.057866	-0.874486
N105	N	-0.321805	0.887871	-0.786989
H106	H	-0.344227	0.915037	-0.818578
H107	H	-0.338272	0.860909	-0.751426
H108	H	-0.211211	0.402476	-0.316789
H109	H	-0.867092	1.130336	-0.260286
N110	N	-0.775796	1.142661	-0.248933
H111	H	-0.797843	1.172300	-0.221778
H112	H	-0.757969	1.173861	-0.278879
N113	N	-0.516639	1.095759	-0.291763
H114	H	-0.494714	1.125373	-0.264595
H115	H	-0.534476	1.068639	-0.258080
N116	N	-0.418723	0.901245	-0.470008
H117	H	-0.385456	0.908331	-0.463491
H118	H	-0.428513	0.909993	-0.520553
N119	N	-0.301264	0.518051	-0.451392
H120	H	-0.319257	0.482537	-0.478284
H121	H	-0.284720	0.547075	-0.485181
N122	N	-0.872718	0.854707	-0.512976
H123	H	-0.850672	0.825069	-0.540134
H124	H	-0.893812	0.881847	-0.546666
H125	H	-0.781432	0.867030	-0.501629
N126	N	-0.207704	1.074422	-0.795001
H127	H	-0.227674	1.105596	-0.826761
H128	H	-0.186860	1.044622	-0.824123
N129	N	-0.184546	0.745387	-0.276928
H130	H	-0.189808	0.734759	-0.226274
H131	H	-0.190579	0.797017	-0.285985
N132	N	-0.991531	1.095984	-0.291840
H133	H	-0.973705	1.127232	-0.321741
H134	H	-0.970458	1.068850	-0.258114
N135	N	-0.309011	0.737403	-0.462954
H136	H	-0.326999	0.701883	-0.489846
H137	H	-0.292466	0.766427	-0.496742
N138	N	-0.304335	0.916427	-1.119715
H139	H	-0.320832	0.889457	-1.084193
H140	H	-0.285911	0.882718	-1.148718
H141	H	-0.211262	1.068629	-0.652001
N142	N	-0.300383	0.922887	-0.967549
H143	H	-0.321230	0.952631	-0.938377
H144	H	-0.280382	0.891712	-0.935837
N145	N	-0.635047	1.142594	-0.248909
H146	H	-0.657094	1.172235	-0.221756
H147	H	-0.617222	1.173791	-0.278862
H148	H	-0.188407	0.602369	-0.282702
N149	N	-0.317857	0.894351	-0.634794
H150	H	-0.336136	0.864465	-0.667870
H151	H	-0.338672	0.924149	-0.605622
N152	N	-0.732558	1.142636	-0.248920
H153	H	-0.710632	1.172250	-0.221756
H154	H	-0.750392	1.115514	-0.215235
H155	H	-0.193780	1.097171	-0.984727
H156	H	-0.319847	0.395512	-0.479171
N157	N	-0.323707	0.252504	-0.484944
H158	H	-0.317688	0.200858	-0.475948
H159	H	-0.318429	0.263192	-0.535578
H160	H	-0.207429	0.269654	-0.311151
H161	H	-0.640673	0.866970	-0.501623
N162	N	-0.297258	0.928017	-0.900380
H163	H	-0.329338	0.939404	-0.888099
H164	H	-0.288484	0.878494	-0.885491
H165	H	-1.082829	1.083656	-0.303192
H166	H	-0.997359	0.913892	-0.458784
N167	N	-0.206993	0.479829	-0.310466
H168	H	-0.189004	0.515343	-0.283569
H169	H	-0.186110	0.448264	-0.337772
N170	N	-1.088646	0.901561	-0.470116
H171	H	-1.066601	0.871923	-0.497275
H172	H	-1.109744	0.928696	-0.503806
H173	H	-0.725783	0.866998	-0.501631
