data_functionalizedCrystal
_audit_creation_method	'MofGen! by Chris Wilmer'
_symmetry_space_group_name_H-M	'P1'
_symmetry_Int_Tables_number	1
_symmetry_cell_setting	triclinic
loop_
_symmetry_equiv_pos_as_xyz
  x,y,z
_cell_length_a	12.811353
_cell_length_b	9.065218
_cell_length_c	7.540329
_cell_angle_alpha	90.001757
_cell_angle_beta	95.431987
_cell_angle_gamma	95.473462
loop_
_atom_site_label
_atom_site_type_symbol
_atom_site_fract_x
_atom_site_fract_y
_atom_site_fract_z
O1	O	1.394569	-0.198677	0.076947
O2	O	1.089188	-0.220295	0.027801
O3	O	1.248191	0.005237	0.053393
O4	O	1.235566	-0.424208	0.051354
O5	O	1.248181	0.005239	0.348357
O6	O	1.089179	-0.220292	0.322764
O7	O	1.394559	-0.198674	0.371910
Cu8	Cu	1.241868	-0.209483	0.374270
Cu9	Cu	1.241879	-0.209486	0.025441
O10	O	1.235557	-0.424206	0.346318
C11	C	1.050068	-0.219084	0.168987
C12	C	0.933515	-0.215461	0.150230
C13	C	1.246973	0.060209	0.200677
C14	C	1.243345	0.224006	0.200084
C15	C	1.433680	-0.199885	0.230720
C16	C	1.550233	-0.203508	0.249466
C17	C	1.714515	-0.208624	0.436641
C18	C	1.605004	-0.205211	0.419051
C19	C	1.604980	-0.205213	0.097460
C20	C	1.714491	-0.208625	0.115050
C21	C	1.769255	-0.210333	0.284647
C22	C	1.878767	-0.213756	0.302235
C23	C	1.878742	-0.213747	-0.019354
C24	C	1.769231	-0.210334	-0.036944
C25	C	1.236775	-0.479178	0.199030
C26	C	1.240403	-0.642975	0.199611
N27	N	1.241868	-0.209480	0.619618
N28	N	1.241888	-0.209478	-0.219906
H29	H	1.759103	-0.210034	0.574733
H30	H	1.923353	-0.215156	0.440329
H31	H	1.560438	-0.203828	0.542821
H32	H	1.560375	-0.203797	-0.040617
H33	H	1.724629	-0.208937	-0.175025
H34	H	1.923322	-0.215147	-0.143119
