data_functionalizedCrystal
_audit_creation_method	'MofGen! by Chris Wilmer'
_symmetry_space_group_name_H-M	'P1'
_symmetry_Int_Tables_number	1
_symmetry_cell_setting	triclinic
loop_
_symmetry_equiv_pos_as_xyz
  x,y,z
_cell_length_a	6.817900
_cell_length_b	11.353964
_cell_length_c	16.255661
_cell_angle_alpha	105.295369
_cell_angle_beta	103.488922
_cell_angle_gamma	107.526751
loop_
_atom_site_label
_atom_site_type_symbol
_atom_site_fract_x
_atom_site_fract_y
_atom_site_fract_z
V1	V	-4.067279	-0.182068	-0.290700
V2	V	-3.567279	0.317932	0.209300
O3	O	-4.012483	0.007662	-0.257719
O4	O	-3.512483	0.507662	0.242281
O5	O	-4.058468	-0.359964	-0.315110
O6	O	-3.558468	0.140036	0.184890
O7	O	-4.018323	-0.179745	-0.405441
O8	O	-3.518323	0.320255	0.094559
O9	O	-4.052906	-0.173806	-0.166763
O10	O	-3.552906	0.326194	0.333237
V11	V	-4.545849	-0.159318	-0.272670
V12	V	-4.045849	0.340682	0.227330
O13	O	-4.339402	-0.231973	-0.330252
O14	O	-3.839402	0.268027	0.169748
O15	O	-4.723923	-0.109413	-0.233118
O16	O	-4.223923	0.390587	0.266882
O17	O	-4.331453	0.018579	-0.248260
O18	O	-3.831453	0.518579	0.251740
O19	O	-4.718042	-0.349047	-0.305651
O20	O	-4.218042	0.150953	0.194349
O21	O	-4.677619	-0.167580	-0.396607
O22	O	-4.177619	0.332420	0.103393
O23	O	-4.371598	-0.161641	-0.157929
O24	O	-3.871598	0.338359	0.342071
C25	C	-3.913118	-0.403317	-0.317336
C26	C	-3.413118	0.096683	0.182664
C27	C	-3.987197	-0.548752	-0.338059
C28	C	-3.487197	-0.048752	0.161941
C29	C	-4.054529	-0.745852	-0.292390
C30	C	-3.554529	-0.245852	0.207610
C31	C	-3.977968	-0.595537	-0.270974
C32	C	-3.477968	-0.095537	0.229026
C33	C	-3.861908	-0.173427	-0.432561
C34	C	-3.361908	0.326573	0.067439
C35	C	-3.903426	-0.172704	-0.526535
C36	C	-3.403426	0.327296	-0.026535
C37	C	-3.812060	-0.164074	-0.748082
C38	C	-3.312060	0.335926	-0.248082
C39	C	-3.993296	-0.275467	-0.833973
C40	C	-3.493296	0.224533	-0.333973
C41	C	-3.979509	-0.171350	-0.698585
C42	C	-3.479509	0.328650	-0.198585
C43	C	-3.872280	-0.058682	-0.780143
C44	C	-3.372280	0.441318	-0.280143
C45	C	-4.052984	-0.170035	-0.864774
C46	C	-3.552984	0.329965	-0.364774
C47	C	-4.160249	-0.282842	-0.783260
C48	C	-3.660249	0.217158	-0.283260
C49	C	-4.039149	-0.065959	-0.729400
C50	C	-3.539149	0.434041	-0.229400
C51	C	-4.220528	-0.177384	-0.815276
C52	C	-3.720528	0.322616	-0.315276
C53	C	-3.937177	-0.172108	-0.602847
C54	C	-3.437177	0.327892	-0.102847
C55	C	-4.095336	-0.169287	-0.960513
C56	C	-3.595336	0.330713	-0.460513
C57	C	-4.140147	0.061924	-0.246033
C58	C	-3.640147	0.561924	0.253967
C59	C	-4.045306	0.207358	-0.225316
C60	C	-3.545306	0.707358	0.274684
C61	C	-4.191357	-0.167963	-0.130805
C62	C	-3.691357	0.332037	0.369195
C63	C	-4.129075	-0.168679	-0.036829
C64	C	-3.629075	0.331321	0.463171
H65	H	-3.980739	-0.721418	-0.152036
H66	H	-3.480739	-0.221418	0.347964
F67	F	-4.063796	0.049822	-0.670367
F68	F	-3.563796	0.549822	-0.170367
F69	F	-3.968548	-0.391241	-0.892974
F70	F	-3.468548	0.108759	-0.392974
H71	H	-3.913399	-0.524317	-0.197690
H72	H	-3.413399	-0.024317	0.302310
F73	F	-4.138948	-0.838941	-0.388175
F74	F	-3.638948	-0.338941	0.111825
H75	H	-4.051775	-0.619971	-0.411344
H76	H	-3.551775	-0.119971	0.088656
F77	F	-3.585970	-0.156905	-0.709796
F78	F	-3.085970	0.343095	-0.209796
F79	F	-3.713681	0.065143	-0.779647
F80	F	-3.213681	0.565143	-0.279647
H81	H	-4.281596	-0.377679	-0.783768
H82	H	-3.781596	0.122321	-0.283768
F83	F	-4.446822	-0.184773	-0.853417
F84	F	-3.946822	0.315227	-0.353417
