data_functionalizedCrystal
_audit_creation_method	'MofGen! by Chris Wilmer'
_symmetry_space_group_name_H-M	'P1'
_symmetry_Int_Tables_number	1
_symmetry_cell_setting	triclinic
loop_
_symmetry_equiv_pos_as_xyz
  x,y,z
_cell_length_a	16.120530
_cell_length_b	18.050589
_cell_length_c	18.050582
_cell_angle_alpha	90.018005
_cell_angle_beta	87.088397
_cell_angle_gamma	92.869593
loop_
_atom_site_label
_atom_site_type_symbol
_atom_site_fract_x
_atom_site_fract_y
_atom_site_fract_z
Zn1	Zn	1.274424	0.353356	-0.477435
Zn2	Zn	1.274308	0.477534	-0.353250
Zn3	Zn	1.135021	0.347061	-0.346970
Zn4	Zn	1.134947	0.471199	-0.471111
O5	O	1.204675	0.412287	-0.412191
O6	O	1.391073	0.375113	-0.466237
O7	O	1.255814	0.460243	-0.248491
O8	O	1.153592	0.243975	-0.364295
O9	O	1.390988	0.466346	-0.374998
O10	O	1.256011	0.248600	-0.460147
O11	O	1.153480	0.364386	-0.243877
O12	O	1.018347	0.358243	-0.358162
O13	O	1.153466	0.455550	-0.575875
O14	O	1.018292	0.449446	-0.449368
O15	O	1.255940	0.368971	-0.580522
O16	O	1.255742	0.580614	-0.368866
O17	O	1.153354	0.575960	-0.455458
C18	C	0.988070	0.402475	-0.402398
C19	C	0.895405	0.398295	-0.398226
C20	C	0.725746	0.390646	-0.390615
C21	C	0.684444	0.433983	-0.433822
C22	C	0.590040	0.429727	-0.429587
C23	C	0.820159	0.394901	-0.394849
C24	C	1.204550	0.605234	-0.412174
C25	C	1.204572	0.687781	-0.412195
C26	C	1.148923	0.884729	-0.459268
C27	C	1.128600	0.933243	-0.390584
C28	C	1.204635	0.838914	-0.412208
C29	C	1.224980	0.937482	-0.480901
C30	C	1.204694	0.984902	-0.412227
C31	C	1.184273	0.886339	-0.343486
C32	C	1.280688	0.890575	-0.433851
C33	C	1.260394	0.939069	-0.365121
C34	C	1.204599	0.754814	-0.412198
C35	C	1.204730	1.069000	-0.412229
C36	C	1.422126	0.422139	-0.422024
C37	C	1.514790	0.426337	-0.426214
C38	C	1.204707	0.412256	-0.605899
C39	C	1.204721	0.412242	-0.688445
C40	C	1.204791	1.218587	-0.412225
C41	C	1.204759	1.136040	-0.412239
C42	C	1.149039	0.459258	-0.885371
C43	C	1.225098	0.480852	-0.938195
C44	C	1.204763	0.412188	-0.839577
C45	C	1.128746	0.390575	-0.933837
C46	C	1.204796	0.412136	-0.985564
C47	C	1.280861	0.433819	-0.891316
C48	C	1.184458	0.343508	-0.886951
C49	C	1.260569	0.365078	-0.939755
C50	C	1.204742	0.412219	-0.755478
C51	C	1.204824	0.412104	-1.069662
C52	C	1.204690	0.412267	-0.219240
C53	C	1.204838	0.412079	-0.136701
H54	H	1.101748	0.860948	-0.499003
C55	C	1.041878	0.365905	-0.959219
N56	N	0.976448	0.347329	-0.978334
H57	H	1.101960	0.499121	-0.861578
H58	H	1.345180	0.452143	-0.872617
H59	H	1.064314	0.952115	-0.372295
H60	H	1.167014	0.863992	-0.285381
H61	H	1.242165	0.959915	-0.538987
H62	H	0.690208	0.350352	-0.350446
C63	C	1.248324	0.559287	-0.968568
N64	N	1.265812	0.618365	-0.991443
C65	C	1.324074	0.971015	-0.311303
N66	N	1.372034	0.995079	-0.270765
C67	C	1.324322	0.311275	-0.971724
N68	N	1.372342	0.270753	-0.995805
H69	H	1.344960	0.871704	-0.452172
C70	C	1.161197	0.265094	-0.856553
N71	N	1.143668	0.206032	-0.833654
C72	C	0.732456	0.488430	-0.488087
N73	N	0.768622	0.529440	-0.528955
