data_functionalizedCrystal
_audit_creation_method	'MofGen! by Chris Wilmer'
_symmetry_space_group_name_H-M	'P1'
_symmetry_Int_Tables_number	1
_symmetry_cell_setting	triclinic
loop_
_symmetry_equiv_pos_as_xyz
  x,y,z
_cell_length_a	10.654550
_cell_length_b	14.853567
_cell_length_c	9.730223
_cell_angle_alpha	89.999394
_cell_angle_beta	89.999957
_cell_angle_gamma	84.059930
loop_
_atom_site_label
_atom_site_type_symbol
_atom_site_fract_x
_atom_site_fract_y
_atom_site_fract_z
O1	O	1.666524	0.126626	-0.114175
O2	O	1.300920	0.138690	-0.114199
O3	O	1.493487	0.001480	-0.114190
O4	O	1.473956	0.263835	-0.114183
O5	O	1.493475	0.001477	0.114390
O6	O	1.300907	0.138686	0.114381
O7	O	1.666511	0.126622	0.114405
Zn8	Zn	1.483707	0.132654	0.150685
Zn9	Zn	1.483724	0.132659	-0.150479
O10	O	1.473943	0.263832	0.114397
C11	C	1.254125	0.137802	0.000088
C12	C	1.114709	0.135152	0.000078
C13	C	1.034384	0.215939	0.000084
C14	C	0.903389	0.213443	0.000108
C15	C	0.933057	0.049367	0.000114
C16	C	1.064049	0.051864	0.000100
C17	C	1.492596	-0.032115	0.000096
C18	C	1.489944	-0.132213	0.000084
C19	C	1.364344	-0.545419	0.000102
C20	C	1.593119	-0.565475	0.000116
C21	C	1.595613	-0.471428	0.000109
C22	C	1.482470	-0.414372	0.000099
C23	C	1.366834	-0.451363	0.000098
C24	C	1.711247	-0.434430	0.000124
C25	C	1.713745	-0.340378	0.000118
C26	C	1.600601	-0.283320	0.000098
C27	C	1.484961	-0.320316	0.000095
C28	C	1.371818	-0.263260	0.000086
C29	C	1.256176	-0.300254	0.000073
C30	C	1.253691	-0.394305	0.000079
C31	C	1.603087	-0.189269	0.000093
C32	C	1.374308	-0.169204	0.000082
C33	C	1.713306	0.127510	0.000116
C34	C	1.852722	0.130160	0.000116
C35	C	1.474835	0.297427	0.000108
C36	C	1.477487	0.397525	0.000111
N37	N	1.483705	0.132650	0.356222
N38	N	1.483735	0.132655	-0.356015
C39	C	1.569003	0.071919	0.428151
C40	C	1.569016	0.071919	0.572034
C41	C	1.398429	0.193389	0.572045
C42	C	1.398411	0.193383	0.428165
H43	H	0.837993	0.279228	0.000116
H44	H	1.164056	-0.253787	0.000075
N45	N	1.727799	-0.149368	0.000118
H46	H	1.733915	-0.110794	0.084855
H47	H	1.799018	-0.199836	0.000084
N48	N	1.150704	-0.035272	0.000085
H49	H	1.205718	-0.037888	0.084817
H50	H	1.098654	-0.088366	0.000038
H51	H	1.282172	-0.122754	0.000069
N52	N	1.128972	-0.434205	0.000070
H53	H	1.144566	-0.502443	0.000083
H54	H	1.079455	-0.413382	0.084805
H55	H	1.328945	0.242838	0.369596
H56	H	1.270191	-0.575544	0.000086
N57	N	1.715146	-0.627008	0.000149
H58	H	1.696022	-0.692202	0.000158
H59	H	1.765542	-0.614957	-0.084585
H60	H	1.075626	0.283758	0.000077
N61	N	0.878416	-0.040462	0.000145
H62	H	0.783244	-0.029786	0.000154
H63	H	0.907783	-0.075855	-0.084590
N64	N	1.833272	-0.495965	0.000159
H65	H	1.814144	-0.561158	0.000157
H66	H	1.883676	-0.483910	-0.084568
N67	N	1.838464	-0.300479	0.000132
H68	H	1.909760	-0.350896	0.000140
H69	H	1.844486	-0.261898	-0.084610
N70	N	1.660977	0.006414	0.350535
H71	H	1.750127	0.017387	0.375553
H72	H	1.646297	-0.057641	0.375610
N73	N	1.661032	0.006430	0.649617
H74	H	1.715065	-0.032038	0.582204
H75	H	1.716600	0.041335	0.709292
N76	N	1.306437	0.258892	0.649641
H77	H	1.319391	0.249683	0.751704
H78	H	1.321042	0.322946	0.624480
