data_functionalizedCrystal
_audit_creation_method	'MofGen! by Chris Wilmer'
_symmetry_space_group_name_H-M	'P1'
_symmetry_Int_Tables_number	1
_symmetry_cell_setting	triclinic
loop_
_symmetry_equiv_pos_as_xyz
  x,y,z
_cell_length_a	21.395364
_cell_length_b	19.076808
_cell_length_c	21.395356
_cell_angle_alpha	87.672578
_cell_angle_beta	89.983542
_cell_angle_gamma	92.319192
loop_
_atom_site_label
_atom_site_type_symbol
_atom_site_fract_x
_atom_site_fract_y
_atom_site_fract_z
Zn1	Zn	0.947808	-0.280310	-0.344231
Zn2	Zn	0.943525	-0.398015	-0.235242
Zn3	Zn	0.843037	-0.280321	-0.239467
Zn4	Zn	0.838794	-0.397968	-0.339984
O5	O	0.893291	-0.339154	-0.289731
O6	O	1.034917	-0.295938	-0.329782
O7	O	0.930179	-0.382427	-0.148123
O8	O	0.860503	-0.181823	-0.256910
O9	O	1.031771	-0.382416	-0.249708
O10	O	0.937478	-0.181815	-0.333880
O11	O	0.856351	-0.295958	-0.151228
O12	O	0.754797	-0.295912	-0.252792
O13	O	0.853271	-0.382337	-0.428226
O14	O	0.751679	-0.382347	-0.326641
O15	O	0.933363	-0.295893	-0.431346
O16	O	0.926064	-0.496505	-0.245590
O17	O	0.849119	-0.496471	-0.322543
C18	C	0.730504	-0.339127	-0.289714
C19	C	0.660863	-0.339132	-0.289722
C20	C	0.886683	-0.522027	-0.283161
C21	C	0.883914	-0.600261	-0.280371
C22	C	0.160700	-0.294231	-0.331496
C23	C	0.226135	-0.294226	-0.331496
C24	C	0.257223	-0.339175	-0.289744
C25	C	0.222869	-0.384146	-0.248000
C26	C	0.157435	-0.384155	-0.248006
C27	C	0.360673	-0.344636	-0.233082
C28	C	0.426106	-0.344622	-0.233075
C29	C	0.459045	-0.339152	-0.289728
C30	C	0.426542	-0.333680	-0.346389
C31	C	0.361108	-0.333689	-0.346394
C32	C	0.328175	-0.339171	-0.289734
C33	C	0.564343	-0.294181	-0.331472
C34	C	0.629780	-0.294181	-0.331473
C35	C	0.626512	-0.384098	-0.247972
C36	C	0.561077	-0.384102	-0.247977
C37	C	0.529996	-0.339140	-0.289726
C38	C	0.922659	-0.636950	-0.319167
C39	C	0.920054	-0.710460	-0.316547
C40	C	0.878707	-0.747278	-0.275128
C41	C	0.839957	-0.710583	-0.236330
C42	C	0.842559	-0.637075	-0.238954
C43	C	0.866628	-0.967130	-0.262983
C44	C	0.864030	-1.040642	-0.260361
C45	C	0.944127	-1.040514	-0.340579
C46	C	0.946728	-0.967005	-0.343196
C47	C	0.907976	-0.930316	-0.304401
N48	N	0.876045	-0.822416	-0.272447
N49	N	0.910635	-0.855180	-0.307085
C50	C	1.056713	-0.339181	-0.289748
C51	C	1.126354	-0.339193	-0.289755
C52	C	0.893322	-0.339108	-0.453156
C53	C	0.893335	-0.339089	-0.522798
C54	C	0.899941	-0.155566	-0.296340
C55	C	0.902776	-0.077332	-0.299157
C56	C	0.935101	-0.293966	-1.026224
C57	C	0.935096	-0.293983	-0.960788
C58	C	0.893392	-0.338995	-0.926440
C59	C	0.851701	-0.384007	-0.957532
C60	C	0.851712	-0.383994	-1.022967
C61	C	0.836724	-0.344565	-0.822564
C62	C	0.836712	-0.344573	-0.757131
C63	C	0.893358	-0.339040	-0.724617
C64	C	0.950018	-0.333484	-0.757545
C65	C	0.950029	-0.333471	-0.822980
C66	C	0.893375	-0.339015	-0.855487
C67	C	0.935043	-0.294053	-0.622579
C68	C	0.935039	-0.294075	-0.557142
C69	C	0.851638	-0.384096	-0.553887
C70	C	0.851648	-0.384078	-0.619323
C71	C	0.893350	-0.339053	-0.653665
C72	C	0.893298	-0.339148	-0.126944
C73	C	0.893414	-0.338969	-0.057309
H74	H	0.254105	-0.257609	-0.365485
H75	H	0.651823	-0.420702	-0.213982
O76	O	0.975548	-0.250251	-1.059679
C77	C	1.012544	-0.210349	-1.161925
C78	C	0.966698	-0.259882	-1.124113
H79	H	1.005414	-0.218129	-1.214027
H80	H	1.003583	-0.153583	-1.151148
H81	H	1.062612	-0.222701	-1.148585
H82	H	0.916613	-0.247594	-1.137432
H83	H	0.975713	-0.316633	-1.134894
O84	O	0.804833	-0.601509	-0.201297
C85	C	0.699063	-0.579098	-0.171618
C86	C	0.741721	-0.619432	-0.214289
H87	H	0.648029	-0.593563	-0.182117
H88	H	0.709530	-0.593584	-0.120578
H89	H	0.708056	-0.520240	-0.180600
H90	H	0.732752	-0.678299	-0.205363
H91	H	0.731246	-0.604887	-0.265316
O92	O	0.527806	-0.427795	-0.207364
C93	C	0.531472	-0.517005	-0.124568
C94	C	0.569227	-0.467544	-0.170519
H95	H	0.564944	-0.549166	-0.094776
H96	H	0.502006	-0.484680	-0.092974
H97	H	0.499505	-0.553824	-0.151971
H98	H	0.601228	-0.430715	-0.143167
H99	H	0.598652	-0.499912	-0.202112
H100	H	0.969043	-0.257333	-0.935474
H101	H	0.817763	-0.420642	-1.048276
H102	H	0.968990	-0.257430	-0.531833
H103	H	0.956331	-0.606978	-0.352892
H104	H	0.806289	-0.740566	-0.202608
O105	O	0.811149	-0.427757	-0.520435
C106	C	0.774200	-0.467708	-0.418185
C107	C	0.820075	-0.418211	-0.455998
H108	H	0.781409	-0.460019	-0.366081
H109	H	0.724113	-0.455339	-0.431442
H110	H	0.783145	-0.524454	-0.429046
H111	H	0.811186	-0.361449	-0.445157
H112	H	0.870146	-0.430641	-0.442736
H113	H	0.996163	-0.328949	-0.849787
O114	O	1.005040	-0.328242	-0.725940
C115	C	1.073285	-0.382091	-0.650115
C116	C	1.010964	-0.388125	-0.685878
H117	H	1.078089	-0.430492	-0.617706
H118	H	1.113804	-0.378163	-0.684862
H119	H	1.074079	-0.333115	-0.621269
H120	H	1.010108	-0.437097	-0.714725
H121	H	0.970473	-0.392013	-0.651099
O122	O	0.457710	-0.349812	-0.178050
C123	C	0.533531	-0.295902	-0.109852
C124	C	0.497772	-0.289927	-0.172180
H125	H	0.565939	-0.247499	-0.105092
H126	H	0.498782	-0.299781	-0.069334
H127	H	0.562377	-0.344883	-0.109007
H128	H	0.468925	-0.240948	-0.173085
H129	H	0.532553	-0.286087	-0.212670
O130	O	0.329630	-0.328407	-0.401487
C131	C	0.336961	-0.317521	-0.513877
C132	C	0.372686	-0.323510	-0.451530
H133	H	0.371756	-0.313546	-0.554353
H134	H	0.304605	-0.365953	-0.518725
H135	H	0.308068	-0.268576	-0.514704
H136	H	0.401614	-0.372426	-0.450660
H137	H	0.405004	-0.275044	-0.446707
H138	H	0.968999	-0.257391	-0.650542
H139	H	0.817699	-0.420721	-0.644633
H140	H	0.830357	-1.070618	-0.226632
H141	H	0.790576	-0.349096	-0.730326
H142	H	0.790593	-0.349071	-0.849032
H143	H	0.980396	-0.937029	-0.376923
H144	H	0.453359	-0.329222	-0.392520
H145	H	0.539036	-0.257571	-0.365467
H146	H	0.333859	-0.349094	-0.186945
H147	H	0.817746	-0.420658	-0.929562
H148	H	0.135398	-0.257622	-0.365494
H149	H	0.129470	-0.420770	-0.214015
O150	O	0.828970	-0.931606	-0.225228
C151	C	0.749237	-0.939497	-0.145400
C152	C	0.791859	-0.979819	-0.188117
H153	H	0.719213	-0.978460	-0.115395
H154	H	0.779215	-0.905101	-0.113852
H155	H	0.717698	-0.905071	-0.175368
H156	H	0.823405	-1.014283	-0.158199
H157	H	0.761844	-1.014171	-0.219668
O158	O	0.957722	-0.746182	-0.354137
C159	C	1.039395	-0.829071	-0.359668
C160	C	0.996763	-0.788668	-0.317025
H161	H	1.070980	-0.863419	-0.329679
H162	H	1.009424	-0.863536	-0.391164
H163	H	1.069372	-0.790122	-0.389735
H164	H	0.966778	-0.827566	-0.286918
H165	H	1.026770	-0.754192	-0.285570
O166	O	0.663074	-0.250537	-0.372108
C167	C	0.684383	-0.216533	-0.479953
C168	C	0.646625	-0.265994	-0.434003
H169	H	0.671107	-0.229023	-0.530005
H170	H	0.673546	-0.159754	-0.471117
H171	H	0.736487	-0.224238	-0.472750
H172	H	0.594510	-0.258352	-0.441179
H173	H	0.657515	-0.322756	-0.442851
O174	O	0.253133	-0.427844	-0.207528
C175	C	0.323561	-0.522877	-0.195548
C176	C	0.289337	-0.473418	-0.241450
H177	H	0.352830	-0.559745	-0.222955
H178	H	0.355387	-0.490549	-0.163999
H179	H	0.287760	-0.554983	-0.165700
H180	H	0.325094	-0.441300	-0.271338
H181	H	0.257500	-0.505785	-0.272955
H182	H	0.975676	-1.070394	-0.372164
