data_functionalizedCrystal
_audit_creation_method	'MofGen! by Chris Wilmer'
_symmetry_space_group_name_H-M	'P1'
_symmetry_Int_Tables_number	1
_symmetry_cell_setting	triclinic
loop_
_symmetry_equiv_pos_as_xyz
  x,y,z
_cell_length_a	7.088929
_cell_length_b	10.654550
_cell_length_c	10.654549
_cell_angle_alpha	95.515146
_cell_angle_beta	96.277646
_cell_angle_gamma	96.272791
loop_
_atom_site_label
_atom_site_type_symbol
_atom_site_fract_x
_atom_site_fract_y
_atom_site_fract_z
O1	O	0.158842	-1.655063	0.189176
O2	O	0.158877	-1.289582	0.205985
O3	O	0.158851	-1.480727	0.014841
O4	O	0.158868	-1.463919	0.380321
O5	O	-0.159128	-1.506289	-0.010744
O6	O	-0.159102	-1.315144	0.180401
O7	O	-0.159137	-1.680626	0.163592
Cu8	Cu	-0.188153	-1.500219	0.169660
Cu9	Cu	0.187893	-1.469989	0.199917
O10	O	-0.159110	-1.489481	0.354736
C11	C	-0.000108	-1.255565	0.191959
C12	C	-0.000095	-1.116121	0.188269
C13	C	-0.000137	-1.492274	-0.044749
C14	C	-0.000130	-1.488581	-0.184192
N15	N	-0.452644	-1.521490	0.148378
N16	N	0.452384	-1.448727	0.221189
C17	C	-0.000147	-1.714642	0.177618
C18	C	-0.000148	-1.854086	0.181310
C19	C	-0.000095	-1.036635	0.300810
C20	C	-0.000128	-0.905617	0.297331
C21	C	-0.000154	-0.933582	0.068759
C22	C	-0.000134	-1.064599	0.072239
C23	C	-0.000127	-1.597645	-0.394706
C24	C	-0.000143	-1.601124	-0.263687
C25	C	-0.000121	-1.372553	-0.235724
C26	C	-0.000120	-1.369076	-0.366742
C27	C	-0.000119	-1.477934	0.414327
C28	C	-0.000113	-1.481625	0.553770
H29	H	-0.465949	-1.373311	0.296646
C30	C	-0.000169	-1.092342	0.426897
C31	C	-0.000230	-0.994686	0.524706
C32	C	-0.000330	-1.045953	0.640875
H33	H	0.110695	-1.133929	0.442107
H34	H	-0.111092	-1.151764	0.424148
H35	H	0.110682	-0.935286	0.527457
H36	H	-0.111086	-0.953090	0.509539
H37	H	-0.111253	-1.105375	0.638125
H38	H	0.110536	-1.087540	0.656071
H39	H	-0.000389	-0.979704	0.707250
C40	C	0.000264	-1.150815	-0.049966
C41	C	0.163870	-1.114240	-0.106587
C42	C	0.164306	-1.193643	-0.219148
H43	H	-0.110500	-1.144077	-0.106553
H44	H	0.000378	-1.236232	-0.031319
H45	H	0.163738	-1.028844	-0.125238
H46	H	0.274660	-1.120984	-0.050036
H47	H	0.164421	-1.279060	-0.200501
H48	H	0.053536	-1.186899	-0.275724
H49	H	0.275319	-1.168845	-0.257573
H50	H	-0.000132	-0.840904	0.388974
H51	H	-0.000197	-0.891618	-0.025709
H52	H	-0.000122	-1.689289	-0.459422
H53	H	-0.000122	-1.280920	-0.170989
H54	H	-0.000116	-1.274594	-0.408692
C55	C	-0.561271	-1.621966	0.047589
C56	C	-0.512695	-1.596589	-0.072117
C57	C	-0.612719	-1.689128	-0.164995
H58	H	-0.694806	-1.620603	0.048876
H59	H	-0.528505	-1.703323	0.064490
H60	H	-0.545474	-1.515253	-0.089014
H61	H	-0.379178	-1.597963	-0.073446
H62	H	-0.579953	-1.770485	-0.148094
H63	H	-0.746249	-1.687758	-0.163696
H64	H	-0.579762	-1.671930	-0.246225
H65	H	-0.000158	-1.695599	-0.221744
