data_functionalizedCrystal
_audit_creation_method	'MofGen! by Chris Wilmer'
_symmetry_space_group_name_H-M	'P1'
_symmetry_Int_Tables_number	1
_symmetry_cell_setting	triclinic
loop_
_symmetry_equiv_pos_as_xyz
  x,y,z
_cell_length_a	14.971486
_cell_length_b	15.186229
_cell_length_c	14.971486
_cell_angle_alpha	89.996046
_cell_angle_beta	96.385871
_cell_angle_gamma	89.998401
loop_
_atom_site_label
_atom_site_type_symbol
_atom_site_fract_x
_atom_site_fract_y
_atom_site_fract_z
O1	O	1.186943	0.073128	-0.116562
O2	O	1.686943	0.573128	0.383438
O3	O	0.926543	0.073152	-0.130520
O4	O	1.426543	0.573152	0.369480
O5	O	1.063723	0.073133	0.006659
O6	O	1.563723	0.573133	0.506659
O7	O	1.049764	0.073147	-0.253741
O8	O	1.549764	0.573147	0.246259
O9	O	1.063713	-0.073324	0.006661
O10	O	1.563713	0.426676	0.506661
O11	O	0.926534	-0.073305	-0.130518
O12	O	1.426534	0.426695	0.369482
O13	O	1.186934	-0.073330	-0.116560
O14	O	1.686934	0.426670	0.383440
Zn15	Zn	1.056733	-0.096571	-0.123539
Zn16	Zn	1.556733	0.403429	0.376461
Zn17	Zn	1.056745	0.096393	-0.123541
Zn18	Zn	1.556745	0.596393	0.376459
O19	O	1.049755	-0.073311	-0.253739
O20	O	1.549755	0.426689	0.246261
C21	C	0.893214	-0.000074	-0.129895
C22	C	1.393214	0.499926	0.370105
C23	C	0.793917	-0.000065	-0.128024
C24	C	1.293917	0.499935	0.371976
N25	N	1.056731	-0.228263	-0.123536
N26	N	1.556731	0.271737	0.376464
C27	C	0.736692	-0.000062	-0.208614
C28	C	1.236692	0.499938	0.291386
C29	C	0.643392	-0.000075	-0.206850
C30	C	1.143392	0.499925	0.293150
C31	C	0.607320	-0.000085	-0.124497
C32	C	1.107320	0.499915	0.375503
C33	C	0.664552	-0.000091	-0.043902
C34	C	1.164552	0.499909	0.456098
C35	C	0.757850	-0.000084	-0.045666
C36	C	1.257850	0.499916	0.454334
C37	C	0.470090	-0.000103	-0.040231
C38	C	0.970090	0.499897	0.459769
C39	C	0.376786	-0.000108	-0.038466
C40	C	0.876786	0.499892	0.461534
C41	C	0.355632	-0.000094	-0.201415
C42	C	0.855632	0.499906	0.298585
C43	C	0.448930	-0.000087	-0.203179
C44	C	0.948930	0.499913	0.296821
C45	C	0.506156	-0.000091	-0.122584
C46	C	1.006156	0.499909	0.377416
C47	C	1.117495	-0.453995	-0.062814
C48	C	1.617495	0.046005	0.437186
C49	C	1.117498	-0.546184	-0.062812
C50	C	1.617498	-0.046184	0.437188
C51	C	0.995983	-0.546177	-0.184262
C52	C	1.495983	-0.046177	0.315738
C53	C	0.995977	-0.453989	-0.184259
C54	C	1.495977	0.046011	0.315741
C55	C	1.056738	-0.407900	-0.123536
C56	C	1.556738	0.092100	0.376464
C57	C	1.056747	-0.592278	-0.123537
C58	C	1.556747	-0.092278	0.376463
C59	C	1.056749	-0.692234	-0.123535
C60	C	1.556749	-0.192234	0.376465
C61	C	1.056734	-0.307938	-0.123536
C62	C	1.556734	0.192062	0.376464
C63	C	1.220263	-0.000102	-0.117185
C64	C	1.720263	0.499898	0.382815
C65	C	1.319561	-0.000105	-0.119056
C66	C	1.819561	0.499895	0.380944
C67	C	1.063094	-0.000095	0.039985
C68	C	1.563094	0.499905	0.539985
C69	C	1.061223	-0.000095	0.139282
C70	C	1.561223	0.499905	0.639282
N71	N	1.056754	0.228086	-0.123536
N72	N	1.556754	0.728086	0.376464
C73	C	1.050384	-0.000080	-0.287065
C74	C	1.550384	0.499920	0.212935
C75	C	1.052254	-0.000076	-0.386362
C76	C	1.552254	0.499924	0.113638
C77	C	1.141812	-0.000103	0.196507
C78	C	1.641812	0.499897	0.696507
C79	C	1.140049	-0.000094	0.289807
C80	C	1.640049	0.499906	0.789807
C81	C	1.057696	-0.000083	0.325879
C82	C	1.557696	0.499917	0.825879
C83	C	0.977101	-0.000072	0.268646
C84	C	1.477101	0.499928	0.768646
C85	C	0.978865	-0.000075	0.175349
C86	C	1.478865	0.499925	0.675349
C87	C	0.973430	-0.000069	0.463109
C88	C	1.473430	0.499931	0.963109
C89	C	0.971665	-0.000067	0.556413
C90	C	1.471665	0.499933	1.056413
C91	C	1.134614	-0.000087	0.577567
C92	C	1.634614	0.499913	1.077567
C93	C	1.136378	-0.000090	0.484269
C94	C	1.636378	0.499910	0.984269
C95	C	1.055782	-0.000081	0.427043
C96	C	1.555782	0.499919	0.927043
H97	H	0.596802	-0.000072	-0.272474
H98	H	1.096802	0.499928	0.227526
H99	H	0.904606	-0.000073	0.585780
H100	H	1.404606	0.499927	1.085780
O101	O	0.886504	-0.000067	0.401381
O102	O	1.386504	0.499933	0.901381
H103	H	0.828941	-0.000071	0.442136
H104	H	1.328941	0.499929	0.942136
O105	O	1.183038	-0.595893	0.002680
O106	O	1.683038	-0.095893	0.502680
H107	H	1.145352	-0.637892	0.046226
H108	H	1.645352	-0.137892	0.546226
O109	O	0.930460	-0.595885	-0.249765
O110	O	1.430460	-0.095885	0.250235
H111	H	0.940678	-0.667734	-0.239575
H112	H	1.440678	-0.167734	0.260425
H113	H	1.200238	-0.000092	0.624165
H114	H	1.700238	0.499908	1.124165
O115	O	1.183001	-0.404278	0.002699
O116	O	1.683001	0.095722	0.502699
H117	H	1.226519	-0.362266	-0.035006
H118	H	1.726519	0.137734	0.464994
H119	H	0.478296	-0.000071	-0.270239
H120	H	0.978296	0.499929	0.229761
H121	H	0.946497	-0.416456	-0.233707
H122	H	1.446497	0.083544	0.266293
H123	H	1.208874	-0.000117	0.167145
H124	H	1.708874	0.499883	0.667145
O125	O	0.888276	-0.000070	0.307552
O126	O	1.388276	0.499930	0.807552
H127	H	0.883578	0.059617	0.349558
H128	H	1.383578	0.559617	0.849558
O129	O	0.293915	-0.000103	-0.288347
O130	O	0.793915	0.499897	0.211653
H131	H	0.250886	0.059581	-0.291440
H132	H	0.750886	0.559581	0.208560
O133	O	0.775597	-0.000060	-0.297438
O134	O	1.275597	0.499940	0.202562
H135	H	0.720127	-0.000071	-0.353180
H136	H	1.220127	0.499929	0.146820
O137	O	0.337873	-0.000130	0.050354
O138	O	0.837873	0.499870	0.550354
H139	H	0.393338	-0.000147	0.106102
H140	H	0.893338	0.499853	0.606102
O141	O	0.531818	-0.000103	0.046695
O142	O	1.031818	0.499897	0.546695
H143	H	0.491062	-0.000101	0.104258
H144	H	0.991062	0.499899	0.604258
O145	O	1.226969	-0.000117	0.351532
O146	O	1.726969	0.499883	0.851532
H147	H	1.284531	-0.000141	0.310774
H148	H	1.784531	0.499859	0.810774
O149	O	1.225199	-0.000091	0.445356
O150	O	1.725199	0.499909	0.945356
H151	H	1.280946	-0.000084	0.500821
H152	H	1.780946	0.499916	1.000821
O153	O	0.891942	-0.000078	0.113624
O154	O	1.391942	0.499922	0.613624
H155	H	0.852534	0.059615	0.126456
H156	H	1.352534	0.559615	0.626456
O157	O	0.625652	-0.000109	0.044925
O158	O	1.125652	0.499891	0.544925
H159	H	0.583653	0.059585	0.049635
H160	H	1.083653	0.559585	0.549635
H161	H	0.804443	-0.000086	0.019958
H162	H	1.304443	0.499914	0.519958
