data_functionalizedCrystal
_audit_creation_method	'MofGen! by Chris Wilmer'
_symmetry_space_group_name_H-M	'P1'
_symmetry_Int_Tables_number	1
_symmetry_cell_setting	triclinic
loop_
_symmetry_equiv_pos_as_xyz
  x,y,z
_cell_length_a	15.625110
_cell_length_b	10.868271
_cell_length_c	15.538191
_cell_angle_alpha	89.998631
_cell_angle_beta	66.740235
_cell_angle_gamma	71.920768
loop_
_atom_site_label
_atom_site_type_symbol
_atom_site_fract_x
_atom_site_fract_y
_atom_site_fract_z
O1	O	1.155966	-0.413554	0.122969
O2	O	0.888702	-0.294283	0.137605
O3	O	1.074359	-0.377130	-0.006773
O4	O	0.970309	-0.330707	0.267347
O5	O	1.074345	-0.581768	-0.006768
O6	O	0.888688	-0.498922	0.137609
O7	O	1.155952	-0.618192	0.122974
Zn8	Zn	1.022318	-0.591048	0.130292
Zn9	Zn	1.022336	-0.321428	0.130286
O10	O	0.970295	-0.535346	0.267351
C11	C	0.855325	-0.381710	0.136942
C12	C	0.755897	-0.337338	0.134951
N13	N	1.022312	-0.775059	0.130296
C14	C	0.615763	-0.163257	0.132142
C15	C	0.709191	-0.204964	0.134013
C16	C	0.709182	-0.428056	0.134022
C17	C	0.615750	-0.386366	0.132156
C18	C	0.569048	-0.253965	0.131214
C19	C	0.569035	-0.477075	0.131228
C20	C	0.475614	-0.435389	0.129357
C21	C	0.428906	-0.302994	0.128413
C22	C	0.475626	-0.212280	0.129343
C23	C	0.615742	-0.609476	0.132163
C24	C	0.569028	-0.700185	0.131236
C25	C	0.475601	-0.658498	0.129371
C26	C	0.428894	-0.526104	0.128427
C27	C	0.428881	-0.749213	0.128441
C28	C	0.335459	-0.707527	0.126569
C29	C	0.335472	-0.484418	0.126555
C30	C	1.022319	-0.886400	0.130296
C31	C	1.022333	-1.026084	0.130288
C32	C	1.189329	-0.530762	0.123636
C33	C	1.288757	-0.575126	0.125628
C34	C	1.085238	-0.484303	-0.041851
C35	C	1.117665	-0.498762	-0.146381
N36	N	1.022352	-0.137420	0.130275
C37	C	0.795512	-0.355022	-0.434604
C38	C	0.826005	-0.368633	-0.532829
C39	C	0.997520	-0.445173	-0.555042
C40	C	0.967041	-0.431563	-0.456817
C41	C	0.866036	-0.386488	-0.396605
C42	C	1.037565	-0.463029	-0.418818
C43	C	1.007089	-0.449426	-0.320602
C44	C	0.906088	-0.404357	-0.260384
C45	C	0.835560	-0.372885	-0.298389
C46	C	1.138570	-0.508113	-0.479031
C47	C	1.209094	-0.539579	-0.441032
C48	C	1.178618	-0.525967	-0.342814
C49	C	1.077618	-0.480898	-0.282597
C50	C	1.249147	-0.557439	-0.304809
C51	C	1.218670	-0.543836	-0.206593
C52	C	1.047141	-0.467295	-0.184380
C53	C	0.959415	-0.428170	0.302430
C54	C	0.926988	-0.413703	0.406960
H55	H	0.297439	-0.376602	0.125800
H56	H	1.291332	-0.576284	-0.490070
C57	C	0.760570	-0.105174	0.135042
H58	H	0.719370	-0.020353	0.134221
H59	H	0.821844	-0.127874	0.080910
H60	H	0.772178	-0.105718	0.190646
H61	H	0.753312	-0.336172	-0.249361
C62	C	0.748425	-0.334018	-0.574629
H63	H	0.781039	-0.348585	-0.641747
H64	H	0.708192	-0.244704	-0.553974
H65	H	0.708193	-0.387442	-0.553965
H66	H	1.163380	-0.519175	-0.559005
C67	C	0.936038	-0.417706	-0.118138
H68	H	0.927993	-0.414106	-0.054203
H69	H	0.905781	-0.475564	-0.129663
H70	H	0.905803	-0.332837	-0.129672
H71	H	0.352835	-0.269056	0.126891
C72	C	0.284105	-0.807314	0.125461
H73	H	0.221795	-0.763530	0.124175
H74	H	0.274563	-0.848969	0.180607
H75	H	0.324288	-0.871005	0.070872
C76	C	0.684408	-0.305429	-0.368366
H77	H	0.646766	-0.288636	-0.405061
H78	H	0.668966	-0.227173	-0.329594
H79	H	0.668948	-0.369902	-0.329587
C80	C	1.296239	-0.578443	-0.164785
H81	H	1.263621	-0.563897	-0.097668
H82	H	1.336478	-0.525036	-0.185446
H83	H	1.336466	-0.667768	-0.185440
H84	H	0.881276	-0.393290	-0.180410
C85	C	1.108617	-0.494746	-0.621278
H86	H	1.116669	-0.498334	-0.685215
H87	H	1.138863	-0.579601	-0.609741
H88	H	1.138859	-0.436862	-0.609749
H89	H	0.437593	-0.104463	0.128588
H90	H	1.331385	-0.594151	-0.353848
H91	H	0.577730	-0.055441	0.131387
H92	H	0.691812	-0.643412	0.133688
C93	C	0.760557	-0.573686	0.135063
H94	H	0.822884	-0.585522	0.136317
H95	H	0.770069	-0.623778	0.079899
H96	H	0.720411	-0.601596	0.189635
C97	C	0.620402	-0.845815	0.132276
H98	H	0.682729	-0.857651	0.133530
H99	H	0.629915	-0.895907	0.077112
H100	H	0.580256	-0.873725	0.186849
C101	C	0.480262	-0.894844	0.129472
H102	H	0.542590	-0.906678	0.130722
H103	H	0.489773	-0.944928	0.074305
H104	H	0.440122	-0.922765	0.184042
