data_functionalizedCrystal
_audit_creation_method	'MofGen! by Chris Wilmer'
_symmetry_space_group_name_H-M	'P1'
_symmetry_Int_Tables_number	1
_symmetry_cell_setting	triclinic
loop_
_symmetry_equiv_pos_as_xyz
  x,y,z
_cell_length_a	14.044191
_cell_length_b	16.974813
_cell_length_c	15.455320
_cell_angle_alpha	90.974815
_cell_angle_beta	92.909799
_cell_angle_gamma	88.283629
loop_
_atom_site_label
_atom_site_type_symbol
_atom_site_fract_x
_atom_site_fract_y
_atom_site_fract_z
O1	O	1.262353	0.186881	0.085204
O2	O	0.986365	0.180017	0.084733
O3	O	1.131591	0.069242	0.076947
O4	O	1.117127	0.297656	0.092989
O5	O	1.123321	0.075577	-0.066869
O6	O	0.978094	0.186352	-0.059084
O7	O	1.254082	0.193216	-0.058613
Cu8	Cu	1.115333	0.190362	-0.071980
Cu9	Cu	1.125114	0.182871	0.098100
O10	O	1.108856	0.303991	-0.050827
C11	C	0.946907	0.180183	0.012615
C12	C	0.841657	0.171227	0.011991
C13	C	1.126752	0.043001	0.002976
C14	C	1.124644	-0.044629	-0.003173
C15	C	1.128163	-0.089246	0.072332
C16	C	1.126176	-0.171583	0.066552
C17	C	1.120675	-0.209302	-0.014734
C18	C	1.117152	-0.164679	-0.090245
C19	C	1.119133	-0.082343	-0.084464
C20	C	1.114262	-0.455179	-0.040429
C21	C	1.112284	-0.537521	-0.046204
C22	C	1.121306	-0.544420	0.110593
C23	C	1.123292	-0.462082	0.116367
C24	C	1.119764	-0.417466	0.040856
N25	N	1.118647	-0.293464	-0.020644
N26	N	1.121786	-0.333306	0.046767
C27	C	0.591499	0.218368	0.015293
C28	C	0.648955	0.154868	0.010835
C29	C	0.756184	0.163972	0.011478
C30	C	0.484259	0.209265	0.014650
C31	C	1.293540	0.193050	0.013507
C32	C	1.398791	0.202006	0.014137
C33	C	1.113695	0.330232	0.023147
C34	C	1.115804	0.417862	0.029301
N35	N	1.108461	0.195632	-0.191605
C36	C	1.070283	0.224643	-0.733573
C37	C	1.075501	0.220674	-0.643044
C38	C	1.142436	0.169663	-0.601219
C39	C	1.204150	0.122611	-0.649928
C40	C	1.198927	0.126575	-0.740455
C41	C	1.164951	0.152544	-0.330841
C42	C	1.170172	0.148585	-0.240307
C43	C	1.041521	0.246648	-0.233430
C44	C	1.036307	0.250612	-0.323959
C45	C	1.098018	0.203556	-0.372660
N46	N	1.147773	0.165607	-0.508684
N47	N	1.092675	0.207608	-0.465194
N48	N	1.131994	0.177596	0.217725
H49	H	1.132648	-0.058542	0.138524
N50	N	1.008933	0.271410	-0.590515
H51	H	0.965740	0.304329	-0.630748
H52	H	1.047477	0.307182	-0.550340
H53	H	0.622839	0.279566	0.019594
H54	H	1.112668	-0.195396	-0.156430
H55	H	0.981804	0.292149	-0.358011
N56	N	0.974962	0.297395	-0.180904
H57	H	0.988423	0.287144	-0.117208
H58	H	0.906776	0.284214	-0.197686
N59	N	0.998090	0.279665	-0.778682
H60	H	0.959786	0.308864	-0.734089
H61	H	0.953937	0.248162	-0.818550
N62	N	1.242372	0.093565	-0.195192
H63	H	1.280673	0.064356	-0.239780
H64	H	1.208155	0.054508	-0.160235
H65	H	1.215200	0.114231	-0.370486
H66	H	1.129046	-0.207907	0.128037
N67	N	1.276322	0.067569	-0.604823
H68	H	1.270264	0.072191	-0.540084
H69	H	1.342692	0.082115	-0.619683
N70	N	1.265489	0.075837	-0.792991
H71	H	1.255339	0.018431	-0.781199
H72	H	1.333673	0.089061	-0.776258
N73	N	1.129228	-0.421402	0.204040
H74	H	1.131156	-0.462161	0.250997
H75	H	1.071529	-0.385130	0.210015
H76	H	1.124177	-0.580755	0.172070
H77	H	1.107800	-0.568229	-0.112401
H78	H	1.111408	-0.418863	-0.101916
H79	H	1.116253	-0.046016	-0.145949
H80	H	0.617616	0.093663	0.006597
