data_functionalizedCrystal
_audit_creation_method	'MofGen! by Chris Wilmer'
_symmetry_space_group_name_H-M	'P1'
_symmetry_Int_Tables_number	1
_symmetry_cell_setting	triclinic
loop_
_symmetry_equiv_pos_as_xyz
  x,y,z
_cell_length_a	17.052862
_cell_length_b	18.426585
_cell_length_c	17.052862
_cell_angle_alpha	89.998903
_cell_angle_beta	61.493325
_cell_angle_gamma	70.265468
loop_
_atom_site_label
_atom_site_type_symbol
_atom_site_fract_x
_atom_site_fract_y
_atom_site_fract_z
Zr1	Zr	0.816717	0.841080	-0.200489
O2	O	0.944608	0.760936	-0.328614
O3	O	0.665995	0.848003	-0.146298
O4	O	0.783800	0.886890	-0.307112
O5	O	0.860730	0.711445	-0.057912
O6	O	0.783804	1.006317	-0.307115
O7	O	0.826803	0.722048	-0.167800
O8	O	0.573074	0.936754	-0.019449
O9	O	1.071461	0.781008	-0.345579
O10	O	0.736448	0.961401	-0.141207
O11	O	0.761764	0.864361	-0.059196
O12	O	0.900463	0.910146	-0.248534
O13	O	0.925779	0.813106	-0.166523
Zr14	Zr	0.870833	1.014641	-0.025236
Zr15	Zr	0.816724	1.031552	-0.200494
Zr16	Zr	0.870825	0.824169	-0.025230
Zr17	Zr	1.019032	0.873092	-0.227546
Zr18	Zr	0.668517	0.982628	0.001821
O19	O	1.021554	1.007718	-0.079426
O20	O	0.944618	1.031763	-0.328622
O21	O	1.021544	0.736891	-0.079418
O22	O	0.742941	1.094785	0.102890
O23	O	0.666005	1.118830	-0.146306
O24	O	0.742931	0.823958	0.102898
O25	O	0.826819	1.144275	-0.167812
O26	O	0.903749	0.968831	0.081388
O27	O	0.903745	0.849404	0.081391
O28	O	0.860746	1.133672	-0.057924
O29	O	1.071466	0.932408	-0.345583
O30	O	0.616083	0.923313	0.119859
O31	O	0.616089	1.074713	0.119854
O32	O	0.573079	1.088154	-0.019453
O33	O	1.114470	0.767566	-0.206271
O34	O	1.114476	0.918966	-0.206276
O35	O	0.787086	0.945575	0.022810
O36	O	0.761770	1.042615	-0.059201
O37	O	0.925786	0.991360	-0.166528
O38	O	0.951101	0.894320	-0.084517
C39	C	0.590709	0.887817	-0.079018
C40	C	0.504821	0.874227	-0.067532
C41	C	0.209863	1.038533	-0.206402
C42	C	0.290562	1.051301	-0.217200
C43	C	0.344130	1.007034	-0.179783
C44	C	0.316992	0.949997	-0.131568
C45	C	0.236290	0.937224	-0.120775
C46	C	0.370557	0.905724	-0.094157
C47	C	0.343419	0.848687	-0.045941
C48	C	0.262724	0.835917	-0.035149
C49	C	0.209155	0.880184	-0.072566
C50	C	0.451259	0.918497	-0.104950
C51	C	0.477686	0.817187	-0.019323
C52	C	0.396987	0.804420	-0.008525
C53	C	0.843766	0.689609	-0.112855
C54	C	0.843762	0.608748	-0.112853
C55	C	0.843791	0.312640	-0.112871
C56	C	0.843787	0.395025	-0.112869
C57	C	0.843777	0.460691	-0.112863
C58	C	0.843773	0.543082	-0.112859
C59	C	1.096840	0.967903	-0.146706
C60	C	1.182728	0.981494	-0.158192
C61	C	0.776093	0.949013	-0.332084
C62	C	0.753122	0.956192	-0.406486
C63	C	0.843784	1.166112	-0.112869
C64	C	0.843787	1.246973	-0.112872
C65	C	1.030837	0.869398	-0.840313
C66	C	1.052422	0.862649	-0.770410
C67	C	0.977599	0.886034	-0.679427
C68	C	0.881187	0.916170	-0.658351
C69	C	0.859600	0.922915	-0.728260
C70	C	0.806362	0.939551	-0.567374
C71	C	0.709950	0.969686	-0.546298
C72	C	0.688367	0.976430	-0.616201
C73	C	0.763190	0.953045	-0.707185
C74	C	0.827949	0.932806	-0.497465
C75	C	0.656712	0.986322	-0.385412
C76	C	0.635127	0.993072	-0.455314
C77	C	0.911456	0.906708	0.106360
C78	C	0.934427	0.899529	0.180762
C79	C	0.590718	1.126069	-0.079025
C80	C	0.504833	1.193339	-0.067541
C81	C	0.658391	0.866665	0.140204
C82	C	0.595473	0.845895	0.226092
C83	C	0.658400	1.104916	0.140197
C84	C	0.595485	1.165008	0.226083
C85	C	1.029149	0.750804	-0.365921
C86	C	1.092064	0.690713	-0.451807
C87	C	1.096831	0.729652	-0.146699
C88	C	1.182716	0.662381	-0.158183
C89	C	1.029158	0.989056	-0.365928
C90	C	1.092076	1.009825	-0.451817
C91	C	0.451280	1.182538	-0.104962
C92	C	0.370588	1.245742	-0.094189
C93	C	0.343446	1.319745	-0.045990
C94	C	0.397007	1.330545	-0.008570
C95	C	0.477702	1.267344	-0.019348
C96	C	0.579147	0.878534	0.309240
C97	C	0.520042	0.859017	0.389946
C98	C	0.477260	0.806865	0.387504
C99	C	0.493592	0.774223	0.304347
C100	C	0.552701	0.793736	0.223642
C101	C	0.552725	1.243889	0.223607
C102	C	0.493620	1.300361	0.304298
C103	C	0.477269	1.277949	0.387464
C104	C	0.520037	1.199060	0.389937
C105	C	0.579147	1.142591	0.309247
C106	C	1.134834	0.611833	-0.449333
C107	C	1.193964	0.555365	-0.530027
C108	C	1.210319	0.577778	-0.613194
C109	C	1.167546	0.656666	-0.615666
C110	C	1.108422	0.713133	-0.534974
C111	C	1.236275	0.673185	-0.120771
C112	C	1.316984	0.609986	-0.131566
C113	C	1.344128	0.535984	-0.179767
C114	C	1.290564	0.525182	-0.217184
C115	C	1.209861	0.588381	-0.206395
C116	C	1.134841	1.061979	-0.449345
C117	C	1.193950	1.081509	-0.530038
C118	C	1.210299	1.048880	-0.613202
C119	C	1.167526	0.996723	-0.615672
C120	C	1.108413	0.977198	-0.534979
H121	H	0.143439	0.869796	-0.063771
C122	C	1.061367	0.799900	-0.537709
N123	N	1.025926	0.865253	-0.539776
H124	H	0.277737	1.371201	-0.037220
C125	C	0.150937	1.087217	-0.247557
N126	N	0.106552	1.123889	-0.278558
H127	H	0.745621	0.958541	-0.764110
C128	C	0.232837	0.773210	0.017940
N129	N	0.210313	0.725994	0.057950
H130	H	1.180847	0.970160	-0.683396
H131	H	0.613955	1.078362	0.311276
C132	C	0.536595	1.279236	0.021833
N133	N	0.580950	1.288198	0.052854
C134	C	1.185536	0.681306	-0.707158
N135	N	1.199080	0.699862	-0.776071
C136	C	1.158472	0.829506	-0.793598
N137	N	1.238355	0.804545	-0.811066
H138	H	0.595785	1.005361	-0.311329
H139	H	0.473373	1.122289	-0.144220
C140	C	1.375885	0.621883	-0.090392
N141	N	1.420244	0.630846	-0.059376
C142	C	1.206438	0.754584	-0.067750
N143	N	1.183975	0.815893	-0.027817
H144	H	0.429131	0.790983	0.453226
C145	C	0.367133	1.411954	0.044455
N146	N	0.344624	1.473271	0.084400
H147	H	0.458802	1.364592	0.302268
C148	C	1.116864	0.587162	-0.357858
N149	N	1.103340	0.568573	-0.288963
H150	H	1.409843	0.484530	-0.188546
H151	H	1.258463	0.531791	-0.678892
H152	H	1.228781	0.491135	-0.527996
H153	H	1.228772	1.123977	-0.528010
H154	H	1.312677	0.464922	-0.256431
H155	H	0.473348	0.964937	-0.144208
H156	H	0.409838	1.017432	-0.188578
C157	C	0.626204	0.935899	0.311948
N158	N	0.661651	0.979104	0.313994
H159	H	0.326986	1.236932	-0.124663
C160	C	1.275330	1.070365	-0.701960
N161	N	1.324314	1.086548	-0.768809
C162	C	0.502079	0.894941	0.481410
N163	N	0.488548	0.922002	0.550299
C164	C	0.446517	0.716860	0.301676
N165	N	0.411053	0.673658	0.299668
H166	H	0.374880	0.757979	0.030732
C167	C	0.570640	0.757834	0.132184
N168	N	0.584146	0.730791	0.063299
C169	C	0.582310	1.009569	-0.593014
N170	N	0.502428	1.034528	-0.575547
H171	H	0.312655	1.097739	-0.256457
H172	H	0.521304	0.781140	0.011142
H173	H	1.121542	1.088554	-0.381636
C174	C	0.412236	1.340075	0.476220
N175	N	0.363248	1.386872	0.543068
H176	H	0.906449	0.908267	-0.514634
H177	H	1.166255	0.579573	-0.236859
C178	C	0.502033	1.174417	0.481431
N179	N	0.488464	1.155858	0.550348
H180	H	1.073599	0.934727	-0.537004
C181	C	0.529076	1.026213	-0.432143
N182	N	0.449199	1.051174	-0.414692
H183	H	0.995180	0.880536	-0.622512
H184	H	0.566026	1.262152	0.155897
H185	H	1.091748	0.850357	-0.914392
