data_functionalizedCrystal
_audit_creation_method	'MofGen! by Chris Wilmer'
_symmetry_space_group_name_H-M	'P1'
_symmetry_Int_Tables_number	1
_symmetry_cell_setting	triclinic
loop_
_symmetry_equiv_pos_as_xyz
  x,y,z
_cell_length_a	15.297327
_cell_length_b	18.215407
_cell_length_c	18.215399
_cell_angle_alpha	90.017368
_cell_angle_beta	80.351692
_cell_angle_gamma	99.704016
loop_
_atom_site_label
_atom_site_type_symbol
_atom_site_fract_x
_atom_site_fract_y
_atom_site_fract_z
Zn1	Zn	-0.359235	1.074350	0.466758
Zn2	Zn	0.140765	1.574350	0.966758
Zn3	Zn	-0.510106	1.052956	0.364980
Zn4	Zn	-0.010106	1.552956	0.864980
Zn5	Zn	-0.359257	0.951279	0.343713
Zn6	Zn	0.140743	1.451279	0.843713
Zn7	Zn	-0.510048	0.929954	0.488002
Zn8	Zn	-0.010048	1.429954	0.988002
O9	O	-0.434661	1.002135	0.415863
O10	O	0.065339	1.502135	0.915863
O11	O	-0.379264	1.174494	0.453266
O12	O	0.120736	1.674494	0.953266
O13	O	-0.490129	1.039440	0.259179
O14	O	0.009871	1.539440	0.759179
O15	O	-0.233007	0.985483	0.342244
O16	O	0.266993	1.485483	0.842244
O17	O	-0.490108	1.158776	0.378490
O18	O	0.009892	1.658776	0.878490
O19	O	-0.232991	1.075902	0.432644
O20	O	0.267009	1.575902	0.932644
O21	O	-0.379300	0.964738	0.243555
O22	O	0.120700	1.464738	0.743555
O23	O	-0.379244	0.845468	0.362844
O24	O	0.120756	1.345468	0.862844
O25	O	-0.490009	0.949137	0.588164
O26	O	0.009991	1.449137	1.088164
O27	O	-0.490030	0.829801	0.468853
O28	O	0.009970	1.329801	0.968853
O29	O	-0.379207	1.055224	0.572555
O30	O	0.120793	1.555224	1.072555
O31	O	-0.636345	1.018761	0.399090
O32	O	-0.136345	1.518761	0.899090
O33	O	-0.636302	0.928393	0.489474
O34	O	-0.136302	1.428393	0.989474
C35	C	-0.434634	0.810932	0.415847
C36	C	0.065366	1.310932	0.915847
C37	C	-0.434643	0.729132	0.415860
C38	C	0.065357	1.229132	0.915860
C39	C	-0.377046	0.549105	0.454887
C40	C	0.122954	1.049105	0.954887
C41	C	-0.377053	0.472245	0.454890
C42	C	0.122947	0.972245	0.954890
C43	C	-0.492302	0.455913	0.376857
C44	C	0.007698	0.955913	0.876857
C45	C	-0.492289	0.532772	0.376849
C46	C	0.007711	1.032772	0.876849
C47	C	-0.434662	0.579366	0.415868
C48	C	0.065338	1.079366	0.915868
C49	C	-0.434683	0.425647	0.415879
C50	C	0.065317	0.925647	0.915879
C51	C	-0.434692	0.342312	0.415883
C52	C	0.065308	0.842312	0.915883
C53	C	-0.434652	0.662706	0.415864
C54	C	0.065348	1.162706	0.915864
C55	C	-0.669058	0.968961	0.448911
C56	C	-0.169058	1.468961	0.948911
C57	C	-0.769333	0.954837	0.463074
C58	C	-0.269333	1.454837	0.963074
C59	C	-1.051958	1.103387	0.314891
C60	C	-0.551958	1.603387	0.814891
C61	C	-0.957744	1.116657	0.301581
C62	C	-0.457744	1.616657	0.801581
C63	C	-0.910636	1.076204	0.341953
C64	C	-0.410636	1.576204	0.841953
C65	C	-0.957753	1.022477	0.395638
C66	C	-0.457753	1.522477	0.895638
C67	C	-1.051976	1.009201	0.408945
C68	C	-0.551976	1.509201	0.908945
C69	C	-0.910655	0.982018	0.436007
C70	C	-0.410655	1.482018	0.936007
C71	C	-0.957771	0.928291	0.489692
C72	C	-0.457771	1.428291	0.989692
C73	C	-1.051985	0.915019	0.502997
C74	C	-0.551985	1.415019	1.002997
C75	C	-1.099092	0.955472	0.462625
C76	C	-0.599092	1.455472	0.962625
C77	C	-0.816431	0.995294	0.422700
C78	C	-0.316431	1.495294	0.922700
C79	C	-0.816450	0.901108	0.516754
C80	C	-0.316450	1.401108	1.016754
C81	C	-0.910664	0.887838	0.530064
C82	C	-0.410664	1.387838	1.030064
C83	C	-0.199350	1.035458	0.382702
C84	C	0.300650	1.535458	0.882702
C85	C	-0.099074	1.049658	0.368571
C86	C	0.400926	1.549658	0.868571
C87	C	-0.434599	1.002188	0.607808
C88	C	0.065401	1.502188	1.107808
C89	C	-0.434573	1.002211	0.689603
C90	C	0.065427	1.502211	1.189603
C91	C	-0.434690	1.194084	0.415881
C92	C	0.065310	1.694084	0.915881
C93	C	-0.434702	1.275881	0.415888
C94	C	0.065298	1.775881	0.915888
C95	C	-0.434658	1.002133	0.224657
C96	C	0.065342	1.502133	0.724657
C97	C	-0.434430	1.002289	0.142826
C98	C	0.065570	1.502289	0.642826
C99	C	-0.376824	1.057475	0.869663
C100	C	0.123176	1.557475	1.369663
C101	C	-0.376798	1.057488	0.946518
C102	C	0.123202	1.557488	1.446518
C103	C	-0.492181	0.947019	0.962761
C104	C	0.007819	1.447019	1.462761
C105	C	-0.492202	0.947004	0.885906
C106	C	0.007798	1.447004	1.385906
C107	C	-0.434525	1.002236	0.839360
C108	C	0.065475	1.502236	1.339360
C109	C	-0.434478	1.002264	0.993069
C110	C	0.065522	1.502264	1.493069
C111	C	-0.434450	1.002277	1.076399
C112	C	0.065550	1.502277	1.576399
C113	C	-0.434552	1.002222	0.756024
C114	C	0.065448	1.502222	1.256024
H115	H	-0.833923	1.087011	0.331112
H116	H	-0.333923	1.587011	0.831112
H117	H	-0.539221	0.417968	0.345089
H118	H	-0.039221	0.917968	0.845089
H119	H	-0.330119	0.587040	0.486656
H120	H	0.169881	1.087040	0.986656
H121	H	-0.330135	0.447611	0.486661
H122	H	0.169865	0.947611	0.986661
H123	H	-0.919385	1.160400	0.257871
H124	H	-0.419385	1.660400	0.757871
N125	N	-0.554443	0.565414	0.334768
N126	N	-0.054443	1.065414	0.834768
H127	H	-0.545686	0.621174	0.340683
H128	H	-0.045686	1.121174	0.840683
H129	H	-0.540324	0.553957	0.280237
H130	H	-0.040324	1.053957	0.780237
N131	N	-0.554448	0.887425	0.853219
N132	N	-0.054448	1.387425	1.353219
H133	H	-0.545706	0.895797	0.797469
H134	H	-0.045706	1.395797	1.297469
H135	H	-0.540399	0.836856	0.864665
H136	H	-0.040399	1.336856	1.364665
H137	H	-0.329857	1.102447	0.831766
H138	H	0.170143	1.602447	1.331766
H139	H	-0.329811	1.102468	0.971187
H140	H	0.170189	1.602468	1.471187
H141	H	-0.778078	1.039038	0.378989
H142	H	-0.278078	1.539038	0.878989
H143	H	-1.090321	1.136314	0.282022
H144	H	-0.590321	1.636314	0.782022
N145	N	-0.554386	0.887460	1.012977
N146	N	-0.054386	1.387460	1.512977
H147	H	-0.618852	0.889757	1.008690
H148	H	-0.118852	1.389757	1.508690
H149	H	-0.540296	0.836889	0.997598
H150	H	-0.040296	1.336889	1.497598
H151	H	-1.175809	0.944672	0.473461
H152	H	-0.675809	1.444672	0.973461
N153	N	-1.102806	0.857060	0.560886
N154	N	-0.602806	1.357060	1.060886
H155	H	-1.058670	0.833446	0.584442
H156	H	-0.558670	1.333446	1.084442
H157	H	-1.141846	0.881493	0.600484
H158	H	-0.641846	1.381493	1.100484
N159	N	-0.961480	0.829887	0.587962
N160	N	-0.461480	1.329887	1.087962
H161	H	-1.000517	0.854276	0.627603
H162	H	-0.500517	1.354276	1.127603
H163	H	-1.000575	0.790302	0.563492
H164	H	-0.500575	1.290302	1.063492
H165	H	-0.778095	0.868166	0.549627
H166	H	-0.278095	1.368166	1.049627
