data_functionalizedCrystal
_audit_creation_method	'MofGen! by Chris Wilmer'
_symmetry_space_group_name_H-M	'P1'
_symmetry_Int_Tables_number	1
_symmetry_cell_setting	triclinic
loop_
_symmetry_equiv_pos_as_xyz
  x,y,z
_cell_length_a	10.868271
_cell_length_b	14.853567
_cell_length_c	14.853567
_cell_angle_alpha	96.365070
_cell_angle_beta	90.001341
_cell_angle_gamma	89.998656
loop_
_atom_site_label
_atom_site_type_symbol
_atom_site_fract_x
_atom_site_fract_y
_atom_site_fract_z
O1	O	0.102227	-1.196364	0.117705
O2	O	0.602227	-0.696364	0.617705
O3	O	0.102247	-0.933905	0.131726
O4	O	0.602247	-0.433905	0.631726
O5	O	0.102240	-1.072145	-0.006514
O6	O	0.602240	-0.572145	0.493486
O7	O	0.102233	-1.058124	0.255945
O8	O	0.602233	-0.558124	0.755945
O9	O	-0.102405	-1.072134	-0.006520
O10	O	0.397595	-0.572134	0.493480
O11	O	-0.102398	-0.933894	0.131721
O12	O	0.397602	-0.433894	0.631721
O13	O	-0.102418	-1.196353	0.117699
O14	O	0.397582	-0.696353	0.617699
Zn15	Zn	-0.134900	-1.065122	0.124709
Zn16	Zn	0.365100	-0.565122	0.624709
Zn17	Zn	0.134728	-1.065137	0.124716
Zn18	Zn	0.634728	-0.565137	0.624716
O19	O	-0.102411	-1.058113	0.255940
O20	O	0.397589	-0.558113	0.755940
C21	C	-0.000073	-0.900311	0.131088
C22	C	0.499927	-0.400311	0.631088
C23	C	-0.000065	-0.800227	0.129184
C24	C	0.499935	-0.300227	0.629184
N25	N	-0.318914	-1.065118	0.124704
N26	N	0.181086	-0.565118	0.624704
C27	C	-0.000079	-1.071504	-0.040106
C28	C	0.499921	-0.571504	0.459894
C29	C	-0.000068	-1.069601	-0.140189
C30	C	0.499932	-0.569601	0.359811
C31	C	-0.569920	-1.065132	0.124714
C32	C	-0.069920	-0.565132	0.624714
C33	C	-0.430242	-1.065121	0.124711
C34	C	0.069758	-0.565121	0.624711
N35	N	0.318743	-1.065147	0.124715
N36	N	0.818743	-0.565147	0.624715
C37	C	-0.000096	-1.229947	0.118337
C38	C	0.499904	-0.729947	0.618337
C39	C	-0.000095	-1.330031	0.120241
C40	C	0.499905	-0.830031	0.620241
C41	C	-0.000090	-0.387693	0.039019
C42	C	0.499910	0.112307	0.539019
C43	C	-0.000093	-0.366412	0.203251
C44	C	0.499907	0.133588	0.703251
C45	C	-0.000089	-0.460446	0.205041
C46	C	0.499911	0.039554	0.705041
C47	C	-0.000084	-0.518108	0.123819
C48	C	0.499916	-0.018108	0.623819
C49	C	-0.000083	-0.481736	0.040806
C50	C	0.499917	0.018264	0.540806
C51	C	-0.000078	-0.496825	0.288053
C52	C	0.499922	0.003175	0.788053
C53	C	-0.000073	-0.590864	0.289846
C54	C	0.499927	-0.090864	0.789846
C55	C	-0.000076	-0.648528	0.208623
C56	C	0.499924	-0.148528	0.708623
C57	C	-0.000076	-0.612150	0.125607
C58	C	0.499924	-0.112150	0.625607
C59	C	-0.000071	-0.669812	0.044384
C60	C	0.499929	-0.169812	0.544384
C61	C	-0.000080	-0.633437	-0.038633
C62	C	0.499920	-0.133437	0.461367
C63	C	-0.000086	-0.539399	-0.040417
C64	C	0.499914	-0.039399	0.459583
C65	C	-0.000070	-0.742565	0.210407
C66	C	0.499930	-0.242565	0.710407
C67	C	-0.000064	-0.763855	0.046172
C68	C	0.499936	-0.263855	0.546172
C69	C	-0.000085	-0.979435	-0.552723
C70	C	0.499915	-0.479435	-0.052723
C71	C	-0.000097	-1.143668	-0.574004
C72	C	0.499903	-0.643668	-0.074004
C73	C	-0.000090	-1.145458	-0.479971
C74	C	0.499910	-0.645458	0.020029
C75	C	-0.000082	-1.064235	-0.422309
C76	C	0.499918	-0.564235	0.077691
C77	C	-0.000081	-0.981223	-0.458680
C78	C	0.499919	-0.481223	0.041320
C79	C	-0.000103	-1.228469	-0.443591
C80	C	0.499897	-0.728469	0.056409
C81	C	-0.000097	-1.230262	-0.349552
C82	C	0.499903	-0.730262	0.150448
C83	C	-0.000081	-1.149039	-0.291889
C84	C	0.499919	-0.649039	0.208111
C85	C	-0.000079	-1.066023	-0.328266
C86	C	0.499921	-0.566023	0.171734
C87	C	-0.000071	-0.984800	-0.270604
C88	C	0.499929	-0.484800	0.229396
C89	C	-0.000060	-0.901783	-0.306979
C90	C	0.499940	-0.401783	0.193021
C91	C	-0.000065	-0.899999	-0.401017
C92	C	0.499935	-0.399999	0.098983
C93	C	-0.000076	-1.150823	-0.197851
C94	C	0.499924	-0.650823	0.302149
C95	C	-0.000067	-0.986588	-0.176561
C96	C	0.499933	-0.486588	0.323439
C97	C	-0.000090	-1.058754	0.289531
C98	C	0.499910	-0.558754	0.789531
C99	C	-0.000092	-1.060657	0.389615
C100	C	0.499908	-0.560657	0.889615
H101	H	-0.000064	-0.810798	-0.019971
H102	H	0.499936	-0.310798	0.480029
H103	H	-0.000087	-0.319459	0.269379
H104	H	0.499913	0.180541	0.769379
H105	H	-0.000071	-0.911844	-0.582344
H106	H	0.499929	-0.411844	-0.082344
H107	H	-0.000113	-1.209795	-0.620958
H108	H	0.499887	-0.709795	-0.120958
F109	F	-0.000066	-0.435454	0.374489
F110	F	0.499934	0.064546	0.874489
H111	H	-0.000065	-0.620472	0.357443
H112	H	0.499935	-0.120472	0.857443
H113	H	-0.000068	-0.680397	-0.104764
H114	H	0.499932	-0.180397	0.395236
H115	H	-0.000065	-0.772178	0.277998
H116	H	0.499935	-0.272178	0.777998
H117	H	-0.000057	-0.832411	-0.430643
H118	H	0.499943	-0.332411	0.069357
F119	F	-0.000134	-1.314905	-0.504963
F120	F	0.499866	-0.814905	-0.004963
F121	F	-0.000094	-1.318615	-0.310847
F122	F	0.499906	-0.818615	0.189153
H123	H	-0.000056	-0.920445	-0.129618
H124	H	0.499944	-0.420445	0.370382
H125	H	-0.000062	-0.835652	-0.260019
H126	H	0.499938	-0.335652	0.239981
F127	F	-0.000091	-0.500679	-0.128762
F128	F	0.499909	-0.000679	0.371238
F129	F	-0.000106	-0.348980	-0.049330
F130	F	0.499894	0.151020	0.450670
F131	F	-0.000107	-1.239169	-0.159141
F132	F	0.499893	-0.739169	0.340859
