data_functionalizedCrystal
_audit_creation_method	'MofGen! by Chris Wilmer'
_symmetry_space_group_name_H-M	'P1'
_symmetry_Int_Tables_number	1
_symmetry_cell_setting	triclinic
loop_
_symmetry_equiv_pos_as_xyz
  x,y,z
_cell_length_a	19.319731
_cell_length_b	19.318970
_cell_length_c	19.315557
_cell_angle_alpha	60.007379
_cell_angle_beta	60.014690
_cell_angle_gamma	59.991495
loop_
_atom_site_label
_atom_site_type_symbol
_atom_site_fract_x
_atom_site_fract_y
_atom_site_fract_z
O1	O	0.095954	-1.011347	0.845684
O2	O	0.595954	-0.511347	1.345684
O3	O	0.036156	-0.787405	0.681392
O4	O	0.536156	-0.287405	1.181392
O5	O	0.177960	-0.929104	0.681276
O6	O	0.677960	-0.429104	1.181276
O7	O	-0.045850	-0.869648	0.845799
O8	O	0.454150	-0.369648	1.345799
O9	O	0.225008	-0.882072	0.728208
O10	O	0.725008	-0.382072	1.228208
O11	O	0.083204	-0.740373	0.728324
O12	O	0.583204	-0.240373	1.228324
O13	O	0.143002	-0.964315	0.892616
O14	O	0.643002	-0.464315	1.392616
Cu15	Cu	0.117399	-0.848050	0.814755
Cu16	Cu	0.617399	-0.348050	1.314755
Cu17	Cu	0.061759	-0.903670	0.759252
Cu18	Cu	0.561759	-0.403670	1.259252
O19	O	0.001198	-0.822616	0.892732
O20	O	0.501198	-0.322616	1.392732
N21	N	0.156535	-0.808935	0.853797
N22	N	0.656535	-0.308935	1.353797
N23	N	0.022631	-0.942793	0.720211
N24	N	0.522631	-0.442793	1.220211
C25	C	0.182113	-0.653200	0.879374
C26	C	0.682113	-0.153200	1.379374
C27	C	0.182221	-0.783395	1.009518
C28	C	0.682221	-0.283395	1.509518
C29	C	0.312319	-0.783375	0.879314
C30	C	0.812319	-0.283375	1.379314
C31	C	0.182127	-0.783371	0.879357
C32	C	0.682127	-0.283371	1.379357
C33	C	0.214696	-0.750836	0.911890
C34	C	0.714696	-0.250836	1.411890
C35	C	-0.132988	-0.968144	0.694232
C36	C	0.367012	-0.468144	1.194232
C37	C	-0.002674	-0.968326	0.564242
C38	C	0.497326	-0.468326	1.064242
C39	C	-0.002907	-1.098444	0.694459
C40	C	0.497093	-0.598444	1.194459
C41	C	-0.002887	-0.968321	0.694542
C42	C	0.497113	-0.468321	1.194542
C43	C	-0.035363	-1.000810	0.661869
C44	C	0.464637	-0.500810	1.161869
N45	N	0.389025	-0.808944	0.853717
N46	N	0.889025	-0.308944	1.353717
O47	O	0.660019	-0.816766	0.651282
O48	O	1.160019	-0.316766	1.151282
O49	O	0.660312	-0.981573	0.874999
O50	O	1.160312	-0.481573	1.374999
O51	O	0.660193	-0.981192	0.733108
O52	O	1.160193	-0.481192	1.233108
O53	O	0.660138	-0.817147	0.793174
O54	O	1.160138	-0.317147	1.293174
O55	O	0.519202	-0.934278	0.780210
O56	O	1.019202	-0.434278	1.280210
O57	O	0.519321	-0.934658	0.922102
O58	O	1.019321	-0.434658	1.422102
O59	O	0.519028	-0.769852	0.698384
O60	O	1.019028	-0.269852	1.198384
Cu61	Cu	0.506300	-0.847971	0.814544
Cu62	Cu	1.006300	-0.347971	1.314544
Cu63	Cu	0.673039	-0.903453	0.758840
Cu64	Cu	1.173039	-0.403453	1.258840
O65	O	0.519147	-0.770232	0.840276
O66	O	1.019147	-0.270232	1.340276
N67	N	0.790314	-0.942480	0.719658
N68	N	1.290314	-0.442480	1.219658
N69	N	0.156514	-0.576494	0.853827
N70	N	0.656514	-0.076494	1.353827
O71	O	-0.045823	-0.305328	0.845846
O72	O	0.454177	0.194672	1.345846
O73	O	0.177892	-0.305317	0.681053
O74	O	0.677892	0.194683	1.181053
O75	O	0.035967	-0.305340	0.681465
O76	O	0.535967	0.194660	1.181465
O77	O	0.096102	-0.305306	0.845434
O78	O	0.596102	0.194694	1.345434
O79	O	0.083020	-0.446347	0.728459
O80	O	0.583020	0.053653	1.228459
O81	O	0.224945	-0.446325	0.728047
O82	O	0.724945	0.053675	1.228047
O83	O	0.001230	-0.446335	0.892839
O84	O	0.501230	0.053665	1.392839
Cu85	Cu	0.117383	-0.459205	0.814734
Cu86	Cu	0.617383	0.040795	1.314734
Cu87	Cu	0.061738	-0.292448	0.759159
Cu88	Cu	0.561738	0.207552	1.259159
O89	O	0.143154	-0.446313	0.892428
O90	O	0.643154	0.053687	1.392428
N91	N	0.022597	-0.175159	0.720067
N92	N	0.522597	0.324841	1.220067
N93	N	0.156703	-0.808977	1.086224
N94	N	0.656703	-0.308977	1.586224
O95	O	0.148753	-1.011298	1.357359
O96	O	0.648753	-0.511298	1.857359
O97	O	-0.016009	-0.787491	1.357400
O98	O	0.483991	-0.287491	1.857400
O99	O	-0.015627	-0.929387	1.357339
O100	O	0.484373	-0.429387	1.857339
O101	O	0.148372	-0.869401	1.357420
O102	O	0.648372	-0.369401	1.857420
O103	O	0.031342	-0.882367	1.216340
O104	O	0.531342	-0.382367	1.716340
O105	O	0.030961	-0.740471	1.216400
O106	O	0.530961	-0.240471	1.716400
O107	O	0.195723	-0.964278	1.216360
O108	O	0.695723	-0.464278	1.716360
Cu109	Cu	0.117631	-0.848081	1.203506
Cu110	Cu	0.617631	-0.348081	1.703506
Cu111	Cu	0.062083	-0.903688	1.370254
Cu112	Cu	0.562083	-0.403688	1.870254
O113	O	0.195341	-0.822381	1.216420
O114	O	0.695341	-0.322381	1.716420
N115	N	0.023010	-0.942801	1.487536
N116	N	0.523010	-0.442801	1.987536
C117	C	0.054075	-0.735670	0.682223
C118	C	0.554075	-0.235670	1.182223
C119	C	0.229681	-0.911148	0.682079
C120	C	0.729681	-0.411148	1.182079
C121	C	0.125082	-1.016051	0.891784
C122	C	0.625082	-0.516051	1.391784
C123	C	-0.050524	-0.840572	0.891928
C124	C	0.449476	-0.340572	1.391928
C125	C	0.589851	-0.980810	0.926735
C126	C	1.089851	-0.480810	1.426735
C127	C	0.589706	-0.980340	0.751019
C128	C	1.089706	-0.480340	1.251019
C129	C	0.589484	-0.770613	0.646650
C130	C	1.089484	-0.270613	1.146650
C131	C	0.589634	-0.771085	0.822364
C132	C	1.089634	-0.271085	1.322364
C133	C	0.229543	-0.375646	0.681799
C134	C	0.729543	0.124354	1.181799
C135	C	0.053845	-0.375847	0.682366
C136	C	0.553845	0.124153	1.182366
C137	C	-0.050480	-0.375832	0.892036
C138	C	0.449520	0.124168	1.392036
C139	C	0.125277	-0.375807	0.891527
C140	C	0.625277	0.124193	1.391527
C141	C	-0.015214	-0.735785	1.286905
C142	C	0.484786	-0.235785	1.786905
C143	C	-0.014732	-0.911497	1.286802
C144	C	0.485268	-0.411497	1.786802
C145	C	0.194928	-1.015984	1.286855
C146	C	0.694928	-0.515984	1.786855
C147	C	0.194457	-0.840261	1.286926
C148	C	0.694457	-0.340261	1.786926
H149	H	0.041301	-0.671339	0.630625
H150	H	0.541301	-0.171339	1.130625
H151	H	0.245979	-0.827427	1.286940
H152	H	0.745979	-0.327427	1.786940
H153	H	0.589730	-1.031874	0.738162
H154	H	1.089730	-0.531874	1.238162
H155	H	0.293660	-0.375252	0.629934
H156	H	0.793660	0.124748	1.129934
H157	H	0.293962	-0.923825	0.630414
H158	H	0.793962	-0.423825	1.130414
H159	H	0.589926	-1.032546	0.990990
H160	H	1.089926	-0.532546	1.490990
H161	H	-0.114728	-0.375837	0.943771
H162	H	0.385272	0.124163	1.443771
H163	H	-0.066941	-0.671507	1.286916
H164	H	0.433059	-0.171507	1.786916
H165	H	0.137858	-1.080380	0.943384
H166	H	0.637858	-0.580380	1.443384
C167	C	0.142667	-0.375799	0.961119
C168	C	0.642667	0.124201	1.461119
H169	H	0.198806	-0.375799	0.940391
H170	H	0.698806	0.124201	1.440391
H171	H	0.103559	-0.326627	0.976564
H172	H	0.603559	0.173373	1.476564
H173	H	0.136379	-0.424979	1.009334
H174	H	0.636379	0.075021	1.509334
H175	H	-0.066232	-0.924309	1.286721
H176	H	0.433768	-0.424309	1.786721
C177	C	0.589359	-0.700710	0.559859
C178	C	1.089359	-0.200710	1.059859
H179	H	0.589346	-0.721191	0.524234
H180	H	1.089346	-0.221191	1.024234
H181	H	0.540164	-0.652552	0.567326
H182	H	1.040164	-0.152552	1.067326
H183	H	0.638504	-0.685272	0.534466
H184	H	1.138504	-0.185272	1.034466
C185	C	0.589606	-0.701465	0.839725
C186	C	1.089606	-0.201465	1.339725
H187	H	0.589661	-0.722189	0.895857
H188	H	1.089661	-0.222189	1.395857
H189	H	0.638733	-0.685987	0.800593
H190	H	1.138733	-0.185987	1.300593
H191	H	0.540393	-0.653268	0.833449
H192	H	1.040393	-0.153268	1.333449
C193	C	0.036459	-0.375866	0.612778
C194	C	0.536459	0.124134	1.112778
H195	H	-0.019676	-0.375879	0.633510
H196	H	0.480324	0.124121	1.133510
H197	H	0.042752	-0.326698	0.564557
H198	H	0.542752	0.173302	1.064557
H199	H	0.075569	-0.425049	0.597346
H200	H	0.575569	0.074951	1.097346
C201	C	0.264814	-1.102812	1.286838
C202	C	0.764814	-0.602812	1.786838
H203	H	0.314028	-1.102902	1.286848
H204	H	0.814028	-0.602902	1.786848
H205	H	0.245391	-1.145949	1.335993
H206	H	0.745391	-0.645949	1.835993
H207	H	0.278149	-1.113145	1.237647
H208	H	0.778149	-0.613145	1.737647
C209	C	-0.137361	-0.823459	0.961723
C210	C	0.362639	-0.323459	1.461723
H211	H	-0.172933	-0.767336	0.941162
H212	H	0.327067	-0.267336	1.441162
H213	H	-0.162770	-0.862638	0.977168
H214	H	0.337230	-0.362638	1.477168
H215	H	-0.129952	-0.829830	1.009898
H216	H	0.370048	-0.329830	1.509898
