data_functionalizedCrystal
_audit_creation_method	'MofGen! by Chris Wilmer'
_symmetry_space_group_name_H-M	'P1'
_symmetry_Int_Tables_number	1
_symmetry_cell_setting	triclinic
loop_
_symmetry_equiv_pos_as_xyz
  x,y,z
_cell_length_a	12.759401
_cell_length_b	14.908178
_cell_length_c	12.759401
_cell_angle_alpha	93.309540
_cell_angle_beta	90.006994
_cell_angle_gamma	93.313278
loop_
_atom_site_label
_atom_site_type_symbol
_atom_site_fract_x
_atom_site_fract_y
_atom_site_fract_z
Zn1	Zn	1.581954	-0.359355	0.569837
Zn2	Zn	1.571744	-0.510189	0.384006
Zn3	Zn	1.406297	-0.359338	0.394173
Zn4	Zn	1.396101	-0.510179	0.559643
O5	O	1.489024	-0.434765	0.476915
O6	O	1.727620	-0.379375	0.545197
O7	O	1.549791	-0.490175	0.238334
O8	O	1.438138	-0.233088	0.425996
O9	O	1.720118	-0.490192	0.408668
O10	O	1.567192	-0.233100	0.555055
O11	O	1.428237	-0.379345	0.245803
O12	O	1.257924	-0.379336	0.416112
O13	O	1.420761	-0.490175	0.708016
O14	O	1.250433	-0.490159	0.537682
O15	O	1.557306	-0.379365	0.715505
O16	O	1.539905	-0.636440	0.398784
O17	O	1.410861	-0.636433	0.527824
C18	C	1.216058	-0.434745	0.476895
C19	C	1.099280	-0.434758	0.476910
C20	C	0.938560	-0.376998	0.413751
C21	C	1.048286	-0.376977	0.413736
C22	C	1.040544	-0.492558	0.540110
C23	C	0.930821	-0.492573	0.540130
C24	C	1.205395	-0.270502	0.383550
C25	C	1.264126	-0.212713	0.320340
C26	C	1.229426	-0.198726	0.218802
C27	C	1.135994	-0.242542	0.180452
C28	C	1.077268	-0.300338	0.243656
C29	C	1.111968	-0.314307	0.345210
C30	C	0.773710	-0.599050	0.570305
C31	C	0.714981	-0.656851	0.633504
C32	C	0.749678	-0.670846	0.735043
C33	C	0.843112	-0.627047	0.773388
C34	C	0.901841	-0.569246	0.710189
C35	C	0.867136	-0.555248	0.608651
C36	C	1.473197	-0.669172	0.461117
C37	C	1.466522	-0.769452	0.454394
C38	C	1.588262	-0.957753	0.576294
C39	C	1.581995	-1.051975	0.569981
C40	C	1.447714	-1.052121	0.435460
C41	C	1.453982	-0.957899	0.441773
C42	C	1.524260	-0.910718	0.512192
C43	C	1.530532	-0.816494	0.518499
C44	C	1.396247	-0.816641	0.383984
C45	C	1.389979	-0.910864	0.377671
C46	C	1.763056	-0.434786	0.476935
C47	C	1.879832	-0.434795	0.476944
C48	C	1.489035	-0.434771	0.750947
C49	C	1.489040	-0.434774	0.867724
C50	C	1.504941	-0.199443	0.492797
C51	C	1.511724	-0.099162	0.499565
C52	C	1.560130	-0.377084	0.926486
C53	C	1.560121	-0.377083	1.036211
C54	C	1.417928	-0.492468	1.028400
C55	C	1.417933	-0.492464	0.918678
C56	C	1.604851	-0.270689	1.193349
C57	C	1.675957	-0.213007	1.252115
C58	C	1.779410	-0.199164	1.217455
C59	C	1.811776	-0.243015	1.124031
C60	C	1.740676	-0.300703	1.065270
C61	C	1.637210	-0.314530	1.099929
C62	C	1.373213	-0.598859	0.761537
C63	C	1.302117	-0.656553	0.702775
C64	C	1.198662	-0.670405	0.737431
C65	C	1.166298	-0.626570	0.830858
C66	C	1.237395	-0.568876	0.889621
C67	C	1.340848	-0.555022	0.854957
C68	C	1.489010	-0.434779	1.203946
C69	C	1.489026	-0.434776	1.087170
H70	H	1.233651	-0.281876	0.466235
F71	F	1.775117	-0.347373	0.965848
H72	H	1.332759	-0.949291	0.320341
H73	H	1.344134	-0.778335	0.331784
H74	H	1.618027	-0.330107	0.885003
F75	F	1.336568	-0.703214	0.603346
F76	F	0.884298	-0.315503	0.346505
F77	F	0.977839	-0.346970	0.202846
F78	F	1.483315	-0.584096	0.724628
H79	H	0.745437	-0.587642	0.487630
F80	F	1.921891	-0.228290	1.087158
F81	F	1.372905	-1.102349	0.360543
F82	F	1.099078	-0.227663	0.072373
F83	F	0.615550	-0.703481	0.592682
H84	H	1.211035	-0.533184	0.965695
F85	F	1.291937	-0.137223	0.151530
F86	F	1.855085	-0.137776	1.280003
H87	H	1.649595	-0.177304	1.328181
H88	H	1.520611	-0.281948	1.221573
H89	H	1.340199	-0.177038	0.351575
F90	F	1.094819	-0.554055	0.607342
F91	F	1.123002	-0.731825	0.674897
F92	F	1.001284	-0.522630	0.751002
H93	H	0.871367	-0.638445	0.856069
F94	F	0.687173	-0.732372	0.802300
F95	F	1.663066	-0.907538	0.651227
F96	F	1.342260	-0.553865	1.082637
H97	H	1.587758	-0.778080	0.575834
F98	F	1.650113	-1.102030	0.638210
H99	H	1.082058	-0.637852	0.859079
