data_functionalizedCrystal
_audit_creation_method	'MofGen! by Chris Wilmer'
_symmetry_space_group_name_H-M	'P1'
_symmetry_Int_Tables_number	1
_symmetry_cell_setting	triclinic
loop_
_symmetry_equiv_pos_as_xyz
  x,y,z
_cell_length_a	14.519709
_cell_length_b	23.532407
_cell_length_c	13.596369
_cell_angle_alpha	89.989360
_cell_angle_beta	90.000291
_cell_angle_gamma	83.264412
loop_
_atom_site_label
_atom_site_type_symbol
_atom_site_fract_x
_atom_site_fract_y
_atom_site_fract_z
O1	O	1.222985	0.074654	-0.081674
O2	O	0.954404	0.083445	-0.081705
O3	O	1.096794	-0.003846	-0.081671
O4	O	1.080596	0.161945	-0.081708
O5	O	1.096780	-0.003850	0.081912
O6	O	0.954390	0.083441	0.081878
O7	O	1.222971	0.074649	0.081909
Zn8	Zn	1.088678	0.079044	0.107866
Zn9	Zn	1.088697	0.079050	-0.107662
O10	O	1.080582	0.161940	0.081874
C11	C	0.920042	0.083033	0.000083
C12	C	0.817676	0.081805	0.000071
C13	C	0.442833	0.077286	0.000117
C14	C	0.547126	0.078541	0.000104
C15	C	0.630251	0.079545	0.000093
C16	C	0.734551	0.080801	0.000082
C17	C	1.096374	-0.025066	0.000123
C18	C	1.095134	-0.088288	0.000131
C19	C	1.171619	-0.487046	0.000086
C20	C	1.170467	-0.546452	0.000078
O21	O	1.241369	-0.582876	0.000050
N22	N	1.085816	-0.569460	0.000069
C23	C	1.002312	-0.533059	0.000057
O24	O	0.930205	-0.558084	0.000048
C25	C	1.003465	-0.473655	0.000058
C26	C	1.088121	-0.450650	0.000077
C27	C	1.256268	-0.464041	0.000104
C28	C	1.257420	-0.404640	0.000113
C29	C	1.173922	-0.368244	0.000105
C30	C	1.089273	-0.391249	0.000087
C31	C	0.919962	-0.437255	0.000039
C32	C	0.921123	-0.377847	0.000039
C33	C	1.005779	-0.354843	0.000058
C34	C	1.006927	-0.295451	0.000087
N35	N	1.091578	-0.272443	0.000097
C36	C	1.175075	-0.308839	0.000105
C37	C	0.999897	-0.657813	0.000055
C38	C	0.998743	-0.717216	0.000061
C39	C	1.166898	-0.730604	0.000080
C40	C	1.168051	-0.671200	0.000080
C41	C	1.084548	-0.634804	0.000064
C42	C	1.177487	-0.184092	0.000126
C43	C	1.178632	-0.124685	0.000139
C44	C	1.010477	-0.111301	0.000115
C45	C	1.009332	-0.170703	0.000107
C46	C	1.092845	-0.207098	0.000109
O47	O	0.936062	-0.258992	0.000111
O48	O	1.247171	-0.283806	0.000102
C49	C	1.257333	0.075061	0.000119
C50	C	1.359700	0.076289	0.000124
C51	C	1.081001	0.183160	0.000078
C52	C	1.082241	0.246383	0.000064
N53	N	1.088673	0.079040	0.254958
N54	N	1.088710	0.079050	-0.254754
C55	C	1.088696	0.079051	0.656248
C56	C	1.088686	0.079050	0.544597
C57	C	1.088685	0.079046	0.455607
C58	C	1.088674	0.079044	0.343948
H59	H	1.247572	-0.105958	0.000158
O60	O	1.339630	-0.382269	0.000292
C61	C	1.345329	-0.348305	0.084999
H62	H	1.297269	-0.362409	0.144216
H63	H	1.323624	-0.301482	0.065843
C64	C	1.504823	-0.338082	0.050684
C65	C	1.445800	-0.355408	0.123417
H66	H	1.566799	-0.342461	0.074380
H67	H	1.500983	-0.360962	-0.006387
H68	H	1.486724	-0.299064	0.034727
H69	H	1.463892	-0.394427	0.139364
H70	H	1.449645	-0.332535	0.180492
H71	H	0.942496	-0.081657	0.000112
H72	H	1.245491	-0.213718	0.000124
O73	O	1.250308	-0.648882	-0.000085
C74	C	1.301187	-0.667481	-0.084787
H75	H	1.251677	-0.679885	-0.144006
H76	H	1.352934	-0.706142	-0.065624
C77	C	1.414549	-0.603579	-0.050469
C78	C	1.353740	-0.618810	-0.123205
H79	H	1.446970	-0.573558	-0.074166
H80	H	1.380274	-0.591050	0.006599
H81	H	1.457663	-0.635801	-0.034507
H82	H	1.310620	-0.586590	-0.139158
H83	H	1.388009	-0.631332	-0.180277
H84	H	1.324266	-0.493670	0.000107
O85	O	0.840064	-0.342436	0.000156
C86	C	0.835672	-0.307695	0.084893
H87	H	0.908836	-0.304609	0.113154
H88	H	0.793732	-0.327295	0.144207
C89	C	0.698831	-0.251227	0.024446
C90	C	0.788694	-0.247433	0.059151
H91	H	0.669850	-0.214056	0.008569
H92	H	0.701788	-0.274634	-0.032642
H93	H	0.663893	-0.267564	0.073880
H94	H	0.823633	-0.231104	0.009713
H95	H	0.785742	-0.224022	0.116230
O96	O	1.248034	-0.765943	0.000253
C97	C	1.299478	-0.755510	0.084965
H98	H	1.250605	-0.735266	0.144181
H99	H	1.352580	-0.725206	0.065818
C100	C	1.409984	-0.837257	0.050643
C101	C	1.349957	-0.812398	0.123377
H102	H	1.441125	-0.872347	0.074336
H103	H	1.375328	-0.844285	-0.006431
H104	H	1.454227	-0.811998	0.034694
H105	H	1.305708	-0.837653	0.139317
H106	H	1.384607	-0.805375	0.180455
O107	O	0.916427	-0.739464	0.000010
C108	C	0.842984	-0.694595	0.000031
H109	H	0.868465	-0.654210	-0.030929
H110	H	0.817250	-0.686228	0.078508
C111	C	0.731807	-0.761038	-0.026108
C112	C	0.763100	-0.711438	-0.064141
H113	H	0.682528	-0.771428	-0.065688
H114	H	0.781286	-0.791268	-0.026118
H115	H	0.710368	-0.754059	0.039289
H116	H	0.784549	-0.718419	-0.129532
H117	H	0.713623	-0.681209	-0.064143
O118	O	0.918836	-0.622401	0.000183
C119	C	0.914449	-0.587659	0.084918
H120	H	0.987616	-0.584570	0.113169
H121	H	0.872517	-0.607260	0.144238
C122	C	0.777599	-0.531196	0.024482
C123	C	0.867464	-0.527399	0.059177
H124	H	0.748613	-0.494026	0.008607
H125	H	0.780552	-0.554604	-0.032604
H126	H	0.742667	-0.547533	0.073922
H127	H	0.902397	-0.511069	0.009733
H128	H	0.864516	-0.503987	0.116254
H129	H	0.851027	-0.455975	0.000018
H130	H	0.940399	-0.189434	0.000119
