data_functionalizedCrystal
_audit_creation_method	'MofGen! by Chris Wilmer'
_symmetry_space_group_name_H-M	'P1'
_symmetry_Int_Tables_number	1
_symmetry_cell_setting	triclinic
loop_
_symmetry_equiv_pos_as_xyz
  x,y,z
_cell_length_a	10.868271
_cell_length_b	14.853567
_cell_length_c	14.853576
_cell_angle_alpha	96.363315
_cell_angle_beta	90.003322
_cell_angle_gamma	89.998656
loop_
_atom_site_label
_atom_site_type_symbol
_atom_site_fract_x
_atom_site_fract_y
_atom_site_fract_z
O1	O	0.102232	-1.196368	0.117704
O2	O	0.102253	-0.933909	0.131726
O3	O	0.102240	-1.072145	-0.006514
O4	O	0.102246	-1.058132	0.255944
O5	O	-0.102405	-1.072134	-0.006520
O6	O	-0.102392	-0.933898	0.131720
O7	O	-0.102412	-1.196357	0.117699
Zn8	Zn	-0.134894	-1.065125	0.124709
Zn9	Zn	0.134734	-1.065140	0.124716
O10	O	-0.102399	-1.058121	0.255939
C11	C	-0.000067	-0.900315	0.131088
C12	C	-0.000059	-0.800231	0.129184
N13	N	-0.318908	-1.065122	0.124703
C14	C	-0.000081	-1.071503	-0.040106
C15	C	-0.000075	-1.069596	-0.140189
C16	C	-0.569914	-1.065136	0.124714
C17	C	-0.430236	-1.065125	0.124711
N18	N	0.318748	-1.065151	0.124714
C19	C	-0.000090	-1.229951	0.118337
C20	C	-0.000090	-1.330035	0.120241
C21	C	-0.000088	-0.387694	0.039018
C22	C	-0.000083	-0.366418	0.203251
C23	C	-0.000080	-0.460452	0.205041
C24	C	-0.000078	-0.518111	0.123818
C25	C	-0.000081	-0.481737	0.040806
C26	C	-0.000064	-0.496834	0.288052
C27	C	-0.000059	-0.590873	0.289845
C28	C	-0.000067	-0.648534	0.208622
C29	C	-0.000071	-0.612154	0.125606
C30	C	-0.000069	-0.669814	0.044384
C31	C	-0.000082	-0.633436	-0.038633
C32	C	-0.000088	-0.539398	-0.040417
C33	C	-0.000060	-0.742572	0.210406
C34	C	-0.000062	-0.763856	0.046171
C35	C	-0.000076	-1.058763	0.289530
C36	C	-0.000074	-1.060669	0.389613
C37	C	0.111482	-1.061573	0.436636
C38	C	-0.111629	-1.061550	0.436634
C39	C	-0.111631	-1.063337	0.530668
C40	C	-0.000075	-1.064241	0.577691
C41	C	0.111484	-1.063357	0.530679
C42	C	-0.223188	-1.064211	0.577688
C43	C	-0.223194	-1.065997	0.671728
C44	C	-0.111637	-1.066907	0.718752
C45	C	-0.000074	-1.066025	0.671734
C46	C	0.111483	-1.066929	0.718756
C47	C	0.223047	-1.066053	0.671739
C48	C	0.223041	-1.064268	0.577702
C49	C	-0.111631	-1.068693	0.812789
C50	C	0.111484	-1.068713	0.812799
H51	H	-0.000065	-0.810798	-0.019971
F52	F	0.230211	-1.060649	0.386597
F53	F	0.341765	-1.063339	0.527657
H54	H	-0.202453	-1.060808	0.398344
F55	F	-0.000072	-0.694811	-0.125072
H56	H	-0.000128	-0.509770	-0.108005
H57	H	-0.000049	-0.620483	0.357442
F58	F	-0.000070	-0.305052	0.289688
H59	H	-0.000053	-0.449881	0.354178
F60	F	0.341769	-1.067016	0.721794
F61	F	-0.000038	-0.781284	0.298752
H62	H	0.202328	-1.069453	0.851078
H63	H	-0.314011	-1.063471	0.539396
F64	F	-0.230357	-1.069622	0.862824
F65	F	-0.000108	-0.348979	-0.049329
F66	F	-0.341929	-1.066926	0.721759
