data_functionalizedCrystal
_audit_creation_method	'MofGen! by Chris Wilmer'
_symmetry_space_group_name_H-M	'P1'
_symmetry_Int_Tables_number	1
_symmetry_cell_setting	triclinic
loop_
_symmetry_equiv_pos_as_xyz
  x,y,z
_cell_length_a	19.377625
_cell_length_b	19.377369
_cell_length_c	18.760492
_cell_angle_alpha	72.124467
_cell_angle_beta	75.507343
_cell_angle_gamma	44.223055
loop_
_atom_site_label
_atom_site_type_symbol
_atom_site_fract_x
_atom_site_fract_y
_atom_site_fract_z
Zr1	Zr	0.544494	0.779835	-0.091372
O2	O	0.403579	0.928482	-0.141539
O3	O	0.606486	0.631193	-0.099734
O4	O	0.579390	0.779833	-0.214206
O5	O	0.430670	0.779842	0.090237
O6	O	0.696694	0.779827	-0.244521
O7	O	0.430675	0.779842	-0.027067
O8	O	0.745164	0.513937	-0.039751
O9	O	0.382201	1.045731	-0.114532
O10	O	0.697761	0.692326	-0.097240
O11	O	0.610215	0.692330	0.012926
O12	O	0.578313	0.867335	-0.121850
O13	O	0.490767	0.867340	-0.011684
Zr14	Zr	0.731572	0.779825	0.047366
Zr15	Zr	0.731580	0.779825	-0.139720
Zr16	Zr	0.544486	0.779836	0.095715
Zr17	Zr	0.510398	0.966835	-0.048299
Zr18	Zr	0.765669	0.592825	0.004294
O19	O	0.669580	0.928467	0.055729
O20	O	0.669592	0.928467	-0.210284
O21	O	0.403568	0.928482	0.124474
O22	O	0.872487	0.631179	0.097533
O23	O	0.872498	0.631179	-0.168479
O24	O	0.606475	0.631194	0.166279
O25	O	0.845396	0.779819	-0.134242
O26	O	0.696676	0.779827	0.170201
O27	O	0.579372	0.779834	0.200516
O28	O	0.845391	0.779819	-0.016938
O29	O	0.530909	1.045723	-0.152962
O30	O	0.745157	0.513937	0.108957
O31	O	0.893866	0.513929	0.070527
O32	O	0.893872	0.513929	-0.078182
O33	O	0.382194	1.045732	0.034177
O34	O	0.530903	1.045724	-0.004254
O35	O	0.697753	0.692326	0.077845
O36	O	0.785300	0.692321	-0.032321
O37	O	0.665852	0.867330	-0.056931
O38	O	0.578305	0.867335	0.053235
C39	C	0.680683	0.545922	-0.075880
C40	C	0.695158	0.466535	-0.094165
C41	C	0.404017	0.779843	0.038474
C42	C	0.324594	0.779847	0.058999
C43	C	0.514644	0.205147	0.133376
C44	C	0.528365	0.130460	0.116225
C45	C	0.619757	0.130465	0.001220
C46	C	0.606047	0.205149	0.018363
C47	C	0.553489	0.242485	0.084442
C48	C	0.644893	0.242488	-0.030571
C49	C	0.631180	0.317169	-0.013432
C50	C	0.578622	0.354513	0.052643
C51	C	0.539777	0.317167	0.101581
C52	C	0.697445	0.205155	-0.096652
C53	C	0.736290	0.242494	-0.145586
C54	C	0.722583	0.317172	-0.128445
C55	C	0.670025	0.354515	-0.062370
C56	C	0.761429	0.354517	-0.177383
C57	C	0.747716	0.429199	-0.160244
C58	C	0.656313	0.429197	-0.045231
C59	C	0.063396	0.779821	-0.196576
C60	C	-0.011229	0.779818	-0.177265
C61	C	-0.011214	0.779818	-0.048026
C62	C	0.063409	0.779826	-0.067327
C63	C	0.100708	0.779827	-0.141603
C64	C	0.100721	0.779832	-0.012353
C65	C	0.175341	0.779836	-0.031652
C66	C	0.212648	0.779833	-0.105924
C67	C	0.175328	0.779830	-0.160902
C68	C	0.063425	0.779824	0.061923
C69	C	0.100738	0.779830	0.116896
C70	C	0.175354	0.779841	0.097597
C71	C	0.212661	0.779838	0.023325
C72	C	0.212675	0.779843	0.152574
C73	C	0.287294	0.779847	0.133275
C74	C	0.287281	0.779842	0.004026
C75	C	0.872049	0.779818	-0.082479
C76	C	0.951472	0.779813	-0.103004
C77	C	0.638043	0.779830	-0.256019
C78	C	0.638047	0.779830	-0.335442
C79	C	0.595383	1.013739	0.031875
C80	C	0.580908	1.093125	0.050160
C81	C	0.700375	0.688474	-0.658405
C82	C	0.575669	0.871186	-0.684094
C83	C	0.575675	0.871188	-0.609474
C84	C	0.638030	0.779831	-0.559316
C85	C	0.700381	0.688472	-0.583778
C86	C	0.513318	0.962545	-0.585005
C87	C	0.513321	0.962550	-0.510381
C88	C	0.575682	0.871192	-0.460223
C89	C	0.638036	0.779830	-0.484689
C90	C	0.700392	0.688473	-0.434531
C91	C	0.762751	0.597109	-0.458997
C92	C	0.762742	0.597114	-0.533620
C93	C	0.575691	0.871187	-0.385600
C94	C	0.700397	0.688471	-0.359904
C95	C	0.638023	0.779831	0.212014
C96	C	0.638020	0.779831	0.291437
C97	C	0.914699	0.545909	-0.136356
C98	C	1.008597	0.466518	-0.175167
C99	C	0.680673	0.545922	0.158137
C100	C	0.695144	0.466536	0.219275
C101	C	0.914689	0.545909	0.097660
C102	C	1.008583	0.466518	0.138273
C103	C	0.361377	1.013751	-0.141666
C104	C	0.267483	1.093142	-0.182278
C105	C	0.361367	1.013752	0.092351
C106	C	0.267469	1.093143	0.131162
C107	C	0.595394	1.013739	-0.202142
C108	C	0.580922	1.093125	-0.263280
C109	C	1.006998	0.429238	-0.227288
C110	C	1.095216	0.354652	-0.263767
C111	C	1.185033	0.317343	-0.248121
C112	C	1.186629	0.354631	-0.195997
C113	C	1.098411	0.429220	-0.159522
C114	C	0.747634	0.429253	0.281880
C115	C	0.761227	0.354671	0.339336
C116	C	0.722334	0.317369	0.334182
C117	C	0.669837	0.354659	0.271571
C118	C	0.656239	0.429245	0.214119
C119	C	1.098383	0.429233	0.099837
C120	C	1.186612	0.354648	0.137991
C121	C	1.185040	0.317344	0.214578
C122	C	1.095230	0.354636	0.253016
C123	C	1.007002	0.429226	0.214864
C124	C	0.177681	1.130436	-0.143840
C125	C	0.089448	1.205045	-0.181988
C126	C	0.091020	1.242353	-0.258575
C127	C	0.180830	1.205056	-0.297014
C128	C	0.269061	1.130453	-0.258865
C129	C	0.269067	1.130431	0.183276
C130	C	0.180845	1.205037	0.219740
C131	C	0.091028	1.242349	0.204092
C132	C	0.089433	1.205058	0.151971
C133	C	0.177652	1.130458	0.115504
C134	C	0.619828	1.130403	-0.258105
C135	C	0.606249	1.204985	-0.315550
C136	C	0.553758	1.242293	-0.378166
C137	C	0.514853	1.205007	-0.383340
C138	C	0.528437	1.130421	-0.325899
H139	H	0.567454	0.415327	0.066594
H140	H	0.637932	1.235336	-0.311323
H141	H	0.462545	1.036944	-0.490469
H142	H	0.662569	1.100039	-0.207125
C143	C	-0.051693	1.228038	0.200607
C144	C	-0.009299	1.246069	0.134783
H145	H	-0.112644	1.253350	0.189997
H146	H	-0.063357	1.260920	0.236854
H147	H	-0.007834	1.157610	0.219604
H148	H	-0.053156	1.316498	0.115789
H149	H	0.002360	1.213189	0.098523
H150	H	-0.041604	0.779811	-0.222036
C151	C	0.452416	1.051789	-0.418489
C152	C	0.507153	0.971603	-0.358706
H153	H	0.410107	1.113784	-0.401886
H154	H	0.413670	1.047988	-0.436368
H155	H	0.496355	1.047984	-0.457752
H156	H	0.463214	0.975404	-0.319445
H157	H	0.545902	0.975406	-0.340816
C158	C	-0.049136	1.288281	-0.295931
C159	C	-0.005969	1.324349	-0.300505
H160	H	-0.109011	1.338899	-0.321819
H161	H	-0.062916	1.271404	-0.244821
H162	H	-0.004759	1.230087	-0.318065
H163	H	-0.050343	1.382539	-0.278366
H164	H	0.007808	1.341240	-0.351625
H165	H	0.733413	0.256637	0.380968
H166	H	-0.041589	0.779813	0.012451
C167	C	0.362986	1.168425	-0.331151
C168	C	0.367763	1.089469	-0.301135
H169	H	0.423915	1.143129	-0.357256
H170	H	0.351165	1.197495	-0.291748
H171	H	0.310644	1.218192	-0.364815
H172	H	0.420100	1.039705	-0.267466
H173	H	0.379595	1.060383	-0.340543
C174	C	1.160184	0.391211	-0.023951
C175	C	1.100089	0.470198	0.015637
H176	H	1.161233	0.416491	-0.075936
H177	H	1.134494	0.362098	-0.016028
H178	H	1.225586	0.341483	-0.006743
H179	H	1.034684	0.519922	-0.001567
H180	H	1.125775	0.499326	0.007709
C181	C	0.086138	1.319410	-0.406559
C182	C	0.182549	1.246063	-0.381201
H183	H	0.087200	1.344718	-0.458535
H184	H	0.045388	1.372949	-0.379666
H185	H	0.060447	1.290299	-0.398684
H186	H	0.208237	1.275177	-0.389071
H187	H	0.223313	1.192515	-0.408102
H188	H	0.662546	0.100060	-0.052582
C189	C	-0.041978	0.865986	0.201462
C190	C	0.059731	0.779835	0.198538
H191	H	-0.067291	0.865992	0.251865
H192	H	-0.074870	0.865970	0.171490
H193	H	-0.052747	0.924422	0.183024
H194	H	0.070500	0.721398	0.216971
H195	H	0.092633	0.779841	0.228521
H196	H	0.472114	1.235394	-0.434330
C197	C	0.453053	0.319620	0.210722
C198	C	0.456881	0.246187	0.206015
H199	H	0.417400	0.344951	0.255566
H200	H	0.420711	0.373130	0.168756
H201	H	0.518456	0.290575	0.211047
H202	H	0.391478	0.275235	0.205684
H203	H	0.489220	0.192668	0.247992
H204	H	0.804213	0.324116	-0.231188
C205	C	-0.071326	1.410142	0.190977
C206	C	-0.005937	1.324354	0.244182
H207	H	-0.131181	1.460770	0.215731
H208	H	-0.085144	1.393281	0.157711
H209	H	-0.042001	1.434566	0.163415
H210	H	-0.035259	1.299926	0.271741
H211	H	0.007881	1.341217	0.277461
C212	C	0.436866	0.137768	0.231736
C213	C	0.485821	0.089282	0.170089
H214	H	0.410653	0.112304	0.265008
H215	H	0.384458	0.208159	0.214920
H216	H	0.482295	0.125710	0.257094
H217	H	0.440391	0.101347	0.144728
H218	H	0.538235	0.018875	0.186906
C219	C	0.901596	0.209873	0.413479
C220	C	0.818939	0.313683	0.408152
H221	H	0.937220	0.184572	0.455964
H222	H	0.943259	0.197647	0.369460
H223	H	0.880361	0.176998	0.418638
H224	H	0.840174	0.346560	0.402987
H225	H	0.777269	0.325918	0.452182
H226	H	0.638174	0.324277	0.267384
H227	H	0.708601	0.144350	-0.110607
H228	H	0.933872	0.459614	-0.240043
H229	H	0.613515	0.459598	0.008577
C230	C	0.385231	1.046552	0.276733
C231	C	0.367787	1.089428	0.200484
H232	H	0.446172	1.021250	0.287357
H233	H	0.388451	0.993008	0.288655
H234	H	0.332906	1.096329	0.305898
H235	H	0.420109	1.039649	0.171319
H236	H	0.364575	1.142978	0.188555
H237	H	0.613501	0.459591	0.163142
H238	H	0.176339	1.100100	0.073073
H239	H	0.182163	1.235387	0.262179
H240	H	1.093898	0.324301	-0.306206
C241	C	0.584059	1.349123	-0.423526
C242	C	0.538825	1.324285	-0.441301
H243	H	0.574834	1.399747	-0.462499
H244	H	0.652879	1.290920	-0.418220
H245	H	0.555127	1.373565	-0.377808
H246	H	0.567762	1.299836	-0.487017
H247	H	0.469991	1.382499	-0.446615
H248	H	0.496979	0.347568	0.155389
C249	C	1.280527	0.392634	0.065693
C250	C	1.285317	0.313670	0.095721
H251	H	1.341458	0.367340	0.039592
H252	H	1.268692	0.421720	0.105090
H253	H	1.228191	0.442388	0.032024
H254	H	1.337649	0.263920	0.129395
H255	H	1.297163	0.284569	0.056319
H256	H	0.273412	0.779831	-0.121635
H257	H	0.779080	0.212089	-0.199389
C258	C	1.261693	0.210483	0.331854
C259	C	1.282026	0.235357	0.256511
H260	H	1.321571	0.159874	0.357738
H261	H	1.232411	0.186021	0.334947
H262	H	1.217319	0.268686	0.353976
H263	H	1.326395	0.177155	0.234387
H264	H	1.311323	0.259816	0.253414
H265	H	0.779347	0.459601	-0.200092
C266	C	1.362448	0.240257	-0.221819
C267	C	1.285363	0.313604	-0.178798
H268	H	1.423404	0.214921	-0.211194
H269	H	1.350590	0.269370	-0.273535
H270	H	1.365636	0.186727	-0.209893
H271	H	1.282170	0.367138	-0.190727
H272	H	1.297224	0.284492	-0.127070
H273	H	1.256858	0.256606	-0.277826
H274	H	0.317645	0.779853	-0.056459
H275	H	0.205692	0.779842	-0.221386
C276	C	0.749254	0.513164	0.351740
C277	C	0.790374	0.470263	0.287559
H278	H	0.775632	0.538489	0.355247
H279	H	0.764869	0.463404	0.394905
H280	H	0.679372	0.566705	0.348587
H281	H	0.860255	0.416716	0.290714
H282	H	0.774766	0.520027	0.244384
H283	H	0.933888	0.459574	0.246169
H284	H	0.093759	0.779832	-0.257061
H285	H	0.002668	0.779817	0.077634
H286	H	1.093965	0.324252	0.315378
C287	C	0.078468	1.137965	-0.033981
C288	C	0.175934	1.089452	-0.059652
H289	H	0.077384	1.112674	0.017996
H290	H	0.053490	1.125734	-0.060765
H291	H	0.038435	1.208387	-0.041755
H292	H	0.215966	1.019031	-0.051883
H293	H	0.200925	1.101674	-0.032860
C294	C	0.069962	0.865984	0.237147
C295	C	0.171672	0.779839	0.234216
H296	H	0.044654	0.865982	0.287551
H297	H	0.037070	0.865970	0.207173
H298	H	0.059187	0.924424	0.218714
H299	H	0.182447	0.721398	0.252644
H300	H	0.204574	0.779843	0.264201
H301	H	0.496750	1.100077	-0.330120
C302	C	0.279777	0.779912	0.262961
C303	C	0.328288	0.779892	0.193695
H304	H	0.305077	0.779953	0.300260
H305	H	0.290577	0.721462	0.276035
H306	H	0.210774	0.838347	0.259566
H307	H	0.397290	0.721452	0.197089
H308	H	0.317495	0.838348	0.180619
H309	H	0.751178	0.614076	-0.319069
H310	H	0.813516	0.522726	-0.418147
C311	C	0.390047	1.143150	-0.602906
C312	C	0.444781	1.062960	-0.640137
H313	H	0.347731	1.205143	-0.636946
H314	H	0.433979	1.139349	-0.583951
H315	H	0.351297	1.139347	-0.562577
H316	H	0.483537	1.066759	-0.680462
H317	H	0.400844	1.066763	-0.659103
C318	C	-0.073887	1.349828	-0.144098
C319	C	-0.009261	1.246025	-0.139726
H320	H	-0.134821	1.375121	-0.118002
H321	H	-0.085587	1.382726	-0.195162
H322	H	-0.045087	1.362030	-0.122083
H323	H	-0.038059	1.233824	-0.161747
H324	H	0.002437	1.213117	-0.088653
H325	H	0.813512	0.522731	-0.553547
H326	H	0.751150	0.614088	-0.678329
H327	H	0.524898	0.945565	-0.724935
H328	H	1.099727	0.459564	-0.117080
