data_functionalizedCrystal
_audit_creation_method	'MofGen! by Chris Wilmer'
_symmetry_space_group_name_H-M	'P1'
_symmetry_Int_Tables_number	1
_symmetry_cell_setting	triclinic
loop_
_symmetry_equiv_pos_as_xyz
  x,y,z
_cell_length_a	10.654550
_cell_length_b	12.837942
_cell_length_c	9.130313
_cell_angle_alpha	89.996012
_cell_angle_beta	89.999724
_cell_angle_gamma	89.656935
loop_
_atom_site_label
_atom_site_type_symbol
_atom_site_fract_x
_atom_site_fract_y
_atom_site_fract_z
O1	O	1.683741	0.145723	-0.121688
O2	O	1.319778	0.159606	-0.121715
O3	O	1.493689	0.001704	-0.121693
O4	O	1.509830	0.303626	-0.121710
O5	O	1.493675	0.001699	0.121906
O6	O	1.319764	0.159602	0.121884
O7	O	1.683728	0.145718	0.121911
Cu8	Cu	1.501745	0.152660	0.144140
Cu9	Cu	1.501761	0.152665	-0.143944
O10	O	1.509816	0.303621	0.121889
C11	C	1.272862	0.158585	0.000081
C12	C	1.133086	0.155535	0.000071
C13	C	1.488230	-0.036958	0.000105
C14	C	1.471967	-0.152152	0.000101
C15	C	1.063746	0.248505	0.000070
C16	C	0.932411	0.245633	0.000096
C17	C	0.939770	0.056812	0.000117
C18	C	1.071101	0.059685	0.000102
C19	C	1.667472	-0.391705	0.000085
C20	C	1.652197	-0.499941	0.000082
C21	C	1.426146	-0.476861	0.000080
C22	C	1.441420	-0.368626	0.000084
C23	C	1.562087	-0.326052	0.000088
C24	C	1.577360	-0.217814	0.000103
C25	C	1.351309	-0.194737	0.000091
C26	C	1.336035	-0.302972	0.000087
C27	C	1.730644	0.146740	0.000111
C28	C	1.870420	0.149790	0.000112
C29	C	1.515276	0.342283	0.000087
C30	C	1.531538	0.457477	0.000081
N31	N	1.501742	0.152655	0.346762
N32	N	1.501772	0.152661	-0.346567
C33	C	1.578782	0.082766	0.423424
C34	C	1.578794	0.082766	0.576761
C35	C	1.424723	0.222554	0.576761
C36	C	1.424706	0.222548	0.423427
H37	H	0.875960	0.321340	0.000098
H38	H	1.675613	-0.183153	0.000112
C39	C	1.800197	-0.344864	0.000104
C40	C	1.891329	-0.369271	0.126609
C41	C	2.024056	-0.322430	0.126630
C42	C	2.065651	-0.251182	0.000147
C43	C	1.974517	-0.226771	-0.126368
C44	C	1.841790	-0.273612	-0.126389
H45	H	1.860540	-0.422017	0.220248
H46	H	2.091519	-0.340502	0.220286
H47	H	2.163903	-0.216508	0.000163
H48	H	2.005306	-0.174025	-0.220007
H49	H	1.774326	-0.255540	-0.220045
C50	C	1.663510	0.005877	0.339092
C51	C	1.748246	-0.071004	0.423427
C52	C	1.832973	-0.147897	0.339100
C53	C	1.832963	-0.147909	0.170439
C54	C	1.748224	-0.071025	0.086095
C55	C	1.663498	0.005868	0.170421
H56	H	1.748255	-0.070998	0.548289
H57	H	1.895702	-0.204812	0.401539
H58	H	1.895683	-0.204831	0.108015
H59	H	1.748215	-0.071032	-0.038767
H60	H	1.600768	0.062783	0.107983
C61	C	1.203309	-0.349813	0.000077
C62	C	1.161723	-0.421062	0.126564
C63	C	1.028996	-0.467902	0.126555
C64	C	0.937854	-0.443492	0.000060
C65	C	0.979439	-0.372240	-0.126436
C66	C	1.112166	-0.325400	-0.126428
H67	H	1.229194	-0.439135	0.220212
H68	H	0.998213	-0.520648	0.220196
H69	H	0.839602	-0.478166	0.000053
H70	H	0.911968	-0.354167	-0.220084
H71	H	1.142949	-0.272654	-0.220069
H72	H	1.114209	0.326552	0.000056
C73	C	1.339996	0.299443	0.661093
C74	C	1.340089	0.299518	0.829754
C75	C	1.255362	0.376412	0.914081
C76	C	1.170542	0.453229	0.829746
C77	C	1.170446	0.453157	0.661075
C78	C	1.255173	0.376263	0.576749
H79	H	1.402880	0.242651	0.892192
H80	H	1.255434	0.376465	1.038942
H81	H	1.107823	0.510150	0.892169
H82	H	1.107655	0.510024	0.598637
H83	H	1.255101	0.376210	0.451887
H84	H	0.889286	-0.021225	0.000151
H85	H	1.641526	0.025854	0.639174
H86	H	1.127560	-0.016027	0.000107
H87	H	1.738013	-0.553393	0.000074
H88	H	1.327904	-0.511544	0.000061
H89	H	1.265497	-0.141269	0.000105
H90	H	1.361964	0.279461	0.361005
