data_functionalizedCrystal
_audit_creation_method	'MofGen! by Chris Wilmer'
_symmetry_space_group_name_H-M	'P1'
_symmetry_Int_Tables_number	1
_symmetry_cell_setting	triclinic
loop_
_symmetry_equiv_pos_as_xyz
  x,y,z
_cell_length_a	19.288862
_cell_length_b	16.992697
_cell_length_c	17.766277
_cell_angle_alpha	90.000788
_cell_angle_beta	89.987962
_cell_angle_gamma	86.901868
loop_
_atom_site_label
_atom_site_type_symbol
_atom_site_fract_x
_atom_site_fract_y
_atom_site_fract_z
O1	O	-0.147253	-1.039871	0.062506
O2	O	0.352747	-0.539871	0.562506
O3	O	-0.145638	-0.811591	0.062532
O4	O	0.354362	-0.311591	0.562532
O5	O	-0.045700	-0.932328	0.062499
O6	O	0.454300	-0.432328	0.562499
O7	O	-0.247191	-0.919134	0.062539
O8	O	0.252809	-0.419134	0.562539
O9	O	-0.045696	-0.932315	-0.062689
O10	O	0.454304	-0.432315	0.437311
O11	O	-0.145634	-0.811578	-0.062657
O12	O	0.354366	-0.311578	0.437343
O13	O	-0.147250	-1.039858	-0.062682
O14	O	0.352750	-0.539858	0.437318
Cu15	Cu	-0.146442	-0.925717	-0.074100
Cu16	Cu	0.353558	-0.425717	0.425900
Cu17	Cu	-0.146446	-0.925732	0.073950
Cu18	Cu	0.353554	-0.425732	0.573950
O19	O	-0.247188	-0.919121	-0.062650
O20	O	0.252812	-0.419121	0.437350
C21	C	-0.143558	-0.782380	-0.000060
C22	C	0.356442	-0.282380	0.499940
C23	C	-0.137357	-0.695357	-0.000051
C24	C	0.362643	-0.195357	0.499949
C25	C	-0.197185	-0.644905	-0.000039
C26	C	0.302815	-0.144905	0.499961
C27	C	-0.191354	-0.563139	-0.000050
C28	C	0.308646	-0.063139	0.499950
C29	C	-0.125695	-0.531827	-0.000066
C30	C	0.374305	-0.031827	0.499934
C31	C	-0.065863	-0.582286	-0.000081
C32	C	0.434137	-0.082286	0.499919
C33	C	-0.071694	-0.664050	-0.000076
C34	C	0.428306	-0.164050	0.499924
C35	C	-0.101528	-0.288315	-0.000088
C36	C	0.398472	0.211685	0.499912
C37	C	-0.095701	-0.206544	-0.000091
C38	C	0.404299	0.293456	0.499909
C39	C	-0.221194	-0.187403	-0.000061
C40	C	0.278806	0.312597	0.499939
C41	C	-0.227019	-0.269170	-0.000051
C42	C	0.272981	0.230830	0.499949
C43	C	-0.167186	-0.319621	-0.000070
C44	C	0.332814	0.180379	0.499930
N45	N	-0.119734	-0.448249	-0.000075
N46	N	0.380266	0.051751	0.499925
N47	N	-0.173148	-0.403198	-0.000067
N48	N	0.326852	0.096802	0.499933
C49	C	-0.019797	-0.931897	-0.000099
C50	C	0.480203	-0.431897	0.499901
C51	C	0.057381	-0.930624	-0.000108
C52	C	0.557381	-0.430624	0.499892
C53	C	0.097949	-1.001467	-0.000122
C54	C	0.597949	-0.501467	0.499878
C55	C	0.170466	-1.000270	-0.000113
C56	C	0.670466	-0.500270	0.499887
C57	C	0.202412	-0.928227	-0.000106
C58	C	0.702412	-0.428227	0.499894
C59	C	0.161835	-0.857375	-0.000088
C60	C	0.661835	-0.357375	0.499912
C61	C	0.089320	-0.858573	-0.000089
C62	C	0.589320	-0.358573	0.499911
C63	C	0.314001	-0.871589	-0.043955
C64	C	0.814001	-0.371589	0.456045
C65	C	0.386516	-0.870393	-0.043958
C66	C	0.886516	-0.370393	0.456042
C67	C	0.426073	-0.924528	-0.000098
C68	C	0.926073	-0.424528	0.499902
C69	C	0.393109	-0.979871	0.043756
C70	C	0.893109	-0.479871	0.543756
C71	C	0.320593	-0.981069	0.043755
C72	C	0.820593	-0.481069	0.543755
C73	C	0.281042	-0.926920	-0.000104
C74	C	0.781042	-0.426920	0.499896
C75	C	0.545272	-0.994078	-0.000100
C76	C	1.045272	-0.494078	0.499900
C77	C	0.617790	-0.992879	-0.000087
C78	C	1.117790	-0.492879	0.499913
C79	C	0.609158	-0.849981	-0.000070
C80	C	1.109158	-0.349981	0.499930
C81	C	0.536642	-0.851183	-0.000076
C82	C	1.036642	-0.351183	0.499924
C83	C	0.504703	-0.923233	-0.000095
C84	C	1.004703	-0.423233	0.499905
C85	C	0.726909	-0.919554	-0.000061
C86	C	1.226909	-0.419554	0.499939
C87	C	0.649732	-0.920835	-0.000078
C88	C	1.149732	-0.420835	0.499922
N89	N	-0.146439	-0.925711	-0.178231
N90	N	0.353561	-0.425711	0.321769
C91	C	-0.149330	-0.069070	-0.000086
C92	C	0.350670	0.430930	0.499914
C93	C	-0.155529	-0.156092	-0.000079
C94	C	0.344471	0.343908	0.499921
C95	C	-0.102204	-0.979207	-0.782534
C96	C	0.397796	-0.479207	-0.282534
C97	C	-0.102206	-0.979209	-0.703732
C98	C	0.397794	-0.479209	-0.203732
C99	C	-0.146440	-0.925733	-0.664319
C100	C	0.353560	-0.425733	-0.164319
C101	C	-0.190688	-0.872265	-0.703715
C102	C	0.309312	-0.372265	-0.203715
C103	C	-0.190690	-0.872271	-0.782515
C104	C	0.309310	-0.372271	-0.282515
C105	C	-0.151546	-0.854299	-0.539479
C106	C	0.348454	-0.354299	-0.039479
C107	C	-0.151539	-0.854292	-0.460680
C108	C	0.348461	-0.354292	0.039320
C109	C	-0.146437	-0.925716	-0.421273
C110	C	0.353563	-0.425716	0.078727
C111	C	-0.141328	-0.997149	-0.460675
C112	C	0.358672	-0.497149	0.039325
C113	C	-0.141330	-0.997155	-0.539475
C114	C	0.358670	-0.497155	-0.039475
C115	C	-0.146443	-0.925721	-0.578874
C116	C	0.353557	-0.425721	-0.078874
C117	C	-0.102197	-0.979185	-0.296441
C118	C	0.397803	-0.479185	0.203559
C119	C	-0.102204	-0.979187	-0.217638
C120	C	0.397796	-0.479187	0.282362
C121	C	-0.190682	-0.872237	-0.217622
C122	C	0.309318	-0.372237	0.282378
C123	C	-0.190679	-0.872241	-0.296424
C124	C	0.309321	-0.372241	0.203576
C125	C	-0.146433	-0.925715	-0.335829
C126	C	0.353567	-0.425715	0.164171
N127	N	-0.146444	-0.925744	0.178080
N128	N	0.353556	-0.425744	0.678080
H129	H	-0.269906	-0.146317	-0.000048
H130	H	0.230094	0.353683	0.499952
H131	H	-0.155704	-0.796133	-0.571557
H132	H	0.344296	-0.296133	-0.071557
C133	C	0.176800	-0.735224	0.064285
C134	C	0.676800	-0.235224	0.564285
C135	C	0.196949	-0.778184	-0.000079
C136	C	0.696949	-0.278184	0.499921
H137	H	0.198482	-0.686336	0.064294
H138	H	0.698482	-0.186336	0.564294
H139	H	0.127813	-0.725799	0.064281
H140	H	0.627813	-0.225799	0.564281
H141	H	0.190453	-0.764400	0.107930
H142	H	0.690453	-0.264400	0.607930
H143	H	0.183292	-0.749011	-0.043724
H144	H	0.683292	-0.249011	0.456276
H145	H	0.245948	-0.787607	-0.000082
H146	H	0.745948	-0.287607	0.499918
H147	H	0.071949	-1.060136	-0.000134
H148	H	0.571949	-0.560136	0.499866
C149	C	-0.223854	-0.736390	-0.320686
C150	C	0.276146	-0.236390	0.179314
C151	C	-0.239302	-0.813464	-0.339723
C152	C	0.260698	-0.313464	0.160277
H153	H	-0.253872	-0.700105	-0.347421
H154	H	0.246128	-0.200105	0.152579
H155	H	-0.230187	-0.728740	-0.268122
H156	H	0.269813	-0.228740	0.231878
H157	H	-0.177028	-0.728054	-0.333616
H158	H	0.322972	-0.228054	0.166384
H159	H	-0.286127	-0.821802	-0.326788
H160	H	0.213873	-0.321802	0.173212
H161	H	-0.232975	-0.821118	-0.392299
H162	H	0.267025	-0.321118	0.107701
C163	C	0.171721	-1.141638	-0.000149
C164	C	0.671721	-0.641638	0.499851
C165	C	0.215069	-1.078146	-0.000133
C166	C	0.715069	-0.578146	0.499867
H167	H	0.199257	-1.189714	-0.000167
H168	H	0.699257	-0.689714	0.499833
H169	H	0.143253	-1.139147	0.043505
H170	H	0.643253	-0.639147	0.543505
H171	H	0.143263	-1.139120	-0.043807
H172	H	0.643263	-0.639120	0.456193
H173	H	0.243524	-1.080661	0.043528
H174	H	0.743524	-0.580661	0.543528
H175	H	0.243549	-1.080639	-0.043792
H176	H	0.743549	-0.580639	0.456208
C177	C	0.418412	-1.029519	0.167832
C178	C	0.918412	-0.529519	0.667832
C179	C	0.436577	-1.039384	0.091974
C180	C	0.936577	-0.539384	0.591974
H181	H	0.445246	-1.066264	0.197596
H182	H	0.945246	-0.566264	0.697596
H183	H	0.427165	-0.977465	0.183256
H184	H	0.927165	-0.477465	0.683256
H185	H	0.370505	-1.038152	0.174092
H186	H	0.870505	-0.538152	0.674092
H187	H	0.484483	-1.030746	0.085713
H188	H	0.984483	-0.530746	0.585713
H189	H	0.427830	-1.091450	0.076546
H190	H	0.927830	-0.591450	0.576546
C191	C	-0.014734	-1.084909	-0.711654
C192	C	0.485266	-0.584909	-0.211654
C193	C	-0.053569	-1.037974	-0.660426
C194	C	0.446431	-0.537974	-0.160426
H195	H	0.015295	-1.121183	-0.684919
H196	H	0.515295	-0.621183	-0.184919
H197	H	-0.045216	-1.113013	-0.742375
H198	H	0.454784	-0.613013	-0.242375
H199	H	0.012067	-1.052359	-0.742402
H200	H	0.512067	-0.552359	-0.242402
H201	H	-0.080374	-1.070524	-0.629682
H202	H	0.419626	-0.570524	-0.129682
H203	H	-0.023083	-1.009868	-0.629692
H204	H	0.476917	-0.509868	-0.129692
H205	H	-0.042231	-0.181054	-0.000104
H206	H	0.457769	0.318946	0.499896
H207	H	-0.137172	-1.055318	-0.571553
H208	H	0.362828	-0.555318	-0.071553
C209	C	0.231252	-0.852725	-0.144154
C210	C	0.731252	-0.352725	0.355846
C211	C	0.270525	-0.812078	-0.092171
C212	C	0.770525	-0.312078	0.407829
H213	H	0.204410	-0.815984	-0.173915
H214	H	0.704410	-0.315984	0.326085
H215	H	0.261459	-0.883901	-0.175771
H216	H	0.761459	-0.383901	0.324229
H217	H	0.201244	-0.885847	-0.118026
H218	H	0.701244	-0.385847	0.381974
H219	H	0.300537	-0.778960	-0.118299
H220	H	0.800537	-0.278960	0.381701
H221	H	0.240314	-0.780888	-0.060550
H222	H	0.740314	-0.280888	0.439450
C223	C	0.704368	-1.074413	-0.064446
C224	C	1.204368	-0.574413	0.435554
C225	C	0.662389	-1.070753	-0.000097
C226	C	1.162389	-0.570753	0.499903
H227	H	0.731905	-1.122488	-0.064447
H228	H	1.231905	-0.622488	0.435553
H229	H	0.675911	-1.071909	-0.108096
H230	H	1.175911	-0.571909	0.391904
H231	H	0.733765	-1.031329	-0.064426
H232	H	1.233765	-0.531329	0.435574
H233	H	0.632988	-1.113834	-0.000119
H234	H	1.132988	-0.613834	0.499881
H235	H	0.690849	-1.073264	0.043565
H236	H	1.190849	-0.573264	0.543565
H237	H	0.519267	-1.052746	-0.000112
H238	H	1.019267	-0.552746	0.499888
C239	C	-0.306381	-0.350053	-0.064348
C240	C	0.193619	0.149947	0.435652
C241	C	-0.299187	-0.303603	-0.000010
C242	C	0.200813	0.196397	0.499990
H243	H	-0.350932	-0.371318	-0.064308
H244	H	0.149068	0.128682	0.435692
H245	H	-0.301526	-0.318561	-0.108006
H246	H	0.198474	0.181439	0.391994
H247	H	-0.271570	-0.391790	-0.064353
H248	H	0.228430	0.108210	0.435647
H249	H	-0.333995	-0.261863	-0.000008
H250	H	0.166005	0.238137	0.499992
H251	H	-0.304048	-0.335096	0.043659
H252	H	0.195952	0.164904	0.543659
C253	C	-0.257594	-0.460080	0.064323
C254	C	0.242406	0.039920	0.564323
C255	C	-0.257121	-0.507683	-0.000028
C256	C	0.242879	-0.007683	0.499972
H257	H	-0.298196	-0.425842	0.064333
H258	H	0.201804	0.074158	0.564333
H259	H	-0.257257	-0.492374	0.107972
H260	H	0.242743	0.007626	0.607972
H261	H	-0.217655	-0.429732	0.064299
H262	H	0.282345	0.070268	0.564299
H263	H	-0.297058	-0.538036	-0.000001
H264	H	0.202942	-0.038036	0.499999
H265	H	-0.257465	-0.475386	-0.043688
H266	H	0.242535	0.024614	0.456312
C267	C	0.002777	-0.777019	-0.064434
C268	C	0.502777	-0.277019	0.435566
C269	C	0.044721	-0.780699	-0.000079
C270	C	0.544721	-0.280699	0.499921
H271	H	-0.024761	-0.728944	-0.064424
H272	H	0.475239	-0.228944	0.435576
H273	H	0.031256	-0.779510	-0.108080
H274	H	0.531256	-0.279510	0.391920
H275	H	-0.026621	-0.820103	-0.064435
H276	H	0.473379	-0.320103	0.435565
H277	H	0.074122	-0.737618	-0.000081
H278	H	0.574122	-0.237618	0.499919
H279	H	0.016238	-0.778201	0.043579
H280	H	0.516238	-0.278201	0.543579
C281	C	0.023100	-0.299010	-0.000112
C282	C	0.523100	0.200990	0.499888
C283	C	-0.035760	-0.343764	-0.000102
C284	C	0.464240	0.156236	0.499898
H285	H	0.063703	-0.333247	-0.000116
H286	H	0.563703	0.166753	0.499884
H287	H	0.022762	-0.266724	-0.043766
H288	H	0.522762	0.233276	0.456234
H289	H	0.022756	-0.266718	0.043547
H290	H	0.522756	0.233282	0.543547
H291	H	-0.035419	-0.376053	-0.043764
H292	H	0.464581	0.123947	0.456236
H293	H	-0.035422	-0.376065	0.043556
H294	H	0.464578	0.123935	0.543556
H295	H	-0.012401	-0.556785	-0.000105
H296	H	0.487599	-0.056785	0.499895
C297	C	0.033469	-0.705547	0.064264
C298	C	0.533469	-0.205547	0.564264
C299	C	-0.005930	-0.719514	-0.000083
C300	C	0.494070	-0.219514	0.499917
H301	H	0.074067	-0.739792	0.064258
H302	H	0.574067	-0.239792	0.564258
H303	H	0.046339	-0.652378	0.064254
H304	H	0.546339	-0.152378	0.564254
H305	H	0.006724	-0.715013	0.107921
H306	H	0.506724	-0.215013	0.607921
H307	H	0.020813	-0.710042	-0.043740
H308	H	0.520813	-0.210042	0.456260
H309	H	-0.018799	-0.772695	-0.000079
H310	H	0.481201	-0.272695	0.499921
H311	H	-0.066178	-1.022750	-0.814615
H312	H	0.433822	-0.522750	-0.314615
C313	C	-0.191812	-1.120737	-0.436452
C314	C	0.308188	-0.620737	0.063548
C315	C	-0.135732	-1.075680	-0.417391
C316	C	0.364268	-0.575680	0.082609
H317	H	-0.188355	-1.169222	-0.409736
H318	H	0.311645	-0.669222	0.090264
H319	H	-0.234035	-1.092624	-0.423520
H320	H	0.265965	-0.592624	0.076480
H321	H	-0.191070	-1.130933	-0.489026
H322	H	0.308930	-0.630933	0.010974
H323	H	-0.136477	-1.065479	-0.364817
H324	H	0.363523	-0.565479	0.135183
H325	H	-0.093498	-1.103798	-0.430318
H326	H	0.406502	-0.603798	0.069682
H327	H	0.635168	-0.791322	-0.000060
H328	H	1.135168	-0.291322	0.499940
H329	H	-0.066171	-1.022729	-0.328525
H330	H	0.433829	-0.522729	0.171475
H331	H	-0.250652	-0.670392	-0.000025
H332	H	0.249348	-0.170392	0.499975
H333	H	-0.066181	-1.022728	-0.185569
H334	H	0.433819	-0.522728	0.314431
H335	H	-0.226701	-0.828699	-0.185533
H336	H	0.273299	-0.328699	0.314467
C337	C	0.535396	-0.709819	-0.000070
C338	C	1.035396	-0.209819	0.499930
C339	C	0.492045	-0.773309	-0.000075
C340	C	0.992045	-0.273309	0.499925
H341	H	0.507863	-0.661742	-0.000073
H342	H	1.007863	-0.161742	0.499927
H343	H	0.563847	-0.712326	0.043585
H344	H	1.063847	-0.212326	0.543585
H345	H	0.563872	-0.712327	-0.043727
H346	H	1.063872	-0.212327	0.456273
H347	H	0.463573	-0.770804	0.043586
H348	H	0.963573	-0.270804	0.543586
H349	H	0.463582	-0.770801	-0.043734
H350	H	0.963582	-0.270801	0.456266
C351	C	0.400597	-0.733409	-0.069399
C352	C	0.900597	-0.233409	0.430601
C353	C	0.422745	-0.809560	-0.092160
C354	C	0.922745	-0.309560	0.407840
H355	H	0.422965	-0.695852	-0.099155
H356	H	0.922965	-0.195852	0.400845
H357	H	0.351755	-0.726381	-0.075676
H358	H	0.851755	-0.226381	0.424324
H359	H	0.412062	-0.726345	-0.017930
H360	H	0.912062	-0.226345	0.482070
H361	H	0.411275	-0.816625	-0.143627
H362	H	0.911275	-0.316625	0.356373
H363	H	0.471598	-0.816591	-0.085890
H364	H	0.971598	-0.316591	0.414110
C365	C	-0.161648	-0.713085	-0.468600
C366	C	0.338352	-0.213085	0.031400
C367	C	-0.157156	-0.775775	-0.417374
C368	C	0.342844	-0.275775	0.082626
H369	H	-0.165120	-0.664612	-0.441864
H370	H	0.334880	-0.164612	0.058136
H371	H	-0.121304	-0.714814	-0.499345
H372	H	0.378696	-0.214814	0.000655
H373	H	-0.201575	-0.717309	-0.499325
H374	H	0.298425	-0.217309	0.000675
H375	H	-0.117226	-0.771554	-0.386653
H376	H	0.382774	-0.271554	0.113347
H377	H	-0.197505	-0.774044	-0.386616
H378	H	0.302495	-0.274044	0.113384
C379	C	-0.284236	-0.854909	-0.615068
C380	C	0.215764	-0.354909	-0.115068
C381	C	-0.239309	-0.813483	-0.660395
C382	C	0.260691	-0.313483	-0.160395
H383	H	-0.314253	-0.818619	-0.588322
H384	H	0.185747	-0.318619	-0.088322
H385	H	-0.311043	-0.887446	-0.645799
H386	H	0.188957	-0.387446	-0.145799
H387	H	-0.257880	-0.886749	-0.580334
H388	H	0.242120	-0.386749	-0.080334
H389	H	-0.265666	-0.781648	-0.695133
H390	H	0.234334	-0.281648	-0.195133
H391	H	-0.212500	-0.780932	-0.629661
H392	H	0.287500	-0.280932	-0.129661
H393	H	0.293757	-1.026130	0.079463
H394	H	0.793757	-0.526130	0.579463
C395	C	-0.278144	-0.766554	-0.774583
C396	C	0.221856	-0.266554	-0.274583
C397	C	-0.239315	-0.813493	-0.825814
C398	C	0.260685	-0.313493	-0.325814
H399	H	-0.308159	-0.730263	-0.801317
H400	H	0.191841	-0.230263	-0.301317
H401	H	-0.304952	-0.799093	-0.743845
H402	H	0.195048	-0.299093	-0.243845
H403	H	-0.247651	-0.738461	-0.743853
H404	H	0.252349	-0.238461	-0.243853
H405	H	-0.269808	-0.841590	-0.856541
H406	H	0.230192	-0.341590	-0.356541
H407	H	-0.212505	-0.780949	-0.856565
H408	H	0.287495	-0.280949	-0.356565
