data_functionalizedCrystal
_audit_creation_method	'MofGen! by Chris Wilmer'
_symmetry_space_group_name_H-M	'P1'
_symmetry_Int_Tables_number	1
_symmetry_cell_setting	triclinic
loop_
_symmetry_equiv_pos_as_xyz
  x,y,z
_cell_length_a	14.809374
_cell_length_b	20.875492
_cell_length_c	14.809374
_cell_angle_alpha	53.079951
_cell_angle_beta	72.095563
_cell_angle_gamma	53.089510
loop_
_atom_site_label
_atom_site_type_symbol
_atom_site_fract_x
_atom_site_fract_y
_atom_site_fract_z
Zr1	Zr	0.875086	0.740638	-0.312783
O2	O	0.739972	0.881800	-0.447936
O3	O	0.922760	0.599476	-0.265071
O4	O	0.944548	0.740638	-0.469686
O5	O	0.693883	0.740638	-0.089062
O6	O	1.098807	0.740638	-0.493986
O7	O	0.718184	0.740638	-0.243322
O8	O	1.059833	0.488125	-0.127968
O9	O	0.732858	0.993151	-0.455080
O10	O	1.050659	0.657538	-0.270446
O11	O	0.917402	0.657538	-0.137188
O12	O	0.943054	0.823738	-0.378096
O13	O	0.809797	0.823738	-0.244838
Zr14	Zr	1.082356	0.740638	-0.105514
Zr15	Zr	1.121113	0.740638	-0.351540
Zr16	Zr	0.836330	0.740638	-0.066757
Zr17	Zr	0.863741	0.918230	-0.324177
Zr18	Zr	1.093702	0.563046	-0.094120
O19	O	1.034683	0.881800	-0.153226
O20	O	1.089789	0.881800	-0.503043
O21	O	0.684865	0.881800	-0.098119
O22	O	1.217471	0.599476	0.029639
O23	O	1.272577	0.599476	-0.320178
O24	O	0.867653	0.599476	0.084746
O25	O	1.263559	0.740638	-0.329235
O26	O	1.012895	0.740638	0.051389
O27	O	0.858635	0.740638	0.075689
O28	O	1.239259	0.740638	-0.174975
O29	O	0.928416	0.993151	-0.485886
O30	O	1.029027	0.488125	0.067589
O31	O	1.224585	0.488125	0.036783
O32	O	1.255391	0.488125	-0.158775
O33	O	0.702052	0.993151	-0.259522
O34	O	0.897610	0.993151	-0.290329
O35	O	1.014389	0.657538	-0.040201
O36	O	1.147646	0.657538	-0.173459
O37	O	1.040041	0.823738	-0.281109
O38	O	0.906784	0.823738	-0.147851
C39	C	0.992913	0.518497	-0.194897
C40	C	0.997729	0.443105	-0.190060
C41	C	0.924476	0.469051	-0.263337
C42	C	0.929010	0.398225	-0.258834
C43	C	1.006794	0.301453	-0.181047
C44	C	1.080055	0.275507	-0.107766
C45	C	1.075525	0.346332	-0.112276
C46	C	1.028445	0.083051	-0.159466
C47	C	1.032967	0.012225	-0.154960
C48	C	0.881923	0.134948	-0.306030
C49	C	0.877395	0.205769	-0.310528
C50	C	0.950660	0.179817	-0.237251
N51	N	1.011428	0.229056	-0.176440
N52	N	0.946031	0.252214	-0.241865
C53	C	0.670980	0.740638	-0.160670
C54	C	0.566536	0.740638	-0.144217
C55	C	0.532694	0.740638	-0.217645
C56	C	0.424745	0.740638	-0.200642
C57	C	1.286462	0.740638	-0.257627
C58	C	1.390907	0.740638	-0.274080
C59	C	1.027200	0.740638	-0.516890
C60	C	1.043653	0.740638	-0.621334
C61	C	0.964530	0.962779	-0.223400
C62	C	0.959713	1.038171	-0.228237
C63	C	0.970225	0.740638	-0.655176
C64	C	0.987228	0.740638	-0.763125
C65	C	0.930243	0.740638	0.098593
C66	C	0.913790	0.740638	0.203037
C67	C	1.300654	0.518497	-0.243375
C68	C	1.409915	0.443105	-0.254991
C69	C	0.944434	0.518497	0.112845
C70	C	0.932798	0.443105	0.222126
C71	C	1.252176	0.518497	0.064366
C72	C	1.344984	0.443105	0.157195
C73	C	0.705267	0.962779	-0.482663
C74	C	0.612459	1.038171	-0.575492
C75	C	0.656789	0.962779	-0.174922
C76	C	0.547528	1.038171	-0.163306
C77	C	1.013008	0.962779	-0.531142
C78	C	1.024645	1.038171	-0.640423
C79	C	1.410601	0.407699	-0.311083
C80	C	1.513257	0.336870	-0.322019
C81	C	1.615225	0.301442	-0.276857
C82	C	1.614536	0.336854	-0.220763
C83	C	1.511882	0.407687	-0.209835
C84	C	0.977958	0.407700	0.324082
C85	C	0.967017	0.336870	0.426773
C86	C	0.910924	0.301442	0.427505
C87	C	0.865758	0.336854	0.325538
C88	C	0.876692	0.407687	0.222850
C89	C	1.458136	0.407699	0.131227
C90	C	1.545350	0.336870	0.218438
C91	C	1.519408	0.301442	0.331615
C92	C	1.406243	0.336854	0.357582
C93	C	1.319032	0.407687	0.270372
C94	C	0.499306	1.073585	-0.549525
C95	C	0.412091	1.144437	-0.636737
C96	C	0.438033	1.179868	-0.749914
C97	C	0.551197	1.144452	-0.775881
C98	C	0.638409	1.073606	-0.688670
C99	C	0.546843	1.073584	-0.107225
C100	C	0.444190	1.144433	-0.096317
C101	C	0.342222	1.179864	-0.141483
C102	C	0.342910	1.144448	-0.197571
C103	C	0.445563	1.073605	-0.208486
C104	C	1.080746	1.073577	-0.641118
C105	C	1.091701	1.144407	-0.743793
C106	C	1.046548	1.179835	-0.845771
C107	C	0.990445	1.144422	-0.845073
C108	C	0.979497	1.073589	-0.742400
H109	H	0.861122	0.547845	-0.326667
Br110	Br	0.815400	0.455725	0.084486
Br111	Br	0.771816	0.337101	-0.416088
H112	H	1.003803	0.308046	0.509788
Br113	Br	0.339854	0.740627	-0.074864
Br114	Br	0.782497	0.170161	-0.405472
Br115	Br	1.493374	0.455770	-0.022363
Br116	Br	1.754533	0.205310	-0.291699
Br117	Br	1.510972	0.455724	-0.133697
Br118	Br	0.789634	0.288763	0.326550
H119	H	0.730543	1.044773	-0.709826
H120	H	1.637487	0.308045	0.197275
Br121	Br	0.903344	1.025555	-0.741476
H122	H	0.869359	0.419360	-0.318504
Br123	Br	1.112991	0.740649	-0.848031
H124	H	0.902029	0.243766	0.511128
H125	H	1.385137	0.307998	0.449742
H126	H	1.055469	1.237512	-0.929366
Br127	Br	1.637780	0.205310	0.449960
Br128	Br	0.202916	1.276009	-0.126660
Br129	Br	0.319659	1.276017	-0.868261
H130	H	1.096309	-0.066575	-0.091611
Br131	Br	0.475813	0.740627	-0.399843
Br132	Br	1.165469	0.455725	0.305634
H133	H	0.478162	1.044741	-0.457376
Br134	Br	1.174954	0.311117	-0.012832
Br135	Br	0.788012	0.740649	-0.712072
H136	H	0.319955	1.173261	-0.615572
Br137	Br	1.127868	0.047822	-0.060009
Br138	Br	1.514163	0.288824	-0.398145
Br139	Br	1.185626	0.144173	-0.002202
Br140	Br	0.685214	1.025519	-0.045921
H141	H	1.327585	0.436544	-0.347876
Br142	Br	1.169410	0.740649	-0.706243
Br143	Br	0.586385	1.192546	-0.929486
Br144	Br	1.752932	0.288760	-0.159473
H145	H	1.023634	0.436537	0.323508
H146	H	0.443652	1.173256	-0.050641
H147	H	0.259874	1.173306	-0.234343
Br148	Br	1.142035	1.025512	-0.502734
H149	H	0.515596	0.740633	-0.068761
H150	H	0.583639	0.740633	-0.293095
H151	H	0.953684	1.173279	-0.928118
Br152	Br	0.446471	1.025549	-0.284595
Br153	Br	1.167837	1.192455	-0.744713
Br154	Br	0.844451	0.740649	-0.570285
