data_functionalizedCrystal
_audit_creation_method	'MofGen! by Chris Wilmer'
_symmetry_space_group_name_H-M	'P1'
_symmetry_Int_Tables_number	1
_symmetry_cell_setting	triclinic
loop_
_symmetry_equiv_pos_as_xyz
  x,y,z
_cell_length_a	14.853567
_cell_length_b	23.532407
_cell_length_c	13.330367
_cell_angle_alpha	89.990692
_cell_angle_beta	89.995418
_cell_angle_gamma	83.241804
loop_
_atom_site_label
_atom_site_type_symbol
_atom_site_fract_x
_atom_site_fract_y
_atom_site_fract_z
O1	O	1.195556	0.074353	-0.083365
O2	O	0.932999	0.083210	-0.083383
O3	O	1.072195	-0.004116	-0.083355
O4	O	1.056360	0.161678	-0.083393
O5	O	1.072175	-0.004118	0.083492
O6	O	0.932979	0.083208	0.083464
O7	O	1.195536	0.074351	0.083482
Cu8	Cu	1.064255	0.078779	0.098707
Cu9	Cu	1.064279	0.078782	-0.098609
O10	O	1.056340	0.161677	0.083454
C11	C	0.899405	0.082808	0.000038
C12	C	0.799334	0.081605	0.000032
C13	C	0.387423	0.024648	0.000067
C14	C	0.365008	0.128393	0.000043
C15	C	0.459029	0.129524	0.000039
C16	C	0.517252	0.078216	0.000048
C17	C	0.481454	0.025777	0.000061
C18	C	0.494835	0.181961	0.000016
C19	C	0.588861	0.183094	0.000012
C20	C	0.647086	0.131786	0.000028
C21	C	0.611283	0.079345	0.000042
C22	C	0.669506	0.028037	0.000051
C23	C	0.633704	-0.024404	0.000072
C24	C	0.539679	-0.025531	0.000077
C25	C	0.741111	0.132913	0.000023
C26	C	0.763536	0.029166	0.000044
C27	C	1.071782	-0.025335	0.000071
C28	C	1.070569	-0.088557	0.000078
C29	C	1.145338	-0.487334	0.000029
C30	C	1.144212	-0.546739	0.000021
O31	O	1.213524	-0.583181	-0.000011
N32	N	1.061460	-0.569726	0.000016
C33	C	0.979829	-0.533305	0.000008
O34	O	0.909339	-0.558312	0.000002
C35	C	0.980957	-0.473901	0.000009
C36	C	1.063714	-0.450917	0.000024
C37	C	1.228089	-0.464349	0.000043
C38	C	1.229214	-0.404948	0.000052
C39	C	1.147590	-0.368531	0.000048
C40	C	1.064839	-0.391516	0.000034
C41	C	0.899327	-0.437481	-0.000006
C42	C	0.900461	-0.378073	-0.000006
C43	C	0.983218	-0.355089	0.000009
C44	C	0.984341	-0.295698	0.000039
N45	N	1.067092	-0.272711	0.000044
C46	C	1.148717	-0.309128	0.000048
C47	C	0.977469	-0.658058	0.000005
C48	C	0.976340	-0.717461	0.000012
C49	C	1.140723	-0.730890	0.000023
C50	C	1.141851	-0.671486	0.000023
C51	C	1.060220	-0.635070	0.000011
C52	C	1.151075	-0.184380	0.000069
C53	C	1.152194	-0.124974	0.000083
C54	C	0.987811	-0.111549	0.000067
C55	C	0.986692	-0.170951	0.000058
C56	C	1.068331	-0.207365	0.000056
O57	O	0.915065	-0.259221	0.000067
O58	O	1.219196	-0.284112	0.000041
C59	C	1.229130	0.074753	0.000058
C60	C	1.329200	0.075956	0.000058
C61	C	1.056753	0.182895	0.000026
C62	C	1.057966	0.246118	0.000011
N63	N	1.064245	0.078777	0.237489
N64	N	1.064296	0.078779	-0.237390
C65	C	1.002641	0.117434	0.710099
C66	C	1.125942	0.040124	0.710092
C67	C	1.125932	0.040123	0.605074
C68	C	1.064276	0.078778	0.552563
C69	C	1.002631	0.117435	0.605071
C70	C	1.187582	0.001470	0.552558
C71	C	1.187575	0.001467	0.447533
C72	C	1.125914	0.040120	0.395021
C73	C	1.064266	0.078778	0.447535
C74	C	1.002610	0.117434	0.395025
C75	C	0.940957	0.156089	0.447537
C76	C	0.940970	0.156088	0.552559
C77	C	1.125901	0.040122	0.289999
C78	C	1.002600	0.117434	0.289997
H79	H	1.219587	-0.106264	0.000098
C80	C	0.935601	0.159425	0.766924
C81	C	0.881591	0.193266	0.698455
C82	C	0.819814	0.231948	0.750765
H83	H	0.967706	0.183226	0.807889
H84	H	0.898213	0.138906	0.807879
H85	H	0.918974	0.213784	0.657517
H86	H	0.849467	0.169482	0.657487
H87	H	0.782426	0.211429	0.791720
H88	H	0.851927	0.255745	0.791729
H89	H	0.783156	0.254910	0.704317
H90	H	0.618003	0.225795	-0.000005
C91	C	1.192827	-0.001936	0.766978
C92	C	1.178713	-0.057914	0.741436
C93	C	1.240315	-0.096679	0.793816
H94	H	1.184064	0.003523	0.837060
H95	H	1.252957	0.004277	0.749738
H96	H	1.118597	-0.064125	0.758684
H97	H	1.187483	-0.063391	0.671363
H98	H	1.300446	-0.090466	0.776576
H99	H	1.231547	-0.091215	0.863896
H100	H	1.230753	-0.134665	0.776487
C101	C	1.254400	-0.040657	0.390702
C102	C	1.240162	-0.096596	0.416405
C103	C	1.301692	-0.135445	0.364116
H104	H	1.314551	-0.034499	0.407891
H105	H	1.245632	-0.035227	0.320600
H106	H	1.248936	-0.102023	0.486491
H107	H	1.180022	-0.102772	0.399214
H108	H	1.292925	-0.130015	0.294015
H109	H	1.361840	-0.129282	0.381309
H110	H	1.292034	-0.173404	0.381541
C111	C	0.896868	-0.195938	0.000257
C112	C	0.891392	-0.229653	0.086098
C113	C	0.808653	-0.252669	0.086311
H114	H	0.892928	-0.218861	-0.057866
H115	H	0.848393	-0.165754	0.000314
H116	H	0.939854	-0.259833	0.086032
H117	H	0.895317	-0.206743	0.144234
H118	H	0.760178	-0.222484	0.086368
H119	H	0.804720	-0.275589	0.028185
H120	H	0.804923	-0.275542	0.144557
H121	H	1.176102	0.008652	0.247249
H122	H	1.217554	-0.214023	0.000064
C123	C	0.935760	0.159497	0.233043
C124	C	0.949889	0.215477	0.258557
C125	C	0.888343	0.254239	0.206102
H126	H	0.875613	0.153317	0.250223
H127	H	0.944587	0.154002	0.162964
H128	H	0.941055	0.220968	0.328620
H129	H	1.010024	0.221674	0.241375
H130	H	0.897169	0.248745	0.136024
H131	H	0.828199	0.248055	0.223286
H132	H	0.897926	0.292226	0.223399
C133	C	0.431514	0.237619	-0.000149
C134	C	0.376858	0.239991	-0.085967
C135	C	0.318501	0.291251	-0.086144
H136	H	0.466182	0.269060	-0.000215
H137	H	0.394318	0.239335	0.058010
H138	H	0.414049	0.238280	-0.144111
H139	H	0.342170	0.208561	-0.085919
H140	H	0.281306	0.292968	-0.027985
H141	H	0.353178	0.322688	-0.086207
H142	H	0.281405	0.292865	-0.144365
H143	H	1.296604	-0.386241	0.000061
C144	C	0.779808	0.189900	0.000049
C145	C	0.708694	0.234591	0.000059
C146	C	0.744305	0.287099	0.000097
H147	H	0.816011	0.192576	-0.058121
H148	H	0.815991	0.192530	0.058254
H149	H	0.672526	0.231963	-0.058140
H150	H	0.672485	0.231934	0.058224
H151	H	0.780488	0.289729	0.058302
H152	H	0.780507	0.289769	-0.058073
H153	H	0.696060	0.317428	0.000113
H154	H	1.294561	-0.493994	0.000043
H155	H	1.237785	-0.029999	0.595316
C156	C	0.696816	-0.080153	0.000233
C157	C	0.680704	-0.111732	0.086070
C158	C	0.738819	-0.163092	0.086245
H159	H	0.757971	-0.072048	0.000272
H160	H	0.685999	-0.101683	-0.057913
H161	H	0.691528	-0.090207	0.144201
H162	H	0.619560	-0.119852	0.086050
H163	H	0.728002	-0.184622	0.028099
H164	H	0.799971	-0.154982	0.086281
H165	H	0.727889	-0.184527	0.144479
C166	C	0.888737	-0.618617	0.000058
C167	C	0.816034	-0.651469	0.000081
C168	C	0.734283	-0.615160	0.000142
H169	H	0.885629	-0.595145	-0.058107
H170	H	0.885701	-0.595179	0.058267
H171	H	0.819069	-0.674897	-0.058121
H172	H	0.819112	-0.674940	0.058243
H173	H	0.731247	-0.591722	0.058350
H174	H	0.731185	-0.591690	-0.058025
H175	H	0.684945	-0.637445	0.000166
C176	C	0.809381	-0.462314	-0.000079
C177	C	0.738151	-0.417696	-0.000116
C178	C	0.655275	-0.440549	-0.000199
H179	H	0.805373	-0.485206	0.058084
H180	H	0.805482	-0.485183	-0.058290
H181	H	0.742048	-0.394836	0.058089
H182	H	0.742128	-0.394801	-0.058275
H183	H	0.651376	-0.463419	-0.058410
H184	H	0.651277	-0.463440	0.057965
H185	H	0.606936	-0.410280	-0.000233
C186	C	0.811858	-0.338508	-0.000224
C187	C	0.807703	-0.304012	-0.086072
C188	C	0.726093	-0.267564	-0.086311
H189	H	0.808781	-0.315009	0.057894
H190	H	0.762389	-0.360688	-0.000287
H191	H	0.857159	-0.281834	-0.085999
H192	H	0.810765	-0.327496	-0.144203
H193	H	0.676624	-0.289744	-0.086374
H194	H	0.723023	-0.244069	-0.028189
H195	H	0.723259	-0.244158	-0.144562
H196	H	0.810936	-0.012615	0.000056
H197	H	1.209239	-0.652777	0.000035
H198	H	0.510520	-0.068226	0.000118
C199	C	0.874122	0.198150	0.390572
C200	C	0.888248	0.254131	0.416080
C201	C	0.826709	0.292891	0.363611
H202	H	0.813972	0.191972	0.407745
H203	H	0.882957	0.192651	0.320496
H204	H	0.879406	0.259627	0.486141
H205	H	0.948385	0.260327	0.398906
H206	H	0.835544	0.287393	0.293534
H207	H	0.766563	0.286708	0.380787
H208	H	0.836290	0.330878	0.380903
H209	H	0.317597	0.170165	0.000027
C210	C	0.348682	-0.032327	-0.000070
C211	C	0.378335	-0.063352	-0.085892
C212	C	0.342674	-0.115842	-0.086047
H213	H	0.284349	-0.025735	-0.000117
H214	H	0.368726	-0.053487	0.058086
H215	H	0.358286	-0.042196	-0.144033
H216	H	0.442663	-0.069959	-0.085864
H217	H	0.362718	-0.137002	-0.027891
H218	H	0.278343	-0.109245	-0.086091
H219	H	0.362795	-0.136901	-0.144271
H220	H	1.207187	-0.760552	0.000023
H221	H	0.908951	-0.736168	0.000017
H222	H	0.921355	-0.081888	0.000067
H223	H	0.890775	0.187560	0.595321
