data_functionalizedCrystal
_audit_creation_method	'MofGen! by Chris Wilmer'
_symmetry_space_group_name_H-M	'P1'
_symmetry_Int_Tables_number	1
_symmetry_cell_setting	triclinic
loop_
_symmetry_equiv_pos_as_xyz
  x,y,z
_cell_length_a	18.878441
_cell_length_b	14.560438
_cell_length_c	14.560438
_cell_angle_alpha	90.000844
_cell_angle_beta	59.999585
_cell_angle_gamma	60.002360
loop_
_atom_site_label
_atom_site_type_symbol
_atom_site_fract_x
_atom_site_fract_y
_atom_site_fract_z
Zr1	Zr	0.775356	-0.120507	0.884739
O2	O	0.923129	-0.267148	0.738090
O3	O	0.627579	-0.075557	0.929697
O4	O	0.775354	-0.267154	0.929694
O5	O	0.775356	0.075587	0.738094
O6	O	0.775356	-0.267155	1.080832
O7	O	0.775354	-0.075551	0.738093
O8	O	0.511014	0.075576	1.080838
O9	O	1.039698	-0.267145	0.738088
O10	O	0.688364	-0.056384	1.061662
O11	O	0.688364	0.056410	0.948869
O12	O	0.862350	-0.169170	0.948865
O13	O	0.862350	-0.056377	0.836073
Zr14	Zr	0.775362	0.120539	1.125789
Zr15	Zr	0.775359	-0.120509	1.125787
Zr16	Zr	0.775359	0.120541	0.884741
Zr17	Zr	0.961270	-0.120502	0.884736
Zr18	Zr	0.589447	0.120533	1.125792
O19	O	0.923138	0.075589	1.080831
O20	O	0.923133	-0.267151	1.080829
O21	O	0.923133	0.075591	0.738092
O22	O	0.627588	0.267180	1.272438
O23	O	0.627584	-0.075560	1.272436
O24	O	0.627584	0.267182	0.929699
O25	O	0.775361	-0.075555	1.272434
O26	O	0.775363	0.267185	1.080835
O27	O	0.775361	0.267187	0.929696
O28	O	0.775363	0.075583	1.272435
O29	O	1.039701	-0.267146	0.929689
O30	O	0.511017	0.267178	1.080839
O31	O	0.511019	0.267176	1.272440
O32	O	0.511017	0.075575	1.272439
O33	O	1.039701	-0.075544	0.738089
O34	O	1.039703	-0.075545	0.929690
O35	O	0.688367	0.169202	1.061663
O36	O	0.688367	0.056408	1.174455
O37	O	0.862353	-0.056378	1.061659
O38	O	0.862353	0.056415	0.948867
C39	C	0.542808	0.000009	1.005268
C40	C	0.463882	0.000006	1.005269
C41	C	0.775355	0.000018	0.703750
C42	C	0.775353	0.000019	0.601418
C43	C	0.775363	0.301530	1.005266
C44	C	0.775364	0.403861	1.005266
C45	C	0.426803	-0.058872	1.064143
C46	C	0.352639	-0.058863	1.064147
C47	C	0.315560	0.000018	1.005270
C48	C	0.352643	0.058903	0.946395
C49	C	0.426800	0.058901	0.946398
C50	C	0.198076	0.058902	0.946390
C51	C	0.123914	0.058903	0.946385
C52	C	0.123914	-0.058862	1.064140
C53	C	0.198072	-0.058864	1.064143
C54	C	0.235151	0.000020	1.005265
C55	C	1.007909	0.000023	1.005260
C56	C	1.086835	0.000025	1.005259
C57	C	0.775355	-0.301499	1.005262
C58	C	0.775353	-0.403830	1.005262
C59	C	0.866181	0.393066	0.946389
C60	C	0.866176	0.489221	0.946384
C61	C	0.684529	0.606963	1.064141
C62	C	0.684535	0.510809	1.064139
C63	C	0.684536	0.058888	0.612219
C64	C	0.684541	0.058889	0.516064
C65	C	0.866188	-0.058858	0.398312
C66	C	0.866182	-0.058852	0.494466
C67	C	0.775363	0.000014	1.306778
C68	C	0.775364	0.000013	1.409110
C69	C	0.542812	0.000007	1.306782
C70	C	0.463888	0.000003	1.409115
C71	C	0.542812	0.301523	1.005269
C72	C	0.463888	0.403852	1.005271
C73	C	0.542816	0.301521	1.306784
C74	C	0.463893	0.403849	1.409117
C75	C	1.007902	-0.301489	0.703744
C76	C	1.086825	-0.403818	0.601411
C77	C	1.007906	0.000025	0.703746
C78	C	1.086830	0.000028	0.601413
C79	C	1.007906	-0.301492	1.005259
C80	C	1.086830	-0.403821	1.005257
C81	C	0.426822	-0.058884	1.398294
C82	C	0.352675	-0.058910	1.494437
C83	C	0.315589	-0.000040	1.601400
C84	C	0.352661	0.058849	1.612218
C85	C	0.426813	0.058868	1.516076
C86	C	0.426825	0.510793	1.064149
C87	C	0.352678	0.606951	1.064147
C88	C	0.315589	0.596166	1.005272
C89	C	0.352659	0.489213	0.946387
C90	C	0.426810	0.393058	0.946384
C91	C	0.426830	0.393026	1.516060
C92	C	0.352684	0.489165	1.612222
C93	C	0.315597	0.596126	1.601438
C94	C	0.352667	0.606946	1.494484
C95	C	0.426817	0.510809	1.398324
C96	C	1.123897	-0.392995	0.494468
C97	C	1.198066	-0.489134	0.398306
C98	C	1.235157	-0.596094	0.409090
C99	C	1.198081	-0.606915	0.516044
C100	C	1.123919	-0.510777	0.612204
C101	C	1.123903	0.058906	0.612234
C102	C	1.198071	0.058905	0.516091
C103	C	1.235159	0.000032	0.409128
C104	C	1.198083	-0.058853	0.398310
C105	C	1.123922	-0.058858	0.494452
C106	C	1.123895	-0.392999	1.064143
C107	C	1.198043	-0.489139	1.064163
C108	C	1.235129	-0.596099	1.005290
C109	C	1.198057	-0.606918	0.946402
C110	C	1.123905	-0.510780	0.946389
H111	H	0.456992	-0.106825	1.112082
H112	H	0.322499	-0.106864	1.485607
Br113	Br	0.302325	0.752116	1.479868
H114	H	0.456984	0.519636	1.311250
H115	H	1.093711	0.106855	0.699320
Br116	Br	1.248426	-0.138744	0.253137
H117	H	0.255211	0.674471	1.005284
H118	H	1.228245	0.106860	0.524921
H119	H	0.457015	0.519596	1.112092
Br120	Br	1.073573	-0.247846	0.479802
H121	H	0.322508	0.480335	1.699300
Br122	Br	0.214954	-0.000076	1.731868
H123	H	0.322455	0.106779	1.699320
Br124	Br	1.335766	-0.726563	1.005318
H125	H	1.228240	-0.480301	0.311229
Br126	Br	0.989450	-0.138751	0.253160
Br127	Br	1.073581	-0.247851	1.144051
H128	H	0.940129	0.480422	0.898438
H129	H	1.228264	-0.694018	0.898470
H130	H	0.940141	-0.106788	0.485663
Br131	Br	0.477151	0.247878	1.530726
H132	H	0.322443	0.106851	0.898462
Br133	Br	1.335808	-0.726558	0.278574
Br134	Br	0.477139	-0.138792	1.253143
H135	H	0.610578	0.106837	0.699300
H136	H	1.093734	-0.519606	0.898433
Br137	Br	0.477101	0.138802	1.530782
H138	H	0.322505	0.694027	1.112102
H139	H	0.228266	-0.106816	1.112078
Br140	Br	0.214964	0.726589	1.731954
H141	H	0.322450	0.480448	0.898453
H142	H	0.093720	-0.106807	1.112080
Br143	Br	0.561274	0.525459	1.144038
H144	H	0.456976	0.305985	0.898442
Br145	Br	1.248428	-0.752085	0.530660
Br146	Br	0.477118	0.138817	0.866501
Br147	Br	1.073610	-0.525486	0.757337
Br148	Br	1.335808	0.000050	0.278660
Br149	Br	0.561284	0.138796	0.530728
H150	H	1.093739	-0.106800	0.485626
Br151	Br	1.248344	-0.474429	1.144083
H152	H	0.093728	0.106848	0.898441
Br153	Br	0.302339	-0.138799	1.144025
H154	H	0.228265	0.106850	0.898443
H155	H	0.940140	0.305988	0.898448
H156	H	0.610580	0.694050	1.112075
