data_functionalizedCrystal
_audit_creation_method	'MofGen! by Chris Wilmer'
_symmetry_space_group_name_H-M	'P1'
_symmetry_Int_Tables_number	1
_symmetry_cell_setting	triclinic
loop_
_symmetry_equiv_pos_as_xyz
  x,y,z
_cell_length_a	14.472310
_cell_length_b	10.540539
_cell_length_c	10.540514
_cell_angle_alpha	95.479674
_cell_angle_beta	89.997827
_cell_angle_gamma	89.988995
loop_
_atom_site_label
_atom_site_type_symbol
_atom_site_fract_x
_atom_site_fract_y
_atom_site_fract_z
O1	O	0.076790	-1.685888	0.178894
O2	O	0.076801	-1.316473	0.195750
O3	O	0.076797	-1.509625	0.002613
O4	O	0.076795	-1.492736	0.372031
O5	O	-0.076885	-1.509575	0.002624
O6	O	-0.076881	-1.316423	0.195761
O7	O	-0.076892	-1.685838	0.178905
Cu8	Cu	-0.090919	-1.501126	0.187334
Cu9	Cu	0.090828	-1.501185	0.187321
O10	O	-0.076887	-1.492686	0.372041
C11	C	-0.000038	-1.269145	0.194491
C12	C	-0.000034	-1.128197	0.190709
N13	N	-0.218750	-1.501093	0.187342
C14	C	-0.000042	-1.508340	-0.044685
C15	C	-0.000035	-1.504571	-0.185634
C16	C	-0.592841	-1.501183	0.187316
C17	C	-0.553673	-1.397479	0.290306
C18	C	-0.446585	-1.397723	0.290688
C19	C	-0.407250	-1.501137	0.187329
C20	C	-0.446091	-1.633853	0.217460
C21	C	-0.553213	-1.633272	0.218194
C22	C	-0.553368	-1.473351	0.053896
C23	C	-0.446241	-1.470321	0.054757
C24	C	-0.302362	-1.501120	0.187334
C25	C	-0.697729	-1.501209	0.187314
N26	N	0.218659	-1.501227	0.187303
C27	C	-0.000050	-1.733165	0.180163
C28	C	-0.000048	-1.874113	0.183945
C29	C	-0.000392	-0.944784	0.045791
C30	C	-0.000036	-1.091402	0.049624
C31	C	0.087722	-1.066547	0.258599
C32	C	0.087786	-0.920003	0.253784
C33	C	-0.086979	-0.919458	0.256667
C34	C	-0.088130	-1.066439	0.257966
C35	C	-0.000041	-1.642711	-0.256340
C36	C	-0.000396	-1.638837	-0.402953
C37	C	-0.087629	-1.429416	-0.377964
C38	C	-0.087697	-1.434269	-0.231424
C39	C	0.087074	-1.432282	-0.231038
C40	C	0.088219	-1.430949	-0.378017
C41	C	-0.000047	-1.493970	0.419339
C42	C	-0.000047	-1.497740	0.560289
H43	H	-0.420325	-1.299111	0.272558
C44	C	-0.176023	-1.492672	-0.435450
H45	H	-0.159742	-1.560709	-0.497064
H46	H	-0.211381	-1.431498	-0.474973
H47	H	-0.211472	-1.524864	-0.369771
H48	H	0.062193	-0.914602	-0.009714
H49	H	-0.419468	-1.540857	-0.025568
H50	H	-0.153498	-0.887894	0.211013
H51	H	0.153033	-1.109161	0.211430
C52	C	-0.175836	-1.121740	0.190967
H53	H	-0.158847	-1.182220	0.122296
H54	H	-0.210303	-1.054901	0.159185
H55	H	-0.212459	-1.162251	0.250091
C56	C	-0.084765	-1.717287	-0.215515
H57	H	-0.084236	-1.800640	-0.258671
H58	H	-0.139617	-1.674436	-0.236554
H59	H	-0.082701	-1.722809	-0.126127
H60	H	-0.062944	-1.134000	-0.003794
C61	C	-0.095292	-1.099144	0.396923
H62	H	-0.044418	-1.151114	0.415827
H63	H	-0.151302	-1.143723	0.408076
H64	H	-0.094553	-1.022762	0.452602
H65	H	0.153480	-1.478285	-0.199547
C66	C	0.092143	-1.096738	0.398561
H67	H	0.040387	-1.147336	0.416877
H68	H	0.091326	-1.019474	0.452901
H69	H	0.147443	-1.142057	0.412243
H70	H	-0.087573	-0.872221	0.358571
C71	C	-0.588514	-1.263834	0.266214
H72	H	-0.627266	-1.270079	0.193135
H73	H	-0.537277	-1.210519	0.252464
H74	H	-0.622518	-1.228460	0.338180
C75	C	0.175754	-1.498386	-0.433413
H76	H	0.158590	-1.566955	-0.493893
H77	H	0.210145	-1.530362	-0.366614
H78	H	0.212524	-1.439439	-0.473941
H79	H	-0.090636	-1.325782	-0.400278
C80	C	0.085100	-1.147843	-0.023037
H81	H	0.085605	-1.237749	-0.020947
H82	H	0.139684	-1.112599	0.016010
H83	H	0.082527	-1.128018	-0.109014
C84	C	-0.590017	-1.421329	0.423273
H85	H	-0.628954	-1.494216	0.416295
H86	H	-0.624119	-1.349180	0.457962
H87	H	-0.539391	-1.435335	0.477589
C88	C	-0.411950	-1.421907	0.424400
H89	H	-0.463349	-1.431632	0.478695
H90	H	-0.375519	-1.351719	0.458252
H91	H	-0.375624	-1.497315	0.418748
C92	C	-0.586960	-1.666143	0.349691
H93	H	-0.535201	-1.679719	0.402162
H94	H	-0.623500	-1.741288	0.339676
H95	H	-0.622983	-1.597677	0.388374
H96	H	0.062371	-1.692575	-0.445623
H97	H	0.093776	-1.328109	-0.402212
C98	C	0.084787	-1.718452	-0.217794
H99	H	0.120967	-1.666514	-0.158228
H100	H	0.120853	-1.743470	-0.291249
H101	H	0.064872	-1.792094	-0.180094
H102	H	0.087915	-1.330383	-0.183797
C103	C	-0.085716	-1.711054	-0.459329
H104	H	-0.120300	-1.742866	-0.392611
H105	H	-0.066329	-1.780074	-0.517822
H106	H	-0.123172	-1.654759	-0.502318
C107	C	-0.411670	-1.740672	0.118902
H108	H	-0.435975	-1.820077	0.138914
H109	H	-0.346087	-1.743722	0.120723
H110	H	-0.431728	-1.724124	0.036261
H111	H	-0.579120	-1.712915	0.146203
H112	H	-0.420855	-1.372687	0.031918
H113	H	-0.153420	-1.484127	-0.203194
C114	C	-0.409848	-1.667488	0.347469
H115	H	-0.371057	-1.600834	0.383553
H116	H	-0.375612	-1.744643	0.336206
H117	H	-0.460525	-1.677711	0.402870
H118	H	-0.091429	-1.332794	-0.183418
H119	H	-0.580433	-1.378611	0.025220
H120	H	-0.578696	-1.548964	-0.022760
H121	H	-0.063327	-0.916183	-0.009941
C122	C	0.176398	-0.881915	0.185985
H123	H	0.177221	-0.792196	0.182456
H124	H	0.177767	-0.923304	0.101902
H125	H	0.228880	-0.906734	0.231789
C126	C	0.093191	-0.855184	0.390846
H127	H	0.095344	-0.918447	0.449220
H128	H	0.040275	-0.802993	0.407902
H129	H	0.147312	-0.804141	0.399977
