data_functionalizedCrystal
_audit_creation_method	'MofGen! by Chris Wilmer'
_symmetry_space_group_name_H-M	'P1'
_symmetry_Int_Tables_number	1
_symmetry_cell_setting	triclinic
loop_
_symmetry_equiv_pos_as_xyz
  x,y,z
_cell_length_a	13.897448
_cell_length_b	19.805407
_cell_length_c	19.805399
_cell_angle_alpha	89.978486
_cell_angle_beta	89.973574
_cell_angle_gamma	90.016939
loop_
_atom_site_label
_atom_site_type_symbol
_atom_site_fract_x
_atom_site_fract_y
_atom_site_fract_z
Zn1	Zn	-0.384043	1.034759	-0.382815
Zn2	Zn	0.115957	1.534759	0.117185
Zn3	Zn	-0.545353	1.034696	-0.269632
Zn4	Zn	-0.045353	1.534696	0.230368
Zn5	Zn	-0.384072	0.921579	-0.269631
Zn6	Zn	0.115928	1.421579	0.230369
Zn7	Zn	-0.545296	0.921554	-0.382770
Zn8	Zn	-0.045296	1.421554	0.117230
O9	O	-0.464691	0.978147	-0.326212
O10	O	0.035309	1.478147	0.173788
O11	O	-0.405453	1.129467	-0.367821
O12	O	0.094547	1.629467	0.132179
O13	O	-0.523995	1.019675	-0.174915
O14	O	-0.023995	1.519675	0.325085
O15	O	-0.249086	0.936629	-0.284663
O16	O	0.250914	1.436629	0.215337
O17	O	-0.523967	1.129421	-0.284666
O18	O	-0.023967	1.629421	0.215334
O19	O	-0.249065	1.019782	-0.367820
O20	O	0.250935	1.519782	0.132180
O21	O	-0.405502	0.936568	-0.174914
O22	O	0.094498	1.436568	0.325086
O23	O	-0.405446	0.826859	-0.284619
O24	O	0.094554	1.326859	0.215381
O25	O	-0.523869	0.936587	-0.477492
O26	O	-0.023869	1.436587	0.022508
O27	O	-0.523897	0.826841	-0.367742
O28	O	-0.023897	1.326841	0.132258
O29	O	-0.405398	1.019758	-0.477526
O30	O	0.094602	1.519758	0.022474
O31	O	-0.680327	1.019651	-0.284622
O32	O	-0.180327	1.519651	0.215378
O33	O	-0.680285	0.936526	-0.367743
O34	O	-0.180285	1.436526	0.132257
C35	C	-0.464669	0.802291	-0.326176
C36	C	0.035331	1.302291	0.173824
C37	C	-0.464683	0.727059	-0.326176
C38	C	0.035317	1.227059	0.173824
C39	C	-0.715305	0.978098	-0.326192
C40	C	-0.215305	1.478098	0.173808
C41	C	-0.822519	0.978138	-0.326207
C42	C	-0.322519	1.478138	0.173793
C43	C	-0.526484	0.265276	-0.369469
C44	C	-0.026484	0.765276	0.130531
C45	C	-0.526483	0.335965	-0.369455
C46	C	-0.026483	0.835965	0.130545
C47	C	-0.464714	0.371297	-0.326238
C48	C	0.035286	0.871297	0.173762
C49	C	-0.402950	0.335938	-0.283028
C50	C	0.097050	0.835938	0.216972
C51	C	-0.402958	0.265250	-0.283040
C52	C	0.097042	0.765250	0.216960
C53	C	-0.402921	0.621011	-0.282981
C54	C	0.097079	1.121011	0.217019
C55	C	-0.402916	0.691703	-0.282974
C56	C	0.097084	1.191703	0.217026
C57	C	-0.526446	0.691725	-0.369396
C58	C	-0.026446	1.191725	0.130604
C59	C	-0.526453	0.621038	-0.369407
C60	C	-0.026453	1.121038	0.130593
C61	C	-0.464693	0.585685	-0.326195
C62	C	0.035307	1.085685	0.173805
C63	C	-0.464697	0.509036	-0.326210
C64	C	0.035303	1.009036	0.173790
C65	C	-0.464705	0.447944	-0.326226
C66	C	0.035295	0.947944	0.173774
C67	C	-1.018814	0.978209	-0.326249
C68	C	-0.518814	1.478209	0.173751
C69	C	-0.909582	0.978168	-0.326228
C70	C	-0.409582	1.478168	0.173772
C71	C	-0.213098	0.978215	-0.326246
C72	C	0.286902	1.478215	0.173754
C73	C	-0.105884	0.978244	-0.326261
C74	C	0.394116	1.478244	0.173739
C75	C	-0.464624	0.978177	-0.502755
C76	C	0.035376	1.478177	-0.002755
C77	C	-0.464595	0.978189	-0.577987
C78	C	0.035405	1.478189	-0.077987
C79	C	-0.464713	1.154690	-0.326249
C80	C	0.035287	1.654690	0.173751
C81	C	-0.464723	1.229922	-0.326264
C82	C	0.035277	1.729922	0.173736
C83	C	-0.402890	0.934928	-0.613330
C84	C	0.097110	1.434928	-0.113330
C85	C	-0.402872	0.934937	-0.684018
C86	C	0.097128	1.434937	-0.184018
C87	C	-0.464554	0.978212	-0.719362
C88	C	0.035446	1.478212	-0.219362
C89	C	-0.526266	1.021475	-0.684014
C90	C	-0.026266	1.521475	-0.184014
C91	C	-0.526289	1.021462	-0.613327
C92	C	-0.026289	1.521462	-0.113327
C93	C	-0.526175	1.021529	-0.969088
C94	C	-0.026175	1.521529	-0.469088
C95	C	-0.526146	1.021540	-1.039780
C96	C	-0.026146	1.521540	-0.539780
C97	C	-0.402759	0.935004	-1.039779
C98	C	0.097241	1.435004	-0.539779
C99	C	-0.402781	0.934991	-0.969092
C100	C	0.097219	1.434991	-0.469092
C101	C	-0.464496	0.978251	-0.933750
C102	C	0.035504	1.478251	-0.433750
C103	C	-0.464517	0.978240	-0.857101
C104	C	0.035483	1.478240	-0.357101
C105	C	-0.464529	0.978227	-0.796010
C106	C	0.035471	1.478227	-0.296010
C107	C	-0.464688	0.978156	-0.150356
C108	C	0.035312	1.478156	0.349644
C109	C	-0.464445	0.978275	-0.075124
C110	C	0.035555	1.478275	0.424876
H111	H	-0.576778	0.236514	-0.404665
H112	H	-0.076778	0.736514	0.095335
H113	H	-0.576378	1.056781	-1.068555
H114	H	-0.076378	1.556781	-0.568555
H115	H	-0.576777	0.364747	-0.404635
H116	H	-0.076777	0.864747	0.095365
H117	H	-0.576748	0.592274	-0.404601
H118	H	-0.076748	1.092274	0.095399
H119	H	-0.576493	1.056707	-0.712797
H120	H	-0.076493	1.556707	-0.212797
Br121	Br	-0.319167	0.876200	-0.565370
Br122	Br	0.180833	1.376200	-0.065370
H123	H	-0.576736	0.720518	-0.404580
H124	H	-0.076736	1.220518	0.095420
Br125	Br	-0.319002	0.876291	-1.087747
Br126	Br	0.180998	1.376291	-0.587747
H127	H	-0.352636	0.592235	-0.247792
H128	H	0.147364	1.092235	0.252208
H129	H	-0.352629	0.899707	-0.712792
H130	H	0.147371	1.399707	-0.212792
H131	H	-0.576438	1.056747	-0.940321
H132	H	-0.076438	1.556747	-0.440321
H133	H	-0.576528	1.056695	-0.584552
H134	H	-0.076528	1.556695	-0.084552
Br135	Br	-0.319081	0.739654	-0.224320
Br136	Br	0.180919	1.239654	0.275680
H137	H	-0.352662	0.364711	-0.247838
H138	H	0.147338	0.864711	0.252162
H139	H	-0.352663	0.236466	-0.247860
H140	H	0.147337	0.736466	0.252140
H141	H	-0.352550	0.899755	-0.940318
H142	H	0.147450	1.399755	-0.440318
