data_functionalizedCrystal
_audit_creation_method	'MofGen! by Chris Wilmer'
_symmetry_space_group_name_H-M	'P1'
_symmetry_Int_Tables_number	1
_symmetry_cell_setting	triclinic
loop_
_symmetry_equiv_pos_as_xyz
  x,y,z
_cell_length_a	14.519709
_cell_length_b	12.996460
_cell_length_c	9.065218
_cell_angle_alpha	90.001592
_cell_angle_beta	95.651985
_cell_angle_gamma	90.000602
loop_
_atom_site_label
_atom_site_type_symbol
_atom_site_fract_x
_atom_site_fract_y
_atom_site_fract_z
O1	O	1.225286	0.085428	-0.193384
O2	O	0.956976	0.085459	-0.216159
O3	O	1.096677	0.085441	0.009975
O4	O	1.085585	0.085447	-0.419518
O5	O	1.096659	-0.085693	0.009962
O6	O	0.956958	-0.085674	-0.216172
O7	O	1.225268	-0.085705	-0.193397
Cu8	Cu	1.091112	-0.101316	-0.204786
Cu9	Cu	1.091133	0.101070	-0.204770
O10	O	1.085567	-0.085687	-0.419531
C11	C	0.922600	-0.000103	-0.215104
C12	C	0.820195	-0.000092	-0.211923
C13	C	0.445214	-0.000139	-0.200214
C14	C	0.549545	-0.000125	-0.203466
C15	C	0.632701	-0.000114	-0.206068
C16	C	0.737039	-0.000103	-0.209321
N17	N	1.091103	-0.243663	-0.204796
C18	C	1.091107	-0.336769	-0.204799
C19	C	1.091116	-0.453574	-0.204790
C20	C	1.091127	-0.546672	-0.204773
C21	C	1.091137	-0.663485	-0.204765
C22	C	1.259645	-0.000140	-0.194452
C23	C	1.362049	-0.000145	-0.197633
C24	C	1.095602	-0.000124	0.064935
C25	C	1.092415	-0.000119	0.228718
N26	N	1.091149	0.243417	-0.204749
C27	C	1.086642	-0.000120	-0.474491
C28	C	1.089830	-0.000118	-0.638274
