data_functionalizedCrystal
_audit_creation_method	'MofGen! by Chris Wilmer'
_symmetry_space_group_name_H-M	'P1'
_symmetry_Int_Tables_number	1
_symmetry_cell_setting	triclinic
loop_
_symmetry_equiv_pos_as_xyz
  x,y,z
_cell_length_a	12.645331
_cell_length_b	16.994747
_cell_length_c	12.645323
_cell_angle_alpha	90.006372
_cell_angle_beta	90.022676
_cell_angle_gamma	90.010038
loop_
_atom_site_label
_atom_site_type_symbol
_atom_site_fract_x
_atom_site_fract_y
_atom_site_fract_z
Zn1	Zn	1.620780	-0.314043	0.599583
Zn2	Zn	1.620682	-0.445958	0.422380
Zn3	Zn	1.443495	-0.314070	0.422327
Zn4	Zn	1.443497	-0.445907	0.599595
O5	O	1.532114	-0.379995	0.510971
O6	O	1.769114	-0.331552	0.576093
O7	O	1.597136	-0.428496	0.274026
O8	O	1.467052	-0.203685	0.445813
O9	O	1.769043	-0.428470	0.445903
O10	O	1.597303	-0.203666	0.576042
O11	O	1.466957	-0.331598	0.273987
O12	O	1.295148	-0.331548	0.445825
O13	O	1.467056	-0.428382	0.747941
O14	O	1.295149	-0.428408	0.576063
O15	O	1.597305	-0.331503	0.747932
O16	O	1.597138	-0.556333	0.445915
O17	O	1.466961	-0.556295	0.576115
C18	C	1.256684	-0.379976	0.510941
C19	C	1.138854	-0.379987	0.510953
C20	C	1.532052	-0.584934	0.511019
C21	C	1.532060	-0.674257	0.511016
Zn22	Zn	1.443525	-0.945156	0.422297
Zn23	Zn	1.620827	-0.945108	0.599536
Zn24	Zn	1.443533	-0.813299	0.599577
Zn25	Zn	1.620702	-0.813214	0.422345
O26	O	1.532147	-0.879194	0.510939
O27	O	1.467094	-1.055531	0.445771
O28	O	1.597365	-0.927639	0.747889
O29	O	1.295185	-0.830846	0.576058
O30	O	1.597357	-1.055496	0.575987
O31	O	1.295179	-0.927721	0.445811
O32	O	1.467108	-0.830800	0.747919
O33	O	1.466986	-0.702907	0.576105
O34	O	1.597143	-0.830700	0.273992
O35	O	1.597151	-0.702844	0.445893
O36	O	1.466972	-0.927638	0.273956
O37	O	1.769158	-0.927556	0.576034
O38	O	1.769066	-0.830654	0.445853
C39	C	0.971253	-0.318772	0.429471
C40	C	1.093813	-0.318930	0.429113
C41	C	1.094346	-0.463080	0.480474
C42	C	0.971748	-0.462746	0.479918
C43	C	0.971701	-0.358899	0.623227
C44	C	1.094307	-0.357043	0.622603
C45	C	1.808619	-0.380014	0.511003
C46	C	1.926449	-0.380022	0.511016
C47	C	1.532192	-0.379934	0.787477
C48	C	1.532225	-0.379908	0.905307
C49	C	1.532180	-0.174254	0.510917
C50	C	1.532213	-0.084932	0.510895
C51	C	1.532097	-0.379998	0.235541
C52	C	1.532269	-0.379802	0.117712
C53	C	1.450032	-0.440567	1.072877
C54	C	1.450248	-0.440868	0.950317
C55	C	1.643928	-0.402468	0.949836
C56	C	1.643477	-0.402849	1.072435
C57	C	1.503771	-0.296348	1.072468
C58	C	1.501279	-0.296849	0.949862
C59	C	1.807577	-0.879092	0.510947
C60	C	1.925407	-0.879072	0.510981
C61	C	1.532043	-0.879165	0.234434
C62	C	1.531998	-0.879153	0.116603
C63	C	1.255642	-0.879299	0.510934
C64	C	1.137812	-0.879343	0.510932
C65	C	1.532175	-0.879268	0.786369
C66	C	1.531924	-0.879431	0.904198
C67	C	2.092957	-0.818263	0.428924
C68	C	1.970397	-0.818025	0.429121
C69	C	1.969907	-0.856576	0.622732
C70	C	2.092505	-0.856133	0.622301
C71	C	2.092617	-0.962524	0.482403
C72	C	1.970011	-0.962084	0.479892
C73	C	1.613524	-0.817954	-0.050938
C74	C	1.613912	-0.818134	0.071622
C75	C	1.562351	-0.962256	0.072094
C76	C	1.562878	-0.961900	-0.050504
C77	C	1.419713	-0.857974	-0.050607
C78	C	1.420369	-0.856139	0.072000
H79	H	0.941780	-0.256969	0.448366
C80	C	1.475789	-0.524453	0.910849
C81	C	1.581363	-0.563573	0.941182
C82	C	1.606944	-0.647170	0.901767
C83	C	1.526950	-0.691647	0.832018
C84	C	1.421368	-0.652528	0.801681
C85	C	1.395788	-0.568931	0.841096
H86	H	1.640586	-0.530648	0.992818
H87	H	1.685103	-0.676128	0.924225
H88	H	1.545887	-0.753531	0.802841
H89	H	1.362146	-0.685453	0.750045
H90	H	1.317629	-0.539973	0.818638
C91	C	1.725167	-0.836653	-0.092548
C92	C	1.742451	-0.907188	-0.167014
C93	C	1.854093	-0.925891	-0.208621
C94	C	1.948450	-0.874060	-0.175763
C95	C	1.931169	-0.803521	-0.101293
C96	C	1.819527	-0.784818	-0.059686
H97	H	1.672599	-0.945560	-0.191341
H98	H	1.866885	-0.978109	-0.263749
H99	H	2.031094	-0.887906	-0.206564
H100	H	2.001020	-0.765149	-0.076966
H101	H	1.806735	-0.732600	-0.004558
H102	H	2.121106	-0.795131	0.646569
H103	H	1.556799	-0.249182	0.919220
C104	C	1.133376	-0.337797	0.316779
C105	C	1.203128	-0.278168	0.257280
C106	C	1.242688	-0.297039	0.144941
C107	C	1.212496	-0.375538	0.092102
C108	C	1.142741	-0.435172	0.151602
C109	C	1.103181	-0.416302	0.263940
H110	H	1.225481	-0.220054	0.296394
H111	H	1.294326	-0.252893	0.100896
H112	H	1.241781	-0.389507	0.008942
H113	H	1.120388	-0.493287	0.112487
H114	H	1.051543	-0.460447	0.307986
H115	H	1.563667	-0.251076	1.101462
H116	H	2.122177	-0.898498	0.685589
H117	H	1.367416	-0.426750	0.920209
H118	H	2.122416	-0.832181	0.345821
H119	H	1.123904	-0.257313	0.448212
C120	C	1.928449	-0.775068	0.656066
C121	C	1.854275	-0.728854	0.582091
C122	C	1.812820	-0.647344	0.615418
C123	C	1.845538	-0.612048	0.722721
C124	C	1.919716	-0.658263	0.796703
C125	C	1.961171	-0.739773	0.763376
H126	H	1.830052	-0.754981	0.502653
H127	H	1.757909	-0.613133	0.560651
H128	H	1.814851	-0.551710	0.747392
H129	H	1.943939	-0.632136	0.876142
H130	H	2.016082	-0.773984	0.818143
C131	C	1.475193	-0.523628	1.114541
C132	C	1.570004	-0.536464	1.189026
C133	C	1.595169	-0.619524	1.230692
C134	C	1.525522	-0.689747	1.197873
C135	C	1.430704	-0.676913	1.123384
C136	C	1.405540	-0.593854	1.081718
H137	H	1.621567	-0.484479	1.213324
H138	H	1.665359	-0.629024	1.285834
H139	H	1.544150	-0.751233	1.228717
H140	H	1.379142	-0.728899	1.099086
H141	H	1.335349	-0.584354	1.026577
H142	H	1.124971	-0.398400	0.686606
H143	H	0.940408	-0.332578	0.346806
H144	H	2.123770	-0.756781	0.447668
H145	H	1.366956	-0.426585	1.102344
H146	H	1.668496	-0.462836	0.919174
C147	C	1.929747	-0.837032	0.317181
C148	C	1.959346	-0.783290	0.223723
C149	C	1.918705	-0.802294	0.111777
C150	C	1.848465	-0.875040	0.093289
C151	C	1.818862	-0.928786	0.186749
C152	C	1.859503	-0.909782	0.298695
H153	H	2.011345	-0.729435	0.237407
H154	H	1.940619	-0.762507	0.042591
H155	H	1.818380	-0.889108	0.010419
H156	H	1.766863	-0.982641	0.173066
H157	H	1.837589	-0.949569	0.367881
H158	H	1.123401	-0.295895	0.645586
C159	C	1.930783	-0.734490	0.454716
C160	C	1.861002	-0.690102	0.374691
C161	C	1.821394	-0.606561	0.400284
C162	C	1.851565	-0.567407	0.505902
C163	C	1.921350	-0.611795	0.585933
C164	C	1.960958	-0.695336	0.560341
H165	H	1.838664	-0.719086	0.296501
H166	H	1.769735	-0.573703	0.341039
H167	H	1.822245	-0.505565	0.524847
H168	H	1.943688	-0.582811	0.664124
H169	H	2.012617	-0.728194	0.619586
H170	H	1.423734	-0.275783	1.103363
C171	C	2.134369	-0.990200	0.374229
C172	C	2.210051	-0.937366	0.310530
C173	C	2.251802	-0.965030	0.202350
C174	C	2.217871	-1.045527	0.157871
C175	C	2.142185	-1.098365	0.221571
C176	C	2.100434	-1.070701	0.329750
H177	H	2.235172	-0.877773	0.343456
H178	H	2.307830	-0.925915	0.155196
H179	H	2.248777	-1.066005	0.077790
H180	H	2.117064	-1.157958	0.188645
H181	H	2.044406	-1.109816	0.376905
C182	C	1.930704	-0.985010	0.368801
C183	C	1.958214	-0.933024	0.272941
C184	C	1.918893	-0.955948	0.161852
C185	C	1.852062	-1.030856	0.146623
C186	C	1.824548	-1.082847	0.242486
C187	C	1.863870	-1.059923	0.353575
H188	H	2.007689	-0.877568	0.284212
H189	H	1.939260	-0.917461	0.090889
H190	H	1.822954	-1.047826	0.064388
H191	H	1.775073	-1.138303	0.231215
H192	H	1.843502	-1.098410	0.424539
H193	H	1.939377	-1.009811	0.535315
C194	C	2.131808	-1.023733	0.563206
C195	C	2.204455	-0.998166	0.654742
C196	C	2.243653	-1.059367	0.735547
C197	C	2.210205	-1.146134	0.724818
C198	C	2.137555	-1.171704	0.633278
C199	C	2.098356	-1.110504	0.552472
H200	H	2.229219	-0.933933	0.662688
H201	H	2.297434	-1.040437	0.803311
H202	H	2.239222	-1.191438	0.784635
H203	H	2.112791	-1.235938	0.625332
H204	H	2.044575	-1.129433	0.484709
H205	H	1.667632	-0.463855	1.101072
C206	C	1.484561	-1.025524	0.111453
C207	C	1.419347	-1.073623	0.031421
C208	C	1.341555	-1.136890	0.070781
C209	C	1.328976	-1.152056	0.190174
C210	C	1.394191	-1.103956	0.270214
C211	C	1.471984	-1.040689	0.230854
H212	H	1.428657	-1.062397	-0.056968
H213	H	1.293278	-1.172497	0.011530
H214	H	1.271389	-1.198890	0.219311
H215	H	1.384881	-1.115182	0.358603
H216	H	1.520260	-1.005082	0.290105
H217	H	1.940765	-0.899498	0.685566
H218	H	1.594893	-0.756513	0.101716
H219	H	0.943105	-0.480659	0.397887
H220	H	0.942111	-0.509927	0.536723
H221	H	1.594707	-0.756136	-0.080406
H222	H	1.123523	-0.509936	0.538005
H223	H	1.697053	-0.832148	0.100944
H224	H	1.125005	-0.481301	0.399323
C225	C	1.729082	-0.345677	1.112513
C226	C	1.797637	-0.299824	1.032961
C227	C	1.883251	-0.242663	1.073034
C228	C	1.900309	-0.231356	1.192659
C229	C	1.831752	-0.277211	1.272219
C230	C	1.746138	-0.334372	1.232146
H231	H	1.785011	-0.308193	0.944400
H232	H	1.934002	-0.208718	1.014138
H233	H	1.963686	-0.189043	1.222324
H234	H	1.844378	-0.268842	1.360780
H235	H	1.695387	-0.368316	1.291042
H236	H	0.940795	-0.299365	0.650953
H237	H	1.644878	-0.979853	-0.079106
C238	C	1.728931	-0.344572	0.910460
C239	C	1.697828	-0.275970	0.837237
C240	C	1.782827	-0.218071	0.797863
C241	C	1.898930	-0.228773	0.831711
C242	C	1.930039	-0.297378	0.904938
C243	C	1.845039	-0.355277	0.944312
H244	H	1.611876	-0.268045	0.812177
H245	H	1.759798	-0.167285	0.743656
H246	H	1.961852	-0.185912	0.802564
H247	H	2.015990	-0.305303	0.929998
H248	H	1.868068	-0.406063	0.998519
C249	C	0.932565	-0.419160	0.705316
C250	C	1.012794	-0.469035	0.767779
C251	C	0.973654	-0.529297	0.849859
C252	C	0.854285	-0.539685	0.869476
C253	C	0.774049	-0.489809	0.807012
C254	C	0.813189	-0.429546	0.724932
H255	H	1.101165	-0.461346	0.753259
H256	H	1.033051	-0.566219	0.896099
H257	H	0.825311	-0.584295	0.930236
H258	H	0.685678	-0.497497	0.821532
H259	H	0.753792	-0.392625	0.678692
H260	H	1.419075	-0.279835	0.920755
H261	H	1.505982	-1.009033	-0.080183
H262	H	1.643469	-0.980537	0.102819
H263	H	1.392052	-0.798427	-0.081533
H264	H	1.397479	-0.794983	0.101093
H265	H	1.356316	-0.897467	0.102618
H266	H	1.358887	-0.902548	-0.079621
