data_functionalizedCrystal
_audit_creation_method	'MofGen! by Chris Wilmer'
_symmetry_space_group_name_H-M	'P1'
_symmetry_Int_Tables_number	1
_symmetry_cell_setting	triclinic
loop_
_symmetry_equiv_pos_as_xyz
  x,y,z
_cell_length_a	19.077105
_cell_length_b	25.639239
_cell_length_c	25.639234
_cell_angle_alpha	89.978894
_cell_angle_beta	87.692243
_cell_angle_gamma	87.734929
loop_
_atom_site_label
_atom_site_type_symbol
_atom_site_fract_x
_atom_site_fract_y
_atom_site_fract_z
Zn1	Zn	1.075839	-0.240367	-0.327688
Zn2	Zn	1.575839	0.259633	0.172312
Zn3	Zn	1.075740	-0.327787	-0.240249
Zn4	Zn	1.575740	0.172213	0.259751
Zn5	Zn	0.958160	-0.236852	-0.236758
Zn6	Zn	1.458160	0.263148	0.263242
Zn7	Zn	0.958082	-0.324253	-0.324146
Zn8	Zn	1.458082	0.175747	0.175854
O9	O	1.016955	-0.282315	-0.282210
O10	O	1.516955	0.217685	0.217790
O11	O	1.174315	-0.254914	-0.319033
O12	O	1.674315	0.245086	0.180967
O13	O	1.060135	-0.315732	-0.166621
O14	O	1.560135	0.184268	0.333379
O15	O	0.973845	-0.164155	-0.248841
O16	O	1.473845	0.335845	0.251159
O17	O	1.174243	-0.319141	-0.254792
O18	O	1.674243	0.180859	0.245208
O19	O	1.060302	-0.166738	-0.315647
O20	O	1.560302	0.333262	0.184353
O21	O	0.973750	-0.248922	-0.164055
O22	O	1.473750	0.251078	0.335945
O23	O	0.859661	-0.245496	-0.245406
O24	O	1.359661	0.254504	0.254594
O25	O	0.973710	-0.313118	-0.397781
O26	O	1.473710	0.186882	0.102219
O27	O	0.859603	-0.309709	-0.309610
O28	O	1.359603	0.190291	0.190390
O29	O	1.060226	-0.251487	-0.400384
O30	O	1.560226	0.248513	0.099616
O31	O	1.060059	-0.400481	-0.251357
O32	O	1.560059	0.099519	0.248643
O33	O	0.973615	-0.397885	-0.312995
O34	O	1.473615	0.102115	0.187005
C35	C	0.834094	-0.276838	-0.276745
C36	C	1.334094	0.223162	0.223255
C37	C	0.755866	-0.274507	-0.274419
C38	C	1.255866	0.225493	0.225581
C39	C	1.016837	-0.418154	-0.282183
C40	C	1.516837	0.081846	0.217817
C41	C	1.016851	-0.476268	-0.282190
C42	C	1.516851	0.023732	0.217810
C43	C	0.719102	-0.306895	-0.306701
C44	C	1.219102	0.193105	0.193299
C45	C	0.645598	-0.304698	-0.304519
C46	C	1.145598	0.195302	0.195481
C47	C	0.608859	-0.270116	-0.270051
C48	C	1.108859	0.229884	0.229949
C49	C	0.645628	-0.237725	-0.237767
C50	C	1.145628	0.262275	0.262233
C51	C	0.719131	-0.239919	-0.239953
C52	C	1.219131	0.260081	0.260047
C53	C	0.389030	-0.259960	-0.259938
C54	C	0.889030	0.240040	0.240062
C55	C	0.315522	-0.257769	-0.257753
C56	C	0.815522	0.242231	0.242247
C57	C	0.315498	-0.324742	-0.324505
C58	C	0.815498	0.175258	0.175495
C59	C	0.389002	-0.326936	-0.326686
C60	C	0.889002	0.173064	0.173314
C61	C	0.425764	-0.294543	-0.294404
C62	C	0.925764	0.205457	0.205596
N63	N	0.533726	-0.267871	-0.267818
N64	N	1.033726	0.232129	0.232182
N65	N	0.500896	-0.296785	-0.296640
N66	N	1.000896	0.203215	0.203360
C67	C	1.062084	-0.837977	-0.250176
C68	C	1.562084	-0.337977	0.249824
C69	C	1.062111	-0.892582	-0.250183
C70	C	1.562111	-0.392582	0.249817
O71	O	1.100447	-0.921960	-0.222934
O72	O	1.600447	-0.421960	0.277066
N73	N	1.017079	-0.918558	-0.282249
N74	N	1.517079	-0.418558	0.217751
C75	C	0.972022	-0.889925	-0.314312
C76	C	1.472022	-0.389925	0.185688
O77	O	0.933721	-0.917033	-0.341587
O78	O	1.433721	-0.417033	0.158413
C79	C	0.971998	-0.835321	-0.314306
C80	C	1.471998	-0.335321	0.185694
C81	C	1.017028	-0.809348	-0.282235
C82	C	1.517028	-0.309348	0.217765
C83	C	1.107111	-0.812005	-0.218108
C84	C	1.607111	-0.312005	0.281892
C85	C	1.107082	-0.757403	-0.218099
C86	C	1.607082	-0.257403	0.281901
C87	C	1.062027	-0.728775	-0.250159
C88	C	1.562027	-0.228775	0.249841
C89	C	1.017000	-0.754747	-0.282227
C90	C	1.517000	-0.254747	0.217773
C91	C	0.926945	-0.806689	-0.346372
C92	C	1.426945	-0.306689	0.153628
C93	C	0.926926	-0.752082	-0.346364
C94	C	1.426926	-0.252082	0.153636
C95	C	0.971956	-0.726109	-0.314293
C96	C	1.471956	-0.226109	0.185707
C97	C	0.971916	-0.671517	-0.314278
C98	C	1.471916	-0.171517	0.185722
N99	N	1.016949	-0.645542	-0.282213
N100	N	1.516949	-0.145542	0.217787
C101	C	1.062004	-0.674171	-0.250153
C102	C	1.562004	-0.174171	0.249847
C103	C	0.972075	-1.004597	-0.314321
C104	C	1.472075	-0.504597	0.185679
C105	C	0.972094	-1.059200	-0.314324
C106	C	1.472094	-0.559200	0.185676
C107	C	1.062184	-1.061854	-0.250197
C108	C	1.562184	-0.561854	0.249803
C109	C	1.062161	-1.007250	-0.250191
C110	C	1.562161	-0.507250	0.249809
C111	C	1.017107	-0.978622	-0.282256
C112	C	1.517107	-0.478622	0.217744
C113	C	1.061940	-0.559504	-0.250138
C114	C	1.561940	-0.059504	0.249862
C115	C	1.061906	-0.504897	-0.250131
C116	C	1.561906	-0.004897	0.249869
C117	C	0.971818	-0.502248	-0.314260
C118	C	1.471818	-0.002248	0.185740
C119	C	0.971850	-0.556850	-0.314266
C120	C	1.471850	-0.056850	0.185734
C121	C	1.016917	-0.585476	-0.282203
C122	C	1.516917	-0.085476	0.217797
O123	O	0.933602	-0.642105	-0.341516
O124	O	1.433602	-0.142105	0.158484
O125	O	1.100304	-0.647056	-0.222888
O126	O	1.600304	-0.147056	0.277112
C127	C	1.200530	-0.287814	-0.287697
C128	C	1.700530	0.212186	0.212303
C129	C	1.278759	-0.290157	-0.290035
C130	C	1.778759	0.209843	0.209965
C131	C	1.016970	-0.282300	-0.418584
C132	C	1.516970	0.217700	0.081416
C133	C	1.016977	-0.282294	-0.476698
C134	C	1.516977	0.217706	0.023302
C135	C	1.017093	-0.145946	-0.282250
C136	C	1.517093	0.354054	0.217750
C137	C	1.017152	-0.087834	-0.282267
C138	C	1.517152	0.412166	0.217733
C139	C	0.971975	-0.314321	-0.726532
C140	C	1.471975	0.185679	-0.226532
C141	C	0.971963	-0.314332	-0.671927
C142	C	1.471963	0.185668	-0.171927
O143	O	0.933633	-0.341613	-0.642533
O144	O	1.433633	0.158387	-0.142533
N145	N	1.017003	-0.282253	-0.645973
N146	N	1.517003	0.217747	-0.145973
C147	C	1.062055	-0.250156	-0.674626
C148	C	1.562055	0.249844	-0.174626
O149	O	1.100364	-0.222871	-0.647535
O150	O	1.600364	0.277129	-0.147535
C151	C	1.062063	-0.250142	-0.729229
C152	C	1.562063	0.249858	-0.229229
C153	C	1.017024	-0.282228	-0.755181
C154	C	1.517024	0.217772	-0.255181
C155	C	0.926939	-0.346403	-0.752484
C156	C	1.426939	0.153597	-0.252484
C157	C	0.926953	-0.346393	-0.807085
C158	C	1.426953	0.153607	-0.307085
C159	C	0.972002	-0.314299	-0.835734
C160	C	1.472002	0.185701	-0.335734
C161	C	1.017038	-0.282217	-0.809782
C162	C	1.517038	0.217783	-0.309782
C163	C	1.107110	-0.218043	-0.757881
C164	C	1.607110	0.281957	-0.257881
C165	C	1.107114	-0.218032	-0.812488
C166	C	1.607114	0.281968	-0.312488
C167	C	1.062075	-0.250117	-0.838440
C168	C	1.562075	0.249883	-0.338440
C169	C	1.062100	-0.250113	-0.893032
C170	C	1.562100	0.249887	-0.393032
N171	N	1.017059	-0.282192	-0.918987
N172	N	1.517059	0.217808	-0.418987
C173	C	0.972010	-0.314286	-0.890338
C174	C	1.472010	0.185714	-0.390338
C175	C	1.062033	-0.250187	-0.559954
C176	C	1.562033	0.249813	-0.059954
C177	C	1.062029	-0.250203	-0.505352
C178	C	1.562029	0.249797	-0.005352
C179	C	0.971936	-0.314379	-0.502657
C180	C	1.471936	0.185621	-0.002657
C181	C	0.971944	-0.314365	-0.557261
C182	C	1.471944	0.185635	-0.057261
C183	C	1.016992	-0.282266	-0.585909
C184	C	1.516992	0.217734	-0.085909
C185	C	0.972042	-0.314261	-1.005004
C186	C	1.472042	0.185739	-0.505004
C187	C	0.972062	-0.314249	-1.059610
C188	C	1.472062	0.185751	-0.559610
C189	C	1.062152	-0.250071	-1.062299
C190	C	1.562152	0.249929	-0.562299
C191	C	1.062135	-0.250085	-1.007698
C192	C	1.562135	0.249915	-0.507698
C193	C	1.017075	-0.282181	-0.979052
C194	C	1.517075	0.217819	-0.479052
O195	O	1.100408	-0.222845	-0.922460
O196	O	1.600408	0.277155	-0.422460
O197	O	0.933701	-0.341561	-0.917435
O198	O	1.433701	0.158439	-0.417435
C199	C	1.016981	-0.282293	-0.146368
C200	C	1.516981	0.217707	0.353632
C201	C	1.017111	-0.282155	-0.088259
C202	C	1.517111	0.217845	0.411741
H203	H	0.749010	-0.335057	-0.334767
H204	H	1.249010	0.164943	0.165233
H205	H	0.749063	-0.213543	-0.213668
H206	H	1.249063	0.286457	0.286332
H207	H	1.143804	-0.835309	-0.192001
H208	H	1.643804	-0.335309	0.307999
H209	H	0.935269	-0.340491	-0.578387
H210	H	1.435269	0.159509	-0.078387
O211	O	0.878334	-0.381020	-0.721598
O212	O	1.378334	0.118980	-0.221598
H213	H	0.909789	-0.408576	-0.697654
H214	H	1.409789	0.091424	-0.197654
O215	O	1.110486	-0.476887	-0.215544
O216	O	1.610486	0.023113	0.284456
H217	H	1.102899	-0.434107	-0.220920
H218	H	1.602899	0.065893	0.279080
O219	O	0.923325	-0.348987	-0.471759
O220	O	1.423325	0.151013	0.028241
H221	H	0.954779	-0.376539	-0.447809
H222	H	1.454779	0.123461	0.052191
O223	O	0.923221	-0.471364	-0.348836
O224	O	1.423221	0.028636	0.151164
H225	H	0.935255	-0.482176	-0.390239
H226	H	1.435255	0.017824	0.109761
O227	O	0.605876	-0.339632	-0.339291
O228	O	1.105876	0.160368	0.160709
H229	H	0.572366	-0.365157	-0.314791
H230	H	1.072366	0.134843	0.185209
O231	O	1.155689	-0.183437	-0.729899
O232	O	1.655689	0.316563	-0.229899
H233	H	1.143652	-0.142041	-0.740028
H234	H	1.643652	0.357959	-0.240028
H235	H	1.098640	-0.582805	-0.224031
H236	H	1.598640	-0.082805	0.275969
H237	H	1.098711	-0.224082	-0.484227
H238	H	1.598711	0.275918	0.015773
O239	O	1.110634	-0.215572	-0.590853
O240	O	1.610634	0.284428	-0.090853
H241	H	1.141954	-0.193275	-0.563628
H242	H	1.641954	0.306725	-0.063628
H243	H	1.143752	-0.736260	-0.191986
H244	H	1.643752	-0.236260	0.308014
O245	O	0.275882	-0.220484	-0.220566
O246	O	0.775882	0.279516	0.279434
H247	H	0.242406	-0.192924	-0.243012
H248	H	0.742406	0.307076	0.256988
H249	H	0.615709	-0.209565	-0.209705
H250	H	1.115709	0.290435	0.290295
O251	O	0.428632	-0.364239	-0.363856
O252	O	0.928632	0.135761	0.136144
H253	H	0.462159	-0.341881	-0.391492
H254	H	0.962159	0.158119	0.108508
H255	H	0.285558	-0.351115	-0.350788
H256	H	0.785558	0.148885	0.149212
O257	O	0.878364	-0.380990	-0.835073
O258	O	1.378364	0.119010	-0.335073
H259	H	0.847034	-0.403300	-0.805971
H260	H	1.347034	0.096700	-0.305971
H261	H	0.935380	-0.981290	-0.340431
H262	H	1.435380	-0.481290	0.159569
O263	O	0.923519	-1.087213	-0.348908
O264	O	1.423519	-0.587213	0.151092
H265	H	0.935547	-1.077064	-0.390308
H266	H	1.435547	-0.577064	0.109692
H267	H	0.418954	-0.233587	-0.233648
H268	H	0.918954	0.266413	0.266352
O269	O	0.878328	-0.721207	-0.380950
O270	O	1.378328	-0.221207	0.119050
H271	H	0.885874	-0.678873	-0.375563
H272	H	1.385874	-0.178873	0.124437
O273	O	1.110735	-0.979237	-0.215607
O274	O	1.610735	-0.479237	0.284393
H275	H	1.142070	-1.008324	-0.193319
H276	H	1.642070	-0.508324	0.306681
H277	H	1.098873	-1.085173	-0.224094
H278	H	1.598873	-0.585173	0.275906
H279	H	0.890274	-0.827826	-0.372485
H280	H	1.390274	-0.327826	0.127515
H281	H	0.935185	-0.577997	-0.340382
H282	H	1.435185	-0.077997	0.159618
O283	O	0.923444	-0.348878	-0.974109
O284	O	1.423444	0.151122	-0.474109
H285	H	0.887649	-0.324409	-0.948172
H286	H	1.387649	0.175591	-0.448172
H287	H	0.935385	-0.340379	-1.080737
H288	H	1.435385	0.159621	-0.580737
H289	H	1.143795	-0.191890	-0.835811
H290	H	1.643795	0.308110	-0.335811
H291	H	1.098814	-0.223962	-0.986567
H292	H	1.598814	0.276038	-0.486567
O293	O	1.110719	-0.215440	-1.093203
O294	O	1.610719	0.284560	-0.593203
H295	H	1.103143	-0.220816	-1.135531
H296	H	1.603143	0.279184	-0.635531
