data_functionalizedCrystal
_audit_creation_method	'MofGen! by Chris Wilmer'
_symmetry_space_group_name_H-M	'P1'
_symmetry_Int_Tables_number	1
_symmetry_cell_setting	triclinic
loop_
_symmetry_equiv_pos_as_xyz
  x,y,z
_cell_length_a	10.489741
_cell_length_b	10.489741
_cell_length_c	8.965430
_cell_angle_alpha	89.999293
_cell_angle_beta	89.998843
_cell_angle_gamma	95.460826
loop_
_atom_site_label
_atom_site_type_symbol
_atom_site_fract_x
_atom_site_fract_y
_atom_site_fract_z
O1	O	1.694053	-0.179958	-0.123946
O2	O	1.322858	-0.196851	-0.123969
O3	O	1.516902	-0.002807	-0.123948
O4	O	1.500009	-0.374003	-0.123967
O5	O	1.516886	-0.002820	0.124130
O6	O	1.322841	-0.196864	0.124110
O7	O	1.694037	-0.179971	0.124133
Cu8	Cu	1.508438	-0.188419	0.146773
Cu9	Cu	1.508457	-0.188404	-0.146609
O10	O	1.499993	-0.374016	0.124112
C11	C	1.275318	-0.195582	0.000067
C12	C	1.133688	-0.191765	0.000059
C13	C	1.065548	-0.068300	0.000079
C14	C	0.973430	-0.126617	-0.122237
C15	C	0.973447	-0.126659	0.122349
C16	C	1.043435	-0.250133	-0.122358
C17	C	1.043462	-0.250158	0.122338
C18	C	0.951371	-0.308564	-0.000007
C19	C	1.515618	0.044718	0.000090
C20	C	1.511801	0.186348	0.000087
C21	C	1.741577	-0.181241	0.000093
C22	C	1.883206	-0.185058	0.000092
C23	C	1.501277	-0.421541	0.000070
C24	C	1.505094	-0.563170	0.000063
N25	N	1.508433	-0.188429	0.353122
C26	C	1.388336	0.254488	0.000069
C27	C	1.446652	0.346604	0.122388
C28	C	1.446697	0.346591	-0.122198
C29	C	1.570167	0.276599	0.122508
C30	C	1.570195	0.276576	-0.122189
C31	C	1.628600	0.368665	0.000161
N32	N	1.508471	-0.188384	-0.352958
C33	C	1.418666	-0.278138	0.450418
C34	C	1.534163	-0.303949	0.549838
C35	C	1.392986	-0.162629	0.549830
C36	C	1.623988	-0.214298	0.450352
C37	C	1.482735	-0.072927	0.450336
C38	C	1.598314	-0.098690	0.549711
H39	H	1.074270	-0.302327	-0.225883
O40	O	1.456889	0.043642	0.398317
C41	C	1.550437	0.138341	0.451072
H42	H	1.596213	0.102602	0.556545
H43	H	1.503607	0.229465	0.477289
H44	H	1.627134	0.159533	0.362045
O45	O	1.276391	-0.136760	0.601777
C46	C	1.182035	-0.231624	0.551214
H47	H	1.217672	-0.278689	0.446524
H48	H	1.090447	-0.185804	0.524419
H49	H	1.161686	-0.307085	0.641811
H50	H	0.901947	-0.410168	-0.000079
H51	H	1.115238	0.033196	-0.000069
O52	O	1.328326	-0.368888	0.398458
C53	C	1.355919	-0.490486	0.449192
H54	H	1.462169	-0.487862	0.477068
H55	H	1.331011	-0.564666	0.358266
H56	H	1.296892	-0.517260	0.553263
H57	H	1.286824	0.204837	0.000185
O58	O	1.740517	-0.240654	0.398676
C59	C	1.767582	-0.362051	0.450620
H60	H	1.709279	-0.387349	0.555612
H61	H	1.874002	-0.359990	0.477380
H62	H	1.741353	-0.436980	0.360876
O63	O	1.560160	-0.420355	0.602247
C64	C	1.560931	-0.418350	0.759492
H65	H	1.580783	-0.315373	0.800042
H66	H	1.638818	-0.477638	0.802489
H67	H	1.463819	-0.460418	0.803097
O68	O	0.936510	-0.064089	-0.245486
C69	C	0.995213	0.062540	-0.245071
H70	H	1.022651	0.091884	-0.126041
H71	H	0.925585	0.129724	-0.291265
H72	H	1.084869	0.068409	-0.317569
O73	O	1.080720	-0.312453	0.245585
C74	C	1.214711	-0.316161	0.243123
H75	H	1.250707	-0.305070	0.123415
H76	H	1.239878	-0.411696	0.289823
H77	H	1.261895	-0.234721	0.314138
O78	O	1.689157	-0.008294	0.601340
C79	C	1.810662	-0.035939	0.550346
H80	H	1.807988	-0.142218	0.522605
H81	H	1.885011	-0.010932	0.641062
H82	H	1.837240	0.022977	0.446139
H83	H	0.942463	-0.074402	0.225758
O84	O	1.384451	0.383470	0.245903
C85	C	1.448510	0.346116	0.374669
H86	H	1.506774	0.263042	0.346171
H87	H	1.375301	0.314755	0.464579
H88	H	1.515252	0.430344	0.417382
O89	O	1.632549	0.239684	0.245865
C90	C	1.740220	0.177907	0.202228
H91	H	1.725242	0.138939	0.084186
H92	H	1.753268	0.095545	0.282037
H93	H	1.829216	0.249280	0.205177
O94	O	1.749829	0.427582	0.000506
C95	C	1.814426	0.391861	0.129624
H96	H	1.741492	0.359259	0.219350
H97	H	1.879458	0.477350	0.172317
H98	H	1.874564	0.310093	0.101614
H99	H	1.622398	0.245537	-0.225600
H100	H	1.394447	0.377561	-0.225620
