data_functionalizedCrystal
_audit_creation_method	'MofGen! by Chris Wilmer'
_symmetry_space_group_name_H-M	'P1'
_symmetry_Int_Tables_number	1
_symmetry_cell_setting	triclinic
loop_
_symmetry_equiv_pos_as_xyz
  x,y,z
_cell_length_a	16.109301
_cell_length_b	15.186229
_cell_length_c	16.109304
_cell_angle_alpha	89.997472
_cell_angle_beta	83.462059
_cell_angle_gamma	90.002891
loop_
_atom_site_label
_atom_site_type_symbol
_atom_site_fract_x
_atom_site_fract_y
_atom_site_fract_z
O1	O	1.103135	0.073167	0.106861
O2	O	1.603135	0.573167	0.606861
O3	O	0.861073	0.073181	0.120161
O4	O	1.361073	0.573181	0.620161
O5	O	0.988752	0.073174	-0.007520
O6	O	1.488752	0.573174	0.492480
O7	O	0.975456	0.073174	0.234542
O8	O	1.475456	0.573174	0.734542
O9	O	0.988737	-0.073283	-0.007513
O10	O	1.488737	0.426717	0.492487
O11	O	0.861058	-0.073277	0.120168
O12	O	1.361058	0.426723	0.620168
O13	O	1.103120	-0.073290	0.106869
O14	O	1.603120	0.426710	0.606869
Zn15	Zn	0.982087	-0.096537	0.113519
Zn16	Zn	1.482087	0.403463	0.613519
Zn17	Zn	0.982106	0.096427	0.113510
Zn18	Zn	1.482106	0.596427	0.613510
O19	O	0.975441	-0.073283	0.234549
O20	O	1.475441	0.426717	0.734549
C21	C	0.830091	-0.000046	0.119626
C22	C	1.330091	0.499954	0.619626
C23	C	0.737795	-0.000041	0.118010
C24	C	1.237795	0.499959	0.618010
N25	N	0.982079	-0.228229	0.113525
N26	N	1.482079	0.271771	0.613525
C27	C	0.988206	-0.000052	-0.038491
C28	C	1.488206	0.499948	0.461509
C29	C	0.986590	-0.000046	-0.130786
C30	C	1.486590	0.499954	0.369214
C31	C	0.515524	-0.000051	0.190018
C32	C	1.015524	0.499949	0.690018
C33	C	0.428803	-0.000057	0.188494
C34	C	0.928803	0.499943	0.688494
C35	C	0.448676	-0.000053	0.037005
C36	C	0.948676	0.499947	0.537005
C37	C	0.535395	-0.000054	0.038530
C38	C	1.035395	0.499946	0.538530
C39	C	0.568816	-0.000048	0.115039
C40	C	1.068816	0.499952	0.615039
C41	C	0.395377	-0.000053	0.111990
C42	C	0.895377	0.499947	0.611990
C43	C	0.301351	-0.000059	0.110337
C44	C	0.801351	0.499941	0.610337
C45	C	0.662848	-0.000044	0.116693
C46	C	1.162848	0.499956	0.616693
C47	C	1.134102	-0.000061	0.107404
C48	C	1.634102	0.499939	0.607404
C49	C	1.226398	-0.000061	0.109019
C50	C	1.726398	0.499939	0.609019
C51	C	1.032504	-0.453955	0.163954
C52	C	1.532504	0.046045	0.663954
C53	C	1.032513	-0.546145	0.163948
C54	C	1.532513	-0.046145	0.663948
C55	C	0.931694	-0.546148	0.063063
C56	C	1.431694	-0.046148	0.563063
C57	C	0.931690	-0.453960	0.063066
C58	C	1.431690	0.046040	0.563066
C59	C	0.982093	-0.407866	0.113515
C60	C	1.482093	0.092134	0.613515
C61	C	0.982106	-0.592243	0.113507
C62	C	1.482106	-0.092243	0.613507
C63	C	0.982116	-0.692200	0.113501
C64	C	1.482116	-0.192200	0.613501
C65	C	0.982085	-0.307903	0.113521
C66	C	1.482085	0.192097	0.613521
N67	N	0.982120	0.228120	0.113497
N68	N	1.482120	0.728120	0.613497
C69	C	0.982864	0.079784	-0.343128
C70	C	1.482864	0.579784	0.156872
C71	C	0.981338	0.079784	-0.429848
C72	C	1.481338	0.579784	0.070152
C73	C	0.981326	-0.079892	-0.429837
C74	C	1.481326	0.420108	0.070163
C75	C	0.982846	-0.079890	-0.343117
C76	C	1.482846	0.420110	0.156883
C77	C	0.983620	-0.000050	-0.299766
C78	C	1.483620	0.499950	0.200234
C79	C	0.980573	-0.000052	-0.473205
C80	C	1.480573	0.499948	0.026795
C81	C	0.978919	-0.000053	-0.567231
C82	C	1.478919	0.499947	-0.067231
C83	C	0.985273	-0.000048	-0.205734
C84	C	1.485273	0.499952	0.294266
C85	C	0.975987	-0.000055	0.265520
C86	C	1.475987	0.499945	0.765520
C87	C	0.977603	-0.000055	0.357816
C88	C	1.477603	0.499945	0.857816
H89	H	0.542732	-0.000053	0.252316
H90	H	1.042732	0.499947	0.752316
Cl91	Cl	1.095890	-0.604081	0.227357
Cl92	Cl	1.595890	-0.104081	0.727357
Cl93	Cl	1.095874	-0.396011	0.227369
Cl94	Cl	1.595874	0.103989	0.727369
Cl95	Cl	0.868327	-0.604101	-0.000349
Cl96	Cl	1.368327	-0.104101	0.499651
Cl97	Cl	0.980387	0.180151	-0.484356
Cl98	Cl	1.480387	0.680151	0.015644
H99	H	0.385416	-0.000061	0.249550
H100	H	0.885416	0.499939	0.749550
Cl101	Cl	0.406654	-0.000054	-0.059172
Cl102	Cl	0.906654	0.499946	0.440828
Cl103	Cl	0.868310	-0.396015	-0.000346
Cl104	Cl	1.368310	0.103985	0.499654
H105	H	0.983492	0.144796	-0.307833
H106	H	1.483492	0.644796	0.192167
H107	H	0.980698	-0.144896	-0.465145
H108	H	1.480698	0.355104	0.034855
Cl109	Cl	0.602396	-0.000057	-0.055737
Cl110	Cl	1.102396	0.499943	0.444263
H111	H	0.983457	-0.144905	-0.307811
H112	H	1.483457	0.355095	0.192189
