data_functionalizedCrystal
_audit_creation_method	'MofGen! by Chris Wilmer'
_symmetry_space_group_name_H-M	'P1'
_symmetry_Int_Tables_number	1
_symmetry_cell_setting	triclinic
loop_
_symmetry_equiv_pos_as_xyz
  x,y,z
_cell_length_a	42.784839
_cell_length_b	42.784841
_cell_length_c	42.784893
_cell_angle_alpha	90.002418
_cell_angle_beta	59.997780
_cell_angle_gamma	119.999863
loop_
_atom_site_label
_atom_site_type_symbol
_atom_site_fract_x
_atom_site_fract_y
_atom_site_fract_z
O1	O	0.275695	-0.214412	-0.009300
O2	O	0.211692	-0.168961	0.009253
O3	O	0.275692	-0.168961	-0.054750
O4	O	0.211694	-0.214412	0.054702
O5	O	0.223708	-0.220945	-0.054749
O6	O	0.159708	-0.220945	0.009253
O7	O	0.223710	-0.266397	-0.009300
Cu8	Cu	0.186962	-0.248417	-0.000023
Cu9	Cu	0.248440	-0.186940	-0.000024
O10	O	0.159710	-0.266396	0.054703
C11	C	0.051021	-0.022778	0.028112
C12	C	0.013142	-0.041761	0.028375
C13	C	0.051018	-0.079378	0.028116
C14	C	0.013139	-0.098275	0.028379
C15	C	-0.005578	-0.079377	0.028112
C16	C	0.069652	-0.041762	0.028379
C17	C	0.152948	0.113708	0.017863
C18	C	0.173786	0.152360	0.014965
C19	C	0.155902	0.171750	0.013509
C20	C	0.178499	0.213661	0.010359
C21	C	0.117177	0.152485	0.014953
C22	C	0.096339	0.113835	0.017857
C23	C	0.114226	0.094447	0.019312
C24	C	-0.131813	-0.113936	0.017859
C25	C	-0.167567	-0.131750	0.014961
C26	C	-0.185502	-0.169024	0.013506
C27	C	-0.224264	-0.188340	0.010358
C28	C	-0.167685	-0.188485	0.014954
C29	C	-0.131938	-0.170675	0.017859
C30	C	-0.114002	-0.133396	0.019309
C31	C	0.152939	-0.113943	0.017877
C32	C	0.173778	-0.131757	0.014977
C33	C	0.155892	-0.169032	0.013523
C34	C	0.178486	-0.188349	0.010377
C35	C	0.117170	-0.188491	0.014967
C36	C	0.096334	-0.170675	0.017865
C37	C	0.114220	-0.133401	0.019323
C38	C	0.091629	0.052537	0.022456
C39	C	0.073617	0.019131	0.024964
C40	C	0.073613	-0.098693	0.024971
C41	C	0.091623	-0.114089	0.022466
C42	C	-0.044339	-0.098690	0.024964
C43	C	-0.075237	-0.114084	0.022456
O44	O	-0.327856	-0.266388	-0.009322
O45	O	-0.236954	-0.220935	0.009228
O46	O	-0.236950	-0.220939	-0.054773
O47	O	-0.327860	-0.266385	0.054680
O48	O	-0.236948	-0.168954	-0.054776
O49	O	-0.236952	-0.168950	0.009225
O50	O	-0.327854	-0.214403	-0.009325
Cu51	Cu	-0.282403	-0.186930	-0.000050
Cu52	Cu	-0.282405	-0.248408	-0.000046
O53	O	-0.327858	-0.214400	0.054676
C54	C	0.384390	-0.079141	-0.361606
C55	C	0.422270	-0.041526	-0.380503
C56	C	0.384390	-0.079141	-0.305008
C57	C	0.422270	-0.041526	-0.323990
C58	C	0.440988	-0.022543	-0.361606
C59	C	0.365758	-0.098038	-0.323991
C60	C	0.282465	-0.170819	-0.396168
C61	C	0.261627	-0.188759	-0.413983
C62	C	0.279513	-0.169420	-0.451257
C63	C	0.256917	-0.188867	-0.470572
C64	C	0.318239	-0.132140	-0.470717
C65	C	0.339076	-0.114205	-0.452905
C66	C	0.321187	-0.133546	-0.415628
C67	C	0.567227	0.113942	-0.453282
C68	C	0.602981	0.152594	-0.471222
C69	C	0.620916	0.171985	-0.451883
C70	C	0.659678	0.213894	-0.471328
C71	C	0.603097	0.152719	-0.414603
C72	C	0.567349	0.114068	-0.396667
C73	C	0.549414	0.094682	-0.416011
C74	C	0.282465	-0.170819	-0.168522
C75	C	0.261624	-0.188757	-0.129868
C76	C	0.279510	-0.169418	-0.110479
C77	C	0.256914	-0.188865	-0.068568
C78	C	0.318233	-0.132140	-0.129742
C79	C	0.339070	-0.114203	-0.168394
C80	C	0.321184	-0.133548	-0.187782
C81	C	0.343783	-0.114094	-0.396315
C82	C	0.361794	-0.098590	-0.380920
C83	C	0.361794	-0.098590	-0.263099
C84	C	0.343783	-0.114094	-0.229693
C85	C	0.479750	0.019366	-0.381054
C86	C	0.510649	0.052771	-0.396557
C87	C	0.440758	-0.356212	-0.028193
C88	C	0.422041	-0.393827	-0.028459
C89	C	0.384158	-0.356213	-0.028190
C90	C	0.365526	-0.393828	-0.028456
C91	C	0.384160	-0.412810	-0.028193
C92	C	0.422038	-0.337315	-0.028456
C93	C	0.567000	-0.264532	-0.017949
C94	C	0.602755	-0.246591	-0.015053
C95	C	0.620692	-0.265931	-0.013601
C96	C	0.659455	-0.246483	-0.010453
C97	C	0.602873	-0.303210	-0.015048
C98	C	0.567125	-0.321146	-0.017949
C99	C	0.549188	-0.301805	-0.019399
C100	C	0.339356	-0.549295	-0.017951
C101	C	0.318645	-0.587947	-0.015055
C102	C	0.279915	-0.607338	-0.013597
C103	C	0.257452	-0.649247	-0.010452
C104	C	0.261899	-0.588073	-0.015042
C105	C	0.282613	-0.549422	-0.017945
C106	C	0.321343	-0.530035	-0.019397
C107	C	0.339344	-0.264537	-0.017936
C108	C	0.318628	-0.246599	-0.015032
C109	C	0.279898	-0.265939	-0.013577
C110	C	0.257433	-0.246493	-0.010426
C111	C	0.261884	-0.303217	-0.015022
C112	C	0.282601	-0.321153	-0.017924
C113	C	0.321334	-0.301808	-0.019385
C114	C	0.510421	-0.321258	-0.022542
C115	C	0.479522	-0.336762	-0.025048
C116	C	0.361696	-0.336765	-0.025041
C117	C	0.343793	-0.321261	-0.022532
C118	C	0.361701	-0.454719	-0.025047
C119	C	0.343799	-0.488125	-0.022541
O120	O	0.223728	0.336934	-0.009323
O121	O	0.159726	0.227482	0.009227
O122	O	0.223729	0.291478	-0.054775
O123	O	0.159725	0.272938	0.054678
O124	O	0.275711	0.291477	-0.054771
O125	O	0.211707	0.227481	0.009230
O126	O	0.275710	0.336932	-0.009320
Cu127	Cu	0.248455	0.282206	-0.000045
Cu128	Cu	0.186981	0.282208	-0.000049
O129	O	0.211707	0.272936	0.054681
O130	O	0.763271	0.337164	-0.496871
O131	O	0.672367	0.227713	-0.451422
O132	O	0.672365	0.291711	-0.451418
O133	O	0.763273	0.273165	-0.496876
O134	O	0.672366	0.291712	-0.503402
O135	O	0.672368	0.227714	-0.503407
O136	O	0.763272	0.337165	-0.548856
Cu137	Cu	0.717820	0.282440	-0.530878
Cu138	Cu	0.717819	0.282438	-0.469400
O139	O	0.763275	0.273167	-0.548860
O140	O	0.211690	-0.214417	-0.548617
O141	O	0.275691	-0.168962	-0.503167
O142	O	0.211689	-0.168964	-0.503163
O143	O	0.275692	-0.214415	-0.548621
O144	O	0.159706	-0.220947	-0.451179
O145	O	0.223708	-0.220945	-0.451183
O146	O	0.159707	-0.266400	-0.496633
Cu147	Cu	0.186961	-0.248419	-0.469161
Cu148	Cu	0.248437	-0.186943	-0.530639
O149	O	0.223709	-0.266398	-0.496637
C150	C	-0.005343	-0.412572	0.361558
C151	C	0.013375	-0.393590	0.380456
C152	C	0.051255	-0.355974	0.304961
C153	C	0.069887	-0.337077	0.323944
C154	C	0.051254	-0.355974	0.361560
C155	C	0.013375	-0.393589	0.323943
C156	C	-0.131582	-0.549057	0.396116
C157	C	-0.167336	-0.587709	0.413930
C158	C	-0.185271	-0.607098	0.451205
C159	C	-0.224034	-0.649009	0.470519
C160	C	-0.167452	-0.587833	0.470666
C161	C	-0.131705	-0.549184	0.452854
C162	C	-0.113770	-0.529796	0.415578
C163	C	0.096061	-0.321414	0.453239
C164	C	0.116773	-0.303600	0.471179
C165	C	0.155502	-0.266327	0.451842
C166	C	0.177965	-0.247011	0.471288
C167	C	0.173517	-0.246866	0.414562
C168	C	0.152802	-0.264677	0.396625
C169	C	0.114073	-0.301955	0.415968
C170	C	0.096064	-0.321412	0.168474
C171	C	0.116779	-0.303599	0.129820
C172	C	0.155508	-0.266324	0.110432
C173	C	0.177972	-0.247009	0.068521
C174	C	0.173522	-0.246865	0.129696
C175	C	0.152807	-0.264680	0.168348
C176	C	0.114075	-0.301953	0.187735
C177	C	-0.075004	-0.487887	0.396265
C178	C	-0.044106	-0.454481	0.380871
C179	C	0.073715	-0.336660	0.263052
C180	C	0.091618	-0.321265	0.229646
C181	C	0.073714	-0.336661	0.381009
C182	C	0.091616	-0.321267	0.396513
C183	C	0.051046	-0.022794	-0.361634
C184	C	0.069679	-0.041778	-0.380530
C185	C	-0.005555	-0.079390	-0.305034
C186	C	0.013163	-0.098288	-0.324016
C187	C	0.051045	-0.079393	-0.361631
C188	C	0.013164	-0.041775	-0.324018
C189	C	0.095858	0.113693	-0.396200
C190	C	0.116571	0.152344	-0.414015
C191	C	0.155302	0.171732	-0.451290
C192	C	0.177767	0.213642	-0.470607
C193	C	0.173317	0.152465	-0.470750
C194	C	0.152600	0.113815	-0.452936
C195	C	0.113869	0.094429	-0.415659
C196	C	0.152973	-0.113959	-0.453306
C197	C	0.173810	-0.131775	-0.471245
C198	C	0.155926	-0.169048	-0.451906
C199	C	0.178519	-0.188366	-0.471350
C200	C	0.117198	-0.188507	-0.414626
C201	C	0.096358	-0.170694	-0.396690
C202	C	0.114251	-0.133416	-0.416035
C203	C	-0.131801	-0.113944	-0.168548
C204	C	-0.167554	-0.131755	-0.129895
C205	C	-0.185491	-0.169029	-0.110504
C206	C	-0.224255	-0.188343	-0.068593
C207	C	-0.167671	-0.188490	-0.129767
C208	C	-0.131918	-0.170677	-0.168418
C209	C	-0.113988	-0.133404	-0.187808
C210	C	0.091411	0.052521	-0.396344
C211	C	0.073508	0.019115	-0.380949
C212	C	-0.044320	-0.098701	-0.263125
C213	C	-0.075220	-0.114094	-0.229719
C214	C	0.073641	-0.098707	-0.381079
C215	C	0.091652	-0.114103	-0.396582
C216	C	-0.615853	-0.356193	0.361535
C217	C	-0.634487	-0.393808	0.380433
C218	C	-0.559253	-0.356195	0.304938
C219	C	-0.577972	-0.393810	0.323921
C220	C	-0.615854	-0.412792	0.361537
C221	C	-0.577972	-0.337297	0.323920
C222	C	-0.660661	-0.264512	0.396093
C223	C	-0.681373	-0.246571	0.413906
C224	C	-0.720104	-0.265909	0.451181
C225	C	-0.742568	-0.246461	0.470495
C226	C	-0.738120	-0.303189	0.470643
C227	C	-0.717405	-0.321125	0.452831
C228	C	-0.678674	-0.301785	0.415554
C229	C	-0.717784	-0.549275	0.453218
C230	C	-0.738622	-0.587926	0.471159
C231	C	-0.720740	-0.607319	0.451822
C232	C	-0.743333	-0.649227	0.471268
C233	C	-0.682012	-0.588055	0.414542
C234	C	-0.661170	-0.549403	0.396604
C235	C	-0.679063	-0.530016	0.415946
C236	C	-0.433006	-0.264522	0.168449
C237	C	-0.397253	-0.246585	0.129796
C238	C	-0.379317	-0.265926	0.110407
C239	C	-0.340553	-0.246480	0.068496
C240	C	-0.397138	-0.303204	0.129672
C241	C	-0.432891	-0.321139	0.168324
C242	C	-0.450820	-0.301793	0.187711
C243	C	-0.656216	-0.321238	0.396242
C244	C	-0.638314	-0.336743	0.380848
C245	C	-0.520488	-0.336748	0.263028
C246	C	-0.489588	-0.321245	0.229622
C247	C	-0.638451	-0.454700	0.380987
C248	C	-0.656463	-0.488106	0.396492
C249	C	0.440756	0.310302	-0.361620
C250	C	0.422038	0.310564	-0.380518
C251	C	0.384160	0.310312	-0.305026
C252	C	0.365528	0.310574	-0.324010
C253	C	0.384159	0.310303	-0.361624
C254	C	0.422038	0.310573	-0.324006
C255	C	0.566989	0.300046	-0.396172
C256	C	0.602741	0.297145	-0.413984
C257	C	0.620675	0.295684	-0.451257
C258	C	0.659436	0.292531	-0.470569
C259	C	0.602857	0.297127	-0.470719
C260	C	0.567111	0.300033	-0.452909
C261	C	0.549177	0.301493	-0.415634
C262	C	0.339351	0.300042	-0.453303
C263	C	0.318640	0.297142	-0.471244
C264	C	0.279912	0.295690	-0.451908
C265	C	0.257449	0.292541	-0.471354
C266	C	0.261899	0.297143	-0.414629
C267	C	0.282613	0.300049	-0.396692
C268	C	0.321341	0.301496	-0.416033
C269	C	0.339354	0.300088	-0.168540
C270	C	0.318640	0.297192	-0.129888
C271	C	0.279912	0.295742	-0.110501
C272	C	0.257450	0.292601	-0.068591
C273	C	0.261898	0.297184	-0.129766
C274	C	0.282612	0.300078	-0.168417
C275	C	0.321344	0.301533	-0.187802
C276	C	0.510413	0.304640	-0.396323
C277	C	0.479516	0.307151	-0.380931
C278	C	0.361701	0.307173	-0.263117
C279	C	0.343799	0.304671	-0.229712
C280	C	0.361700	0.307154	-0.381073
C281	C	0.343798	0.304644	-0.396578
O282	O	0.275503	0.336913	-0.548651
O283	O	0.211494	0.227461	-0.503201
O284	O	0.275490	0.291455	-0.503192
O285	O	0.211507	0.272919	-0.548659
O286	O	0.223502	0.291457	-0.451211
O287	O	0.159506	0.227463	-0.451219
O288	O	0.223515	0.336915	-0.496669
Cu289	Cu	0.186764	0.282189	-0.469197
Cu290	Cu	0.248246	0.282187	-0.530672
O291	O	0.159519	0.272921	-0.496677
C292	C	0.051032	0.254111	0.361530
C293	C	0.013154	0.253851	0.380425
C294	C	0.051031	0.254102	0.304932
C295	C	0.013153	0.253842	0.323913
C296	C	-0.005564	0.254113	0.361527
C297	C	0.069663	0.253840	0.323916
C298	C	0.152954	0.264360	0.396096
C299	C	0.173791	0.267260	0.413911
C300	C	0.155906	0.268721	0.451185
C301	C	0.178502	0.271871	0.470501
C302	C	0.117182	0.267279	0.470643
C303	C	0.096345	0.264374	0.452830
C304	C	0.114233	0.262915	0.415555
C305	C	-0.131796	0.264379	0.453195
C306	C	-0.167548	0.267281	0.471133
C307	C	-0.185483	0.268734	0.451793
C308	C	-0.224243	0.271886	0.471236
C309	C	-0.167664	0.267282	0.414515
C310	C	-0.131919	0.264374	0.396581
C311	C	-0.113984	0.262925	0.415925
C312	C	0.152952	0.264325	0.168451
C313	C	0.173792	0.267221	0.129798
C314	C	0.155907	0.268673	0.110407
C315	C	0.178502	0.271814	0.068498
C316	C	0.117186	0.267232	0.129669
C317	C	0.096350	0.264339	0.168320
C318	C	0.114234	0.262881	0.187709
C319	C	0.091638	0.259769	0.396240
C320	C	0.073627	0.257260	0.380845
C321	C	0.073626	0.257242	0.263024
C322	C	0.091636	0.259743	0.229619
C323	C	-0.044324	0.257264	0.380973
C324	C	-0.075221	0.259775	0.396474
H325	H	-0.002524	-0.026519	0.028802
O326	O	0.054288	-0.361617	0.474103
H327	H	0.059866	-0.380603	0.457773
H328	H	0.167543	-0.083608	-0.469060
O329	O	0.110024	-0.021580	0.028946
H330	H	0.119897	0.007822	0.029083
O331	O	-0.452348	-0.243658	0.189357
H332	H	-0.449612	-0.240957	0.213824
O333	O	-0.618889	-0.243653	0.355888
H334	H	-0.592888	-0.217125	0.355217
H335	H	0.370607	-0.083853	-0.468752
H336	H	0.205059	-0.216514	0.113907
O337	O	-0.186776	-0.110767	-0.109121
H338	H	-0.160863	-0.084230	-0.109715
O339	O	0.097874	-0.228699	0.013409
H340	H	0.063933	-0.248387	0.039848
O341	O	-0.007592	-0.021590	-0.303830
H342	H	0.016704	0.004387	-0.302317
O343	O	0.380835	-0.073998	-0.189171
H344	H	0.375309	-0.054961	-0.199916
O345	O	0.325155	0.311142	-0.303823
H346	H	0.297666	0.285331	-0.302311
H347	H	0.370892	0.301275	-0.184323
O348	O	0.338062	-0.206392	-0.013476
H349	H	0.313619	-0.206374	0.013729
H350	H	0.437704	0.310998	-0.308766
H351	H	-0.002298	-0.408829	0.411365
O352	O	0.263179	-0.191681	-0.189437
H353	H	0.254956	-0.175349	-0.200198
H354	H	0.267945	0.301232	-0.366341
H355	H	0.100368	-0.306171	0.308703
H356	H	0.205343	-0.115928	-0.501596
O357	O	0.622440	0.173632	-0.393745
H358	H	0.634638	0.159391	-0.386245
H359	H	-0.447397	-0.351491	0.184007
H360	H	0.100165	-0.026535	-0.411435
O361	O	0.621969	-0.206389	-0.013486
H362	H	0.603487	-0.195956	-0.014977
O363	O	-0.736831	-0.361328	0.473822
H364	H	-0.770780	-0.380975	0.481330
O365	O	0.621963	0.295591	-0.392998
H366	H	0.619225	0.268389	-0.390245
H367	H	-0.666703	-0.216219	0.398058
H368	H	0.370885	0.301223	-0.469054
O369	O	0.097906	-0.228708	-0.393765
H370	H	0.096700	-0.229376	-0.367234
O371	O	-0.187028	-0.228690	0.013393
H372	H	-0.199222	-0.248379	0.039834
H373	H	0.437707	0.310988	-0.411425
H374	H	0.100149	0.253421	0.308676
O375	O	0.215555	0.173135	0.013400
H376	H	0.210038	0.183886	0.037961
O377	O	0.054567	-0.191664	0.019428
H378	H	0.045497	-0.220654	0.018143
H379	H	-0.117212	-0.083598	-0.184336
H380	H	0.102623	0.268466	0.500992
H381	H	-0.770155	-0.603608	0.501511
O382	O	-0.112705	0.262805	0.356378
H383	H	-0.084837	0.260538	0.347158
O384	O	-0.186545	-0.608484	0.392936
H385	H	-0.221855	-0.619233	0.409202
H386	H	-0.117435	-0.186523	0.019040
H387	H	0.332799	-0.116397	-0.501067
O388	O	0.338071	0.295642	-0.109110
H389	H	0.368484	0.297145	-0.129086
H390	H	0.102103	-0.319447	0.501532
O391	O	0.097884	0.173393	0.013382
H392	H	0.096680	0.172851	-0.011944
O393	O	0.215085	0.173373	-0.510953
H394	H	0.242252	0.197840	-0.510915
O395	O	0.097141	0.173121	-0.393025
H396	H	0.088849	0.183867	-0.409294
H397	H	-0.769653	-0.318930	0.500992
H398	H	0.102110	-0.319446	0.114137
O399	O	0.547645	0.301618	-0.355969
H400	H	0.566042	0.300129	-0.345430
H401	H	0.167522	0.263171	0.365746
H402	H	-0.117201	-0.533500	0.468702
H403	H	0.205320	0.268435	0.398066
H404	H	0.267931	-0.351506	-0.019101
O405	O	0.338068	-0.608727	-0.013488
H406	H	0.368474	-0.588753	-0.014981
O407	O	-0.737079	-0.528364	0.474079
H408	H	-0.712570	-0.503892	0.476770
O409	O	0.172029	0.093038	-0.473924
H410	H	0.151116	0.062904	-0.455274
H411	H	0.064825	-0.186540	-0.366338
O412	O	-0.007599	0.253291	0.421363
H413	H	-0.037140	0.253148	0.431370
O414	O	-0.007374	-0.413772	0.303753
H415	H	-0.036913	-0.443173	0.323281
H416	H	0.064523	-0.351759	0.184259
O417	O	0.443022	-0.021333	-0.303805
H418	H	0.477468	-0.012973	-0.319914
H419	H	-0.117412	-0.186525	-0.184100
O420	O	0.054582	0.262819	0.473814
H421	H	0.045647	0.264324	0.502724
O422	O	-0.662718	-0.608965	0.393681
H423	H	-0.683716	-0.639078	0.412414
H424	H	0.552621	-0.351498	-0.019128
H425	H	-0.562304	-0.409050	0.308680
O426	O	0.220110	-0.324080	-0.013451
H427	H	0.211064	-0.353014	-0.014941
O428	O	0.548230	0.093253	-0.356512
H429	H	0.566740	0.113215	-0.346093
H430	H	0.205307	-0.115910	0.013801
O431	O	0.442788	-0.296377	-0.029019
H432	H	0.418487	-0.294701	-0.003209
O433	O	0.219863	-0.228964	-0.109092
H434	H	0.210930	-0.239402	-0.129069
H435	H	0.617482	-0.318952	-0.013867
H436	H	-0.664969	-0.409045	0.411340
O437	O	-0.187014	-0.228694	-0.108857
H438	H	-0.214872	-0.237814	-0.078745
O439	O	-0.557214	-0.296360	0.303725
H440	H	-0.547234	-0.278019	0.319830
O441	O	0.215274	-0.206657	0.393709
H442	H	0.226650	-0.197537	0.412445
O443	O	-0.186793	-0.608744	0.510866
H444	H	-0.214643	-0.638858	0.519982
H445	H	0.167516	0.097925	0.019049
O446	O	0.338060	0.295567	-0.511444
H447	H	0.368465	0.297057	-0.521876
O448	O	-0.378031	-0.206379	0.109017
H449	H	-0.396504	-0.195941	0.128993
O450	O	0.054076	0.092780	-0.356001
H451	H	0.045025	0.112667	-0.345466
H452	H	-0.382532	-0.318952	0.113884
O453	O	-0.619405	-0.528627	0.356397
H454	H	-0.610470	-0.548603	0.345961
O455	O	0.622194	0.295548	-0.510918
H456	H	0.650042	0.293281	-0.520032
O457	O	0.054594	0.093065	0.019383
H458	H	0.045667	0.113044	0.017869
O459	O	0.219862	-0.228964	-0.392993
H460	H	0.208380	-0.238189	-0.411643
H461	H	0.335043	-0.409068	-0.028878
O462	O	0.547889	0.301586	-0.473895
H463	H	0.566361	0.300079	-0.502804
H464	H	0.617485	0.168277	-0.501573
H465	H	0.332793	-0.116391	-0.113952
O466	O	0.220129	0.295578	-0.393769
H467	H	0.208748	0.293310	-0.412502
H468	H	0.167470	-0.248829	0.366274
O469	O	0.215551	0.268770	0.109024
H470	H	0.224483	0.267266	0.129002
O471	O	0.263184	0.301633	-0.189195
H472	H	0.287638	0.328831	-0.213664
O473	O	0.172230	-0.243692	0.189128
H474	H	0.202637	-0.214778	0.169155
O475	O	-0.112242	-0.528145	0.355915
H476	H	-0.130642	-0.548031	0.345378
H477	H	0.230362	0.296001	-0.113978
O478	O	0.442790	-0.414017	-0.029024
H479	H	0.472325	-0.394490	-0.029156
O480	O	0.443023	-0.021335	-0.421441
H481	H	0.423628	-0.040861	-0.431449
H482	H	0.370892	-0.533512	-0.019136
H483	H	-0.002509	-0.129196	-0.308775
O484	O	0.325383	-0.138977	-0.303803
H485	H	0.333135	-0.157312	-0.295447
H486	H	-0.117214	-0.083584	0.019042
O487	O	-0.007602	0.253274	0.303728
H488	H	0.011788	0.253132	0.274328
H489	H	0.167518	0.263140	0.184235
O490	O	0.097891	0.268794	0.108757
H491	H	0.096693	0.294123	0.109281
O492	O	-0.112457	0.262809	0.474059
H493	H	-0.130855	0.264302	0.502994
H494	H	-0.182052	0.268464	0.501484
O495	O	0.381117	-0.243676	-0.019505
H496	H	0.390159	-0.214745	-0.018005
H497	H	-0.182272	0.268459	0.398770
O498	O	0.054583	0.262778	0.189097
H499	H	0.045644	0.264269	0.169123
O500	O	-0.186764	-0.110753	0.013372
H501	H	-0.168278	-0.081837	0.014858
H502	H	-0.002525	-0.129181	0.028805
O503	O	0.263176	-0.191682	-0.355967
H504	H	0.232753	-0.220618	-0.345430
H505	H	0.167506	-0.083593	0.019063
O506	O	0.547892	0.093028	-0.474147
H507	H	0.566294	0.112914	-0.503084
H508	H	0.552400	-0.248780	-0.019131
H509	H	0.267943	-0.533739	-0.019121
O510	O	0.220127	-0.608983	-0.013472
H511	H	0.208747	-0.639097	-0.011209
