data_functionalizedCrystal
_audit_creation_method	'MofGen! by Chris Wilmer'
_symmetry_space_group_name_H-M	'P1'
_symmetry_Int_Tables_number	1
_symmetry_cell_setting	triclinic
loop_
_symmetry_equiv_pos_as_xyz
  x,y,z
_cell_length_a	9.065218
_cell_length_b	16.992695
_cell_length_c	8.140239
_cell_angle_alpha	89.996131
_cell_angle_beta	89.997198
_cell_angle_gamma	87.842054
loop_
_atom_site_label
_atom_site_type_symbol
_atom_site_fract_x
_atom_site_fract_y
_atom_site_fract_z
O1	O	1.971073	0.115065	-0.136620
O2	O	1.542664	0.124504	-0.136623
O3	O	1.755151	0.005630	-0.136608
O4	O	1.758586	0.233939	-0.136634
O5	O	1.755138	0.005628	0.136619
O6	O	1.542651	0.124502	0.136605
O7	O	1.971060	0.115064	0.136607
Zn8	Zn	1.756854	0.119783	0.179986
Zn9	Zn	1.756871	0.119785	-0.180002
O10	O	1.758573	0.233938	0.136593
C11	C	1.487587	0.123596	-0.000009
C12	C	1.323492	0.120884	-0.000010
C13	C	1.750726	-0.023615	0.000005
C14	C	1.737542	-0.110753	0.000005
C15	C	1.864748	-0.160090	0.000007
C16	C	1.852352	-0.241964	-0.000009
C17	C	1.712748	-0.274500	-0.000015
C18	C	1.585533	-0.225157	-0.000022
C19	C	1.597931	-0.143284	-0.000019
C20	C	1.661364	-0.518463	-0.000038
C21	C	1.648976	-0.600343	-0.000037
C22	C	1.915797	-0.617144	-0.000026
C23	C	1.928182	-0.535269	-0.000012
C24	C	1.800967	-0.485933	-0.000029
N25	N	1.700074	-0.358189	-0.000026
N26	N	1.813642	-0.402245	-0.000029
C27	C	2.026138	0.115972	-0.000010
C28	C	2.190232	0.118684	-0.000020
C29	C	1.762998	0.263183	-0.000024
C30	C	1.776182	0.350320	-0.000034
N31	N	1.756853	0.119781	0.425669
N32	N	1.756882	0.119780	-0.425685
H33	H	1.978428	-0.133606	0.000022
C34	C	1.497361	-0.635628	-0.000399
C35	C	1.419923	-0.610662	-0.141002
C36	C	1.280269	-0.643162	-0.141402
H37	H	1.444376	-0.618786	0.094761
H38	H	1.508147	-0.691458	-0.000483
H39	H	1.409131	-0.554844	-0.140903
H40	H	1.472863	-0.627503	-0.236184
H41	H	1.291055	-0.698992	-0.141486
H42	H	1.227298	-0.626318	-0.046236
H43	H	1.227715	-0.626234	-0.236806
H44	H	1.955937	-0.282132	-0.000003
C45	C	2.053961	-0.670671	0.000309
C46	C	2.137442	-0.655846	0.140897
C47	C	2.264724	-0.705146	0.141264
H48	H	2.110978	-0.660744	-0.094861
H49	H	2.026651	-0.724103	0.000392
H50	H	2.164754	-0.602426	0.140799
H51	H	2.080469	-0.665778	0.236090
H52	H	2.237414	-0.758578	0.141347
H53	H	2.321728	-0.695215	0.046088
H54	H	2.321375	-0.695099	0.236658
H55	H	2.041862	-0.508785	-0.000007
C56	C	1.523294	-0.464870	-0.000382
C57	C	1.522592	-0.417387	-0.140975
C58	C	1.395408	-0.368013	-0.141359
H59	H	1.522436	-0.432510	0.094784
H60	H	1.438345	-0.495952	-0.000470
H61	H	1.607519	-0.386308	-0.140873
H62	H	1.523428	-0.449726	-0.236165
H63	H	1.310459	-0.399095	-0.141446
H64	H	1.394561	-0.335658	-0.046187
H65	H	1.394908	-0.335795	-0.236757
H66	H	1.471864	-0.251654	-0.000038
H67	H	1.494345	-0.103114	-0.000021
