data_functionalizedCrystal
_audit_creation_method	'MofGen! by Chris Wilmer'
_symmetry_space_group_name_H-M	'P1'
_symmetry_Int_Tables_number	1
_symmetry_cell_setting	triclinic
loop_
_symmetry_equiv_pos_as_xyz
  x,y,z
_cell_length_a	23.532407
_cell_length_b	15.944551
_cell_length_c	22.010155
_cell_angle_alpha	89.996699
_cell_angle_beta	90.003069
_cell_angle_gamma	83.173708
loop_
_atom_site_label
_atom_site_type_symbol
_atom_site_fract_x
_atom_site_fract_y
_atom_site_fract_z
O1	O	-0.755659	-0.101953	-0.050451
O2	O	-0.255659	0.398047	0.449549
O3	O	-0.589852	-0.116706	-0.050469
O4	O	-0.089852	0.383294	0.449531
O5	O	-0.677283	0.012984	-0.050454
O6	O	-0.177283	0.512984	0.449546
O7	O	-0.668228	-0.231642	-0.050466
O8	O	-0.168228	0.268358	0.449534
O9	O	-0.677267	0.012964	0.050597
O10	O	-0.177267	0.512964	0.550597
O11	O	-0.589837	-0.116726	0.050582
O12	O	-0.089837	0.383274	0.550582
O13	O	-0.755643	-0.101972	0.050600
O14	O	-0.255643	0.398028	0.550600
Cu15	Cu	-0.672738	-0.109351	0.059817
Cu16	Cu	-0.172738	0.390649	0.559817
Cu17	Cu	-0.672757	-0.109328	-0.059686
Cu18	Cu	-0.172757	0.390672	0.440314
O19	O	-0.668212	-0.231662	0.050585
O20	O	-0.168212	0.268338	0.550585
C21	C	-0.568627	-0.116340	0.000054
C22	C	-0.068627	0.383660	0.500054
C23	C	-0.505406	-0.115211	0.000048
C24	C	-0.005406	0.384789	0.500048
C25	C	-0.676899	0.044265	0.000072
C26	C	-0.176899	0.544265	0.500072
C27	C	-0.675772	0.137501	0.000072
C28	C	-0.175772	0.637501	0.500072
C29	C	-0.776868	-0.102338	0.000075
C30	C	-0.276868	0.397662	0.500075
C31	C	-0.840090	-0.103468	0.000078
C32	C	-0.340090	0.396532	0.500078
C33	C	-0.106572	-0.184874	0.000072
C34	C	0.393428	0.315126	0.500072
C35	C	-0.047168	-0.183824	0.000075
C36	C	0.452832	0.316176	0.500075
O37	O	-0.010674	-0.248403	0.000094
O38	O	0.489326	0.251597	0.500094
N39	N	-0.024243	-0.106724	0.000078
N40	N	0.475757	0.393276	0.500078
C41	C	-0.060726	-0.030668	0.000083
C42	C	0.439274	0.469332	0.500083
O43	O	-0.035772	0.035009	0.000087
O44	O	0.464228	0.535009	0.500087
C45	C	-0.120129	-0.031718	0.000084
C46	C	0.379871	0.468282	0.500084
C47	C	-0.143051	-0.108823	0.000075
C48	C	0.356949	0.391177	0.500075
C49	C	-0.129494	-0.261973	0.000063
C50	C	0.370506	0.238027	0.500063
C51	C	-0.188894	-0.263022	0.000059
C52	C	0.311106	0.236978	0.500059
C53	C	-0.225373	-0.186971	0.000062
C54	C	0.274627	0.313029	0.500062
C55	C	-0.202451	-0.109872	0.000070
C56	C	0.297549	0.390128	0.500070
C57	C	-0.156611	0.044337	0.000093
C58	C	0.343389	0.544337	0.500093
C59	C	-0.216018	0.043281	0.000094
C60	C	0.283982	0.543281	0.500094
C61	C	-0.238939	-0.033825	0.000086
C62	C	0.261061	0.466175	0.500086
C63	C	-0.298329	-0.034871	0.000069
C64	C	0.201671	0.465129	0.500069
N65	N	-0.321254	-0.111971	0.000066
N66	N	0.178746	0.388029	0.500066
C67	C	-0.284776	-0.188022	0.000062
C68	C	0.215224	0.311978	0.500062
C69	C	0.064025	-0.028468	0.000083
C70	C	0.564025	0.471532	0.500083
C71	C	0.123427	-0.027417	0.000078
C72	C	0.623427	0.472583	0.500078
C73	C	0.136981	-0.180574	0.000072
C74	C	0.636981	0.319426	0.500072
C75	C	0.077578	-0.181624	0.000072
C76	C	0.577578	0.318376	0.500072
C77	C	0.041100	-0.105569	0.000080
C78	C	0.541100	0.394431	0.500080
C79	C	-0.409521	-0.190219	0.000052
C80	C	0.090479	0.309781	0.500052
C81	C	-0.468927	-0.191261	0.000044
C82	C	0.031073	0.308739	0.500044
C83	C	-0.482476	-0.038104	0.000054
C84	C	0.017524	0.461896	0.500054
C85	C	-0.423075	-0.037062	0.000058
C86	C	0.076925	0.462938	0.500058
C87	C	-0.386599	-0.113126	0.000059
C88	C	0.113401	0.386874	0.500059
O89	O	-0.334859	0.029673	0.000052
O90	O	0.165141	0.529673	0.500052
O91	O	-0.309738	-0.253687	0.000067
O92	O	0.190262	0.246313	0.500067
C93	C	-0.668596	-0.262943	0.000058
C94	C	-0.168596	0.237057	0.500058
C95	C	-0.669723	-0.356179	0.000054
C96	C	-0.169723	0.143821	0.500054
N97	N	-0.672729	-0.109366	0.143870
N98	N	-0.172729	0.390634	0.643870
C99	C	-0.618885	0.351879	0.000057
C100	C	-0.118885	0.851879	0.500057
C101	C	-0.645294	0.413109	0.049884
C102	C	-0.145294	0.913109	0.549884
C103	C	-0.673733	0.308210	0.000067
C104	C	-0.173733	0.808210	0.500067
C105	C	-0.645322	0.413111	-0.049744
C106	C	-0.145322	0.913111	0.450256
C107	C	-0.671760	0.473106	0.000060
C108	C	-0.171760	0.973106	0.500060
C109	C	-0.700157	0.368212	0.049935
C110	C	-0.200157	0.868212	0.549935
C111	C	-0.700178	0.368208	-0.049738
C112	C	-0.200178	0.868208	0.450262
C113	C	-0.726627	0.429421	0.000101
C114	C	-0.226627	0.929421	0.500101
C115	C	-0.674869	0.213217	0.000072
C116	C	-0.174869	0.713217	0.500072
C117	C	-0.670629	0.568097	0.000059
C118	C	-0.170629	1.068097	0.500059
N119	N	-0.672771	-0.109305	-0.143739
N120	N	-0.172771	0.390695	0.356261
C121	C	-0.711474	-0.051909	0.563656
C122	C	-0.211474	0.448091	1.063656
C123	C	-0.711476	-0.051903	0.627263
C124	C	-0.211476	0.448097	1.127263
O125	O	-0.744395	-0.003062	0.660161
O126	O	-0.244395	0.496938	1.160161
N127	N	-0.672757	-0.109310	0.659077
N128	N	-0.172757	0.390690	1.159077
C129	C	-0.634028	-0.166721	0.627280
C130	C	-0.134028	0.333279	1.127280
O131	O	-0.601094	-0.215548	0.660180
O132	O	-0.101094	0.284452	1.160180
C133	C	-0.634023	-0.166722	0.563673
C134	C	-0.134023	0.333278	1.063673
C135	C	-0.672749	-0.109317	0.531863
C136	C	-0.172749	0.390683	1.031863
C137	C	-0.750196	0.005492	0.531846
C138	C	-0.250196	0.505492	1.031846
C139	C	-0.750194	0.005485	0.468242
C140	C	-0.250194	0.505485	0.968242
C141	C	-0.711470	-0.051923	0.436449
C142	C	-0.211470	0.448077	0.936449
C143	C	-0.672747	-0.109324	0.468260
C144	C	-0.172747	0.390676	0.968260
C145	C	-0.595292	-0.224128	0.531877
C146	C	-0.095292	0.275872	1.031877
C147	C	-0.595290	-0.224123	0.468266
C148	C	-0.095290	0.275877	0.968266
C149	C	-0.634016	-0.166719	0.436456
C150	C	-0.134016	0.333281	0.936456
C151	C	-0.634020	-0.166739	0.372864
C152	C	-0.134020	0.333261	0.872864
N153	N	-0.672740	-0.109332	0.341050
N154	N	-0.172740	0.390668	0.841050
C155	C	-0.711465	-0.051924	0.372843
C156	C	-0.211465	0.448076	0.872843
C157	C	-0.634041	-0.166713	0.760857
C158	C	-0.134041	0.333287	1.260857
C159	C	-0.634048	-0.166717	0.824463
C160	C	-0.134048	0.333283	1.324463
C161	C	-0.711496	-0.051898	0.824442
C162	C	-0.211496	0.448102	1.324442
C163	C	-0.711491	-0.051899	0.760836
C164	C	-0.211491	0.448101	1.260836
C165	C	-0.672760	-0.109306	0.729044
C166	C	-0.172760	0.390694	1.229044
C167	C	-0.711458	-0.051944	0.239272
C168	C	-0.211458	0.448056	0.739272
C169	C	-0.711454	-0.051959	0.175663
C170	C	-0.211454	0.448041	0.675663
C171	C	-0.634004	-0.166774	0.175689
C172	C	-0.134004	0.333226	0.675689
C173	C	-0.634010	-0.166763	0.239292
C174	C	-0.134010	0.333237	0.739292
C175	C	-0.672739	-0.109341	0.271082
C176	C	-0.172739	0.390659	0.771082
O177	O	-0.601117	-0.215553	0.339926
O178	O	-0.101117	0.284447	0.839926
O179	O	-0.744388	-0.003097	0.339935
O180	O	-0.244388	0.496903	0.839935
H181	H	-0.487586	-0.254052	0.000037
H182	H	0.012414	0.245948	0.500037
O183	O	-0.592229	-0.228668	0.141383
O184	O	-0.092229	0.271332	0.641383
H185	H	-0.616191	-0.269312	0.112392
H186	H	-0.116191	0.230688	0.612392
O187	O	-0.753252	0.010036	0.726536
O188	O	-0.253252	0.510036	1.226536
H189	H	-0.729271	0.050679	0.697563
H190	H	-0.229271	0.550679	1.197563
O191	O	-0.553534	-0.286076	0.566163
O192	O	-0.053534	0.213924	1.066163
H193	H	-0.509137	-0.275718	0.553960
H194	H	-0.009137	0.224282	1.053960
H195	H	-0.404412	0.025724	0.000057
H196	H	0.095588	0.525724	0.500057
O197	O	-0.753265	0.010018	0.858743
O198	O	-0.253265	0.510018	1.358743
H199	H	-0.780198	0.049934	0.825942
H200	H	-0.280198	0.549934	1.325942
O201	O	-0.614561	0.439473	0.105680
O202	O	-0.114561	0.939473	0.605680
H203	H	-0.577174	0.471240	0.091646
H204	H	-0.077174	0.971240	0.591646
O205	O	-0.614593	0.439483	-0.105539
O206	O	-0.114593	0.939483	0.394461
H207	H	-0.636960	0.420621	-0.146853
H208	H	-0.136960	0.920621	0.353147
O209	O	-0.730850	0.341992	0.105799
O210	O	-0.230850	0.841992	0.605799
H211	H	-0.731423	0.272487	0.105376
H212	H	-0.231423	0.772487	0.605376
O213	O	-0.592243	-0.228683	0.273602
O214	O	-0.092243	0.271317	0.773602
H215	H	-0.616213	-0.269331	0.302581
H216	H	-0.116213	0.230669	0.802581
O217	O	-0.255358	0.125318	0.000102
O218	O	0.244642	0.625318	0.500102
H219	H	-0.282741	0.128498	0.041291
H220	H	0.217259	0.628498	0.541291
H221	H	-0.781726	0.052231	0.442346
H222	H	-0.281726	0.552231	0.942346
O223	O	-0.791970	0.067417	0.566127
O224	O	-0.291970	0.567417	1.066127
H225	H	-0.785474	0.057790	0.615703
H226	H	-0.285474	0.557790	1.115703
H227	H	-0.742991	-0.005213	0.149765
H228	H	-0.242991	0.494787	0.649765
H229	H	-0.602519	-0.213469	0.850358
H230	H	-0.102519	0.286531	1.350358
H231	H	-0.723364	0.348281	-0.091859
H232	H	-0.223364	0.848281	0.408141
H233	H	-0.742994	-0.005185	0.265148
H234	H	-0.242994	0.494815	0.765148
H235	H	-0.563749	-0.270870	0.442384
H236	H	-0.063749	0.229130	0.942384
H237	H	-0.379828	-0.252157	0.000054
H238	H	0.120172	0.247843	0.500054
O239	O	0.148143	0.055750	0.000081
O240	O	0.648143	0.555750	0.500081
H241	H	0.195578	0.043713	0.000078
H242	H	0.695578	0.543713	0.500078
H243	H	-0.602503	-0.213468	0.734976
H244	H	-0.102503	0.286532	1.234976
O245	O	-0.558584	0.307234	0.000121
O246	O	-0.058584	0.807234	0.500121
H247	H	-0.551740	0.267554	-0.041269
H248	H	-0.051740	0.767554	0.458731
O249	O	-0.786983	0.473863	0.000108
O250	O	-0.286983	0.973863	0.500108
H251	H	-0.793610	0.514410	0.041088
H252	H	-0.293610	1.014410	0.541088
O253	O	-0.213614	-0.346185	0.000067
O254	O	0.286386	0.153815	0.500067
H255	H	-0.178261	-0.398884	0.000076
H256	H	0.321739	0.101116	0.500076
O257	O	-0.090153	-0.344005	0.000061
O258	O	0.409847	0.155995	0.500061
H259	H	-0.098310	-0.380908	-0.041132
H260	H	0.401690	0.119092	0.458868
O261	O	0.052856	-0.264786	0.000074
O262	O	0.552856	0.235214	0.500074
H263	H	0.088207	-0.317487	0.000077
H264	H	0.588207	0.182513	0.500077
O265	O	0.176331	-0.262605	0.000078
O266	O	0.676331	0.237395	0.500078
H267	H	0.221487	-0.248914	0.000088
H268	H	0.721487	0.251086	0.500088
H269	H	-0.137960	0.107125	0.000101
H270	H	0.362040	0.607125	0.500101
O271	O	0.024681	0.053568	0.000087
O272	O	0.524681	0.553568	0.500087
H273	H	0.032829	0.090491	-0.041101
H274	H	0.532829	0.590491	0.458899
O275	O	-0.521825	0.043920	0.000066
O276	O	-0.021825	0.543920	0.500066
H277	H	-0.566981	0.030229	0.000072
H278	H	-0.066981	0.530229	0.500072
