data_functionalizedCrystal
_audit_creation_method	'MofGen! by Chris Wilmer'
_symmetry_space_group_name_H-M	'P1'
_symmetry_Int_Tables_number	1
_symmetry_cell_setting	triclinic
loop_
_symmetry_equiv_pos_as_xyz
  x,y,z
_cell_length_a	6.817900
_cell_length_b	11.102288
_cell_length_c	17.982968
_cell_angle_alpha	94.233008
_cell_angle_beta	102.451960
_cell_angle_gamma	108.605689
loop_
_atom_site_label
_atom_site_type_symbol
_atom_site_fract_x
_atom_site_fract_y
_atom_site_fract_z
V1	V	-4.041373	-0.177030	-0.237549
O2	O	-4.001741	0.007282	-0.233027
O3	O	-4.018629	-0.349842	-0.235924
O4	O	-3.987555	-0.174844	-0.341152
O5	O	-4.033030	-0.168927	-0.127070
V6	V	-4.522378	-0.154920	-0.224334
O7	O	-4.308154	-0.225528	-0.266535
O8	O	-4.705794	-0.106422	-0.195348
O9	O	-4.321914	0.017892	-0.225959
O10	O	-4.679407	-0.339232	-0.228857
O11	O	-4.648117	-0.163023	-0.334813
O12	O	-4.352989	-0.157106	-0.120731
C13	C	-3.870047	-0.391953	-0.232177
C14	C	-3.932703	-0.533232	-0.231539
C15	C	-4.145023	-0.606098	-0.235040
C16	C	-4.203886	-0.738847	-0.234447
C17	C	-3.838085	-0.725850	-0.226848
C18	C	-3.779228	-0.593106	-0.227446
C19	C	-3.830408	-0.168724	-0.366404
C20	C	-3.867860	-0.168081	-0.451100
C21	C	-4.068320	-0.174147	-0.494772
C22	C	-4.103498	-0.173542	-0.574352
C23	C	-3.938217	-0.166879	-0.610261
C24	C	-3.737738	-0.160808	-0.566583
C25	C	-3.702558	-0.161405	-0.487003
C26	C	-3.879608	-0.158402	-0.887520
C27	C	-3.914806	-0.157810	-0.967106
C28	C	-4.280548	-0.170538	-0.974869
C29	C	-4.245368	-0.171135	-0.895289
C30	C	-4.044890	-0.165057	-0.851618
C31	C	-4.006747	-0.165712	-0.765327
C32	C	-3.976361	-0.166234	-0.696551
C33	C	-4.133840	0.059996	-0.229704
C34	C	-4.050422	0.201275	-0.230347
C35	C	-4.173479	-0.163230	-0.095475
C36	C	-4.115265	-0.163867	-0.010778
H37	H	-3.713139	-0.774615	-0.223514
C38	C	-3.735548	-0.150829	-1.006159
C39	C	-3.798779	-0.260030	-1.061869
C40	C	-3.633705	-0.253653	-1.097853
H41	H	-3.705130	-0.075922	-1.030151
H42	H	-3.611094	-0.147358	-0.968781
H43	H	-3.923195	-0.263489	-1.099241
H44	H	-3.829178	-0.334954	-1.037897
H45	H	-3.509251	-0.250182	-1.060476
H46	H	-3.603299	-0.178742	-1.121841
H47	H	-3.676576	-0.327749	-1.135652
C48	C	-4.424527	-0.178166	-0.856184
C49	C	-4.361233	-0.068998	-0.800443
C50	C	-4.526208	-0.075435	-0.764397
H51	H	-4.549056	-0.181632	-0.893500
H52	H	-4.454816	-0.253118	-0.832212
H53	H	-4.330973	0.005934	-0.824414
H54	H	-4.236729	-0.065510	-0.763111
H55	H	-4.556497	-0.150387	-0.740425
H56	H	-4.650727	-0.078904	-0.801718
H57	H	-4.483279	-0.001373	-0.726568
C58	C	-3.548567	-0.514008	-0.223482
C59	C	-3.415196	-0.524888	-0.155183
C60	C	-3.202714	-0.452030	-0.151503
H61	H	-3.508079	-0.544849	-0.266401
H62	H	-3.535383	-0.426350	-0.224384
H63	H	-3.428370	-0.612528	-0.154288
H64	H	-3.455616	-0.494040	-0.112252
H65	H	-3.189530	-0.364372	-0.152405
H66	H	-3.162248	-0.482877	-0.194425
H67	H	-3.112198	-0.459393	-0.105159
H68	H	-4.202921	-0.179581	-0.465542
H69	H	-4.269995	-0.557353	-0.238372
H70	H	-4.376774	-0.798169	-0.237300
C71	C	-3.558381	-0.153378	-0.605650
C72	C	-3.514182	-0.042785	-0.640863
C73	C	-3.348990	-0.035911	-0.676867
H74	H	-3.433787	-0.149776	-0.568320
H75	H	-3.600924	-0.227335	-0.643530
H76	H	-3.471630	0.031153	-0.602987
H77	H	-3.638728	-0.046363	-0.678204
H78	H	-3.391533	-0.109868	-0.714747
H79	H	-3.224410	-0.032312	-0.639532
H80	H	-3.318993	0.039119	-0.700769
H81	H	-4.266726	-0.178474	-0.609906
C82	C	-3.485118	-0.155037	-0.439513
C83	C	-3.508003	-0.264892	-0.403851
C84	C	-3.307742	-0.259060	-0.360091
H85	H	-3.391551	-0.151049	-0.472212
H86	H	-3.427329	-0.080552	-0.401307
H87	H	-3.565762	-0.339357	-0.442052
H88	H	-3.601533	-0.268902	-0.371138
H89	H	-3.249953	-0.184575	-0.321885
H90	H	-3.214190	-0.255069	-0.392796
H91	H	-3.323245	-0.333588	-0.335883
H92	H	-4.443787	-0.175482	-1.010436
H93	H	-3.716394	-0.153498	-0.851976
