data_functionalizedCrystal
_audit_creation_method	'MofGen! by Chris Wilmer'
_symmetry_space_group_name_H-M	'P1'
_symmetry_Int_Tables_number	1
_symmetry_cell_setting	triclinic
loop_
_symmetry_equiv_pos_as_xyz
  x,y,z
_cell_length_a	12.827893
_cell_length_b	16.625546
_cell_length_c	12.827885
_cell_angle_alpha	89.964876
_cell_angle_beta	89.980538
_cell_angle_gamma	90.022439
loop_
_atom_site_label
_atom_site_type_symbol
_atom_site_fract_x
_atom_site_fract_y
_atom_site_fract_z
Zn1	Zn	1.597620	-0.320963	-0.590810
Zn2	Zn	2.097620	0.179037	-0.090810
Zn3	Zn	1.597492	-0.455817	-0.416054
Zn4	Zn	2.097492	0.044183	0.083946
Zn5	Zn	1.422861	-0.321002	-0.416084
Zn6	Zn	1.922861	0.178998	0.083916
Zn7	Zn	1.422825	-0.455757	-0.590754
Zn8	Zn	1.922825	0.044243	-0.090754
O9	O	1.510200	-0.388385	-0.503425
O10	O	2.010200	0.111615	-0.003425
O11	O	1.743839	-0.338861	-0.567639
O12	O	2.243839	0.161139	-0.067639
O13	O	1.574288	-0.437976	-0.269822
O14	O	2.074288	0.062024	0.230178
O15	O	1.446112	-0.208165	-0.439297
O16	O	1.946112	0.291835	0.060703
O17	O	1.743745	-0.437937	-0.439247
O18	O	2.243745	0.062063	0.060753
O19	O	1.574507	-0.208136	-0.567668
O20	O	2.074507	0.291864	-0.067668
O21	O	1.445988	-0.338928	-0.269843
O22	O	1.945988	0.161072	0.230157
O23	O	1.276620	-0.338869	-0.439243
O24	O	1.776620	0.161131	0.060757
O25	O	1.446051	-0.437835	-0.736997
O26	O	1.946051	0.062165	-0.236997
O27	O	1.276594	-0.437873	-0.567572
O28	O	1.776594	0.062127	-0.067572
O29	O	1.574472	-0.338802	-0.737039
O30	O	2.074472	0.161198	-0.237039
O31	O	1.574254	-0.568642	-0.439192
O32	O	2.074254	-0.068642	0.060808
O33	O	1.445927	-0.568598	-0.567544
O34	O	1.945927	-0.068598	-0.067544
C35	C	1.238690	-0.388370	-0.503405
C36	C	1.738690	0.111630	-0.003405
C37	C	1.122537	-0.388382	-0.503422
C38	C	1.622537	0.111618	-0.003422
C39	C	1.070766	-0.437449	-0.566825
C40	C	1.570766	0.062551	-0.066825
C41	C	0.950716	-0.437464	-0.566844
C42	C	1.450716	0.062536	-0.066844
C43	C	1.510101	-0.597876	-0.503382
C44	C	2.010101	-0.097876	-0.003382
C45	C	1.510154	-0.687497	-0.503398
C46	C	2.010154	-0.187497	-0.003398
C47	C	1.510336	-1.015673	-0.503507
C48	C	2.010336	-0.515673	-0.003507
C49	C	1.510282	-0.924364	-0.503479
C50	C	2.010282	-0.424364	-0.003479
C51	C	1.510244	-0.851588	-0.503452
C52	C	2.010244	-0.351588	-0.003452
C53	C	1.510192	-0.760274	-0.503425
C54	C	2.010192	-0.260274	-0.003425
C55	C	1.782770	-0.388401	-0.503446
C56	C	2.282770	0.111599	-0.003446
C57	C	1.898923	-0.388408	-0.503455
C58	C	2.398923	0.111592	-0.003455
C59	C	1.510272	-0.388308	-0.775996
C60	C	2.010272	0.111692	-0.275996
C61	C	1.510302	-0.388275	-0.892149
C62	C	2.010302	0.111725	-0.392149
C63	C	1.510327	-0.178076	-0.503492
C64	C	2.010327	0.321924	-0.003492
C65	C	1.510382	-0.088455	-0.503521
C66	C	2.010382	0.411545	-0.003521
C67	C	1.446835	-0.339253	-0.943944
C68	C	1.946835	0.160747	-0.443944
C69	C	1.446866	-0.339218	-1.063995
C70	C	1.946866	0.160782	-0.563995
C71	C	1.510188	-0.388404	-0.231915
C72	C	2.010188	0.111596	0.268085
C73	C	1.510360	-0.388210	-0.115763
C74	C	2.010360	0.111790	0.384237
H75	H	0.906195	-0.479474	-0.621123
H76	H	1.406195	0.020526	-0.121123
C77	C	1.373449	-0.282527	-1.124160
C78	C	1.873449	0.217473	-0.624160
H79	H	1.383091	-0.289947	-1.196954
H80	H	1.883091	0.210053	-0.696954
H81	H	1.388742	-0.228342	-1.106346
H82	H	1.888742	0.271658	-0.606346
H83	H	1.303207	-0.294330	-1.106310
H84	H	1.803207	0.205670	-0.606310
H85	H	1.077982	-0.346382	-0.449157
H86	H	1.577982	0.153618	0.050843
C87	C	0.959047	-0.331652	-0.430118
C88	C	1.459047	0.168348	0.069882
H89	H	0.910979	-0.300881	-0.390347
H90	H	1.410979	0.199119	0.109653
H91	H	1.001658	-0.296583	-0.470207
H92	H	1.501658	0.203417	0.029793
H93	H	1.001592	-0.362483	-0.384540
H94	H	1.501592	0.137517	0.115460
H95	H	1.564660	-0.430219	-0.936682
H96	H	2.064660	0.069781	-0.436682
C97	C	1.373400	-0.282588	-0.883795
C98	C	1.873400	0.217412	-0.383795
H99	H	1.383019	-0.290041	-0.810998
H100	H	1.883019	0.209959	-0.310998
H101	H	1.303167	-0.294362	-0.901621
H102	H	1.803167	0.205638	-0.401621
H103	H	1.388726	-0.228393	-0.901648
H104	H	1.888726	0.271607	-0.401648
H105	H	1.564703	-0.430178	-1.071227
H106	H	2.064703	0.069822	-0.571227
H107	H	1.115321	-0.479444	-0.621098
H108	H	1.615321	0.020556	-0.121098
