data_functionalizedCrystal
_audit_creation_method	'MofGen! by Chris Wilmer'
_symmetry_space_group_name_H-M	'P1'
_symmetry_Int_Tables_number	1
_symmetry_cell_setting	triclinic
loop_
_symmetry_equiv_pos_as_xyz
  x,y,z
_cell_length_a	17.077404
_cell_length_b	13.897448
_cell_length_c	13.897441
_cell_angle_alpha	89.970373
_cell_angle_beta	89.980344
_cell_angle_gamma	90.017917
loop_
_atom_site_label
_atom_site_type_symbol
_atom_site_fract_x
_atom_site_fract_y
_atom_site_fract_z
Zn1	Zn	1.200084	-0.383988	-0.545408
Zn2	Zn	1.700084	0.116012	-0.045408
Zn3	Zn	1.200003	-0.545307	-0.384110
Zn4	Zn	1.700003	-0.045307	0.115890
Zn5	Zn	1.068816	-0.384028	-0.384124
Zn6	Zn	1.568816	0.115972	0.115876
Zn7	Zn	1.068796	-0.545243	-0.545359
Zn8	Zn	1.568796	-0.045243	-0.045359
O9	O	1.134425	-0.464641	-0.464750
O10	O	1.634425	0.035359	0.035250
O11	O	1.309920	-0.405397	-0.524026
O12	O	1.809920	0.094603	-0.024026
O13	O	1.182575	-0.523956	-0.249130
O14	O	1.682575	-0.023956	0.250870
O15	O	1.086271	-0.249041	-0.405545
O16	O	1.586271	0.250959	0.094455
O17	O	1.309860	-0.523917	-0.405521
O18	O	1.809860	-0.023917	0.094479
O19	O	1.182713	-0.249011	-0.524040
O20	O	1.682713	0.250989	-0.024040
O21	O	1.086192	-0.405465	-0.249140
O22	O	1.586192	0.094535	0.250860
O23	O	0.958966	-0.405404	-0.405497
O24	O	1.458966	0.094596	0.094503
O25	O	1.086237	-0.523809	-0.680348
O26	O	1.586237	-0.023809	-0.180348
O27	O	0.958952	-0.523848	-0.523957
O28	O	1.458952	-0.023848	-0.023957
O29	O	1.182694	-0.405335	-0.680384
O30	O	1.682694	0.094665	-0.180384
O31	O	1.182556	-0.680280	-0.405474
O32	O	1.682556	-0.180280	0.094526
O33	O	1.086158	-0.680233	-0.523943
O34	O	1.586158	-0.180233	-0.023943
C35	C	0.930477	-0.464624	-0.464724
C36	C	1.430477	0.035376	0.035276
C37	C	0.843227	-0.464639	-0.464735
C38	C	1.343227	0.035361	0.035265
C39	C	0.802250	-0.526406	-0.526318
C40	C	1.302250	-0.026406	-0.026318
C41	C	0.720269	-0.526408	-0.526333
C42	C	1.220269	-0.026408	-0.026333
C43	C	0.679268	-0.464648	-0.464761
C44	C	1.179268	0.035352	0.035239
C45	C	0.720250	-0.402874	-0.403175
C46	C	1.220250	0.097126	0.096825
C47	C	0.802229	-0.402868	-0.403165
C48	C	1.302229	0.097132	0.096835
C49	C	0.549380	-0.402893	-0.403198
C50	C	1.049380	0.097107	0.096802
C51	C	0.467396	-0.402900	-0.403207
C52	C	0.967396	0.097100	0.096793
C53	C	0.467420	-0.526434	-0.526366
C54	C	0.967420	-0.026434	-0.026366
C55	C	0.549399	-0.526427	-0.526357
C56	C	1.049399	-0.026427	-0.026357
C57	C	0.590377	-0.464655	-0.464770
C58	C	1.090377	0.035345	0.035230
C59	C	1.134367	-0.715256	-0.464722
C60	C	1.634367	-0.215256	0.035278
C61	C	1.134415	-0.822469	-0.464743
C62	C	1.634415	-0.322469	0.035257
C63	C	1.134497	-1.018765	-0.464803
C64	C	1.634497	-0.518765	0.035197
C65	C	1.134449	-0.909532	-0.464773
C66	C	1.634449	-0.409532	0.035227
C67	C	1.339169	-0.464659	-0.464778
C68	C	1.839169	0.035341	0.035222
C69	C	1.426419	-0.464667	-0.464789
C70	C	1.926419	0.035333	0.035211
C71	C	1.134473	-0.464560	-0.716344
C72	C	1.634473	0.035440	-0.216344
C73	C	1.134493	-0.464526	-0.823558
C74	C	1.634493	0.035474	-0.323558
C75	C	1.134504	-0.213048	-0.464800
C76	C	1.634504	0.286952	0.035200
C77	C	1.134537	-0.105834	-0.464820
C78	C	1.634537	0.394166	0.035180
C79	C	1.134509	-0.464498	-0.910627
C80	C	1.634509	0.035502	-0.410627
C81	C	1.134532	-0.464455	-1.019860
C82	C	1.634532	0.035545	-0.519860
C83	C	1.134422	-0.464652	-0.214136
C84	C	1.634422	0.035348	0.285864
C85	C	1.134554	-0.464415	-0.106923
C86	C	1.634554	0.035585	0.393077
H87	H	0.434014	-0.352598	-0.353080
H88	H	0.934014	0.147402	0.146920
O89	O	0.842110	-0.586504	-0.585994
O90	O	1.342110	-0.086504	-0.085994
C91	C	0.934679	-0.716706	-0.598743
C92	C	1.434679	-0.216706	-0.098743
C93	C	0.889575	-0.648723	-0.531045
C94	C	1.389575	-0.148723	-0.031045
H95	H	0.973077	-0.767013	-0.554345
H96	H	1.473077	-0.267013	-0.054345
H97	H	0.891341	-0.760920	-0.642745
H98	H	1.391341	-0.260920	-0.142745
H99	H	0.973051	-0.672458	-0.649271
H100	H	1.473051	-0.172458	-0.149271
H101	H	0.851202	-0.692896	-0.480459
H102	H	1.351202	-0.192896	0.019541
H103	H	0.932956	-0.604505	-0.487111
H104	H	1.432956	-0.104505	0.012889
O105	O	0.680555	-0.586373	-0.586282
O106	O	1.180555	-0.086373	-0.086282
C107	C	0.655497	-0.633398	-0.750276
C108	C	1.155497	-0.133398	-0.250276
C109	C	0.700533	-0.565436	-0.682492
C110	C	1.200533	-0.065436	-0.182492
H111	H	0.671620	-0.616482	-0.828076
H112	H	1.171620	-0.116482	-0.328076
H113	H	0.671615	-0.711165	-0.733261
H114	H	1.171615	-0.211165	-0.233261
H115	H	0.589865	-0.622818	-0.739665
H116	H	1.089865	-0.122818	-0.239665
H117	H	0.766175	-0.575931	-0.693065
H118	H	1.266175	-0.075931	-0.193065
H119	H	0.684349	-0.487694	-0.699523
H120	H	1.184349	0.012306	-0.199523
H121	H	0.582742	-0.352583	-0.353056
H122	H	1.082742	0.147417	0.146944
H123	H	0.582781	-0.576724	-0.576489
H124	H	1.082781	-0.076724	-0.076489
H125	H	0.434053	-0.576728	-0.576516
H126	H	0.934053	-0.076728	-0.076516
H127	H	0.686860	-0.352583	-0.353046
H128	H	1.186860	0.147417	0.146954
H129	H	0.835592	-0.352566	-0.353023
H130	H	1.335592	0.147434	0.146977
