data_functionalizedCrystal
_audit_creation_method	'MofGen! by Chris Wilmer'
_symmetry_space_group_name_H-M	'P1'
_symmetry_Int_Tables_number	1
_symmetry_cell_setting	triclinic
loop_
_symmetry_equiv_pos_as_xyz
  x,y,z
_cell_length_a	25.639239
_cell_length_b	18.215407
_cell_length_c	18.215399
_cell_angle_alpha	90.017777
_cell_angle_beta	89.969965
_cell_angle_gamma	89.965694
loop_
_atom_site_label
_atom_site_type_symbol
_atom_site_fract_x
_atom_site_fract_y
_atom_site_fract_z
Zn1	Zn	-0.208217	-1.125001	-0.416065
Zn2	Zn	-0.295653	-1.124880	-0.292994
Zn3	Zn	-0.208227	-1.001934	-0.293017
Zn4	Zn	-0.295617	-1.001870	-0.416023
O5	O	-0.251929	-1.063421	-0.354525
O6	O	-0.219827	-1.227969	-0.399747
O7	O	-0.284075	-1.108547	-0.190013
O8	O	-0.135060	-1.018336	-0.309366
O9	O	-0.284066	-1.227880	-0.309327
O10	O	-0.135053	-1.108754	-0.399769
O11	O	-0.219844	-1.018219	-0.190029
O12	O	-0.219808	-0.898941	-0.309326
O13	O	-0.284004	-1.018228	-0.519013
O14	O	-0.284013	-0.898894	-0.399698
O15	O	-0.219792	-1.108692	-0.519044
O16	O	-0.368814	-1.108485	-0.309287
O17	O	-0.368787	-1.018110	-0.399676
C18	C	-0.251908	-0.872215	-0.354510
C19	C	-0.251912	-0.790416	-0.354522
C20	C	-0.218527	-0.602268	-0.401676
C21	C	-0.218530	-0.525409	-0.401678
C22	C	-0.285322	-0.525327	-0.307379
C23	C	-0.285316	-0.602184	-0.307374
C24	C	-0.251920	-0.640653	-0.354527
C25	C	-0.251928	-0.486937	-0.354534
C26	C	-0.251931	-0.403603	-0.354535
C27	C	-0.251916	-0.723992	-0.354524
C28	C	-0.387771	-1.063298	-0.354491
C29	C	-0.445885	-1.063312	-0.354501
C30	C	-0.806250	-1.110602	-0.307539
C31	C	-0.860854	-1.110631	-0.307549
O32	O	-0.889092	-1.150710	-0.267583
N33	N	-0.888168	-1.063551	-0.354573
C34	C	-0.860874	-1.016444	-0.401596
O35	O	-0.889121	-0.976402	-0.441596
C36	C	-0.806271	-1.016420	-0.401590
C37	C	-0.778960	-1.063498	-0.354557
C38	C	-0.778939	-1.157677	-0.260511
C39	C	-0.724338	-1.157647	-0.260500
C40	C	-0.697049	-1.110543	-0.307518
C41	C	-0.724359	-1.063468	-0.354546
C42	C	-0.778978	-0.969318	-0.448616
C43	C	-0.724371	-0.969298	-0.448605
C44	C	-0.697061	-1.016376	-0.401573
C45	C	-0.642469	-1.016334	-0.401553
N46	N	-0.615156	-1.063414	-0.354529
C47	C	-0.642445	-1.110519	-0.307511
C48	C	-0.975545	-1.016500	-0.401608
C49	C	-1.030147	-1.016520	-0.401611
C50	C	-1.030123	-1.110707	-0.307565
C51	C	-0.975520	-1.110683	-0.307558
C52	C	-0.948231	-1.063580	-0.354583
C53	C	-0.527780	-1.110452	-0.307492
C54	C	-0.473175	-1.110416	-0.307484
C55	C	-0.473204	-1.016232	-0.401532
C56	C	-0.527804	-1.016265	-0.401539
C57	C	-0.555091	-1.063381	-0.354516
O58	O	-0.614197	-0.976277	-0.441501
O59	O	-0.614192	-1.150561	-0.267526
C60	C	-0.115556	-1.063566	-0.354575
C61	C	-0.057441	-1.063627	-0.354596
C62	C	-0.251893	-1.063466	-0.546478
C63	C	-0.251877	-1.063485	-0.628277
C64	C	-0.251944	-0.255374	-0.354538
C65	C	-0.251936	-0.337173	-0.354539
C66	C	-0.218411	-1.110607	-0.816488
C67	C	-0.218395	-1.110616	-0.893346
C68	C	-0.285263	-1.016416	-0.893303
C69	C	-0.285275	-1.016404	-0.816446
C70	C	-0.251850	-1.063504	-0.778040
C71	C	-0.251822	-1.063524	-0.931756
C72	C	-0.251806	-1.063533	-1.015090
C73	C	-0.251865	-1.063494	-0.694701
C74	C	-0.251927	-1.063419	-0.163318
C75	C	-0.251795	-1.063543	-0.081520
H76	H	-0.312512	-0.493997	-0.268989
N77	N	-0.319400	-0.968311	-0.932547
N78	N	-0.319386	-0.968328	-1.001169
H79	H	-0.343497	-0.934354	-1.028885
N80	N	-0.445330	-0.968122	-0.449571
N81	N	-0.469717	-0.926094	-0.491565
H82	H	-0.450031	-0.892119	-0.525498
N83	N	-0.445270	-1.158503	-0.259443
N84	N	-0.396518	-1.158470	-0.259431
H85	H	-0.376811	-1.192428	-0.225502
N86	N	-0.696453	-1.205743	-0.212454
N87	N	-0.720834	-1.247794	-0.170482
H88	H	-0.701144	-1.281766	-0.136548
H89	H	-0.191332	-0.633586	-0.440069
H90	H	-0.191192	-1.148956	-0.785220
H91	H	-0.191338	-0.494159	-0.440071
N92	N	-0.184247	-1.158743	-0.932619
N93	N	-0.202641	-1.205626	-0.975506
H94	H	-0.178522	-1.239619	-1.003242
N95	N	-0.319434	-0.968276	-0.777179
N96	N	-0.349277	-0.926230	-0.811477
H97	H	-0.373399	-0.892239	-0.783745
H98	H	-0.312508	-0.633438	-0.268975
H99	H	-0.549991	-1.148821	-0.269204
N100	N	-0.696490	-0.921179	-0.496630
N101	N	-0.647737	-0.921153	-0.496618
H102	H	-0.628046	-0.887168	-0.530533
H103	H	-0.801152	-1.196039	-0.222223
N104	N	-0.555703	-0.968183	-0.449588
N105	N	-0.586125	-0.994070	-0.496519
H106	H	-0.605825	-0.960116	-0.530461
H107	H	-0.953286	-1.149018	-0.269260
H108	H	-1.052352	-1.149065	-0.269283
H109	H	-1.052379	-0.978177	-0.439903
N110	N	-0.947680	-0.968374	-0.449648
N111	N	-0.972079	-0.926346	-0.491628
H112	H	-0.952403	-0.892358	-0.525559
H113	H	-0.801206	-0.930978	-0.486911
