data_functionalizedCrystal
_audit_creation_method	'MofGen! by Chris Wilmer'
_symmetry_space_group_name_H-M	'P1'
_symmetry_Int_Tables_number	1
_symmetry_cell_setting	triclinic
loop_
_symmetry_equiv_pos_as_xyz
  x,y,z
_cell_length_a	6.817900
_cell_length_b	17.458045
_cell_length_c	14.858572
_cell_angle_alpha	94.437862
_cell_angle_beta	104.524003
_cell_angle_gamma	106.367962
loop_
_atom_site_label
_atom_site_type_symbol
_atom_site_fract_x
_atom_site_fract_y
_atom_site_fract_z
V1	V	-4.053376	-0.111069	-0.290790
O2	O	-4.024959	0.004820	-0.284404
O3	O	-4.019545	-0.219734	-0.289619
O4	O	-4.009815	-0.109588	-0.417241
O5	O	-4.034756	-0.106089	-0.155900
V6	V	-4.534489	-0.097181	-0.274557
O7	O	-4.319921	-0.141535	-0.326400
O8	O	-4.718142	-0.066715	-0.238948
O9	O	-4.345114	0.011484	-0.275728
O10	O	-4.680303	-0.213070	-0.280943
O11	O	-4.670506	-0.102161	-0.409448
O12	O	-4.354843	-0.098662	-0.148106
C13	C	-3.867933	-0.246217	-0.285243
C14	C	-3.921591	-0.335054	-0.285129
C15	C	-3.763955	-0.372713	-0.280403
C16	C	-3.814378	-0.456183	-0.280284
C17	C	-4.022443	-0.501993	-0.284898
C18	C	-4.180088	-0.464328	-0.289621
C19	C	-4.129660	-0.380858	-0.289733
C20	C	-4.192866	-0.752067	-0.285058
C21	C	-4.243285	-0.835542	-0.284948
C22	C	-3.877569	-0.827392	-0.275609
C23	C	-3.827160	-0.743922	-0.275727
C24	C	-3.984806	-0.706263	-0.280445
N25	N	-4.073990	-0.587313	-0.284780
N26	N	-3.933255	-0.620943	-0.280557
C27	C	-3.855521	-0.105714	-0.448036
C28	C	-3.901285	-0.105222	-0.551415
C29	C	-4.068783	-0.103423	-0.929970
C30	C	-4.022172	-0.103923	-0.824644
C31	C	-3.985036	-0.104323	-0.740696
C32	C	-3.938421	-0.104822	-0.635363
C33	C	-4.160068	0.037963	-0.280102
C34	C	-4.085648	0.126798	-0.280222
C35	C	-4.172480	-0.102539	-0.117307
C36	C	-4.105954	-0.103027	-0.013926
H37	H	-4.321243	-0.721416	-0.288907
H38	H	-3.594535	-0.335421	-0.276653
H39	H	-3.686003	-0.486840	-0.276422
H40	H	-3.657735	-0.706628	-0.271966
H41	H	-3.749228	-0.858062	-0.271766
H42	H	-4.412720	-0.872839	-0.288705
H43	H	-4.349499	-0.501632	-0.293373
H44	H	-4.258024	-0.350197	-0.293576
