data_functionalizedCrystal
_audit_creation_method	'MofGen! by Chris Wilmer'
_symmetry_space_group_name_H-M	'P1'
_symmetry_Int_Tables_number	1
_symmetry_cell_setting	triclinic
loop_
_symmetry_equiv_pos_as_xyz
  x,y,z
_cell_length_a	29.999520
_cell_length_b	29.998686
_cell_length_c	29.995014
_cell_angle_alpha	60.005185
_cell_angle_beta	60.010401
_cell_angle_gamma	59.993433
loop_
_atom_site_label
_atom_site_type_symbol
_atom_site_fract_x
_atom_site_fract_y
_atom_site_fract_z
O1	O	0.061772	-0.651300	0.544623
O2	O	0.023267	-0.507084	0.438819
O3	O	0.114589	-0.598332	0.438743
O4	O	-0.029550	-0.560051	0.544699
O5	O	0.144886	-0.568039	0.468961
O6	O	0.053564	-0.476791	0.469038
O7	O	0.092069	-0.621007	0.574841
Zn8	Zn	0.077627	-0.544089	0.526737
Zn9	Zn	0.037709	-0.584002	0.486923
O10	O	0.000748	-0.529758	0.574918
N11	N	0.104871	-0.516854	0.553912
N12	N	0.010470	-0.611242	0.459748
C13	C	0.143162	-0.478782	0.827124
C14	C	0.378203	-0.478734	0.591892
C15	C	0.143005	-0.478752	0.591997
C16	C	0.142986	-0.243586	0.592008
C17	C	0.180857	-0.357087	0.629814
C18	C	0.180866	-0.440920	0.629807
C19	C	0.201840	-0.419964	0.650755
C20	C	0.293272	-0.404201	0.602606
C21	C	0.350426	-0.423248	0.583534
C22	C	0.350451	-0.515727	0.618798
C23	C	0.293297	-0.496678	0.637872
C24	C	0.194628	-0.328499	0.573626
C25	C	0.175551	-0.271340	0.554591
C26	C	0.128936	-0.271362	0.647935
C27	C	0.148014	-0.328521	0.666970
C28	C	0.124672	-0.427119	0.643641
C29	C	0.105611	-0.446170	0.624592
C30	C	0.198934	-0.492820	0.577889
C31	C	0.217998	-0.473770	0.596931
C32	C	0.124740	-0.427136	0.742229
C33	C	0.105728	-0.446202	0.799386
C34	C	0.199085	-0.492863	0.799337
C35	C	0.218096	-0.473798	0.742178
C36	C	0.180923	-0.440933	0.713626
C37	C	0.264710	-0.440915	0.629773
C38	C	0.121509	-0.499370	0.889991
C39	C	0.441068	-0.498953	0.570621
C40	C	0.121297	-0.499349	0.571429
C41	C	0.121653	-0.180715	0.571802
C42	C	-0.111071	-0.648912	0.421584
C43	C	-0.027286	-0.649018	0.421777
C44	C	-0.048200	-0.669944	0.400740
C45	C	-0.064036	-0.761340	0.448814
C46	C	-0.045033	-0.818500	0.467893
C47	C	0.047447	-0.818609	0.432797
C48	C	0.028444	-0.761451	0.413717
C49	C	-0.139731	-0.662677	0.477755
C50	C	-0.196885	-0.643554	0.496701
C51	C	-0.196717	-0.596907	0.403303
C52	C	-0.139562	-0.616030	0.384357
C53	C	-0.041053	-0.592827	0.407952
C54	C	-0.022041	-0.573809	0.427083
C55	C	0.024504	-0.667167	0.473848
C56	C	0.005492	-0.686188	0.454725
C57	C	-0.040886	-0.592836	0.309259
C58	C	-0.021740	-0.573821	0.252102
C59	C	0.024886	-0.667185	0.252163
C60	C	0.005743	-0.686199	0.309322
C61	C	-0.027145	-0.649023	0.337868
C62	C	-0.027299	-0.732818	0.421728
N63	N	0.492511	-0.516826	0.553742
O64	O	0.679283	-0.525926	0.419277
O65	O	0.679465	-0.632059	0.563349
O66	O	0.679393	-0.631817	0.471975
O67	O	0.679355	-0.526168	0.510650
O68	O	0.588593	-0.601610	0.502313
O69	O	0.588665	-0.601852	0.593686
O70	O	0.588483	-0.495720	0.449614
Zn71	Zn	0.574158	-0.543990	0.526467
Zn72	Zn	0.693790	-0.583788	0.486496
O73	O	0.588555	-0.495962	0.540987
N74	N	0.775436	-0.610952	0.459215
N75	N	0.104844	-0.129269	0.553931
O76	O	-0.029548	0.057600	0.544709
O77	O	0.114530	0.057617	0.438578
O78	O	0.023130	0.057594	0.438850
O79	O	0.061852	0.057623	0.544437
O80	O	0.053431	-0.033213	0.469115
O81	O	0.144831	-0.033190	0.468843
O82	O	0.000753	-0.033207	0.574974
Zn83	Zn	0.077603	-0.047616	0.526714
Zn84	Zn	0.037680	0.072026	0.486838
O85	O	0.092153	-0.033184	0.574702
N86	N	0.010432	0.153679	0.459622
N87	N	0.105130	-0.516904	0.941437
O88	O	0.095923	-0.651280	1.128292
O89	O	-0.010184	-0.507155	1.128318
O90	O	-0.009938	-0.598539	1.128284
O91	O	0.095677	-0.559897	1.128326
O92	O	0.020315	-0.568257	1.037481
O93	O	0.020068	-0.476874	1.037515
O94	O	0.126176	-0.620999	1.037489
Zn95	Zn	0.077925	-0.544128	1.023085
Zn96	Zn	0.038066	-0.584026	1.142722
O97	O	0.125929	-0.529616	1.037523
N98	N	0.010860	-0.611256	1.224371
C99	C	0.034807	-0.473765	0.439352
C100	C	0.147897	-0.586765	0.439257
C101	C	0.080529	-0.654326	0.574308
C102	C	-0.032561	-0.541326	0.574403
C103	C	0.634087	-0.631571	0.596668
C104	C	0.633999	-0.631272	0.483513
C105	C	0.633858	-0.496206	0.416295
C106	C	0.633949	-0.496507	0.529449
C107	C	0.147793	0.012327	0.439058
C108	C	0.034644	0.012187	0.439432
C109	C	-0.032548	0.012195	0.574457
C110	C	0.080639	0.012222	0.574120
C111	C	-0.009670	-0.473857	1.082920
C112	C	-0.009359	-0.587018	1.082860
C113	C	0.125662	-0.654297	1.082887
C114	C	0.125358	-0.541129	1.082927
H115	H	0.094465	-0.400370	0.718985
O116	O	0.633694	-0.456401	0.366978
C117	C	0.586648	-0.410415	0.374218
H118	H	0.553819	-0.423603	0.414210
H119	H	0.570819	-0.390874	0.338822
H120	H	0.597262	-0.379584	0.375475
O121	O	0.634039	-0.670936	0.473727
C122	C	0.634091	-0.718060	0.520601
H123	H	0.651303	-0.717585	0.546657
H124	H	0.660467	-0.755956	0.507780
H125	H	0.590547	-0.718743	0.545268
O126	O	0.633910	-0.456963	0.539416
C127	C	0.633982	-0.476859	0.593069
H128	H	0.616832	-0.511927	0.618903
H129	H	0.607614	-0.442674	0.611458
H130	H	0.677555	-0.492064	0.592232
O131	O	0.197074	0.012661	0.399257
C132	C	0.231036	0.012762	0.418866
H133	H	0.204776	0.029775	0.454040
H134	H	0.256978	0.039339	0.384581
H135	H	0.258816	-0.030743	0.433831
H136	H	0.026351	0.012184	0.406260
H137	H	-0.073925	0.012190	0.607776
O138	O	0.164959	-0.531211	1.082837
C139	C	0.177476	-0.486988	1.035824
H140	H	0.165478	-0.482684	1.002951
H141	H	0.223155	-0.494681	1.020039
H142	H	0.153919	-0.447841	1.046467
O143	O	0.051131	-0.432720	0.827082
C144	C	0.022402	-0.399634	0.789621
H145	H	0.049642	-0.378852	0.748872
H146	H	-0.015736	-0.367297	0.806151
H147	H	0.010069	-0.425999	0.783548
H148	H	-0.073962	-0.533167	0.607674
H149	H	0.026581	-0.432337	0.406123
O150	O	0.272603	-0.487229	0.583450
C151	C	0.301290	-0.520288	0.550329
H152	H	0.274044	-0.541088	0.557642
H153	H	0.339464	-0.552612	0.561000
H154	H	0.313560	-0.493899	0.505563
H155	H	0.088756	-0.695753	0.607538
O156	O	0.235271	-0.524793	0.826984
C157	C	0.288935	-0.532864	0.789479
H158	H	0.288804	-0.526475	0.748744
H159	H	0.316096	-0.576212	0.805972
H160	H	0.305301	-0.502435	0.783392
H161	H	0.634133	-0.664888	0.638048
H162	H	0.088930	0.012231	0.607291
O163	O	-0.072746	-0.556704	0.336970
C164	C	-0.043874	-0.523701	0.323061
H165	H	0.001851	-0.545820	0.307419
H166	H	-0.054146	-0.515056	0.360666
H167	H	-0.055981	-0.483542	0.289852
H168	H	-0.042983	-0.432464	1.082928
O169	O	-0.048909	-0.596948	1.082871
C170	C	-0.061474	-0.641154	1.129880
H171	H	-0.025402	-0.667309	1.145591
H172	H	-0.070182	-0.666936	1.119257
H173	H	-0.098997	-0.624966	1.162805
O174	O	0.272663	-0.487107	0.714335
C175	C	0.286454	-0.439079	0.681284
H176	H	0.248775	-0.403164	0.672742
H177	H	0.319581	-0.444184	0.641081
H178	H	0.302160	-0.431051	0.703301
O179	O	0.088529	-0.395193	0.675549
C180	C	0.034843	-0.387107	0.683680
H181	H	0.034923	-0.393485	0.649223
H182	H	0.007700	-0.343760	0.683995
H183	H	0.018494	-0.417537	0.724395
O184	O	0.051036	-0.432865	0.638049
C185	C	0.037251	-0.480898	0.666827
H186	H	0.074922	-0.516805	0.656496
H187	H	0.004094	-0.475788	0.654680
H188	H	0.021588	-0.488940	0.712574
H189	H	0.158977	-0.695688	1.082873
H190	H	0.229173	-0.519573	0.551126
O191	O	-0.111742	-0.602728	0.329784
C192	C	-0.125674	-0.622239	0.305980
H193	H	-0.141444	-0.657454	0.338498
H194	H	-0.088050	-0.637121	0.272332
H195	H	-0.158792	-0.587919	0.287861
O196	O	0.265466	-0.532273	0.664291
C197	C	0.208889	-0.503502	0.679379
H198	H	0.201082	-0.463365	0.681839
H199	H	0.187191	-0.529170	0.720896
H200	H	0.192646	-0.494709	0.647605
O201	O	0.378140	-0.569916	0.626724
C202	C	0.340674	-0.598236	0.654779
H203	H	0.299939	-0.573307	0.678214
H204	H	0.357215	-0.639456	0.684604
H205	H	0.334574	-0.604847	0.624206
H206	H	-0.032937	-0.528066	0.228816
O207	O	0.197281	-0.596584	0.399578
C208	C	0.207037	-0.640761	0.386961
H209	H	0.181524	-0.666992	0.423065
H210	H	0.252172	-0.666475	0.378102
H211	H	0.195306	-0.624538	0.349513
H212	H	0.373680	-0.393351	0.561411
O213	O	0.188948	-0.243507	0.500019
C214	C	0.217725	-0.210450	0.486198
H215	H	0.207435	-0.201896	0.523863
H216	H	0.205539	-0.170252	0.453062
H217	H	0.263469	-0.232471	0.470490
O218	O	0.265589	-0.350018	0.594715
C219	C	0.303058	-0.321699	0.566632
H220	H	0.343813	-0.351034	0.573211
H221	H	0.286552	-0.287229	0.582817
H222	H	0.309109	-0.303933	0.521161
H223	H	0.221368	-0.351757	0.543370
H224	H	0.136793	-0.351798	0.712725
O225	O	0.097099	-0.243664	0.684076
C226	C	0.125993	-0.257613	0.717088
H227	H	0.159274	-0.299110	0.717637
H228	H	0.096690	-0.259574	0.760440
H229	H	0.145379	-0.225436	0.699884
O230	O	0.056761	-0.703351	0.224498
C231	C	0.027876	-0.736335	0.238389
H232	H	-0.005447	-0.736845	0.279849
H233	H	0.057174	-0.779703	0.240397
H234	H	0.008546	-0.719128	0.206155
O235	O	-0.072974	-0.556696	0.376033
C236	C	-0.120922	-0.523596	0.404828
H237	H	-0.128944	-0.545650	0.450568
H238	H	-0.156887	-0.514910	0.394515
H239	H	-0.115705	-0.483462	0.392686
O240	O	0.018995	-0.740769	0.337172
C241	C	-0.029060	-0.754516	0.370137
H242	H	-0.064962	-0.716818	0.378644
H243	H	-0.024024	-0.787655	0.410362
H244	H	-0.037051	-0.770191	0.348063
H245	H	-0.033252	-0.528055	0.415829
H246	H	0.051198	-0.697438	0.500669
H247	H	0.016700	-0.731943	0.465981
H248	H	0.058362	-0.738230	0.391661
H249	H	0.092838	-0.841923	0.426277
H250	H	-0.074948	-0.841721	0.489940
O251	O	-0.118172	-0.733546	0.456507
C252	C	-0.135567	-0.747503	0.430771
H253	H	-0.099028	-0.763267	0.397052
H254	H	-0.166985	-0.709890	0.412377
H255	H	-0.154754	-0.780636	0.462072
O256	O	-0.112138	-0.694592	0.513988
C257	C	-0.149691	-0.702646	0.567631
H258	H	-0.190405	-0.668147	0.567454
H259	H	-0.133231	-0.702964	0.594828
H260	H	-0.155805	-0.743339	0.583988
O261	O	-0.224791	-0.656946	0.551256
C262	C	-0.257851	-0.685677	0.564985
H263	H	-0.266337	-0.675359	0.527267
H264	H	-0.298079	-0.673470	0.598076
H265	H	-0.235872	-0.731433	0.580714
H266	H	-0.219915	-0.570138	0.372989
