data_functionalizedCrystal
_audit_creation_method	'MofGen! by Chris Wilmer'
_symmetry_space_group_name_H-M	'P1'
_symmetry_Int_Tables_number	1
_symmetry_cell_setting	triclinic
loop_
_symmetry_equiv_pos_as_xyz
  x,y,z
_cell_length_a	23.532407
_cell_length_b	27.732048
_cell_length_c	22.610064
_cell_angle_alpha	89.999096
_cell_angle_beta	89.997161
_cell_angle_gamma	82.745667
loop_
_atom_site_label
_atom_site_type_symbol
_atom_site_fract_x
_atom_site_fract_y
_atom_site_fract_z
O1	O	0.755138	0.058672	-0.049117
O2	O	1.255138	0.558672	0.450883
O3	O	0.589257	0.067162	-0.049135
O4	O	1.089257	0.567162	0.450865
O5	O	0.677349	-0.007472	-0.049114
O6	O	1.177349	0.492528	0.450886
O7	O	0.667046	0.133306	-0.049138
O8	O	1.167046	0.633306	0.450862
O9	O	0.677334	-0.007461	0.049255
O10	O	1.177334	0.492539	0.549255
O11	O	0.589241	0.067173	0.049234
O12	O	1.089241	0.567173	0.549234
O13	O	0.755123	0.058683	0.049252
O14	O	1.255123	0.558683	0.549252
Zn15	Zn	0.672179	0.062930	0.064861
Zn16	Zn	1.172179	0.562930	0.564861
Zn17	Zn	0.672200	0.062915	-0.064744
Zn18	Zn	1.172200	0.562915	0.435256
O19	O	0.667030	0.133317	0.049231
O20	O	1.167030	0.633317	0.549231
C21	C	0.568033	0.066952	0.000047
C22	C	1.068033	0.566952	0.500047
C23	C	0.504818	0.066302	0.000041
C24	C	1.004818	0.566302	0.500041
C25	C	0.105629	0.106391	0.000061
C26	C	0.605629	0.606391	0.500061
C27	C	0.046230	0.105787	0.000064
C28	C	0.546230	0.605787	0.500064
O29	O	0.009406	0.142951	0.000080
O30	O	0.509406	0.642951	0.500080
N31	N	0.023699	0.061418	0.000071
N32	N	0.523699	0.561418	0.500071
C33	C	0.060570	0.017649	0.000080
C34	C	0.560570	0.517649	0.500080
O35	O	0.035951	-0.020147	0.000086
O36	O	0.535951	0.479853	0.500086
C37	C	0.119967	0.018253	0.000080
C38	C	0.619967	0.518253	0.500080
C39	C	0.142495	0.062626	0.000068
C40	C	0.642495	0.562626	0.500068
C41	C	0.128158	0.150760	0.000049
C42	C	0.628158	0.650760	0.500049
C43	C	0.187552	0.151364	0.000044
C44	C	0.687552	0.651364	0.500044
C45	C	0.224419	0.107599	0.000051
C46	C	0.724419	0.607599	0.500051
C47	C	0.201890	0.063229	0.000063
C48	C	0.701890	0.563229	0.500063
C49	C	0.156837	-0.025515	0.000093
C50	C	0.656837	0.474485	0.500093
C51	C	0.216239	-0.024907	0.000094
C52	C	0.716239	0.475093	0.500094
C53	C	0.238766	0.019466	0.000082
C54	C	0.738766	0.519466	0.500082
C55	C	0.298151	0.020068	0.000065
C56	C	0.798151	0.520068	0.500065
N57	N	0.320683	0.064437	0.000059
N58	N	0.820683	0.564437	0.500059
C59	C	0.283817	0.108203	0.000052
C60	C	0.783817	0.608203	0.500052
C61	C	-0.064170	0.016383	0.000080
C62	C	0.435830	0.516383	0.500080
C63	C	-0.123567	0.015778	0.000075
C64	C	0.376433	0.515778	0.500075
C65	C	-0.137902	0.103917	0.000061
C66	C	0.362098	0.603917	0.500061
C67	C	-0.078505	0.104521	0.000061
C68	C	0.421495	0.604521	0.500061
C69	C	-0.041639	0.060753	0.000073
C70	C	0.458361	0.560753	0.500073
C71	C	0.408551	0.109467	0.000041
C72	C	0.908551	0.609467	0.500041
C73	C	0.467951	0.110067	0.000034
C74	C	0.967951	0.610067	0.500034
C75	C	0.482282	0.021928	0.000051
C76	C	0.982282	0.521928	0.500051
C77	C	0.422886	0.021328	0.000055
C78	C	0.922886	0.521328	0.500055
C79	C	0.386021	0.065102	0.000052
C80	C	0.886021	0.565102	0.500052
O81	O	0.335010	-0.017077	0.000052
O82	O	0.835010	0.482923	0.500052
O83	O	0.308444	0.145992	0.000053
O84	O	0.808444	0.645992	0.500053
C85	C	0.677125	-0.025473	0.000072
C86	C	1.177125	0.474527	0.500072
C87	C	0.676474	-0.079129	0.000077
C88	C	1.176474	0.420871	0.500077
C89	C	0.724431	-0.417871	0.000052
C90	C	1.224431	0.082129	0.500052
C91	C	0.722014	-0.619534	0.000043
C92	C	1.222014	-0.119534	0.500043
O93	O	0.765867	-0.650722	0.000022
O94	O	1.265867	-0.150722	0.500022
N95	N	0.669779	-0.638738	0.000038
N96	N	1.169779	-0.138738	0.500038
C97	C	0.618144	-0.607523	0.000031
C98	C	1.118144	-0.107523	0.500031
O99	O	0.573659	-0.628484	0.000020
O100	O	1.073659	-0.128484	0.500020
C101	C	0.620561	-0.405860	0.000035
C102	C	1.120561	0.094140	0.500035
C103	C	0.672800	-0.386659	0.000046
C104	C	1.172800	0.113341	0.500046
C105	C	0.776665	-0.398669	0.000062
C106	C	1.276665	0.101331	0.500062
C107	C	0.777269	-0.348256	0.000067
C108	C	1.277269	0.151744	0.500067
C109	C	0.725638	-0.317045	0.000062
C110	C	1.225638	0.182955	0.500062
C111	C	0.673403	-0.336247	0.000052
C112	C	1.173403	0.163753	0.500052
C113	C	0.568927	-0.374646	0.000024
C114	C	1.068927	0.125354	0.500024
C115	C	0.569536	-0.324228	0.000024
C116	C	1.069536	0.175772	0.500024
C117	C	0.621775	-0.305027	0.000035
C118	C	1.121775	0.194973	0.500035
C119	C	0.622376	-0.254622	0.000052
C120	C	1.122376	0.245378	0.500052
N121	N	0.674611	-0.235418	0.000057
N122	N	1.174611	0.264582	0.500057
C123	C	0.726242	-0.266630	0.000062
C124	C	1.226242	0.233370	0.500062
C125	C	0.616879	-0.713399	0.000030
C126	C	1.116879	-0.213399	0.500030
C127	C	0.616274	-0.763814	0.000030
C128	C	1.116274	-0.263814	0.500030
C129	C	0.720145	-0.775822	0.000041
C130	C	1.220145	-0.275822	0.500041
C131	C	0.720749	-0.725406	0.000045
C132	C	1.220749	-0.225406	0.500045
C133	C	0.669114	-0.694195	0.000035
C134	C	1.169114	-0.194195	0.500035
C135	C	0.727506	-0.160758	0.000074
C136	C	1.227506	0.339242	0.500074
C137	C	0.728105	-0.110341	0.000082
C138	C	1.228105	0.389659	0.500082
C139	C	0.624235	-0.098337	0.000068
C140	C	1.124235	0.401663	0.500068
C141	C	0.623635	-0.148751	0.000063
C142	C	1.123635	0.351249	0.500063
C143	C	0.675276	-0.179961	0.000064
C144	C	1.175276	0.320039	0.500064
O145	O	0.578547	-0.223406	0.000066
O146	O	1.078547	0.276594	0.500066
O147	O	0.770721	-0.245659	0.000060
O148	O	1.270721	0.254341	0.500060
C149	C	0.723827	-0.468283	0.000046
C150	C	1.223827	0.031717	0.500046
C151	C	0.671593	-0.487485	0.000036
C152	C	1.171593	0.012515	0.500036
C153	C	0.619962	-0.456274	0.000030
C154	C	1.119962	0.043726	0.500030
C155	C	0.670988	-0.537900	0.000036
C156	C	1.170988	-0.037900	0.500036
C157	C	0.722619	-0.569112	0.000041
C158	C	1.222619	-0.069112	0.500041
C159	C	0.774855	-0.549908	0.000046
C160	C	1.274855	-0.049908	0.500046
C161	C	0.775458	-0.499495	0.000051
C162	C	1.275458	0.000505	0.500051
C163	C	0.567727	-0.475478	0.000025
C164	C	1.067727	0.024522	0.500025
C165	C	0.567127	-0.525891	0.000021
C166	C	1.067127	-0.025891	0.500021
C167	C	0.618758	-0.557103	0.000026
C168	C	1.118758	-0.057103	0.500026
C169	C	0.776346	0.058894	0.000068
C170	C	1.276346	0.558894	0.500068
C171	C	0.839562	0.059544	0.000071
C172	C	1.339562	0.559544	0.500071
C173	C	0.667254	0.151319	0.000044
C174	C	1.167254	0.651319	0.500044
C175	C	0.667905	0.204975	0.000035
C176	C	1.167905	0.704975	0.500035
N177	N	0.672170	0.062939	0.153314
N178	N	1.172170	0.562939	0.653314
N179	N	0.672214	0.062902	-0.153197
N180	N	1.172214	0.562902	0.346803
C181	C	0.711209	0.029873	0.561964
C182	C	1.211209	0.529873	1.061964
C183	C	0.711212	0.029869	0.623884
C184	C	1.211212	0.529869	1.123884
O185	O	0.744380	0.001762	0.655911
O186	O	1.244380	0.501762	1.155911
N187	N	0.672200	0.062905	0.654851
N188	N	1.172200	0.562905	1.154851
C189	C	0.633178	0.095944	0.623894
C190	C	1.133178	0.595944	1.123894
O191	O	0.599995	0.124044	0.655919
O192	O	1.099995	0.624044	1.155919
C193	C	0.633173	0.095945	0.561975
C194	C	1.133173	0.595945	1.061975
C195	C	0.672191	0.062910	0.531012
C196	C	1.172191	0.562910	1.031012
C197	C	0.750224	-0.003160	0.531001
C198	C	1.250224	0.496840	1.031001
C199	C	0.750222	-0.003156	0.469085
C200	C	1.250222	0.496844	0.969085
C201	C	0.711204	0.029881	0.438133
C202	C	1.211204	0.529881	0.938133
C203	C	0.672189	0.062914	0.469096
C204	C	1.172189	0.562914	0.969096
C205	C	0.594149	0.128981	0.531020
C206	C	1.094149	0.628981	1.031020
C207	C	0.594146	0.128979	0.469097
C208	C	1.094146	0.628979	0.969097
C209	C	0.633165	0.095944	0.438134
C210	C	1.133165	0.595944	0.938134
C211	C	0.633169	0.095955	0.376229
C212	C	1.133169	0.595955	0.876229
N213	N	0.672182	0.062919	0.345262
N214	N	1.172182	0.562919	0.845262
C215	C	0.711199	0.029882	0.376214
C216	C	1.211199	0.529882	0.876214
C217	C	0.633191	0.095939	0.753928
C218	C	1.133191	0.595939	1.253928
C219	C	0.633198	0.095941	0.815846
C220	C	1.133198	0.595941	1.315846
C221	C	0.711232	0.029865	0.815831
C222	C	1.211232	0.529865	1.315831
C223	C	0.711227	0.029866	0.753912
C224	C	1.211227	0.529866	1.253912
C225	C	0.672203	0.062903	0.722961
C226	C	1.172203	0.562903	1.222961
C227	C	0.711192	0.029894	0.246187
C228	C	1.211192	0.529894	0.746187
C229	C	0.711187	0.029902	0.184266
C230	C	1.211187	0.529902	0.684266
C231	C	0.633152	0.095976	0.184286
C232	C	1.133152	0.595976	0.684286
C233	C	0.633158	0.095969	0.246201
C234	C	1.133158	0.595969	0.746201
C235	C	0.672180	0.062924	0.277150
C236	C	1.172180	0.562924	0.777150
O237	O	0.600016	0.124047	0.344163
O238	O	1.100016	0.624047	0.844163
O239	O	0.744372	0.001783	0.344182
O240	O	1.244372	0.501783	0.844182
H241	H	0.246253	-0.060550	0.000104
H242	H	0.746253	0.439450	0.500104
C243	C	0.776938	-0.810160	0.000037
C244	C	1.276938	-0.310160	0.500037
H245	H	0.769091	-0.842934	0.000029
H246	H	1.269091	-0.342934	0.500029
H247	H	0.798380	-0.804372	0.034338
H248	H	1.298380	-0.304372	0.534338
H249	H	0.798373	-0.804364	-0.034273
H250	H	1.298373	-0.304364	0.465727
C251	C	0.793150	-0.039502	0.565039
C252	C	1.293150	0.460498	1.065039
H253	H	0.816385	-0.059169	0.537722
H254	H	1.316385	0.440831	1.037722
H255	H	0.772854	-0.059541	0.589199
H256	H	1.272854	0.440459	1.089199
H257	H	0.816709	-0.022212	0.589186
H258	H	1.316709	0.477788	1.089186
C259	C	0.567444	-0.064001	0.000058
C260	C	1.067444	0.435999	0.500058
H261	H	0.536244	-0.082654	0.000055
H262	H	1.036244	0.417346	0.500055
H263	H	0.565533	-0.044085	-0.034245
H264	H	1.065533	0.455915	0.465755
H265	H	0.565514	-0.044085	0.034366
H266	H	1.065514	0.455915	0.534366
H267	H	0.817996	-0.483866	0.000060
H268	H	1.317996	0.016134	0.500060
H269	H	0.781993	-0.030058	0.443879
H270	H	1.281993	0.469942	0.943879
H271	H	0.601391	0.122874	0.271412
H272	H	1.101391	0.622874	0.771412
C273	C	0.785570	-0.089222	0.000091
C274	C	1.285570	0.410778	0.500091
H275	H	0.816231	-0.115034	0.000086
H276	H	1.316231	0.384966	0.500086
H277	H	0.787962	-0.069807	0.034395
H278	H	1.287962	0.430193	0.534395
H279	H	0.787969	-0.069804	-0.034216
H280	H	1.287969	0.430196	0.465784
H281	H	0.512309	-0.013704	0.000054
H282	H	1.012309	0.486296	0.500054
H283	H	0.601432	0.122847	0.841052
H284	H	1.101432	0.622847	1.341052
C285	C	-0.178460	0.152060	0.000057
C286	C	0.321540	0.652060	0.500057
H287	H	-0.156540	0.178575	0.000048
H288	H	0.343460	0.678575	0.500048
H289	H	-0.201931	0.153657	0.034361
H290	H	0.298069	0.653657	0.534361
H291	H	-0.201928	0.153650	-0.034250
H292	H	0.298072	0.653650	0.465750
H293	H	0.601415	0.122846	0.728730
H294	H	1.101415	0.622846	1.228730
H295	H	0.562367	0.155881	0.443900
H296	H	1.062367	0.655881	0.943900
H297	H	0.742963	0.003001	0.159057
H298	H	1.242963	0.503001	0.659057
C299	C	0.212328	0.200173	0.000035
C300	C	0.712328	0.700173	0.500035
H301	H	0.252984	0.194271	0.000030
H302	H	0.752984	0.694271	0.500030
H303	H	0.199643	0.218184	0.034335
H304	H	0.699643	0.718184	0.534335
H305	H	0.199646	0.218175	-0.034276
H306	H	0.699646	0.718175	0.465724
H307	H	0.562376	0.155881	0.556222
H308	H	1.062376	0.655881	1.056222
H309	H	0.601386	0.122876	0.159075
H310	H	1.101386	0.622876	0.659075
H311	H	0.742966	0.002985	0.271379
H312	H	1.242966	0.502985	0.771379
H313	H	0.742999	0.002966	0.728706
H314	H	1.242999	0.502966	1.228706
H315	H	0.769556	-0.186164	0.000073
H316	H	1.269556	0.313836	0.500073
H317	H	0.138506	-0.061648	0.000104
H318	H	0.638506	0.438352	0.500104
C319	C	0.492729	0.158879	0.000023
C320	C	0.992729	0.658879	0.500023
H321	H	0.462262	0.184856	0.000026
H322	H	0.962262	0.684856	0.500026
H323	H	0.515602	0.160945	-0.034282
H324	H	1.015602	0.660945	0.465718
H325	H	0.515600	0.160950	0.034330
H326	H	1.015600	0.660950	0.534330
H327	H	0.743002	0.002964	0.841044
H328	H	1.243002	0.502964	1.341044
C329	C	0.398104	-0.027480	0.000062
C330	C	0.898104	0.472520	0.500062
H331	H	0.428570	-0.053458	0.000067
H332	H	0.928570	0.446542	0.500067
H333	H	0.375228	-0.029552	-0.034237
H334	H	0.875228	0.470448	0.465763
H335	H	0.375235	-0.029544	0.034375
H336	H	0.875235	0.470456	0.534375
H337	H	0.574829	-0.687991	0.000022
H338	H	1.074829	-0.187991	0.500022
C339	C	0.368008	0.157617	0.000030
C340	C	0.868008	0.657617	0.500030
H341	H	0.389939	0.184124	0.000016
H342	H	0.889939	0.684124	0.500016
H343	H	0.344535	0.159225	0.034332
H344	H	0.844535	0.659225	0.534332
H345	H	0.344543	0.159208	-0.034279
H346	H	0.844543	0.659208	0.465721
H347	H	0.819807	-0.332628	0.000074
H348	H	1.319807	0.167372	0.500074
C349	C	0.833464	-0.432994	0.000073
C350	C	1.333464	0.067006	0.500073
H351	H	0.864655	-0.414331	0.000083
H352	H	1.364655	0.085669	0.500083
H353	H	0.835403	-0.452914	-0.034228
H354	H	1.335403	0.047086	0.465772
H355	H	0.835383	-0.452908	0.034383
H356	H	1.335383	0.047092	0.534383
H357	H	0.098146	0.186402	0.000045
H358	H	0.598146	0.686402	0.500045
H359	H	-0.141903	-0.020355	0.000076
H360	H	0.358097	0.479645	0.500076
H361	H	-0.060167	0.140653	0.000054
H362	H	0.439833	0.640653	0.500054
H363	H	-0.034156	-0.019261	0.000084
H364	H	0.465844	0.480739	0.500084
H365	H	0.581099	-0.164385	0.000070
H366	H	1.081099	0.335615	0.500070
C367	C	0.778210	-0.704289	0.000052
C368	C	1.278210	-0.204289	0.500052
H369	H	0.808870	-0.730102	0.000052
H370	H	1.308870	-0.230102	0.500052
H371	H	0.780603	-0.684870	0.034354
H372	H	1.280603	-0.184870	0.534354
H373	H	0.780613	-0.684874	-0.034257
H374	H	1.280613	-0.184874	0.465743
H375	H	0.573737	-0.779443	0.000031
H376	H	1.073737	-0.279443	0.500031
C377	C	0.511464	-0.395756	0.000007
C378	C	1.011464	0.104244	0.500007
H379	H	0.480806	-0.369941	-0.000004
H380	H	0.980806	0.130059	0.499996
H381	H	0.509053	-0.415175	0.034307
H382	H	1.009053	0.084825	0.534307
H383	H	0.509075	-0.415170	-0.034305
H384	H	1.009075	0.084830	0.465695
C385	C	0.512736	-0.289899	0.000015
C386	C	1.012736	0.210101	0.500015
H387	H	0.481542	-0.308558	0.000012
H388	H	0.981542	0.191442	0.500012
H389	H	0.510818	-0.269980	-0.034287
H390	H	1.010818	0.230020	0.465713
H391	H	0.510805	-0.269985	0.034325
H392	H	1.010805	0.230015	0.534325
C393	C	0.831647	-0.584246	0.000047
C394	C	1.331647	-0.084246	0.500047
H395	H	0.823800	-0.617020	0.000038
H396	H	1.323800	-0.117020	0.500038
H397	H	0.853086	-0.578458	0.034351
H398	H	1.353086	-0.078458	0.534351
H399	H	0.853087	-0.578451	-0.034260
H400	H	1.353087	-0.078451	0.465740
H401	H	0.525681	-0.450070	0.000020
H402	H	1.025681	0.049930	0.500020
C403	C	0.509661	-0.547007	0.000006
C404	C	1.009661	-0.047007	0.500006
H405	H	0.479001	-0.521194	-0.000002
H406	H	0.979001	-0.021194	0.499998
H407	H	0.507252	-0.566428	0.034305
H408	H	1.007252	-0.066428	0.534305
H409	H	0.507274	-0.566419	-0.034307
H410	H	1.007274	-0.066419	0.465693
