data_functionalizedCrystal
_audit_creation_method	'MofGen! by Chris Wilmer'
_symmetry_space_group_name_H-M	'P1'
_symmetry_Int_Tables_number	1
_symmetry_cell_setting	triclinic
loop_
_symmetry_equiv_pos_as_xyz
  x,y,z
_cell_length_a	27.732064
_cell_length_b	27.732048
_cell_length_c	18.266242
_cell_angle_alpha	89.988683
_cell_angle_beta	89.998592
_cell_angle_gamma	82.646040
loop_
_atom_site_label
_atom_site_type_symbol
_atom_site_fract_x
_atom_site_fract_y
_atom_site_fract_z
O1	O	0.640925	0.057556	-0.060758
O2	O	0.974258	0.390889	0.272575
O3	O	1.307592	0.724223	0.605909
O4	O	0.500133	0.066293	-0.060789
O5	O	0.833466	0.399626	0.272544
O6	O	1.166799	0.732960	0.605877
O7	O	0.574901	-0.008472	-0.060759
O8	O	0.908235	0.324861	0.272574
O9	O	1.241568	0.658195	0.605908
O10	O	0.566156	0.132321	-0.060789
O11	O	0.899489	0.465654	0.272545
O12	O	1.232823	0.798988	0.605878
O13	O	0.574889	-0.008476	0.061003
O14	O	0.908222	0.324858	0.394336
O15	O	1.241556	0.658191	0.727670
O16	O	0.500120	0.066289	0.060973
O17	O	0.833453	0.399623	0.394306
O18	O	1.166787	0.732956	0.727639
O19	O	0.640912	0.057552	0.061004
O20	O	0.974246	0.390885	0.394337
O21	O	1.307579	0.724219	0.727671
Zn22	Zn	0.570514	0.061920	0.080321
Zn23	Zn	0.903848	0.395253	0.413654
Zn24	Zn	1.237181	0.728587	0.746987
Zn25	Zn	0.570531	0.061925	-0.080106
Zn26	Zn	0.903864	0.395258	0.253227
Zn27	Zn	1.237197	0.728592	0.586561
O28	O	0.566144	0.132317	0.060973
O29	O	0.899477	0.465651	0.394307
O30	O	1.232810	0.798984	0.727640
C31	C	0.482120	0.066106	0.000088
C32	C	0.815453	0.399440	0.333421
C33	C	1.148786	0.732773	0.666755
C34	C	0.428465	0.065551	0.000077
C35	C	0.761798	0.398884	0.333410
C36	C	1.095132	0.732217	0.666743
C37	C	0.051392	0.017583	0.000128
C38	C	0.384726	0.350917	0.333462
C39	C	0.718059	0.684250	0.666795
C40	C	0.253053	0.019630	0.000109
C41	C	0.586386	0.352963	0.333442
C42	C	0.919719	0.686296	0.666776
O43	O	0.284305	-0.017591	0.000144
O44	O	0.617639	0.315742	0.333477
O45	O	0.950972	0.649075	0.666811
N46	N	0.272180	0.063964	0.000096
N47	N	0.605513	0.397297	0.333430
N48	N	0.938847	0.730631	0.666763
C49	C	0.240889	0.107790	0.000093
C50	C	0.574222	0.441123	0.333427
C51	C	0.907556	0.774456	0.666760
O52	O	0.261785	0.145546	0.000090
O53	O	0.595119	0.478879	0.333423
O54	O	0.928452	0.812212	0.666756
C55	C	0.039230	0.105743	0.000118
C56	C	0.372563	0.439076	0.333451
C57	C	0.705896	0.772410	0.666785
C58	C	0.020105	0.061406	0.000123
C59	C	0.353439	0.394739	0.333457
C60	C	0.686772	0.728072	0.666790
C61	C	0.032267	-0.026750	0.000134
C62	C	0.365601	0.306583	0.333468
C63	C	0.698934	0.639916	0.666801
C64	C	-0.018145	-0.027261	0.000135
C65	C	0.315189	0.306072	0.333469
C66	C	0.648522	0.639405	0.666802
C67	C	-0.049432	0.016561	0.000130
C68	C	0.283901	0.349895	0.333463
C69	C	0.617235	0.683228	0.666797
C70	C	-0.030307	0.060895	0.000124
C71	C	0.303027	0.394228	0.333457
C72	C	0.636360	0.727561	0.666791
C73	C	0.007940	0.149568	0.000120
C74	C	0.341273	0.482902	0.333454
C75	C	0.674606	0.816235	0.666787
C76	C	-0.042478	0.149053	0.000128
C77	C	0.290855	0.482386	0.333462
C78	C	0.624189	0.815719	0.666795
C79	C	-0.061602	0.104716	0.000134
C80	C	0.271731	0.438049	0.333467
C81	C	0.605064	0.771382	0.666800
C82	C	-0.112006	0.104206	0.000120
C83	C	0.221327	0.437539	0.333453
C84	C	0.554661	0.770873	0.666786
N85	N	-0.131134	0.059872	0.000132
N86	N	0.202200	0.393205	0.333466
N87	N	0.535533	0.726539	0.666799
C88	C	-0.099846	0.016049	0.000138
C89	C	0.233487	0.349383	0.333471
C90	C	0.566820	0.682716	0.666804
C91	C	0.346763	0.108861	0.000079
C92	C	0.680097	0.442194	0.333412
C93	C	1.013430	0.775528	0.666746
C94	C	0.397178	0.109373	0.000071
C95	C	0.730511	0.442706	0.333405
C96	C	1.063845	0.776040	0.666738
C97	C	0.409338	0.021213	0.000088
C98	C	0.742672	0.354546	0.333422
C99	C	1.076005	0.687879	0.666755
C100	C	0.358923	0.020701	0.000091
C101	C	0.692256	0.354035	0.333424
C102	C	1.025589	0.687368	0.666757
C103	C	0.327636	0.064527	0.000092
C104	C	0.660969	0.397860	0.333425
C105	C	0.994303	0.731194	0.666758
C106	C	-0.205716	0.014979	0.000139
C107	C	0.127617	0.348313	0.333472
C108	C	0.460951	0.681646	0.666806
C109	C	-0.256133	0.014472	0.000137
C110	C	0.077200	0.347806	0.333470
C111	C	0.410534	0.681139	0.666803
C112	C	-0.268289	0.102632	0.000124
C113	C	0.065045	0.435966	0.333457
C114	C	0.398378	0.769299	0.666790
C115	C	-0.217876	0.103140	0.000122
C116	C	0.115457	0.436473	0.333455
C117	C	0.448791	0.769806	0.666789
C118	C	-0.186590	0.059309	0.000132
C119	C	0.146743	0.392643	0.333465
C120	C	0.480076	0.725976	0.666799
O121	O	-0.143287	0.141407	0.000093
O122	O	0.190046	0.474741	0.333426
O123	O	0.523380	0.808074	0.666760
O124	O	-0.120752	-0.021701	0.000158
O125	O	0.212581	0.311632	0.333491
O126	O	0.545914	0.644966	0.666824
C127	C	0.101804	0.018094	0.000128
C128	C	0.435138	0.351428	0.333461
C129	C	0.768471	0.684761	0.666794
C130	C	0.120930	0.062428	0.000121
C131	C	0.454263	0.395761	0.333455
C132	C	0.787596	0.729095	0.666788
C133	C	0.089642	0.106250	0.000116
C134	C	0.422976	0.439584	0.333450
C135	C	0.756309	0.772917	0.666783
C136	C	0.171344	0.062940	0.000114
C137	C	0.504677	0.396273	0.333447
C138	C	0.838011	0.729606	0.666781
C139	C	0.202631	0.019117	0.000119
C140	C	0.535965	0.352451	0.333452
C141	C	0.869298	0.685784	0.666786
C142	C	0.183504	-0.025217	0.000132
C143	C	0.516837	0.308116	0.333465
C144	C	0.850170	0.641450	0.666798
C145	C	0.133092	-0.025728	0.000133
C146	C	0.466425	0.307605	0.333466
C147	C	0.799758	0.640939	0.666799
C148	C	0.108770	0.150585	0.000104
C149	C	0.442103	0.483918	0.333437
C150	C	0.775437	0.817251	0.666770
C151	C	0.159183	0.151092	0.000102
C152	C	0.492516	0.484426	0.333435
C153	C	0.825849	0.817759	0.666769
C154	C	0.190470	0.107270	0.000107
C155	C	0.523803	0.440603	0.333440
C156	C	0.857136	0.773936	0.666774
C157	C	0.574712	-0.026481	0.000124
C158	C	0.908045	0.306853	0.333457
C159	C	1.241378	0.640186	0.666791
C160	C	0.574159	-0.080136	0.000130
C161	C	0.907492	0.253198	0.333463
C162	C	1.240826	0.586531	0.666797
C163	C	0.614862	-0.418948	0.000101
C164	C	0.948196	-0.085615	0.333435
C165	C	1.281529	0.247718	0.666768
C166	C	0.612811	-0.620608	0.000091
C167	C	0.946145	-0.287275	0.333424
C168	C	1.279478	0.046059	0.666757
O169	O	0.650032	-0.651862	0.000067
O170	O	0.983365	-0.318528	0.333400
O171	O	1.316698	0.014805	0.666734
N172	N	0.568476	-0.639735	0.000082
N173	N	0.901810	-0.306401	0.333415
N174	N	1.235143	0.026932	0.666748
C175	C	0.524651	-0.608442	0.000070
C176	C	0.857985	-0.275109	0.333404
C177	C	1.191318	0.058224	0.666737
O178	O	0.486895	-0.629338	0.000055
O179	O	0.820228	-0.296004	0.333388
O180	O	1.153561	0.037329	0.666721
C181	C	0.526703	-0.406784	0.000076
C182	C	0.860036	-0.073450	0.333409
C183	C	1.193369	0.259883	0.666742
C184	C	0.571040	-0.387660	0.000092
C185	C	0.904374	-0.054327	0.333426
C186	C	1.237707	0.279006	0.666759
C187	C	0.659196	-0.399824	0.000117
C188	C	0.992530	-0.066491	0.333451
C189	C	1.325863	0.266842	0.666784
C190	C	0.659709	-0.349412	0.000124
C191	C	0.993042	-0.016079	0.333457
C192	C	1.326375	0.317254	0.666791
C193	C	0.615887	-0.318124	0.000115
C194	C	0.949220	0.015209	0.333448
C195	C	1.282554	0.348542	0.666781
C196	C	0.571553	-0.337248	0.000099
C197	C	0.904886	-0.003915	0.333432
C198	C	1.238219	0.329418	0.666766
C199	C	0.482878	-0.375493	0.000059
C200	C	0.816211	-0.042159	0.333393
C201	C	1.149545	0.291174	0.666726
C202	C	0.483395	-0.325075	0.000059
C203	C	0.816728	0.008258	0.333392
C204	C	1.150062	0.341591	0.666725
C205	C	0.527733	-0.305952	0.000075
C206	C	0.861066	0.027381	0.333409
C207	C	1.194399	0.360715	0.666742
C208	C	0.528243	-0.255548	0.000097
C209	C	0.861576	0.077785	0.333430
C210	C	1.194910	0.411118	0.666763
N211	N	0.572578	-0.236422	0.000106
N212	N	0.905911	0.096911	0.333439
N213	N	1.239245	0.430245	0.666772
C214	C	0.616400	-0.267710	0.000115
C215	C	0.949733	0.065623	0.333448
C216	C	1.283067	0.398957	0.666781
C217	C	0.523577	-0.714317	0.000069
C218	C	0.856911	-0.380983	0.333402
C219	C	1.190244	-0.047650	0.666736
C220	C	0.523064	-0.764731	0.000069
C221	C	0.856398	-0.431398	0.333402
C222	C	1.189731	-0.098064	0.666736
C223	C	0.611225	-0.776893	0.000088
C224	C	0.944558	-0.443560	0.333421
C225	C	1.277891	-0.110227	0.666755
C226	C	0.611737	-0.726478	0.000093
C227	C	0.945070	-0.393145	0.333427
C228	C	1.278404	-0.059811	0.666760
C229	C	0.567912	-0.695190	0.000078
C230	C	0.901245	-0.361857	0.333411
C231	C	1.234579	-0.028524	0.666745
C232	C	0.617472	-0.161841	0.000129
C233	C	0.950806	0.171493	0.333463
C234	C	1.284139	0.504826	0.666796
C235	C	0.617981	-0.111424	0.000139
C236	C	0.951314	0.221910	0.333472
C237	C	1.284647	0.555243	0.666806
C238	C	0.529821	-0.099266	0.000116
C239	C	0.863154	0.234067	0.333450
C240	C	1.196487	0.567401	0.666783
C241	C	0.529312	-0.149679	0.000110
C242	C	0.862645	0.183655	0.333444
C243	C	1.195979	0.516988	0.666777
C244	C	0.573142	-0.180965	0.000115
C245	C	0.906475	0.152368	0.333448
C246	C	1.239808	0.485701	0.666781
O247	O	0.491043	-0.224267	0.000112
O248	O	0.824376	0.109067	0.333445
O249	O	1.157709	0.442400	0.666779
O250	O	0.654151	-0.246805	0.000114
O251	O	0.987484	0.086528	0.333447
O252	O	1.320818	0.419861	0.666781
C253	C	0.614350	-0.469360	0.000095
C254	C	0.947683	-0.136027	0.333428
C255	C	1.281017	0.197306	0.666761
C256	C	0.570016	-0.488484	0.000079
C257	C	0.903349	-0.155151	0.333412
C258	C	1.236683	0.178182	0.666746
C259	C	0.526194	-0.457196	0.000070
C260	C	0.859527	-0.123863	0.333403
C261	C	1.192861	0.209470	0.666737
C262	C	0.569503	-0.538899	0.000079
C263	C	0.902836	-0.205565	0.333412
C264	C	1.236170	0.127768	0.666746
C265	C	0.613325	-0.570187	0.000088
C266	C	0.946658	-0.236853	0.333421
C267	C	1.279991	0.096480	0.666755
C268	C	0.657660	-0.551060	0.000097
C269	C	0.990993	-0.217727	0.333431
C270	C	1.324326	0.115606	0.666764
C271	C	0.658172	-0.500648	0.000104
C272	C	0.991505	-0.167315	0.333437
C273	C	1.324839	0.166018	0.666771
C274	C	0.481859	-0.476323	0.000061
C275	C	0.815193	-0.142989	0.333394
C276	C	1.148526	0.190344	0.666727
C277	C	0.481351	-0.526735	0.000055
C278	C	0.814684	-0.193402	0.333388
C279	C	1.148017	0.139932	0.666722
C280	C	0.525172	-0.558023	0.000064
C281	C	0.858506	-0.224690	0.333397
C282	C	1.191839	0.108643	0.666731
C283	C	0.658925	0.057739	0.000125
C284	C	0.992259	0.391072	0.333458
C285	C	1.325592	0.724405	0.666792
C286	C	0.712580	0.058295	0.000132
C287	C	1.045913	0.391628	0.333465
C288	C	1.379247	0.724961	0.666798
C289	C	0.566333	0.150326	0.000089
C290	C	0.899667	0.483659	0.333422
C291	C	1.233000	0.816993	0.666755
C292	C	0.566886	0.203981	0.000078
C293	C	0.900219	0.537314	0.333411
C294	C	1.233553	0.870648	0.666745
N295	N	0.570506	0.061916	0.189808
N296	N	0.903840	0.395250	0.523141
N297	N	1.237173	0.728583	0.856474
N298	N	0.570542	0.061925	-0.189593
N299	N	0.903876	0.395258	0.143740
N300	N	1.237209	0.728592	0.477074
C301	C	0.603625	0.028827	0.228130
C302	C	0.936958	0.362160	0.561463
C303	C	1.270291	0.695493	0.894797
C304	C	0.603628	0.028824	0.304775
C305	C	0.936961	0.362158	0.638108
C306	C	1.270295	0.695491	0.971441
C307	C	0.570517	0.061920	0.343094
C308	C	0.903851	0.395254	0.676428
C309	C	1.237184	0.728587	1.009761
C310	C	0.537393	0.095013	0.304763
C311	C	0.870726	0.428346	0.638096
C312	C	1.204059	0.761679	0.971429
C313	C	0.537387	0.095011	0.228119
C314	C	0.870721	0.428344	0.561453
C315	C	1.204054	0.761677	0.894786
N316	N	0.564045	0.104738	0.463417
N317	N	0.897378	0.438072	0.796750
N318	N	1.230712	0.771405	1.130084
N319	N	0.564053	0.104739	0.536225
N320	N	0.897386	0.438072	0.869558
N321	N	1.230720	0.771405	1.202892
C322	C	0.570531	0.061927	0.574017
C323	C	0.903864	0.395260	0.907350
C324	C	1.237197	0.728594	1.240683
N325	N	0.577010	0.019114	0.536250
N326	N	0.910343	0.352447	0.869583
N327	N	1.243676	0.685780	1.202917
N328	N	0.577004	0.019114	0.463435
N329	N	0.910337	0.352447	0.796769
N330	N	1.243671	0.685781	1.130102
C331	C	0.570519	0.061926	0.426201
C332	C	0.903852	0.395259	0.759535
C333	C	1.237186	0.728592	1.092868
C334	C	0.603654	0.028832	0.695446
C335	C	0.936988	0.362165	1.028780
C336	C	1.270321	0.695499	1.362113
C337	C	0.603654	0.028829	0.772093
C338	C	0.936987	0.362162	1.105426
C339	C	1.270321	0.695496	1.438759
C340	C	0.537421	0.095022	0.772079
C341	C	0.870754	0.428355	1.105413
C342	C	1.204088	0.761688	1.438746
C343	C	0.537419	0.095020	0.695434
C344	C	0.870752	0.428354	1.028768
C345	C	1.204086	0.761687	1.362101
C346	C	0.570538	0.061926	0.657123
C347	C	0.903872	0.395259	0.990456
C348	C	1.237205	0.728593	1.323789
H349	H	-0.067950	0.184742	0.000132
H350	H	0.265384	0.518075	0.333466
H351	H	0.598717	0.851408	0.666799
H352	H	0.447706	-0.299603	0.000045
H353	H	0.781040	0.033731	0.333379
H354	H	1.114373	0.367064	0.666712
F355	F	0.638871	-0.006397	0.187357
F356	F	0.972204	0.326937	0.520691
F357	F	1.305537	0.660270	0.854024
F358	F	0.435215	-0.443029	0.000049
F359	F	0.768549	-0.109696	0.333382
F360	F	1.101882	0.223637	0.666716
H361	H	0.174748	0.187200	0.000092
H362	H	0.508082	0.520533	0.333426
H363	H	0.841415	0.853866	0.666759
F364	F	0.638901	-0.006392	0.654671
F365	F	0.972234	0.326942	0.988005
F366	F	1.305567	0.660275	1.321338
F367	F	-0.276483	-0.032719	0.000138
F368	F	0.056850	0.300614	0.333471
F369	F	0.390183	0.633947	0.666804
H370	H	0.694883	-0.425295	0.000122
H371	H	1.028217	-0.091962	0.333455
H372	H	1.361550	0.241372	0.666789
H373	H	0.510453	0.121967	0.664230
H374	H	0.843786	0.455301	0.997563
H375	H	1.177120	0.788634	1.330897
H376	H	0.117526	-0.061832	0.000137
H377	H	0.450859	0.271501	0.333470
H378	H	0.784192	0.604835	0.666804
F379	F	0.216811	-0.071856	0.000134
F380	F	0.550144	0.261477	0.333468
F381	F	0.883477	0.594811	0.666801
F382	F	0.665173	-0.091075	0.000156
F383	F	0.998506	0.242259	0.333490
F384	F	1.331840	0.575592	0.666823
F385	F	0.658927	-0.706130	0.000111
F386	F	0.992260	-0.372797	0.333444
F387	F	1.325593	-0.039463	0.666777
H388	H	0.630598	0.001877	0.335983
H389	H	0.963931	0.335211	0.669316
H390	H	1.297264	0.668544	1.002649
F391	F	0.476930	-0.681023	0.000053
F392	F	0.810263	-0.347690	0.333386
F393	F	1.143596	-0.014357	0.666719
F394	F	0.475874	-0.785078	0.000064
F395	F	0.809208	-0.451744	0.333398
F396	F	1.142541	-0.118411	0.666731
H397	H	0.510433	0.121959	0.335966
H398	H	0.843766	0.455292	0.669300
H399	H	1.177099	0.788626	1.002633
F400	F	0.434157	-0.547081	0.000042
F401	F	0.767490	-0.213748	0.333375
F402	F	1.100823	0.119585	0.666709
H403	H	0.510418	0.121957	0.196917
H404	H	0.843751	0.455290	0.530250
H405	H	1.177084	0.788624	0.863583
F406	F	-0.197522	0.150328	0.000107
F407	F	0.135812	0.483661	0.333440
F408	F	0.469145	0.816995	0.666773
H409	H	0.693341	-0.576544	0.000108
H410	H	1.026674	-0.243211	0.333441
H411	H	1.360008	0.090122	0.666775
F412	F	0.638902	-0.006394	0.812880
F413	F	0.972235	0.326940	1.146213
F414	F	1.305569	0.660273	1.479546
F415	F	0.502179	0.130242	0.812858
F416	F	0.835513	0.463575	1.146191
F417	F	1.168846	0.796909	1.479525
H418	H	-0.180248	-0.020712	0.000147
H419	H	0.153085	0.312622	0.333480
H420	H	0.486418	0.645955	0.666814
F421	F	0.338574	-0.026488	0.000099
F422	F	0.671907	0.306846	0.333432
F423	F	1.005240	0.640179	0.666765
H424	H	-0.033711	-0.063365	0.000143
H425	H	0.299623	0.269968	0.333476
H426	H	0.632956	0.603302	0.666809
H427	H	0.057737	-0.062438	0.000141
H428	H	0.391070	0.270896	0.333474
H429	H	0.724404	0.604229	0.666808
H430	H	0.694276	-0.485083	0.000117
H431	H	1.027609	-0.151750	0.333451
H432	H	1.360943	0.181583	0.666784
H433	H	0.434821	-0.014469	0.000090
H434	H	0.768154	0.318864	0.333423
H435	H	1.101488	0.652197	0.666757
F436	F	0.664121	-0.195132	0.000134
F437	F	0.997454	0.138202	0.333467
F438	F	1.330788	0.471535	0.666800
H439	H	0.412744	0.145477	0.000057
H440	H	0.746078	0.478810	0.333390
H441	H	1.079411	0.812143	0.666724
F442	F	0.435687	-0.395834	0.000039
F443	F	0.769020	-0.062501	0.333372
F444	F	1.102354	0.270833	0.666705
H445	H	0.321293	0.144551	0.000079
H446	H	0.654627	0.477885	0.333412
H447	H	0.987960	0.811218	0.666745
H448	H	0.023501	0.185672	0.000113
H449	H	0.356835	0.519006	0.333446
H450	H	0.690168	0.852339	0.666779
F451	F	-0.301595	0.149269	0.000114
F452	F	0.031738	0.482602	0.333447
F453	F	0.365071	0.815935	0.666781
F454	F	0.075478	0.197229	0.000096
F455	F	0.408811	0.530563	0.333430
F456	F	0.742144	0.863896	0.666763
F457	F	0.657863	-0.810201	0.000096
F458	F	0.991197	-0.476868	0.333430
F459	F	1.324530	-0.143534	0.666763
F460	F	0.706899	-0.329067	0.000126
F461	F	1.040233	0.004267	0.333459
F462	F	1.373566	0.337600	0.666792
F463	F	0.482123	-0.170032	0.000106
F464	F	0.815457	0.163302	0.333439
F465	F	1.148790	0.496635	0.666773
F466	F	0.483185	-0.065958	0.000107
F467	F	0.816518	0.267375	0.333440
F468	F	1.149852	0.600708	0.666773
