data_functionalizedCrystal
_audit_creation_method	'MofGen! by Chris Wilmer'
_symmetry_space_group_name_H-M	'P1'
_symmetry_Int_Tables_number	1
_symmetry_cell_setting	triclinic
loop_
_symmetry_equiv_pos_as_xyz
  x,y,z
_cell_length_a	19.805399
_cell_length_b	19.805407
_cell_length_c	19.805405
_cell_angle_alpha	90.026410
_cell_angle_beta	90.029301
_cell_angle_gamma	90.019573
loop_
_atom_site_label
_atom_site_type_symbol
_atom_site_fract_x
_atom_site_fract_y
_atom_site_fract_z
Zn1	Zn	-0.382712	-1.034736	0.269479
Zn2	Zn	-0.049378	-0.701402	0.602812
Zn3	Zn	0.283955	-0.368069	0.936146
Zn4	Zn	-0.269520	-1.034651	0.382667
Zn5	Zn	0.063813	-0.701317	0.716001
Zn6	Zn	0.397147	-0.367984	1.049334
Zn7	Zn	-0.269536	-0.921550	0.269498
Zn8	Zn	0.063797	-0.588217	0.602831
Zn9	Zn	0.397131	-0.254884	0.936164
Zn10	Zn	-0.382667	-0.921514	0.382631
Zn11	Zn	-0.049333	-0.588180	0.715965
Zn12	Zn	0.284000	-0.254847	1.049298
O13	O	-0.326109	-0.978113	0.326069
O14	O	0.007225	-0.644779	0.659402
O15	O	0.340558	-0.311446	0.992735
O16	O	-0.367708	-1.129441	0.284501
O17	O	-0.034375	-0.796108	0.617834
O18	O	0.298958	-0.462774	0.951167
O19	O	-0.174805	-1.019627	0.367678
O20	O	0.158528	-0.686294	0.701011
O21	O	0.491861	-0.352960	1.034345
O22	O	-0.284575	-0.936616	0.174778
O23	O	0.048759	-0.603282	0.508112
O24	O	0.382092	-0.269949	0.841445
O25	O	-0.284547	-1.129378	0.367660
O26	O	0.048786	-0.796045	0.700993
O27	O	0.382120	-0.462712	1.034326
O28	O	-0.367724	-1.019772	0.174765
O29	O	-0.034391	-0.686439	0.508098
O30	O	0.298942	-0.353106	0.841431
O31	O	-0.174817	-0.936533	0.284533
O32	O	0.158516	-0.603200	0.617866
O33	O	0.491849	-0.269866	0.951199
O34	O	-0.284531	-0.826829	0.284498
O35	O	0.048802	-0.493496	0.617831
O36	O	0.382136	-0.160162	0.951164
O37	O	-0.477389	-0.936553	0.367598
O38	O	-0.144056	-0.603220	0.700932
O39	O	0.189277	-0.269887	1.034265
O40	O	-0.367648	-0.826802	0.367617
O41	O	-0.034314	-0.493469	0.700950
O42	O	0.299019	-0.160135	1.034283
O43	O	-0.477422	-1.019737	0.284466
O44	O	-0.144089	-0.686404	0.617799
O45	O	0.189244	-0.353070	0.951133
O46	O	-0.284503	-1.019592	0.477379
O47	O	0.048830	-0.686258	0.810712
O48	O	0.382163	-0.352925	1.144046
O49	O	-0.367632	-0.936471	0.477353
O50	O	-0.034299	-0.603137	0.810686
O51	O	0.299035	-0.269804	1.144019
C52	C	-0.326087	-0.802257	0.326056
C53	C	0.007247	-0.468923	0.659389
C54	C	0.340580	-0.135590	0.992722
C55	C	-0.326093	-0.727025	0.326067
C56	C	0.007240	-0.393691	0.659400
C57	C	0.340573	-0.060358	0.992733
C58	C	-0.326076	-0.978036	0.501925
C59	C	0.007258	-0.644703	0.835258
C60	C	0.340591	-0.311370	1.168591
C61	C	-0.326084	-0.978066	0.577157
C62	C	0.007249	-0.644732	0.910490
C63	C	0.340582	-0.311399	1.243823
C64	C	-0.502651	-0.978151	0.326026
C65	C	-0.169318	-0.644817	0.659359
C66	C	0.164015	-0.311484	0.992693
C67	C	-0.577883	-0.978167	0.326008
C68	C	-0.244550	-0.644833	0.659341
C69	C	0.088783	-0.311500	0.992675
C70	C	-0.613246	-1.021481	0.282719
C71	C	-0.279912	-0.688148	0.616052
C72	C	0.053421	-0.354815	0.949385
C73	C	-0.683934	-1.021488	0.282699
C74	C	-0.350601	-0.688155	0.616032
C75	C	-0.017268	-0.354822	0.949366
C76	C	-0.719259	-0.978184	0.325973
C77	C	-0.385926	-0.644850	0.659306
C78	C	-0.052592	-0.311517	0.992639
C79	C	-0.683892	-0.934864	0.369264
C80	C	-0.350558	-0.601531	0.702597
C81	C	-0.017225	-0.268197	1.035930
C82	C	-0.613204	-0.934854	0.369279
C83	C	-0.279871	-0.601521	0.702613
C84	C	0.053462	-0.268188	1.035946
C85	C	-0.968965	-0.934902	0.369201
C86	C	-0.635632	-0.601569	0.702534
C87	C	-0.302298	-0.268236	1.035867
C88	C	-1.039657	-0.934917	0.369183
C89	C	-0.706324	-0.601584	0.702516
C90	C	-0.372991	-0.268250	1.035850
C91	C	-1.039695	-1.021536	0.282620
C92	C	-0.706362	-0.688203	0.615954
C93	C	-0.373028	-0.354870	0.949287
C94	C	-0.969008	-1.021527	0.282636
C95	C	-0.635674	-0.688193	0.615969
C96	C	-0.302341	-0.354860	0.949303
C97	C	-0.933647	-0.978205	0.325924
C98	C	-0.600313	-0.644872	0.659258
C99	C	-0.266980	-0.311538	0.992591
C100	C	-0.856998	-0.978197	0.325944
C101	C	-0.523665	-0.644864	0.659277
C102	C	-0.190331	-0.311530	0.992611
C103	C	-0.795906	-0.978194	0.325957
C104	C	-0.462573	-0.644861	0.659290
C105	C	-0.129240	-0.311528	0.992623
C106	C	-0.150253	-0.978114	0.326062
C107	C	0.183081	-0.644780	0.659396
C108	C	0.516414	-0.311447	0.992729
C109	C	-0.075021	-0.978229	0.325890
C110	C	0.258312	-0.644895	0.659223
C111	C	0.591646	-0.311562	0.992557
C112	C	-0.326131	-1.154655	0.326082
C113	C	0.007202	-0.821322	0.659416
C114	C	0.340536	-0.487989	0.992749
C115	C	-0.326140	-1.229887	0.326088
C116	C	0.007193	-0.896554	0.659421
C117	C	0.340526	-0.563221	0.992755
C118	C	-0.369302	-0.691684	0.369412
C119	C	-0.035969	-0.358351	0.702745
C120	C	0.297365	-0.025018	1.036078
C121	C	-0.369312	-0.620996	0.369413
C122	C	-0.035978	-0.287662	0.702746
C123	C	0.297355	0.045671	1.036080
C124	C	-0.326109	-0.585649	0.326072
C125	C	0.007225	-0.252316	0.659405
C126	C	0.340558	0.081018	0.992738
C127	C	-0.282898	-0.620994	0.282722
C128	C	0.050435	-0.287661	0.616055
C129	C	0.383769	0.045672	0.949389
C130	C	-0.282892	-0.691681	0.282718
C131	C	0.050441	-0.358348	0.616051
C132	C	0.383774	-0.025015	0.949384
C133	C	-0.282920	-0.335921	0.282737
C134	C	0.050413	-0.002588	0.616070
C135	C	0.383746	0.330746	0.949404
C136	C	-0.282928	-0.265229	0.282746
C137	C	0.050406	0.068104	0.616079
C138	C	0.383739	0.401438	0.949412
C139	C	-0.369340	-0.265235	0.369432
C140	C	-0.036006	0.068098	0.702765
C141	C	0.297327	0.401431	1.036099
C142	C	-0.369334	-0.335922	0.369428
C143	C	-0.036001	-0.002589	0.702761
C144	C	0.297333	0.330744	1.036094
C145	C	-0.326126	-0.371262	0.326076
C146	C	0.007207	-0.037928	0.659409
C147	C	0.340540	0.295405	0.992742
C148	C	-0.326117	-0.447910	0.326074
C149	C	0.007216	-0.114577	0.659407
C150	C	0.340549	0.218757	0.992741
C151	C	-0.326114	-0.509002	0.326076
C152	C	0.007220	-0.175669	0.659410
C153	C	0.340553	0.157665	0.992743
C154	C	-0.326156	-0.978207	0.149526
C155	C	0.007177	-0.644874	0.482859
C156	C	0.340510	-0.311541	0.816193
C157	C	-0.326177	-0.978248	0.074294
C158	C	0.007157	-0.644915	0.407627
C159	C	0.340490	-0.311581	0.740961
C160	C	-0.282845	-1.021389	0.612492
C161	C	0.050489	-0.688056	0.945826
C162	C	0.383822	-0.354722	1.279159
C163	C	-0.282860	-1.021418	0.683181
C164	C	0.050474	-0.688084	1.016514
C165	C	0.383807	-0.354751	1.349847
C166	C	-0.326111	-0.978119	0.718532
C167	C	0.007222	-0.644786	1.051866
C168	C	0.340555	-0.311453	1.385199
C169	C	-0.369356	-0.934794	0.683192
C170	C	-0.036023	-0.601461	1.016525
C171	C	0.297311	-0.268128	1.349859
C172	C	-0.369344	-0.934769	0.612505
C173	C	-0.036010	-0.601436	0.945838
C174	C	0.297323	-0.268103	1.279171
C175	C	-0.369406	-0.934894	0.968265
C176	C	-0.036073	-0.601561	1.301598
C177	C	0.297261	-0.268227	1.634932
C178	C	-0.369413	-0.934921	1.038957
C179	C	-0.036080	-0.601588	1.372291
C180	C	0.297253	-0.268254	1.705624
C181	C	-0.282922	-1.021542	1.038941
C182	C	0.050411	-0.688209	1.372274
C183	C	0.383745	-0.354876	1.705608
C184	C	-0.282910	-1.021517	0.968254
C185	C	0.050423	-0.688184	1.301587
C186	C	0.383757	-0.354851	1.634921
C187	C	-0.326157	-0.978195	0.932920
C188	C	0.007177	-0.644862	1.266253
C189	C	0.340510	-0.311529	1.599586
C190	C	-0.326141	-0.978166	0.856271
C191	C	0.007193	-0.644832	1.189605
C192	C	0.340526	-0.311499	1.522938
C193	C	-0.326124	-0.978145	0.795179
C194	C	0.007209	-0.644812	1.128513
C195	C	0.340542	-0.311478	1.461846
H196	H	-0.584489	-1.056747	0.247482
H197	H	-0.251156	-0.723414	0.580816
H198	H	0.082177	-0.390081	0.914149
Br199	Br	-0.224271	-0.573025	0.223895
Br200	Br	0.109063	-0.239691	0.557228
Br201	Br	0.442396	0.093642	0.890561
Br202	Br	-0.731924	-1.080307	0.223978
Br203	Br	-0.398591	-0.746973	0.557311
Br204	Br	-0.065257	-0.413640	0.890645
Br205	Br	-0.224253	-0.739645	0.223886
Br206	Br	0.109080	-0.406311	0.557220
Br207	Br	0.442413	-0.072978	0.890553
Br208	Br	-0.921070	-1.080303	0.223909
Br209	Br	-0.587737	-0.746970	0.557243
Br210	Br	-0.254404	-0.413636	0.890576
H211	H	-1.068495	-1.056809	0.247370
H212	H	-0.735161	-0.723475	0.580704
H213	H	-0.401828	-0.390142	0.914037
Br214	Br	-0.224136	-1.080148	0.564522
Br215	Br	0.109197	-0.746815	0.897855
Br216	Br	0.442530	-0.413481	1.231188
Br217	Br	-0.428098	-0.876100	0.920320
Br218	Br	-0.094765	-0.542767	1.253654
Br219	Br	0.238568	-0.209433	1.586987
H220	H	-0.940183	-0.899637	0.404459
H221	H	-0.606849	-0.566304	0.737792
H222	H	-0.273516	-0.232970	1.071125
Br223	Br	-0.224208	-1.080280	0.920280
Br224	Br	0.109125	-0.746947	1.253613
Br225	Br	0.442459	-0.413614	1.586947
Br226	Br	-0.427979	-0.217271	0.428270
Br227	Br	-0.094645	0.116062	0.761603
Br228	Br	0.238688	0.449395	1.094936
H229	H	-1.068417	-0.899650	0.404423
H230	H	-0.735083	-0.566317	0.737756
H231	H	-0.401750	-0.232983	1.071090
Br232	Br	-0.427933	-0.739648	0.428240
Br233	Br	-0.094600	-0.406315	0.761573
Br234	Br	0.238734	-0.072981	1.094907
Br235	Br	-0.731832	-0.876088	0.427989
Br236	Br	-0.398498	-0.542755	0.761322
Br237	Br	-0.065165	-0.209422	1.094656
H238	H	-0.247733	-0.364686	0.247442
H239	H	0.085601	-0.031352	0.580775
H240	H	0.418934	0.301981	0.914109
H241	H	-0.584413	-0.899576	0.404523
H242	H	-0.251080	-0.566243	0.737857
H243	H	0.082253	-0.232909	1.071190
Br244	Br	-0.427956	-0.573036	0.428239
Br245	Br	-0.094623	-0.239703	0.761573
Br246	Br	0.238710	0.093631	1.094906
Br247	Br	-0.224179	-1.080220	0.731134
Br248	Br	0.109154	-0.746887	1.064467
Br249	Br	0.442488	-0.413553	1.397800
Br250	Br	-0.224231	-1.080340	1.086898
Br251	Br	0.109102	-0.747007	1.420232
Br252	Br	0.442436	-0.413674	1.753565
Br253	Br	-0.427965	-0.383890	0.428254
Br254	Br	-0.094631	-0.050556	0.761587
Br255	Br	0.238702	0.282777	1.094921
H256	H	-0.247747	-0.236452	0.247448
H257	H	0.085587	0.096882	0.580781
H258	H	0.418920	0.430215	0.914115
Br259	Br	-0.428061	-0.876037	0.731168
Br260	Br	-0.094728	-0.542704	1.064502
Br261	Br	0.238605	-0.209370	1.397835
H262	H	-0.404639	-0.899663	1.067739
H263	H	-0.071306	-0.566330	1.401072
H264	H	0.262028	-0.232996	1.734405
H265	H	-0.404555	-0.899492	0.583735
H266	H	-0.071221	-0.566159	0.917069
H267	H	0.262112	-0.232826	1.250402
