data_functionalizedCrystal
_audit_creation_method	'MofGen! by Chris Wilmer'
_symmetry_space_group_name_H-M	'P1'
_symmetry_Int_Tables_number	1
_symmetry_cell_setting	triclinic
loop_
_symmetry_equiv_pos_as_xyz
  x,y,z
_cell_length_a	21.395364
_cell_length_b	16.120444
_cell_length_c	21.395355
_cell_angle_alpha	92.881464
_cell_angle_beta	89.975448
_cell_angle_gamma	92.941529
loop_
_atom_site_label
_atom_site_type_symbol
_atom_site_fract_x
_atom_site_fract_y
_atom_site_fract_z
Zn1	Zn	0.945239	-0.331681	-0.366899
Zn2	Zn	0.939837	-0.471080	-0.267433
Zn3	Zn	0.840452	-0.331717	-0.262137
Zn4	Zn	0.835118	-0.471095	-0.372174
O5	O	0.890162	-0.401393	-0.317161
O6	O	1.032201	-0.350151	-0.353714
O7	O	0.926625	-0.452602	-0.179053
O8	O	0.858846	-0.215043	-0.271611
O9	O	1.028233	-0.452567	-0.280637
O10	O	0.935832	-0.215016	-0.348579
O11	O	0.853608	-0.350213	-0.175162
O12	O	0.752066	-0.350227	-0.276725
O13	O	0.849754	-0.452592	-0.459152
O14	O	0.748147	-0.452628	-0.357569
O15	O	0.930659	-0.350165	-0.455277
O16	O	0.921453	-0.587751	-0.285751
O17	O	0.844517	-0.587762	-0.362704
C18	C	0.727373	-0.401434	-0.317145
C19	C	0.657730	-0.401471	-0.317154
C20	C	0.627102	-0.348230	-0.355270
C21	C	0.561668	-0.348208	-0.355272
C22	C	0.526863	-0.401442	-0.317164
C23	C	0.557498	-0.454686	-0.279040
C24	C	0.622932	-0.454701	-0.279035
C25	C	0.420281	-0.476523	-0.314987
C26	C	0.354849	-0.476510	-0.314997
C27	C	0.325044	-0.401396	-0.317176
C28	C	0.360679	-0.326292	-0.319359
C29	C	0.426113	-0.326307	-0.319354
C30	C	0.455911	-0.401431	-0.317165
C31	C	0.223465	-0.348126	-0.355297
C32	C	0.158029	-0.348103	-0.355294
C33	C	0.153860	-0.454588	-0.279065
C34	C	0.219295	-0.454604	-0.279064
C35	C	0.254093	-0.401375	-0.317184
C36	C	0.881837	-0.618007	-0.325388
C37	C	0.878333	-0.710676	-0.328929
C38	C	0.908493	-0.921598	-0.298929
C39	C	0.871947	-0.880337	-0.335400
C40	C	0.875501	-0.785929	-0.331798
C41	C	0.904939	-1.016015	-0.302530
C42	C	1.053587	-0.401353	-0.317178
C43	C	1.123228	-0.401336	-0.317185
C44	C	0.890214	-0.401376	-0.480584
C45	C	0.890237	-0.401369	-0.550225
C46	C	0.898536	-0.183933	-0.308915
C47	C	0.902105	-0.091264	-0.305402
C48	C	0.932362	-0.348033	-0.580921
C49	C	0.932363	-0.347997	-0.646355
C50	C	0.890244	-0.401312	-0.681091
C51	C	0.848110	-0.454652	-0.650387
C52	C	0.848107	-0.454680	-0.584954
C53	C	0.882412	-0.476383	-0.787617
C54	C	0.882419	-0.476356	-0.853049
C55	C	0.890251	-0.401224	-0.882909
C56	C	0.898088	-0.326117	-0.847328
C57	C	0.898085	-0.326145	-0.781895
C58	C	0.890243	-0.401287	-0.752042
C59	C	0.932380	-0.347845	-0.984556
C60	C	0.932376	-0.347807	-1.049991
C61	C	0.848126	-0.454470	-1.054022
C62	C	0.848127	-0.454499	-0.988588
C63	C	0.890257	-0.401188	-0.953858
C64	C	0.890148	-0.401350	-0.154372
C65	C	0.890256	-0.401122	-0.084722
H66	H	0.655431	-0.304886	-0.386309
H67	H	0.966667	-0.304622	-0.552648
C68	C	0.826068	-0.928399	-0.381232
N69	N	0.791510	-0.964603	-0.415749
H70	H	0.325840	-0.537664	-0.313222
H71	H	0.942447	-0.886024	-0.265002
C72	C	0.978718	-0.289194	-0.946351
N73	N	1.013619	-0.245017	-0.917577
H74	H	0.966666	-0.304560	-0.671353
H75	H	0.444543	-0.537695	-0.313212
H76	H	0.813815	-0.498059	-0.678673
H77	H	0.529156	-0.498028	-0.248012
C78	C	0.906697	-0.243528	-0.742759
N79	N	0.913179	-0.181299	-0.713282
H80	H	0.876042	-0.537513	-0.882014
C81	C	0.465309	-0.243695	-0.321747
N82	N	0.494831	-0.181469	-0.323546
C83	C	0.115579	-0.513145	-0.237145
N84	N	0.086742	-0.557251	-0.205569
C85	C	0.873808	-0.559041	-0.754778
N86	N	0.867332	-0.621298	-0.730045
C87	C	0.906702	-0.243464	-0.880168
N88	N	0.913191	-0.181213	-0.904907
H89	H	0.966679	-0.304370	-1.074982
C90	C	0.801795	-0.513118	-1.092228
N91	N	0.766896	-0.557293	-1.121008
H92	H	0.813827	-0.497936	-0.963595
H93	H	0.813800	-0.498112	-0.559962
H94	H	0.536726	-0.304849	-0.386310
H95	H	0.336413	-0.265127	-0.321134
H96	H	0.251799	-0.304778	-0.386331
C97	C	0.124339	-0.289530	-0.397227
N98	N	0.098963	-0.245412	-0.428812
H99	H	0.244232	-0.497962	-0.248028
H100	H	0.647868	-0.498057	-0.247995
