data_functionalizedCrystal
_audit_creation_method	'MofGen! by Chris Wilmer'
_symmetry_space_group_name_H-M	'P1'
_symmetry_Int_Tables_number	1
_symmetry_cell_setting	triclinic
loop_
_symmetry_equiv_pos_as_xyz
  x,y,z
_cell_length_a	9.065218
_cell_length_b	14.971486
_cell_length_c	14.048226
_cell_angle_alpha	90.006640
_cell_angle_beta	90.006506
_cell_angle_gamma	84.315007
loop_
_atom_site_label
_atom_site_type_symbol
_atom_site_fract_x
_atom_site_fract_y
_atom_site_fract_z
O1	O	-1.957746	-0.131155	-0.079164
O2	O	-1.528243	-0.141913	-0.079165
O3	O	-1.754506	-0.006420	-0.079158
O4	O	-1.731482	-0.266649	-0.079171
O5	O	-1.754479	-0.006412	0.079164
O6	O	-1.528216	-0.141905	0.079156
O7	O	-1.957719	-0.131147	0.079158
Zn8	Zn	-1.742963	-0.136525	0.104294
Zn9	Zn	-1.742999	-0.136536	-0.104301
O10	O	-1.731455	-0.266640	0.079150
C11	C	-1.753463	0.026916	0.000003
C12	C	-1.750377	0.126237	0.000002
C13	C	-1.473263	-0.140875	-0.000005
C14	C	-1.309483	-0.137784	-0.000005
C15	C	-2.012698	-0.132185	-0.000005
C16	C	-2.176478	-0.135277	-0.000011
C17	C	-1.732498	-0.299977	-0.000012
C18	C	-1.735584	-0.399297	-0.000018
N19	N	-1.742949	-0.136517	0.246655
C20	C	-1.883301	0.182471	0.000003
C21	C	-1.880393	0.275792	-0.000007
C22	C	-1.744560	0.312877	-0.000010
C23	C	-1.611626	0.256635	-0.000014
C24	C	-1.614535	0.163316	-0.000012
C25	C	-1.605571	0.451143	-0.000018
C26	C	-1.602660	0.544468	-0.000019
C27	C	-1.871428	0.563619	-0.000013
C28	C	-1.874338	0.470300	-0.000010
C29	C	-1.741403	0.414064	-0.000012
N30	N	-1.743024	-0.136537	-0.246662
C31	C	-1.843170	-0.076546	0.296476
C32	C	-1.843180	-0.076545	0.396134
C33	C	-1.742975	-0.136521	0.445968
C34	C	-1.642743	-0.196495	0.396140
C35	C	-1.642727	-0.196490	0.296484
C36	C	-1.642786	-0.196502	0.603854
C37	C	-1.642803	-0.196508	0.703517
C38	C	-1.843238	-0.076557	0.703504
C39	C	-1.843222	-0.076552	0.603848
C40	C	-1.742992	-0.136527	0.554026
H41	H	-1.993912	0.152285	0.000012
H42	H	-1.497321	0.405358	-0.000022
O43	O	-2.009652	0.330290	0.000043
C44	C	-2.276538	0.339436	0.000007
C45	C	-2.130257	0.277616	-0.000027
H46	H	-2.374085	0.296875	-0.000070
H47	H	-2.281977	0.383596	0.066278
H48	H	-2.281838	0.383615	-0.066236
H49	H	-2.124859	0.233381	0.066171
H50	H	-2.124879	0.233516	-0.066342
H51	H	-1.561147	-0.245325	0.436721
H52	H	-1.506295	0.117530	-0.000013
O53	O	-1.940567	-0.018199	0.248218
C54	C	-2.139424	0.100743	0.258736
C55	C	-2.029181	0.034723	0.313501
H56	H	-2.211118	0.143534	0.311493
H57	H	-2.075727	0.146031	0.212123
H58	H	-2.213114	0.061487	0.212036
H59	H	-1.955463	0.073905	0.360253
H60	H	-2.092970	-0.010565	0.360054
O61	O	-2.000527	0.618276	-0.000189
C62	C	-2.153212	0.734770	-0.082191
C63	C	-2.006976	0.672906	-0.082126
H64	H	-2.158460	0.778966	-0.148420
H65	H	-2.250847	0.692275	-0.082245
H66	H	-2.158542	0.778910	-0.015909
H67	H	-2.001500	0.628753	-0.148397
H68	H	-1.909409	0.715453	-0.082022
O69	O	-1.470587	0.580347	-0.000080
C70	C	-1.204312	0.551510	-0.000064
C71	C	-1.353782	0.510759	-0.000011
H72	H	-1.109836	0.495267	0.000012
H73	H	-1.196172	0.594681	-0.066340
H74	H	-1.196282	0.594760	0.066174
H75	H	-1.361913	0.467467	-0.066204
H76	H	-1.361858	0.467640	0.066309
O77	O	-1.545627	-0.254800	0.555350
C78	C	-1.514422	-0.376725	0.442860
C79	C	-1.624604	-0.310740	0.497715
H80	H	-1.578231	-0.421982	0.396265
H81	H	-1.440672	-0.337531	0.396156
H82	H	-1.442778	-0.419556	0.495611
H83	H	-1.696346	-0.267894	0.445033
H84	H	-1.698251	-0.349989	0.544433
O85	O	-1.940341	-0.018201	0.444567
C86	C	-1.971597	0.103662	0.557130
C87	C	-1.861392	0.037650	0.502326
H88	H	-1.907810	0.148822	0.603855
H89	H	-2.043195	0.146586	0.504431
H90	H	-2.045390	0.064398	0.603726
H91	H	-1.787503	0.076842	0.455727
H92	H	-1.789898	-0.005274	0.555076
H93	H	-1.984945	0.440109	0.000000
O94	O	-1.940544	-0.018171	0.751787
C95	C	-2.026708	0.136628	0.782327
C96	C	-1.916446	0.070615	0.727567
H97	H	-2.007243	0.208426	0.762781
H98	H	-2.144909	0.124038	0.762692
H99	H	-2.009534	0.126284	0.862109
H100	H	-1.933485	0.080920	0.647772
H101	H	-1.798285	0.083221	0.747281
H102	H	-1.924824	-0.027720	0.563273
O103	O	-1.545303	-0.254786	0.751780
C104	C	-1.346507	-0.373767	0.741283
C105	C	-1.456832	-0.307806	0.686506
H106	H	-1.274970	-0.416664	0.688532
H107	H	-1.272674	-0.334553	0.787926
H108	H	-1.410286	-0.418961	0.787953
H109	H	-1.393174	-0.262597	0.639784
H110	H	-1.530664	-0.347077	0.639923
O111	O	-1.545523	-0.254873	0.248127
C112	C	-1.459268	-0.409672	0.217659
C113	C	-1.569465	-0.343655	0.272464
H114	H	-1.478566	-0.481466	0.237330
H115	H	-1.476463	-0.399443	0.137861
H116	H	-1.341107	-0.396969	0.237262
H117	H	-1.687669	-0.356317	0.252940
H118	H	-1.552140	-0.353899	0.352248
H119	H	-1.501028	0.286837	-0.000024
