data_functionalizedCrystal
_audit_creation_method	'MofGen! by Chris Wilmer'
_symmetry_space_group_name_H-M	'P1'
_symmetry_Int_Tables_number	1
_symmetry_cell_setting	triclinic
loop_
_symmetry_equiv_pos_as_xyz
  x,y,z
_cell_length_a	15.944551
_cell_length_b	22.610064
_cell_length_c	15.944551
_cell_angle_alpha	89.996881
_cell_angle_beta	83.498738
_cell_angle_gamma	90.003741
loop_
_atom_site_label
_atom_site_type_symbol
_atom_site_fract_x
_atom_site_fract_y
_atom_site_fract_z
O1	O	1.114530	0.049124	0.108321
O2	O	1.614530	0.549124	0.608321
O3	O	0.869980	0.049139	0.121677
O4	O	1.369980	0.549139	0.621677
O5	O	0.998933	0.049126	-0.007276
O6	O	1.498933	0.549126	0.492724
O7	O	0.985577	0.049137	0.237274
O8	O	1.485577	0.549137	0.737274
O9	O	0.998910	-0.049243	-0.007257
O10	O	1.498910	0.450757	0.492743
O11	O	0.869958	-0.049230	0.121696
O12	O	1.369958	0.450770	0.621696
O13	O	1.114507	-0.049245	0.108339
O14	O	1.614507	0.450755	0.608339
Zn15	Zn	0.992229	-0.064856	0.115021
Zn16	Zn	1.492229	0.435144	0.615021
Zn17	Zn	0.992259	0.064750	0.114996
Zn18	Zn	1.492259	0.564750	0.614996
O19	O	0.985554	-0.049232	0.237292
O20	O	1.485554	0.450768	0.737292
C21	C	0.838675	-0.000044	0.121132
C22	C	1.338675	0.499956	0.621132
C23	C	0.745429	-0.000038	0.119470
C24	C	1.245429	0.499962	0.619470
N25	N	0.992214	-0.153308	0.115037
N26	N	1.492214	0.346692	0.615037
C27	C	0.530572	-0.000054	0.035565
C28	C	1.030572	0.499946	0.535565
C29	C	0.469563	0.048449	0.074518
C30	C	0.969563	0.548449	0.574518
C31	C	0.574703	-0.000045	0.116462
C32	C	1.074703	0.499955	0.616462
C33	C	0.469563	-0.048535	0.074556
C34	C	0.969563	0.451465	0.574556
C35	C	0.409790	-0.000055	0.113551
C36	C	0.909790	0.499945	0.613551
C37	C	0.514922	0.048498	0.155438
C38	C	1.014922	0.548498	0.655438
C39	C	0.514929	-0.048530	0.155464
C40	C	1.014929	0.451470	0.655464
C41	C	0.453937	-0.000015	0.194476
C42	C	0.953937	0.499985	0.694476
C43	C	0.669705	-0.000039	0.118137
C44	C	1.169705	0.499961	0.618137
C45	C	0.314789	-0.000057	0.111883
C46	C	0.814789	0.499943	0.611883
C47	C	1.049362	-0.561956	0.057904
C48	C	1.549362	-0.061956	0.557904
C49	C	1.049366	-0.623875	0.057898
C50	C	1.549366	-0.123875	0.557898
O51	O	1.097919	-0.655899	0.009334
O52	O	1.597919	-0.155899	0.509334
N53	N	0.992258	-0.654845	0.114978
N54	N	1.492258	-0.154845	0.614978
C55	C	0.935136	-0.623892	0.172063
C56	C	1.435136	-0.123892	0.672063
O57	O	0.886562	-0.655920	0.220613
O58	O	1.386562	-0.155920	0.720613
C59	C	0.935129	-0.561974	0.172064
C60	C	1.435129	-0.061974	0.672064
C61	C	0.992246	-0.531007	0.114986
C62	C	1.492246	-0.031007	0.614986
C63	C	1.106474	-0.530989	0.000830
C64	C	1.606474	-0.030989	0.500830
C65	C	1.106470	-0.469073	0.000837
C66	C	1.606470	0.030927	0.500837
C67	C	1.049355	-0.438124	0.057919
C68	C	1.549355	0.061876	0.557919
C69	C	0.992243	-0.469091	0.114993
C70	C	1.492243	0.030909	0.614993
C71	C	0.878004	-0.531022	0.229144
C72	C	1.378004	-0.031022	0.729144
C73	C	0.878001	-0.469099	0.229140
C74	C	1.378001	0.030901	0.729140
C75	C	0.935118	-0.438132	0.172062
C76	C	1.435118	0.061868	0.672062
C77	C	0.935124	-0.376227	0.172082
C78	C	1.435124	0.123773	0.672082
N79	N	0.992232	-0.345257	0.115002
N80	N	1.492232	0.154743	0.615002
C81	C	1.049347	-0.376205	0.057920
C82	C	1.549347	0.123795	0.557920
C83	C	0.935156	-0.753926	0.172054
C84	C	1.435156	-0.253926	0.672054
C85	C	0.935167	-0.815844	0.172058
C86	C	1.435167	-0.315844	0.672058
C87	C	1.049396	-0.815822	0.057892
C88	C	1.549396	-0.315822	0.557892
C89	C	1.049388	-0.753904	0.057893
C90	C	1.549388	-0.253904	0.557893
C91	C	0.992264	-0.722956	0.114974
C92	C	1.492264	-0.222956	0.614974
C93	C	1.049336	-0.246178	0.057941
C94	C	1.549336	0.253822	0.557941
C95	C	1.049330	-0.184257	0.057955
C96	C	1.549330	0.315743	0.557955
C97	C	0.935099	-0.184284	0.172118
C98	C	1.435099	0.315716	0.672118
C99	C	0.935107	-0.246199	0.172106
C100	C	1.435107	0.253801	0.672106
C101	C	0.992229	-0.277145	0.115011
C102	C	1.492229	0.222855	0.615011
O103	O	0.886593	-0.344164	0.220619
O104	O	1.386593	0.155836	0.720619
O105	O	1.097906	-0.344170	0.009371
O106	O	1.597906	0.155830	0.509371
C107	C	1.145813	-0.000061	0.108885
C108	C	1.645813	0.499939	0.608885
C109	C	1.239059	-0.000063	0.110547
C110	C	1.739059	0.499937	0.610547
C111	C	0.998367	-0.000059	-0.038561
C112	C	1.498367	0.499941	0.461439
C113	C	0.996705	-0.000059	-0.131807
C114	C	1.496705	0.499941	0.368193
N115	N	0.992280	0.153202	0.114973
N116	N	1.492280	0.653202	0.614973
C117	C	0.912801	-0.000046	-0.346663
C118	C	1.412801	0.499954	0.153337
C119	C	0.951752	-0.048550	-0.407671
C120	C	1.451752	0.451450	0.092329
C121	C	0.993698	-0.000054	-0.302533
C122	C	1.493698	0.499946	0.197467
C123	C	0.951793	0.048434	-0.407673
C124	C	1.451793	0.548434	0.092327
C125	C	0.990787	-0.000047	-0.467445
C126	C	1.490787	0.499953	0.032555
C127	C	1.032671	-0.048599	-0.362312
C128	C	1.532671	0.451401	0.137688
C129	C	1.032701	0.048429	-0.362308
C130	C	1.532701	0.548429	0.137692
C131	C	1.071711	-0.000087	-0.423298
C132	C	1.571711	0.499913	0.076702
C133	C	0.995372	-0.000059	-0.207530
C134	C	1.495372	0.499941	0.292470
C135	C	0.989119	-0.000047	-0.562446
C136	C	1.489119	0.499953	-0.062446
C137	C	0.986120	-0.000046	0.268577
C138	C	1.486120	0.499954	0.768577
C139	C	0.987782	-0.000042	0.361823
C140	C	1.487782	0.499958	0.861823
H141	H	0.563905	0.000003	-0.031573
H142	H	1.063905	0.500003	0.468427
O143	O	0.414410	0.000123	0.274665
O144	O	0.914410	0.500123	0.774665
C145	C	0.437550	0.051321	0.316986
C146	C	0.937550	0.551321	0.816986
H147	H	0.459460	0.086899	0.268757
H148	H	0.959460	0.586899	0.768757
H149	H	0.380863	0.068250	0.360325
H150	H	0.880863	0.568250	0.860325
H151	H	0.491036	0.040215	0.356098
H152	H	0.991036	0.540215	0.856098
O153	O	0.911098	0.097417	-0.431622
O154	O	1.411098	0.597417	0.068378
C155	C	0.953041	0.148470	-0.407359
C156	C	1.453041	0.648470	0.092641
H157	H	1.021410	0.137079	-0.399727
H158	H	1.521410	0.637079	0.100273
H159	H	0.951407	0.183994	-0.457888
H160	H	1.451407	0.683994	0.042112
H161	H	0.920224	0.165621	-0.344843
H162	H	1.420224	0.665621	0.155157
H163	H	1.095897	-0.728694	0.011415
H164	H	1.595897	-0.228694	0.511415
H165	H	1.152984	-0.556182	-0.045657
H166	H	1.652984	-0.056182	0.454343
H167	H	0.917526	-0.089553	-0.427772
H168	H	1.417526	0.410447	0.072228
H169	H	0.845652	-0.000090	-0.313356
H170	H	1.345652	0.499910	0.186644
O171	O	1.073389	-0.097557	-0.338314
O172	O	1.573389	0.402443	0.161686
C173	C	1.074448	-0.096974	-0.250017
C174	C	1.574448	0.403026	0.249983
H175	H	1.020535	-0.068226	-0.219826
H176	H	1.520535	0.431774	0.280174
H177	H	1.066495	-0.143999	-0.224558
H178	H	1.566495	0.356001	0.275442
H179	H	1.137170	-0.078227	-0.234267
H180	H	1.637170	0.421773	0.265733
H181	H	0.449463	0.089452	0.040294
H182	H	0.949463	0.589452	0.540294
H183	H	0.534920	0.089548	0.189620
H184	H	1.034920	0.589548	0.689620
O185	O	0.822436	-0.561001	0.284620
O186	O	1.322436	-0.061001	0.784620
C187	C	0.772042	-0.520395	0.335005
C188	C	1.272042	-0.020395	0.835005
H189	H	0.771104	-0.476258	0.300559
H190	H	1.271104	0.023742	0.800559
H191	H	0.704963	-0.538284	0.347772
H192	H	1.204963	-0.038284	0.847772
H193	H	0.799309	-0.513809	0.397424
H194	H	1.299309	-0.013809	0.897424
H195	H	0.535050	-0.089535	0.189660
H196	H	1.035050	0.410465	0.689660
H197	H	0.449467	-0.089539	0.040333
H198	H	0.949467	0.410461	0.540333
O199	O	1.104731	-0.154240	0.002343
O200	O	1.604731	0.345760	0.502343
C201	C	1.091028	-0.169431	-0.080781
C202	C	1.591028	0.330569	0.419219
H203	H	1.023761	-0.186431	-0.081171
H204	H	1.523761	0.313569	0.418829
H205	H	1.100702	-0.128741	-0.122994
H206	H	1.600702	0.371259	0.377006
H207	H	1.137538	-0.205403	-0.105395
H208	H	1.637538	0.294597	0.394605
O209	O	1.104861	-0.276297	0.002595
O210	O	1.604861	0.223703	0.502595
C211	C	1.156701	-0.312101	0.047605
C212	C	1.656701	0.187899	0.547605
H213	H	1.123248	-0.321395	0.113308
H214	H	1.623248	0.178605	0.613308
H215	H	1.170004	-0.355633	0.012540
H216	H	1.670004	0.144367	0.512540
H217	H	1.218768	-0.288227	0.053363
H218	H	1.718768	0.211773	0.553363
H219	H	1.152978	-0.443863	-0.045643
H220	H	1.652978	0.056137	0.454357
O221	O	1.151900	-0.000227	-0.462827
O222	O	1.651900	0.499773	0.037173
C223	C	1.194219	-0.051425	-0.439686
C224	C	1.694219	0.448575	0.060314
H225	H	1.145988	-0.087002	-0.417774
H226	H	1.645988	0.412998	0.082226
H227	H	1.237557	-0.068356	-0.496373
H228	H	1.737557	0.431644	0.003627
H229	H	1.233332	-0.040319	-0.386201
H230	H	1.733332	0.459681	0.113799
H231	H	1.095901	-0.841032	0.011412
H232	H	1.595901	-0.341032	0.511412
O233	O	0.879608	-0.845829	0.227541
O234	O	1.379608	-0.345829	0.727541
C235	C	0.829215	-0.805228	0.277935
C236	C	1.329215	-0.305228	0.777935
H237	H	0.828270	-0.761089	0.243495
H238	H	1.328270	-0.261089	0.743495
H239	H	0.762137	-0.823119	0.290706
H240	H	1.262137	-0.323119	0.790706
H241	H	0.856488	-0.798644	0.340352
H242	H	1.356488	-0.298644	0.840352
O243	O	0.879786	-0.723801	0.227553
O244	O	1.379786	-0.223801	0.727553
C245	C	0.924764	-0.687997	0.279421
C246	C	1.424764	-0.187997	0.779421
H247	H	0.990484	-0.678705	0.246005
H248	H	1.490484	-0.178705	0.746005
H249	H	0.889697	-0.644463	0.292702
H250	H	1.389697	-0.144463	0.792702
H251	H	0.930483	-0.711869	0.341498
H252	H	1.430483	-0.211869	0.841498
O253	O	0.822626	-0.438972	0.284628
O254	O	1.322626	0.061028	0.784628
C255	C	0.867600	-0.403169	0.336500
C256	C	1.367600	0.096831	0.836500
H257	H	0.933324	-0.393882	0.303092
H258	H	1.433324	0.106118	0.803092
H259	H	0.832536	-0.359632	0.349773
H260	H	1.332536	0.140368	0.849773
H261	H	0.873307	-0.427039	0.398580
H262	H	1.373307	0.072961	0.898580
H263	H	0.888605	-0.271413	0.218593
H264	H	1.388605	0.228587	0.718593
O265	O	0.879648	-0.154122	0.227481
O266	O	1.379648	0.345878	0.727481
C267	C	0.891910	-0.092832	0.215250
C268	C	1.391910	0.407168	0.715250
H269	H	0.923312	-0.084375	0.148491
H270	H	1.423312	0.415625	0.648491
H271	H	0.828303	-0.069302	0.224542
H272	H	1.328303	0.430698	0.724542
H273	H	0.934029	-0.075258	0.262827
H274	H	1.434029	0.424742	0.762827
H275	H	1.066898	0.089434	-0.342185
H276	H	1.566898	0.589434	0.157815
