data_functionalizedCrystal
_audit_creation_method	'MofGen! by Chris Wilmer'
_symmetry_space_group_name_H-M	'P1'
_symmetry_Int_Tables_number	1
_symmetry_cell_setting	triclinic
loop_
_symmetry_equiv_pos_as_xyz
  x,y,z
_cell_length_a	23.532407
_cell_length_b	22.610064
_cell_length_c	14.519709
_cell_angle_alpha	90.003132
_cell_angle_beta	96.735589
_cell_angle_gamma	90.002839
loop_
_atom_site_label
_atom_site_type_symbol
_atom_site_fract_x
_atom_site_fract_y
_atom_site_fract_z
O1	O	0.755769	0.049112	-0.111937
O2	O	0.589978	0.049130	-0.128135
O3	O	0.677269	0.049115	0.014255
O4	O	0.668478	0.049127	-0.254326
O5	O	0.677254	-0.049254	0.014234
O6	O	0.589963	-0.049240	-0.128156
O7	O	0.755753	-0.049257	-0.111958
Zn8	Zn	0.672856	-0.064867	-0.120060
Zn9	Zn	0.672876	0.064739	-0.120032
O10	O	0.668462	-0.049243	-0.254347
C11	C	0.568753	-0.000053	-0.127733
C12	C	0.505530	-0.000046	-0.126493
C13	C	0.106772	-0.000070	-0.202977
C14	C	0.047367	-0.000073	-0.201825
O15	O	0.010942	-0.000092	-0.272727
N16	N	0.024358	-0.000076	-0.117175
C17	C	0.060759	-0.000081	-0.033671
O18	O	0.035734	-0.000084	0.038437
C19	C	0.120164	-0.000082	-0.034824
C20	C	0.143168	-0.000073	-0.119480
C21	C	0.129777	-0.000062	-0.287626
C22	C	0.189179	-0.000057	-0.288778
C23	C	0.225575	-0.000060	-0.205281
C24	C	0.202570	-0.000068	-0.120631
C25	C	0.156563	-0.000091	0.048679
C26	C	0.215971	-0.000092	0.047519
C27	C	0.238976	-0.000083	-0.037137
C28	C	0.298367	-0.000067	-0.038286
N29	N	0.321375	-0.000064	-0.122936
C30	C	0.284979	-0.000061	-0.206434
C31	C	-0.063994	-0.000081	-0.031256
C32	C	-0.123397	-0.000076	-0.030102
C33	C	-0.136786	-0.000070	-0.198257
C34	C	-0.077382	-0.000070	-0.199410
C35	C	-0.040986	-0.000078	-0.115906
C36	C	0.409727	-0.000050	-0.208846
C37	C	0.469134	-0.000043	-0.209990
C38	C	0.482517	-0.000053	-0.041836
C39	C	0.423115	-0.000057	-0.040691
C40	C	0.386721	-0.000058	-0.124204
O41	O	0.334827	-0.000051	0.032579
O42	O	0.310012	-0.000065	-0.278529
N43	N	0.672846	-0.153319	-0.120078
C44	C	0.711530	-0.561967	-0.056992
C45	C	0.711533	-0.623887	-0.056985
O46	O	0.744399	-0.655911	-0.003361
N47	N	0.672875	-0.654856	-0.120013
C48	C	0.634209	-0.623902	-0.183046
O49	O	0.601327	-0.655930	-0.236655
C50	C	0.634203	-0.561984	-0.183048
C51	C	0.672867	-0.531018	-0.120022
C52	C	0.750190	-0.531001	0.006030
C53	C	0.750188	-0.469085	0.006021
C54	C	0.711525	-0.438136	-0.057008
C55	C	0.672865	-0.469102	-0.120030
C56	C	0.595534	-0.531031	-0.246075
C57	C	0.595532	-0.469108	-0.246071
C58	C	0.634196	-0.438142	-0.183045
C59	C	0.634200	-0.376237	-0.183067
N60	N	0.672857	-0.345267	-0.120039
C61	C	0.711520	-0.376217	-0.057010
C62	C	0.634222	-0.753936	-0.183037
C63	C	0.634229	-0.815854	-0.183040
C64	C	0.711553	-0.815834	-0.056978
C65	C	0.711548	-0.753915	-0.056980
C66	C	0.672879	-0.722967	-0.120009
C67	C	0.711513	-0.246190	-0.057032
C68	C	0.711508	-0.184268	-0.057048
C69	C	0.634183	-0.184294	-0.183107
C70	C	0.634189	-0.246209	-0.183094
C71	C	0.672856	-0.277156	-0.120049
O72	O	0.601349	-0.344173	-0.236662
O73	O	0.744391	-0.344182	-0.003402
C74	C	0.776979	-0.000073	-0.112360
C75	C	0.840201	-0.000076	-0.113600
C76	C	0.676852	-0.000070	0.048599
C77	C	0.675624	-0.000070	0.150966
N78	N	0.672890	0.153191	-0.120007
C79	C	0.668880	-0.000057	-0.288692
C80	C	0.670107	-0.000053	-0.391058
C81	C	0.671104	-0.000054	0.525808
C82	C	0.672359	-0.000059	0.421515
C83	C	0.673364	-0.000062	0.338390
C84	C	0.674619	-0.000066	0.234091
H85	H	-0.058656	-0.000066	-0.268344
O86	O	0.553838	-0.564431	-0.314051
H87	H	0.577861	-0.592635	-0.358676
O88	O	0.213982	-0.000065	-0.380090
H89	H	0.199365	0.040024	-0.420188
H90	H	0.100149	-0.000061	-0.355624
H91	H	0.512162	-0.000053	0.026146
H92	H	0.742998	-0.271379	-0.005694
O93	O	-0.176049	-0.000078	-0.288318
H94	H	-0.203439	0.040010	-0.291806
O95	O	-0.148204	-0.000085	0.061208
H96	H	-0.133586	0.040004	0.101316
O97	O	0.493947	-0.000034	-0.301301
H98	H	0.520695	-0.040124	-0.305852
O99	O	0.592542	-0.849243	-0.251051
H100	H	0.548133	-0.837365	-0.239679
O101	O	0.791882	-0.435692	0.074015
H102	H	0.836288	-0.447577	0.062641
H103	H	-0.034363	-0.000082	0.036747
O104	O	0.753208	-0.150868	0.010938
H105	H	0.780086	-0.182795	0.054774
O106	O	0.370476	-0.000046	-0.298917
H107	H	0.396462	-0.000034	-0.357965
H108	H	0.602711	-0.271423	-0.234425
O109	O	0.592483	-0.150896	-0.251072
H110	H	0.599803	-0.162768	-0.322914
H111	H	0.602735	-0.728741	-0.234370
H112	H	0.781674	-0.556194	0.057360
O113	O	0.131759	-0.000113	0.139987
H114	H	0.167056	-0.000126	0.197844
H115	H	0.245602	-0.000099	0.115519
O116	O	0.753234	-0.720515	0.011018
H117	H	0.780954	-0.692298	-0.027559
O118	O	0.398297	-0.000064	0.050613
H119	H	0.433588	-0.000068	0.108479
O120	O	0.553828	-0.435727	-0.314058
H121	H	0.526950	-0.467666	-0.357884
H122	H	0.743033	-0.841044	-0.005655
