data_functionalizedCrystal
_audit_creation_method	'MofGen! by Chris Wilmer'
_symmetry_space_group_name_H-M	'P1'
_symmetry_Int_Tables_number	1
_symmetry_cell_setting	triclinic
loop_
_symmetry_equiv_pos_as_xyz
  x,y,z
_cell_length_a	18.101398
_cell_length_b	13.897448
_cell_length_c	18.101398
_cell_angle_alpha	89.983499
_cell_angle_beta	90.015617
_cell_angle_gamma	89.987041
loop_
_atom_site_label
_atom_site_type_symbol
_atom_site_fract_x
_atom_site_fract_y
_atom_site_fract_z
Zn1	Zn	1.132126	0.384240	0.418847
Zn2	Zn	1.132070	0.545522	0.295009
Zn3	Zn	1.008304	0.384229	0.295008
Zn4	Zn	1.008265	0.545482	0.418798
O5	O	1.070191	0.464868	0.356916
O6	O	1.235752	0.405656	0.402441
O7	O	1.115645	0.524139	0.191376
O8	O	1.024769	0.249249	0.311456
O9	O	1.235710	0.524149	0.311458
O10	O	1.115741	0.249257	0.402440
O11	O	1.024715	0.405638	0.191376
O12	O	0.904666	0.405598	0.311408
O13	O	1.024703	0.524080	0.522437
O14	O	0.904637	0.524070	0.402356
O15	O	1.115703	0.405617	0.522473
O16	O	1.115607	0.680498	0.311410
O17	O	1.024648	0.680469	0.402357
C18	C	1.070137	0.715483	0.356894
C19	C	1.070182	0.822697	0.356910
C20	C	0.877781	0.464829	0.356877
C21	C	0.795467	0.464836	0.356878
C22	C	1.070205	0.464845	0.550078
C23	C	1.070211	0.464835	0.632392
C24	C	0.496376	0.464896	0.356940
C25	C	0.527694	0.389984	0.299998
C26	C	0.613312	0.390185	0.299755
C27	C	0.644758	0.464865	0.356909
C28	C	0.613662	0.566470	0.335587
C29	C	0.528017	0.566054	0.335191
C30	C	0.527974	0.439086	0.435339
C31	C	0.613624	0.436823	0.434911
C32	C	0.728618	0.464854	0.356893
C33	C	0.412516	0.464914	0.356955
C34	C	1.263353	0.464908	0.356955
C35	C	1.345667	0.464925	0.356972
C36	C	1.070266	0.213275	0.356953
C37	C	1.070298	0.106061	0.356969
C38	C	1.070260	1.018992	0.356956
C39	C	1.070214	0.909759	0.356933
C40	C	1.070203	0.464875	0.931483
C41	C	1.127652	0.390593	0.900180
C42	C	1.127486	0.390289	0.814562
C43	C	1.070207	0.464855	0.783100
C44	C	0.992181	0.437240	0.814166
C45	C	0.992511	0.436712	0.899811
C46	C	1.090099	0.566953	0.899899
C47	C	1.091825	0.566403	0.814249
C48	C	1.070205	0.464846	0.699241
C49	C	1.070200	0.464882	1.015342
C50	C	1.070181	0.464906	1.164505
C51	C	1.070200	0.464895	1.082191
H52	H	0.634337	0.314840	0.313120
C53	C	0.642601	0.596555	0.258992
N54	N	0.664396	0.619208	0.201298
C55	C	1.109695	0.288109	0.786897
N56	N	1.096290	0.211144	0.766061
C57	C	1.206065	0.413690	0.928014
N58	N	1.265129	0.431092	0.948980
C59	C	0.932715	0.506616	0.927785
N60	N	0.887674	0.559262	0.948851
H61	H	0.948222	0.489663	0.793784
C62	C	1.033575	0.641723	0.927249
N63	N	0.991000	0.698034	0.947854
C64	C	0.641188	0.643898	0.389855
N65	N	0.661925	0.702216	0.430728
H66	H	0.975017	0.363436	0.792724
C67	C	1.110083	0.288999	0.929268
N68	N	1.096847	0.212479	0.951178
H69	H	0.506157	0.406853	0.242243
C70	C	0.499881	0.287883	0.317850
N71	N	0.478926	0.210978	0.331297
H72	H	0.635032	0.487410	0.479611
C73	C	1.165641	0.600904	0.929092
N74	N	1.222542	0.626466	0.951079
C75	C	0.500609	0.512793	0.492658
N76	N	0.479992	0.568311	0.535825
C77	C	0.498817	0.340731	0.461526
N78	N	0.476857	0.266644	0.481240
C79	C	0.969758	0.335894	0.926816
N80	N	0.952631	0.259951	0.947151
H81	H	0.633778	0.407247	0.241662
H82	H	1.149245	0.587228	0.793945
C83	C	1.039413	0.645172	0.785320
N84	N	0.999930	0.704498	0.763533
C85	C	0.500997	0.595616	0.257761
N86	N	0.480649	0.617878	0.199437
H87	H	0.507299	0.623757	0.374857
H88	H	0.633952	0.362053	0.450989
C89	C	1.205657	0.413610	0.786187
N90	N	1.264541	0.431161	0.764818
