data_functionalizedCrystal
_audit_creation_method	'MofGen! by Chris Wilmer'
_symmetry_space_group_name_H-M	'P1'
_symmetry_Int_Tables_number	1
_symmetry_cell_setting	triclinic
loop_
_symmetry_equiv_pos_as_xyz
  x,y,z
_cell_length_a	10.654550
_cell_length_b	10.654550
_cell_length_c	9.730223
_cell_angle_alpha	90.004025
_cell_angle_beta	90.000510
_cell_angle_gamma	84.484931
loop_
_atom_site_label
_atom_site_type_symbol
_atom_site_fract_x
_atom_site_fract_y
_atom_site_fract_z
O1	O	-1.667840	-0.176398	-0.114187
O2	O	-1.302361	-0.193204	-0.114212
O3	O	-1.493504	-0.002062	-0.114190
O4	O	-1.476698	-0.367540	-0.114209
O5	O	-1.493490	-0.002058	0.114390
O6	O	-1.302347	-0.193200	0.114368
O7	O	-1.667826	-0.176394	0.114393
Zn8	Zn	-1.485084	-0.184796	0.150672
Zn9	Zn	-1.485103	-0.184802	-0.150492
O10	O	-1.476683	-0.367536	0.114371
C11	C	-1.255556	-0.191968	0.000075
C12	C	-1.116113	-0.188276	0.000065
C13	C	-1.492263	0.044738	0.000099
C14	C	-1.488571	0.184181	0.000096
C15	C	-1.714631	-0.177630	0.000103
C16	C	-1.854074	-0.181322	0.000104
C17	C	-1.036628	-0.300818	0.000064
C18	C	-0.905607	-0.297341	0.000088
C19	C	-0.933570	-0.068772	0.000109
C20	C	-1.064588	-0.072250	0.000095
C21	C	-1.477925	-0.414336	0.000079
C22	C	-1.481616	-0.553779	0.000072
N23	N	-1.485081	-0.184792	0.356209
C24	C	-1.601112	0.263667	0.000104
C25	C	-1.597636	0.394688	0.000087
C26	C	-1.369066	0.366725	0.000061
C27	C	-1.372544	0.235706	0.000068
C28	C	-1.569747	-0.100190	0.428144
C29	C	-1.569758	-0.100191	0.572027
C30	C	-1.400433	-0.269406	0.572026
C31	C	-1.400417	-0.269398	0.428146
N32	N	-1.485109	-0.184801	0.643972
H33	H	-1.078574	-0.395294	0.000049
O34	O	-1.309093	-0.360644	0.350534
H35	H	-1.325943	-0.458708	0.378109
H36	H	-1.331503	-0.338293	0.630612
O37	O	-1.726255	0.208100	0.000111
H38	H	-1.733315	0.149095	0.093285
H39	H	-1.689279	0.459401	0.000090
O40	O	-1.243926	0.422296	0.000060
H41	H	-1.260412	0.526756	0.000076
H42	H	-0.891602	0.025693	0.000142
H43	H	-1.280893	0.170985	0.000058
H44	H	-0.840894	-0.388984	0.000089
O45	O	-1.661044	-0.008927	0.350548
H46	H	-1.719909	0.049910	0.424748
O47	O	-1.661077	-0.008945	0.649621
H48	H	-1.722564	-0.062392	0.715167
H49	H	-1.129309	0.019401	0.000100
