data_functionalizedCrystal
_audit_creation_method	'MofGen! by Chris Wilmer'
_symmetry_space_group_name_H-M	'P1'
_symmetry_Int_Tables_number	1
_symmetry_cell_setting	triclinic
loop_
_symmetry_equiv_pos_as_xyz
  x,y,z
_cell_length_a	16.120542
_cell_length_b	16.120297
_cell_length_c	16.120484
_cell_angle_alpha	95.614431
_cell_angle_beta	90.163235
_cell_angle_gamma	90.127087
loop_
_atom_site_label
_atom_site_type_symbol
_atom_site_fract_x
_atom_site_fract_y
_atom_site_fract_z
Zn1	Zn	-1.224986	0.554845	0.422355
Zn2	Zn	-0.891653	0.888178	0.755688
Zn3	Zn	-0.558319	1.221511	1.089022
Zn4	Zn	-1.224881	0.422150	0.555039
Zn5	Zn	-0.891548	0.755483	0.888372
Zn6	Zn	-0.558215	1.088816	1.221706
Zn7	Zn	-1.093725	0.408084	0.408261
Zn8	Zn	-0.760392	0.741417	0.741594
Zn9	Zn	-0.427059	1.074751	1.074928
Zn10	Zn	-1.078879	0.554078	0.554261
Zn11	Zn	-0.745545	0.887412	0.887594
Zn12	Zn	-0.412212	1.220745	1.220927
O13	O	-1.155618	0.484789	0.484979
O14	O	-0.822285	0.818122	0.818312
O15	O	-0.488951	1.151456	1.151646
O16	O	-1.341008	0.543450	0.446180
O17	O	-1.007674	0.876783	0.779513
O18	O	-0.674341	1.210116	1.112847
O19	O	-1.213653	0.303651	0.529996
O20	O	-0.880320	0.636985	0.863329
O21	O	-0.546986	0.970318	1.196663
O22	O	-1.117394	0.421986	0.293500
O23	O	-0.784061	0.755320	0.626834
O24	O	-0.450728	1.088653	0.960167
O25	O	-1.340931	0.445959	0.543662
O26	O	-1.007598	0.779292	0.876996
O27	O	-0.674264	1.112626	1.210329
O28	O	-1.213831	0.529811	0.303855
O29	O	-0.880498	0.863144	0.637189
O30	O	-0.547164	1.196477	0.970522
O31	O	-1.117293	0.293317	0.422159
O32	O	-0.783960	0.626651	0.755492
O33	O	-0.450626	0.959984	1.088825
O34	O	-0.975720	0.421243	0.421404
O35	O	-0.642387	0.754577	0.754737
O36	O	-0.309054	1.087910	1.088071
O37	O	-1.092091	0.670813	0.542336
O38	O	-0.758757	1.004146	0.875669
O39	O	-0.425424	1.337479	1.209002
O40	O	-0.964813	0.528505	0.528669
O41	O	-0.631479	0.861838	0.862003
O42	O	-0.298146	1.195171	1.195336
O43	O	-1.199435	0.671376	0.445425
O44	O	-0.866102	1.004709	0.778758
O45	O	-0.532768	1.338042	1.112092
O46	O	-1.199257	0.445216	0.671566
O47	O	-0.865924	0.778549	1.004899
O48	O	-0.532590	1.111883	1.338233
O49	O	-1.091989	0.542144	0.670994
O50	O	-0.758656	0.875477	1.004327
O51	O	-0.425323	1.208810	1.337661
C52	C	-0.940180	0.473265	0.473423
C53	C	-0.606846	0.806598	0.806757
C54	C	-0.273513	1.139932	1.140090
C55	C	-0.848012	0.468356	0.468501
C56	C	-0.514679	0.801689	0.801834
C57	C	-0.181345	1.135022	1.135168
C58	C	-0.632818	0.510209	0.510486
C59	C	-0.299485	0.843542	0.843820
C60	C	0.033849	1.176875	1.177153
C61	C	-0.679265	0.459392	0.459521
C62	C	-0.345932	0.792725	0.792855
C63	C	-0.012599	1.126058	1.126188
C64	C	-0.773165	0.464381	0.464519
C65	C	-0.439831	0.797714	0.797852
C66	C	-0.106498	1.131047	1.131186
C67	C	-0.538910	0.505221	0.505490
C68	C	-0.205577	0.838554	0.838823
C69	C	0.127757	1.171887	1.172156
C70	C	-1.144022	0.495142	0.701523
C71	C	-0.810689	0.828476	1.034856
C72	C	-0.477356	1.161809	1.368190
C73	C	-1.139136	0.499603	0.794167
C74	C	-0.805803	0.832937	1.127500
C75	C	-0.472469	1.166270	1.460833
C76	C	-1.144118	0.702181	0.495366
C77	C	-0.810785	1.035514	0.828699
C78	C	-0.477452	1.368848	1.162032
C79	C	-1.139218	0.794821	0.499792
C80	C	-0.805885	1.128154	0.833125
C81	C	-0.472551	1.461487	1.166459
C82	C	-0.371898	0.496347	0.496575
C83	C	-0.038565	0.829680	0.829908
C84	C	0.294768	1.163014	1.163242
C85	C	-0.464066	0.501242	0.501504
C86	C	-0.130733	0.834575	0.834837
C87	C	0.202600	1.167909	1.168171
C88	C	-1.167124	0.268243	0.474575
C89	C	-0.833790	0.601576	0.807908
C90	C	-0.500457	0.934909	1.141241
C91	C	-1.172197	0.175601	0.469922
C92	C	-0.838864	0.508934	0.803256
C93	C	-0.505530	0.842268	1.136589
C94	C	-1.130242	0.964432	0.507853
C95	C	-0.796908	1.297765	0.841186
C96	C	-0.463575	1.631098	1.174520
C97	C	-1.181171	1.005995	0.461864
C98	C	-0.847838	1.339329	0.795197
C99	C	-0.514504	1.672662	1.128530
C100	C	-1.176176	1.100373	0.466349
C101	C	-0.842843	1.433706	0.799682
C102	C	-0.509510	1.767039	1.133016
C103	C	-1.135235	0.870046	0.503369
C104	C	-0.801902	1.203379	0.836702
C105	C	-0.468568	1.536712	1.170036
C106	C	-1.167280	0.474415	0.267591
C107	C	-0.833947	0.807748	0.600925
C108	C	-0.500614	1.141082	0.934258
C109	C	-1.172250	0.469994	0.174954
C110	C	-0.838917	0.803327	0.508287
C111	C	-0.505584	1.136661	0.841620
C112	C	-1.130219	0.507765	0.963789
C113	C	-0.796885	0.841099	1.297123
C114	C	-0.463552	1.174432	1.630456
C115	C	-1.181165	0.461834	1.005337
C116	C	-0.847832	0.795168	1.338670
C117	C	-0.514498	1.128501	1.672003
C118	C	-1.176203	0.466376	1.099720
C119	C	-0.842870	0.799709	1.433054
C120	C	-0.509537	1.133043	1.766387
C121	C	-1.135179	0.503225	0.869397
C122	C	-0.801846	0.836558	1.202730
C123	C	-0.468513	1.169892	1.536064
H124	H	-0.663572	0.557457	0.557869
H125	H	-0.330239	0.890790	0.891202
H126	H	0.003094	1.224124	1.224536
H127	H	-1.228523	0.970699	0.419122
H128	H	-0.895190	1.304033	0.752455
H129	H	-0.561856	1.637366	1.085788
Br130	Br	-1.051323	1.023258	0.579090
Br131	Br	-0.717990	1.356591	0.912423
Br132	Br	-0.384656	1.689924	1.245757
H133	H	-1.082880	0.550495	0.999102
H134	H	-0.749546	0.883828	1.332435
H135	H	-0.416213	1.217161	1.665768
Br136	Br	-0.628008	0.380630	0.380543
Br137	Br	-0.294674	0.713963	0.713877
Br138	Br	0.038659	1.047296	1.047210
Br139	Br	-1.260071	0.390606	0.946481
Br140	Br	-0.926738	0.723939	1.279814
Br141	Br	-0.593405	1.057273	1.613148
