data_functionalizedCrystal
_audit_creation_method	'MofGen! by Chris Wilmer'
_symmetry_space_group_name_H-M	'P1'
_symmetry_Int_Tables_number	1
_symmetry_cell_setting	triclinic
loop_
_symmetry_equiv_pos_as_xyz
  x,y,z
_cell_length_a	6.817900
_cell_length_b	7.190334
_cell_length_c	10.992421
_cell_angle_alpha	92.141001
_cell_angle_beta	108.764763
_cell_angle_gamma	60.611776
loop_
_atom_site_label
_atom_site_type_symbol
_atom_site_fract_x
_atom_site_fract_y
_atom_site_fract_z
V1	V	-4.249573	0.664971	-0.175712
O2	O	-4.205131	0.652344	0.010552
O3	O	-4.226220	0.660394	-0.350435
O4	O	-4.286188	0.955002	-0.172084
O5	O	-4.144749	0.355696	-0.169033
V6	V	-4.718940	0.627983	-0.153542
O7	O	-4.541885	0.746108	-0.224343
O8	O	-4.876825	0.546847	-0.104910
O9	O	-4.519086	0.632560	0.021181
O10	O	-4.880778	0.640611	-0.339806
O11	O	-4.941161	0.937258	-0.160220
O12	O	-4.459118	0.337953	-0.157170
C13	C	-4.074564	0.649896	-0.393057
C14	C	-4.137324	0.648087	-0.535890
C15	C	-4.151068	1.025695	-0.165547
C16	C	-4.264546	1.267252	-0.163700
C17	C	-4.002019	0.633502	-0.731222
C18	C	-3.936149	0.634538	-0.582574
C19	C	-4.167456	0.449188	-0.575138
C20	C	-4.231263	0.447081	-0.723688
C21	C	-4.445744	0.854814	-0.761013
C22	C	-4.377568	0.859129	-0.612486
C23	C	-4.334084	0.643052	0.063797
C24	C	-4.250566	0.644875	0.206628
H25	H	-4.004940	0.774741	-0.777207
H26	H	-3.855416	0.482100	-0.752248
H27	H	-4.358515	1.006284	-0.588136
N28	N	-4.452261	0.446738	-0.775001
N29	N	-4.639228	0.598559	-0.763298
H30	H	-4.795304	0.598315	-0.799537
N31	N	-3.710942	0.444446	-0.517380
N32	N	-3.601993	0.310590	-0.581653
H33	H	-3.442934	0.176324	-0.535611
H34	H	-4.627714	0.865239	-0.802098
N35	N	-4.350745	0.452085	-0.537201
N36	N	-4.461470	0.601128	-0.480677
H37	H	-4.590923	0.603183	-0.453883
H38	H	-4.470033	1.005316	-0.810066
N39	N	-3.951179	0.253195	-0.507713
N40	N	-3.759121	0.207782	-0.522615
H41	H	-3.606364	0.069366	-0.474998
N42	N	-3.900783	0.812837	-0.549715
N43	N	-3.924686	0.937375	-0.636664
H44	H	-3.899707	1.063304	-0.613465
N45	N	-4.051914	0.248980	-0.746256
N46	N	-3.837382	0.202634	-0.705927
H47	H	-3.710702	0.062721	-0.721858
H48	H	-4.531870	0.881343	-0.582210
