data_functionalizedCrystal
_audit_creation_method	'MofGen! by Chris Wilmer'
_symmetry_space_group_name_H-M	'P1'
_symmetry_Int_Tables_number	1
_symmetry_cell_setting	triclinic
loop_
_symmetry_equiv_pos_as_xyz
  x,y,z
_cell_length_a	19.288864
_cell_length_b	11.792241
_cell_length_c	18.366186
_cell_angle_alpha	89.993644
_cell_angle_beta	89.977106
_cell_angle_gamma	83.664831
loop_
_atom_site_label
_atom_site_type_symbol
_atom_site_fract_x
_atom_site_fract_y
_atom_site_fract_z
O1	O	0.922157	0.141582	-0.060784
O2	O	0.720005	0.160681	-0.060734
O3	O	0.825987	-0.014113	-0.060755
O4	O	0.816175	0.316377	-0.060763
O5	O	0.825968	-0.014122	0.060345
O6	O	0.719987	0.160673	0.060365
O7	O	0.922139	0.141574	0.060316
Zn8	Zn	0.821060	0.151122	0.079568
Zn9	Zn	0.821084	0.151133	-0.079986
O10	O	0.816157	0.316368	0.060337
C11	C	0.694116	0.160063	-0.000178
C12	C	0.617002	0.158218	-0.000159
C13	C	0.825361	-0.056399	-0.000205
C14	C	0.823517	-0.182385	-0.000206
C15	C	0.572888	0.260779	-0.000173
C16	C	0.500431	0.259046	-0.000181
C17	C	0.472091	0.154746	-0.000189
C18	C	0.516215	0.052171	-0.000171
C19	C	0.588670	0.053907	-0.000156
C20	C	0.363370	0.072757	-0.042638
C21	C	0.290915	0.071025	-0.042658
C22	C	0.248615	0.149387	-0.000233
C23	C	0.278777	0.229500	0.042202
C24	C	0.351232	0.231236	0.042217
C25	C	0.393526	0.152852	-0.000205
C26	C	0.125935	0.250076	-0.000255
C27	C	0.053477	0.248339	-0.000258
C28	C	0.069262	0.041460	-0.000256
C29	C	0.141718	0.043201	-0.000246
C30	C	0.170050	0.147512	-0.000248
C31	C	0.820125	-0.413045	-0.000217
C32	C	0.822009	-0.284689	-0.000211
C33	C	0.948028	0.142192	-0.000242
C34	C	1.025142	0.144037	-0.000266
C35	C	0.816783	0.358654	-0.000214
C36	C	0.818627	0.484640	-0.000219
N37	N	0.821049	0.151113	0.188459
N38	N	0.821101	0.151133	-0.188877
C39	C	0.867993	0.073752	0.226550
C40	C	0.867997	0.073747	0.302778
C41	C	0.821064	0.151123	0.340912
C42	C	0.774111	0.228490	0.302811
C43	C	0.774103	0.228485	0.226585
C44	C	0.812353	0.254534	0.461671
C45	C	0.812366	0.254540	0.537896
C46	C	0.821084	0.151137	0.576019
C47	C	0.829804	0.047723	0.537908
C48	C	0.829796	0.047719	0.461682
C49	C	0.821067	0.151136	0.423566
C50	C	0.868036	0.073764	0.696765
C51	C	0.868035	0.073757	0.772994
C52	C	0.774152	0.228510	0.773026
C53	C	0.774149	0.228507	0.696799
C54	C	0.821095	0.151135	0.658673
H55	H	0.595951	0.345717	-0.000176
H56	H	0.177637	-0.040316	-0.000238
H57	H	0.149004	0.335012	-0.000246
C58	C	0.038099	-0.073275	-0.000264
C59	C	-0.009576	-0.102923	0.062610
C60	C	-0.040742	-0.217663	0.062606
C61	C	-0.024233	-0.302754	-0.000273
C62	C	0.023444	-0.273108	-0.063153
C63	C	0.054610	-0.158369	-0.063148
H64	H	-0.021799	-0.039931	0.109162
H65	H	-0.076036	-0.239608	0.109154
H66	H	-0.047303	-0.387691	-0.000277
H67	H	0.035668	-0.336100	-0.109704
H68	H	0.089904	-0.136424	-0.109696
C69	C	0.257744	-0.017092	-0.089340
C70	C	0.277515	-0.145557	-0.076163
C71	C	0.244347	-0.233676	-0.122848
C72	C	0.191408	-0.193330	-0.182709
C73	C	0.171634	-0.064859	-0.195889
C74	C	0.204802	0.023260	-0.149204
H75	H	0.316707	-0.175429	-0.031847
H76	H	0.258985	-0.328779	-0.113091
H77	H	0.166855	-0.258561	-0.217268
H78	H	0.132442	-0.034987	-0.240204
H79	H	0.190164	0.118363	-0.158961
C80	C	0.722465	0.313593	0.184679
C81	C	0.670856	0.398740	0.226618
C82	C	0.619219	0.483851	0.184710
C83	C	0.619191	0.483815	0.100864
C84	C	0.670802	0.398665	0.058921
C85	C	0.722439	0.313554	0.100829
H86	H	0.670875	0.398770	0.288690
H87	H	0.581014	0.546884	0.215760
H88	H	0.580966	0.546819	0.069842
H89	H	0.670783	0.398635	-0.003151
H90	H	0.760645	0.250520	0.069779
H91	H	0.906259	0.010760	0.665722
H92	H	0.836895	-0.036484	0.430655
C93	C	0.409897	-0.013449	-0.089309
C94	C	0.376724	-0.101556	-0.135993
C95	C	0.423250	-0.187760	-0.182660
C96	C	0.502949	-0.185857	-0.182643
C97	C	0.536125	-0.097746	-0.135958
C98	C	0.489599	-0.011542	-0.089291
H99	H	0.317723	-0.102968	-0.136006
H100	H	0.398690	-0.252986	-0.217219
H101	H	0.537390	-0.249670	-0.217189
H102	H	0.595127	-0.096335	-0.135944
H103	H	0.514160	0.053683	-0.054731
H104	H	0.735935	0.291506	0.804074
C105	C	0.637200	-0.058918	-0.000147
C106	C	0.633716	-0.144497	0.062736
C107	C	0.682247	-0.257323	0.062743
C108	C	0.734262	-0.284570	-0.000133
C109	C	0.737747	-0.198990	-0.063020
C110	C	0.689216	-0.086163	-0.063027
H111	H	0.595210	-0.124329	0.109284
H112	H	0.679667	-0.320675	0.109296
H113	H	0.770188	-0.368091	-0.000128
H114	H	0.776254	-0.219158	-0.109568
H115	H	0.691797	-0.022811	-0.109581
C116	C	0.919643	-0.011350	0.344688
C117	C	0.971300	-0.096419	0.302749
C118	C	1.022947	-0.181514	0.344656
C119	C	1.022937	-0.181541	0.428502
C120	C	0.971279	-0.096469	0.470446
C121	C	0.919632	-0.011374	0.428539
H122	H	0.971309	-0.096402	0.240677
H123	H	1.061188	-0.244490	0.313606
H124	H	1.061169	-0.244534	0.459524
H125	H	0.971270	-0.096486	0.532518
H126	H	0.881391	0.051602	0.459589
C127	C	0.839447	-0.066029	0.579833
C128	C	0.839489	-0.066032	0.663679
C129	C	0.849160	-0.179778	0.705607
C130	C	0.858789	-0.293521	0.663689
C131	C	0.858748	-0.293523	0.579838
C132	C	0.849077	-0.179776	0.537910
H133	H	0.832360	0.018171	0.694713
H134	H	0.849190	-0.179777	0.767679
H135	H	0.865948	-0.377723	0.694726
H136	H	0.865876	-0.377726	0.548804
H137	H	0.849046	-0.179778	0.475838
H138	H	0.735896	0.291488	0.333864
C139	C	0.722516	0.313616	0.654892
C140	C	0.670907	0.398763	0.696830
C141	C	0.619270	0.483874	0.654923
C142	C	0.619242	0.483837	0.571077
C143	C	0.670853	0.398688	0.529133
C144	C	0.722490	0.313577	0.571041
H145	H	0.670926	0.398792	0.758902
H146	H	0.581064	0.546907	0.685972
H147	H	0.581017	0.546841	0.540054
H148	H	0.670834	0.398658	0.467061
H149	H	0.760695	0.250543	0.539991
H150	H	0.464507	0.342567	-0.000190
H151	H	0.244337	0.293309	0.076749
H152	H	0.375787	0.296463	0.076772
C153	C	0.802773	0.368290	0.579814
C154	C	0.793168	0.482031	0.537884
C155	C	0.783574	0.595784	0.579801
C156	C	0.783585	0.595796	0.663647
C157	C	0.793191	0.482051	0.705581
C158	C	0.802785	0.368298	0.663665
H159	H	0.793159	0.482026	0.475812
H160	H	0.776463	0.679986	0.548758
H161	H	0.776483	0.680003	0.694676
H162	H	0.793200	0.482056	0.767653
H163	H	0.809896	0.284096	0.694708
H164	H	0.906261	0.010755	0.804009
H165	H	0.017560	0.331860	-0.000265
H166	H	0.493136	-0.032752	-0.000188
H167	H	0.906217	0.010749	0.195510
H168	H	0.805242	0.338743	0.430637
