data_functionalizedCrystal
_audit_creation_method	'MofGen! by Chris Wilmer'
_symmetry_space_group_name_H-M	'P1'
_symmetry_Int_Tables_number	1
_symmetry_cell_setting	triclinic
loop_
_symmetry_equiv_pos_as_xyz
  x,y,z
_cell_length_a	12.594516
_cell_length_b	19.077105
_cell_length_c	19.076919
_cell_angle_alpha	89.923776
_cell_angle_beta	92.277239
_cell_angle_gamma	92.287367
loop_
_atom_site_label
_atom_site_type_symbol
_atom_site_fract_x
_atom_site_fract_y
_atom_site_fract_z
Zn1	Zn	-0.514930	-1.058319	-0.440450
Zn2	Zn	-0.686069	-1.062975	-0.322954
Zn3	Zn	-0.500672	-0.945535	-0.318243
Zn4	Zn	-0.685427	-0.940797	-0.435707
O5	O	-0.596775	-1.001907	-0.379338
O6	O	-0.543868	-1.157269	-0.428821
O7	O	-0.655777	-1.051328	-0.223998
O8	O	-0.353620	-0.960531	-0.334467
O9	O	-0.669603	-1.160690	-0.342497
O10	O	-0.364096	-1.043393	-0.424253
O11	O	-0.519567	-0.965046	-0.220536
O12	O	-0.518944	-0.846574	-0.329868
O13	O	-0.668509	-0.952455	-0.534668
O14	O	-0.654683	-0.843093	-0.416168
O15	O	-0.543246	-1.038798	-0.538153
O16	O	-0.834927	-1.046733	-0.337898
O17	O	-0.834455	-0.956969	-0.420737
C18	C	-0.585197	-0.819337	-0.371992
C19	C	-0.580271	-0.741233	-0.368866
C20	C	-0.873312	-1.001861	-0.379330
C21	C	-0.991622	-1.001905	-0.379352
C22	C	-0.607396	-0.994578	-0.562619
C23	C	-0.611923	-0.991455	-0.640723
C24	C	-1.060655	-0.953079	-0.424375
C25	C	-1.126689	-0.938538	-0.359570
C26	C	-1.136391	-1.016509	-0.444171
C27	C	-1.056094	-0.987331	-0.314511
C28	C	-1.065794	-1.065330	-0.399157
C29	C	-1.131795	-1.050816	-0.334309
C30	C	-0.319159	-1.001971	-0.379363
C31	C	-0.200856	-1.001998	-0.379374
C32	C	-0.608398	-1.185189	-0.386714
C33	C	-0.613351	-1.263293	-0.389857
C34	C	-0.648728	-0.702747	-0.412259
C35	C	-0.644085	-0.629360	-0.409325
C36	C	-0.570991	-0.594459	-0.362994
C37	C	-0.502527	-0.632949	-0.319600
C38	C	-0.507165	-0.706335	-0.322538
C39	C	-0.549525	-0.375169	-0.349400
C40	C	-0.544895	-0.301778	-0.346464
C41	C	-0.686452	-0.298194	-0.436191
C42	C	-0.691088	-0.371582	-0.439121
C43	C	-0.622620	-0.410065	-0.395730
N44	N	-0.566246	-0.519445	-0.359993
N45	N	-0.627361	-0.485078	-0.398735
C46	C	-0.548834	-1.034940	-0.679231
C47	C	-0.553083	-1.031997	-0.752617
C48	C	-0.620426	-0.985572	-0.787494
C49	C	-0.683517	-0.942083	-0.748980
C50	C	-0.679262	-0.945023	-0.675595
C51	C	-0.640139	-0.971956	-1.006776
C52	C	-0.644391	-0.969021	-1.080166
C53	C	-0.513955	-1.058935	-1.083799
C54	C	-0.509711	-1.061873	-1.010412
C55	C	-0.572798	-1.018381	-0.971905
N56	N	-0.624772	-0.982565	-0.862506
N57	N	-0.568445	-1.021386	-0.896894
C58	C	-0.586120	-1.009247	-0.196772
C59	C	-0.581302	-1.012506	-0.118675
H60	H	-1.029418	-0.911720	-0.462389
Cl61	Cl	-0.782984	-0.415452	-0.497366
Cl62	Cl	-1.179710	-1.114632	-0.275472
Cl63	Cl	-1.024203	-1.148055	-0.425041
Cl64	Cl	-0.453005	-0.257903	-0.288210
Cl65	Cl	-0.463449	-0.423539	-0.294852
Cl66	Cl	-0.473817	-1.086697	-0.801027
Cl67	Cl	-0.410630	-0.589073	-0.261360
H68	H	-1.171502	-1.028824	-0.498979
H69	H	-0.708252	-0.731159	-0.449984
Cl70	Cl	-0.730149	-0.580981	-0.463879
H71	H	-1.153628	-0.884944	-0.342835
H72	H	-0.454876	-1.099679	-0.982021
Cl73	Cl	-0.729051	-0.910651	-1.124009
H74	H	-0.451416	-0.737669	-0.287206
Cl75	Cl	-0.772520	-0.249810	-0.490736
Cl76	Cl	-0.464175	-1.093309	-0.635394
Cl77	Cl	-0.434647	-1.113604	-1.132212
Cl78	Cl	-1.002083	-0.968224	-0.229864
H79	H	-0.691524	-0.936552	-0.975432
H80	H	-0.738345	-0.904280	-0.777382
H81	H	-0.730624	-0.909606	-0.644242
