data_functionalizedCrystal
_audit_creation_method	'MofGen! by Chris Wilmer'
_symmetry_space_group_name_H-M	'P1'
_symmetry_Int_Tables_number	1
_symmetry_cell_setting	triclinic
loop_
_symmetry_equiv_pos_as_xyz
  x,y,z
_cell_length_a	11.792241
_cell_length_b	10.654553
_cell_length_c	9.130313
_cell_angle_alpha	89.999918
_cell_angle_beta	90.002721
_cell_angle_gamma	95.660203
loop_
_atom_site_label
_atom_site_type_symbol
_atom_site_fract_x
_atom_site_fract_y
_atom_site_fract_z
O1	O	0.159434	-1.667379	0.121816
O2	O	0.174619	-1.301858	0.121816
O3	O	0.001876	-1.493489	0.121806
O4	O	0.332176	-1.475749	0.121826
O5	O	0.001876	-1.493490	-0.121793
O6	O	0.174619	-1.301859	-0.121783
O7	O	0.159434	-1.667380	-0.121782
Cu8	Cu	0.167026	-1.484619	-0.144025
Cu9	Cu	0.167026	-1.484619	0.144059
O10	O	0.332176	-1.475749	-0.121772
C11	C	-0.040417	-1.492375	0.000007
C12	C	-0.166439	-1.489040	0.000008
C13	C	0.173503	-1.255064	0.000016
C14	C	0.170165	-1.115630	0.000016
C15	C	0.160549	-1.714174	0.000020
C16	C	0.163887	-1.853608	0.000031
C17	C	-0.397165	-1.482906	0.000033
C18	C	-0.268772	-1.486314	0.000020
C19	C	0.374470	-1.476863	0.000030
C20	C	0.500491	-1.480199	0.000038
C21	C	0.165453	-0.919104	-0.132760
C22	C	0.168596	-1.050116	-0.132768
C23	C	0.168602	-1.050125	0.132817
C24	C	0.165468	-0.919114	0.132823
C25	C	0.165445	-0.919100	-0.286094
C26	C	0.168588	-1.050112	-0.286102
N27	N	0.167026	-1.484629	-0.346648
C28	C	0.236499	-1.561254	-0.576659
C29	C	0.236506	-1.561256	-0.423322
C30	C	0.097542	-1.407985	-0.423318
C31	C	0.097541	-1.407978	-0.576652
C32	C	0.316725	-1.649748	-0.576660
C33	C	0.316733	-1.649750	-0.423323
N34	N	0.167018	-1.484619	0.346681
H35	H	0.164207	-0.865791	0.240954
H36	H	0.243881	-0.872594	-0.344964
H37	H	0.169891	-1.103476	0.240932
H38	H	0.082664	-0.889761	-0.333671
H39	H	0.251372	-1.079443	-0.333677
H40	H	0.040978	-1.345585	-0.360878
H41	H	0.090145	-1.096618	-0.344972
H42	H	0.040973	-1.345563	-0.639063
H43	H	0.406232	-1.618567	-0.618264
H44	H	0.281049	-1.744427	-0.624227
H45	H	0.402203	-1.609997	-0.375761
H46	H	0.288835	-1.748884	-0.381715
