data_functionalizedCrystal
_audit_creation_method	'MofGen! by Chris Wilmer'
_symmetry_space_group_name_H-M	'P1'
_symmetry_Int_Tables_number	1
_symmetry_cell_setting	triclinic
loop_
_symmetry_equiv_pos_as_xyz
  x,y,z
_cell_length_a	6.817900
_cell_length_b	15.301126
_cell_length_c	19.551833
_cell_angle_alpha	95.691344
_cell_angle_beta	101.663477
_cell_angle_gamma	104.177575
loop_
_atom_site_label
_atom_site_type_symbol
_atom_site_fract_x
_atom_site_fract_y
_atom_site_fract_z
V1	V	-4.009822	-0.125705	-0.218072
O2	O	-3.994104	0.005068	-0.213702
O3	O	-3.964873	-0.248316	-0.216791
O4	O	-3.952474	-0.124198	-0.313085
O5	O	-4.006589	-0.119909	-0.116741
V6	V	-4.494162	-0.110013	-0.205926
O7	O	-4.269288	-0.160128	-0.244714
O8	O	-4.684894	-0.075590	-0.179284
O9	O	-4.315905	0.012599	-0.207208
O10	O	-4.627277	-0.240786	-0.210296
O11	O	-4.614792	-0.115808	-0.307257
O12	O	-4.328304	-0.111519	-0.110914
C13	C	-3.811003	-0.278193	-0.213405
C14	C	-3.855479	-0.378432	-0.212990
C15	C	-3.795186	-0.119867	-0.336236
C16	C	-3.829604	-0.119446	-0.413911
C17	C	-4.058282	-0.430133	-0.216289
C18	C	-4.100063	-0.524318	-0.215904
C19	C	-3.939034	-0.566801	-0.212215
C20	C	-3.736215	-0.515094	-0.208918
C21	C	-3.694440	-0.420911	-0.209309
C22	C	-3.823299	-0.711402	-0.208104
C23	C	-3.865075	-0.805591	-0.207712
C24	C	-4.228922	-0.814809	-0.214699
C25	C	-4.187147	-0.720626	-0.215089
C26	C	-3.984329	-0.668925	-0.211791
C27	C	-4.027674	-0.123775	-0.453966
C28	C	-4.060014	-0.123380	-0.526950
C29	C	-3.894281	-0.118674	-0.559878
C30	C	-3.696180	-0.114340	-0.519814
C31	C	-3.663841	-0.114726	-0.446830
C32	C	-3.832858	-0.167703	-0.679274
C33	C	-3.865207	-0.167323	-0.752257
C34	C	-3.994014	-0.117479	-0.784983
C35	C	-4.090509	-0.068028	-0.744720
C36	C	-4.058170	-0.068414	-0.671736
C37	C	-3.929326	-0.118254	-0.639016
C38	C	-4.227163	-0.121378	-0.904175
C39	C	-4.259493	-0.120977	-0.977160
C40	C	-3.895657	-0.111946	-0.970023
C41	C	-3.863329	-0.112338	-0.897039
C42	C	-4.029091	-0.117058	-0.864120
C43	C	-4.133117	0.042471	-0.210592
C44	C	-4.067879	0.142709	-0.211011
C45	C	-4.148935	-0.115854	-0.087758
C46	C	-4.093755	-0.116270	-0.010083
H47	H	-4.189412	-0.395549	-0.219286
H48	H	-4.136737	-0.028147	-0.638956
H49	H	-3.702044	-0.108823	-0.864427
H50	H	-3.529301	-0.378818	-0.206626
H51	H	-3.760709	-0.108107	-0.996831
H52	H	-3.658150	-0.669310	-0.205424
H53	H	-3.605108	-0.549692	-0.205919
H54	H	-4.195400	-0.027442	-0.771364
H55	H	-4.362136	-0.125218	-0.877371
H56	H	-4.162653	-0.127615	-0.427168
H57	H	-4.221315	-0.126909	-0.559569
H58	H	-4.420786	-0.124495	-1.009771
H59	H	-3.786645	-0.207595	-0.785034
H60	H	-3.727946	-0.208287	-0.652633
H61	H	-3.561239	-0.110505	-0.546628
H62	H	-3.502542	-0.111194	-0.414217
H63	H	-4.265202	-0.566409	-0.218591
H64	H	-4.394059	-0.856906	-0.217374
H65	H	-4.318271	-0.686038	-0.218089
H66	H	-3.733960	-0.840182	-0.204729
