data_functionalizedCrystal
_audit_creation_method	'MofGen! by Chris Wilmer'
_symmetry_space_group_name_H-M	'P1'
_symmetry_Int_Tables_number	1
_symmetry_cell_setting	triclinic
loop_
_symmetry_equiv_pos_as_xyz
  x,y,z
_cell_length_a	16.974800
_cell_length_b	10.654551
_cell_length_c	16.053802
_cell_angle_alpha	92.593346
_cell_angle_beta	91.074188
_cell_angle_gamma	83.936367
loop_
_atom_site_label
_atom_site_type_symbol
_atom_site_fract_x
_atom_site_fract_y
_atom_site_fract_z
O1	O	1.049952	0.160086	0.001546
O2	O	0.820596	0.179311	-0.013958
O3	O	0.940547	-0.013097	-0.005850
O4	O	0.930001	0.352493	-0.006562
O5	O	0.933944	-0.002550	0.132562
O6	O	0.813993	0.189857	0.124454
O7	O	1.043350	0.170633	0.139958
Zn8	Zn	0.927623	0.181920	0.154182
Zn9	Zn	0.936323	0.168024	-0.028182
O10	O	0.923399	0.363040	0.131850
C11	C	0.787927	0.183660	0.053263
C12	C	0.700419	0.180890	0.047347
C13	C	0.936471	-0.054613	0.063302
C14	C	0.934154	-0.194032	0.063139
C15	C	0.655713	0.185336	0.120019
C16	C	0.573492	0.182714	0.114463
C17	C	0.535977	0.175656	0.036235
C18	C	0.580689	0.171206	-0.036442
C19	C	0.662909	0.173819	-0.030886
C20	C	0.290460	0.167216	0.011525
C21	C	0.208233	0.164607	0.005974
C22	C	0.201042	0.176112	0.156880
C23	C	0.283264	0.178732	0.162430
C24	C	0.327969	0.174276	0.089753
N25	N	0.451933	0.172980	0.030554
N26	N	0.412012	0.176943	0.095434
C27	C	0.936666	-0.265282	-0.012381
C28	C	0.934482	-0.396279	-0.012525
C29	C	0.927277	-0.384765	0.138380
C30	C	0.929456	-0.253770	0.138522
C31	C	0.941365	-0.205544	-0.087764
C32	C	0.943878	-0.276795	-0.163291
C33	C	0.941694	-0.407792	-0.163434
C34	C	0.936997	-0.467538	-0.088051
C35	C	1.076019	0.166284	0.072735
C36	C	1.163527	0.169052	0.078645
C37	C	0.927474	0.404556	0.062696
C38	C	0.929792	0.543975	0.062853
N39	N	0.921692	0.191403	0.278642
N40	N	0.942260	0.158531	-0.152641
C41	C	0.972750	0.109562	0.325787
C42	C	0.968609	0.116208	0.412914
C43	C	0.913412	0.204700	0.452894
C44	C	0.862348	0.286544	0.405742
C45	C	0.866487	0.279892	0.318617
C46	C	0.895335	0.233722	0.713082
C47	C	0.891202	0.240371	0.800214
C48	C	0.997462	0.070032	0.807379
C49	C	1.001598	0.063393	0.720252
C50	C	0.950532	0.145232	0.673107
N51	N	0.909179	0.211498	0.541951
N52	N	0.954762	0.138428	0.584051
H53	H	0.686250	0.191093	0.183720
H54	H	0.824908	0.346533	0.280232
N55	N	0.525270	0.187503	0.192842
H56	H	0.561575	0.191487	0.243247
H57	H	0.485401	0.264923	0.193698
H58	H	0.846252	0.312438	0.832761
N59	N	0.943715	-0.064256	-0.087619
H60	H	0.894053	-0.020422	-0.061263
H61	H	0.991626	-0.040566	-0.054675
N62	N	0.540225	0.163583	-0.120815
H63	H	0.500305	0.240023	-0.126888
H64	H	0.581072	0.161116	-0.165961
N65	N	0.323724	0.186359	0.246804
H66	H	0.282925	0.188780	0.292000
H67	H	0.363651	0.109917	0.252805
H68	H	0.947695	-0.228138	-0.224665
H69	H	0.943732	-0.465799	-0.224932
H70	H	0.927393	-0.195753	0.200017
H71	H	0.326850	0.163584	-0.047654
H72	H	1.017701	0.037508	0.293241
H73	H	0.935207	-0.574203	-0.088175
N74	N	1.023706	0.027981	0.463766
H75	H	1.059313	-0.029067	0.425219
H76	H	1.057077	0.079020	0.502258
H77	H	0.164634	0.179738	0.216049
H78	H	0.177691	0.158863	-0.057732
N79	N	0.922222	-0.449202	0.219681
H80	H	0.921229	-0.543000	0.208131
H81	H	0.969807	-0.433804	0.255946
H82	H	1.046544	-0.008664	0.687702
N83	N	0.711133	0.169015	-0.109266
H84	H	0.674893	0.164148	-0.159667
H85	H	0.739439	0.247627	-0.110654
H86	H	1.039037	0.003401	0.845771
N87	N	0.840254	0.321981	0.662239
H88	H	0.804662	0.379049	0.700790
H89	H	0.872437	0.374875	0.628133
H90	H	0.817402	0.358593	0.438299
