data_functionalizedCrystal
_audit_creation_method	'MofGen! by Chris Wilmer'
_symmetry_space_group_name_H-M	'P1'
_symmetry_Int_Tables_number	1
_symmetry_cell_setting	triclinic
loop_
_symmetry_equiv_pos_as_xyz
  x,y,z
_cell_length_a	9.065218
_cell_length_b	8.559649
_cell_length_c	8.140239
_cell_angle_alpha	89.998339
_cell_angle_beta	89.997198
_cell_angle_gamma	77.397275
loop_
_atom_site_label
_atom_site_type_symbol
_atom_site_fract_x
_atom_site_fract_y
_atom_site_fract_z
O1	O	1.931006	0.233903	-0.136609
O2	O	2.264339	0.567236	0.196725
O3	O	2.597673	0.900569	0.530058
O4	O	1.499310	0.253088	-0.136610
O5	O	1.832643	0.586422	0.196723
O6	O	2.165977	0.919755	0.530056
O7	O	1.753191	0.011444	-0.136608
O8	O	2.086524	0.344777	0.196726
O9	O	2.419857	0.678111	0.530059
O10	O	1.677125	0.475547	-0.136611
O11	O	2.010459	0.808880	0.196722
O12	O	2.343792	1.142214	0.530055
O13	O	1.753179	0.011441	0.136619
O14	O	2.086512	0.344774	0.469953
O15	O	2.419845	0.678108	0.803286
O16	O	1.499298	0.253085	0.136617
O17	O	1.832631	0.586419	0.469950
O18	O	2.165965	0.919752	0.803283
O19	O	1.930994	0.233900	0.136618
O20	O	2.264327	0.567233	0.469952
O21	O	2.597660	0.900566	0.803285
Zn22	Zn	1.715144	0.243492	0.179998
Zn23	Zn	2.048477	0.576825	0.513332
Zn24	Zn	2.381811	0.910159	0.846665
Zn25	Zn	1.715160	0.243496	-0.179990
Zn26	Zn	2.048493	0.576829	0.153343
Zn27	Zn	2.381827	0.910163	0.486676
O28	O	1.677113	0.475544	0.136616
O29	O	2.010446	0.808877	0.469949
O30	O	2.343780	1.142211	0.803282
C31	C	1.444549	0.251243	0.000003
C32	C	1.777883	0.584576	0.333336
C33	C	2.111216	0.917910	0.666670
C34	C	1.281399	0.245730	0.000002
C35	C	1.614732	0.579063	0.333335
C36	C	1.948066	0.912396	0.666669
C37	C	1.758949	-0.048004	0.000003
C38	C	2.092282	0.285329	0.333336
C39	C	2.425616	0.618663	0.666669
C40	C	1.776108	-0.225136	-0.000006
C41	C	2.109441	0.108198	0.333327
C42	C	2.442774	0.441531	0.666660
C43	C	1.985755	0.235745	0.000001
C44	C	2.319088	0.569078	0.333335
C45	C	2.652421	0.902412	0.666668
C46	C	2.148905	0.241258	-0.000008
C47	C	2.482238	0.574592	0.333325
C48	C	2.815571	0.907925	0.666658
C49	C	1.671355	0.534992	0.000002
C50	C	2.004688	0.868325	0.333335
C51	C	2.338021	1.201659	0.666668
C52	C	1.654196	0.712124	-0.000000
C53	C	1.987529	1.045457	0.333333
C54	C	2.320863	1.378790	0.666667
N55	N	1.715144	0.243489	0.425681
N56	N	2.048477	0.576822	0.759014
N57	N	2.381811	0.910155	1.092347
N58	N	1.715173	0.243487	-0.425673
N59	N	2.048506	0.576820	-0.092340
N60	N	2.381840	0.910154	0.240994
H61	H	1.536695	-0.206080	0.000005
H62	H	1.870029	0.127253	0.333338
H63	H	2.203362	0.460587	0.666671
H64	H	1.893616	-0.306941	0.000007
H65	H	2.226950	0.026392	0.333341
H66	H	2.560283	0.359726	0.666674
