data_functionalizedCrystal
_audit_creation_method	'MofGen! by Chris Wilmer'
_symmetry_space_group_name_H-M	'P1'
_symmetry_Int_Tables_number	1
_symmetry_cell_setting	triclinic
loop_
_symmetry_equiv_pos_as_xyz
  x,y,z
_cell_length_a	21.295420
_cell_length_b	21.295417
_cell_length_c	14.908308
_cell_angle_alpha	86.738273
_cell_angle_beta	86.721801
_cell_angle_gamma	90.025484
loop_
_atom_site_label
_atom_site_type_symbol
_atom_site_fract_x
_atom_site_fract_y
_atom_site_fract_z
Zn1	Zn	0.941778	-0.271206	0.510063
Zn2	Zn	0.947769	-0.370408	0.359197
Zn3	Zn	0.842587	-0.265150	0.359222
Zn4	Zn	0.836474	-0.376431	0.510004
O5	O	0.892152	-0.320798	0.434622
O6	O	1.030661	-0.284379	0.490065
O7	O	0.938882	-0.351390	0.232960
O8	O	0.855796	-0.177865	0.379267
O9	O	1.035063	-0.357262	0.379224
O10	O	0.928671	-0.182314	0.490089
O11	O	0.861606	-0.274057	0.232978
O12	O	0.753688	-0.279898	0.379210
O13	O	0.845377	-0.367528	0.636253
O14	O	0.749196	-0.361655	0.489989
O15	O	0.922743	-0.290219	0.636296
O16	O	0.932954	-0.459295	0.379167
O17	O	0.851187	-0.463720	0.489964
C18	C	0.728601	-0.320773	0.434596
C19	C	0.658633	-0.320779	0.434607
C20	C	0.156877	-0.282947	0.492444
C21	C	0.222620	-0.282943	0.492444
C22	C	0.257792	-0.320818	0.434643
C23	C	0.227216	-0.358714	0.376854
C24	C	0.161474	-0.358722	0.376862
N25	N	0.364169	-0.322386	0.355651
N26	N	0.426621	-0.322375	0.355646
C27	C	0.455868	-0.320797	0.434616
N28	N	0.420304	-0.319218	0.513594
N29	N	0.357846	-0.319226	0.513598
C30	C	0.329078	-0.320814	0.434628
C31	C	0.557722	-0.282902	0.492406
C32	C	0.623465	-0.282902	0.492407
C33	C	0.628060	-0.358669	0.376809
C34	C	0.562318	-0.358673	0.376816
C35	C	0.527152	-0.320786	0.434613
C36	C	0.892074	-0.484348	0.434576
C37	C	0.892096	-0.554317	0.434587
C38	C	0.930018	-0.589445	0.492333
C39	C	0.930039	-0.655188	0.492355
C40	C	0.892146	-0.685800	0.434615
C41	C	0.854218	-0.650664	0.376865
C42	C	0.854193	-0.584923	0.376851
N43	N	0.890573	-0.785886	0.355664
N44	N	0.890600	-0.848338	0.355680
C45	C	0.892218	-0.883877	0.434656
N46	N	0.893821	-0.854604	0.513617
N47	N	0.893797	-0.792146	0.513599
C48	C	0.892169	-0.757086	0.434625
C49	C	0.930164	-0.990291	0.492431
C50	C	0.930181	-1.056036	0.492455
C51	C	0.854364	-1.051511	0.376957
C52	C	0.854343	-0.985768	0.376941
C53	C	0.892247	-0.955162	0.434677
C54	C	1.056341	-0.320824	0.434648
C55	C	1.126309	-0.320835	0.434659
C56	C	0.882710	-0.330221	0.669923
C57	C	0.878686	-0.334236	0.770194
C58	C	0.892247	-0.156611	0.434687
C59	C	0.892288	-0.086644	0.434715
C60	C	0.901594	-0.311367	0.200236
C61	C	0.905739	-0.307175	0.099966
C62	C	0.951685	-0.261265	0.958661
C63	C	0.947906	-0.265036	1.052874
C64	C	0.867347	-0.345544	1.052837
C65	C	0.871126	-0.341774	0.958623
C66	C	0.913297	-0.299634	0.911538
C67	C	0.917078	-0.295867	0.817323
C68	C	0.836517	-0.376371	0.817287
C69	C	0.832738	-0.380142	0.911501
H70	H	0.529088	-0.252052	0.539468
O71	O	0.985222	-0.227857	1.098750
C72	C	1.065974	-0.223651	1.205094
C73	C	1.023741	-0.265832	1.153211
H74	H	1.097136	-0.254335	1.249123
H75	H	1.035352	-0.192512	1.249270
H76	H	1.096733	-0.192870	1.155238
H77	H	0.992975	-0.296651	1.203002
H78	H	1.054400	-0.296928	1.109021
O79	O	0.992580	-0.220248	0.912957
C80	C	1.024383	-0.112028	0.884205
C81	C	0.978017	-0.158409	0.936003
H82	H	1.012634	-0.062023	0.902833
H83	H	1.020486	-0.115870	0.808763
H84	H	1.074388	-0.123865	0.902719
H85	H	0.927992	-0.146603	0.917565
H86	H	0.981969	-0.154559	1.011432
H87	H	0.128249	-0.252100	0.539510
O88	O	0.532588	-0.395546	0.320805
C89	C	0.458804	-0.480013	0.308458
C90	C	0.492439	-0.438303	0.371993
H91	H	0.426325	-0.514583	0.349817
H92	H	0.495205	-0.507130	0.267162
H93	H	0.429946	-0.449167	0.261346
H94	H	0.521295	-0.469102	0.419159
H95	H	0.456006	-0.411181	0.413226
O96	O	0.966761	-0.559751	0.548551
C97	C	0.991095	-0.545749	0.702037
C98	C	0.949431	-0.579409	0.638473
H99	H	0.977108	-0.561640	0.774752
H100	H	0.984561	-0.492721	0.692191
H101	H	1.042498	-0.557998	0.686214
H102	H	0.898013	-0.567211	0.654257
H103	H	0.956019	-0.632428	0.648331
H104	H	0.833014	-0.379852	1.091189
H105	H	0.960913	-0.683795	0.539390
H106	H	0.798403	-0.414450	0.949850
O107	O	0.252396	-0.246098	0.548451
C108	C	0.326124	-0.161579	0.560773
C109	C	0.292462	-0.203272	0.497246
H110	H	0.358515	-0.126935	0.519399
H111	H	0.355055	-0.192372	0.607855
H112	H	0.289683	-0.134534	0.602102
H113	H	0.328860	-0.230324	0.455858
H114	H	0.263519	-0.172445	0.450224
H115	H	0.805260	-0.407615	0.778910
H116	H	0.648353	-0.252051	0.539469
O117	O	0.261314	-0.395471	0.320581
C118	C	0.287586	-0.419696	0.167046
C119	C	0.248925	-0.378030	0.230672
H120	H	0.277594	-0.405602	0.094341
H121	H	0.274006	-0.471109	0.182690
H122	H	0.339820	-0.413194	0.177010
H123	H	0.196682	-0.384477	0.220744
H124	H	0.262558	-0.326633	0.215013
O125	O	0.817374	-0.550702	0.320834
C126	C	0.783769	-0.447415	0.269584
C127	C	0.825483	-0.486096	0.333085
H128	H	0.790321	-0.395174	0.279453
H129	H	0.732358	-0.460960	0.285364
H130	H	0.797779	-0.457482	0.196870
H131	H	0.811529	-0.476050	0.405821
H132	H	0.876884	-0.472545	0.317227
O133	O	0.817496	-0.951734	0.320751
C134	C	0.742273	-0.954187	0.206231
C135	C	0.783987	-0.992805	0.269806
H136	H	0.715160	-0.987377	0.165039
H137	H	0.773055	-0.921527	0.159033
H138	H	0.707689	-0.925062	0.247611
H139	H	0.818577	-1.021967	0.228499
H140	H	0.753166	-1.025426	0.317007
O141	O	0.131845	-0.395615	0.320767
C142	C	0.113422	-0.500887	0.276742
C143	C	0.147027	-0.459180	0.340313
H144	H	0.125674	-0.552289	0.292534
H145	H	0.129275	-0.486895	0.204012
H146	H	0.060398	-0.494351	0.286658
H147	H	0.200056	-0.465694	0.330477
H148	H	0.131123	-0.473181	0.413020
H149	H	0.656697	-0.389514	0.329754
O150	O	0.817315	-0.680374	0.320871
C151	C	0.712036	-0.698803	0.276909
C152	C	0.753757	-0.665134	0.340390
H153	H	0.660642	-0.686484	0.292655
H154	H	0.718514	-0.751833	0.286839
H155	H	0.726076	-0.682984	0.204185
H156	H	0.739744	-0.680902	0.413139
H157	H	0.747275	-0.612110	0.330382
O158	O	0.966900	-0.960588	0.548652
C159	C	0.991215	-0.946570	0.702142
C160	C	0.949562	-0.980240	0.638574
H161	H	0.977221	-0.962456	0.774856
H162	H	0.984678	-0.893544	0.692286
H163	H	1.042620	-0.958817	0.686333
H164	H	0.898141	-0.968044	0.654343
H165	H	0.956152	-1.033258	0.648442
O166	O	0.966927	-1.090192	0.548650
C167	C	0.970479	-1.169273	0.670444
C168	C	0.928789	-1.130622	0.606874
H169	H	0.939663	-1.201980	0.717521
H170	H	0.997550	-1.136131	0.711766
H171	H	1.005099	-1.198353	0.629054
H172	H	0.894133	-1.101539	0.648193
H173	H	0.901762	-1.163798	0.565548
O174	O	0.817608	-1.081338	0.320902
C175	C	0.784003	-1.180614	0.269792
C176	C	0.825676	-1.146910	0.333299
H177	H	0.790502	-1.233635	0.279806
H178	H	0.798008	-1.164838	0.197038
H179	H	0.732607	-1.168314	0.285562
H180	H	0.877084	-1.159194	0.317610
H181	H	0.811617	-1.162688	0.406033
H182	H	0.951417	-0.261555	0.778988
