data_functionalizedCrystal
_audit_creation_method	'MofGen! by Chris Wilmer'
_symmetry_space_group_name_H-M	'P1'
_symmetry_Int_Tables_number	1
_symmetry_cell_setting	triclinic
loop_
_symmetry_equiv_pos_as_xyz
  x,y,z
_cell_length_a	8.559649
_cell_length_b	7.088929
_cell_length_c	19.288865
_cell_angle_alpha	83.792764
_cell_angle_beta	103.542544
_cell_angle_gamma	84.675495
loop_
_atom_site_label
_atom_site_type_symbol
_atom_site_fract_x
_atom_site_fract_y
_atom_site_fract_z
O1	O	2.103838	0.158976	0.015555
O2	O	1.638375	0.158990	-0.020331
O3	O	1.884560	0.158945	0.099443
O4	O	1.857653	0.159021	-0.104219
O5	O	1.917461	-0.159037	0.115482
O6	O	1.671275	-0.158991	-0.004292
O7	O	2.136739	-0.159006	0.031594
Cu8	Cu	1.907011	-0.188032	0.015115
Cu9	Cu	1.868102	0.188017	-0.003852
O10	O	1.890553	-0.158960	-0.088180
C11	C	1.595275	0.000001	-0.015031
C12	C	1.417837	0.000005	-0.023126
N13	N	1.934389	-0.452526	0.028457
C14	C	2.179838	-0.000012	0.026294
C15	C	2.357275	-0.000004	0.034388
C16	C	1.900145	-0.000052	0.133295
C17	C	1.897549	-0.000068	0.210264
N18	N	1.840737	0.452510	-0.017188
C19	C	1.874968	0.000041	-0.122032
C20	C	1.877563	0.000070	-0.199002
C21	C	2.041998	-0.000082	0.262470
C22	C	2.039554	-0.000052	0.334789
C23	C	1.892657	-0.000046	0.354900
C24	C	1.748187	-0.000021	0.302682
C25	C	1.750634	-0.000032	0.230365
C26	C	1.788702	-0.111424	0.462802
C27	C	1.786263	-0.111425	0.535120
C28	C	1.885105	-0.000003	0.577951
C29	C	1.986415	0.111395	0.548459
C30	C	1.988861	0.111384	0.476141
C31	C	1.889988	-0.000033	0.433314
C32	C	2.026913	0.000019	0.708574
C33	C	2.024462	0.000061	0.780892
C34	C	1.733093	0.000072	0.748785
C35	C	1.735547	0.000049	0.676467
C36	C	1.882462	0.000013	0.656367
H37	H	1.743678	-0.465825	-0.064491
H38	H	1.441182	-0.000024	0.089826
Cl39	Cl	2.110679	0.251482	0.602296
Cl40	Cl	2.084269	-0.578613	0.101488
Cl41	Cl	1.553943	0.000058	0.610834
H42	H	2.071347	0.202091	0.452132
H43	H	2.161627	-0.000105	0.246109
H44	H	2.146540	-0.000002	0.692207
H45	H	1.703763	-0.202121	0.559124
Cl46	Cl	2.206072	0.000056	0.846525
H47	H	2.157185	-0.000056	0.377302
H48	H	1.613485	0.000086	0.765158
Cl49	Cl	1.664436	-0.251517	0.408965
H50	H	1.628582	-0.000012	0.319061
Cl51	Cl	1.569025	-0.000016	0.164730
H52	H	1.333937	0.000045	-0.078561
