data_functionalizedCrystal
_audit_creation_method	'MofGen! by Chris Wilmer'
_symmetry_space_group_name_H-M	'P1'
_symmetry_Int_Tables_number	1
_symmetry_cell_setting	triclinic
loop_
_symmetry_equiv_pos_as_xyz
  x,y,z
_cell_length_a	17.699083
_cell_length_b	15.995350
_cell_length_c	16.776229
_cell_angle_alpha	89.995580
_cell_angle_beta	89.998886
_cell_angle_gamma	83.387695
loop_
_atom_site_label
_atom_site_type_symbol
_atom_site_fract_x
_atom_site_fract_y
_atom_site_fract_z
O1	O	1.004255	0.105885	-0.066173
O2	O	0.783899	0.119661	-0.066198
O3	O	0.900100	-0.009127	-0.066184
O4	O	0.888053	0.234673	-0.066187
O5	O	0.900085	-0.009135	0.066393
O6	O	0.783884	0.119653	0.066378
O7	O	1.004239	0.105877	0.066404
Zn8	Zn	0.894059	0.112764	0.087441
Zn9	Zn	0.894079	0.112774	-0.087235
O10	O	0.888038	0.234665	0.066390
C11	C	0.755694	0.119163	0.000087
C12	C	0.671673	0.117683	0.000077
C13	C	0.623178	0.193278	0.000076
C14	C	0.544232	0.191882	0.000087
C15	C	0.513783	0.114889	0.000092
C16	C	0.562285	0.039287	0.000095
C17	C	0.641229	0.040685	0.000090
C18	C	0.243912	0.033651	0.000115
C19	C	0.164962	0.032259	0.000117
C20	C	0.146916	0.184848	0.000111
C21	C	0.225860	0.186245	0.000106
C22	C	0.274354	0.110644	0.000114
C23	C	0.359956	0.112159	0.000104
C24	C	0.428183	0.113373	0.000096
C25	C	0.899595	-0.040324	0.000103
C26	C	0.898101	-0.133272	0.000098
C27	C	0.892739	-0.471008	0.000100
C28	C	0.809983	-0.423406	-0.000207
C29	C	0.811476	-0.326719	0.000092
C30	C	0.895399	-0.303453	0.000099
C31	C	0.936209	-0.344618	0.075810
C32	C	0.934130	-0.441250	0.075873
C33	C	0.935857	-0.441602	-0.074891
C34	C	0.935837	-0.344657	-0.075892
C35	C	0.896907	-0.208759	0.000101
C36	C	0.891234	-0.565703	0.000104
C37	C	1.032445	0.106375	0.000117
C38	C	1.116465	0.107856	0.000122
C39	C	0.888544	0.265863	0.000101
C40	C	0.890037	0.358810	0.000101
N41	N	0.894051	0.112756	0.206652
N42	N	0.894094	0.112775	-0.206446
C43	C	0.945520	0.055752	0.248375
C44	C	0.945524	0.055752	0.331827
C45	C	0.894062	0.112760	0.373555
C46	C	0.842587	0.169766	0.331825
C47	C	0.842580	0.169762	0.248375
C48	C	0.842614	0.169783	0.668373
C49	C	0.842627	0.169784	0.751829
C50	C	0.945559	0.055772	0.751825
C51	C	0.945552	0.055768	0.668375
C52	C	0.894074	0.112771	0.626653
C53	C	0.894069	0.112770	0.536164
C54	C	0.894070	0.112765	0.464041
H55	H	0.250646	0.248941	0.000098
H56	H	0.680714	-0.020873	0.000090
H57	H	0.800667	0.216180	0.214404
N58	N	0.998108	-0.002466	0.625740
N59	N	0.998091	-0.002463	0.551231
H60	H	1.035207	-0.043595	0.521120
H61	H	0.647962	0.255975	0.000071
N62	N	0.901938	-0.467306	-0.146883
N63	N	0.898792	-0.543706	-0.160243
H64	H	0.874832	-0.561862	-0.211085
N65	N	0.771229	-0.290984	-0.067993
N66	N	0.741836	-0.337446	-0.116063
H67	H	0.713406	-0.312213	-0.164149
H68	H	0.504750	0.253440	0.000085
H69	H	0.107421	0.246406	0.000109
H70	H	0.987434	0.009334	0.365798
H71	H	0.800701	0.216198	0.634409
N72	N	0.768501	-0.446581	-0.068317
N73	N	0.757656	-0.521669	-0.078629
H74	H	0.728361	-0.538043	-0.126736
N75	N	0.293443	-0.043569	0.000099
N76	N	0.339506	-0.059810	-0.055788
H77	H	0.374492	-0.114350	-0.055801
N78	N	0.998147	-0.002465	0.794433
N79	N	1.068099	-0.001412	0.785104
H80	H	1.105240	-0.042539	0.815193
H81	H	0.777046	-0.442936	0.053777
N82	N	0.790018	0.227987	0.374458
N83	N	0.790031	0.227984	0.448967
H84	H	0.752904	0.269105	0.479077
N85	N	0.770946	-0.291690	0.068287
N86	N	0.741472	-0.338662	0.115811
H87	H	0.712846	-0.313924	0.163978
N88	N	0.133872	-0.046400	0.000137
N89	N	0.148732	-0.097325	0.056029
H90	H	0.126775	-0.152876	0.056044
N91	N	0.531172	-0.039353	0.000109
N92	N	0.460686	-0.040591	0.000112
H93	H	0.438713	-0.096133	0.000120
N94	N	0.998044	-0.002518	0.205741
N95	N	0.996956	-0.079902	0.215076
H96	H	1.034034	-0.121070	0.184958
N97	N	0.896781	-0.464130	0.146866
N98	N	0.872427	-0.408758	0.196021
H99	H	0.846048	-0.424912	0.246162
H100	H	0.800717	0.216208	0.785802
H101	H	0.994888	-0.473622	0.079313
H102	H	0.906000	-0.317344	-0.131901
H103	H	0.997864	-0.330618	0.078630
H104	H	0.997038	-0.329419	-0.080458
H105	H	0.996873	-0.473487	-0.075395
N106	N	0.900630	-0.308943	0.146480
N107	N	0.845228	-0.253213	0.141282
H108	H	0.820096	-0.228017	0.191190
