data_functionalizedCrystal
_audit_creation_method	'MofGen! by Chris Wilmer'
_symmetry_space_group_name_H-M	'P1'
_symmetry_Int_Tables_number	1
_symmetry_cell_setting	triclinic
loop_
_symmetry_equiv_pos_as_xyz
  x,y,z
_cell_length_a	12.594517
_cell_length_b	12.594516
_cell_length_c	15.296720
_cell_angle_alpha	80.349469
_cell_angle_beta	80.338996
_cell_angle_gamma	90.015853
loop_
_atom_site_label
_atom_site_type_symbol
_atom_site_fract_x
_atom_site_fract_y
_atom_site_fract_z
Zn1	Zn	1.523040	-0.527882	0.510115
Zn2	Zn	2.023040	-0.027882	1.010115
Zn3	Zn	1.553751	-0.675091	0.359276
Zn4	Zn	2.053751	-0.175091	0.859276
Zn5	Zn	1.375863	-0.497126	0.359277
Zn6	Zn	1.875863	0.002874	0.859277
Zn7	Zn	1.345034	-0.705811	0.510079
Zn8	Zn	1.845034	-0.205811	1.010079
O9	O	1.449422	-0.601477	0.434687
O10	O	1.949422	-0.101477	0.934687
O11	O	1.676057	-0.547424	0.490120
O12	O	2.176057	-0.047424	0.990120
O13	O	1.555908	-0.625755	0.233038
O14	O	2.055908	-0.125755	0.733038
O15	O	1.395437	-0.352263	0.379301
O16	O	1.895437	0.147737	0.879301
O17	O	1.698619	-0.655578	0.379299
O18	O	2.198619	-0.155578	0.879299
O19	O	1.503567	-0.374860	0.490121
O20	O	2.003567	0.125140	0.990121
O21	O	1.425215	-0.495006	0.233039
O22	O	1.925215	0.004994	0.733039
O23	O	1.222831	-0.524794	0.379266
O24	O	1.722831	-0.024794	0.879266
O25	O	1.342892	-0.707936	0.636322
O26	O	1.842892	-0.207936	1.136322
O27	O	1.200180	-0.678114	0.490060
O28	O	1.700180	-0.178114	0.990060
O29	O	1.473672	-0.577213	0.636348
O30	O	1.973672	-0.077213	1.136348
O31	O	1.526014	-0.828108	0.379265
O32	O	2.026014	-0.328108	0.879265
O33	O	1.372670	-0.850679	0.490059
O34	O	1.872670	-0.350679	0.990059
C35	C	1.172886	-0.601451	0.434660
C36	C	1.672886	-0.101451	0.934660
C37	C	1.054579	-0.601469	0.434670
C38	C	1.554579	-0.101469	0.934670
C39	C	0.997591	-0.518005	0.374524
C40	C	1.497591	-0.018005	0.874524
C41	C	0.931313	-0.610563	0.352338
C42	C	1.431313	-0.110563	0.852338
C43	C	0.910055	-0.508962	0.456871
C44	C	1.410055	-0.008962	0.956871
C45	C	0.989868	-0.694070	0.412441
C46	C	1.489868	-0.194070	0.912441
C47	C	0.968608	-0.592410	0.517012
C48	C	1.468608	-0.092410	1.017012
C49	C	0.902356	-0.685042	0.494858
C50	C	1.402356	-0.185042	0.994858
C51	C	1.449354	-0.878017	0.434678
C52	C	1.949354	-0.378017	0.934678
C53	C	1.449416	-0.996327	0.434704
C54	C	1.949416	-0.496327	0.934704
C55	C	1.366014	-1.077886	0.494923
C56	C	1.866014	-0.577886	0.994923
C57	C	1.356900	-1.131943	0.412607
C58	C	1.856900	-0.631943	0.912607
C59	C	1.458625	-1.153073	0.517034
C60	C	1.958625	-0.653073	1.017034
C61	C	1.440259	-1.048817	0.352344
C62	C	1.940259	-0.548817	0.852344
C63	C	1.542018	-1.069952	0.456827
C64	C	2.042018	-0.569952	0.956827
C65	C	1.532952	-1.123965	0.374455
C66	C	2.032952	-0.623965	0.874455
C67	C	1.727037	-0.601505	0.434714
C68	C	2.227037	-0.101505	0.934714
C69	C	1.845340	-0.601517	0.434725
C70	C	2.345340	-0.101517	0.934725
C71	C	1.401417	-0.649432	0.669982
C72	C	1.901417	-0.149432	1.169982
C73	C	1.380961	-0.669867	0.770251
C74	C	1.880961	-0.169867	1.270251
C75	C	1.449515	-0.323862	0.434715
C76	C	1.949515	0.176138	0.934715
C77	C	1.449555	-0.205559	0.434727
C78	C	1.949555	0.294441	0.934727
C79	C	1.497301	-0.553633	0.200306
C80	C	1.997301	-0.053633	0.700306
C81	C	1.517963	-0.532898	0.100038
C82	C	2.017963	-0.032898	0.600038
C83	C	1.595668	-0.455236	1.052948
C84	C	2.095668	0.044764	1.552948
C85	C	1.614895	-0.436038	0.958740
C86	C	2.114895	0.063962	1.458740
C87	C	1.556413	-0.494493	0.911613
C88	C	2.056413	0.005507	1.411613
C89	C	1.478701	-0.572151	0.958703
C90	C	1.978701	-0.072151	1.458703
C91	C	1.459478	-0.591357	1.052920
C92	C	1.959478	-0.091357	1.552920
C93	C	1.420223	-0.630614	0.911586
C94	C	1.920223	-0.130614	1.411586
C95	C	1.342512	-0.708272	0.958676
C96	C	1.842512	-0.208272	1.458676
C97	C	1.323292	-0.727474	1.052883
C98	C	1.823292	-0.227474	1.552883
C99	C	1.381774	-0.669018	1.100010
C100	C	1.881774	-0.169018	1.600010
C101	C	1.439446	-0.611408	0.817369
C102	C	1.939446	-0.111408	1.317369
C103	C	1.303256	-0.747529	0.817341
C104	C	1.803256	-0.247529	1.317341
C105	C	1.284030	-0.766727	0.911549
C106	C	1.784030	-0.266727	1.411549
H107	H	0.875102	-0.430714	0.475595
H108	H	1.375102	0.069286	0.975595
N109	N	1.658747	-0.392203	1.103775
N110	N	2.158747	0.107797	1.603775
H111	H	1.634778	-0.416158	1.170602
H112	H	2.134778	0.083842	1.670602
H113	H	1.645571	-0.312828	1.087321
H114	H	2.145571	0.187172	1.587321
H115	H	0.985574	-0.584685	0.586603
H116	H	1.485574	-0.084685	1.086603
H117	H	1.502719	-0.548178	0.779037
H118	H	2.002719	-0.048178	1.279037
N119	N	0.847740	-0.778654	0.562257
N120	N	1.347740	-0.278654	1.062257
H121	H	0.767547	-0.777802	0.562282
H122	H	1.267547	-0.277802	1.062282
H123	H	0.862104	-0.772363	0.624217
H124	H	1.362104	-0.272363	1.124217
N125	N	1.577146	-0.473790	0.810004
N126	N	2.077146	0.026210	1.310004
H127	H	1.635247	-0.415724	0.787323
H128	H	2.135247	0.084276	1.287323
H129	H	1.508718	-0.449633	0.787379
H130	H	2.008718	0.050367	1.287379
N131	N	1.272477	-1.050528	0.562285
N132	N	1.772477	-0.550528	1.062285
H133	H	1.202622	-1.072931	0.545461
H134	H	1.702622	-0.572931	1.045461
H135	H	1.273576	-0.970323	0.562179
H136	H	1.773576	-0.470323	1.062179
H137	H	1.432434	-1.003701	0.282709
H138	H	1.932434	-0.503701	0.782709
H139	H	1.278652	-1.159344	0.393914
H140	H	1.778652	-0.659344	0.893914
N141	N	1.240147	-0.810574	0.766535
N142	N	1.740147	-0.310574	1.266535
H143	H	1.253297	-0.889967	0.782918
H144	H	1.753297	-0.389967	1.282918
H145	H	1.264130	-0.786538	0.699721
H146	H	1.764130	-0.286538	1.199721
H147	H	1.039017	-0.447468	0.323598
H148	H	1.539017	0.052532	0.823598
H149	H	0.914377	-0.618255	0.282727
H150	H	1.414377	-0.118255	0.782727
H151	H	1.024657	-0.772330	0.393609
H152	H	1.524657	-0.272330	0.893609
N153	N	1.626476	-1.151032	0.306943
N154	N	2.126476	-0.651032	0.806943
H155	H	1.619426	-1.112515	0.244817
H156	H	2.119426	-0.612515	0.744817
H157	H	1.626336	-1.231384	0.307766
H158	H	2.126336	-0.731384	0.807766
H159	H	1.220756	-0.829956	0.949903
H160	H	1.720756	-0.329956	1.449903
N161	N	1.645634	-1.033664	0.481632
N162	N	2.145634	-0.533664	0.981632
H163	H	1.652466	-1.072013	0.543859
H164	H	2.152466	-0.572013	1.043859
H165	H	1.645030	-0.953315	0.480804
H166	H	2.145030	-0.453315	0.980804
H167	H	1.466359	-1.198313	0.586650
H168	H	1.966359	-0.698313	1.086650
N169	N	1.698708	-0.352289	0.907952
N170	N	2.198708	0.147711	1.407952
H171	H	1.732838	-0.318170	0.952099
H172	H	2.232838	0.181830	1.452099
H173	H	1.663379	-0.295059	0.868862
H174	H	2.163379	0.204941	1.368862
N175	N	1.361006	-0.689699	1.201623
N176	N	1.861006	-0.189699	1.701623
H177	H	1.409835	-0.640871	1.224328
H178	H	1.909835	-0.140871	1.724328
H179	H	1.375884	-0.767358	1.224266
H180	H	1.875884	-0.267358	1.724266
N181	N	1.239488	-0.811243	1.103676
N182	N	1.739488	-0.311243	1.603676
H183	H	1.205355	-0.845360	1.059530
H184	H	1.705355	-0.345360	1.559530
H185	H	1.182274	-0.775880	1.142767
H186	H	1.682274	-0.275880	1.642767
