data_functionalizedCrystal
_audit_creation_method	'MofGen! by Chris Wilmer'
_symmetry_space_group_name_H-M	'P1'
_symmetry_Int_Tables_number	1
_symmetry_cell_setting	triclinic
loop_
_symmetry_equiv_pos_as_xyz
  x,y,z
_cell_length_a	18.215407
_cell_length_b	19.121063
_cell_length_c	18.215399
_cell_angle_alpha	87.590596
_cell_angle_beta	90.019350
_cell_angle_gamma	92.469446
loop_
_atom_site_label
_atom_site_type_symbol
_atom_site_fract_x
_atom_site_fract_y
_atom_site_fract_z
Zn1	Zn	1.112556	-0.279610	0.428596
Zn2	Zn	1.612556	0.220390	0.928596
Zn3	Zn	1.107209	-0.397066	0.310772
Zn4	Zn	1.607209	0.102934	0.810772
Zn5	Zn	0.989488	-0.279634	0.305544
Zn6	Zn	1.489488	0.220366	0.805544
Zn7	Zn	0.984200	-0.397026	0.433795
Zn8	Zn	1.484200	0.102974	0.933795
O9	O	1.048363	-0.338334	0.369677
O10	O	1.548363	0.161666	0.869677
O11	O	1.214830	-0.295198	0.412978
O12	O	1.714830	0.204802	0.912978
O13	O	1.091569	-0.381515	0.207095
O14	O	1.591569	0.118485	0.707095
O15	O	1.010264	-0.181346	0.317504
O16	O	1.510264	0.318654	0.817504
O17	O	1.210902	-0.381492	0.326414
O18	O	1.710902	0.118508	0.826414
O19	O	1.100681	-0.181329	0.407909
O20	O	1.600681	0.318671	0.907909
O21	O	1.005080	-0.295238	0.203255
O22	O	1.505080	0.204762	0.703255
O23	O	0.885803	-0.295199	0.322545
O24	O	1.385803	0.204801	0.822545
O25	O	1.001251	-0.381424	0.536089
O26	O	1.501251	0.118576	1.036089
O27	O	0.881917	-0.381447	0.416770
O28	O	1.381917	0.118553	0.916770
O29	O	1.095553	-0.295159	0.532269
O30	O	1.595553	0.204841	1.032269
O31	O	1.086441	-0.495345	0.331455
O32	O	1.586441	0.004655	0.831455
O33	O	0.996066	-0.495316	0.421840
O34	O	1.496066	0.004684	0.921840
C35	C	0.857157	-0.338322	0.369655
C36	C	1.357157	0.161678	0.869655
C37	C	0.775358	-0.338334	0.369664
C38	C	1.275358	0.161666	0.869664
C39	C	0.585157	-0.383313	0.418671
C40	C	1.085157	0.116687	0.918671
C41	C	0.508298	-0.383316	0.418681
C42	C	1.008298	0.116684	0.918681
C43	C	0.512321	-0.293367	0.320699
C44	C	1.012321	0.206633	0.820699
C45	C	0.589178	-0.293362	0.320694
C46	C	1.089178	0.206638	0.820694
C47	C	0.625594	-0.338339	0.369679
C48	C	1.125594	0.161661	0.869679
C49	C	0.471878	-0.338346	0.369694
C50	C	0.971878	0.161654	0.869694
C51	C	0.388544	-0.338348	0.369703
C52	C	0.888544	0.161652	0.869703
C53	C	0.708933	-0.338336	0.369671
C54	C	1.208933	0.161664	0.869671
C55	C	1.040119	-0.520815	0.377795
C56	C	1.540119	-0.020815	0.877795
C57	C	1.036660	-0.598881	0.381292
C58	C	1.536660	-0.098881	0.881292
C59	C	1.082124	-0.635548	0.335916
C60	C	1.582124	-0.135548	0.835916
C61	C	1.078875	-0.708900	0.339210
C62	C	1.578875	-0.208900	0.839210
C63	C	1.030157	-0.745582	0.387877
C64	C	1.530157	-0.245582	0.887877
C65	C	0.984691	-0.708909	0.433258
C66	C	1.484691	-0.208909	0.933258
C67	C	0.987945	-0.635559	0.429967
C68	C	1.487945	-0.135559	0.929967
C69	C	1.017982	-0.967052	0.400168
C70	C	1.517982	-0.467052	0.900168
C71	C	1.014730	-1.040407	0.403453
C72	C	1.514730	-0.540407	0.903453
C73	C	1.108916	-1.040392	0.309406
C74	C	1.608916	-0.540392	0.809406
C75	C	1.112162	-0.967041	0.306117
C76	C	1.612162	-0.467041	0.806117
C77	C	1.066698	-0.930375	0.351500
C78	C	1.566698	-0.430375	0.851500
C79	C	1.026833	-0.820559	0.391243
C80	C	1.526833	-0.320559	0.891243
C81	C	1.070026	-0.855399	0.348137
C82	C	1.570026	-0.355399	0.848137
C83	C	1.240316	-0.338346	0.369699
C84	C	1.740316	0.161654	0.869699
C85	C	1.322114	-0.338352	0.369708
C86	C	1.822114	0.161648	0.869708
C87	C	1.048409	-0.338284	0.561628
C88	C	1.548409	0.161716	1.061628
C89	C	1.048428	-0.338263	0.643426
C90	C	1.548428	0.161737	1.143426
C91	C	1.056659	-0.155141	0.361543
C92	C	1.556659	0.344859	0.861543
C93	C	1.060195	-0.077075	0.358077
C94	C	1.560195	0.422925	0.858077
C95	C	1.048363	-0.338333	0.178471
C96	C	1.548363	0.161667	0.678471
C97	C	1.048495	-0.338156	0.096664
C98	C	1.548495	0.161844	0.596664
C99	C	1.097561	-0.293284	0.906493
C100	C	1.597561	0.206716	1.406493
C101	C	1.097552	-0.293303	0.829635
C102	C	1.597552	0.206697	1.329635
C103	C	0.999359	-0.383140	0.833603
C104	C	1.499359	0.116860	1.333603
C105	C	0.999373	-0.383124	0.910459
C106	C	1.499373	0.116876	1.410459
C107	C	1.048473	-0.338192	0.946902
C108	C	1.548473	0.161808	1.446902
C109	C	1.048450	-0.338227	0.793188
C110	C	1.548450	0.161773	1.293188
C111	C	1.048439	-0.338248	0.709855
C112	C	1.548439	0.161752	1.209855
C113	C	1.048485	-0.338172	1.030240
C114	C	1.548485	0.161828	1.530240
H115	H	1.121792	-0.605686	0.296283
H116	H	1.621792	-0.105686	0.796283
H117	H	0.945027	-0.738782	0.472887
H118	H	1.445027	-0.238782	0.972887
H119	H	0.959383	-0.419721	0.803921
H120	H	1.459383	0.080279	1.303921
H121	H	0.614805	-0.419935	0.458560
H122	H	1.114805	0.080065	0.958560
O123	O	1.145290	-0.249741	0.941980
O124	O	1.645290	0.250259	1.441980
C125	C	1.191034	-0.289719	0.988205
C126	C	1.691034	0.210281	1.488205
H127	H	1.162673	-0.342942	1.002077
H128	H	1.662673	0.157058	1.502077
H129	H	1.202200	-0.261099	1.040984
H130	H	1.702200	0.238901	1.540984
H131	H	1.245217	-0.297444	0.958937
H132	H	1.745217	0.202556	1.458937
H133	H	0.475377	-0.419937	0.458576
H134	H	0.975377	0.080063	0.958576
H135	H	0.622104	-0.256734	0.280798
H136	H	1.122104	0.243266	0.780798
O137	O	0.951614	-0.426772	0.949605
O138	O	1.451614	0.073228	1.449605
C139	C	0.908283	-0.466442	0.900961
C140	C	1.408283	0.033558	1.400961
H141	H	0.907021	-0.437687	0.844898
H142	H	1.407021	0.062313	1.344898
H143	H	0.849966	-0.473930	0.923494
H144	H	1.349966	0.026070	1.423494
H145	H	0.932820	-0.519785	0.895157
H146	H	1.432820	-0.019785	1.395157
H147	H	1.151831	-0.937175	0.266488
H148	H	1.651831	-0.437175	0.766488
H149	H	1.137525	-0.256735	0.796737
H150	H	1.637525	0.243265	1.296737
O151	O	1.123065	-0.744410	0.295055
O152	O	1.623065	-0.244410	0.795055
C153	C	1.166771	-0.696304	0.251404
C154	C	1.666771	-0.196304	0.751404
H155	H	1.138945	-0.644044	0.246486
H156	H	1.638945	-0.144044	0.746486
H157	H	1.173711	-0.717530	0.194380
H158	H	1.673711	-0.217530	0.694380
H159	H	1.222999	-0.688439	0.278049
H160	H	1.722999	-0.188439	0.778049
H161	H	0.482661	-0.256750	0.280816
H162	H	0.982661	0.243250	0.780816
H163	H	1.145930	-1.070254	0.272458
H164	H	1.645930	-0.570254	0.772458
H165	H	0.975067	-1.070272	0.443097
H166	H	1.475067	-0.570272	0.943097
O167	O	0.973735	-0.931549	0.444270
O168	O	1.473735	-0.431549	0.944270
C169	C	0.930047	-0.979658	0.487934
C170	C	1.430047	-0.479658	0.987934
H171	H	0.925208	-1.031966	0.460134
H172	H	1.425208	-0.531966	0.960134
H173	H	0.872993	-0.958510	0.494772
H174	H	1.372993	-0.458510	0.994772
H175	H	0.956611	-0.987397	0.544204
H176	H	1.456611	-0.487397	1.044204
O177	O	0.943708	-0.600047	0.474076
O178	O	1.443708	-0.100047	0.974076
C179	C	0.900025	-0.648150	0.517751
C180	C	1.400025	-0.148150	1.017751
H181	H	0.895167	-0.700458	0.489950
H182	H	1.395167	-0.200458	0.989950
H183	H	0.842978	-0.626994	0.524608
H184	H	1.342978	-0.126994	1.024608
H185	H	0.926605	-0.655897	0.574013
H186	H	1.426605	-0.155897	1.074013
H187	H	1.109695	-0.825530	0.308516
H188	H	1.609695	-0.325530	0.808516
H189	H	0.987166	-0.850434	0.430866
H190	H	1.487166	-0.350434	0.930866
