data_functionalizedCrystal
_audit_creation_method	'MofGen! by Chris Wilmer'
_symmetry_space_group_name_H-M	'P1'
_symmetry_Int_Tables_number	1
_symmetry_cell_setting	triclinic
loop_
_symmetry_equiv_pos_as_xyz
  x,y,z
_cell_length_a	23.532407
_cell_length_b	15.944551
_cell_length_c	15.021413
_cell_angle_alpha	90.006285
_cell_angle_beta	90.012176
_cell_angle_gamma	83.173707
loop_
_atom_site_label
_atom_site_type_symbol
_atom_site_fract_x
_atom_site_fract_y
_atom_site_fract_z
O1	O	0.755646	0.101958	-0.073912
O2	O	1.255646	0.601958	0.426088
O3	O	0.589839	0.116712	-0.073937
O4	O	1.089839	0.616712	0.426063
O5	O	0.677270	-0.012978	-0.073929
O6	O	1.177270	0.487022	0.426071
O7	O	0.668215	0.231648	-0.073920
O8	O	1.168215	0.731648	0.426080
O9	O	0.677281	-0.012970	0.074135
O10	O	1.177281	0.487030	0.574135
O11	O	0.589850	0.116720	0.074128
O12	O	1.089850	0.616720	0.574128
O13	O	0.755656	0.101966	0.074152
O14	O	1.255656	0.601966	0.574152
Zn15	Zn	0.672754	0.109344	0.097648
Zn16	Zn	1.172754	0.609344	0.597648
Zn17	Zn	0.672741	0.109334	-0.097433
Zn18	Zn	1.172741	0.609334	0.402567
O19	O	0.668225	0.231656	0.074144
O20	O	1.168225	0.731656	0.574144
C21	C	0.568627	0.116340	0.000092
C22	C	1.068627	0.616340	0.500092
C23	C	0.505406	0.115211	0.000082
C24	C	1.005406	0.615211	0.500082
C25	C	0.676899	-0.044265	0.000100
C26	C	1.176899	0.455735	0.500100
C27	C	0.675772	-0.137501	0.000090
C28	C	1.175772	0.362499	0.500090
N29	N	0.672768	0.109351	0.230786
N30	N	1.172768	0.609351	0.730786
C31	C	0.106572	0.184874	0.000125
C32	C	0.606572	0.684874	0.500125
C33	C	0.047168	0.183824	0.000130
C34	C	0.547168	0.683824	0.500130
O35	O	0.010674	0.248402	0.000165
O36	O	0.510674	0.748402	0.500165
N37	N	0.024243	0.106724	0.000126
N38	N	0.524243	0.606724	0.500126
C39	C	0.060726	0.030668	0.000125
C40	C	0.560726	0.530668	0.500125
O41	O	0.035772	-0.035009	0.000123
O42	O	0.535772	0.464991	0.500123
C43	C	0.120129	0.031718	0.000126
C44	C	0.620129	0.531718	0.500126
C45	C	0.143051	0.108823	0.000122
C46	C	0.643051	0.608823	0.500122
C47	C	0.129494	0.261973	0.000121
C48	C	0.629494	0.761973	0.500121
C49	C	0.188895	0.263022	0.000114
C50	C	0.688895	0.763022	0.500114
C51	C	0.225373	0.186971	0.000111
C52	C	0.725373	0.686971	0.500111
C53	C	0.202451	0.109872	0.000115
C54	C	0.702451	0.609872	0.500115
C55	C	0.156611	-0.044337	0.000132
C56	C	0.656611	0.455663	0.500132
C57	C	0.216018	-0.043281	0.000134
C58	C	0.716018	0.456719	0.500134
C59	C	0.238939	0.033825	0.000129
C60	C	0.738939	0.533825	0.500129
C61	C	0.298329	0.034871	0.000104
C62	C	0.798329	0.534871	0.500104
N63	N	0.321254	0.111971	0.000109
N64	N	0.821254	0.611971	0.500109
C65	C	0.284776	0.188022	0.000112
C66	C	0.784776	0.688022	0.500112
C67	C	-0.064025	0.028468	0.000125
C68	C	0.435975	0.528468	0.500125
C69	C	-0.123427	0.027417	0.000118
C70	C	0.376573	0.527417	0.500118
C71	C	-0.136981	0.180574	0.000124
C72	C	0.363019	0.680574	0.500124
C73	C	-0.077578	0.181624	0.000125
C74	C	0.422422	0.681624	0.500125
C75	C	-0.041100	0.105569	0.000129
C76	C	0.458900	0.605569	0.500129
C77	C	0.409521	0.190219	0.000096
C78	C	0.909521	0.690219	0.500096
C79	C	0.468927	0.191261	0.000085
C80	C	0.968927	0.691261	0.500085
C81	C	0.482476	0.038104	0.000084
C82	C	0.982476	0.538104	0.500084
C83	C	0.423075	0.037062	0.000090
C84	C	0.923075	0.537062	0.500090
C85	C	0.386599	0.113126	0.000099
C86	C	0.886599	0.613126	0.500099
O87	O	0.334859	-0.029673	0.000073
O88	O	0.834859	0.470327	0.500073
O89	O	0.309738	0.253687	0.000126
O90	O	0.809738	0.753687	0.500126
C91	C	0.776868	0.102338	0.000122
C92	C	1.276868	0.602338	0.500122
C93	C	0.840090	0.103468	0.000126
C94	C	1.340090	0.603468	0.500126
C95	C	0.668596	0.262943	0.000114
C96	C	1.168596	0.762943	0.500114
C97	C	0.669723	0.356179	0.000118
C98	C	1.169723	0.856179	0.500118
C99	C	0.726610	0.570557	0.000113
C100	C	1.226610	1.070557	0.500113
C101	C	0.700199	0.631799	0.073113
C102	C	1.200199	1.131799	0.573113
C103	C	0.671762	0.526888	0.000110
C104	C	1.171762	1.026888	0.500110
C105	C	0.700176	0.631777	-0.072867
C106	C	1.200176	1.131777	0.427133
C107	C	0.673735	0.691784	0.000099
C108	C	1.173735	1.191784	0.500099
C109	C	0.645335	0.586903	0.073171
C110	C	1.145335	1.086903	0.573171
C111	C	0.645320	0.586874	-0.072875
C112	C	1.145320	1.086874	0.427125
C113	C	0.618868	0.648100	0.000143
C114	C	1.118868	1.148100	0.500143
C115	C	0.670626	0.431895	0.000117
C116	C	1.170626	0.931895	0.500117
C117	C	0.674866	0.786776	0.000098
C118	C	1.174866	1.286776	0.500098
N119	N	0.672732	0.109321	-0.230570
N120	N	1.172732	0.609321	0.269430
C121	C	0.713204	0.049369	0.470449
C122	C	1.213204	0.549369	0.970449
C123	C	0.661743	0.033485	0.529769
C124	C	1.161743	0.533485	1.029769
C125	C	0.672754	0.109341	0.412393
C126	C	1.172754	0.609341	0.912393
C127	C	0.724202	0.125175	0.529814
C128	C	1.224202	0.625175	1.029814
C129	C	0.672746	0.109328	0.587817
C130	C	1.172746	0.609328	1.087817
C131	C	0.621268	0.093420	0.470407
C132	C	1.121268	0.593420	0.970407
C133	C	0.683761	0.185142	0.470446
C134	C	1.183761	0.685142	0.970446
C135	C	0.632263	0.169291	0.529740
C136	C	1.132263	0.669291	1.029740
C137	C	0.672760	0.109345	0.311336
C138	C	1.172760	0.609345	0.811336
C139	C	0.672735	0.109324	0.688872
C140	C	1.172735	0.609324	1.188872
H141	H	0.487586	0.254052	0.000081
H142	H	0.987586	0.754052	0.500081
C143	C	0.759365	-0.019182	0.435271
C144	C	1.259365	0.480818	0.935271
N145	N	0.794131	-0.070816	0.408772
N146	N	1.294131	0.429184	0.908772
H147	H	-0.166693	0.242498	0.000131
H148	H	0.333307	0.742498	0.500131
H149	H	0.099799	0.323906	0.000127
H150	H	0.599799	0.823906	0.500127
C151	C	-0.148633	-0.057405	0.000117
C152	C	0.351367	0.442595	0.500117
N153	N	-0.167616	-0.121296	0.000124
N154	N	0.332384	0.378704	0.500124
H155	H	0.577746	0.079949	0.444422
H156	H	1.077746	0.579949	0.944422
H157	H	0.598016	0.220005	0.555609
H158	H	1.098016	0.720005	1.055609
C159	C	0.369405	0.273893	0.000101
C160	C	0.869405	0.773893	0.500101
N161	N	0.339190	0.336917	0.000099
N162	N	0.839190	0.836917	0.500099
C163	C	-0.023904	-0.055205	0.000115
C164	C	0.476096	0.444795	0.500115
N165	N	0.006313	-0.118227	0.000107
N166	N	0.506313	0.381773	0.500107
C167	C	0.788114	0.525036	0.000221
C168	C	1.288114	1.025036	0.500221
N169	N	0.834436	0.490747	0.000308
N170	N	1.334436	0.990747	0.500308
C171	C	0.131412	-0.129161	0.000155
C172	C	0.631412	0.370839	0.500155
N173	N	0.112433	-0.193055	0.000179
N174	N	0.612433	0.306945	0.500179
C175	C	0.731543	0.658699	0.156502
C176	C	1.231543	1.158699	0.656502
N177	N	0.755154	0.678954	0.219310
N178	N	1.255154	1.178954	0.719310
C179	C	-0.052370	0.266445	0.000130
C180	C	0.447630	0.766445	0.500130
N181	N	-0.033387	0.330336	0.000137
N182	N	0.466613	0.830336	0.500137
H183	H	0.723381	0.651668	-0.134579
H184	H	1.223381	1.151668	0.365421
C185	C	0.696372	0.271720	0.435208
C186	C	1.196372	0.771720	0.935208
N187	N	0.705877	0.336931	0.408664
N188	N	1.205877	0.836931	0.908664
C189	C	0.256140	-0.126950	0.000134
C190	C	0.756140	0.373050	0.500134
N191	N	0.286359	-0.189970	0.000131
N192	N	0.786359	0.310030	0.500131
C193	C	0.782985	0.143279	0.565064
C194	C	1.282985	0.643279	1.065064
N195	N	0.827262	0.156909	0.591610
N196	N	1.327262	0.656909	1.091610
H197	H	0.622136	0.566938	-0.134601
H198	H	1.122136	1.066938	0.365399
H199	H	0.652426	-0.030623	0.555828
H200	H	1.152426	0.469377	1.055828
C201	C	0.397861	-0.047758	0.000083
C202	C	0.897861	0.452242	0.500083
N203	N	0.378874	-0.111645	0.000086
N204	N	0.878874	0.388355	0.500086
H205	H	0.512187	-0.023814	0.000077
H206	H	1.012187	0.476186	0.500077
H207	H	0.207551	0.325809	0.000110
H208	H	0.707551	0.825809	0.500110
H209	H	0.622158	0.567110	0.134953
H210	H	1.122158	1.067110	0.634953
C211	C	0.557312	0.693426	0.000193
C212	C	1.057312	1.193426	0.500193
N213	N	0.510950	0.727570	0.000237
N214	N	1.010950	1.227570	0.500237
