data_functionalizedCrystal
_audit_creation_method	'MofGen! by Chris Wilmer'
_symmetry_space_group_name_H-M	'P1'
_symmetry_Int_Tables_number	1
_symmetry_cell_setting	triclinic
loop_
_symmetry_equiv_pos_as_xyz
  x,y,z
_cell_length_a	10.654550
_cell_length_b	16.992695
_cell_length_c	9.730223
_cell_angle_alpha	89.998169
_cell_angle_beta	89.996251
_cell_angle_gamma	87.576563
loop_
_atom_site_label
_atom_site_type_symbol
_atom_site_fract_x
_atom_site_fract_y
_atom_site_fract_z
O1	O	1.677356	0.110186	-0.114405
O2	O	1.312785	0.120685	-0.114384
O3	O	1.493609	0.001285	-0.114383
O4	O	1.496532	0.229586	-0.114405
O5	O	1.493607	0.001288	0.114196
O6	O	1.312783	0.120688	0.114196
O7	O	1.677354	0.110189	0.114175
Zn8	Zn	1.495068	0.115439	0.150477
Zn9	Zn	1.495071	0.115435	-0.150686
O10	O	1.496530	0.229589	0.114174
C11	C	1.265919	0.119915	-0.000091
C12	C	1.126277	0.117609	-0.000082
C13	C	1.052866	0.187910	-0.000109
C14	C	0.921658	0.185738	-0.000132
C15	C	0.937282	0.042959	-0.000108
C16	C	1.068488	0.045131	-0.000075
C17	C	1.043844	0.270342	-0.000129
C18	C	0.912636	0.268171	-0.000152
C19	C	1.489848	-0.027947	-0.000093
C20	C	1.478628	-0.115052	-0.000093
C21	C	1.586879	-0.164704	-0.000098
C22	C	1.576330	-0.246548	-0.000111
C23	C	1.457529	-0.278738	-0.000108
C24	C	1.349270	-0.229080	-0.000107
C25	C	1.359820	-0.147237	-0.000105
C26	C	1.413802	-0.522574	-0.000124
C27	C	1.403260	-0.604422	-0.000123
C28	C	1.630321	-0.621884	-0.000129
C29	C	1.640861	-0.540040	-0.000118
C30	C	1.532602	-0.490389	-0.000124
N31	N	1.446743	-0.362396	-0.000116
N32	N	1.543389	-0.406733	-0.000126
C33	C	1.724220	0.110959	-0.000121
C34	C	1.863862	0.113265	-0.000139
C35	C	1.500291	0.258821	-0.000119
C36	C	1.511510	0.345926	-0.000128
N37	N	1.495075	0.115441	0.356014
N38	N	1.495073	0.115427	-0.356223
C39	C	1.575168	0.062589	0.427940
C40	C	1.575164	0.062580	0.571823
C41	C	1.414971	0.168281	0.571841
C42	C	1.414970	0.168286	0.427961
C43	C	1.667658	0.001565	0.427931
C44	C	1.667654	0.001556	0.571814
H45	H	1.081769	0.296589	-0.098819
C46	C	0.949102	0.326108	0.220567
C47	C	0.853873	0.301804	0.133055
H48	H	0.912819	0.346873	0.302797
H49	H	1.004071	0.282366	0.241999
H50	H	0.994986	0.365577	0.176257
H51	H	0.807994	0.262330	0.177362
H52	H	0.798882	0.345550	0.111625
H53	H	1.271671	-0.106811	-0.000101
C54	C	1.810256	-0.190193	-0.000128
C55	C	1.717471	-0.129324	-0.000111
H56	H	1.890879	-0.168351	-0.000150
H57	H	1.801424	-0.221750	0.079579
H58	H	1.801403	-0.221751	-0.079843
H59	H	1.726319	-0.097770	0.079610
H60	H	1.726308	-0.097753	-0.079826
H61	H	1.760493	0.020673	0.383297
C62	C	0.959166	0.337689	-0.207609
C63	C	0.859910	0.310095	-0.129298
H64	H	0.926613	0.363567	-0.287336
H65	H	1.004762	0.373655	-0.154457
H66	H	1.013428	0.294554	-0.234162
H67	H	0.805654	0.353231	-0.102736
H68	H	0.814294	0.274127	-0.182460
C69	C	1.588482	-0.125897	0.524890
C70	C	1.619870	-0.075380	0.632068
H71	H	1.559002	-0.173397	0.562094
H72	H	1.524533	-0.101167	0.469975
H73	H	1.660633	-0.137398	0.469929
H74	H	1.547716	-0.063875	0.687024
H75	H	1.683824	-0.100115	0.687006
C76	C	1.696209	-0.348701	-0.117636
C77	C	1.695328	-0.301121	-0.000121
H78	H	1.769683	-0.382386	-0.117647
H79	H	1.623960	-0.379586	-0.117628
H80	H	1.695601	-0.316395	-0.197331
H81	H	1.695927	-0.333426	0.079575
H82	H	1.767596	-0.270232	-0.000116
H83	H	1.737601	-0.513837	-0.000120
C84	C	1.329141	-0.389368	-0.000143
C85	C	1.294806	-0.468003	-0.000130
H86	H	1.255672	-0.355678	-0.000156
H87	H	1.377500	-0.379544	0.079563
H88	H	1.377521	-0.379551	-0.079860
H89	H	1.246433	-0.477822	0.079593
H90	H	1.246426	-0.477831	-0.079843
H91	H	1.718459	-0.662319	-0.000126
C92	C	1.256620	0.272760	0.442437
C93	C	1.326922	0.226378	0.348898
H94	H	1.202266	0.308627	0.393624
H95	H	1.208159	0.239835	0.498555
H96	H	1.311760	0.301285	0.498555
H97	H	1.271782	0.197849	0.292787
H98	H	1.375386	0.259308	0.292757
H99	H	1.128255	-0.012114	-0.000033
H100	H	1.765327	0.014998	0.610857
H101	H	0.890215	-0.016050	-0.000123
H102	H	1.306513	-0.630628	-0.000099
C103	C	1.245679	0.184298	0.733664
C104	C	1.326929	0.226368	0.650935
H105	H	1.191331	0.220161	0.782497
H106	H	1.197213	0.151390	0.677531
H107	H	1.293393	0.152822	0.797087
H108	H	1.279215	0.257841	0.587504
H109	H	1.375400	0.259291	0.707073
C110	C	1.205689	-0.310991	-0.117604
C111	C	1.218682	-0.264465	-0.000104
H112	H	1.125071	-0.332838	-0.117591
H113	H	1.214517	-0.279424	-0.197301
H114	H	1.268659	-0.352272	-0.117591
H115	H	1.155718	-0.223180	-0.000122
H116	H	1.209842	-0.296033	0.079613
H117	H	1.075960	0.302583	0.095534
H118	H	1.641004	-0.058735	0.388884
