data_functionalizedCrystal
_audit_creation_method	'MofGen! by Chris Wilmer'
_symmetry_space_group_name_H-M	'P1'
_symmetry_Int_Tables_number	1
_symmetry_cell_setting	triclinic
loop_
_symmetry_equiv_pos_as_xyz
  x,y,z
_cell_length_a	13.897448
_cell_length_b	13.897449
_cell_length_c	17.077396
_cell_angle_alpha	90.020566
_cell_angle_beta	89.972632
_cell_angle_gamma	89.982475
loop_
_atom_site_label
_atom_site_type_symbol
_atom_site_fract_x
_atom_site_fract_y
_atom_site_fract_z
Zn1	Zn	-0.384019	-1.474681	-0.443871
Zn2	Zn	-0.545332	-1.474581	-0.312608
Zn3	Zn	-0.384052	-1.313376	-0.312617
Zn4	Zn	-0.545273	-1.313352	-0.443829
O5	O	-0.464669	-1.393998	-0.378231
O6	O	-0.405428	-1.609649	-0.426473
O7	O	-0.523976	-1.453166	-0.202762
O8	O	-0.249066	-1.334826	-0.330049
O9	O	-0.523944	-1.609576	-0.330034
O10	O	-0.249042	-1.453335	-0.426481
O11	O	-0.405484	-1.334729	-0.202768
O12	O	-0.405428	-1.178391	-0.330008
O13	O	-0.523845	-1.334784	-0.553681
O14	O	-0.523876	-1.178373	-0.426409
O15	O	-0.405372	-1.453311	-0.553712
O16	O	-0.680306	-1.453142	-0.329993
O17	O	-0.680263	-1.334687	-0.426401
C18	C	-0.464650	-1.143383	-0.378206
C19	C	-0.464665	-1.036169	-0.378213
C20	C	-0.464663	-0.839874	-0.378228
C21	C	-0.464661	-0.949107	-0.378218
C22	C	-0.715283	-1.393927	-0.378208
C23	C	-0.822497	-1.393985	-0.378225
C24	C	-1.018792	-1.394087	-0.378274
C25	C	-0.909560	-1.394028	-0.378249
C26	C	-0.213076	-1.394094	-0.378271
C27	C	-0.105862	-1.394136	-0.378288
C28	C	-0.464598	-1.394056	-0.582975
C29	C	-0.464568	-1.394081	-0.670225
C30	C	-0.464683	-0.645590	-0.378249
C31	C	-0.464672	-0.752804	-0.378238
C32	C	-0.402874	-1.455800	-0.711233
C33	C	-0.402842	-1.455812	-0.793213
C34	C	-0.464509	-1.394108	-0.834185
C35	C	-0.526206	-1.332382	-0.793171
C36	C	-0.526232	-1.332366	-0.711192
C37	C	-0.526148	-1.332420	-0.964042
C38	C	-0.526123	-1.332437	-1.046026
C39	C	-0.402757	-1.455867	-1.046063
C40	C	-0.402784	-1.455851	-0.964084
C41	C	-0.464482	-1.394125	-0.923076
C42	C	-0.464670	-1.393995	-0.174283
C43	C	-0.464429	-1.394157	-0.087034
H44	H	-0.352607	-1.506073	-0.826598
H45	H	-0.352574	-1.506101	-0.930727
O46	O	-0.336206	-1.522435	-1.090293
H47	H	-0.352771	-1.598131	-1.074577
O48	O	-0.592624	-1.265878	-1.090222
H49	H	-0.635519	-1.222942	-1.047936
H50	H	-0.576460	-1.282098	-0.677805
O51	O	-0.592685	-1.265841	-0.919807
H52	H	-0.635568	-1.222941	-0.962068
H53	H	-0.352660	-1.506050	-0.677880
O54	O	-0.592712	-1.265819	-0.837358
H55	H	-0.641788	-1.308975	-0.874703
