data_functionalizedCrystal
_audit_creation_method	'MofGen! by Chris Wilmer'
_symmetry_space_group_name_H-M	'P1'
_symmetry_Int_Tables_number	1
_symmetry_cell_setting	triclinic
loop_
_symmetry_equiv_pos_as_xyz
  x,y,z
_cell_length_a	19.288864
_cell_length_b	8.559649
_cell_length_c	18.366186
_cell_angle_alpha	89.994914
_cell_angle_beta	89.977106
_cell_angle_gamma	76.457456
loop_
_atom_site_label
_atom_site_type_symbol
_atom_site_fract_x
_atom_site_fract_y
_atom_site_fract_z
O1	O	0.910987	0.199404	-0.060777
O2	O	0.707328	0.226304	-0.060726
O3	O	0.827100	-0.019877	-0.060756
O4	O	0.791215	0.445585	-0.060748
O5	O	0.827083	-0.019889	0.060344
O6	O	0.707311	0.226292	0.060373
O7	O	0.910970	0.199392	0.060322
Zn8	Zn	0.809137	0.212840	0.079575
Zn9	Zn	0.809160	0.212856	-0.079979
O10	O	0.791198	0.445573	0.060351
C11	C	0.681488	0.225432	-0.000170
C12	C	0.604519	0.222834	-0.000151
C13	C	0.552314	0.367282	-0.000161
C14	C	0.479994	0.364841	-0.000169
C15	C	0.459883	0.217944	-0.000182
C16	C	0.512099	0.073477	-0.000169
C17	C	0.584417	0.075922	-0.000154
C18	C	0.357630	0.102471	-0.042635
C19	C	0.285312	0.100032	-0.042655
C20	C	0.236829	0.210396	-0.000226
C21	C	0.260670	0.323227	0.042213
C22	C	0.332989	0.325672	0.042228
C23	C	0.381467	0.215276	-0.000198
C24	C	0.106205	0.352207	-0.000243
C25	C	0.033884	0.349760	-0.000247
C26	C	0.065991	0.058393	-0.000254
C27	C	0.138310	0.060844	-0.000244
C28	C	0.158412	0.207756	-0.000241
C29	C	0.829811	-0.079432	-0.000208
C30	C	0.837906	-0.256871	-0.000214
C31	C	0.936810	0.200264	-0.000235
C32	C	1.013778	0.202862	-0.000259
C33	C	0.788487	0.505129	-0.000198
C34	C	0.780392	0.682567	-0.000197
N35	N	0.809127	0.212828	0.188466
N36	N	0.809177	0.212855	-0.188870
C37	C	0.862174	0.103873	0.226553
C38	C	0.862179	0.103866	0.302781
C39	C	0.809141	0.212842	0.340919
C40	C	0.756084	0.321805	0.302822
C41	C	0.756077	0.321799	0.226596
C42	C	0.792272	0.358486	0.461683
C43	C	0.792284	0.358494	0.537908
C44	C	0.809160	0.212862	0.576026
C45	C	0.826039	0.067214	0.537910
C46	C	0.826032	0.067207	0.461684
C47	C	0.809143	0.212860	0.423573
C48	C	0.862216	0.103889	0.696769
C49	C	0.862216	0.103880	0.772998
C50	C	0.756124	0.321833	0.773037
C51	C	0.756121	0.321829	0.696809
C52	C	0.809171	0.212858	0.658680
H53	H	0.221197	0.413096	0.076763
H54	H	0.568676	0.486909	-0.000160
O55	O	0.704514	0.427537	0.810041
C56	C	0.578708	0.521975	0.833386
C57	C	0.637088	0.402154	0.791443
H58	H	0.524179	0.501518	0.818354
H59	H	0.587761	0.503268	0.894419
H60	H	0.580964	0.649937	0.818397
H61	H	0.634866	0.274145	0.806371
H62	H	0.628015	0.421002	0.730420
H63	H	0.905412	0.015147	0.804009
O64	O	0.904081	-0.356793	-0.000325
C65	C	1.016330	-0.441521	-0.063114
C66	C	0.941417	-0.328245	-0.063069
H67	H	1.046534	-0.418504	-0.113845
H68	H	1.046615	-0.418434	-0.012478
H69	H	1.011281	-0.571581	-0.063072
H70	H	0.946402	-0.198144	-0.063137
H71	H	0.911161	-0.351471	-0.113701
O72	O	0.714221	-0.217519	-0.000281
C73	C	0.601991	-0.132790	-0.063018
C74	C	0.676902	-0.246071	-0.063004
H75	H	0.571803	-0.155811	-0.113732
H76	H	0.571690	-0.155867	-0.012365
H77	H	0.607043	-0.002731	-0.062989
H78	H	0.671916	-0.376171	-0.063059
H79	H	0.707176	-0.222855	-0.113653
H80	H	0.905369	0.015139	0.195510
O81	O	0.913780	-0.002046	0.339677
C82	C	1.018980	-0.218292	0.331599
C83	C	0.960598	-0.098406	0.289728
H84	H	1.056839	-0.296253	0.291234
H85	H	1.050059	-0.149563	0.367248
H86	H	0.993227	-0.297892	0.367324
H87	H	0.986292	-0.018775	0.253964
H88	H	0.929525	-0.167235	0.254125
H89	H	0.839773	-0.051384	0.430653
H90	H	0.495719	-0.046127	-0.000190
H91	H	0.839781	-0.051375	0.568945
H92	H	0.712927	0.410557	0.665796
O93	O	0.429363	0.505311	-0.000216
C94	C	0.405144	0.794561	-0.000187
C95	C	0.462554	0.635601	-0.000147
H96	H	0.431958	0.899942	-0.000115
H97	H	0.370525	0.800792	-0.050888
H98	H	0.370441	0.800620	0.050471
H99	H	0.497306	0.629436	-0.050770
H100	H	0.497122	0.629436	0.050589
H101	H	0.352397	0.417538	0.076786
O102	O	0.913836	-0.001703	0.659716
C103	C	1.010562	-0.036123	0.573653
C104	C	0.952119	0.083605	0.615563
H105	H	1.041521	0.032802	0.537934
H106	H	1.048517	-0.113919	0.613968
H107	H	0.984876	-0.115906	0.537990
H108	H	0.977743	0.163493	0.651227
H109	H	0.914171	0.161289	0.575209
O110	O	0.775844	0.500110	0.574817
C111	C	0.742396	0.789022	0.566768
C112	C	0.760985	0.628755	0.524880
H113	H	0.730392	0.893074	0.526412
H114	H	0.693619	0.793308	0.602463
H115	H	0.789470	0.799328	0.602447
H116	H	0.713956	0.618343	0.489162
H117	H	0.809786	0.624538	0.489231
H118	H	0.122573	0.471832	-0.000231
H119	H	0.778517	0.477085	0.430653
O120	O	0.704477	0.427505	0.339833
C121	C	0.578671	0.521929	0.363188
C122	C	0.637051	0.402115	0.321241
H123	H	0.524143	0.501466	0.348160
H124	H	0.587729	0.503222	0.424221
H125	H	0.580923	0.649893	0.348199
H126	H	0.634832	0.274104	0.336170
H127	H	0.627972	0.420963	0.260219
O128	O	0.188935	-0.079622	-0.000275
C129	C	0.213146	-0.368871	-0.000240
C130	C	0.155739	-0.209906	-0.000225
H131	H	0.186329	-0.474247	-0.000184
H132	H	0.247827	-0.375115	-0.050925
H133	H	0.247787	-0.374926	0.050435
H134	H	0.121049	-0.203744	-0.050865
H135	H	0.121109	-0.203728	0.050494
O136	O	0.262227	-0.009506	-0.083982
C137	C	0.251354	-0.111990	-0.204584
C138	C	0.277542	0.012128	-0.157864
H139	H	0.263713	-0.094520	-0.264327
H140	H	0.279566	-0.238461	-0.186735
H141	H	0.191345	-0.094801	-0.197274
H142	H	0.337545	-0.004912	-0.165151
H143	H	0.249278	0.138554	-0.175724
H144	H	0.712878	0.410525	0.195584
H145	H	0.049617	-0.061214	-0.000311
H146	H	-0.008622	0.467392	-0.000250
H147	H	0.397100	0.012595	-0.077190
H148	H	0.626924	-0.041708	-0.000147
