data_functionalizedCrystal
_audit_creation_method	'MofGen! by Chris Wilmer'
_symmetry_space_group_name_H-M	'P1'
_symmetry_Int_Tables_number	1
_symmetry_cell_setting	triclinic
loop_
_symmetry_equiv_pos_as_xyz
  x,y,z
_cell_length_a	19.077105
_cell_length_b	14.908520
_cell_length_c	19.077174
_cell_angle_alpha	95.695642
_cell_angle_beta	85.483752
_cell_angle_gamma	91.150228
loop_
_atom_site_label
_atom_site_type_symbol
_atom_site_fract_x
_atom_site_fract_y
_atom_site_fract_z
Zn1	Zn	1.074745	-0.438339	-0.460807
Zn2	Zn	1.063678	-0.582887	-0.349172
Zn3	Zn	0.952676	-0.425728	-0.337659
Zn4	Zn	0.950574	-0.582828	-0.462287
O5	O	1.010418	-0.507446	-0.402481
O6	O	1.171698	-0.462816	-0.450197
O7	O	1.045201	-0.556787	-0.248768
O8	O	0.974380	-0.301160	-0.348556
O9	O	1.163567	-0.569015	-0.368180
O10	O	1.064064	-0.310425	-0.439032
O11	O	0.963648	-0.441323	-0.240309
O12	O	0.853976	-0.441265	-0.349992
O13	O	0.970798	-0.568914	-0.560968
O14	O	0.852432	-0.556686	-0.441556
O15	O	1.062026	-0.462759	-0.559880
O16	O	1.043163	-0.709120	-0.369615
O17	O	0.960066	-0.709077	-0.452721
C18	C	0.827685	-0.497601	-0.394686
C19	C	0.749510	-0.493413	-0.391369
C20	C	0.711992	-0.551621	-0.437416
C21	C	0.638539	-0.547674	-0.434302
C22	C	0.602606	-0.485521	-0.385137
C23	C	0.640130	-0.427307	-0.339088
C24	C	0.713582	-0.431250	-0.342206
C25	C	0.383015	-0.467269	-0.370711
C26	C	0.309558	-0.463332	-0.367595
C27	C	0.307972	-0.583699	-0.462810
C28	C	0.381425	-0.587641	-0.465921
C29	C	0.418943	-0.529422	-0.419874
N30	N	0.527526	-0.481487	-0.381952
N31	N	0.494022	-0.533453	-0.423064
C32	C	1.000205	-0.741833	-0.412594
C33	C	0.995901	-0.842110	-0.416947
C34	C	1.074438	-1.030534	-0.338666
C35	C	1.070396	-1.124752	-0.342754
C36	C	0.983781	-1.124769	-0.429214
C37	C	0.987822	-1.030550	-0.425126
C38	C	1.033152	-0.983435	-0.379850
C39	C	1.037189	-0.889214	-0.375759
C40	C	0.950578	-0.889233	-0.462222
C41	C	0.946536	-0.983452	-0.466310
C42	C	1.193865	-0.517329	-0.410307
C43	C	1.272039	-0.521541	-0.413642
C44	C	1.017412	-0.517237	-0.586779
C45	C	1.020393	-0.521409	-0.665315
C46	C	1.020691	-0.272145	-0.392345
C47	C	1.025068	-0.171873	-0.388025
C48	C	0.979335	-0.463255	-0.697807
C49	C	0.982132	-0.467182	-0.771601
C50	C	1.025992	-0.529261	-0.812901
C51	C	1.067051	-0.587422	-0.780404
C52	C	1.064249	-0.583498	-0.706612
C53	C	1.038920	-0.547447	-1.034069
C54	C	1.041720	-0.551365	-1.107866
C55	C	0.956799	-0.431126	-1.099058
C56	C	0.954005	-0.427204	-1.025265
C57	C	0.995062	-0.485368	-0.992774
N58	N	1.028854	-0.533275	-0.888330
N59	N	0.992195	-0.481357	-0.917346
C60	C	1.003495	-0.497630	-0.218900
C61	C	1.000662	-0.493210	-0.140358
H62	H	0.280304	-0.412710	-0.327563
C63	C	0.937669	-0.404014	-0.806979
C64	C	0.981616	-0.350611	-0.848577
C65	C	0.940676	-0.292425	-0.881187
H66	H	0.911134	-0.366394	-0.771896
H67	H	0.906627	-0.438395	-0.835978
H68	H	1.012646	-0.316233	-0.819579
H69	H	1.008151	-0.388208	-0.883672
H70	H	0.909634	-0.326806	-0.910187
H71	H	0.914143	-0.254810	-0.846100
H72	H	0.970488	-0.256190	-0.909420
C73	C	0.754447	-0.368099	-0.292294
C74	C	0.826464	-0.384837	-0.305560
C75	C	0.864131	-0.326666	-0.259602
H76	H	0.740114	-0.377981	-0.244828
H77	H	0.745486	-0.307396	-0.299596
H78	H	0.835421	-0.445525	-0.298252
H79	H	0.840818	-0.374948	-0.353017
H80	H	0.855170	-0.265964	-0.266905
H81	H	0.849792	-0.336553	-0.212139
H82	H	0.912999	-0.338009	-0.268601
H83	H	0.916958	-0.850875	-0.495755
C84	C	0.750876	-0.619134	-0.490870
C85	C	0.702295	-0.669247	-0.530543
C86	C	0.738088	-0.731438	-0.579801
H87	H	0.776790	-0.658573	-0.466785
H88	H	0.782191	-0.587882	-0.521469
H89	H	0.670993	-0.700498	-0.499948
H90	H	0.676380	-0.629832	-0.554643
H91	H	0.769403	-0.700186	-0.610400
H92	H	0.764000	-0.770871	-0.555710
H93	H	0.705132	-0.765442	-0.606729
C94	C	0.597782	-0.610733	-0.484375
C95	C	0.559580	-0.559900	-0.525761
C96	C	0.522036	-0.617963	-0.571905
H97	H	0.566330	-0.647027	-0.457853
H98	H	0.629686	-0.648300	-0.514136
H99	H	0.527680	-0.522349	-0.496003
H100	H	0.591015	-0.523608	-0.552297
H101	H	0.553940	-0.655529	-0.601667
H102	H	0.490588	-0.654254	-0.545378
H103	H	0.496117	-0.583481	-0.599995
H104	H	1.074097	-0.850855	-0.338891
C105	C	0.423614	-0.404017	-0.320635
C106	C	0.376420	-0.348762	-0.276901
C107	C	0.413797	-0.290486	-0.230756
H108	H	0.455009	-0.367656	-0.347158
H109	H	0.449579	-0.438335	-0.292465
H110	H	0.350467	-0.314447	-0.305068
H111	H	0.345023	-0.385098	-0.250363
H112	H	0.439762	-0.324804	-0.202585
H113	H	0.445191	-0.254131	-0.257285
H114	H	0.381781	-0.252994	-0.201073
H115	H	1.111342	-0.992172	-0.301795
C116	C	0.601070	-0.359966	-0.285629
C117	C	0.554964	-0.406281	-0.240672
C118	C	0.518978	-0.344277	-0.191410
H119	H	0.575100	-0.320591	-0.309716
H120	H	0.633911	-0.325873	-0.258610
H121	H	0.522128	-0.440359	-0.267688
H122	H	0.580917	-0.445652	-0.216569
H123	H	0.551819	-0.310184	-0.164392
H124	H	0.493012	-0.304906	-0.215504
H125	H	0.487696	-0.375693	-0.160897
C126	C	1.115250	-1.175723	-0.297954
C127	C	1.155798	-1.114290	-0.257418
C128	C	1.197121	-1.161210	-0.216133
H129	H	1.145383	-1.215518	-0.327832
H130	H	1.085640	-1.209418	-0.267555
H131	H	1.185406	-1.080610	-0.287814
H132	H	1.125684	-1.074493	-0.227527
H133	H	1.167511	-1.194906	-0.185734
H134	H	1.227249	-1.201004	-0.246017
H135	H	1.224633	-1.119535	-0.188620
C136	C	0.934670	-1.175899	-0.478491
C137	C	0.953576	-1.157484	-0.548070
C138	C	0.908359	-1.204581	-0.593485
H139	H	0.887662	-1.157478	-0.465525
H140	H	0.938191	-1.238768	-0.475074
H141	H	0.950049	-1.094629	-0.551484
H142	H	1.000577	-1.175909	-0.561058
H143	H	0.911880	-1.267450	-0.590068
H144	H	0.861353	-1.186156	-0.580513
H145	H	0.921185	-1.192100	-0.640700
H146	H	0.909632	-1.021825	-0.503174
H147	H	1.102759	-0.637972	-0.814037
C148	C	0.931642	-0.395823	-0.653093
C149	C	0.896269	-0.345754	-0.697347
C150	C	0.852318	-0.283638	-0.656183
H151	H	0.959091	-0.356349	-0.623751
H152	H	0.898362	-0.427133	-0.624499
H153	H	0.929544	-0.314446	-0.725928
H154	H	0.868806	-0.385204	-0.726688
H155	H	0.819038	-0.314947	-0.627590
H156	H	0.879773	-0.244170	-0.626843
H157	H	0.828307	-0.249664	-0.686203
C158	C	0.912192	-0.367881	-1.134202
C159	C	0.873195	-0.312663	-1.082238
C160	C	0.832098	-0.254382	-1.114584
H161	H	0.881076	-0.402167	-1.163162
H162	H	0.941889	-0.331502	-1.162425
H163	H	0.843500	-0.349037	-1.054026
H164	H	0.904293	-0.278357	-1.053274
H165	H	0.861795	-0.218003	-1.142808
H166	H	0.800986	-0.288675	-1.143544
H167	H	0.805638	-0.216904	-1.079332
C168	C	1.089358	-0.618864	-1.152587
C169	C	1.124701	-0.668979	-1.108340
C170	C	1.168582	-0.731169	-1.149511
H171	H	1.122661	-0.587639	-1.181202
H172	H	1.061841	-0.658295	-1.181908
H173	H	1.152216	-0.629554	-1.079031
H174	H	1.091415	-0.700223	-1.079725
H175	H	1.141065	-0.770600	-1.178832
H176	H	1.201881	-0.699937	-1.178124
H177	H	1.192562	-0.765185	-1.119496
H178	H	0.918288	-0.376655	-0.991642
C179	C	1.108906	-0.646685	-0.671464
C180	C	1.147929	-0.701877	-0.723425
C181	C	1.189078	-0.760094	-0.691075
H182	H	1.079263	-0.683093	-0.643229
H183	H	1.140002	-0.612324	-0.642514
H184	H	1.116836	-0.736235	-0.752363
H185	H	1.177585	-0.665493	-0.751663
H186	H	1.220175	-0.725733	-0.662125
H187	H	1.159430	-0.796496	-0.662840
H188	H	1.215565	-0.797543	-0.726325
C189	C	1.083379	-0.610694	-0.998766
C190	C	1.039428	-0.664142	-0.957210
C191	C	1.080361	-0.722426	-0.924685
H192	H	1.114446	-0.576411	-0.969748
H193	H	1.109885	-0.648271	-1.033916
H194	H	1.012933	-0.626569	-0.922065
H195	H	1.008361	-0.698444	-0.986211
H196	H	1.106868	-0.760004	-0.959835
H197	H	1.111427	-0.688136	-0.895670
H198	H	1.050547	-0.758704	-0.896491
H199	H	0.410677	-0.638254	-0.505955
H200	H	0.277418	-0.631095	-0.500300
