data_functionalizedCrystal
_audit_creation_method	'MofGen! by Chris Wilmer'
_symmetry_space_group_name_H-M	'P1'
_symmetry_Int_Tables_number	1
_symmetry_cell_setting	triclinic
loop_
_symmetry_equiv_pos_as_xyz
  x,y,z
_cell_length_a	12.759401
_cell_length_b	18.050589
_cell_length_c	12.759393
_cell_angle_alpha	89.970202
_cell_angle_beta	89.981827
_cell_angle_gamma	90.028382
loop_
_atom_site_label
_atom_site_type_symbol
_atom_site_fract_x
_atom_site_fract_y
_atom_site_fract_z
Zn1	Zn	1.606153	-0.295619	-0.593988
Zn2	Zn	1.606007	-0.419827	-0.418311
Zn3	Zn	1.430456	-0.295656	-0.418328
Zn4	Zn	1.430403	-0.419772	-0.593953
O5	O	1.518255	-0.357718	-0.506145
O6	O	1.753155	-0.312103	-0.570692
O7	O	1.582681	-0.403394	-0.271292
O8	O	1.453847	-0.191726	-0.441651
O9	O	1.753048	-0.403358	-0.441623
O10	O	1.582930	-0.191699	-0.570708
O11	O	1.453705	-0.312166	-0.271304
O12	O	1.283428	-0.312112	-0.441617
O13	O	1.453755	-0.403264	-0.740979
O14	O	1.283389	-0.403300	-0.570648
O15	O	1.582878	-0.312049	-0.741005
O16	O	1.582629	-0.523744	-0.441589
O17	O	1.453613	-0.523703	-0.570632
C18	C	1.245287	-0.357704	-0.506131
C19	C	1.128511	-0.357716	-0.506149
C20	C	1.073656	-0.405274	-0.573225
C21	C	0.963932	-0.405283	-0.573236
C22	C	0.963928	-0.310176	-0.439088
C23	C	1.073650	-0.310163	-0.439083
C24	C	1.128517	-0.452827	-0.640292
C25	C	1.073662	-0.500389	-0.707372
C26	C	0.963938	-0.500398	-0.707383
C27	C	0.909069	-0.452846	-0.640314
C28	C	1.518128	-0.550670	-0.506127
C29	C	1.518170	-0.633216	-0.506155
C30	C	1.448080	-0.832672	-0.576304
C31	C	1.422466	-0.882119	-0.480436
C32	C	1.518273	-0.784346	-0.506169
C33	C	1.543938	-0.881980	-0.602048
C34	C	1.518371	-0.930331	-0.506191
C35	C	1.492609	-0.832707	-0.410250
C36	C	1.614126	-0.832564	-0.531927
C37	C	1.588548	-0.881989	-0.435992
C38	C	1.518214	-0.700248	-0.506158
C39	C	1.518430	-1.014428	-0.506191
C40	C	1.792288	-0.357732	-0.506160
C41	C	1.909065	-0.357738	-0.506166
C42	C	1.518327	-0.357646	-0.780178
C43	C	1.518358	-0.357615	-0.896955
C44	C	1.518411	-0.164013	-0.506185
C45	C	1.518477	-0.081467	-0.506203
C46	C	1.451177	-0.405064	-1.061530
C47	C	1.451145	-0.405091	-0.951806
C48	C	1.585600	-0.310104	-0.951834
C49	C	1.585626	-0.310074	-1.061556
C50	C	1.383967	-0.452548	-1.116375
C51	C	1.316723	-0.500058	-1.061504
C52	C	1.316691	-0.500086	-0.951780
C53	C	1.383902	-0.452602	-0.896927
C54	C	1.518244	-0.357736	-0.233178
C55	C	1.518416	-0.357558	-0.116401
H56	H	1.217860	-0.452826	-0.640288
H57	H	1.383868	-0.452626	-0.807582
H58	H	1.640321	-0.271446	-0.907164
H59	H	1.640373	-0.271387	-1.106233
H60	H	1.383988	-0.452533	-1.205718
C61	C	1.367771	-0.803408	-0.656313
N62	N	1.307279	-0.781365	-0.716568
C63	C	1.242786	-0.552280	-1.121844
N64	N	1.187092	-0.591614	-1.167291
C65	C	1.313015	-0.911526	-0.451008
N66	N	1.230574	-0.933673	-0.428849
H67	H	1.118343	-0.539099	-0.761983
C68	C	1.723538	-0.803122	-0.561404
N69	N	1.805945	-0.780941	-0.583621
C70	C	0.903600	-0.552719	-0.781168
N71	N	0.858156	-0.592133	-0.836738
H72	H	0.819724	-0.452851	-0.640338
C73	C	1.133994	-0.257850	-0.365293
N74	N	1.179445	-0.218446	-0.309714
C75	C	0.903567	-0.257876	-0.365312
N76	N	0.858104	-0.218486	-0.309739
C77	C	1.463203	-0.803590	-0.300691
N78	N	1.441050	-0.781657	-0.218174
H79	H	1.647950	-0.903507	-0.376622
H80	H	1.565607	-0.903625	-0.683124
H81	H	1.261929	-0.538765	-0.907107
