data_functionalizedCrystal
_audit_creation_method	'MofGen! by Chris Wilmer'
_symmetry_space_group_name_H-M	'P1'
_symmetry_Int_Tables_number	1
_symmetry_cell_setting	triclinic
loop_
_symmetry_equiv_pos_as_xyz
  x,y,z
_cell_length_a	17.077404
_cell_length_b	16.959454
_cell_length_c	17.077396
_cell_angle_alpha	90.024735
_cell_angle_beta	90.019501
_cell_angle_gamma	90.020300
loop_
_atom_site_label
_atom_site_type_symbol
_atom_site_fract_x
_atom_site_fract_y
_atom_site_fract_z
Zn1	Zn	1.200070	-0.314677	0.443863
Zn2	Zn	1.700070	0.185323	0.943863
Zn3	Zn	1.199983	-0.446865	0.312606
Zn4	Zn	1.699983	0.053135	0.812606
Zn5	Zn	1.068802	-0.314705	0.312611
Zn6	Zn	1.568802	0.185295	0.812611
Zn7	Zn	1.068776	-0.446818	0.443829
Zn8	Zn	1.568776	0.053182	0.943829
O9	O	1.134408	-0.380766	0.378227
O10	O	1.634408	0.119234	0.878227
O11	O	1.309905	-0.332220	0.426463
O12	O	1.809905	0.167780	0.926463
O13	O	1.182556	-0.429365	0.202759
O14	O	1.682556	0.070635	0.702759
O15	O	1.086262	-0.204090	0.330038
O16	O	1.586262	0.295910	0.830038
O17	O	1.309842	-0.429338	0.330029
O18	O	1.809842	0.070662	0.830029
O19	O	1.182704	-0.204070	0.426469
O20	O	1.682704	0.295930	0.926469
O21	O	1.086178	-0.332267	0.202763
O22	O	1.586178	0.167733	0.702763
O23	O	0.958951	-0.332222	0.330006
O24	O	1.458951	0.167778	0.830006
O25	O	1.086218	-0.429258	0.553681
O26	O	1.586218	0.070742	1.053681
O27	O	0.958933	-0.429285	0.426411
O28	O	1.458933	0.070715	0.926411
O29	O	1.182679	-0.332174	0.553706
O30	O	1.682679	0.167826	1.053706
O31	O	1.182532	-0.557469	0.329996
O32	O	1.682532	-0.057469	0.829996
O33	O	1.086134	-0.557435	0.426406
O34	O	1.586134	-0.057435	0.926406
C35	C	0.930460	-0.380752	0.378206
C36	C	1.430460	0.119248	0.878206
C37	C	0.843210	-0.380764	0.378215
C38	C	1.343210	0.119236	0.878215
C39	C	0.802231	-0.431381	0.428333
C40	C	1.302231	0.068619	0.928333
C41	C	0.720250	-0.431383	0.428345
C42	C	1.220250	0.068617	0.928345
C43	C	0.679251	-0.380771	0.378236
C44	C	1.179251	0.119229	0.878236
C45	C	0.720236	-0.330149	0.328116
C46	C	1.220236	0.169851	0.828116
C47	C	0.802215	-0.330144	0.328108
C48	C	1.302215	0.169856	0.828108
C49	C	0.549366	-0.330164	0.328134
C50	C	1.049366	0.169836	0.828134
C51	C	0.467381	-0.330170	0.328141
C52	C	0.967381	0.169830	0.828141
C53	C	0.467401	-0.431404	0.428372
C54	C	0.967401	0.068596	0.928372
C55	C	0.549380	-0.431399	0.428364
C56	C	1.049380	0.068601	0.928364
C57	C	0.590360	-0.380777	0.378243
C58	C	1.090360	0.119223	0.878243
C59	C	1.134342	-0.586132	0.378214
C60	C	1.634342	-0.086132	0.878214
C61	C	1.134386	-0.673989	0.378235
C62	C	1.634386	-0.173989	0.878235
C63	C	1.084287	-1.045476	0.428422
C64	C	1.584287	-0.545476	0.928422
C65	C	1.184748	-1.045452	0.328112
C66	C	1.684748	-0.545452	0.828112
C67	C	1.184720	-0.962906	0.328105
C68	C	1.684720	-0.462906	0.828105
C69	C	1.134474	-0.921642	0.378256
C70	C	1.634474	-0.421642	0.878256
C71	C	1.084256	-0.962923	0.428415
C72	C	1.584256	-0.462923	0.928415
C73	C	1.234932	-0.921619	0.277942
C74	C	1.734932	-0.421619	0.777942
C75	C	1.234906	-0.839068	0.277932
C76	C	1.734906	-0.339068	0.777932
C77	C	1.184664	-0.797802	0.328088
C78	C	1.684664	-0.297802	0.828088
C79	C	1.134444	-0.839088	0.378249
C80	C	1.634444	-0.339088	0.878249
C81	C	1.084198	-0.797823	0.428400
C82	C	1.584198	-0.297823	0.928400
C83	C	1.033981	-0.839108	0.478566
C84	C	1.533981	-0.339108	0.978566
C85	C	1.034013	-0.921657	0.478571
C86	C	1.534013	-0.421657	0.978571
C87	C	1.184632	-0.715254	0.328083
C88	C	1.684632	-0.215254	0.828083
C89	C	1.084167	-0.715270	0.428393
C90	C	1.584167	-0.215270	0.928393
C91	C	1.339152	-0.380781	0.378250
C92	C	1.839152	0.119219	0.878250
C93	C	1.426402	-0.380787	0.378259
C94	C	1.926402	0.119213	0.878259
C95	C	1.134455	-0.380708	0.582972
C96	C	1.634455	0.119292	1.082972
C97	C	1.134476	-0.380683	0.670222
C98	C	1.634476	0.119317	1.170222
C99	C	1.134495	-0.174598	0.378258
C100	C	1.634495	0.325402	0.878258
C101	C	1.134533	-0.086741	0.378271
C102	C	1.634533	0.413259	0.878271
C103	C	1.134406	-0.380767	0.174279
C104	C	1.634406	0.119233	0.674279
C105	C	1.134538	-0.380569	0.087030
C106	C	1.634538	0.119431	0.587030
C107	C	1.184705	-0.330127	0.711226
C108	C	1.684705	0.169873	1.211226
C109	C	1.184714	-0.330101	0.793206
C110	C	1.684714	0.169899	1.293206
C111	C	1.134498	-0.380635	0.834181
C112	C	1.634498	0.119365	1.334181
C113	C	1.084263	-0.431193	0.793171
C114	C	1.584263	0.068807	1.293171
C115	C	1.084250	-0.431214	0.711192
C116	C	1.584250	0.068786	1.211192
C117	C	1.084295	-0.431145	0.964041
C118	C	1.584295	0.068855	1.464041
C119	C	1.084309	-0.431125	1.046026
C120	C	1.584309	0.068875	1.546026
C121	C	1.184759	-0.330032	1.046056
C122	C	1.684759	0.169968	1.546056
C123	C	1.184746	-0.330053	0.964077
C124	C	1.684746	0.169947	1.464077
C125	C	1.134512	-0.380613	0.923072
C126	C	1.634512	0.119387	1.423072
H127	H	0.686889	-0.472601	0.469156
H128	H	1.186889	0.027399	0.969156
C129	C	0.442137	-0.565303	0.466375
C130	C	0.942137	-0.065303	0.966375
C131	C	0.422356	-0.487049	0.483465
C132	C	0.922356	0.012951	0.983465
H133	H	0.414320	-0.599655	0.500380
H134	H	0.914320	-0.099655	1.000380
H135	H	0.496820	-0.572540	0.473545
H136	H	0.996820	-0.072540	0.973545
H137	H	0.428671	-0.576787	0.413612
H138	H	0.928671	-0.076787	0.913612
H139	H	0.435827	-0.475563	0.536227
H140	H	0.935827	0.024437	1.036227
H141	H	0.367661	-0.479808	0.476301
H142	H	0.867661	0.020192	0.976301
H143	H	1.225651	-1.079055	0.287277
H144	H	1.725651	-0.579055	0.787277
C145	C	0.442056	-0.291463	0.195299
C146	C	0.942056	0.208537	0.695299
C147	C	0.422298	-0.274531	0.273079
C148	C	0.922298	0.225469	0.773079
H149	H	0.414221	-0.257108	0.161312
H150	H	0.914221	0.242892	0.661312
H151	H	0.428604	-0.344550	0.183718
H152	H	0.928604	0.155450	0.683718
H153	H	0.496742	-0.284200	0.188117
H154	H	0.996742	0.215800	0.688117
H155	H	0.367612	-0.281799	0.280263
H156	H	0.867612	0.218201	0.780263
H157	H	0.435745	-0.221431	0.284665
H158	H	0.935745	0.278569	0.784665
H159	H	1.043373	-0.472335	0.826539
H160	H	1.543373	0.027665	1.326539
C161	C	1.290308	-0.319088	0.871882
C162	C	1.790308	0.180912	1.371882
C163	C	1.239928	-0.274498	0.919026
C164	C	1.739928	0.225502	1.419026
H165	H	1.324372	-0.284785	0.844072
H166	H	1.824372	0.215215	1.344072
H167	H	1.260389	-0.349203	0.835742
H168	H	1.760389	0.150797	1.335742
H169	H	1.320340	-0.353507	0.903865
H170	H	1.820340	0.146493	1.403865
H171	H	1.209892	-0.240083	0.887043
H172	H	1.709892	0.259917	1.387043
H173	H	1.269850	-0.244370	0.955171
H174	H	1.769850	0.255630	1.455171
C175	C	1.367865	-0.947048	0.239780
C176	C	1.867865	-0.447048	0.739780
C177	C	1.290121	-0.967019	0.222813
C178	C	1.790121	-0.467019	0.722813
H179	H	1.401925	-0.975089	0.205741
H180	H	1.901925	-0.475089	0.705741
H181	H	1.379335	-0.960527	0.292529
H182	H	1.879335	-0.460527	0.792529
H183	H	1.375060	-0.891984	0.232566
H184	H	1.875060	-0.391984	0.732566
H185	H	1.282924	-1.022082	0.230034
H186	H	1.782924	-0.522082	0.730034
H187	H	1.278647	-0.953545	0.170052
H188	H	1.778647	-0.453545	0.670052
H189	H	0.582729	-0.288936	0.287327
H190	H	1.082729	0.211064	0.787327
H191	H	0.835607	-0.472598	0.469136
H192	H	1.335607	0.027402	0.969136
H193	H	0.582760	-0.472616	0.469164
H194	H	1.082760	0.027384	0.969164
C195	C	1.073354	-1.138257	0.534013
C196	C	1.573354	-0.638257	1.034013
C197	C	1.029090	-1.090854	0.483561
C198	C	1.529090	-0.590854	0.983561
H199	H	1.039276	-1.166275	0.568049
H200	H	1.539276	-0.666275	1.068049
H201	H	1.107517	-1.106010	0.564065
H202	H	1.607517	-0.606010	1.064065
H203	H	1.103280	-1.174645	0.504140
H204	H	1.603280	-0.674645	1.004140
H205	H	0.999168	-1.054463	0.513435
H206	H	1.499168	-0.554463	1.013435
H207	H	0.994913	-1.123104	0.453507
H208	H	1.494913	-0.623104	0.953507
C209	C	0.989333	-0.712572	0.523085
C210	C	1.489333	-0.212572	1.023085
C211	C	0.978752	-0.793744	0.533693
C212	C	1.478752	-0.293744	1.033693
H213	H	0.955241	-0.684565	0.557121
H214	H	1.455241	-0.184565	1.057121
H215	H	0.977867	-0.699091	0.470336
H216	H	1.477867	-0.199091	0.970336
H217	H	1.042067	-0.699007	0.534618
H218	H	1.542067	-0.199007	1.034618
H219	H	0.926020	-0.807309	0.522154
H220	H	1.426020	-0.307309	1.022154
H221	H	0.990213	-0.807230	0.586453
H222	H	1.490213	-0.307230	1.086453
C223	C	1.229364	-0.285082	1.171733
C224	C	1.729364	0.214918	1.671733
C225	C	1.239964	-0.274442	1.091125
C226	C	1.739964	0.225558	1.591125
H227	H	1.263440	-0.250760	1.199557
H228	H	1.763440	0.249240	1.699557
H229	H	1.240839	-0.338178	1.185165
H230	H	1.740839	0.161822	1.685165
H231	H	1.176624	-0.273511	1.185145
H232	H	1.676624	0.226489	1.685145
H233	H	1.292703	-0.286019	1.077711
H234	H	1.792703	0.213981	1.577711
H235	H	1.228494	-0.221334	1.077687
H236	H	1.728494	0.278666	1.577687
H237	H	0.686848	-0.288936	0.287319
H238	H	1.186848	0.211064	0.787319
C239	C	0.793966	-0.230092	0.229023
C240	C	1.293966	0.269908	0.729023
C241	C	0.847263	-0.274511	0.273009
C242	C	1.347263	0.225489	0.773009
H243	H	0.821778	-0.195750	0.195004
H244	H	1.321778	0.304250	0.695004
H245	H	0.762019	-0.199901	0.263276
H246	H	1.262019	0.300099	0.763276
H247	H	0.761965	-0.264505	0.198946
H248	H	1.261965	0.235495	0.698946
H249	H	0.879260	-0.240099	0.303090
H250	H	1.379260	0.259901	0.803090
H251	H	0.879224	-0.304704	0.238752
H252	H	1.379224	0.195296	0.738752
C253	C	0.985003	-0.531040	1.037766
C254	C	1.485003	-0.031040	1.537766
C255	C	1.029105	-0.486666	1.091067
C256	C	1.529105	0.013334	1.591067
H257	H	0.950920	-0.565325	1.065575
H258	H	1.450920	-0.065325	1.565575
H259	H	1.019179	-0.561291	1.005794
H260	H	1.519179	-0.061291	1.505794
H261	H	0.954990	-0.496597	1.005791
H262	H	1.454990	0.003403	1.505791
H263	H	1.059122	-0.521109	1.123039
H264	H	1.559122	-0.021109	1.623039
H265	H	0.994924	-0.456413	1.123053
H266	H	1.494924	0.043587	1.623053
H267	H	1.043254	-0.681677	0.469236
H268	H	1.543254	-0.181677	0.969236
C269	C	1.273223	-0.813699	0.145044
C270	C	1.773223	-0.313699	0.645044
C271	C	1.290110	-0.793695	0.222797
C272	C	1.790110	-0.293695	0.722797
H273	H	1.307310	-0.785690	0.111009
H274	H	1.807310	-0.285690	0.611009
H275	H	1.220492	-0.800205	0.133509
H276	H	1.720492	-0.300205	0.633509
H277	H	1.280429	-0.868770	0.137880
H278	H	1.780429	-0.368770	0.637880
H279	H	1.282899	-0.738624	0.229962
H280	H	1.782899	-0.238624	0.729962
H281	H	1.342854	-0.807183	0.234336
H282	H	1.842854	-0.307183	0.734336
H283	H	1.043377	-0.472303	0.930658
H284	H	1.543377	0.027697	1.430658
H285	H	1.225514	-0.681643	0.287235
H286	H	1.725514	-0.181643	0.787235
H287	H	0.993129	-0.955278	0.519412
H288	H	1.493129	-0.455278	1.019412
H289	H	1.225599	-0.288979	0.677870
H290	H	1.725599	0.211021	1.177870
H291	H	1.043341	-0.472374	0.677807
H292	H	1.543341	0.027626	1.177807
H293	H	1.225617	-0.288936	0.826589
H294	H	1.725617	0.211064	1.326589
