data_functionalizedCrystal
_audit_creation_method	'MofGen! by Chris Wilmer'
_symmetry_space_group_name_H-M	'P1'
_symmetry_Int_Tables_number	1
_symmetry_cell_setting	triclinic
loop_
_symmetry_equiv_pos_as_xyz
  x,y,z
_cell_length_a	12.759395
_cell_length_b	11.169416
_cell_length_c	11.169409
_cell_angle_alpha	90.030874
_cell_angle_beta	89.979216
_cell_angle_gamma	89.988123
loop_
_atom_site_label
_atom_site_type_symbol
_atom_site_fract_x
_atom_site_fract_y
_atom_site_fract_z
Zn1	Zn	1.606303	0.477661	-0.678586
Zn2	Zn	2.106303	0.977661	-0.178586
Zn3	Zn	1.606207	0.678401	-0.477908
Zn4	Zn	2.106207	1.178401	0.022092
Zn5	Zn	1.430601	0.477736	-0.477917
Zn6	Zn	1.930601	0.977736	0.022083
Zn7	Zn	1.430607	0.678306	-0.678549
Zn8	Zn	1.930607	1.178306	-0.178549
O9	O	1.518429	0.578026	-0.578240
O10	O	2.018429	1.078026	-0.078240
O11	O	1.753312	0.504298	-0.651977
O12	O	2.253312	1.004298	-0.151977
O13	O	1.582869	0.651854	-0.309959
O14	O	2.082869	1.151854	0.190041
O15	O	1.453946	0.309776	-0.504555
O16	O	1.953946	0.809776	-0.004555
O17	O	1.753240	0.651781	-0.504540
O18	O	2.253240	1.151781	-0.004540
O19	O	1.583034	0.309721	-0.651986
O20	O	2.083034	0.809721	-0.151986
O21	O	1.453852	0.504426	-0.309966
O22	O	1.953852	1.004426	0.190034
O23	O	1.283581	0.504334	-0.504520
O24	O	1.783581	1.004334	-0.004520
O25	O	1.453957	0.651618	-0.846504
O26	O	1.953957	1.151618	-0.346504
O27	O	1.283585	0.651692	-0.651923
O28	O	1.783585	1.151692	-0.151923
O29	O	1.583040	0.504205	-0.846531
O30	O	2.083040	1.004205	-0.346531
O31	O	1.582875	0.846338	-0.504504
O32	O	2.082875	1.346338	-0.004504
O33	O	1.453863	0.846268	-0.651915
O34	O	1.953863	1.346268	-0.151915
C35	C	1.245462	0.578011	-0.578219
C36	C	1.745462	1.078011	-0.078219
C37	C	1.128685	0.578034	-0.578239
C38	C	1.628685	1.078034	-0.078239
C39	C	1.128729	0.731726	-0.731482
C40	C	1.628729	1.231726	-0.231482
C41	C	1.073890	0.808581	-0.808107
C42	C	1.573890	1.308581	-0.308107
C43	C	0.964168	0.808596	-0.808122
C44	C	1.464168	1.308596	-0.308122
C45	C	0.909283	0.731744	-0.731506
C46	C	1.409283	1.231744	-0.231506
C47	C	0.964122	0.654889	-0.654881
C48	C	1.464122	1.154889	-0.154881
C49	C	1.073846	0.654885	-0.654872
C50	C	1.573846	1.154885	-0.154872
C51	C	0.964079	0.501193	-0.501645
C52	C	1.464079	1.001193	-0.001645
C53	C	1.073800	0.501182	-0.501623
C54	C	1.573800	1.001182	-0.001623
C55	C	0.909193	0.424341	-0.425029
C56	C	1.409193	0.924341	0.074971
C57	C	0.964032	0.347490	-0.348396
C58	C	1.464032	0.847490	0.151604
C59	C	1.073761	0.347480	-0.348384
C60	C	1.573761	0.847480	0.151616
C61	C	1.128639	0.424327	-0.424998
C62	C	1.628639	0.924327	0.075002
C63	C	1.518388	0.889851	-0.578231
C64	C	2.018388	1.389851	-0.078231
C65	C	1.518466	1.023251	-0.578267
C66	C	2.018466	1.523251	-0.078267
C67	C	1.518510	0.577893	-0.891282
C68	C	2.018510	1.077893	-0.391282
C69	C	1.518545	0.577836	-1.024683
C70	C	2.018545	1.077836	-0.524683
C71	C	1.792463	0.578042	-0.578261
C72	C	2.292463	1.078042	-0.078261
C73	C	1.909240	0.578048	-0.578270
C74	C	2.409240	1.078048	-0.078270
C75	C	1.518500	0.264984	-0.578275
C76	C	2.018500	0.764984	-0.078275
C77	C	1.518530	0.131584	-0.578290
C78	C	2.018530	0.631584	-0.078290
C79	C	1.518410	0.578072	-0.266415
C80	C	2.018410	1.078072	0.233585
C81	C	1.518579	0.577791	-0.133016
C82	C	2.018579	1.077791	0.366984
H83	H	0.819942	0.731753	-0.731535
H84	H	1.319942	1.231753	-0.231535
H85	H	1.118404	0.284886	-0.285994
H86	H	1.618404	0.784886	0.214006
H87	H	1.218070	0.731731	-0.731469
H88	H	1.718070	1.231731	-0.231469
N89	N	1.246981	0.424328	-0.424984
N90	N	1.746981	0.924328	0.075016
H91	H	1.273444	0.402370	-0.507354
H92	H	1.773444	0.902370	-0.007354
H93	H	1.273315	0.363992	-0.364766
H94	H	1.773315	0.863992	0.135234
H95	H	0.919336	0.284918	-0.286027
H96	H	1.419336	0.784918	0.213973
H97	H	0.919519	0.871172	-0.870523
H98	H	1.419519	1.371172	-0.370523
H99	H	1.118589	0.871150	-0.870488
H100	H	1.618589	1.371150	-0.370488
N101	N	0.790852	0.424360	-0.425032
N102	N	1.290852	0.924360	0.074968
H103	H	0.764437	0.484714	-0.485190
H104	H	1.264437	0.984714	0.014810
H105	H	0.764487	0.446287	-0.342616
H106	H	1.264487	0.946287	0.157384
