data_functionalizedCrystal
_audit_creation_method	'MofGen! by Chris Wilmer'
_symmetry_space_group_name_H-M	'P1'
_symmetry_Int_Tables_number	1
_symmetry_cell_setting	triclinic
loop_
_symmetry_equiv_pos_as_xyz
  x,y,z
_cell_length_a	18.101398
_cell_length_b	25.639240
_cell_length_c	18.101389
_cell_angle_alpha	89.972369
_cell_angle_beta	89.990255
_cell_angle_gamma	90.028316
loop_
_atom_site_label
_atom_site_type_symbol
_atom_site_fract_x
_atom_site_fract_y
_atom_site_fract_z
Zn1	Zn	1.132112	-0.208268	-0.418503
Zn2	Zn	1.132005	-0.295689	-0.294642
Zn3	Zn	1.008271	-0.208263	-0.294696
Zn4	Zn	1.008218	-0.295667	-0.418462
O5	O	1.070152	-0.251972	-0.356576
O6	O	1.235731	-0.219876	-0.402067
O7	O	1.115568	-0.284099	-0.191016
O8	O	1.024766	-0.135098	-0.311159
O9	O	1.235652	-0.284104	-0.311067
O10	O	1.115752	-0.135102	-0.402120
O11	O	1.024662	-0.219867	-0.191056
O12	O	0.904631	-0.219846	-0.311119
O13	O	1.024676	-0.284066	-0.522100
O14	O	0.904593	-0.284061	-0.402049
O15	O	1.115701	-0.219854	-0.522131
O16	O	1.115517	-0.368851	-0.311027
O17	O	1.024572	-0.368835	-0.401997
C18	C	0.877741	-0.251951	-0.356586
C19	C	0.795427	-0.251955	-0.356608
C20	C	0.496336	-0.251986	-0.356577
C21	C	0.527662	-0.292584	-0.413505
C22	C	0.613280	-0.292457	-0.413739
C23	C	0.644719	-0.251971	-0.356592
C24	C	0.613666	-0.196903	-0.377933
C25	C	0.528021	-0.197147	-0.378337
C26	C	0.527883	-0.265969	-0.278171
C27	C	0.613533	-0.267178	-0.278590
C28	C	0.728578	-0.251959	-0.356600
C29	C	0.412477	-0.251994	-0.356571
C30	C	1.070047	-0.387814	-0.356518
C31	C	1.070070	-0.445928	-0.356518
C32	C	1.117551	-0.806255	-0.404024
C33	C	1.117573	-0.860859	-0.404039
O34	O	1.157819	-0.889065	-0.444372
N35	N	1.070254	-0.888211	-0.356647
C36	C	1.022905	-0.860955	-0.309242
O37	O	0.982659	-0.889234	-0.268933
C38	C	1.022880	-0.806352	-0.309231
C39	C	1.070208	-0.779003	-0.356621
C40	C	1.164874	-0.778906	-0.451411
C41	C	1.164853	-0.724305	-0.451395
C42	C	1.117509	-0.697054	-0.403992
C43	C	1.070187	-0.724402	-0.356605
C44	C	0.975528	-0.779097	-0.261831
C45	C	0.975507	-0.724490	-0.261824
C46	C	1.022834	-0.697142	-0.309214
C47	C	1.022822	-0.642550	-0.309186
N48	N	1.070140	-0.615199	-0.356578
C49	C	1.117484	-0.642450	-0.403981
C50	C	1.022961	-0.975626	-0.309269
C51	C	1.022989	-1.030228	-0.309276
C52	C	1.117656	-1.030128	-0.404074
C53	C	1.117631	-0.975525	-0.404063
C54	C	1.070279	-0.948274	-0.356661
C55	C	1.117437	-0.527785	-0.403943
C56	C	1.117414	-0.473180	-0.403920
C57	C	1.022744	-0.473285	-0.309125
C58	C	1.022770	-0.527885	-0.309145
C59	C	1.070119	-0.555134	-0.356560
O60	O	0.982594	-0.614310	-0.268876
O61	O	1.157717	-0.614165	-0.444290
C62	C	1.263314	-0.251993	-0.356566
C63	C	1.345628	-0.252002	-0.356561
C64	C	1.070194	-0.251958	-0.549738
C65	C	1.070213	-0.251953	-0.632052
C66	C	1.070277	-0.115599	-0.356650
C67	C	1.070330	-0.057485	-0.356682
C68	C	1.070256	-0.251855	-0.931143
C69	C	1.012789	-0.292127	-0.899799
C70	C	1.012944	-0.292314	-0.814180
C71	C	1.070234	-0.251903	-0.782760
C72	C	1.148259	-0.266864	-0.813843
C73	C	1.147938	-0.267128	-0.899488
C74	C	1.050377	-0.196533	-0.899585
C75	C	1.048641	-0.196852	-0.813934
C76	C	1.070226	-0.251930	-0.698901
C77	C	1.070269	-0.251829	-1.015002
C78	C	1.070152	-0.251947	-0.164165
C79	C	1.070277	-0.251805	-0.081851
H80	H	0.635132	-0.184827	-0.434628
H81	H	0.936945	-0.702305	-0.223225
N82	N	1.213217	-0.696386	-0.499798
N83	N	1.281553	-0.702469	-0.494926
H84	H	1.315718	-0.682759	-0.529113
N85	N	0.638983	-0.318012	-0.258378
N86	N	0.593528	-0.353703	-0.246145
H87	H	0.611507	-0.389603	-0.231866
H88	H	1.164791	-0.307569	-0.919458
N89	N	0.502962	-0.182281	-0.450242
N90	N	0.435298	-0.179778	-0.463544
H91	H	0.417601	-0.169281	-0.514329
H92	H	0.984200	-0.451088	-0.270528
H93	H	0.634273	-0.333292	-0.400363
N94	N	1.203483	-0.231945	-0.925519
N95	N	1.213146	-0.225876	-0.993358
H96	H	1.252378	-0.201031	-1.011741
N97	N	0.974605	-0.947790	-0.260832
N98	N	1.000672	-0.917329	-0.213651
H99	H	0.966520	-0.897671	-0.179443
N100	N	0.974455	-0.555816	-0.260702
N101	N	0.932206	-0.531475	-0.218363
H102	H	0.898087	-0.551198	-0.184144
N103	N	0.501783	-0.343976	-0.396916
N104	N	0.459947	-0.351284	-0.342945
H105	H	0.441661	-0.387581	-0.331231
H106	H	1.087443	-0.165254	-0.792547
H107	H	0.506268	-0.305437	-0.258780
N108	N	1.213254	-0.806736	-0.499822
N109	N	1.260482	-0.837182	-0.473805
H110	H	1.294660	-0.856834	-0.507994
H111	H	1.192226	-0.238453	-0.793492
N112	N	1.165772	-0.445242	-0.452315
N113	N	1.212971	-0.414767	-0.426275
H114	H	1.247128	-0.395038	-0.460449
H115	H	0.507301	-0.165815	-0.338775
N116	N	0.638995	-0.280851	-0.486620
N117	N	0.593689	-0.272816	-0.537468
H118	H	0.611849	-0.264619	-0.588943
N119	N	1.165980	-0.947599	-0.452474
N120	N	1.208249	-0.971944	-0.494788
H121	H	1.242398	-0.952225	-0.528981
H122	H	0.634032	-0.165835	-0.337763
N123	N	0.927178	-0.807032	-0.213437
N124	N	0.927190	-0.855785	-0.213448
H125	H	0.893038	-0.875514	-0.179269
N126	N	0.940359	-0.280566	-0.787822
N127	N	0.889232	-0.272173	-0.832681
H128	H	0.837965	-0.263879	-0.814070
N129	N	1.169777	-0.317053	-0.786922
N130	N	1.175888	-0.324697	-0.718993
H131	H	1.191084	-0.360144	-0.699980
H132	H	0.994470	-0.182904	-0.921188
N133	N	0.939988	-0.280496	-0.925642
N134	N	0.929604	-0.242392	-0.967466
H135	H	0.878187	-0.234177	-0.985724
H136	H	1.155988	-0.549965	-0.442558
N137	N	1.166016	-1.057979	-0.452489
N138	N	1.166026	-1.106731	-0.452487
H139	H	1.200179	-1.126403	-0.486676
N140	N	0.976618	-0.182675	-0.788451
N141	N	0.926066	-0.174085	-0.833883
H142	H	0.875202	-0.164067	-0.815879
N143	N	0.500677	-0.281121	-0.485960
N144	N	0.458475	-0.243182	-0.495852
H145	H	0.439416	-0.235084	-0.547022
H146	H	1.092233	-0.166528	-0.919857
N147	N	0.502468	-0.228885	-0.224944
N148	N	0.521420	-0.233066	-0.158807
H149	H	0.503467	-0.206875	-0.121218
N150	N	0.974654	-1.058153	-0.260850
N151	N	0.932392	-1.033808	-0.218528
H152	H	0.898252	-1.053527	-0.184327
N153	N	1.029089	-0.343252	-0.926796
N154	N	1.082846	-0.350157	-0.969020
H155	H	1.094360	-0.386264	-0.988089
H156	H	0.634934	-0.239754	-0.233895
H157	H	1.026068	-0.333320	-0.793685
