data_functionalizedCrystal
_audit_creation_method	'MofGen! by Chris Wilmer'
_symmetry_space_group_name_H-M	'P1'
_symmetry_Int_Tables_number	1
_symmetry_cell_setting	triclinic
loop_
_symmetry_equiv_pos_as_xyz
  x,y,z
_cell_length_a	19.077212
_cell_length_b	29.839131
_cell_length_c	19.076919
_cell_angle_alpha	87.732541
_cell_angle_beta	90.114942
_cell_angle_gamma	92.333380
loop_
_atom_site_label
_atom_site_type_symbol
_atom_site_fract_x
_atom_site_fract_y
_atom_site_fract_z
Zn1	Zn	1.058217	-0.163090	0.440566
Zn2	Zn	1.062824	-0.235086	0.323051
Zn3	Zn	0.945433	-0.162853	0.318341
Zn4	Zn	0.940641	-0.241079	0.435784
O5	O	1.001779	-0.200527	0.379436
O6	O	1.157163	-0.170232	0.428950
O7	O	1.051186	-0.222898	0.224096
O8	O	0.960472	-0.100016	0.334585
O9	O	1.160548	-0.223127	0.342612
O10	O	1.043334	-0.100190	0.424383
O11	O	0.964939	-0.169828	0.220636
O12	O	0.846462	-0.175639	0.329948
O13	O	0.952304	-0.233340	0.534748
O14	O	0.842941	-0.233111	0.416232
O15	O	1.038687	-0.176042	0.538262
O16	O	1.046539	-0.298750	0.337975
O17	O	0.956771	-0.303152	0.420799
C18	C	0.819205	-0.205000	0.372061
C19	C	0.741098	-0.206925	0.368922
C20	C	0.301628	-0.220711	0.346446
C21	C	0.375018	-0.218900	0.349389
C22	C	0.409950	-0.190504	0.395886
C23	C	0.371488	-0.163913	0.439436
C24	C	0.298100	-0.165722	0.436489
C25	C	0.629248	-0.182143	0.409525
C26	C	0.702642	-0.180337	0.412471
C27	C	0.706167	-0.235324	0.322423
C28	C	0.632777	-0.237132	0.319483
C29	C	0.594321	-0.210540	0.363030
N30	N	0.484966	-0.188653	0.398897
N31	N	0.519307	-0.212389	0.360015
C32	C	1.001653	-0.317252	0.379396
C33	C	1.001663	-0.367186	0.379405
C34	C	1.048600	-0.674522	0.336378
C35	C	1.048686	-0.862194	0.336409
O36	O	1.088493	-0.884498	0.299795
N37	N	1.001922	-0.887967	0.379494
C38	C	0.955138	-0.866820	0.422579
O39	O	0.915369	-0.893048	0.459232
C40	C	0.955056	-0.679149	0.422551
C41	C	1.001817	-0.653378	0.379458
C42	C	1.095358	-0.648751	0.293288
C43	C	1.095334	-0.601836	0.293278
C44	C	1.048551	-0.580692	0.336358
C45	C	1.001793	-0.606463	0.379447
C46	C	0.908275	-0.658002	0.465639
C47	C	0.908260	-0.611081	0.465629
C48	C	0.955021	-0.585310	0.422536
C49	C	0.954986	-0.538403	0.422517
N50	N	1.001749	-0.512630	0.379431
C51	C	1.048531	-0.533774	0.336352
C52	C	0.955183	-0.965349	0.422589
C53	C	0.955202	-1.012267	0.422595
C54	C	1.048751	-1.007638	0.336426
C55	C	1.048728	-0.960719	0.336417
C56	C	1.001946	-0.939576	0.379504
C57	C	1.048476	-0.435250	0.336333
C58	C	1.048446	-0.388331	0.336325
C59	C	0.954899	-0.392964	0.422497
C60	C	0.954927	-0.439879	0.422503
C61	C	1.001721	-0.461020	0.379419
O62	O	0.915204	-0.516069	0.459117
O63	O	1.088304	-0.507539	0.299716
C64	C	1.048624	-0.721437	0.336388
C65	C	1.001866	-0.747208	0.379478
C66	C	0.955084	-0.726064	0.422557
C67	C	1.001886	-0.794126	0.379484
C68	C	1.048668	-0.815270	0.336404
C69	C	1.095431	-0.789497	0.293319
C70	C	1.095407	-0.742581	0.293308
C71	C	0.908320	-0.751837	0.465643
C72	C	0.908348	-0.798752	0.465649
C73	C	0.955131	-0.819896	0.422569
C74	C	1.185066	-0.196037	0.386840
C75	C	1.263172	-0.194124	0.389995
C76	C	0.994447	-0.205386	0.562714
C77	C	0.991323	-0.207457	0.640816
C78	C	1.001923	-0.083346	0.379492
C79	C	1.001985	-0.033411	0.379516
C80	C	1.009123	-0.195654	0.196872
C81	C	1.012383	-0.193453	0.118775
C82	C	1.034827	-0.178599	0.679339
C83	C	1.031883	-0.180543	0.752724
C84	C	0.985437	-0.211347	0.787585
C85	C	0.941927	-0.240206	0.749057
C86	C	0.944869	-0.238260	0.675673
C87	C	0.971815	-0.220366	1.006863
C88	C	0.968878	-0.222311	1.080252
C89	C	1.058833	-0.162647	1.083915
C90	C	1.061773	-0.160705	1.010529
C91	C	1.018261	-0.189562	0.972007
N92	N	0.982428	-0.213336	0.862597
N93	N	1.021267	-0.187571	0.896997
H94	H	1.086524	-0.367349	0.301230
C95	C	0.586957	-0.152894	0.457435
N96	N	0.555100	-0.130863	0.493524
C97	C	1.099948	-0.458498	0.288935
N98	N	1.138713	-0.476009	0.253230
H99	H	0.737485	-0.256973	0.286968
C100	C	1.146892	-0.812764	0.245930
N101	N	1.185652	-0.830292	0.210242
C102	C	1.100171	-0.932376	0.289013
N103	N	1.138921	-0.911029	0.253308
C104	C	0.917780	-0.256199	1.118598
N105	N	0.879294	-0.281721	1.147480
H106	H	1.067311	-0.157045	0.784087
H107	H	0.731081	-0.157210	0.450333
H108	H	0.916807	-0.375741	0.457570
H109	H	1.133413	-0.580856	0.258190
C110	C	1.106685	-0.130900	1.126294
N111	N	1.142725	-0.106985	1.158214
H112	H	1.072651	-0.153516	0.650961
H113	H	0.870263	-0.819731	0.500740
C114	C	0.856871	-0.728585	0.513056
N115	N	0.818121	-0.711074	0.548776
H116	H	0.399935	-0.140790	0.477292
H117	H	1.133485	-0.721602	0.258218
C118	C	1.100216	-1.030905	0.289042
N119	N	1.138982	-1.048432	0.253359
C120	C	1.112861	-0.126813	0.972187
N121	N	1.151340	-0.101285	0.943308
H122	H	0.266789	-0.144070	0.471949
C123	C	1.146824	-0.672002	0.245889
N124	N	1.185586	-0.689511	0.210180
C125	C	0.856795	-0.587827	0.513030
N126	N	0.818030	-0.570313	0.548731
H127	H	0.936394	-0.243870	0.975508
H128	H	0.917086	-0.948138	0.457677
C129	C	0.890829	-0.274088	0.787407
N130	N	0.852341	-0.299607	0.816291
C131	C	0.903485	-0.468228	0.469905
N132	N	0.864743	-0.489577	0.505615
C133	C	0.897011	-0.270007	0.633298
N134	N	0.860962	-0.293919	0.601382
H135	H	0.870194	-0.678977	0.500727
C136	C	0.263210	-0.251949	0.295295
N137	N	0.234276	-0.275477	0.256764
C138	C	0.594358	-0.268364	0.268323
N139	N	0.565421	-0.291887	0.229788
C140	C	0.417317	-0.248149	0.301482
N141	N	0.449176	-0.270180	0.265396
H142	H	0.917118	-1.033246	0.457680
