data_functionalizedCrystal
_audit_creation_method	'MofGen! by Chris Wilmer'
_symmetry_space_group_name_H-M	'P1'
_symmetry_Int_Tables_number	1
_symmetry_cell_setting	triclinic
loop_
_symmetry_equiv_pos_as_xyz
  x,y,z
_cell_length_a	23.532361
_cell_length_b	22.010155
_cell_length_c	17.699083
_cell_angle_alpha	90.003354
_cell_angle_beta	96.943659
_cell_angle_gamma	90.004127
loop_
_atom_site_label
_atom_site_type_symbol
_atom_site_fract_x
_atom_site_fract_y
_atom_site_fract_z
O1	O	0.755544	0.050465	-0.091699
O2	O	0.589716	0.050480	-0.105030
O3	O	0.677315	0.050467	0.011850
O4	O	0.667945	0.050479	-0.208578
O5	O	0.677299	-0.050583	0.011832
O6	O	0.589700	-0.050570	-0.105047
O7	O	0.755528	-0.050585	-0.091717
Cu8	Cu	0.672613	-0.059804	-0.098384
Cu9	Cu	0.672631	0.059700	-0.098363
O10	O	0.667929	-0.050572	-0.208596
C11	C	0.568490	-0.000043	-0.104705
C12	C	0.505269	-0.000038	-0.103701
N13	N	0.672604	-0.143857	-0.098398
C14	C	0.232021	0.055041	-0.099301
C15	C	0.291424	0.055043	-0.100251
O16	O	0.322158	0.101887	-0.100708
N17	N	0.321122	-0.000040	-0.100741
C18	C	0.291415	-0.055128	-0.100273
O19	O	0.322131	-0.101980	-0.100775
C20	C	0.232015	-0.055129	-0.099317
C21	C	0.202319	-0.000043	-0.098835
C22	C	0.202325	0.110123	-0.098819
C23	C	0.142926	0.110121	-0.097870
C24	C	0.113224	0.055037	-0.097404
C25	C	0.142920	-0.000044	-0.097887
C26	C	0.202310	-0.110216	-0.098843
C27	C	0.142905	-0.110212	-0.097887
C28	C	0.113209	-0.055126	-0.097405
C29	C	0.053819	-0.055130	-0.096472
N30	N	0.024121	-0.000047	-0.095982
C31	C	0.053823	0.055037	-0.096448
C32	C	0.416161	-0.055122	-0.102278
C33	C	0.475561	-0.055122	-0.103239
C34	C	0.475565	0.055049	-0.103216
C35	C	0.416164	0.055048	-0.102261
C36	C	0.386463	-0.000039	-0.101788
C37	C	-0.070918	0.055029	-0.094457
C38	C	-0.130322	0.055022	-0.093511
C39	C	-0.130321	-0.055148	-0.093530
C40	C	-0.070922	-0.055142	-0.094480
C41	C	-0.041222	-0.000049	-0.094940
O42	O	0.023047	-0.101950	-0.096011
O43	O	0.023101	0.101881	-0.095935
C44	C	0.711423	-0.563642	-0.046616
C45	C	0.711425	-0.627249	-0.046611
O46	O	0.744408	-0.660146	-0.002594
N47	N	0.672631	-0.659064	-0.098347
C48	C	0.633828	-0.627267	-0.150087
O49	O	0.600830	-0.660168	-0.194091
C50	C	0.633823	-0.563661	-0.150088
C51	C	0.672624	-0.531850	-0.098353
C52	C	0.750220	-0.531831	0.005115
C53	C	0.750218	-0.468228	0.005109
C54	C	0.711419	-0.436435	-0.046629
C55	C	0.672621	-0.468247	-0.098360
C56	C	0.595017	-0.531865	-0.201823
C57	C	0.595015	-0.468255	-0.201819
C58	C	0.633816	-0.436444	-0.150085
C59	C	0.633820	-0.372851	-0.150103
N60	N	0.672614	-0.341037	-0.098367
C61	C	0.711414	-0.372829	-0.046630
C62	C	0.633840	-0.760845	-0.150080
C63	C	0.633848	-0.824450	-0.150083
C64	C	0.711445	-0.824428	-0.046606
C65	C	0.711440	-0.760822	-0.046607
C66	C	0.672635	-0.729031	-0.098343
C67	C	0.711407	-0.239258	-0.046647
C68	C	0.711403	-0.175649	-0.046660
C69	C	0.633804	-0.175676	-0.150134
C70	C	0.633810	-0.239280	-0.150124
C71	C	0.672613	-0.271069	-0.098375
O72	O	0.600853	-0.339914	-0.194095
O73	O	0.744401	-0.339920	-0.002626
C74	C	0.776754	-0.000060	-0.092042
C75	C	0.839975	-0.000062	-0.093045
C76	C	0.676971	-0.000058	0.040036
C77	C	0.675964	-0.000058	0.124049
N78	N	0.672645	0.143752	-0.098343
C79	C	0.668273	-0.000045	-0.236782
C80	C	0.669280	-0.000041	-0.320795
C81	C	0.727383	-0.000064	0.172942
C82	C	0.726433	-0.000058	0.251880
C83	C	0.674064	-0.000052	0.281924
C84	C	0.622641	-0.000044	0.233024
C85	C	0.623591	-0.000046	0.154088
C86	C	0.618807	-0.000039	0.551367
C87	C	0.617860	-0.000040	0.630310
C88	C	0.721649	-0.000052	0.649160
C89	C	0.722599	-0.000053	0.570223
C90	C	0.671177	-0.000043	0.521331
C91	C	0.672207	-0.000047	0.435737
C92	C	0.673033	-0.000051	0.367516
H93	H	-0.154498	0.099882	-0.093121
H94	H	-0.046743	0.099891	-0.094833
N95	N	0.232651	0.166400	-0.099289
N96	N	0.206119	0.215571	-0.098856
H97	H	0.227532	0.255321	-0.099192
H98	H	0.499759	0.099901	-0.103595
H99	H	0.768304	-0.000064	0.291687
H100	H	0.602216	-0.149781	-0.192261
H101	H	0.781811	-0.442331	0.047237
N102	N	0.776098	-0.000065	0.539548
N103	N	0.822006	-0.000070	0.583212
H104	H	0.859791	-0.000077	0.561550
H105	H	0.118754	0.154978	-0.097474
H106	H	0.391982	-0.099984	-0.101903
H107	H	0.499733	-0.099979	-0.103643
H108	H	0.602242	-0.734964	-0.192216
H109	H	0.770028	-0.000073	0.148487
N110	N	0.232626	-0.166492	-0.099325
N111	N	0.206089	-0.215664	-0.098895
H112	H	0.227499	-0.255413	-0.099230
N113	N	0.751063	-0.856919	0.006255
N114	N	0.751047	-0.913710	0.006255
H115	H	0.779022	-0.936659	0.043591
N116	N	-0.040571	-0.111400	-0.094992
N117	N	-0.012747	-0.123675	-0.148882
H118	H	0.008689	-0.163406	-0.149240
H119	H	0.581720	-0.000041	0.114279
N120	N	0.112577	-0.166490	-0.097399
N121	N	0.139103	-0.215665	-0.097828
H122	H	0.117685	-0.255412	-0.097485
N123	N	-0.160669	-0.111412	-0.093066
N124	N	-0.199146	-0.123700	-0.145893
H125	H	-0.220581	-0.163437	-0.145561
N126	N	0.385842	0.111322	-0.101769
N127	N	0.412376	0.160497	-0.102190
H128	H	0.390964	0.200244	-0.101841
N129	N	0.774173	-0.000063	0.699115
N130	N	0.773321	-0.000062	0.769593
H131	H	0.810414	-0.000072	0.804873
H132	H	0.563422	-0.557757	-0.243950
N133	N	0.555370	-0.435791	-0.254671
N134	N	0.520732	-0.464207	-0.300854
H135	H	0.492733	-0.441281	-0.338182
N136	N	0.569141	-0.000049	0.263698
N137	N	0.523235	-0.000049	0.220031
H138	H	0.485449	-0.000056	0.241692
H139	H	0.743001	-0.149750	-0.004532
N140	N	0.751045	-0.271714	0.006221
N141	N	0.785679	-0.243293	0.052402
H142	H	0.813675	-0.266215	0.089738
H143	H	0.602220	-0.265181	-0.192259
N144	N	0.789857	-0.564290	0.057977
N145	N	0.824489	-0.535867	0.104158
H146	H	0.852489	-0.558787	0.141493
N147	N	0.751040	-0.728322	0.006273
N148	N	0.750325	-0.735431	0.076219
H149	H	0.778282	-0.712475	0.113578
N150	N	0.594218	-0.856931	-0.202945
N151	N	0.559583	-0.828530	-0.249135
H152	H	0.531591	-0.851467	-0.286469
N153	N	0.564358	-0.000037	0.660987
N154	N	0.518449	-0.000029	0.617326
H155	H	0.480665	-0.000028	0.638991
H156	H	0.576935	-0.000031	0.511568
