data_functionalizedCrystal
_audit_creation_method	'MofGen! by Chris Wilmer'
_symmetry_space_group_name_H-M	'P1'
_symmetry_Int_Tables_number	1
_symmetry_cell_setting	triclinic
loop_
_symmetry_equiv_pos_as_xyz
  x,y,z
_cell_length_a	13.635800
_cell_length_b	10.992421
_cell_length_c	19.551833
_cell_angle_alpha	85.521057
_cell_angle_beta	101.663477
_cell_angle_gamma	71.235237
loop_
_atom_site_label
_atom_site_type_symbol
_atom_site_fract_x
_atom_site_fract_y
_atom_site_fract_z
V1	V	2.016744	-0.179108	0.217848
O2	O	1.996575	0.007221	0.213711
O3	O	2.005811	-0.353807	0.216349
O4	O	1.987928	-0.176961	0.312864
O5	O	2.014582	-0.170850	0.116528
V6	V	2.257437	-0.156749	0.205731
O7	O	2.149717	-0.228154	0.244429
O8	O	2.349562	-0.107703	0.179150
O9	O	2.156766	0.017951	0.207230
O10	O	2.336305	-0.343077	0.209868
O11	O	2.318298	-0.165006	0.307051
O12	O	2.174650	-0.158896	0.110715
V13	V	2.516744	-0.179108	0.217848
O14	O	2.496575	0.007221	0.213711
O15	O	2.505811	-0.353807	0.216349
O16	O	2.487928	-0.176961	0.312864
O17	O	2.514582	-0.170850	0.116528
V18	V	2.757437	-0.156749	0.205731
O19	O	2.649717	-0.228154	0.244429
O20	O	2.849562	-0.107703	0.179150
O21	O	2.656766	0.017951	0.207230
O22	O	2.836305	-0.343077	0.209868
O23	O	2.818298	-0.165006	0.307051
O24	O	2.674650	-0.158896	0.110715
C25	C	1.931689	-0.396376	0.212909
C26	C	1.963363	-0.539199	0.212317
C27	C	1.898080	-0.734457	0.207539
C28	C	1.864976	-0.585815	0.207878
C29	C	2.010745	-0.577432	0.147156
C30	C	2.042991	-0.725971	0.146466
C31	C	2.083984	-0.765378	0.280042
C32	C	2.049195	-0.616874	0.281455
C33	C	1.908876	-0.170789	0.336023
C34	C	1.926046	-0.170190	0.413699
C35	C	2.062561	0.060513	0.210667
C36	C	2.020506	0.203335	0.211265
C37	C	2.085373	-0.165071	0.087552
C38	C	2.057822	-0.165664	0.009876
C39	C	2.431689	-0.396376	0.212909
C40	C	2.463363	-0.539199	0.212317
C41	C	2.408876	-0.170789	0.336023
C42	C	2.426046	-0.170190	0.413699
C43	C	2.025488	-0.176357	0.453746
C44	C	2.041621	-0.175794	0.526730
C45	C	1.958312	-0.169090	0.559667
C46	C	1.858853	-0.162914	0.519610
C47	C	1.842720	-0.163464	0.446626
C48	C	1.932216	-0.238948	0.678975
C49	C	1.948354	-0.238406	0.751959
C50	C	2.008066	-0.167387	0.784774
C51	C	2.051658	-0.096927	0.744599
C52	C	2.035525	-0.097478	0.671614
C53	C	1.975795	-0.168492	0.638806
C54	C	2.125007	-0.172942	0.903959
C55	C	2.141135	-0.172371	0.976944
C56	C	1.958367	-0.159503	0.969824
C57	C	1.942239	-0.160062	0.896839
C58	C	2.025565	-0.166788	0.863912
C59	C	2.562561	0.060513	0.210667
C60	C	2.520506	0.203335	0.211265
C61	C	2.585373	-0.165071	0.087552
C62	C	2.557822	-0.165664	0.009876
C63	C	2.525493	-0.176336	0.453737
C64	C	2.541635	-0.175756	0.526721
C65	C	2.458331	-0.169039	0.559665
C66	C	2.358875	-0.162888	0.519621
C67	C	2.342732	-0.163459	0.446638
C68	C	2.458894	-0.172367	-0.023051
C69	C	2.432988	-0.172908	-0.096037
C70	C	2.506016	-0.166757	-0.136094
C71	C	2.604952	-0.160050	-0.103163
C72	C	2.630853	-0.159499	-0.030179
C73	C	2.398080	-0.734457	0.207539
C74	C	2.364976	-0.585815	0.207878
C75	C	2.510745	-0.577432	0.147156
C76	C	2.542991	-0.725971	0.146466
C77	C	2.583984	-0.765378	0.280042
C78	C	2.549195	-0.616874	0.281455
H79	H	1.827784	-0.560338	0.254438
N80	N	2.148889	-0.182465	0.569935
H81	H	2.146464	-0.181099	0.621167
H82	H	2.166568	-0.105319	0.551958
H83	H	1.876592	-0.781163	0.253809
N84	N	1.901343	-0.314397	0.795290
H85	H	1.930763	-0.409559	0.790943
H86	H	1.821142	-0.281162	0.777427
N87	N	2.107002	-0.537370	0.148139
H88	H	2.136142	-0.562892	0.105782
H89	H	2.163628	-0.582323	0.192899
H90	H	2.664403	-0.155038	-0.135789
N91	N	1.867811	-0.315558	0.643590
H92	H	1.913636	-0.383077	0.620221
H93	H	1.804001	-0.254713	0.606758
H94	H	2.192855	-0.178414	0.877148
H95	H	2.497180	-0.743165	0.094730
N96	N	2.202260	-0.819847	0.284566
H97	H	2.214714	-0.864580	0.242298
H98	H	2.239108	-0.884580	0.329341
N99	N	2.430202	-0.505182	0.079353
H100	H	2.461433	-0.530441	0.037730
H101	H	2.411672	-0.408482	0.079171
H102	H	2.622625	-0.180770	0.559315
H103	H	1.799837	-0.533066	0.158237
N104	N	1.834982	-0.153412	0.853640
H105	H	1.784650	-0.149078	0.885577
H106	H	1.843722	-0.233417	0.829980
H107	H	2.711413	-0.154048	-0.003376
N108	N	1.768993	-0.155674	0.555129
H109	H	1.794303	-0.156264	0.607442
H110	H	1.745683	-0.233016	0.547594
H111	H	2.291055	-0.157420	0.546456
N112	N	1.735458	-0.156807	0.403427
H113	H	1.685124	-0.152468	0.435363
H114	H	1.744200	-0.236815	0.379770
N115	N	2.475741	-0.168382	0.638379
H116	H	2.551382	-0.173285	0.658739
H117	H	2.463120	-0.245765	0.661312
H118	H	2.352426	-0.178369	-0.122838
N119	N	2.115354	-0.183600	0.418230
H120	H	2.180799	-0.187418	0.454679
H121	H	2.093222	-0.104046	0.381328
N122	N	2.333562	-0.761266	0.141835
H123	H	2.285425	-0.676233	0.111336
H124	H	2.288809	-0.812029	0.155732
N125	N	2.478071	-0.167346	-0.214813
H126	H	2.404316	-0.172528	-0.229587
H127	H	2.531680	-0.245013	-0.226961
N128	N	2.380118	-0.178986	0.020148
H129	H	2.413048	-0.259100	0.057367
H130	H	2.313539	-0.183254	-0.011843
N131	N	2.315705	-0.552053	0.269547
H132	H	2.315343	-0.633819	0.296755
H133	H	2.240073	-0.489473	0.251447
H134	H	2.376592	-0.781163	0.253809
H135	H	2.571676	-0.815200	0.329347
N136	N	2.116040	-0.020294	0.779979
H137	H	2.141199	0.024261	0.743454
H138	H	2.179805	-0.081106	0.816856
N139	N	2.235467	-0.156849	0.403466
H140	H	2.244116	-0.236859	0.379815
H141	H	2.205315	-0.076696	0.366277
H142	H	2.071018	-0.040105	0.638906
H143	H	2.299837	-0.533066	0.158237
N144	N	1.982316	-0.748760	0.077938
H145	H	1.935280	-0.662399	0.048324
H146	H	1.936679	-0.800862	0.088436
H147	H	2.222112	-0.177384	1.009549
H148	H	1.890531	-0.154033	0.996639
H149	H	2.593336	-0.181809	0.426924
N150	N	2.659719	-0.780138	0.146331
H151	H	2.690018	-0.707506	0.146716
H152	H	2.667657	-0.821573	0.102508
N153	N	2.607014	-0.537394	0.148144
H154	H	2.620871	-0.493982	0.190943
H155	H	2.593254	-0.474606	0.103823
H156	H	2.515759	-0.593275	0.329664
N157	N	2.646614	-0.576928	0.291103
H158	H	2.636447	-0.507609	0.250609
H159	H	2.711395	-0.654990	0.292069
N160	N	2.702260	-0.819847	0.284566
H161	H	2.714714	-0.864580	0.242298
H162	H	2.739108	-0.884580	0.329341
N163	N	1.930207	-0.505185	0.079351
H164	H	1.960869	-0.449857	0.052623
H165	H	1.863025	-0.447727	0.090746
H166	H	2.131116	-0.766853	0.146363
N167	N	1.833557	-0.761265	0.141837
H168	H	1.883285	-0.813533	0.114476
H169	H	1.785427	-0.676178	0.111393
H170	H	2.015759	-0.593275	0.329664
N171	N	2.067693	-0.831364	0.345358
H172	H	2.093744	-0.928594	0.346073
H173	H	1.989291	-0.799629	0.344858
N174	N	2.146614	-0.576928	0.291103
H175	H	2.136447	-0.507609	0.250609
H176	H	2.211395	-0.654990	0.292069
