data_functionalizedCrystal
_audit_creation_method	'MofGen! by Chris Wilmer'
_symmetry_space_group_name_H-M	'P1'
_symmetry_Int_Tables_number	1
_symmetry_cell_setting	triclinic
loop_
_symmetry_equiv_pos_as_xyz
  x,y,z
_cell_length_a	15.944545
_cell_length_b	23.532357
_cell_length_c	14.421503
_cell_angle_alpha	89.998741
_cell_angle_beta	89.995153
_cell_angle_gamma	83.162232
loop_
_atom_site_label
_atom_site_type_symbol
_atom_site_fract_x
_atom_site_fract_y
_atom_site_fract_z
O1	O	1.113894	0.073427	-0.077063
O2	O	1.613894	0.573427	0.422937
O3	O	0.869265	0.082486	-0.077080
O4	O	1.369265	0.582486	0.422920
O5	O	0.998979	-0.004949	-0.077052
O6	O	1.498979	0.495051	0.422948
O7	O	0.984181	0.160862	-0.077091
O8	O	1.484181	0.660862	0.422909
O9	O	0.998957	-0.004936	0.077172
O10	O	1.498957	0.495064	0.577172
O11	O	0.869244	0.082499	0.077144
O12	O	1.369244	0.582499	0.577144
O13	O	1.113873	0.073440	0.077160
O14	O	1.613873	0.573440	0.577160
Cu15	Cu	0.991556	0.077971	0.091234
Cu16	Cu	1.491556	0.577971	0.591234
Cu17	Cu	0.991582	0.077955	-0.091153
Cu18	Cu	1.491582	0.577955	0.408847
O19	O	0.984160	0.160875	0.077132
O20	O	1.484160	0.660875	0.577132
C21	C	0.837964	0.082117	0.000030
C22	C	1.337964	0.582117	0.500030
C23	C	0.744727	0.080992	0.000025
C24	C	1.244727	0.580992	0.500025
C25	C	0.474595	0.023432	0.000048
C26	C	0.974595	0.523432	0.500048
C27	C	0.524925	0.051189	0.076084
C28	C	1.024925	0.551189	0.576084
C29	C	0.409118	0.076977	0.000042
C30	C	0.909118	0.576977	0.500042
C31	C	0.524926	0.051190	-0.075968
C32	C	1.024926	0.551190	0.424032
C33	C	0.574015	0.078947	0.000032
C34	C	1.074015	0.578947	0.500032
C35	C	0.458220	0.104720	0.076140
C36	C	0.958220	0.604720	0.576140
C37	C	0.458218	0.104714	-0.075980
C38	C	0.958218	0.604714	0.424020
C39	C	0.508515	0.132510	0.000074
C40	C	1.008515	0.632510	0.500074
C41	C	0.314126	0.075841	0.000048
C42	C	0.814126	0.575841	0.500048
C43	C	0.669004	0.080087	0.000032
C44	C	1.169004	0.580087	0.500032
C45	C	0.998598	-0.026160	0.000063
C46	C	1.498598	0.473840	0.500063
C47	C	0.997485	-0.089383	0.000071
C48	C	1.497485	0.410617	0.500071
C49	C	0.990511	-0.481428	-0.084046
C50	C	1.490511	0.018572	0.415954
C51	C	0.989453	-0.540832	-0.084052
C52	C	1.489453	-0.040832	0.415948
O53	O	0.988887	-0.571557	-0.155548
O54	O	1.488887	-0.071557	0.344452
N55	N	0.988916	-0.570538	0.000014
N56	N	1.488916	-0.070538	0.500014
C57	C	0.989429	-0.540837	0.084091
C58	C	1.489429	-0.040837	0.584091
O59	O	0.988875	-0.571559	0.155595
O60	O	1.488875	-0.071559	0.655595
C61	C	0.990481	-0.481434	0.084096
C62	C	1.490481	0.018566	0.584096
C63	C	0.991026	-0.451732	0.000024
C64	C	1.491026	0.048268	0.500024
C65	C	0.991054	-0.451726	-0.168111
C66	C	1.491054	0.048274	0.331889
C67	C	0.992114	-0.392327	-0.168105
C68	C	1.492114	0.107673	0.331895
C69	C	0.992629	-0.362630	-0.084035
C70	C	1.492629	0.137370	0.415965
C71	C	0.992085	-0.392332	0.000030
C72	C	1.492085	0.107668	0.500030
C73	C	0.990988	-0.451733	0.168171
C74	C	1.490988	0.048267	0.668171
C75	C	0.992039	-0.392326	0.168169
C76	C	1.492039	0.107674	0.668169
C77	C	0.992584	-0.362624	0.084097
C78	C	1.492584	0.137376	0.584097
C79	C	0.993660	-0.303236	0.084106
C80	C	1.493660	0.196764	0.584106
N81	N	0.994196	-0.273530	0.000040
N82	N	1.494196	0.226470	0.500040
C83	C	0.993681	-0.303227	-0.084031
C84	C	1.493681	0.196773	0.415969
C85	C	0.987219	-0.665587	0.084075
C86	C	1.487219	-0.165587	0.584075
C87	C	0.986173	-0.724989	0.084072
C88	C	1.486173	-0.224989	0.584072
C89	C	0.986195	-0.724980	-0.084071
C90	C	1.486195	-0.224980	0.415929
C91	C	0.987247	-0.665577	-0.084067
C92	C	1.487247	-0.165577	0.415933
C93	C	0.987755	-0.635881	0.000009
C94	C	1.487755	-0.135881	0.500009
C95	C	0.995906	-0.178484	-0.084012
C96	C	1.495906	0.321516	0.415988
C97	C	0.996969	-0.119080	-0.083999
C98	C	1.496969	0.380920	0.416001
C99	C	0.996943	-0.119094	0.084144
C100	C	1.496943	0.380906	0.584144
C101	C	0.995885	-0.178493	0.084131
C102	C	1.495885	0.321507	0.584131
C103	C	0.995364	-0.208187	0.000046
C104	C	1.495364	0.291813	0.500046
O105	O	0.994223	-0.272474	0.155565
O106	O	1.494223	0.227526	0.655565
O107	O	0.994224	-0.272497	-0.155523
O108	O	1.494224	0.227503	0.344477
C109	C	1.145174	0.073809	0.000048
C110	C	1.645174	0.573809	0.500048
C111	C	1.238411	0.074934	0.000048
C112	C	1.738411	0.574934	0.500048
C113	C	0.984541	0.182086	0.000016
C114	C	1.484541	0.682086	0.500016
C115	C	0.985653	0.245309	0.000001
C116	C	1.485653	0.745309	0.500001
N117	N	0.991545	0.077981	0.219515
N118	N	1.491545	0.577981	0.719515
N119	N	0.991600	0.077940	-0.219434
N120	N	1.491600	0.577940	0.280566
C121	C	0.931555	0.118393	0.469156
C122	C	1.431555	0.618393	0.969156
C123	C	1.007359	0.129448	0.530961
C124	C	1.507359	0.629448	1.030961
C125	C	0.991565	0.077968	0.408676
C126	C	1.491565	0.577968	0.908676
C127	C	0.915781	0.066925	0.530966
C128	C	1.415781	0.566925	1.030966
C129	C	0.991578	0.077956	0.591398
C130	C	1.491578	0.577956	1.091398
C131	C	1.067407	0.089049	0.469120
C132	C	1.567407	0.589049	0.969120
C133	C	0.975779	0.026503	0.469120
C134	C	1.475779	0.526503	0.969120
C135	C	1.051638	0.037537	0.530897
C136	C	1.551638	0.537537	1.030897
C137	C	0.991556	0.077976	0.303415
C138	C	1.491556	0.577976	0.803415
C139	C	0.991596	0.077947	0.696657
C140	C	1.491596	0.577947	1.196657
H141	H	0.429205	0.127322	0.140492
H142	H	0.929205	0.627322	0.640492
Br143	Br	0.985454	-0.765294	0.198174
Br144	Br	1.485454	-0.265294	0.698174
Br145	Br	0.987915	-0.625291	0.198190
Br146	Br	1.487915	-0.125291	0.698190
H147	H	0.459342	-0.022682	0.000133
H148	H	0.959342	0.477318	0.500133
Br149	Br	0.990246	-0.492028	0.282276
Br150	Br	1.490246	0.007972	0.782276
Br151	Br	0.987986	-0.625273	-0.198167
Br152	Br	1.487986	-0.125273	0.301833
Br153	Br	1.136320	-0.019455	0.575804
Br154	Br	1.636320	0.480545	1.075804
H155	H	0.992554	-0.368148	-0.236565
H156	H	1.492554	0.131852	0.263435
H157	H	0.962391	-0.017000	0.441935
H158	H	1.462391	0.483000	0.941935
Br159	Br	0.533666	0.209429	0.000121
Br160	Br	1.033666	0.709429	0.500121
H161	H	0.851685	0.057591	0.558134
H162	H	1.351685	0.557591	1.058134
H163	H	1.131516	0.098435	0.442068
H164	H	1.631516	0.598435	0.942068
H165	H	0.554043	0.028581	0.140377
H166	H	1.054043	0.528581	0.640377
Br167	Br	0.409656	0.142364	-0.183144
Br168	Br	0.909656	0.642364	0.316856
H169	H	0.992441	-0.368149	0.236635
H170	H	1.492441	0.131851	0.736635
H171	H	0.880857	0.152607	0.442047
H172	H	1.380857	0.652607	0.942047
Br173	Br	1.029638	0.201978	0.576234
Br174	Br	1.529638	0.701978	1.076234
H175	H	0.995449	-0.202679	0.152589
H176	H	1.495449	0.297321	0.652589
Br177	Br	0.997714	-0.078774	-0.198104
Br178	Br	1.497714	0.421226	0.301896
Br179	Br	0.573471	0.013477	-0.183101
Br180	Br	1.073471	0.513477	0.316899
H181	H	0.995478	-0.202653	-0.152483
H182	H	1.495478	0.297347	0.347517
Br183	Br	0.990354	-0.492018	-0.282222
Br184	Br	1.490354	0.007982	0.217778
H185	H	0.985773	-0.749170	-0.152526
H186	H	1.485773	-0.249170	0.347474
H187	H	0.997367	-0.094904	0.152592
H188	H	1.497367	0.405096	0.652592
