data_functionalizedCrystal
_audit_creation_method	'MofGen! by Chris Wilmer'
_symmetry_space_group_name_H-M	'P1'
_symmetry_Int_Tables_number	1
_symmetry_cell_setting	triclinic
loop_
_symmetry_equiv_pos_as_xyz
  x,y,z
_cell_length_a	16.992694
_cell_length_b	15.995292
_cell_length_c	16.053802
_cell_angle_alpha	92.568169
_cell_angle_beta	87.249047
_cell_angle_gamma	87.068419
loop_
_atom_site_label
_atom_site_type_symbol
_atom_site_fract_x
_atom_site_fract_y
_atom_site_fract_z
O1	O	1.043660	0.174247	-0.069315
O2	O	1.376993	0.507580	0.264019
O3	O	1.710326	0.840913	0.597352
O4	O	0.815376	0.172298	-0.069340
O5	O	1.148709	0.505631	0.263994
O6	O	1.482043	0.838964	0.597327
O7	O	0.935782	0.051800	-0.069328
O8	O	1.269115	0.385134	0.264006
O9	O	1.602449	0.718467	0.597339
O10	O	0.923254	0.294744	-0.069327
O11	O	1.256587	0.628077	0.264007
O12	O	1.589920	0.961411	0.597340
O13	O	0.929154	0.058404	0.069530
O14	O	1.262488	0.391737	0.402864
O15	O	1.595821	0.725070	0.736197
O16	O	0.808749	0.178901	0.069519
O17	O	1.142082	0.512234	0.402852
O18	O	1.475415	0.845568	0.736185
O19	O	1.037032	0.180850	0.069543
O20	O	1.370366	0.514183	0.402877
O21	O	1.703699	0.847517	0.736210
Zn22	Zn	0.921838	0.180924	0.091578
Zn23	Zn	1.255171	0.514257	0.424911
Zn24	Zn	1.588505	0.847591	0.758244
Zn25	Zn	0.930570	0.172224	-0.091374
Zn26	Zn	1.263903	0.505557	0.241959
Zn27	Zn	1.597237	0.838890	0.575293
O28	O	0.916626	0.301347	0.069532
O29	O	1.249960	0.634681	0.402865
O30	O	1.583293	0.968014	0.736198
C31	C	0.782850	0.173093	0.000086
C32	C	1.116184	0.506427	0.333420
C33	C	1.449517	0.839760	0.666753
C34	C	0.695808	0.165617	0.000077
C35	C	1.029141	0.498950	0.333410
C36	C	1.362475	0.832283	0.666743
C37	C	0.931958	0.023872	0.000099
C38	C	1.265292	0.357205	0.333433
C39	C	1.598625	0.690539	0.666766
C40	C	0.930430	-0.069183	0.000093
C41	C	1.263763	0.264150	0.333426
C42	C	1.597097	0.597483	0.666759
C43	C	0.645554	0.237753	0.000078
C44	C	0.978887	0.571086	0.333411
C45	C	1.312220	0.904420	0.666744
C46	C	0.563768	0.230724	0.000089
C47	C	0.897101	0.564057	0.333423
C48	C	1.230434	0.897390	0.666756
C49	C	0.532238	0.151557	0.000094
C50	C	0.865572	0.484890	0.333427
C51	C	1.198905	0.818224	0.666760
C52	C	0.582499	0.079415	0.000095
C53	C	0.915833	0.412749	0.333429
C54	C	1.249166	0.746082	0.666762
C55	C	0.664283	0.086446	0.000090
C56	C	0.997617	0.419779	0.333423
C57	C	1.330950	0.753112	0.666756
C58	C	0.288645	0.122419	0.000116
C59	C	0.621979	0.455753	0.333449
C60	C	0.955312	0.789086	0.666783
C61	C	0.206855	0.115394	0.000119
C62	C	0.540188	0.448728	0.333452
C63	C	0.873522	0.782061	0.666786
C64	C	0.188129	0.266703	0.000114
C65	C	0.521462	0.600037	0.333448
C66	C	0.854796	0.933370	0.666781
C67	C	0.269916	0.273726	0.000104
C68	C	0.603249	0.607060	0.333437
C69	C	0.936582	0.940393	0.666771
C70	C	0.320169	0.201585	0.000110
C71	C	0.653502	0.534918	0.333443
C72	C	0.986836	0.868252	0.666776
N73	N	0.448641	0.144370	0.000103
N74	N	0.781974	0.477703	0.333436
N75	N	1.115307	0.811037	0.666769
N76	N	0.403765	0.208773	0.000107
N77	N	0.737098	0.542106	0.333440
N78	N	1.070432	0.875440	0.666773
C79	C	0.924810	-0.407298	0.000100
C80	C	1.258143	-0.073964	0.333433
C81	C	1.591477	0.259369	0.666766
C82	C	1.011701	-0.378155	0.000419
C83	C	1.345034	-0.044821	0.333753
C84	C	1.678368	0.288512	0.667086
C85	C	1.013368	-0.281384	0.000104
C86	C	1.346701	0.051950	0.333437
C87	C	1.680034	0.385283	0.666770
C88	C	0.927599	-0.239555	0.000097
C89	C	1.260932	0.093778	0.333430
C90	C	1.594265	0.427111	0.666763
C91	C	0.887934	-0.275335	-0.079200
C92	C	1.221268	0.057999	0.254133
C93	C	1.554601	0.391332	0.587466
C94	C	0.886891	-0.372198	-0.079264
C95	C	1.220225	-0.038865	0.254070
C96	C	1.553558	0.294469	0.587403
C97	C	0.877580	-0.364665	0.078644
C98	C	1.210913	-0.031331	0.411977
C99	C	1.544247	0.302002	0.745311
C100	C	0.880751	-0.267907	0.079689
C101	C	1.214084	0.065426	0.413023
C102	C	1.547417	0.398760	0.746356
C103	C	0.929170	-0.144754	0.000092
C104	C	1.262504	0.188579	0.333426
C105	C	1.595837	0.521912	0.666759
C106	C	0.923236	-0.502099	0.000099
C107	C	1.256569	-0.168765	0.333432
C108	C	1.589903	0.164568	0.666765
C109	C	1.069558	0.180054	0.000116
C110	C	1.402891	0.513387	0.333449
C111	C	1.736225	0.846721	0.666782
C112	C	1.156601	0.187531	0.000120
C113	C	1.489934	0.520864	0.333453
C114	C	1.823267	0.854197	0.666787
C115	C	0.920450	0.329275	0.000103
C116	C	1.253783	0.662609	0.333436
C117	C	1.587117	0.995942	0.666770
C118	C	0.921979	0.422331	0.000104
C119	C	1.255312	0.755664	0.333437
C120	C	1.588645	1.088997	0.666770
N121	N	0.915885	0.186861	0.216438
N122	N	1.249218	0.520195	0.549771
N123	N	1.582551	0.853528	0.883104
N124	N	0.936530	0.166280	-0.216234
N125	N	1.269863	0.499613	0.117100
N126	N	1.603197	0.832947	0.450433
C127	C	0.967136	0.135610	0.260136
C128	C	1.300469	0.468944	0.593470
C129	C	1.633803	0.802277	0.926803
C130	C	0.962979	0.139772	0.347543
C131	C	1.296312	0.473105	0.680876
C132	C	1.629645	0.806439	1.014210
C133	C	0.907573	0.195190	0.391249
C134	C	1.240906	0.528523	0.724582
C135	C	1.574240	0.861856	1.057915
C136	C	0.856316	0.246443	0.347544
C137	C	1.189649	0.579776	0.680877
C138	C	1.522983	0.913110	1.014210
C139	C	0.860470	0.242276	0.260139
C140	C	1.193804	0.575610	0.593472
C141	C	1.527137	0.908943	0.926806
C142	C	0.889427	0.213366	0.652657
C143	C	1.222760	0.546700	0.985990
C144	C	1.556094	0.880033	1.319323
C145	C	0.885278	0.217531	0.740067
C146	C	1.218612	0.550864	1.073401
C147	C	1.551945	0.884198	1.406734
C148	C	0.991941	0.110859	0.740061
C149	C	1.325274	0.444192	1.073394
C150	C	1.658607	0.777525	1.406727
C151	C	0.996093	0.106700	0.652654
C152	C	1.329426	0.440034	0.985988
C153	C	1.662760	0.773367	1.319321
C154	C	0.944833	0.157950	0.608957
C155	C	1.278167	0.491284	0.942290
C156	C	1.611500	0.824617	1.275623
N157	N	0.903324	0.199447	0.480592
N158	N	1.236657	0.532780	0.813925
N159	N	1.569991	0.866114	1.147259
N160	N	0.949079	0.153688	0.519615
N161	N	1.282413	0.487022	0.852948
N162	N	1.615746	0.820355	1.186282
H163	H	0.671218	0.302219	0.000073
H164	H	1.004551	0.635552	0.333407
H165	H	1.337884	0.968886	0.666740
F166	F	0.548941	-0.004840	0.000105
F167	F	0.882274	0.328493	0.333439
F168	F	1.215608	0.661827	0.666772
F169	F	0.826305	0.276519	0.786577
F170	F	1.159638	0.609853	1.119910
F171	F	1.492972	0.943186	1.453244
F172	F	1.055062	0.047720	0.606140
F173	F	1.388396	0.381053	0.939474
F174	F	1.721729	0.714387	1.272807
H175	H	0.920923	-0.256061	-0.138207
H176	H	1.254256	0.077272	0.195126
H177	H	1.587589	0.410605	0.528459
H178	H	0.823343	-0.391183	-0.082861
H179	H	1.156676	-0.057850	0.250472
H180	H	1.490009	0.275483	0.583805
H181	H	0.813585	-0.382911	0.079173
H182	H	1.146918	-0.049577	0.412506
H183	H	1.480252	0.283756	0.745840
H184	H	0.295581	0.338192	0.000091
H185	H	0.628914	0.671525	0.333424
H186	H	0.962247	1.004858	0.666757
H187	H	0.902080	-0.388064	0.138750
H188	H	1.235413	-0.054730	0.472084
H189	H	1.568746	0.278603	0.805417
H190	H	0.522853	0.289465	0.000089
H191	H	0.856186	0.622798	0.333422
H192	H	1.189520	0.956132	0.666756
F193	F	1.061657	-0.257869	-0.074317
F194	F	1.394990	0.075465	0.259016
F195	F	1.728324	0.408798	0.592350
F196	F	0.918438	-0.237222	0.156368
F197	F	1.251771	0.096111	0.489702
F198	F	1.585105	0.429445	0.823035
F199	F	0.798623	-0.229994	0.085943
F200	F	1.131957	0.103339	0.419277
F201	F	1.465290	0.436673	0.752610
H202	H	0.705200	0.027704	0.000088
H203	H	1.038534	0.361038	0.333422
H204	H	1.371867	0.694371	0.666755
F205	F	0.797344	0.305419	0.394059
F206	F	1.130678	0.638753	0.727393
F207	F	1.464011	0.972086	1.060726
F208	F	0.929924	-0.408304	-0.156732
F209	F	1.263257	-0.074971	0.176601
F210	F	1.596591	0.258363	0.509935
H211	H	1.004711	0.098039	0.383122
H212	H	1.338045	0.431372	0.716455
H213	H	1.671378	0.764706	1.049789
F214	F	1.026111	0.076631	0.213630
F215	F	1.359444	0.409964	0.546963
F216	F	1.692778	0.743297	0.880296
H217	H	1.033673	0.069132	0.775647
H218	H	1.367006	0.402466	1.108980
H219	H	1.700340	0.735799	1.442314
F220	F	1.054282	-0.250003	0.074411
F221	F	1.387616	0.083331	0.407744
F222	F	1.720949	0.416664	0.741078
H223	H	0.824960	-0.247831	-0.082153
H224	H	1.158294	0.085503	0.251180
H225	H	1.491627	0.418836	0.584513
F226	F	0.834875	0.267912	0.606157
F227	F	1.168209	0.601246	0.939491
F228	F	1.501542	0.934579	1.272824
F229	F	0.173301	0.031131	0.000138
F230	F	0.506635	0.364464	0.333472
F231	F	0.839968	0.697798	0.666805
H232	H	0.147204	0.325437	0.000111
H233	H	0.480538	0.658770	0.333445
H234	H	0.813871	0.992103	0.666778
F235	F	0.342119	0.045639	0.000122
F236	F	0.675452	0.378972	0.333455
F237	F	1.008785	0.712305	0.666789
F238	F	0.805918	0.296823	0.213632
F239	F	1.139252	0.630156	0.546966
F240	F	1.472585	0.963489	0.880299
H241	H	1.042484	-0.401206	0.057287
H242	H	1.375818	-0.067873	0.390620
H243	H	1.709151	0.265461	0.723954
F244	F	1.058771	-0.416682	-0.073484
F245	F	1.392105	-0.083348	0.259850
F246	F	1.725438	0.249985	0.593183
