data_functionalizedCrystal
_audit_creation_method	'MofGen! by Chris Wilmer'
_symmetry_space_group_name_H-M	'P1'
_symmetry_Int_Tables_number	1
_symmetry_cell_setting	triclinic
loop_
_symmetry_equiv_pos_as_xyz
  x,y,z
_cell_length_a	17.077404
_cell_length_b	18.050589
_cell_length_c	17.077396
_cell_angle_alpha	89.974523
_cell_angle_beta	89.982756
_cell_angle_gamma	90.028446
loop_
_atom_site_label
_atom_site_type_symbol
_atom_site_fract_x
_atom_site_fract_y
_atom_site_fract_z
Zn1	Zn	1.200008	-0.295649	-0.443864
Zn2	Zn	1.199908	-0.419848	-0.312606
Zn3	Zn	1.068745	-0.295677	-0.312612
Zn4	Zn	1.068696	-0.419802	-0.443830
O5	O	1.134339	-0.357744	-0.378228
O6	O	1.309842	-0.312132	-0.426464
O7	O	1.182488	-0.403407	-0.202760
O8	O	1.086220	-0.191748	-0.330039
O9	O	1.309768	-0.403380	-0.330030
O10	O	1.182658	-0.191728	-0.426469
O11	O	1.086123	-0.312179	-0.202764
O12	O	0.958892	-0.312135	-0.330006
O13	O	1.086136	-0.403302	-0.553681
O14	O	0.958855	-0.403329	-0.426412
O15	O	1.182610	-0.312087	-0.553706
O16	O	1.182440	-0.523766	-0.329997
O17	O	1.086039	-0.523733	-0.426407
C18	C	0.930391	-0.357730	-0.378206
C19	C	0.843142	-0.357743	-0.378216
C20	C	0.802153	-0.405299	-0.428333
C21	C	0.720173	-0.405301	-0.428346
C22	C	0.679182	-0.357749	-0.378236
C23	C	0.720176	-0.310187	-0.328116
C24	C	0.802155	-0.310182	-0.328108
C25	C	0.549306	-0.310202	-0.328135
C26	C	0.467322	-0.310207	-0.328142
C27	C	0.467324	-0.405320	-0.428373
C28	C	0.549303	-0.405315	-0.428365
C29	C	0.590291	-0.357754	-0.378244
C30	C	1.134244	-0.550696	-0.378215
C31	C	1.134276	-0.633242	-0.378236
C32	C	1.081904	-0.832701	-0.430645
C33	C	1.062772	-0.882144	-0.359016
C34	C	1.134353	-0.784372	-0.378246
C35	C	1.153524	-0.882011	-0.449883
C36	C	1.134426	-0.930357	-0.378262
C37	C	1.115183	-0.832728	-0.306579
C38	C	1.205968	-0.832591	-0.397495
C39	C	1.186863	-0.882011	-0.325816
C40	C	1.134309	-0.700274	-0.378238
C41	C	1.134470	-1.014454	-0.378262
C42	C	1.339083	-0.357758	-0.378250
C43	C	1.426333	-0.357764	-0.378260
C44	C	1.134379	-0.357686	-0.582972
C45	C	1.134395	-0.357662	-0.670222
C46	C	1.134456	-0.164038	-0.378258
C47	C	1.134505	-0.081492	-0.378271
C48	C	1.084234	-0.310154	-0.711214
C49	C	1.084246	-0.310137	-0.793194
C50	C	1.134426	-0.357625	-0.834182
C51	C	1.184590	-0.405138	-0.793184
C52	C	1.184572	-0.405158	-0.711205
C53	C	1.184624	-0.405092	-0.964054
C54	C	1.184642	-0.405071	-1.046039
C55	C	1.084298	-0.310070	-1.046043
C56	C	1.084280	-0.310090	-0.964064
C57	C	1.134446	-0.357603	-0.923073
C58	C	1.134345	-0.357748	-0.174280
C59	C	1.134480	-0.357563	-0.087031
H60	H	0.433947	-0.444044	-0.469186
H61	H	0.686795	-0.271467	-0.287319
O62	O	1.172884	-0.907714	-0.522185
C63	C	1.185679	-0.847376	-0.573072
H64	H	1.201252	-0.796106	-0.537357
H65	H	1.235879	-0.860990	-0.614655
H66	H	1.130254	-0.836243	-0.608352
O67	O	0.427623	-0.263943	-0.279445
C68	C	0.481378	-0.221971	-0.235196
H69	H	0.539830	-0.219434	-0.267345
H70	H	0.457710	-0.163451	-0.226939
H71	H	0.490060	-0.249088	-0.175525
O72	O	1.035413	-0.264000	-0.671523
C73	C	0.991154	-0.222054	-0.725287
H74	H	0.988434	-0.252459	-0.783719
H75	H	0.929306	-0.214136	-0.701599
H76	H	1.019933	-0.165650	-0.734019
H77	H	0.582677	-0.271466	-0.287328
H78	H	1.043423	-0.271418	-0.930695
H79	H	1.225425	-0.443839	-0.677831
H80	H	0.582675	-0.444040	-0.469164
O81	O	0.990556	-0.908027	-0.339483
C82	C	0.969981	-0.881854	-0.264474
H83	H	1.004707	-0.829454	-0.250926
H84	H	0.904677	-0.868865	-0.262956
H85	H	0.983922	-0.926077	-0.218888
O86	O	1.095765	-0.806890	-0.234346
C87	C	1.095947	-0.728784	-0.235213
H88	H	1.087169	-0.708315	-0.297756
H89	H	1.046443	-0.707282	-0.196635
H90	H	1.154376	-0.707597	-0.211950
H91	H	0.835522	-0.444024	-0.469136
H92	H	1.231248	-0.903526	-0.281460
O93	O	1.035450	-0.263955	-1.085767
C94	C	0.957202	-0.280197	-1.065728
H95	H	0.955554	-0.308763	-1.006201
H96	H	0.922037	-0.226597	-1.062922
H97	H	0.930742	-0.318363	-1.111855
O98	O	0.680266	-0.451535	-0.476916
C99	C	0.632819	-0.499457	-0.432136
H100	H	0.620530	-0.473188	-0.372699
H101	H	0.575178	-0.509450	-0.464095
H102	H	0.664381	-0.554481	-0.423405
O103	O	1.035624	-0.263960	-0.833106
C104	C	1.080347	-0.215976	-0.880537
H105	H	1.139825	-0.242164	-0.892814
H106	H	1.048388	-0.206023	-0.938185
H107	H	1.088990	-0.160941	-0.848967
O108	O	1.278136	-0.806634	-0.417075
C109	C	1.298093	-0.831714	-0.492666
H110	H	1.242454	-0.845620	-0.526482
H111	H	1.331758	-0.786458	-0.524889
H112	H	1.336204	-0.883343	-0.487753
O113	O	0.841853	-0.263967	-0.279345
C114	C	0.788097	-0.221986	-0.235129
H115	H	0.729644	-0.252404	-0.232364
H116	H	0.811762	-0.213992	-0.173293
H117	H	0.779417	-0.165616	-0.263974
H118	H	1.037485	-0.811049	-0.474894
O119	O	1.233407	-0.451273	-1.085735
C120	C	1.277690	-0.493205	-1.031978
H121	H	1.245525	-0.495790	-0.973536
H122	H	1.286025	-0.551712	-1.055659
H123	H	1.337325	-0.466023	-1.023269
O124	O	1.233394	-0.451143	-0.924150
C125	C	1.284122	-0.408876	-0.876758
H126	H	1.256468	-0.352598	-0.864483
H127	H	1.294614	-0.439142	-0.819107
H128	H	1.342305	-0.400711	-0.908361
O129	O	1.233360	-0.451338	-0.832876
C130	C	1.277645	-0.493262	-0.779113
H131	H	1.245477	-0.495847	-0.720673
H132	H	1.285990	-0.551769	-0.802790
H133	H	1.337275	-0.466071	-0.770402
