data_functionalizedCrystal
_audit_creation_method	'MofGen! by Chris Wilmer'
_symmetry_space_group_name_H-M	'P1'
_symmetry_Int_Tables_number	1
_symmetry_cell_setting	triclinic
loop_
_symmetry_equiv_pos_as_xyz
  x,y,z
_cell_length_a	18.050590
_cell_length_b	21.295418
_cell_length_c	18.050582
_cell_angle_alpha	90.022598
_cell_angle_beta	89.999233
_cell_angle_gamma	90.017553
loop_
_atom_site_label
_atom_site_type_symbol
_atom_site_fract_x
_atom_site_fract_y
_atom_site_fract_z
Zn1	Zn	1.135292	-0.250831	0.419601
Zn2	Zn	1.385292	-0.000831	0.669601
Zn3	Zn	1.635292	0.249169	0.919601
Zn4	Zn	1.885292	0.499169	1.169601
Zn5	Zn	1.135202	-0.356092	0.295411
Zn6	Zn	1.385202	-0.106092	0.545411
Zn7	Zn	1.635202	0.143908	0.795411
Zn8	Zn	1.885202	0.393908	1.045411
Zn9	Zn	1.011111	-0.250821	0.295460
Zn10	Zn	1.261111	-0.000821	0.545460
Zn11	Zn	1.511111	0.249179	0.795460
Zn12	Zn	1.761111	0.499179	1.045460
Zn13	Zn	1.011058	-0.356047	0.419594
Zn14	Zn	1.261058	-0.106047	0.669594
Zn15	Zn	1.511058	0.143953	0.919594
Zn16	Zn	1.761058	0.393953	1.169594
O17	O	1.073166	-0.303448	0.357517
O18	O	1.323166	-0.053448	0.607517
O19	O	1.573166	0.196552	0.857517
O20	O	1.823166	0.446552	1.107517
O21	O	1.239204	-0.264818	0.403110
O22	O	1.489204	-0.014818	0.653110
O23	O	1.739204	0.235182	0.903110
O24	O	1.989204	0.485182	1.153110
O25	O	1.118725	-0.342143	0.191493
O26	O	1.368725	-0.092143	0.441493
O27	O	1.618725	0.157857	0.691493
O28	O	1.868725	0.407857	0.941493
O29	O	1.027643	-0.162733	0.311951
O30	O	1.277643	0.087267	0.561951
O31	O	1.527643	0.337267	0.811951
O32	O	1.777643	0.587267	1.061951
O33	O	1.239138	-0.342153	0.311868
O34	O	1.489138	-0.092153	0.561868
O35	O	1.739138	0.157847	0.811868
O36	O	1.989138	0.407847	1.061868
O37	O	1.118878	-0.162741	0.403157
O38	O	1.368878	0.087259	0.653157
O39	O	1.618878	0.337259	0.903157
O40	O	1.868878	0.587259	1.153157
O41	O	1.027556	-0.264801	0.191529
O42	O	1.277556	-0.014801	0.441529
O43	O	1.527556	0.235199	0.691529
O44	O	1.777556	0.485199	0.941529
O45	O	0.907179	-0.264756	0.311943
O46	O	1.157179	-0.014756	0.561943
O47	O	1.407179	0.235244	0.811943
O48	O	1.657179	0.485244	1.061943
O49	O	1.027554	-0.342075	0.523520
O50	O	1.277554	-0.092075	0.773520
O51	O	1.527554	0.157925	1.023520
O52	O	1.777554	0.407925	1.273520
O53	O	0.907141	-0.342065	0.403144
O54	O	1.157141	-0.092065	0.653144
O55	O	1.407141	0.157935	0.903144
O56	O	1.657141	0.407935	1.153144
O57	O	1.118827	-0.264773	0.523525
O58	O	1.368827	-0.014773	0.773525
O59	O	1.618827	0.235227	1.023525
O60	O	1.868827	0.485227	1.273525
O61	O	1.118675	-0.444176	0.311861
O62	O	1.368675	-0.194176	0.561861
O63	O	1.618675	0.055824	0.811861
O64	O	1.868675	0.305824	1.061861
O65	O	1.027467	-0.444142	0.403098
O66	O	1.277467	-0.194142	0.653098
O67	O	1.527467	0.055858	0.903098
O68	O	1.777467	0.305858	1.153098
C69	C	0.880214	-0.303405	0.357549
C70	C	1.130214	-0.053405	0.607549
C71	C	1.380214	0.196595	0.857549
C72	C	1.630214	0.446595	1.107549
C73	C	0.797668	-0.303402	0.357580
C74	C	1.047668	-0.053402	0.607580
C75	C	1.297668	0.196598	0.857580
C76	C	1.547668	0.446598	1.107580
C77	C	1.073075	-0.466999	0.357489
C78	C	1.323075	-0.216999	0.607489
C79	C	1.573075	0.033001	0.857489
C80	C	1.823075	0.283001	1.107489
C81	C	1.073105	-0.536968	0.357503
C82	C	1.323105	-0.286968	0.607503
C83	C	1.573105	-0.036968	0.857503
C84	C	1.823105	0.213032	1.107503
C85	C	0.598218	-0.345562	0.407057
C86	C	0.848218	-0.095562	0.657057
C87	C	1.098218	0.154438	0.907057
C88	C	1.348218	0.404438	1.157057
C89	C	0.548825	-0.288165	0.425332
C90	C	0.798825	-0.038165	0.675332
C91	C	1.048825	0.211835	0.925332
C92	C	1.298825	0.461835	1.175332
C93	C	0.646537	-0.303437	0.357544
C94	C	0.896537	-0.053437	0.607544
C95	C	1.146537	0.196563	0.857544
C96	C	1.396537	0.446563	1.107544
C97	C	0.548849	-0.360867	0.339268
C98	C	0.798849	-0.110867	0.589268
C99	C	1.048849	0.139133	0.839268
C100	C	1.298849	0.389133	1.089268
C101	C	0.500552	-0.303476	0.357510
C102	C	0.750552	-0.053476	0.607510
C103	C	1.000552	0.196524	0.857510
C104	C	1.250552	0.446524	1.107510
C105	C	0.598232	-0.246009	0.375854
C106	C	0.848232	0.003991	0.625854
C107	C	1.098232	0.253991	0.875854
C108	C	1.348232	0.503991	1.125854
C109	C	0.598260	-0.318749	0.289758
C110	C	0.848260	-0.068749	0.539758
C111	C	1.098260	0.181251	0.789758
C112	C	1.348260	0.431251	1.039758
C113	C	0.548889	-0.261313	0.308007
C114	C	0.798889	-0.011313	0.558007
C115	C	1.048889	0.238687	0.808007
C116	C	1.298889	0.488687	1.058007
C117	C	0.730636	-0.303415	0.357565
C118	C	0.980636	-0.053415	0.607565
C119	C	1.230636	0.196585	0.857565
C120	C	1.480636	0.446585	1.107565
C121	C	0.416456	-0.303491	0.357489
C122	C	0.666456	-0.053491	0.607489
C123	C	0.916456	0.196509	0.857489
C124	C	1.166456	0.446509	1.107489
C125	C	1.120764	-1.036376	0.405103
C126	C	1.370764	-0.786376	0.655103
C127	C	1.620764	-0.536376	0.905103
C128	C	1.870764	-0.286376	1.155103
C129	C	1.120743	-0.970634	0.405091
C130	C	1.370743	-0.720634	0.655091
C131	C	1.620743	-0.470634	0.905091
C132	C	1.870743	-0.220634	1.155091
C133	C	1.073267	-0.937807	0.357563
C134	C	1.323267	-0.687807	0.607563
C135	C	1.573267	-0.437807	0.857563
C136	C	1.823267	-0.187807	1.107563
C137	C	1.025823	-0.970728	0.310029
C138	C	1.275823	-0.720728	0.560029
C139	C	1.525823	-0.470728	0.810029
C140	C	1.775823	-0.220728	1.060029
C141	C	1.025851	-1.036470	0.310037
C142	C	1.275851	-0.786470	0.560037
C143	C	1.525851	-0.536470	0.810037
C144	C	1.775851	-0.286470	1.060037
N145	N	1.008219	-0.834627	0.351811
N146	N	1.258219	-0.584627	0.601811
N147	N	1.508219	-0.334627	0.851811
N148	N	1.758219	-0.084627	1.101811
N149	N	1.008194	-0.772175	0.351808
N150	N	1.258194	-0.522175	0.601808
N151	N	1.508194	-0.272175	0.851808
N152	N	1.758194	-0.022175	1.101808
C153	C	1.073180	-0.739732	0.357535
C154	C	1.323180	-0.489732	0.607535
C155	C	1.573180	-0.239732	0.857535
C156	C	1.823180	0.010268	1.107535
N157	N	1.138192	-0.772100	0.363280
N158	N	1.388192	-0.522100	0.613280
N159	N	1.638192	-0.272100	0.863280
N160	N	1.888192	-0.022100	1.113280
N161	N	1.138216	-0.834557	0.363287
N162	N	1.388216	-0.584557	0.613287
N163	N	1.638216	-0.334557	0.863287
N164	N	1.888216	-0.084557	1.113287
C165	C	1.073231	-0.866522	0.357549
C166	C	1.323231	-0.616522	0.607549
C167	C	1.573231	-0.366522	0.857549
C168	C	1.823231	-0.116522	1.107549
C169	C	1.120601	-0.635533	0.405049
C170	C	1.370601	-0.385533	0.655049
C171	C	1.620601	-0.135533	0.905049
C172	C	1.870601	0.114467	1.155049
C173	C	1.120580	-0.569790	0.405032
C174	C	1.370580	-0.319790	0.655032
C175	C	1.620580	-0.069790	0.905032
C176	C	1.870580	0.180210	1.155032
C177	C	1.025654	-0.569886	0.309974
C178	C	1.275654	-0.319886	0.559974
C179	C	1.525654	-0.069886	0.809974
C180	C	1.775654	0.180114	1.059974
C181	C	1.025681	-0.635628	0.309987
C182	C	1.275681	-0.385628	0.559987
C183	C	1.525681	-0.135628	0.809987
C184	C	1.775681	0.114372	1.059987
C185	C	1.073153	-0.668448	0.357529
C186	C	1.323153	-0.418448	0.607529
C187	C	1.573153	-0.168448	0.857529
C188	C	1.823153	0.081552	1.107529
C189	C	1.266871	-0.303491	0.357485
C190	C	1.516871	-0.053491	0.607485
C191	C	1.766871	0.196509	0.857485
C192	C	2.016871	0.446509	1.107485
C193	C	1.349417	-0.303510	0.357471
C194	C	1.599417	-0.053510	0.607471
C195	C	1.849417	0.196490	0.857471
C196	C	2.099417	0.446490	1.107471
C197	C	1.073195	-0.303420	0.551222
C198	C	1.323195	-0.053420	0.801222
C199	C	1.573195	0.196580	1.051222
C200	C	1.823195	0.446580	1.301222
C201	C	1.073207	-0.303408	0.633768
C202	C	1.323207	-0.053408	0.883768
C203	C	1.573207	0.196592	1.133768
C204	C	1.823207	0.446592	1.383768
C205	C	1.073276	-0.139258	0.357560
C206	C	1.323276	0.110742	0.607560
C207	C	1.573276	0.360742	0.857560
C208	C	1.823276	0.610742	1.107560
C209	C	1.073324	-0.069289	0.357579
C210	C	1.323324	0.180711	0.607579
C211	C	1.573324	0.430711	0.857579
C212	C	1.823324	0.680711	1.107579
C213	C	1.073179	-0.303430	0.164564
C214	C	1.323179	-0.053430	0.414564
C215	C	1.573179	0.196570	0.664564
C216	C	1.823179	0.446570	0.914564
C217	C	1.073311	-0.303265	0.082019
C218	C	1.323311	-0.053265	0.332019
C219	C	1.573311	0.196735	0.582019
C220	C	1.823311	0.446735	0.832019
C221	C	1.023611	-0.345387	0.833216
C222	C	1.273611	-0.095387	1.083216
C223	C	1.523611	0.154613	1.333216
C224	C	1.773611	0.404613	1.583216
C225	C	1.091366	-0.360785	0.882589
C226	C	1.341366	-0.110785	1.132589
C227	C	1.591366	0.139215	1.382589
C228	C	1.841366	0.389215	1.632589
C229	C	1.073244	-0.303360	0.784899
C230	C	1.323244	-0.053360	1.034899
C231	C	1.573244	0.196640	1.284899
C232	C	1.823244	0.446640	1.534899
C233	C	1.005526	-0.287944	0.882608
C234	C	1.255526	-0.037944	1.132608
C235	C	1.505526	0.212056	1.382608
C236	C	1.755526	0.462056	1.632608
C237	C	1.073273	-0.303315	0.930884
C238	C	1.323273	-0.053315	1.180884
C239	C	1.573273	0.196685	1.430884
C240	C	1.823273	0.446685	1.680884
C241	C	1.141035	-0.318788	0.833184
C242	C	1.391035	-0.068788	1.083184
C243	C	1.641035	0.181212	1.333184
C244	C	1.891035	0.431212	1.583184
C245	C	1.055149	-0.245921	0.833199
C246	C	1.305149	0.004079	1.083199
C247	C	1.555149	0.254079	1.333199
C248	C	1.805149	0.504079	1.583199
C249	C	1.122951	-0.261297	0.882549
C250	C	1.372951	-0.011297	1.132549
C251	C	1.622951	0.238703	1.382549
C252	C	1.872951	0.488703	1.632549
C253	C	1.073226	-0.303388	0.700800
C254	C	1.323226	-0.053388	0.950800
C255	C	1.573226	0.196612	1.200800
C256	C	1.823226	0.446612	1.450800
C257	C	1.073299	-0.303287	1.014980
C258	C	1.323299	-0.053287	1.264980
C259	C	1.573299	0.196713	1.514980
C260	C	1.823299	0.446713	1.764980
H261	H	0.619879	-0.381124	0.448976
H262	H	0.869879	-0.131124	0.698976
H263	H	1.119879	0.118876	0.948976
H264	H	1.369879	0.368876	1.198976
H265	H	1.159216	-0.542991	0.443730
H266	H	1.409216	-0.292991	0.693730
H267	H	1.659216	-0.042991	0.943730
H268	H	1.909216	0.207009	1.193730
Cl269	Cl	0.515357	-0.435825	0.315422
Cl270	Cl	0.765357	-0.185825	0.565422
Cl271	Cl	1.015357	0.064175	0.815422
Cl272	Cl	1.265357	0.314175	1.065422
H273	H	1.159426	-1.063094	0.443809
H274	H	1.409426	-0.813094	0.693809
H275	H	1.659426	-0.563094	0.943809
H276	H	1.909426	-0.313094	1.193809
Cl277	Cl	1.180287	-0.676796	0.464806
Cl278	Cl	1.430287	-0.426796	0.714806
Cl279	Cl	1.680287	-0.176796	0.964806
Cl280	Cl	1.930287	0.073204	1.214806
Cl281	Cl	0.631577	-0.171027	0.399800
Cl282	Cl	0.881577	0.078973	0.649800
Cl283	Cl	1.131577	0.328973	0.899800
Cl284	Cl	1.381577	0.578973	1.149800
H285	H	0.987169	-0.943998	0.271330
H286	H	1.237169	-0.693998	0.521330
H287	H	1.487169	-0.443998	0.771330
H288	H	1.737169	-0.193998	1.021330
Cl289	Cl	1.180387	-0.929248	0.464841
Cl290	Cl	1.430387	-0.679248	0.714841
Cl291	Cl	1.680387	-0.429248	0.964841
Cl292	Cl	1.930387	-0.179248	1.214841
Cl293	Cl	0.515298	-0.268187	0.513814
Cl294	Cl	0.765298	-0.018187	0.763814
Cl295	Cl	1.015298	0.231813	1.013814
Cl296	Cl	1.265298	0.481813	1.263814
H297	H	0.527366	-0.225664	0.266121
H298	H	0.777366	0.024336	0.516121
H299	H	1.027366	0.274336	0.766121
H300	H	1.277366	0.524336	1.016121
H301	H	1.198332	-0.331863	0.811566
H302	H	1.448332	-0.081863	1.061566
H303	H	1.698332	0.168137	1.311566
H304	H	1.948332	0.418137	1.561566
Cl305	Cl	0.965976	-0.528624	0.250217
Cl306	Cl	1.215976	-0.278624	0.500217
Cl307	Cl	1.465976	-0.028624	0.750217
Cl308	Cl	1.715976	0.221376	1.000217
H309	H	0.981677	-0.380974	0.811555
H310	H	1.231677	-0.130974	1.061555
H311	H	1.481677	0.119026	1.311555
H312	H	1.731677	0.369026	1.561555
Cl313	Cl	0.966205	-1.077849	0.250288
Cl314	Cl	1.216205	-0.827849	0.500288
Cl315	Cl	1.466205	-0.577849	0.750288
Cl316	Cl	1.716205	-0.327849	1.000288
Cl317	Cl	0.917091	-0.267841	0.916126
Cl318	Cl	1.167091	-0.017841	1.166126
Cl319	Cl	1.417091	0.232159	1.416126
Cl320	Cl	1.667091	0.482159	1.666126
Cl321	Cl	0.966033	-0.677007	0.250243
Cl322	Cl	1.216033	-0.427007	0.500243
Cl323	Cl	1.466033	-0.177007	0.750243
Cl324	Cl	1.716033	0.072993	1.000243
H325	H	1.106688	-0.409341	0.904283
H326	H	1.356688	-0.159341	1.154283
H327	H	1.606688	0.090659	1.404283
H328	H	1.856688	0.340659	1.654283
H329	H	0.619990	-0.331705	0.232464
H330	H	0.869990	-0.081705	0.482464
H331	H	1.119990	0.168295	0.732464
H332	H	1.369990	0.418295	0.982464
Cl333	Cl	1.187845	-0.206396	0.915788
Cl334	Cl	1.437845	0.043604	1.165788
Cl335	Cl	1.687845	0.293604	1.415788
Cl336	Cl	1.937845	0.543604	1.665788
H337	H	1.039806	-0.197379	0.811487
H338	H	1.289806	0.052621	1.061487
H339	H	1.539806	0.302621	1.311487
H340	H	1.789806	0.552621	1.561487
