data_functionalizedCrystal
_audit_creation_method	'MofGen! by Chris Wilmer'
_symmetry_space_group_name_H-M	'P1'
_symmetry_Int_Tables_number	1
_symmetry_cell_setting	triclinic
loop_
_symmetry_equiv_pos_as_xyz
  x,y,z
_cell_length_a	10.654534
_cell_length_b	10.868271
_cell_length_c	11.792254
_cell_angle_alpha	89.994692
_cell_angle_beta	84.338501
_cell_angle_gamma	89.994901
loop_
_atom_site_label
_atom_site_type_symbol
_atom_site_fract_x
_atom_site_fract_y
_atom_site_fract_z
O1	O	-1.667410	0.102346	-0.159334
O2	O	-1.334076	0.435679	0.174000
O3	O	-1.000743	0.769013	0.507333
O4	O	-1.301886	0.102344	-0.174541
O5	O	-0.968553	0.435677	0.158792
O6	O	-0.635220	0.769010	0.492126
O7	O	-1.493510	0.102336	-0.001788
O8	O	-1.160177	0.435670	0.331546
O9	O	-0.826843	0.769003	0.664879
O10	O	-1.475786	0.102354	-0.332087
O11	O	-1.142453	0.435687	0.001246
O12	O	-0.809120	0.769020	0.334580
O13	O	-1.493494	-0.102308	-0.001781
O14	O	-1.160161	0.231025	0.331552
O15	O	-0.826828	0.564358	0.664886
O16	O	-1.301871	-0.102301	-0.174534
O17	O	-0.968537	0.231032	0.158799
O18	O	-0.635204	0.564366	0.492133
O19	O	-1.667394	-0.102299	-0.159327
O20	O	-1.334061	0.231035	0.174007
O21	O	-1.000727	0.564368	0.507340
Zn22	Zn	-1.484630	-0.134792	-0.166929
Zn23	Zn	-1.151296	0.198542	0.166404
Zn24	Zn	-0.817963	0.531875	0.499737
Zn25	Zn	-1.484651	0.134837	-0.166938
Zn26	Zn	-1.151317	0.468170	0.166395
Zn27	Zn	-0.817984	0.801503	0.499728
O28	O	-1.475770	-0.102291	-0.332080
O29	O	-1.142437	0.231042	0.001253
O30	O	-0.809104	0.564376	0.334587
C31	C	-1.255083	0.000021	-0.173425
C32	C	-0.921750	0.333354	0.159909
C33	C	-0.588417	0.666688	0.493242
C34	C	-1.115648	0.000020	-0.170095
C35	C	-0.782315	0.333353	0.163238
C36	C	-0.448982	0.666686	0.496571
N37	N	-1.484625	-0.318806	-0.166923
N38	N	-1.151291	0.014528	0.166411
N39	N	-0.817958	0.347861	0.499744
C40	C	-1.050139	-0.111534	-0.168524
C41	C	-0.716806	0.221799	0.164809
C42	C	-0.383473	0.555132	0.498142
C43	C	-0.919128	-0.111537	-0.165377
C44	C	-0.585795	0.221796	0.167956
C45	C	-0.252461	0.555129	0.501289
C46	C	-0.919146	0.111578	-0.165377
C47	C	-0.585812	0.444911	0.167956
C48	C	-0.252479	0.778244	0.501289
C49	C	-1.050156	0.111579	-0.168516
C50	C	-0.716822	0.444913	0.164817
C51	C	-0.383489	0.778246	0.498151
C52	C	-1.484644	-0.569812	-0.166936
C53	C	-1.151311	-0.236478	0.166397
C54	C	-0.817977	0.096855	0.499731
C55	C	-1.484629	-0.430134	-0.166932
C56	C	-1.151296	-0.096801	0.166402
C57	C	-0.817963	0.236533	0.499735
C58	C	-0.714196	0.000022	-0.160452
C59	C	-0.380862	0.333355	0.172881
C60	C	-0.047529	0.666688	0.506214
C61	C	-0.853627	0.000015	-0.163809
C62	C	-0.520294	0.333348	0.169524
C63	C	-0.186960	0.666682	0.502857
C64	C	-1.492386	0.000014	0.040509
C65	C	-1.159052	0.333348	0.373842
C66	C	-0.825719	0.666681	0.707176
C67	C	-1.489044	0.000015	0.166529
C68	C	-1.155710	0.333349	0.499863
C69	C	-0.822377	0.666682	0.833196
N70	N	-1.484666	0.318851	-0.166936
N71	N	-1.151332	0.652184	0.166397
N72	N	-0.817999	0.985517	0.499730
C73	C	-1.476895	0.000034	-0.374377
C74	C	-1.143561	0.333367	-0.041043
C75	C	-0.810228	0.666700	0.292290
C76	C	-1.480237	0.000040	-0.500397
C77	C	-1.146903	0.333374	-0.167064
C78	C	-0.813570	0.666707	0.166269
C79	C	-1.486329	0.000020	0.268872
C80	C	-1.152995	0.333353	0.602206
C81	C	-0.819662	0.666686	0.935539
C82	C	-1.482933	0.000031	0.397266
C83	C	-1.149600	0.333364	0.730600
C84	C	-0.816267	0.666698	1.063933
H85	H	-1.103459	-0.202373	-0.169810
H86	H	-0.770126	0.130960	0.163523
H87	H	-0.436793	0.464293	0.496856
H88	H	-1.103495	0.202425	-0.169792
H89	H	-0.770162	0.535759	0.163541
H90	H	-0.436829	0.869092	0.496874
C91	C	-0.932322	0.332116	-0.165699
C92	C	-0.598989	0.665449	0.167634
C93	C	-0.265656	0.998783	0.500967
C94	C	-0.847151	0.234201	-0.163659
C95	C	-0.513817	0.567534	0.169674
C96	C	-0.180484	0.900867	0.503007
H97	H	-0.887875	0.407819	-0.164637
H98	H	-0.554542	0.741152	0.168697
H99	H	-0.221209	1.074485	0.502030
H100	H	-0.974294	0.327476	-0.232988
H101	H	-0.640961	0.660809	0.100346
H102	H	-0.307628	0.994142	0.433679
H103	H	-0.992549	0.327468	-0.100843
H104	H	-0.659215	0.660801	0.232490
H105	H	-0.325882	0.994135	0.565824
H106	H	-0.786930	0.238844	-0.228520
H107	H	-0.453596	0.572177	0.104813
H108	H	-0.120263	0.905510	0.438146
H109	H	-0.805158	0.238843	-0.096364
H110	H	-0.471825	0.572177	0.236970
H111	H	-0.138492	0.905510	0.570303
H112	H	-0.865796	-0.202376	-0.164098
H113	H	-0.532463	0.130958	0.169235
H114	H	-0.199129	0.464291	0.502568
