data_functionalizedCrystal
_audit_creation_method	'MofGen! by Chris Wilmer'
_symmetry_space_group_name_H-M	'P1'
_symmetry_Int_Tables_number	1
_symmetry_cell_setting	triclinic
loop_
_symmetry_equiv_pos_as_xyz
  x,y,z
_cell_length_a	6.817900
_cell_length_b	16.255661
_cell_length_c	15.866870
_cell_angle_alpha	112.481265
_cell_angle_beta	102.655915
_cell_angle_gamma	103.488922
loop_
_atom_site_label
_atom_site_type_symbol
_atom_site_fract_x
_atom_site_fract_y
_atom_site_fract_z
V1	V	-4.052302	-0.305528	-0.133532
O2	O	-4.013114	-0.257095	0.005619
O3	O	-4.028858	-0.344425	-0.264004
O4	O	-4.003538	-0.420080	-0.131828
O5	O	-4.038609	-0.180917	-0.127472
V6	V	-4.532744	-0.285644	-0.116847
O7	O	-4.320320	-0.349144	-0.170133
O8	O	-4.714923	-0.242028	-0.080246
O9	O	-4.332981	-0.246747	0.013626
O10	O	-4.689329	-0.334077	-0.255998
O11	O	-4.663834	-0.410255	-0.122906
O12	O	-4.358302	-0.171093	-0.118551
C13	C	-3.879942	-0.350182	-0.295800
C14	C	-3.942057	-0.382749	-0.402465
C15	C	-3.931920	-0.080662	-0.683662
C16	C	-3.990297	-0.111292	-0.783895
C17	C	-4.076067	-0.274974	-0.811728
C18	C	-4.017687	-0.244357	-0.711496
C19	C	-3.945618	-0.147200	-0.647470
C20	C	-4.031385	-0.310896	-0.675303
C21	C	-3.973020	-0.280281	-0.575079
C22	C	-3.900957	-0.183129	-0.511048
C23	C	-3.887253	-0.116586	-0.547246
C24	C	-4.103469	-0.408053	-0.739331
C25	C	-4.117168	-0.474591	-0.703138
C26	C	-4.058788	-0.443977	-0.602912
C27	C	-3.986724	-0.346824	-0.538881
C28	C	-4.072491	-0.510520	-0.566714
C29	C	-4.014126	-0.479906	-0.466491
C30	C	-3.928359	-0.316210	-0.438657
C31	C	-3.847642	-0.446685	-0.127194
C32	C	-3.889220	-0.540600	-0.126665
C33	C	-3.798563	-0.761444	-0.120335
C34	C	-3.970636	-0.856407	-0.202032
C35	C	-3.965414	-0.712539	-0.125671
C36	C	-3.867453	-0.784922	-0.043038
C37	C	-4.038997	-0.878622	-0.124707
C38	C	-4.136983	-0.806294	-0.207441
C39	C	-4.033723	-0.734772	-0.048376
C40	C	-4.205937	-0.829722	-0.130096
C41	C	-3.923020	-0.616863	-0.126227
C42	C	-4.081410	-0.974299	-0.124158
C43	C	-4.145241	-0.240990	0.045416
C44	C	-4.062363	-0.208429	0.152080
C45	C	-4.177540	-0.144484	-0.123187
C46	C	-4.115200	-0.050566	-0.123712
H47	H	-4.025313	-0.534089	-0.437024
H48	H	-4.150993	-0.432976	-0.820939
N49	N	-4.194949	-0.579380	-0.772197
H50	H	-4.229862	-0.588680	-0.841182
H51	H	-4.079002	-0.605870	-0.757433
N52	N	-3.975759	-0.039525	-0.822935
H53	H	-4.023757	-0.073661	-0.896145
H54	H	-4.071425	-0.002417	-0.802638
N55	N	-4.287389	-0.817213	-0.299581
H56	H	-4.440848	-0.842797	-0.303512
H57	H	-4.257945	-0.753270	-0.299341
H58	H	-4.378604	-0.859363	-0.134245
N59	N	-4.068371	-0.665394	0.037674
H60	H	-3.966067	-0.656517	0.099722
H61	H	-4.041211	-0.602246	0.036207
N62	N	-4.150290	-0.615308	-0.635775
H63	H	-4.185210	-0.624606	-0.704759
H64	H	-4.034353	-0.641806	-0.621018
N65	N	-3.570032	-0.722050	-0.114996
H66	H	-3.546148	-0.767249	-0.173110
H67	H	-3.543074	-0.658159	-0.114752
N68	N	-3.850614	-0.211418	-0.369593
H69	H	-3.966507	-0.184874	-0.384282
H70	H	-3.815701	-0.202204	-0.300640
H71	H	-3.873202	-0.001546	-0.631528
H72	H	-3.944413	-0.908759	-0.266995
N73	N	-3.717046	-0.774193	0.048998
H74	H	-3.739345	-0.728109	0.107076
H75	H	-3.747459	-0.838092	0.048897
N76	N	-3.837982	-0.150116	-0.402950
H77	H	-3.682596	-0.106697	-0.370019
H78	H	-3.931696	-0.114562	-0.376748
N79	N	-4.153849	-0.379762	-0.880787
H80	H	-4.188762	-0.389062	-0.949772
H81	H	-4.037901	-0.406252	-0.866023
H82	H	-3.828535	-0.037470	-0.495111
