data_functionalizedCrystal
_audit_creation_method	'MofGen! by Chris Wilmer'
_symmetry_space_group_name_H-M	'P1'
_symmetry_Int_Tables_number	1
_symmetry_cell_setting	triclinic
loop_
_symmetry_equiv_pos_as_xyz
  x,y,z
_cell_length_a	14.044220
_cell_length_b	11.026607
_cell_length_c	10.065918
_cell_angle_alpha	97.684983
_cell_angle_beta	80.947333
_cell_angle_gamma	79.112553
loop_
_atom_site_label
_atom_site_type_symbol
_atom_site_fract_x
_atom_site_fract_y
_atom_site_fract_z
O1	O	0.419792	-1.671493	-0.113517
O2	O	0.919792	-1.171493	0.386483
O3	O	0.373744	-1.313202	-0.113517
O4	O	0.873744	-0.813202	0.386483
O5	O	0.257864	-1.486968	-0.113504
O6	O	0.757864	-0.986968	0.386496
O7	O	0.535672	-1.497728	-0.113531
O8	O	1.035672	-0.997728	0.386469
O9	O	0.227068	-1.451847	0.113487
O10	O	0.727068	-0.951847	0.613487
O11	O	0.342948	-1.278082	0.113474
O12	O	0.842948	-0.778082	0.613474
O13	O	0.388996	-1.636373	0.113474
O14	O	0.888996	-1.136373	0.613474
Zn15	Zn	0.361083	-1.451651	0.149514
Zn16	Zn	0.861083	-0.951651	0.649514
Zn17	Zn	0.401657	-1.497924	-0.149557
Zn18	Zn	0.901657	-0.997924	0.350443
O19	O	0.504876	-1.462607	0.113460
O20	O	1.004876	-0.962607	0.613460
C21	C	0.206348	-1.464699	-0.000008
C22	C	0.706348	-0.964699	0.499992
C23	C	0.098726	-1.450655	-0.000006
C24	C	0.598726	-0.950655	0.499994
C25	C	0.349851	-1.249512	-0.000021
C26	C	0.849851	-0.749512	0.499979
C27	C	0.324526	-1.112056	-0.000020
C28	C	0.824526	-0.612056	0.499980
C29	C	0.412890	-1.700064	-0.000025
C30	C	0.912890	-1.200064	0.499975
C31	C	0.438215	-1.837521	-0.000035
C32	C	0.938215	-1.337521	0.499965
C33	C	-0.098314	-1.424983	-0.000025
C34	C	0.401686	-0.924983	0.499975
C35	C	-0.138951	-1.524588	-0.000030
C36	C	0.361049	-1.024588	0.499970
C37	C	-0.248591	-1.510304	-0.000041
C38	C	0.251409	-1.010304	0.499959
C39	C	0.011335	-1.439266	-0.000015
C40	C	0.511335	-0.939266	0.499985
C41	C	0.556392	-1.484876	-0.000039
C42	C	1.056392	-0.984876	0.499961
C43	C	0.664016	-1.498922	-0.000049
C44	C	1.164016	-0.998922	0.499951
N45	N	0.333392	-1.420080	0.353621
N46	N	0.833392	-0.920080	0.853621
C47	C	0.394452	-1.045821	-0.000028
C48	C	0.894452	-0.545821	0.499972
C49	C	0.368280	-0.903753	-0.000027
C50	C	0.868280	-0.403753	0.499973
N51	N	0.429341	-1.529504	-0.353664
N52	N	0.929341	-1.029504	0.146336
C53	C	0.370712	-1.462653	0.578561
C54	C	0.870712	-0.962653	1.078561
C55	C	0.392030	-1.486941	0.421392
C56	C	0.892030	-0.986941	0.921392
H57	H	-0.145863	-1.328988	-0.000029
H58	H	0.354137	-0.828988	0.499971
H59	H	-0.091386	-1.620606	-0.000122
H60	H	0.408614	-1.120606	0.499878
H61	H	0.473692	-1.094290	-0.000028
H62	H	0.973692	-0.594290	0.499972
O63	O	0.263304	-0.839573	-0.000017
O64	O	0.763304	-0.339573	0.499983
H65	H	0.259221	-0.738061	-0.000026
H66	H	0.759221	-0.238061	0.499974
O67	O	0.543192	-0.901699	-0.000049
O68	O	1.043192	-0.401699	0.499951
H69	H	0.547280	-1.003214	-0.000059
H70	H	1.047280	-0.503214	0.499941
H71	H	0.245289	-1.063591	-0.000048
H72	H	0.745289	-0.563591	0.499952
H73	H	0.495316	-1.604722	0.588003
H74	H	0.995316	-1.104722	1.088003
O75	O	0.283315	-1.363014	0.655808
O76	O	0.783315	-0.863014	1.155808
H77	H	0.280290	-1.359566	0.767133
H78	H	0.780290	-0.859566	1.267133
O79	O	0.479438	-1.586575	0.344150
O80	O	0.979438	-1.086575	0.844150
H81	H	0.482473	-1.590009	0.232826
H82	H	0.982473	-1.090009	0.732826
H83	H	0.267410	-1.344861	0.411946
H84	H	0.767410	-0.844861	0.911946
