data_functionalizedCrystal
_audit_creation_method	'MofGen! by Chris Wilmer'
_symmetry_space_group_name_H-M	'P1'
_symmetry_Int_Tables_number	1
_symmetry_cell_setting	triclinic
loop_
_symmetry_equiv_pos_as_xyz
  x,y,z
_cell_length_a	14.519709
_cell_length_b	10.540510
_cell_length_c	13.596369
_cell_angle_alpha	89.996501
_cell_angle_beta	90.000291
_cell_angle_gamma	84.096728
loop_
_atom_site_label
_atom_site_type_symbol
_atom_site_fract_x
_atom_site_fract_y
_atom_site_fract_z
O1	O	1.224752	0.166402	-0.081658
O2	O	0.956379	0.185998	-0.081687
O3	O	1.096703	-0.008572	-0.081671
O4	O	1.084429	0.360971	-0.081673
O5	O	1.096689	-0.008582	0.081912
O6	O	0.956365	0.185987	0.081896
O7	O	1.224738	0.166392	0.081925
Zn8	Zn	1.090549	0.176188	0.107883
Zn9	Zn	1.090568	0.176202	-0.107645
O10	O	1.084414	0.360961	0.081909
C11	C	0.922008	0.185079	0.000100
C12	C	0.819612	0.182343	0.000089
C13	C	1.095781	-0.055871	0.000118
C14	C	1.093044	-0.196793	0.000112
C15	C	0.444662	0.172268	0.000134
C16	C	0.548985	0.175066	0.000121
C17	C	0.632134	0.177305	0.000111
C18	C	0.736463	0.180103	0.000100
C19	C	1.190527	-0.415244	0.000497
C20	C	1.193446	-0.268678	0.000124
C21	C	1.041657	-0.241021	-0.093306
C22	C	1.039449	-0.387760	-0.093379
C23	C	1.037342	-0.387559	0.092645
C24	C	1.042104	-0.241266	0.093875
C25	C	1.259110	0.167310	0.000135
C26	C	1.361505	0.170047	0.000140
C27	C	1.085336	0.408261	0.000118
C28	C	1.088073	0.549182	0.000118
N29	N	1.090543	0.176178	0.254975
N30	N	1.090581	0.176202	-0.254737
C31	C	1.090567	0.176203	0.656266
C32	C	1.090557	0.176200	0.544614
C33	C	1.090555	0.176191	0.455624
C34	C	1.090545	0.176187	0.343965
H35	H	1.233654	-0.239749	0.067088
C36	C	1.080209	-0.445332	0.188302
N37	N	1.112508	-0.488847	0.260347
C38	C	1.243368	-0.472476	0.091001
N39	N	1.283168	-0.515594	0.159171
H40	H	1.233899	-0.240681	-0.066949
C41	C	0.935509	-0.416463	0.093495
N42	N	0.858813	-0.438247	0.094130
H43	H	1.079496	-0.213040	0.162985
C44	C	1.086922	-0.442573	-0.187699
N45	N	1.122685	-0.483853	-0.258740
H46	H	1.229422	-0.459142	-0.066110
H47	H	0.964355	-0.409988	-0.097620
H48	H	0.967743	-0.192878	-0.096787
H49	H	0.968803	-0.191451	0.099508
C50	C	1.089889	-0.199836	-0.187217
N51	N	1.126224	-0.168821	-0.257949
