data_functionalizedCrystal
_audit_creation_method	'MofGen! by Chris Wilmer'
_symmetry_space_group_name_H-M	'P1'
_symmetry_Int_Tables_number	1
_symmetry_cell_setting	triclinic
loop_
_symmetry_equiv_pos_as_xyz
  x,y,z
_cell_length_a	12.759401
_cell_length_b	16.959453
_cell_length_c	12.759393
_cell_angle_alpha	89.966505
_cell_angle_beta	90.018567
_cell_angle_gamma	89.971467
loop_
_atom_site_label
_atom_site_type_symbol
_atom_site_fract_x
_atom_site_fract_y
_atom_site_fract_z
Zn1	Zn	1.606147	0.314655	0.593969
Zn2	Zn	1.605996	0.446857	0.418283
Zn3	Zn	1.430449	0.314694	0.418308
Zn4	Zn	1.430393	0.446793	0.593925
O5	O	1.518246	0.380750	0.506121
O6	O	1.753148	0.332202	0.570672
O7	O	1.582670	0.429368	0.271266
O8	O	1.453843	0.204078	0.441639
O9	O	1.753037	0.429330	0.441597
O10	O	1.582928	0.204049	0.570697
O11	O	1.453697	0.332268	0.271284
O12	O	1.283421	0.332207	0.441596
O13	O	1.453746	0.429222	0.740952
O14	O	1.283379	0.429260	0.570621
O15	O	1.582873	0.332141	0.740984
O16	O	1.582615	0.557459	0.441553
O17	O	1.453600	0.557413	0.570596
C18	C	1.245279	0.380731	0.506107
C19	C	1.128502	0.380742	0.506125
C20	C	1.073691	0.330263	0.573439
C21	C	0.963967	0.330278	0.573446
C22	C	0.963875	0.431259	0.438822
C23	C	1.073597	0.431239	0.438811
C24	C	1.073743	0.271965	0.651167
C25	C	0.964019	0.271981	0.651173
C26	C	1.518114	0.586116	0.506090
C27	C	1.518153	0.673973	0.506112
C28	C	1.585400	1.045375	0.573472
C29	C	1.451093	1.045522	0.438974
C30	C	1.451072	0.962976	0.438947
C31	C	1.518215	0.921626	0.506185
C32	C	1.585379	0.962821	0.573449
C33	C	1.383902	0.921774	0.371691
C34	C	1.383878	0.839223	0.371662
C35	C	1.451027	0.797871	0.438895
C36	C	1.518195	0.839072	0.506162
C37	C	1.585338	0.797722	0.573399
C38	C	1.652511	0.838921	0.640661
C39	C	1.652529	0.921470	0.640682
C40	C	1.451010	0.715323	0.438875
C41	C	1.585317	0.715168	0.573377
C42	C	1.792280	0.380769	0.506137
C43	C	1.909056	0.380777	0.506143
C44	C	1.518320	0.380670	0.780155
C45	C	1.518351	0.380636	0.896932
C46	C	1.518353	1.174582	0.506185
C47	C	1.518257	1.086725	0.506235
C48	C	1.518234	0.380772	0.233154
C49	C	1.518406	0.380584	0.116378
C50	C	1.585597	0.330081	0.951812
C51	C	1.585622	0.330052	1.061537
C52	C	1.451153	0.431141	1.061489
C53	C	1.451124	0.431165	0.951767
C54	C	1.663234	0.271721	0.951840
C55	C	1.663259	0.271692	1.061565
H56	H	1.118221	0.472336	0.383988
C57	C	1.633846	0.189026	0.911640
N58	N	1.611708	0.126742	0.881362
C59	C	1.659185	0.669690	0.647341
N60	N	1.714824	0.635436	0.703051
C61	C	0.918052	0.193387	0.612004
N62	N	0.883428	0.134190	0.582504
C63	C	1.726366	0.793426	0.714621
N64	N	1.781993	0.759155	0.770324
C65	C	1.377321	1.091009	0.364936
N66	N	1.321786	1.125274	0.309135
C67	C	1.377205	0.486718	1.121819
N68	N	1.321506	0.528580	1.167258
C69	C	1.767625	0.301346	0.905853
N70	N	1.846255	0.323656	0.871215
H71	H	1.634166	0.213528	1.095615
H72	H	1.707217	0.955022	0.695444
H73	H	1.744624	0.288089	1.091342
H74	H	1.107801	0.293958	0.728404
H75	H	0.919158	0.472371	0.384017
C76	C	1.659288	1.090694	0.647457
N77	N	1.714939	1.124830	0.703184
C78	C	1.309977	0.793911	0.297683
N79	N	1.254312	0.759782	0.241962
C80	C	1.113990	0.189231	0.621913
N81	N	1.144304	0.126917	0.599877
C82	C	1.377125	0.670007	0.364889
N83	N	1.321474	0.635877	0.309156
C84	C	1.310174	0.967263	0.297612
N85	N	1.254687	1.001530	0.241765
H86	H	0.934269	0.288453	0.732508
C87	C	1.377133	0.486767	0.891402
N88	N	1.321398	0.528648	0.845936
