data_functionalizedCrystal
_audit_creation_method	'MofGen! by Chris Wilmer'
_symmetry_space_group_name_H-M	'P1'
_symmetry_Int_Tables_number	1
_symmetry_cell_setting	triclinic
loop_
_symmetry_equiv_pos_as_xyz
  x,y,z
_cell_length_a	13.897449
_cell_length_b	13.897447
_cell_length_c	13.897441
_cell_angle_alpha	90.029327
_cell_angle_beta	90.023394
_cell_angle_gamma	90.020357
loop_
_atom_site_label
_atom_site_type_symbol
_atom_site_fract_x
_atom_site_fract_y
_atom_site_fract_z
Zn1	Zn	1.474690	-0.383963	0.545458
Zn2	Zn	1.724690	-0.133963	0.795458
Zn3	Zn	1.974690	0.116037	1.045458
Zn4	Zn	2.224690	0.366037	1.295458
Zn5	Zn	1.474579	-0.545285	0.384163
Zn6	Zn	1.724579	-0.295285	0.634163
Zn7	Zn	1.974579	-0.045285	0.884163
Zn8	Zn	2.224579	0.204715	1.134163
Zn9	Zn	1.313379	-0.384007	0.384169
Zn10	Zn	1.563379	-0.134007	0.634169
Zn11	Zn	1.813379	0.115993	0.884169
Zn12	Zn	2.063379	0.365993	1.134169
Zn13	Zn	1.313356	-0.545220	0.545408
Zn14	Zn	1.563356	-0.295220	0.795408
Zn15	Zn	1.813356	-0.045220	1.045408
Zn16	Zn	2.063356	0.204780	1.295408
O17	O	1.394001	-0.464619	0.464800
O18	O	1.644001	-0.214619	0.714800
O19	O	1.894001	0.035381	0.964800
O20	O	2.144001	0.285381	1.214800
O21	O	1.609657	-0.405371	0.524080
O22	O	1.859657	-0.155371	0.774080
O23	O	2.109657	0.094629	1.024080
O24	O	2.359657	0.344629	1.274080
O25	O	1.453159	-0.523937	0.249182
O26	O	1.703159	-0.273937	0.499182
O27	O	1.953159	-0.023937	0.749182
O28	O	2.203159	0.226063	0.999182
O29	O	1.334834	-0.249020	0.405588
O30	O	1.584834	0.000980	0.655588
O31	O	1.834834	0.250980	0.905588
O32	O	2.084834	0.500980	1.155588
O33	O	1.609576	-0.523893	0.405578
O34	O	1.859576	-0.273893	0.655578
O35	O	2.109576	-0.023893	0.905578
O36	O	2.359576	0.226107	1.155578
O37	O	1.453348	-0.248987	0.524086
O38	O	1.703348	0.001013	0.774086
O39	O	1.953348	0.251013	1.024086
O40	O	2.203348	0.501013	1.274086
O41	O	1.334726	-0.405447	0.249187
O42	O	1.584726	-0.155447	0.499187
O43	O	1.834726	0.094553	0.749187
O44	O	2.084726	0.344553	0.999187
O45	O	1.178395	-0.405384	0.405539
O46	O	1.428395	-0.155384	0.655539
O47	O	1.678395	0.094616	0.905539
O48	O	1.928395	0.344616	1.155539
O49	O	1.334794	-0.523783	0.680397
O50	O	1.584794	-0.273783	0.930397
O51	O	1.834794	-0.023783	1.180397
O52	O	2.084794	0.226217	1.430397
O53	O	1.178378	-0.523826	0.524001
O54	O	1.428378	-0.273826	0.774001
O55	O	1.678378	-0.023826	1.024001
O56	O	1.928378	0.226174	1.274001
O57	O	1.453326	-0.405308	0.680433
O58	O	1.703326	-0.155308	0.930433
O59	O	1.953326	0.094692	1.180433
O60	O	2.203326	0.344692	1.430433
O61	O	1.453136	-0.680258	0.405529
O62	O	1.703136	-0.430258	0.655529
O63	O	1.953136	-0.180258	0.905529
O64	O	2.203136	0.069742	1.155529
O65	O	1.334686	-0.680210	0.523995
O66	O	1.584686	-0.430210	0.773995
O67	O	1.834686	-0.180210	1.023995
O68	O	2.084686	0.069790	1.273995
C69	C	1.143387	-0.464604	0.464766
C70	C	1.393387	-0.214604	0.714766
C71	C	1.643387	0.035396	0.964766
C72	C	1.893387	0.285396	1.214766
C73	C	1.036173	-0.464621	0.464775
C74	C	1.286173	-0.214621	0.714775
C75	C	1.536173	0.035379	0.964775
C76	C	1.786173	0.285379	1.214775
C77	C	1.393923	-0.715233	0.464777
C78	C	1.643923	-0.465233	0.714777
C79	C	1.893923	-0.215233	0.964777
C80	C	2.143923	0.034767	1.214777
C81	C	1.393978	-0.822447	0.464800
C82	C	1.643978	-0.572447	0.714800
C83	C	1.893978	-0.322447	0.964800
C84	C	2.143978	-0.072447	1.214800
C85	C	0.949103	-0.464624	0.464791
C86	C	1.199103	-0.214624	0.714791
C87	C	1.449103	0.035376	0.964791
C88	C	1.699103	0.285376	1.214791
C89	C	0.839871	-0.464631	0.464820
C90	C	1.089871	-0.214631	0.714820
C91	C	1.339871	0.035369	0.964820
C92	C	1.589871	0.285369	1.214820
C93	C	1.394024	-0.909517	0.464822
C94	C	1.644024	-0.659517	0.714822
C95	C	1.894024	-0.409517	0.964822
C96	C	2.144024	-0.159517	1.214822
C97	C	1.394092	-1.018749	0.464847
C98	C	1.644092	-0.768749	0.714847
C99	C	1.894092	-0.518749	0.964847
C100	C	2.144092	-0.268749	1.214847
C101	C	1.645594	-0.464634	0.464834
C102	C	1.895594	-0.214634	0.714834
C103	C	2.145594	0.035366	0.964834
C104	C	2.395594	0.285366	1.214834
C105	C	1.752808	-0.464641	0.464849
C106	C	2.002808	-0.214641	0.714849
C107	C	2.252808	0.035359	0.964849
C108	C	2.502808	0.285359	1.214849
C109	C	1.394070	-0.464533	0.716393
C110	C	1.644070	-0.214533	0.966393
C111	C	1.894070	0.035467	1.216393
C112	C	2.144070	0.285467	1.466393
C113	C	1.394099	-0.464497	0.823607
C114	C	1.644099	-0.214497	1.073607
C115	C	1.894099	0.035503	1.323607
C116	C	2.144099	0.285503	1.573607
C117	C	1.394106	-0.213026	0.464843
C118	C	1.644106	0.036974	0.714843
C119	C	1.894106	0.286974	0.964843
C120	C	2.144106	0.536974	1.214843
C121	C	1.394151	-0.105812	0.464862
C122	C	1.644151	0.144188	0.714862
C123	C	1.894151	0.394188	0.964862
C124	C	2.144151	0.644188	1.214862
C125	C	1.393989	-0.464634	0.214185
C126	C	1.643989	-0.214634	0.464185
C127	C	1.893989	0.035366	0.714185
C128	C	2.143989	0.285366	0.964185
C129	C	1.394146	-0.464399	0.106972
C130	C	1.644146	-0.214399	0.356972
C131	C	1.894146	0.035601	0.606972
C132	C	2.144146	0.285601	0.856972
C133	C	1.394125	-0.464432	1.019902
C134	C	1.644125	-0.214432	1.269902
C135	C	1.894125	0.035568	1.519902
C136	C	2.144125	0.285568	1.769902
C137	C	1.394107	-0.464471	0.910669
C138	C	1.644107	-0.214471	1.160669
C139	C	1.894107	0.035529	1.410669
C140	C	2.144107	0.285529	1.660669
