data_functionalizedCrystal
_audit_creation_method	'MofGen! by Chris Wilmer'
_symmetry_space_group_name_H-M	'P1'
_symmetry_Int_Tables_number	1
_symmetry_cell_setting	triclinic
loop_
_symmetry_equiv_pos_as_xyz
  x,y,z
_cell_length_a	14.519709
_cell_length_b	16.109301
_cell_length_c	13.596369
_cell_angle_alpha	89.994680
_cell_angle_beta	89.993066
_cell_angle_gamma	83.570813
loop_
_atom_site_label
_atom_site_type_symbol
_atom_site_fract_x
_atom_site_fract_y
_atom_site_fract_z
O1	O	0.118543	1.103338	-0.081793
O2	O	0.451876	1.436671	0.251540
O3	O	0.785209	1.770005	0.584873
O4	O	0.133295	0.861301	-0.081796
O5	O	0.466628	1.194635	0.251538
O6	O	0.799961	1.527968	0.584871
O7	O	-0.008333	0.988737	-0.081785
O8	O	0.325000	1.322070	0.251548
O9	O	0.658333	1.655404	0.584881
O10	O	0.260171	0.975902	-0.081803
O11	O	0.593504	1.309236	0.251530
O12	O	0.926837	1.642569	0.584863
O13	O	-0.008341	0.988724	0.081797
O14	O	0.324992	1.322058	0.415131
O15	O	0.658326	1.655391	0.748464
O16	O	0.133287	0.861289	0.081787
O17	O	0.466621	1.194622	0.415121
O18	O	0.799954	1.527955	0.748454
O19	O	0.118535	1.103325	0.081790
O20	O	0.451868	1.436659	0.415123
O21	O	0.785202	1.769992	0.748456
Zn22	Zn	0.125910	0.982305	0.107761
Zn23	Zn	0.459243	1.315638	0.441094
Zn24	Zn	0.792577	1.648972	0.774428
Zn25	Zn	0.125920	0.982322	-0.107767
Zn26	Zn	0.459253	1.315655	0.225567
Zn27	Zn	0.792586	1.648988	0.558900
O28	O	0.260163	0.975890	0.081780
O29	O	0.593497	1.309223	0.415113
O30	O	0.926830	1.642556	0.748446
C31	C	-0.042696	0.988132	0.000006
C32	C	0.290638	1.321466	0.333340
C33	C	0.623971	1.654799	0.666673
C34	C	-0.145073	0.986340	0.000007
C35	C	0.188260	1.319673	0.333340
C36	C	0.521594	1.653007	0.666673
C37	C	0.132693	0.830319	-0.000004
C38	C	0.466027	1.163653	0.333329
C39	C	0.799360	1.496986	0.666662
C40	C	0.130902	0.738021	-0.000005
C41	C	0.464235	1.071354	0.333328
C42	C	0.797569	1.404687	0.666662
C43	C	0.119136	1.134307	-0.000004
C44	C	0.452470	1.467641	0.333330
C45	C	0.785803	1.800974	0.666663
C46	C	0.120928	1.226606	-0.000010
C47	C	0.454261	1.559939	0.333324
C48	C	0.787595	1.893273	0.666657
C49	C	-0.519955	0.979741	-0.000019
C50	C	-0.186622	1.313075	0.333314
C51	C	0.146712	1.646408	0.666648
C52	C	-0.415651	0.981574	-0.000011
C53	C	-0.082318	1.314907	0.333322
C54	C	0.251016	1.648241	0.666655
C55	C	-0.332517	0.983041	-0.000005
C56	C	0.000816	1.316374	0.333328
C57	C	0.334149	1.649707	0.666662
C58	C	-0.228207	0.984873	0.000000
C59	C	0.105127	1.318207	0.333334
C60	C	0.438460	1.651540	0.666667
C61	C	0.294526	0.976494	-0.000014
C62	C	0.627859	1.309828	0.333319
C63	C	0.961192	1.643161	0.666653
C64	C	0.396903	0.978287	-0.000021
C65	C	0.730236	1.311620	0.333312
C66	C	1.063570	1.644953	0.666646
N67	N	0.125903	0.982300	0.254853
N68	N	0.459236	1.315633	0.588186
N69	N	0.792569	1.648966	0.921519
C70	C	0.041054	1.448740	0.000001
C71	C	0.374388	1.782073	0.333334
C72	C	0.707721	2.115407	0.666667
C73	C	0.042745	1.535463	0.000004
C74	C	0.376078	1.868797	0.333337
C75	C	0.709412	2.202130	0.666671
C76	C	0.210782	1.515880	-0.000012
C77	C	0.544115	1.849213	0.333321
C78	C	0.877449	2.182547	0.666655
C79	C	0.209090	1.429158	-0.000008
C80	C	0.542424	1.762492	0.333325
C81	C	0.875757	2.095825	0.666658
C82	C	0.124224	1.395591	-0.000007
C83	C	0.457557	1.728924	0.333326
C84	C	0.790891	2.062258	0.666660
C85	C	0.127606	1.569036	-0.000007
C86	C	0.460939	1.902369	0.333326
C87	C	0.794273	2.235703	0.666659
C88	C	0.129440	1.663065	-0.000004
C89	C	0.462773	1.996398	0.333330
C90	C	0.796106	2.329732	0.666663
C91	C	0.122390	1.301556	-0.000009
C92	C	0.455723	1.634889	0.333324
C93	C	0.789056	1.968222	0.666658
N94	N	0.125920	0.982334	-0.254858
N95	N	0.459253	1.315667	0.078475
N96	N	0.792586	1.649000	0.411808
C97	C	0.125921	0.982321	0.656144
C98	C	0.459254	1.315654	0.989477
C99	C	0.792587	1.648987	1.322810
C100	C	0.125919	0.982312	0.544492
C101	C	0.459252	1.315646	0.877826
C102	C	0.792586	1.648979	1.211159
C103	C	0.125912	0.982311	0.455502
C104	C	0.459246	1.315644	0.788835
C105	C	0.792579	1.648977	1.122168
C106	C	0.125909	0.982301	0.343843
C107	C	0.459242	1.315635	0.677177
C108	C	0.792576	1.648968	1.010510
H109	H	-0.028049	1.421413	0.000004
H110	H	0.305284	1.754746	0.333337
H111	H	0.638617	2.088079	0.666670
Br112	Br	0.325952	1.561441	-0.000023
Br113	Br	0.659286	1.894775	0.333311
Br114	Br	0.992619	2.228108	0.666644
H115	H	-0.024980	1.578735	0.000012
H116	H	0.308353	1.912068	0.333345
H117	H	0.641686	2.245401	0.666678
H118	H	0.276821	1.385882	-0.000011
H119	H	0.610155	1.719215	0.333322
H120	H	0.943488	2.052548	0.666656
