data_functionalizedCrystal
_audit_creation_method	'MofGen! by Chris Wilmer'
_symmetry_space_group_name_H-M	'P1'
_symmetry_Int_Tables_number	1
_symmetry_cell_setting	triclinic
loop_
_symmetry_equiv_pos_as_xyz
  x,y,z
_cell_length_a	19.121414
_cell_length_b	19.121063
_cell_length_c	18.050582
_cell_angle_alpha	92.415032
_cell_angle_beta	92.421198
_cell_angle_gamma	94.802198
loop_
_atom_site_label
_atom_site_type_symbol
_atom_site_fract_x
_atom_site_fract_y
_atom_site_fract_z
Zn1	Zn	1.063678	-0.234282	-0.382590
Zn2	Zn	1.058575	-0.351944	-0.263929
Zn3	Zn	0.946023	-0.239312	-0.263936
Zn4	Zn	0.940957	-0.356933	-0.393596
O5	O	1.002308	-0.295617	-0.326013
O6	O	1.161463	-0.245697	-0.362240
O7	O	1.043629	-0.337020	-0.160007
O8	O	0.965886	-0.140178	-0.275072
O9	O	1.157714	-0.332142	-0.275061
O10	O	1.052326	-0.136482	-0.362247
O11	O	0.960937	-0.254270	-0.160012
O12	O	0.846888	-0.259108	-0.285745
O13	O	0.957251	-0.340645	-0.496059
O14	O	0.843166	-0.345523	-0.381006
O15	O	1.047414	-0.250534	-0.487973
O16	O	1.038716	-0.451072	-0.285733
O17	O	0.952303	-0.454737	-0.380999
C18	C	0.819497	-0.303403	-0.334571
C19	C	0.741289	-0.306751	-0.338250
C20	C	0.706467	-0.263264	-0.290457
C21	C	0.632981	-0.266415	-0.293914
C22	C	0.594320	-0.313051	-0.345169
C23	C	0.629147	-0.356542	-0.392965
C24	C	0.702631	-0.353394	-0.389503
C25	C	0.372351	-0.324815	-0.358095
C26	C	0.298862	-0.327958	-0.361555
C27	C	0.302702	-0.237832	-0.262502
C28	C	0.376187	-0.234685	-0.259048
C29	C	0.411007	-0.278179	-0.306841
C30	C	0.519207	-0.316272	-0.348706
C31	C	0.486119	-0.274961	-0.303300
C32	C	0.994425	-0.478435	-0.334575
C33	C	0.991118	-0.556643	-0.338260
C34	C	1.034589	-0.591452	-0.290429
C35	C	1.031483	-0.664936	-0.293898
C36	C	0.984900	-0.703610	-0.345196
C37	C	0.941426	-0.668796	-0.393032
C38	C	0.944537	-0.595313	-0.389565
C39	C	0.973258	-0.925577	-0.358146
C40	C	0.970149	-0.999066	-0.361607
C41	C	1.060206	-0.995200	-0.262474
C42	C	1.063310	-0.921716	-0.259009
C43	C	1.019839	-0.886909	-0.306848
C44	C	0.981722	-0.778722	-0.348742
C45	C	1.023022	-0.811797	-0.303304
C46	C	1.185833	-0.287802	-0.317422
C47	C	1.264040	-0.284471	-0.313761
C48	C	1.002337	-0.295585	-0.519716
C49	C	1.002349	-0.295571	-0.602260
C50	C	1.010240	-0.112085	-0.317433
C51	C	1.013621	-0.033874	-0.313776
C52	C	0.953357	-0.344508	-0.806104
C53	C	1.016818	-0.358969	-0.853290
C54	C	1.002386	-0.295516	-0.753387
C55	C	0.938961	-0.281034	-0.853279
C56	C	1.002416	-0.295464	-0.899368
C57	C	1.065879	-0.310009	-0.799486
C58	C	0.987980	-0.232046	-0.799471
C59	C	1.051486	-0.246481	-0.846632
C60	C	1.002368	-0.295548	-0.669291
C61	C	1.002442	-0.295432	-0.983462
C62	C	1.002322	-0.295597	-0.133059
C63	C	1.002454	-0.295407	-0.050499
H64	H	0.730982	-0.388806	-0.428422
H65	H	0.975758	-0.178410	-0.775890
N66	N	0.745967	-0.215625	-0.238110
N67	N	0.788907	-0.169065	-0.260289
H68	H	0.816805	-0.135420	-0.223318
H69	H	0.604632	-0.231008	-0.254991
N70	N	1.032135	-0.426266	-0.882872
N71	N	1.085081	-0.431651	-0.920341
H72	H	1.095896	-0.479180	-0.941231
N73	N	0.871654	-0.265694	-0.882819
N74	N	0.823442	-0.255281	-0.840084
H75	H	0.775904	-0.244453	-0.860944
N76	N	0.415665	-0.187046	-0.206685
N77	N	0.384564	-0.148224	-0.164012
H78	H	0.412446	-0.114578	-0.127028
N79	N	0.267122	-0.193410	-0.213692
N80	N	0.201512	-0.196224	-0.216788
H81	H	0.176382	-0.164851	-0.182313
N82	N	0.893832	-0.708300	-0.445420
N83	N	0.829254	-0.702918	-0.443089
H84	H	0.795637	-0.730817	-0.480086
N85	N	0.259380	-0.375600	-0.413919
N86	N	0.290477	-0.414430	-0.456588
H87	H	0.262593	-0.448075	-0.493570
N88	N	0.407902	-0.369246	-0.406919
N89	N	0.373372	-0.410878	-0.452679
H90	H	0.398482	-0.442260	-0.487164
N91	N	0.525620	-0.227324	-0.250957
N92	N	0.568562	-0.180771	-0.273146
H93	H	0.596467	-0.147125	-0.236181
H94	H	0.909139	-0.566972	-0.428515
N95	N	1.110884	-0.882230	-0.206588
N96	N	1.105894	-0.890698	-0.138667
H97	H	1.139491	-0.862816	-0.101636
H98	H	0.911931	-0.385989	-0.788164
H99	H	0.597663	-0.394517	-0.434695
H100	H	1.119542	-0.322298	-0.776021
N101	N	0.479712	-0.363912	-0.401056
N102	N	0.436773	-0.410472	-0.378876
H103	H	0.408877	-0.444120	-0.415847
H104	H	1.072519	-0.559968	-0.248654
N105	N	1.075904	-0.700480	-0.245045
N106	N	1.117495	-0.665942	-0.199250
H107	H	1.148874	-0.691044	-0.164749
N108	N	1.104602	-1.030767	-0.213616
N109	N	1.101820	-1.096376	-0.216714
H110	H	1.133178	-1.121496	-0.182207
H111	H	0.932224	-1.030552	-0.403393
H112	H	0.943793	-0.810219	-0.390507
H113	H	0.937861	-0.897243	-0.397097
H114	H	1.060952	-0.780306	-0.261540
N115	N	1.103577	-0.194478	-0.868958
N116	N	1.166806	-0.198221	-0.850299
H117	H	1.203598	-0.161496	-0.866067
