data_functionalizedCrystal
_audit_creation_method	'MofGen! by Chris Wilmer'
_symmetry_space_group_name_H-M	'P1'
_symmetry_Int_Tables_number	1
_symmetry_cell_setting	triclinic
loop_
_symmetry_equiv_pos_as_xyz
  x,y,z
_cell_length_a	16.120530
_cell_length_b	12.645330
_cell_length_c	12.645324
_cell_angle_alpha	89.968341
_cell_angle_beta	87.080817
_cell_angle_gamma	87.113442
loop_
_atom_site_label
_atom_site_type_symbol
_atom_site_fract_x
_atom_site_fract_y
_atom_site_fract_z
Zn1	Zn	1.274606	-0.504243	-0.681531
Zn2	Zn	1.607939	-0.170909	-0.348197
Zn3	Zn	1.941273	0.162424	-0.014864
Zn4	Zn	1.274515	-0.681546	-0.504265
Zn5	Zn	1.607848	-0.348212	-0.170931
Zn6	Zn	1.941181	-0.014879	0.162402
Zn7	Zn	1.135183	-0.495302	-0.495296
Zn8	Zn	1.468516	-0.161969	-0.161963
Zn9	Zn	1.801850	0.171365	0.171370
Zn10	Zn	1.135167	-0.672463	-0.672506
Zn11	Zn	1.468500	-0.339130	-0.339173
Zn12	Zn	1.801834	-0.005796	-0.005840
O13	O	1.204868	-0.588388	-0.588399
O14	O	1.538201	-0.255055	-0.255066
O15	O	1.871534	0.078278	0.078267
O16	O	1.391261	-0.535305	-0.665546
O17	O	1.724594	-0.201972	-0.332213
O18	O	2.057927	0.131362	0.001121
O19	O	1.256001	-0.656899	-0.354726
O20	O	1.589334	-0.323566	-0.021392
O21	O	1.922667	0.009767	0.311941
O22	O	1.153723	-0.348144	-0.520024
O23	O	1.487056	-0.014810	-0.186691
O24	O	1.820389	0.318523	0.146643
O25	O	1.391193	-0.665569	-0.535310
O26	O	1.724527	-0.332235	-0.201976
O27	O	2.057860	0.001098	0.131357
O28	O	1.256156	-0.354712	-0.656850
O29	O	1.589490	-0.021379	-0.323516
O30	O	1.922823	0.311955	0.009817
O31	O	1.153634	-0.520067	-0.348137
O32	O	1.486968	-0.186734	-0.014803
O33	O	1.820301	0.146600	0.318530
O34	O	1.018514	-0.511260	-0.511273
O35	O	1.351848	-0.177927	-0.177940
O36	O	1.685181	0.155407	0.155393
O37	O	1.153695	-0.650089	-0.822053
O38	O	1.487029	-0.316755	-0.488719
O39	O	1.820362	0.016578	-0.155386
O40	O	1.018503	-0.641419	-0.641469
O41	O	1.351836	-0.308086	-0.308135
O42	O	1.685169	0.025247	0.025198
O43	O	1.256141	-0.526498	-0.828683
O44	O	1.589474	-0.193164	-0.495350
O45	O	1.922807	0.140169	-0.162016
O46	O	1.255985	-0.828685	-0.526559
O47	O	1.589318	-0.495352	-0.193226
O48	O	1.922652	-0.162018	0.140108
O49	O	1.153607	-0.822012	-0.650165
O50	O	1.486940	-0.488679	-0.316832
O51	O	1.820274	-0.155345	0.016501
C52	C	0.988258	-0.574385	-0.574419
C53	C	1.321591	-0.241051	-0.241086
C54	C	1.654925	0.092282	0.092247
C55	C	0.895592	-0.568419	-0.568464
C56	C	1.228925	-0.235086	-0.235130
C57	C	1.562258	0.098247	0.098203
C58	C	0.725929	-0.557504	-0.557599
C59	C	1.059262	-0.224170	-0.224266
C60	C	1.392595	0.109163	0.109067
C61	C	0.684647	-0.619351	-0.619277
C62	C	1.017981	-0.286018	-0.285944
C63	C	1.351314	0.047316	0.047390
C64	C	0.590241	-0.613277	-0.613232
C65	C	0.923574	-0.279944	-0.279899
C66	C	1.256908	0.053389	0.053434
C67	C	0.820343	-0.563576	-0.563643
C68	C	1.153677	-0.230242	-0.230309
C69	C	1.487010	0.103091	0.103024
C70	C	1.204807	-0.863814	-0.588381
C71	C	1.538140	-0.530481	-0.255047
C72	C	1.871474	-0.197147	0.078286
C73	C	1.204857	-0.981647	-0.588413
C74	C	1.538191	-0.648314	-0.255080
C75	C	1.871524	-0.314981	0.078254
C76	C	1.140717	-1.145075	-0.666443
C77	C	1.474050	-0.811741	-0.333110
C78	C	1.807383	-0.478408	0.000223
C79	C	1.140389	-1.022494	-0.666158
C80	C	1.473722	-0.689161	-0.332825
C81	C	1.807055	-0.355827	0.000508
C82	C	1.181072	-1.024719	-0.475159
C83	C	1.514405	-0.691386	-0.141826
C84	C	1.847739	-0.358053	0.191507
C85	C	1.180680	-1.147292	-0.475633
C86	C	1.514014	-0.813959	-0.142299
C87	C	1.847347	-0.480626	0.191034
C88	C	1.293175	-1.154435	-0.622756
C89	C	1.626509	-0.821101	-0.289422
C90	C	1.959842	-0.487768	0.043911
C91	C	1.292634	-1.031793	-0.625164
C92	C	1.625967	-0.698459	-0.291830
C93	C	1.959301	-0.365126	0.041503
C94	C	1.422323	-0.602447	-0.602435
C95	C	1.755657	-0.269114	-0.269102
C96	C	2.088990	0.064219	0.064232
C97	C	1.514990	-0.608438	-0.608416
C98	C	1.848323	-0.275105	-0.275083
C99	C	2.181656	0.058228	0.058251
C100	C	1.204927	-0.588277	-0.864909
C101	C	1.538260	-0.254944	-0.531575
C102	C	1.871593	0.078389	-0.198242
C103	C	1.204952	-0.588230	-0.982740
C104	C	1.538285	-0.254897	-0.649407
C105	C	1.871618	0.078437	-0.316074
C106	C	1.204952	-0.311888	-0.588443
C107	C	1.538285	0.021445	-0.255110
C108	C	1.871618	0.354778	0.078224
C109	C	1.204987	-0.194061	-0.588461
C110	C	1.538321	0.139273	-0.255128
C111	C	1.871654	0.472606	0.078205
C112	C	1.269414	-0.510462	-1.031794
C113	C	1.602748	-0.177129	-0.698461
C114	C	1.936081	0.156204	-0.365128
C115	C	1.269691	-0.510694	-1.154372
C116	C	1.603024	-0.177361	-0.821039
C117	C	1.936358	0.155972	-0.487706
C118	C	1.228510	-0.701520	-1.152139
C119	C	1.561843	-0.368187	-0.818805
C120	C	1.895177	-0.034854	-0.485472
C121	C	1.228954	-0.701103	-1.029569
C122	C	1.562287	-0.367770	-0.696236
C123	C	1.895620	-0.034436	-0.362903
C124	C	1.116819	-0.553618	-1.022235
C125	C	1.450152	-0.220285	-0.688902
C126	C	1.783485	0.113048	-0.355569
C127	C	1.117315	-0.551158	-1.144874
C128	C	1.450649	-0.217825	-0.811541
C129	C	1.783982	0.115509	-0.478208
C130	C	1.204857	-0.588425	-0.312969
C131	C	1.538191	-0.255092	0.020364
C132	C	1.871524	0.078241	0.353698
C133	C	1.204994	-0.588184	-0.195148
C134	C	1.538327	-0.254851	0.138185
C135	C	1.871660	0.078482	0.471518
H136	H	0.720206	-0.676860	-0.676623
H137	H	1.053540	-0.343527	-0.343289
H138	H	1.386873	-0.010193	-0.009956
Cl139	Cl	1.326888	-0.746277	-1.205890
Cl140	Cl	1.660221	-0.412944	-0.872557
Cl141	Cl	1.993554	-0.079611	-0.539224
Cl142	Cl	1.039448	-0.970837	-0.630393
Cl143	Cl	1.372781	-0.637504	-0.297060
Cl144	Cl	1.706115	-0.304170	0.036274
Cl145	Cl	1.320332	-0.988561	-0.753891
Cl146	Cl	1.653665	-0.655227	-0.420558
Cl147	Cl	1.986998	-0.321894	-0.087225
Cl148	Cl	1.083656	-0.427748	-0.972389
Cl149	Cl	1.416989	-0.094414	-0.639056
Cl150	Cl	1.750322	0.238919	-0.305723
Cl151	Cl	0.671031	-0.468719	-0.469067
Cl152	Cl	1.004364	-0.135385	-0.135734
Cl153	Cl	1.337698	0.197948	0.197599
Cl154	Cl	1.040410	-1.186333	-0.631112
Cl155	Cl	1.373743	-0.852999	-0.297779
Cl156	Cl	1.707077	-0.519666	0.035554
Cl157	Cl	1.081150	-1.185174	-0.431799
Cl158	Cl	1.414484	-0.851840	-0.098466
Cl159	Cl	1.747817	-0.518507	0.234867
H160	H	1.155270	-0.993291	-0.749958
H161	H	1.488603	-0.659957	-0.416624
H162	H	1.821937	-0.326624	-0.083291
H163	H	1.155461	-1.175428	-0.750506
H164	H	1.488795	-0.842095	-0.417173
H165	H	1.822128	-0.508762	-0.083839
Cl166	Cl	1.370531	-0.546814	-1.206175
Cl167	Cl	1.703865	-0.213480	-0.872842
Cl168	Cl	2.037198	0.119853	-0.539509
Cl169	Cl	1.249807	-1.197560	-0.382388
Cl170	Cl	1.583140	-0.864227	-0.049055
Cl171	Cl	1.916474	-0.530893	0.284278
H172	H	1.254893	-0.426376	-1.001403
H173	H	1.588227	-0.093043	-0.668070
H174	H	1.921560	0.240291	-0.334737
H175	H	1.226400	-0.998494	-0.415220
H176	H	1.559733	-0.665161	-0.081887
H177	H	1.893066	-0.331828	0.251447
Cl178	Cl	1.369673	-0.546186	-0.990727
Cl179	Cl	1.703006	-0.212852	-0.657394
Cl180	Cl	2.036339	0.120481	-0.324060
H181	H	1.117278	-0.989993	-0.446372
H182	H	1.450611	-0.656659	-0.113039
H183	H	1.783945	-0.323326	0.220294
Cl184	Cl	1.326674	-1.204200	-0.748556
Cl185	Cl	1.660007	-0.870866	-0.415223
Cl186	Cl	1.993341	-0.537533	-0.081889
Cl187	Cl	1.370463	-0.989499	-0.544562
Cl188	Cl	1.703796	-0.656166	-0.211228
Cl189	Cl	2.037130	-0.322832	0.122105
H190	H	1.341058	-1.186521	-0.566027
H191	H	1.674392	-0.853187	-0.232694
H192	H	2.007725	-0.519854	0.100639
Cl193	Cl	1.039248	-0.631463	-1.187072
Cl194	Cl	1.372582	-0.298130	-0.853739
Cl195	Cl	1.705915	0.035203	-0.520405
H196	H	1.254997	-0.426848	-1.183532
H197	H	1.588330	-0.093514	-0.850199
H198	H	1.921663	0.239819	-0.516866
H199	H	1.293369	-0.729724	-1.005133
H200	H	1.626703	-0.396391	-0.671800
H201	H	1.960036	-0.063057	-0.338467
H202	H	1.099575	-0.467724	-1.172836
H203	H	1.432908	-0.134390	-0.839503
H204	H	1.766242	0.198943	-0.506169
H205	H	1.184009	-0.761324	-0.996967
H206	H	1.517342	-0.427990	-0.663634
H207	H	1.850676	-0.094657	-0.330300
Cl208	Cl	1.158264	-0.793792	-1.192552
Cl209	Cl	1.491597	-0.460458	-0.859219
Cl210	Cl	1.824931	-0.127125	-0.525885
H211	H	1.068794	-0.610186	-0.990099
H212	H	1.402128	-0.276853	-0.656766
H213	H	1.735461	0.056480	-0.323433
