data_functionalizedCrystal
_audit_creation_method	'MofGen! by Chris Wilmer'
_symmetry_space_group_name_H-M	'P1'
_symmetry_Int_Tables_number	1
_symmetry_cell_setting	triclinic
loop_
_symmetry_equiv_pos_as_xyz
  x,y,z
_cell_length_a	10.654562
_cell_length_b	10.489746
_cell_length_c	9.130313
_cell_angle_alpha	89.998414
_cell_angle_beta	89.996930
_cell_angle_gamma	84.515702
loop_
_atom_site_label
_atom_site_type_symbol
_atom_site_fract_x
_atom_site_fract_y
_atom_site_fract_z
O1	O	1.667912	0.179233	-0.121897
O2	O	1.302444	0.196286	-0.121879
O3	O	1.493491	0.002158	-0.121877
O4	O	1.476865	0.373360	-0.121898
O5	O	1.493488	0.002163	0.121721
O6	O	1.302441	0.196291	0.121720
O7	O	1.667910	0.179238	0.121702
Cu8	Cu	1.485175	0.187765	0.143953
Cu9	Cu	1.485178	0.187759	-0.144130
O10	O	1.476863	0.373366	0.121700
C11	C	1.255644	0.195033	-0.000077
C12	C	1.116200	0.191276	-0.000070
C13	C	1.050667	0.189527	0.132704
C14	C	0.919643	0.186008	0.132680
C15	C	0.919696	0.185993	-0.132905
C16	C	1.050719	0.189503	-0.132879
C17	C	1.050635	0.189542	0.286038
C18	C	0.919611	0.186022	0.286014
C19	C	1.492232	-0.045370	-0.000078
C20	C	1.488471	-0.186998	-0.000079
C21	C	1.364688	-0.339801	-0.000091
C22	C	1.426576	-0.262439	-0.120198
C23	C	1.426602	-0.262475	0.119971
C24	C	1.543722	-0.361982	-0.120317
C25	C	1.543731	-0.362023	0.119960
C26	C	1.605705	-0.284710	-0.000176
C27	C	1.714709	0.180491	-0.000103
C28	C	1.854153	0.184247	-0.000120
C29	C	1.478121	0.420894	-0.000102
C30	C	1.481882	0.562521	-0.000111
N31	N	1.485183	0.187769	0.346576
N32	N	1.485181	0.187745	-0.346753
C33	C	1.569800	0.101839	0.423229
C34	C	1.569797	0.101823	0.576565
C35	C	1.400554	0.273679	0.576584
C36	C	1.400553	0.273687	0.423249
C37	C	1.667515	0.002622	0.423219
C38	C	1.667511	0.002607	0.576556
H39	H	1.080254	0.282573	0.333609
Br40	Br	1.775677	-0.243981	-0.000287
Br41	Br	1.828384	0.039025	0.645924
Br42	Br	1.631699	-0.160788	0.353846
H43	H	1.331650	0.343631	0.639028
H44	H	1.331640	0.343647	0.360840
Br45	Br	0.830823	0.183566	-0.313136
Br46	Br	1.344126	-0.189951	-0.289443
Br47	Br	1.127677	0.042624	0.384190
Br48	Br	0.870188	0.031114	0.365667
Br49	Br	1.194843	-0.380935	-0.000273
Br50	Br	1.139658	0.191841	-0.313079
H51	H	0.873367	0.274180	0.344874
Br52	Br	1.626129	-0.434149	-0.289754
Br53	Br	1.616564	-0.151806	0.655832
Br54	Br	1.626118	-0.434562	0.289206
Br55	Br	1.344108	-0.190018	0.289211
H56	H	1.758713	0.033694	0.375654
