data_functionalizedCrystal
_audit_creation_method	'MofGen! by Chris Wilmer'
_symmetry_space_group_name_H-M	'P1'
_symmetry_Int_Tables_number	1
_symmetry_cell_setting	triclinic
loop_
_symmetry_equiv_pos_as_xyz
  x,y,z
_cell_length_a	20.919309
_cell_length_b	23.196402
_cell_length_c	23.196402
_cell_angle_alpha	90.000037
_cell_angle_beta	57.442794
_cell_angle_gamma	62.590980
loop_
_atom_site_label
_atom_site_type_symbol
_atom_site_fract_x
_atom_site_fract_y
_atom_site_fract_z
Zr1	Zr	0.700763	0.579961	-0.100255
O2	O	0.834326	0.492596	-0.196990
O3	O	0.567200	0.603492	-0.067351
O4	O	0.700763	0.608177	-0.192307
O5	O	0.700763	0.487913	0.022836
O6	O	0.700763	0.703048	-0.192309
O7	O	0.700763	0.487911	-0.072034
O8	O	0.461844	0.694668	0.031215
O9	O	0.939682	0.496293	-0.200687
O10	O	0.622136	0.688257	-0.057245
O11	O	0.622136	0.617458	0.013557
O12	O	0.779389	0.622973	-0.133562
O13	O	0.779389	0.552174	-0.062760
Zr14	Zr	0.700762	0.731273	0.051049
Zr15	Zr	0.700762	0.731269	-0.100258
Zr16	Zr	0.700763	0.579965	0.051053
Zr17	Zr	0.868794	0.585859	-0.106151
Zr18	Zr	0.532731	0.725375	0.056945
O19	O	0.834325	0.707741	0.018145
O20	O	0.834325	0.707736	-0.196995
O21	O	0.834325	0.492601	0.018150
O22	O	0.567199	0.818638	0.147785
O23	O	0.567200	0.818633	-0.067355
O24	O	0.567200	0.603498	0.147790
O25	O	0.700762	0.823321	-0.072042
O26	O	0.700762	0.703056	0.143101
O27	O	0.700762	0.608186	0.143103
O28	O	0.700762	0.823323	0.022829
O29	O	0.939682	0.616563	-0.200690
O30	O	0.461843	0.694671	0.151484
O31	O	0.461843	0.814940	0.151481
O32	O	0.461843	0.814937	0.031212
O33	O	0.939682	0.496296	-0.080418
O34	O	0.939681	0.616566	-0.080420
O35	O	0.622136	0.688260	0.084357
O36	O	0.622136	0.759060	0.013554
O37	O	0.779389	0.693776	-0.062763
O38	O	0.779389	0.622977	0.008040
C39	C	0.490581	0.648240	-0.017228
C40	C	0.419247	0.645736	-0.014725
C41	C	0.700763	0.466354	-0.024599
C42	C	0.700763	0.402120	-0.024597
C43	C	0.700773	-0.060719	0.027651
C44	C	0.700766	-0.000361	0.027657
C45	C	0.700768	0.029819	-0.024608
C46	C	0.700752	-0.000353	-0.076873
C47	C	0.700749	-0.060706	-0.076873
C48	C	0.753526	0.103535	-0.090254
C49	C	0.753534	0.163884	-0.090254
C50	C	0.700772	0.215968	-0.024609
C51	C	0.648014	0.207691	0.041042
C52	C	0.648011	0.147338	0.041042
C53	C	0.700770	0.095261	-0.024614
C54	C	0.700775	0.311582	0.027662
C55	C	0.700764	0.371943	0.027668
C56	C	0.700758	0.371946	-0.076867
C57	C	0.700761	0.311590	-0.076868
C58	C	0.700774	0.281410	-0.024604
C59	C	0.385735	0.681514	-0.050507
C60	C	0.318704	0.679163	-0.048149
C61	C	0.285193	0.641030	-0.010011
C62	C	0.318708	0.605251	0.025775
C63	C	0.385733	0.607606	0.023421
C64	C	0.082818	0.632074	-0.001049
C65	C	0.015790	0.629719	0.001302
C66	C	0.015790	0.703634	-0.072621
C67	C	0.082820	0.705982	-0.074976
C68	C	0.116326	0.670206	-0.039187
C69	C	0.216679	0.638624	-0.007602
C70	C	0.184834	0.672616	-0.041593
C71	C	0.910944	0.662994	-0.031978
C72	C	0.982278	0.665498	-0.034481
C73	C	0.700763	0.655612	-0.213866
C74	C	0.700763	0.655610	-0.278100
C75	C	0.700762	0.844880	-0.024607
C76	C	0.700762	0.909114	-0.024609
C77	C	0.700773	0.603354	-0.740939
C78	C	0.700767	0.603353	-0.680582
C79	C	0.700768	0.655618	-0.650401
C80	C	0.700752	0.707897	-0.680572
C81	C	0.700749	0.707899	-0.740924
C82	C	0.753526	0.673757	-0.580387
C83	C	0.753534	0.673749	-0.520038
C84	C	0.700772	0.655614	-0.464252
C85	C	0.648014	0.637470	-0.468828
C86	C	0.648011	0.637473	-0.529180
C87	C	0.700770	0.655621	-0.584959
C88	C	0.700775	0.603340	-0.368639
C89	C	0.700763	0.603345	-0.308277
C90	C	0.700757	0.707886	-0.308273
C91	C	0.700760	0.707884	-0.368629
C92	C	0.700773	0.655608	-0.398811
C93	C	0.700762	0.655622	0.164660
C94	C	0.700762	0.655623	0.228894
C95	C	0.490581	0.837503	-0.017232
C96	C	0.419247	0.899233	-0.014731
C97	C	0.490581	0.648244	0.172035
C98	C	0.419247	0.645742	0.238772
C99	C	0.490580	0.837508	0.172031
C100	C	0.419246	0.899240	0.238766
C101	C	0.910945	0.473726	-0.221236
C102	C	0.982279	0.411994	-0.287972
C103	C	0.910945	0.473731	-0.031973
C104	C	0.982278	0.412000	-0.034475
C105	C	0.910944	0.662989	-0.221241
C106	C	0.982278	0.665491	-0.287978
C107	C	0.385748	0.891264	-0.050519
C108	C	0.318731	0.949261	-0.048183
C109	C	0.285210	1.015226	-0.010054
C110	C	0.318716	1.023194	0.025735
C111	C	0.385736	0.965198	0.023394
C112	C	0.385748	0.681526	0.307075
C113	C	0.318732	0.679172	0.369788
C114	C	0.285211	0.641039	0.364195
C115	C	0.318717	0.605252	0.295884
C116	C	0.385737	0.607601	0.233174
C117	C	0.385747	0.965192	0.233148
C118	C	0.318731	1.023202	0.295847
C119	C	0.285210	1.015258	0.364164
C120	C	0.318716	0.949298	0.369781
C121	C	0.385736	0.891290	0.307082
C122	C	1.015786	0.346042	-0.282354
C123	C	1.082823	0.288032	-0.345054
C124	C	1.116347	0.295977	-0.413371
C125	C	1.082837	0.361937	-0.418988
C126	C	1.015806	0.419944	-0.356289
C127	C	1.015784	0.419970	0.001307
C128	C	1.082819	0.361974	-0.001047
C129	C	1.116342	0.296009	-0.039178
C130	C	1.082834	0.288040	-0.074964
C131	C	1.015805	0.346036	-0.072614
C132	C	1.015777	0.703631	-0.282362
C133	C	1.082794	0.705995	-0.345062
C134	C	1.116315	0.670216	-0.413378
C135	C	1.082809	0.632075	-0.418993
C136	C	1.015789	0.629715	-0.356293
H137	H	0.700780	-0.085288	0.070209
H138	H	1.110139	0.234324	-0.106009
H139	H	0.988526	0.339538	-0.101750
H140	H	0.700756	0.750445	-0.393195
H141	H	0.230638	1.062445	-0.008153
H142	H	0.291457	1.076904	0.291261
H143	H	1.110141	0.368397	-0.474619
H144	H	0.988525	0.473644	-0.360871
H145	H	0.605052	0.622702	-0.532902
H146	H	0.413040	0.837557	-0.081576
H147	H	1.110091	0.368475	0.028098
H148	H	0.230640	0.639132	0.415264
H149	H	0.413002	0.837590	0.311667
H150	H	0.413033	0.712578	0.311643
H151	H	0.110087	0.602945	0.028097
H152	H	0.700740	-0.085268	-0.119430
H153	H	0.988495	0.732767	-0.226741
H154	H	0.700750	0.750452	-0.655995
H155	H	0.988495	0.473677	0.032362
H156	H	0.110104	0.737033	-0.106031
H157	H	0.413002	0.971696	0.052542
H158	H	0.413030	0.971674	0.177527
H159	H	0.291414	1.076911	0.056778
H160	H	1.110096	0.234331	-0.340466
H161	H	0.291415	0.574204	0.291341
H162	H	0.291459	0.708318	0.425403
H163	H	0.413003	0.578464	0.177561
H164	H	0.605053	0.622700	-0.423407
H165	H	1.170887	0.672143	-0.464427
H166	H	1.110067	0.737053	-0.340477
H167	H	0.230638	1.062498	0.415212
H168	H	0.291414	0.942840	0.425413
H169	H	1.170928	0.248737	-0.464419
H170	H	0.988494	0.339559	-0.226732
H171	H	0.700782	0.560776	-0.393211
H172	H	0.700775	0.024205	0.070215
H173	H	0.413020	0.712563	-0.081566
H174	H	0.700767	0.560782	-0.283712
H175	H	1.170922	0.248790	-0.041085
H176	H	0.605051	0.140603	0.094496
H177	H	0.988521	0.598655	-0.360876
H178	H	0.605052	0.250098	0.094497
H179	H	0.700782	0.287010	0.070221
H180	H	0.796496	0.688519	-0.516321
H181	H	1.110112	0.602945	-0.474624
H182	H	0.700767	0.396508	0.070228
H183	H	0.700757	0.287024	-0.119425
H184	H	0.700754	0.396520	-0.119421
H185	H	0.796494	0.170617	-0.143710
H186	H	0.700750	0.024224	-0.119427
H187	H	0.796488	0.061131	-0.143715
H188	H	0.291418	0.708297	-0.077285
H189	H	0.796496	0.688523	-0.625809
H190	H	-0.011498	0.732762	-0.101759
H191	H	-0.011491	0.598663	0.032357
H192	H	0.700753	0.750443	-0.283698
H193	H	0.291413	0.574205	0.056832
H194	H	0.413020	0.578469	0.052556
H195	H	0.189386	0.607576	0.023450
H196	H	0.212118	0.703667	-0.072641
H197	H	0.700781	0.560789	-0.765510
H198	H	0.700740	0.750464	-0.765486
H199	H	0.700776	0.560788	-0.656016
H200	H	0.291459	0.942760	-0.077327
