data_functionalizedCrystal
_audit_creation_method	'MofGen! by Chris Wilmer'
_symmetry_space_group_name_H-M	'P1'
_symmetry_Int_Tables_number	1
_symmetry_cell_setting	triclinic
loop_
_symmetry_equiv_pos_as_xyz
  x,y,z
_cell_length_a	19.805407
_cell_length_b	17.077402
_cell_length_c	17.077396
_cell_angle_alpha	89.970216
_cell_angle_beta	89.979457
_cell_angle_gamma	90.022883
loop_
_atom_site_label
_atom_site_type_symbol
_atom_site_fract_x
_atom_site_fract_y
_atom_site_fract_z
Zn1	Zn	-1.034759	0.312508	0.443857
Zn2	Zn	-1.034679	0.443783	0.312588
Zn3	Zn	-0.921571	0.312535	0.312603
Zn4	Zn	-0.921544	0.443736	0.443810
O5	O	-0.978138	0.378141	0.378215
O6	O	-1.129465	0.329930	0.426458
O7	O	-1.019653	0.426404	0.202743
O8	O	-0.936631	0.202685	0.330040
O9	O	-1.129406	0.426377	0.330015
O10	O	-1.019789	0.202665	0.426472
O11	O	-0.936553	0.329976	0.202754
O12	O	-0.826851	0.329931	0.329994
O13	O	-0.936584	0.426297	0.553663
O14	O	-0.826831	0.426323	0.426391
O15	O	-1.019763	0.329885	0.553698
O16	O	-1.019626	0.553624	0.329969
O17	O	-0.936506	0.553589	0.426377
C18	C	-0.802282	0.378126	0.378189
C19	C	-0.727050	0.378138	0.378197
C20	C	-0.978073	0.582088	0.378183
C21	C	-0.978107	0.669338	0.378196
C22	C	-1.154681	0.378156	0.378241
C23	C	-1.229913	0.378163	0.378252
C24	C	-0.691713	0.428405	0.428310
C25	C	-0.621025	0.428407	0.428321
C26	C	-0.585675	0.378144	0.378215
C27	C	-0.621017	0.327871	0.328100
C28	C	-0.691704	0.327867	0.328093
C29	C	-0.335943	0.327889	0.328126
C30	C	-0.265251	0.327899	0.328134
C31	C	-0.265264	0.428429	0.428353
C32	C	-0.335951	0.428424	0.428347
C33	C	-0.371287	0.378149	0.378235
C34	C	-0.447936	0.378147	0.378225
C35	C	-0.509027	0.378149	0.378220
C36	C	-0.978179	0.378083	0.582959
C37	C	-0.978197	0.378058	0.670209
C38	C	-0.978222	0.173396	0.378263
C39	C	-0.978258	0.086146	0.378284
C40	C	-1.021431	0.710320	0.328051
C41	C	-1.021465	0.792301	0.328071
C42	C	-0.978169	0.833298	0.378233
C43	C	-0.934843	0.792310	0.428384
C44	C	-0.934813	0.710331	0.428367
C45	C	-0.934905	0.963180	0.428414
C46	C	-0.934933	1.045164	0.428430
C47	C	-1.021556	1.045150	0.328117
C48	C	-1.021527	0.963171	0.328100
C49	C	-0.978200	0.922189	0.378251
C50	C	-0.978136	0.378142	0.174267
C51	C	-0.978250	0.377945	0.087017
C52	C	-1.021509	0.327852	0.711219
C53	C	-1.021517	0.327826	0.793199
C54	C	-0.978216	0.378010	0.834168
C55	C	-0.934898	0.428219	0.793153
C56	C	-0.934887	0.428240	0.711174
C57	C	-0.934926	0.428172	0.964023
C58	C	-0.934937	0.428151	1.046008
C59	C	-1.021556	0.327757	1.046048
C60	C	-1.021545	0.327779	0.964069
C61	C	-0.978228	0.377988	0.923059
H62	H	-0.720490	0.469337	0.469109
F63	F	-0.373541	0.274379	0.274794
F64	F	-1.067606	0.919540	0.274711
F65	F	-1.067640	0.274416	0.836841
F66	F	-0.583420	0.481908	0.481658
F67	F	-0.888846	0.481557	1.089609
F68	F	-0.729312	0.274364	0.274758
F69	F	-0.888848	1.088795	0.481811
H70	H	-1.056743	0.825665	0.287236
F71	F	-0.888821	0.481609	0.920379
F72	F	-0.888768	0.835944	0.481775
F73	F	-0.888811	0.481626	0.836758
H74	H	-0.236471	0.286964	0.287332
F75	F	-0.888793	0.919565	0.481792
F76	F	-1.067664	1.088767	0.274737
H77	H	-0.592229	0.286943	0.287306
H78	H	-0.899535	0.676964	0.469202
H79	H	-0.364730	0.469355	0.469146
F80	F	-1.067601	0.274442	0.667623
H81	H	-1.056808	0.286918	0.930714
F82	F	-1.067657	0.274320	1.089694
F83	F	-0.227652	0.481936	0.481688
H84	H	-1.056685	0.676946	0.287199
F85	F	-0.888786	0.481675	0.667529
