data_functionalizedCrystal
_audit_creation_method	'MofGen! by Chris Wilmer'
_symmetry_space_group_name_H-M	'P1'
_symmetry_Int_Tables_number	1
_symmetry_cell_setting	triclinic
loop_
_symmetry_equiv_pos_as_xyz
  x,y,z
_cell_length_a	15.944564
_cell_length_b	14.421503
_cell_length_c	15.944551
_cell_angle_alpha	90.003340
_cell_angle_beta	83.501336
_cell_angle_gamma	89.996857
loop_
_atom_site_label
_atom_site_type_symbol
_atom_site_fract_x
_atom_site_fract_y
_atom_site_fract_z
O1	O	-1.114523	0.077017	-0.108371
O2	O	-0.869974	0.077040	-0.121716
O3	O	-0.998927	0.077020	0.007231
O4	O	-0.985570	0.077038	-0.237318
O5	O	-0.998905	-0.077204	0.007211
O6	O	-0.869953	-0.077183	-0.121736
O7	O	-1.114501	-0.077206	-0.108391
Cu8	Cu	-0.992225	-0.091277	-0.115065
Cu9	Cu	-0.992250	0.091110	-0.115042
O10	O	-0.985549	-0.077186	-0.237338
C11	C	-0.838670	-0.000069	-0.121170
C12	C	-0.745425	-0.000060	-0.119504
N13	N	-0.992214	-0.219558	-0.115080
C14	C	-0.530569	-0.000084	-0.035589
C15	C	-0.469560	0.075959	-0.074539
C16	C	-0.574700	-0.000071	-0.116488
C17	C	-0.469561	-0.076093	-0.074578
C18	C	-0.409788	-0.000086	-0.113570
C19	C	-0.514919	0.076035	-0.155461
C20	C	-0.514926	-0.076086	-0.155488
C21	C	-0.453935	-0.000024	-0.194497
C22	C	-0.669701	-0.000062	-0.118167
C23	C	-0.314787	-0.000089	-0.111898
C24	C	-0.932576	-0.469202	-0.174679
C25	C	-1.008475	-0.531011	-0.190989
C26	C	-0.992234	-0.408719	-0.115060
C27	C	-0.916354	-0.531005	-0.098769
C28	C	-0.992247	-0.591441	-0.115043
C29	C	-1.068172	-0.469167	-0.131409
C30	C	-0.976001	-0.469156	-0.039156
C31	C	-1.051955	-0.530936	-0.055434
C32	C	-0.992225	-0.303458	-0.115072
C33	C	-0.992264	-0.696700	-0.115030
C34	C	-0.145807	-0.000096	-0.108925
C35	C	-0.239057	-0.000098	-0.110558
C36	C	-0.998361	-0.000092	0.038515
C37	C	-0.996699	-0.000093	0.131761
N38	N	-0.992269	0.219392	-0.115020
C39	C	-0.986114	-0.000072	-0.268622
C40	C	-0.987777	-0.000065	-0.361868
C41	C	-0.912795	-0.000072	0.346622
C42	C	-0.951747	-0.076117	0.407628
C43	C	-0.993692	-0.000085	0.302487
C44	C	-0.951787	0.075935	0.407630
C45	C	-0.990781	-0.000074	0.467400
C46	C	-1.032666	-0.076193	0.362265
C47	C	-1.032695	0.075927	0.362261
C48	C	-1.071705	-0.000136	0.423249
C49	C	-0.995366	-0.000092	0.207485
C50	C	-0.989113	-0.000073	0.562401
H51	H	-0.449459	0.140243	-0.040314
C52	C	-0.442414	-0.162945	-0.028352
C53	C	-0.509196	-0.233442	0.008507
C54	C	-0.482053	-0.320288	0.054739
C55	C	-0.388127	-0.336637	0.064113
C56	C	-0.321338	-0.266137	0.027254
C57	C	-0.348482	-0.179291	-0.018979
H58	H	-0.578731	-0.221342	0.001568
H59	H	-0.531494	-0.372477	0.082024
H60	H	-0.368033	-0.400925	0.098337
H61	H	-0.251803	-0.278237	0.034192
H62	H	-0.299040	-0.127103	-0.046264
C63	C	-0.957407	-0.432413	0.047523
C64	C	-1.022758	-0.371318	0.100294
C65	C	-1.004153	-0.334574	0.186973
C66	C	-0.920197	-0.358925	0.220880
C67	C	-0.854840	-0.420023	0.168109
C68	C	-0.873445	-0.456767	0.081430
H69	H	-1.084913	-0.353290	0.075195
H70	H	-1.052535	-0.289345	0.226038
H71	H	-0.906424	-0.331725	0.285045
H72	H	-0.792685	-0.438052	0.193208
H73	H	-0.825063	-0.501996	0.042365
C74	C	-0.541923	0.162989	-0.201631
C75	C	-0.603797	0.232761	-0.155048
C76	C	-0.630803	0.319717	-0.201213
C77	C	-0.595934	0.336900	-0.293961
C78	C	-0.534056	0.267126	-0.340549
C79	C	-0.507051	0.180171	-0.294385
H80	H	-0.629613	0.220043	-0.086385
H81	H	-0.676609	0.371368	-0.166724
H82	H	-0.615925	0.401270	-0.328135
H83	H	-0.508241	0.279845	-0.409212
H84	H	-0.461244	0.128520	-0.328873
C85	C	-0.409126	0.000032	-0.285281
C86	C	-0.312020	-0.000723	-0.300570
C87	C	-0.267207	-0.000663	-0.391352
C88	C	-0.319500	0.000152	-0.466844
C89	C	-0.416612	0.000907	-0.451557
C90	C	-0.461425	0.000848	-0.360775
H91	H	-0.273304	-0.001327	-0.244685
H92	H	-0.195318	-0.001223	-0.402668
H93	H	-0.286327	0.000196	-0.534046
H94	H	-0.455327	0.001511	-0.507442
H95	H	-0.533313	0.001407	-0.349459
C96	C	-1.078891	0.162772	0.335065
C97	C	-1.044946	0.259982	0.352654
C98	C	-1.091134	0.346836	0.325455
C99	C	-1.171268	0.336478	0.280665
C100	C	-1.205218	0.239264	0.263073
C101	C	-1.159029	0.152410	0.290273
H102	H	-0.985622	0.267653	0.385812
H103	H	-1.066002	0.418800	0.338478
H104	H	-1.205459	0.400772	0.260531
H105	H	-1.264542	0.231593	0.229916
H106	H	-1.184162	0.080446	0.277250
H107	H	-1.138912	-0.000186	0.456405
H108	H	-1.132362	-0.442119	-0.145257
C109	C	-0.822087	-0.000160	0.301622
C110	C	-0.761894	-0.080713	0.315858
C111	C	-0.671189	-0.080806	0.270857
C112	C	-0.640676	-0.000346	0.211620
C113	C	-0.700870	0.080213	0.197381
C114	C	-0.791575	0.080306	0.242382
H115	H	-0.784481	-0.140280	0.359711
H116	H	-0.626630	-0.140442	0.281398
H117	H	-0.573531	-0.000415	0.178307
H118	H	-0.678283	0.139780	0.153528
H119	H	-0.836134	0.139942	0.231841
C120	C	-1.120189	-0.567337	0.012688
C121	C	-1.132416	-0.672469	0.025811
C122	C	-1.200652	-0.708873	0.093928
C123	C	-1.256662	-0.640144	0.148922
C124	C	-1.244437	-0.535005	0.135801
C125	C	-1.176201	-0.498602	0.067684
H126	H	-1.090952	-0.723353	-0.014900
H127	H	-1.209701	-0.786704	0.103641
H128	H	-1.307174	-0.667092	0.199346
H129	H	-1.285900	-0.484122	0.176512
H130	H	-1.167151	-0.420770	0.057971
H131	H	-1.066844	-0.140554	0.342265
H132	H	-0.917522	-0.140401	0.427730
C133	C	-0.542126	-0.162930	-0.201682
C134	C	-0.524544	-0.260140	-0.167732
C135	C	-0.551750	-0.346994	-0.213917
C136	C	-0.596538	-0.336637	-0.294051
C137	C	-0.614123	-0.239422	-0.328005
C138	C	-0.586917	-0.152569	-0.281821
H139	H	-0.491387	-0.267811	-0.108408
H140	H	-0.538732	-0.418958	-0.188781
H141	H	-0.616677	-0.400931	-0.328240
H142	H	-0.647280	-0.231752	-0.387330
H143	H	-0.599935	-0.080605	-0.306956
C144	C	-0.864490	-0.432571	-0.242838
C145	C	-0.868679	-0.457011	-0.336289
C146	C	-0.800599	-0.420379	-0.404449
C147	C	-0.728331	-0.359306	-0.379158
C148	C	-0.724139	-0.334862	-0.285702
C149	C	-0.792219	-0.371495	-0.217542
H150	H	-0.922179	-0.502224	-0.355016
H151	H	-0.803702	-0.438474	-0.473632
H152	H	-0.677934	-0.332188	-0.429614
H153	H	-0.670639	-0.289649	-0.266976
H154	H	-0.789116	-0.353400	-0.148359
C155	C	-0.829659	-0.567699	-0.080155
C156	C	-0.749839	-0.543331	-0.139707
C157	C	-0.663143	-0.580022	-0.121102
C158	C	-0.656267	-0.641080	-0.042945
C159	C	-0.736090	-0.665451	0.016612
C160	C	-0.822786	-0.628760	-0.001993
H161	H	-0.754927	-0.498130	-0.197568
H162	H	-0.604053	-0.561981	-0.165190
H163	H	-0.592089	-0.668241	-0.029172
H164	H	-0.731002	-0.710652	0.074473
H165	H	-0.881876	-0.646801	0.042095
H166	H	-1.022218	-0.558180	-0.255173
C167	C	-0.905565	0.162789	0.434780
C168	C	-0.896195	0.179139	0.528706
C169	C	-0.849967	0.265987	0.555852
C170	C	-0.813110	0.336486	0.489070
C171	C	-0.822478	0.320138	0.395137
C172	C	-0.868706	0.233289	0.367992
H173	H	-0.923480	0.126950	0.578148
H174	H	-0.843032	0.278089	0.625387
H175	H	-0.778889	0.400777	0.509164
H176	H	-0.795193	0.372327	0.345696
H177	H	-0.875641	0.221188	0.298457
H178	H	-0.563902	0.000005	0.031547
