data_functionalizedCrystal
_audit_creation_method	'MofGen! by Chris Wilmer'
_symmetry_space_group_name_H-M	'P1'
_symmetry_Int_Tables_number	1
_symmetry_cell_setting	triclinic
loop_
_symmetry_equiv_pos_as_xyz
  x,y,z
_cell_length_a	19.288859
_cell_length_b	19.288859
_cell_length_c	17.766277
_cell_angle_alpha	89.993887
_cell_angle_beta	89.989768
_cell_angle_gamma	83.133726
loop_
_atom_site_label
_atom_site_type_symbol
_atom_site_fract_x
_atom_site_fract_y
_atom_site_fract_z
O1	O	0.921354	0.086629	-0.062609
O2	O	1.421354	0.586629	0.437391
O3	O	0.719092	0.098322	-0.062607
O4	O	1.219092	0.598322	0.437393
O5	O	0.826070	-0.008656	-0.062603
O6	O	1.326070	0.491344	0.437397
O7	O	0.814376	0.193606	-0.062612
O8	O	1.314376	0.693606	0.437388
O9	O	0.826051	-0.008661	0.062585
O10	O	1.326051	0.491339	0.562585
O11	O	0.719074	0.098316	0.062582
O12	O	1.219074	0.598316	0.562582
O13	O	0.921335	0.086623	0.062580
O14	O	1.421335	0.586623	0.562580
Cu15	Cu	0.820203	0.092469	0.074012
Cu16	Cu	1.320203	0.592469	0.574012
Cu17	Cu	0.820225	0.092476	-0.074038
Cu18	Cu	1.320225	0.592476	0.425962
O19	O	0.814358	0.193601	0.062576
O20	O	1.314358	0.693601	0.562576
C21	C	0.693206	0.097944	-0.000012
C22	C	1.193206	0.597944	0.499988
C23	C	0.616103	0.096816	-0.000012
C24	C	1.116103	0.596816	0.499988
C25	C	0.825685	-0.034535	-0.000010
C26	C	1.325685	0.465465	0.499990
C27	C	0.824558	-0.111639	-0.000011
C28	C	1.324558	0.388361	0.499989
C29	C	0.052061	0.151960	-0.000015
C30	C	0.552061	0.651960	0.499985
C31	C	0.124507	0.153025	-0.000019
C32	C	0.624507	0.653025	0.499981
C33	C	0.169215	0.090256	-0.000015
C34	C	0.669215	0.590256	0.499985
C35	C	0.141472	0.026416	-0.000026
C36	C	0.641472	0.526416	0.499974
C37	C	0.069026	0.025353	-0.000030
C38	C	0.569026	0.525353	0.499970
C39	C	0.290480	0.043441	0.043849
C40	C	0.790480	0.543441	0.543849
C41	C	0.362924	0.044507	0.043857
C42	C	0.862924	0.544507	0.543857
C43	C	0.392661	0.093533	-0.000007
C44	C	0.892661	0.593533	0.499993
C45	C	0.349944	0.141505	-0.043870
C46	C	0.849944	0.641505	0.456130
C47	C	0.277499	0.140442	-0.043874
C48	C	0.777499	0.640442	0.456126
C49	C	0.247771	0.091402	-0.000011
C50	C	0.747771	0.591402	0.499989
C51	C	0.498951	0.158524	-0.000006
C52	C	0.998951	0.658524	0.499994
C53	C	0.571399	0.159586	-0.000014
C54	C	1.071399	0.659586	0.499986
C55	C	0.588363	0.032976	-0.000014
C56	C	1.088363	0.532976	0.499986
C57	C	0.515916	0.031915	-0.000013
C58	C	1.015916	0.531915	0.499987
C59	C	0.471214	0.094691	-0.000005
C60	C	0.971214	0.594691	0.499995
C61	C	0.879701	-0.675680	-0.000031
C62	C	1.379701	-0.175680	0.499969
C63	C	0.880766	-0.603234	-0.000024
C64	C	1.380766	-0.103234	0.499976
C65	C	0.817997	-0.558526	-0.000024
C66	C	1.317997	-0.058526	0.499976
C67	C	0.754157	-0.586269	-0.000011
C68	C	1.254157	-0.086269	0.499989
C69	C	0.753094	-0.658715	-0.000011
C70	C	1.253094	-0.158715	0.499989
C71	C	0.771190	-0.437249	-0.043882
C72	C	1.271190	0.062751	0.456118
C73	C	0.772256	-0.364806	-0.043887
C74	C	1.272256	0.135194	0.456113
C75	C	0.821274	-0.335080	-0.000023
C76	C	1.321274	0.164920	0.499977
C77	C	0.869238	-0.377809	0.043836
C78	C	1.369238	0.122191	0.543836
C79	C	0.868174	-0.450254	0.043837
C80	C	1.368174	0.049746	0.543837
C81	C	0.819143	-0.479970	-0.000025
C82	C	1.319143	0.020030	0.499975
C83	C	0.886265	-0.228790	-0.000024
C84	C	1.386265	0.271210	0.499976
C85	C	0.887328	-0.156342	-0.000012
C86	C	1.387328	0.343658	0.499988
C87	C	0.760717	-0.139378	-0.000007
C88	C	1.260717	0.360622	0.499993
C89	C	0.759656	-0.211825	-0.000011
C90	C	1.259656	0.288175	0.499989
C91	C	0.822432	-0.256527	-0.000023
C92	C	1.322432	0.243473	0.499977
C93	C	0.947221	0.087001	-0.000016
C94	C	1.447221	0.587001	0.499984
C95	C	1.024325	0.088129	-0.000022
C96	C	1.524325	0.588129	0.499978
C97	C	0.814743	0.219480	-0.000019
C98	C	1.314743	0.719480	0.499981
C99	C	0.815870	0.296584	-0.000023
C100	C	1.315870	0.796584	0.499977
N101	N	0.820192	0.092464	0.178142
N102	N	1.320192	0.592464	0.678142
N103	N	0.820241	0.092475	-0.178169
N104	N	1.320241	0.592475	0.321831
C105	C	0.867577	0.045118	0.217530
C106	C	1.367577	0.545118	0.717530
C107	C	0.867581	0.045115	0.296332
C108	C	1.367581	0.545115	0.796332
C109	C	0.820207	0.092470	0.335742
C110	C	1.320207	0.592470	0.835742
C111	C	0.772813	0.139820	0.296344
C112	C	1.272813	0.639820	0.796344
C113	C	0.772806	0.139817	0.217544
C114	C	1.272806	0.639817	0.717544
C115	C	0.810907	0.155758	0.460578
C116	C	1.310907	0.655758	0.960578
C117	C	0.810919	0.155762	0.539377
C118	C	1.310919	0.655762	1.039377
C119	C	0.820225	0.092478	0.578789
C120	C	1.320225	0.592478	1.078789
C121	C	0.829535	0.029188	0.539392
C122	C	1.329535	0.529188	1.039392
C123	C	0.829527	0.029186	0.460592
C124	C	1.329527	0.529186	0.960592
C125	C	0.820209	0.092478	0.421188
C126	C	1.320209	0.592478	0.921188
C127	C	0.867617	0.045124	0.703623
C128	C	1.367617	0.545124	1.203623
C129	C	0.867616	0.045120	0.782426
C130	C	1.367616	0.545120	1.282426
C131	C	0.772852	0.139831	0.782437
C132	C	1.272852	0.639831	1.282437
C133	C	0.772849	0.139830	0.703636
C134	C	1.272849	0.639830	1.203636
C135	C	0.820236	0.092477	0.664233
C136	C	1.320236	0.592477	1.164233
H137	H	0.015668	0.203077	-0.000012
H138	H	0.515668	0.703077	0.499988
H139	H	0.906200	0.006565	0.671541
H140	H	1.406200	0.506565	1.171541
H141	H	0.734239	0.178376	0.328436
H142	H	1.234239	0.678376	0.828436
Cl143	Cl	0.713232	0.199344	0.168024
Cl144	Cl	1.213232	0.699344	0.668024
Cl145	Cl	0.709558	-0.474609	-0.099025
Cl146	Cl	1.209558	0.025391	0.400975
H147	H	0.906201	0.006561	0.814497
H148	H	1.406201	0.506561	1.314497
H149	H	0.374154	0.181429	-0.079587
H150	H	0.874154	0.681429	0.420413
Cl151	Cl	0.159384	0.233276	-0.000008
Cl152	Cl	0.659384	0.733276	0.499992
Cl153	Cl	0.961017	-0.568357	-0.000027
Cl154	Cl	1.461017	-0.068357	0.499973
Cl155	Cl	0.223801	0.200742	-0.099018
Cl156	Cl	0.723801	0.700742	0.400982
H157	H	0.462553	0.209640	-0.000001
H158	H	0.962553	0.709640	0.499999
Cl159	Cl	0.253109	-0.018233	0.098954
Cl160	Cl	0.753109	0.481767	0.598954
Cl161	Cl	0.930867	-0.340449	0.098980
Cl162	Cl	1.430867	0.159551	0.598980
H163	H	0.803316	0.207294	0.428495
H164	H	1.303316	0.707294	0.928495
H165	H	0.177878	-0.024691	-0.000025
H166	H	0.677878	0.475309	0.499975
Cl167	Cl	0.928464	-0.503967	0.098976
Cl168	Cl	1.428464	-0.003967	0.598976
H169	H	0.593980	0.211567	-0.000015
H170	H	1.093980	0.711567	0.499985
Cl171	Cl	0.644561	-0.045936	-0.000020
Cl172	Cl	1.144561	0.454064	0.499980
H173	H	0.937381	-0.265188	-0.000033
H174	H	1.437381	0.234812	0.499967
Cl175	Cl	0.679406	-0.246695	-0.000007
Cl176	Cl	1.179406	0.253305	0.499993
H177	H	0.733205	-0.330022	-0.079604
H178	H	1.233205	0.169978	0.420396
Cl179	Cl	0.481046	-0.048335	-0.000024
Cl180	Cl	0.981046	0.451665	0.499976
H181	H	0.046445	-0.026628	-0.000035
H182	H	0.546445	0.473372	0.499965
Cl183	Cl	0.841222	-0.050375	0.411068
Cl184	Cl	1.341222	0.449625	0.911068
Cl185	Cl	0.416616	-0.015795	0.099005
Cl186	Cl	0.916616	0.484205	0.599005
H187	H	0.906160	0.006559	0.185451
H188	H	1.406160	0.506559	0.685451
H189	H	0.930818	-0.712073	-0.000037
H190	H	1.430818	-0.212073	0.499963
Cl191	Cl	0.672842	-0.693584	-0.000001
Cl192	Cl	1.172842	-0.193584	0.499999
H193	H	0.939309	-0.133762	-0.000015
H194	H	1.439309	0.366238	0.499985
H195	H	0.709609	-0.102978	-0.000000
H196	H	1.209609	0.397022	0.500000
Cl197	Cl	0.713290	0.199359	0.831976
Cl198	Cl	1.213290	0.699359	1.331976
Cl199	Cl	0.675247	-0.530066	-0.000007
Cl200	Cl	1.175247	-0.030066	0.499993
H201	H	0.837113	-0.022343	0.571480
H202	H	1.337113	0.477657	1.071480
Cl203	Cl	0.713281	0.199357	0.654114
Cl204	Cl	1.213281	0.699357	1.154114
Cl205	Cl	0.927157	-0.014411	0.345857
Cl206	Cl	1.427157	0.485589	0.845857
H207	H	0.803343	0.207296	0.571447
H208	H	1.303343	0.707296	1.071447
