data_functionalizedCrystal
_audit_creation_method	'MofGen! by Chris Wilmer'
_symmetry_space_group_name_H-M	'P1'
_symmetry_Int_Tables_number	1
_symmetry_cell_setting	triclinic
loop_
_symmetry_equiv_pos_as_xyz
  x,y,z
_cell_length_a	8.497374
_cell_length_b	8.497374
_cell_length_c	11.169417
_cell_angle_alpha	90.000212
_cell_angle_beta	89.998029
_cell_angle_gamma	90.005237
loop_
_atom_site_label
_atom_site_type_symbol
_atom_site_fract_x
_atom_site_fract_y
_atom_site_fract_z
Zn1	Zn	0.628293	0.892043	1.834807
Zn2	Zn	0.892038	0.628308	1.834798
Zn3	Zn	0.628270	0.628277	1.634162
Zn4	Zn	0.892028	0.892047	1.634133
O5	O	0.760157	0.760169	1.734475
O6	O	0.663292	0.857069	2.002756
O7	O	0.857043	0.407542	1.808191
O8	O	0.407511	0.663251	1.660794
O9	O	0.857065	0.663305	2.002749
O10	O	0.407527	0.857039	1.808207
O11	O	0.663254	0.407519	1.660785
O12	O	0.663245	0.663255	1.466208
O13	O	0.857049	1.112808	1.660745
O14	O	0.857027	0.857046	1.466187
O15	O	0.663283	1.112805	1.808179
O16	O	1.112799	0.663309	1.808163
O17	O	1.112792	0.857076	1.660735
C18	C	0.760133	0.760148	1.422650
C19	C	0.760161	0.760177	1.289250
C20	C	1.170037	0.760191	1.734460
C21	C	1.348681	0.760166	1.734492
C22	C	0.760160	1.171649	1.734466
C23	C	0.760176	1.350293	1.734469
C24	C	0.760182	0.760190	2.047517
C25	C	0.760193	0.760199	2.180917
