data_functionalizedCrystal
_audit_creation_method	'MofGen! by Chris Wilmer'
_symmetry_space_group_name_H-M	'P1'
_symmetry_Int_Tables_number	1
_symmetry_cell_setting	triclinic
loop_
_symmetry_equiv_pos_as_xyz
  x,y,z
_cell_length_a	14.044220
_cell_length_b	11.792241
_cell_length_c	13.101039
_cell_angle_alpha	93.376518
_cell_angle_beta	93.667477
_cell_angle_gamma	91.308853
loop_
_atom_site_label
_atom_site_type_symbol
_atom_site_fract_x
_atom_site_fract_y
_atom_site_fract_z
O1	O	0.124790	-1.524822	-0.085117
O2	O	0.624790	-1.024822	0.414883
O3	O	0.138185	-1.195740	-0.085141
O4	O	0.638185	-0.695740	0.414859
O5	O	-0.006522	-1.355341	-0.085119
O6	O	0.493478	-0.855341	0.414881
O7	O	0.269497	-1.365221	-0.085139
O8	O	0.769497	-0.865221	0.414861
O9	O	0.003878	-1.343891	0.085309
O10	O	0.503878	-0.843891	0.585309
O11	O	0.148585	-1.184291	0.085287
O12	O	0.648585	-0.684291	0.585287
O13	O	0.135190	-1.513372	0.085311
O14	O	0.635190	-1.013372	0.585311
Zn15	Zn	0.143539	-1.347014	0.112359
Zn16	Zn	0.643539	-0.847014	0.612359
Zn17	Zn	0.129836	-1.362099	-0.112188
Zn18	Zn	0.629836	-0.862099	0.387812
O19	O	0.279897	-1.353772	0.085290
O20	O	0.779897	-0.853772	0.585290
C21	C	0.142543	-1.147646	0.000070
C22	C	0.642543	-0.647646	0.500070
C23	C	0.140024	-1.021396	0.000061
C24	C	0.640024	-0.521396	0.500061
C25	C	-0.036659	-1.345292	0.000095
C26	C	0.463341	-0.845292	0.500095
C27	C	-0.141951	-1.332393	0.000095
C28	C	0.358049	-0.832393	0.500095
N29	N	0.120478	-1.372394	-0.265435
N30	N	0.620478	-0.872394	0.234565
C31	C	-0.334734	-1.308812	0.000079
C32	C	0.165266	-0.808812	0.500079
C33	C	-0.391897	-1.400296	0.000083
C34	C	0.108103	-0.900296	0.500083
C35	C	-0.499168	-1.387176	0.000073
C36	C	0.000832	-0.887176	0.500073
C37	C	-0.227453	-1.321931	0.000088
C38	C	0.272547	-0.821931	0.500088
C39	C	0.310033	-1.363821	0.000073
C40	C	0.810033	-0.863821	0.500073
C41	C	0.415325	-1.376720	0.000066
C42	C	0.915325	-0.876720	0.500066
C43	C	0.130832	-1.561467	0.000098
C44	C	0.630832	-1.061467	0.500098
C45	C	0.133350	-1.687717	0.000100
C46	C	0.633350	-1.187717	0.500100
C47	C	0.135394	-0.790247	0.000091
C48	C	0.635394	-0.290247	0.500091
C49	C	0.137967	-0.918875	0.000075
C50	C	0.637967	-0.418875	0.500075
N51	N	0.152889	-1.336727	0.265606
N52	N	0.652889	-0.836727	0.765606
C53	C	0.165620	-1.322732	0.474646
C54	C	0.665620	-0.822732	0.974646
C55	C	0.107750	-1.386386	0.525531
C56	C	0.607750	-0.886386	1.025531
C57	C	0.114834	-1.378599	0.641848
C58	C	0.614834	-0.878599	1.141848
C59	C	0.158538	-1.330517	0.358318
C60	C	0.658538	-0.830517	0.858318
H61	H	-0.366357	-1.220642	0.000070
H62	H	0.133643	-0.720642	0.500070
H63	H	-0.360277	-1.488478	0.000020
H64	H	0.139723	-0.988478	0.500020
O65	O	0.238305	-1.242824	0.532651
O66	O	0.738305	-0.742824	1.032651
H67	H	0.279611	-1.197392	0.477436
H68	H	0.779611	-0.697392	0.977436
H69	H	0.052887	-1.446730	0.481737
H70	H	0.552887	-0.946730	0.981737
