data_functionalizedCrystal
_audit_creation_method	'MofGen! by Chris Wilmer'
_symmetry_space_group_name_H-M	'P1'
_symmetry_Int_Tables_number	1
_symmetry_cell_setting	triclinic
loop_
_symmetry_equiv_pos_as_xyz
  x,y,z
_cell_length_a	6.817900
_cell_length_b	11.102188
_cell_length_c	10.943624
_cell_angle_alpha	91.862487
_cell_angle_beta	108.838799
_cell_angle_gamma	108.603875
loop_
_atom_site_label
_atom_site_type_symbol
_atom_site_fract_x
_atom_site_fract_y
_atom_site_fract_z
V1	V	-4.114273	-0.175806	-0.402551
O2	O	-4.073263	0.008482	-0.394888
O3	O	-4.091022	-0.348626	-0.399798
O4	O	-4.092254	-0.173086	-0.578118
O5	O	-4.072022	-0.168272	-0.215334
V6	V	-4.591224	-0.153764	-0.380159
O7	O	-4.389948	-0.224155	-0.451671
O8	O	-4.765746	-0.105415	-0.331038
O9	O	-4.391268	0.019056	-0.382912
O10	O	-4.749630	-0.338052	-0.387822
O11	O	-4.750872	-0.161298	-0.567376
O12	O	-4.390036	-0.156484	-0.204592
C13	C	-3.941287	-0.390756	-0.393448
C14	C	-4.003739	-0.532039	-0.392367
C15	C	-3.942858	-0.166836	-0.620910
C16	C	-4.006305	-0.165757	-0.764437
C17	C	-3.972102	-0.580274	-0.273626
C18	C	-4.030807	-0.713026	-0.272616
C19	C	-4.152777	-0.749296	-0.509098
C20	C	-4.094087	-0.616547	-0.510107
C21	C	-4.156049	-0.876815	-0.133325
C22	C	-4.124376	-0.925052	-0.014577
C23	C	-3.933169	-0.861800	0.093629
C24	C	-3.773584	-0.750309	0.083094
C25	C	-3.805243	-0.702078	-0.035656
C26	C	-3.996494	-0.765329	-0.143859
C27	C	-3.968823	-0.452754	-0.649389
C28	C	-4.000467	-0.404520	-0.768140
C29	C	-4.191666	-0.467771	-0.876357
C30	C	-4.351229	-0.579267	-0.865833
C31	C	-4.319585	-0.627501	-0.747082
C32	C	-4.128385	-0.564241	-0.638865
C33	C	-3.851186	-0.158485	-0.841584
C34	C	-4.039794	-0.266416	-0.947575
C35	C	-3.930776	-0.055914	-0.914188
C36	C	-4.194123	-0.273789	-0.868550
C37	C	-4.085026	-0.063191	-0.835140
C38	C	-4.273770	-0.171153	-0.941100
C39	C	-4.204346	0.061180	-0.389258
C40	C	-4.121133	0.202461	-0.390348
C41	C	-4.202774	-0.162738	-0.161793
C42	C	-4.118564	-0.163811	-0.018265
H43	H	-3.898537	-0.511470	-0.177755
C44	C	-3.609147	-0.151449	-0.782873
N45	N	-3.426852	-0.146157	-0.738649
C46	C	-4.014853	-0.382475	-1.013717
N47	N	-3.996052	-0.469885	-1.063532
H48	H	-4.304865	-0.365970	-0.848006
H49	H	-3.617879	-0.698823	0.171206
H50	H	-4.254328	-1.015831	-0.006008
C51	C	-4.515972	-0.178446	-0.999574
N52	N	-4.698403	-0.183955	-1.043638
C53	C	-3.758485	-0.383164	-0.530345
N54	N	-3.600054	-0.330748	-0.440686
C55	C	-4.366331	-0.946451	-0.252376
N56	N	-4.524690	-0.998928	-0.342058
C57	C	-4.109835	0.052884	-0.768952
N58	N	-4.128496	0.140323	-0.719093
H59	H	-3.907386	-0.901084	0.190317
H60	H	-3.675307	-0.611308	-0.044236
C61	C	-4.252118	-0.842265	-0.638603
N62	N	-4.326926	-0.912288	-0.736149
H63	H	-4.449519	-0.718291	-0.738520
C64	C	-4.226461	-0.414709	-1.006987
N65	N	-4.252677	-0.374745	-1.105375
C66	C	-3.781201	0.068490	-0.942167
N67	N	-3.668527	0.162188	-0.963236
H68	H	-3.870516	-0.313741	-0.776706
H69	H	-4.506913	-0.630774	-0.953953
