data_functionalizedCrystal
_audit_creation_method	'MofGen! by Chris Wilmer'
_symmetry_space_group_name_H-M	'P1'
_symmetry_Int_Tables_number	1
_symmetry_cell_setting	triclinic
loop_
_symmetry_equiv_pos_as_xyz
  x,y,z
_cell_length_a	17.038272
_cell_length_b	10.540539
_cell_length_c	9.616153
_cell_angle_alpha	89.993339
_cell_angle_beta	89.998568
_cell_angle_gamma	87.818524
loop_
_atom_site_label
_atom_site_type_symbol
_atom_site_fract_x
_atom_site_fract_y
_atom_site_fract_z
O1	O	0.110246	1.696179	-0.115581
O2	O	0.610246	2.196179	0.384419
O3	O	0.120633	1.327735	-0.115599
O4	O	0.620633	1.827735	0.384401
O5	O	0.001612	1.509767	-0.115579
O6	O	0.501612	2.009767	0.384421
O7	O	0.229267	1.514147	-0.115601
O8	O	0.729267	2.014147	0.384399
O9	O	0.001616	1.509734	0.115712
O10	O	0.501616	2.009734	0.615712
O11	O	0.120638	1.327702	0.115693
O12	O	0.620638	1.827702	0.615693
O13	O	0.110250	1.696146	0.115710
O14	O	0.610250	2.196146	0.615710
Zn15	Zn	0.115445	1.511919	0.152424
Zn16	Zn	0.615445	2.011919	0.652424
Zn17	Zn	0.115439	1.511963	-0.152313
Zn18	Zn	0.615439	2.011963	0.347687
O19	O	0.229272	1.514114	0.115690
O20	O	0.729272	2.014114	0.615690
C21	C	0.119857	1.280343	0.000045
C22	C	0.619857	1.780343	0.500045
C23	C	0.117526	1.139177	0.000039
C24	C	0.617526	1.639177	0.500039
C25	C	-0.027537	1.505768	0.000066
C26	C	0.472463	2.005768	0.500066
C27	C	-0.114398	1.493883	0.000065
C28	C	0.385602	1.993883	0.500065
C29	C	0.028219	0.947420	0.000587
C30	C	0.528219	1.447420	0.500587
C31	C	0.030581	1.094259	0.000051
C32	C	0.530581	1.594259	0.500051
C33	C	0.159365	1.081427	-0.132039
C34	C	0.659365	1.581427	0.367961
C35	C	0.156397	0.934605	-0.132135
C36	C	0.656397	1.434605	0.367865
C37	C	0.158172	0.934244	0.130886
C38	C	0.658172	1.434244	0.630886
C39	C	0.158972	1.081301	0.132618
C40	C	0.658972	1.581301	0.632618
C41	C	-0.163886	1.602994	0.000072
C42	C	0.336114	2.102994	0.500072
C43	C	-0.245501	1.591820	0.000058
C44	C	0.254499	2.091820	0.500058
C45	C	-0.277626	1.471534	0.000048
C46	C	0.222374	1.971534	0.500048
C47	C	-0.228133	1.362416	0.000037
C48	C	0.271867	1.862416	0.500037
C49	C	-0.146519	1.373591	0.000041
C50	C	0.353481	1.873591	0.500041
C51	C	-0.523611	1.432055	0.000027
C52	C	-0.023611	1.932055	0.500027
C53	C	-0.605231	1.420888	0.000027
C54	C	-0.105231	1.920888	0.500027
C55	C	-0.622593	1.650293	0.000046
C56	C	-0.122593	2.150293	0.500046
C57	C	-0.540977	1.661457	0.000058
C58	C	-0.040977	2.161457	0.500058
C59	C	-0.491491	1.552339	0.000040
C60	C	0.008509	2.052339	0.500040
C61	C	-0.361050	1.460110	0.000038
C62	C	0.138950	1.960110	0.500038
C63	C	-0.408069	1.563764	0.000040
C64	C	0.091931	2.063764	0.500040
C65	C	0.258421	1.518114	0.000042
C66	C	0.758421	2.018114	0.500042
C67	C	0.345282	1.529998	0.000034
C68	C	0.845282	2.029998	0.500034
C69	C	0.111027	1.743538	0.000063
C70	C	0.611027	2.243538	0.500063
C71	C	0.113358	1.884704	0.000061
C72	C	0.613358	2.384704	0.500061
N73	N	0.115449	1.511898	0.360398
N74	N	0.615449	2.011898	0.860398
C75	C	0.178906	1.414181	0.580758
C76	C	0.678906	1.914181	1.080758
C77	C	0.179142	1.414436	0.419590
C78	C	0.679142	1.914436	0.919590
C79	C	0.134019	1.646352	0.418852
C80	C	0.634019	2.146352	0.918852
C81	C	0.134470	1.645824	0.580070
C82	C	0.634470	2.145824	1.080070
C83	C	0.033217	1.476449	0.580316
C84	C	0.533217	1.976449	1.080316
C85	C	0.033749	1.473457	0.419089
C86	C	0.533749	1.973457	0.919089
N87	N	0.115438	1.511963	0.639713
N88	N	0.615438	2.011963	1.139713
H89	H	-0.002339	1.133788	0.094731
H90	H	0.497661	1.633788	0.594731
H91	H	0.089054	1.721213	0.380507
H92	H	0.589054	2.221213	0.880507
F93	F	-0.298166	1.707951	0.000068
F94	F	0.201834	2.207951	0.500068
H95	H	0.130036	0.900059	0.231000
H96	H	0.630036	1.400059	0.731000
F97	F	0.115974	0.893977	-0.261172
F98	F	0.615974	1.393977	0.238828
F99	F	0.010128	1.350444	0.633519
F100	F	0.510128	1.850444	1.133519
H101	H	-0.631384	1.322932	0.000041
H102	H	-0.131384	1.822932	0.500041
F103	F	-0.016674	0.905846	0.124395
F104	F	0.483326	1.405846	0.624395
H105	H	0.167968	1.314778	0.380072
H106	H	0.667968	1.814778	0.880072
F107	F	-0.506793	1.789481	0.000034
F108	F	-0.006793	2.289481	0.500034
H109	H	0.220971	0.892875	0.131773
H110	H	0.720971	1.392875	0.631773
H111	H	-0.662893	1.739130	0.000058
H112	H	-0.162893	2.239130	0.500058
H113	H	-0.015750	1.539367	0.378802
H114	H	0.484250	2.039367	0.878802
F115	F	-0.016494	0.903778	-0.122513
F116	F	0.483506	1.403778	0.377487
F117	F	0.258880	1.445229	0.369151
F118	F	0.758880	1.945229	0.869151
H119	H	-0.106227	1.284741	0.000035
H120	H	0.393773	1.784741	0.500035
F121	F	0.076336	1.744283	0.631045
F122	F	0.576336	2.244283	1.131045
H123	H	0.223214	1.109736	-0.136959
H124	H	0.723214	1.609736	0.363041
H125	H	-0.483328	1.343202	0.000013
H126	H	0.016672	1.843202	0.500013
H127	H	0.167904	1.314228	0.619566
H128	H	0.667904	1.814228	1.119566
H129	H	-0.381909	1.661700	0.000017
H130	H	0.118091	2.161700	0.500017
H131	H	0.239561	1.437504	0.621252
H132	H	0.739561	1.937504	1.121252
H133	H	0.128408	1.119398	0.230328
H134	H	0.628408	1.619398	0.730328
F135	F	-0.395248	1.332096	0.000021
F136	F	0.104752	1.832096	0.500021
H137	H	0.194456	1.675773	0.617653
H138	H	0.694456	2.175773	1.117653
F139	F	-0.262325	1.234398	0.000010
F140	F	0.237675	1.734398	0.500010
H141	H	0.193327	1.676783	0.378457
H142	H	0.693327	2.176783	0.878457
F143	F	0.015348	1.344120	0.369158
F144	F	0.515348	1.844120	0.869158
F145	F	0.241828	1.120685	0.143032
F146	F	0.741828	1.620685	0.643032
F147	F	-0.028528	1.569516	0.630146
F148	F	0.471472	2.069516	1.130146
H149	H	-0.002575	1.132925	-0.094786
H150	H	0.497425	1.632925	0.405214
H151	H	0.218926	0.892470	-0.138136
H152	H	0.718926	1.392470	0.361864
F153	F	-0.129703	1.731019	0.000096
F154	F	0.370297	2.231019	0.500096
F155	F	0.121372	1.133563	-0.260513
F156	F	0.621372	1.633563	0.239487
