data_functionalizedCrystal
_audit_creation_method	'MofGen! by Chris Wilmer'
_symmetry_space_group_name_H-M	'P1'
_symmetry_Int_Tables_number	1
_symmetry_cell_setting	triclinic
loop_
_symmetry_equiv_pos_as_xyz
  x,y,z
_cell_length_a	16.120530
_cell_length_b	18.050589
_cell_length_c	16.120256
_cell_angle_alpha	92.877276
_cell_angle_beta	89.871735
_cell_angle_gamma	92.869593
loop_
_atom_site_label
_atom_site_type_symbol
_atom_site_fract_x
_atom_site_fract_y
_atom_site_fract_z
Zn1	Zn	1.247356	0.376260	0.534588
Zn2	Zn	1.747356	0.876260	1.034588
Zn3	Zn	1.254281	0.494481	0.395537
Zn4	Zn	1.754281	0.994481	0.895537
Zn5	Zn	1.115350	0.363707	0.388505
Zn6	Zn	1.615350	0.863707	0.888505
Zn7	Zn	1.108237	0.493800	0.527507
Zn8	Zn	1.608237	0.993800	1.027507
O9	O	1.181306	0.432062	0.461534
O10	O	1.681306	0.932062	0.961534
O11	O	1.364640	0.397481	0.522049
O12	O	1.864640	0.897481	1.022049
O13	O	1.241726	0.472164	0.278238
O14	O	1.741726	0.972164	0.778238
O15	O	1.132939	0.261452	0.407904
O16	O	1.632939	0.761452	0.907904
O17	O	1.369727	0.484337	0.419889
O18	O	1.869727	0.984337	0.919889
O19	O	1.229924	0.270675	0.515231
O20	O	1.729924	0.770675	1.015231
O21	O	1.139654	0.376085	0.273072
O22	O	1.639654	0.876085	0.773072
O23	O	0.998041	0.375426	0.401037
O24	O	1.498041	0.875426	0.901037
O25	O	1.120817	0.483177	0.644812
O26	O	1.620817	0.983177	1.144812
O27	O	0.992816	0.471005	0.503161
O28	O	1.492816	0.971005	1.003161
O29	O	1.223027	0.396821	0.650015
O30	O	1.723027	0.896821	1.150015
O31	O	1.234829	0.598310	0.413022
O32	O	1.734829	1.098310	0.913022
O33	O	1.127532	0.597811	0.509980
O34	O	1.627532	1.097811	1.009980
C35	C	0.965256	0.421780	0.450568
C36	C	1.465256	0.921780	0.950568
C37	C	0.872828	0.417400	0.445897
C38	C	1.372828	0.917400	0.945897
C39	C	0.703600	0.409386	0.437375
C40	C	1.203600	0.909386	0.937375
C41	C	0.659849	0.454795	0.485754
C42	C	1.159849	0.954795	0.985754
C43	C	0.565685	0.450337	0.481013
C44	C	1.065685	0.950337	0.981013
C45	C	0.797773	0.413844	0.442115
C46	C	1.297773	0.913844	0.942115
C47	C	1.181182	0.625008	0.461515
C48	C	1.681182	1.125008	0.961515
C49	C	1.181203	0.707556	0.461538
C50	C	1.681203	1.207556	0.961538
C51	C	1.122885	0.906762	0.514247
C52	C	1.622885	1.406762	1.014247
C53	C	1.106457	0.951981	0.437341
C54	C	1.606457	1.451981	0.937341
C55	C	1.181265	0.858689	0.461553
C56	C	1.681265	1.358689	0.961553
C57	C	1.197716	0.960553	0.538469
C58	C	1.697716	1.460553	1.038469
C59	C	1.181323	1.004678	0.461574
C60	C	1.681323	1.504678	0.961574
C61	C	1.164799	0.902818	0.384605
C62	C	1.664799	1.402818	0.884605
C63	C	1.256091	0.911389	0.485786
C64	C	1.756091	1.411389	0.985786
C65	C	1.239694	0.956585	0.408829
C66	C	1.739694	1.456585	0.908829
C67	C	1.181230	0.774589	0.461542
C68	C	1.681230	1.274589	0.961542
C69	C	1.181360	1.088776	0.461576
C70	C	1.681360	1.588776	0.961576
C71	C	1.398199	0.442385	0.472544
C72	C	1.898199	0.942385	0.972544
C73	C	1.490626	0.446784	0.477235
C74	C	1.990626	0.946784	0.977235
C75	C	1.170357	0.441324	0.678430
C76	C	1.670357	0.941324	1.178430
C77	C	1.165691	0.445270	0.770858
C78	C	1.665691	0.945270	1.270858
C79	C	1.181421	1.238363	0.461572
C80	C	1.681421	1.738363	0.961572
C81	C	1.181388	1.155817	0.461587
C82	C	1.681388	1.655817	0.961587
C83	C	1.192261	0.422785	0.245485
C84	C	1.692261	0.922785	0.745485
C85	C	1.197088	0.418637	0.153066
C86	C	1.697088	0.918637	0.653066
C87	C	1.205637	0.411461	0.983840
C88	C	1.705637	0.911461	1.483840
C89	C	1.157144	0.452444	0.940078
C90	C	1.657144	0.952444	1.440078
C91	C	1.161901	0.448451	0.845915
C92	C	1.661901	0.948451	1.345915
C93	C	1.200881	0.415453	1.078011
C94	C	1.700881	0.915453	1.578011
H95	H	0.693112	0.497020	0.530736
H96	H	1.193112	0.997020	1.030736
H97	H	1.112051	0.490524	0.973331
H98	H	1.612051	0.990524	1.473331
O99	O	1.331494	0.889957	0.510401
O100	O	1.831494	1.389957	1.010401
C101	C	1.434080	0.895178	0.619305
C102	C	1.934080	1.395178	1.119305
C103	C	1.348666	0.919490	0.591530
C104	C	1.848666	1.419490	1.091530
H105	H	1.447998	0.919058	0.684894
H106	H	1.947998	1.419058	1.184894
H107	H	1.433520	0.831966	0.618525
H108	H	1.933520	1.331966	1.118525
H109	H	1.483987	0.916556	0.575026
H110	H	1.983987	1.416556	1.075026
H111	H	1.298713	0.898164	0.635784
H112	H	1.798713	1.398164	1.135784
H113	H	1.349297	0.982703	0.592288
H114	H	1.849297	1.482703	1.092288
H115	H	1.250723	0.373380	0.950589
H116	H	1.750723	0.873380	1.450589
O117	O	1.148161	0.872963	0.306929
O118	O	1.648161	1.372963	0.806929
C119	C	1.117619	0.896438	0.164643
C120	C	1.617619	1.396438	0.664643
C121	C	1.136476	0.930350	0.252561
C122	C	1.636476	1.430350	0.752561
H123	H	1.108149	0.942819	0.120665
H124	H	1.608149	1.442819	0.620665
H125	H	1.171859	0.862663	0.141941
H126	H	1.671859	1.362663	0.641941
H127	H	1.058825	0.858716	0.166251
H128	H	1.558825	1.358716	0.666251
H129	H	1.195244	0.968105	0.251023
H130	H	1.695244	1.468105	0.751023
H131	H	1.082189	0.964081	0.275228
H132	H	1.582189	1.464081	0.775228
H133	H	0.670340	0.367165	0.392398
H134	H	1.170340	0.867165	0.892398
H135	H	1.073457	0.884887	0.558738
H136	H	1.573457	1.384887	1.058738
H137	H	1.043207	0.969976	0.416862
H138	H	1.543207	1.469976	0.916862
H139	H	1.211607	0.985773	0.603509
H140	H	1.711607	1.485773	1.103509
O141	O	1.298610	0.982646	0.355679
O142	O	1.798610	1.482646	0.855679
C143	C	1.365186	1.090205	0.296429
C144	C	1.865186	1.590205	0.796429
C145	C	1.298455	1.060791	0.356667
C146	C	1.798455	1.560791	0.856667
H147	H	1.365071	1.153387	0.297194
H148	H	1.865071	1.653387	0.797194
H149	H	1.428814	1.072789	0.316509
H150	H	1.928814	1.572789	0.816509
H151	H	1.351034	1.066202	0.230936
H152	H	1.851034	1.566202	0.730936
H153	H	1.312528	1.084779	0.422177
H154	H	1.812528	1.584779	0.922177
H155	H	1.234848	1.078199	0.336516
H156	H	1.734848	1.578199	0.836516
