data_functionalizedCrystal
_audit_creation_method	'MofGen! by Chris Wilmer'
_symmetry_space_group_name_H-M	'P1'
_symmetry_Int_Tables_number	1
_symmetry_cell_setting	triclinic
loop_
_symmetry_equiv_pos_as_xyz
  x,y,z
_cell_length_a	16.109301
_cell_length_b	16.053802
_cell_length_c	16.109301
_cell_angle_alpha	92.563380
_cell_angle_beta	96.538519
_cell_angle_gamma	92.577771
loop_
_atom_site_label
_atom_site_type_symbol
_atom_site_fract_x
_atom_site_fract_y
_atom_site_fract_z
O1	O	1.106638	0.069379	-0.103368
O2	O	1.356638	0.319379	0.146632
O3	O	1.606638	0.569379	0.396632
O4	O	1.856638	0.819379	0.646632
O5	O	0.864576	0.069392	-0.116667
O6	O	1.114576	0.319392	0.133333
O7	O	1.364576	0.569392	0.383333
O8	O	1.614576	0.819392	0.633333
O9	O	0.992256	0.069377	0.011013
O10	O	1.242256	0.319377	0.261013
O11	O	1.492256	0.569377	0.511013
O12	O	1.742256	0.819377	0.761013
O13	O	0.978958	0.069395	-0.231048
O14	O	1.228958	0.319395	0.018952
O15	O	1.478958	0.569395	0.268952
O16	O	1.728958	0.819395	0.518952
O17	O	0.985228	-0.069481	0.004014
O18	O	1.235228	0.180519	0.254014
O19	O	1.485228	0.430519	0.504014
O20	O	1.735228	0.680519	0.754014
O21	O	0.857549	-0.069466	-0.123666
O22	O	1.107549	0.180534	0.126334
O23	O	1.357549	0.430534	0.376334
O24	O	1.607549	0.680534	0.626334
O25	O	1.099610	-0.069479	-0.110367
O26	O	1.349610	0.180521	0.139633
O27	O	1.599610	0.430521	0.389633
O28	O	1.849610	0.680521	0.639633
Zn29	Zn	0.977463	-0.091519	-0.118128
Zn30	Zn	1.227463	0.158481	0.131872
Zn31	Zn	1.477463	0.408481	0.381872
Zn32	Zn	1.727463	0.658481	0.631872
Zn33	Zn	0.986723	0.091432	-0.108906
Zn34	Zn	1.236723	0.341432	0.141094
Zn35	Zn	1.486723	0.591432	0.391094
Zn36	Zn	1.736723	0.841432	0.641094
O37	O	0.971930	-0.069464	-0.238047
O38	O	1.221930	0.180536	0.011953
O39	O	1.471930	0.430536	0.261953
O40	O	1.721930	0.680536	0.511953
C41	C	0.830088	-0.000035	-0.119628
C42	C	1.080088	0.249965	0.130372
C43	C	1.330088	0.499965	0.380372
C44	C	1.580088	0.749965	0.630372
C45	C	0.737793	-0.000030	-0.118012
C46	C	0.987793	0.249970	0.131988
C47	C	1.237793	0.499970	0.381988
C48	C	1.487793	0.749970	0.631988
N49	N	0.971150	-0.216379	-0.124420
N50	N	1.221150	0.033621	0.125580
N51	N	1.471150	0.283621	0.375580
N52	N	1.721150	0.533621	0.625580
C53	C	0.515520	-0.000034	-0.190020
C54	C	0.765520	0.249966	0.059980
C55	C	1.015520	0.499966	0.309980
C56	C	1.265520	0.749966	0.559980
C57	C	0.428799	-0.000040	-0.188496
C58	C	0.678799	0.249960	0.061504
C59	C	0.928799	0.499960	0.311504
C60	C	1.178799	0.749960	0.561504
C61	C	0.448673	-0.000048	-0.037008
C62	C	0.698673	0.249952	0.212992
C63	C	0.948673	0.499952	0.462992
C64	C	1.198673	0.749952	0.712992
C65	C	0.535392	-0.000048	-0.038533
C66	C	0.785392	0.249952	0.211467
C67	C	1.035392	0.499952	0.461467
C68	C	1.285392	0.749952	0.711467
C69	C	0.568813	-0.000037	-0.115041
C70	C	0.818813	0.249963	0.134959
C71	C	1.068813	0.499963	0.384959
C72	C	1.318813	0.749963	0.634959
C73	C	0.395374	-0.000042	-0.111992
C74	C	0.645374	0.249958	0.138008
C75	C	0.895374	0.499958	0.388008
C76	C	1.145374	0.749958	0.638008
C77	C	0.301347	-0.000048	-0.110340
C78	C	0.551347	0.249952	0.139660
C79	C	0.801347	0.499952	0.389660
C80	C	1.051347	0.749952	0.639660
C81	C	0.662845	-0.000033	-0.116694
C82	C	0.912845	0.249967	0.133306
C83	C	1.162845	0.499967	0.383306
C84	C	1.412845	0.749967	0.633306
C85	C	1.025498	-0.260079	-0.070112
C86	C	1.275498	-0.010079	0.179888
C87	C	1.525498	0.239921	0.429888
C88	C	1.775498	0.489921	0.679888
C89	C	1.021089	-0.347485	-0.074522
C90	C	1.271089	-0.097485	0.175478
C91	C	1.521089	0.152515	0.425478
C92	C	1.771089	0.402515	0.675478
C93	C	0.962337	-0.391189	-0.133245
C94	C	1.212337	-0.141189	0.116755
C95	C	1.462337	0.108811	0.366755
C96	C	1.712337	0.358811	0.616755
C97	C	0.907983	-0.347483	-0.187556
C98	C	1.157983	-0.097483	0.062444
C99	C	1.407983	0.152517	0.312444
C100	C	1.657983	0.402517	0.562444
C101	C	0.912388	-0.260078	-0.183141
C102	C	1.162388	-0.010078	0.066859
C103	C	1.412388	0.239922	0.316859
C104	C	1.662388	0.489922	0.566859
C105	C	0.943094	-0.652597	-0.152504
C106	C	1.193094	-0.402597	0.097496
C107	C	1.443094	-0.152597	0.347496
C108	C	1.693094	0.097403	0.597496
C109	C	0.938695	-0.740008	-0.156916
C110	C	1.188695	-0.490008	0.093084
C111	C	1.438695	-0.240008	0.343084
C112	C	1.688695	0.009992	0.593084
C113	C	1.051801	-0.740004	-0.043880
C114	C	1.301801	-0.490004	0.206120
C115	C	1.551801	-0.240004	0.456120
C116	C	1.801801	0.009996	0.706120
C117	C	1.056204	-0.652598	-0.039474
C118	C	1.306204	-0.402598	0.210526
C119	C	1.556204	-0.152598	0.460526
C120	C	1.806204	0.097402	0.710526
C121	C	1.001848	-0.608899	-0.093782
C122	C	1.251848	-0.358899	0.156218
C123	C	1.501848	-0.108899	0.406218
C124	C	1.751848	0.141101	0.656218
N125	N	0.957831	-0.480533	-0.137755
N126	N	1.207831	-0.230533	0.112245
N127	N	1.457831	0.019467	0.362245
N128	N	1.707831	0.269467	0.612245
N129	N	1.006350	-0.519557	-0.089267
N130	N	1.256350	-0.269557	0.160733
N131	N	1.506350	-0.019557	0.410733
N132	N	1.756350	0.230443	0.660733
C133	C	1.134099	-0.000050	-0.107406
C134	C	1.384099	0.249950	0.142594
C135	C	1.634099	0.499950	0.392594
C136	C	1.884099	0.749950	0.642594
C137	C	1.226394	-0.000049	-0.109021
C138	C	1.476394	0.249951	0.140979
C139	C	1.726394	0.499951	0.390979
C140	C	1.976394	0.749951	0.640979
C141	C	0.988204	-0.000053	0.038488
C142	C	1.238204	0.249947	0.288488
C143	C	1.488204	0.499947	0.538488
C144	C	1.738204	0.749947	0.788488
C145	C	0.986588	-0.000054	0.130784
C146	C	1.236588	0.249946	0.380784
C147	C	1.486588	0.499946	0.630784
C148	C	1.736588	0.749946	0.880784
N149	N	0.993043	0.216292	-0.102607
N150	N	1.243043	0.466292	0.147393
N151	N	1.493043	0.716292	0.397393
N152	N	1.743043	0.966292	0.647393
C153	C	0.975983	-0.000032	-0.265522
C154	C	1.225983	0.249968	-0.015522
C155	C	1.475983	0.499968	0.234478
C156	C	1.725983	0.749968	0.484478
C157	C	0.977598	-0.000026	-0.357817
C158	C	1.227598	0.249974	-0.107817
C159	C	1.477598	0.499974	0.142183
C160	C	1.727598	0.749974	0.392183
C161	C	1.058597	-0.000045	0.353057
C162	C	1.308597	0.249955	0.603057
C163	C	1.558597	0.499955	0.853057
C164	C	1.808597	0.749955	1.103057
C165	C	1.057073	-0.000038	0.439777
C166	C	1.307073	0.249962	0.689777
C167	C	1.557073	0.499962	0.939777
C168	C	1.807073	0.749962	1.189777
C169	C	0.905584	-0.000032	0.419903
C170	C	1.155584	0.249968	0.669903
C171	C	1.405584	0.499968	0.919903
C172	C	1.655584	0.749968	1.169903
C173	C	0.907109	-0.000033	0.333184
C174	C	1.157109	0.249967	0.583184
C175	C	1.407109	0.499967	0.833184
C176	C	1.657109	0.749967	1.083184
C177	C	0.983618	-0.000044	0.299763
C178	C	1.233618	0.249956	0.549763
C179	C	1.483618	0.499956	0.799763
C180	C	1.733618	0.749956	1.049763
C181	C	0.980569	-0.000036	0.473203
C182	C	1.230569	0.249964	0.723203
C183	C	1.480569	0.499964	0.973203
C184	C	1.730569	0.749964	1.223203
C185	C	0.978916	-0.000028	0.567229
C186	C	1.228916	0.249972	0.817229
C187	C	1.478916	0.499972	1.067229
C188	C	1.728916	0.749972	1.317229
C189	C	0.985271	-0.000050	0.205731
C190	C	1.235271	0.249950	0.455731
C191	C	1.485271	0.499950	0.705731
C192	C	1.735271	0.749950	0.955731
H193	H	0.542728	-0.000032	-0.252318
H194	H	0.792728	0.249968	-0.002318
H195	H	1.042728	0.499968	0.247682
H196	H	1.292728	0.749968	0.497682
H197	H	0.890849	-0.775587	-0.204738
H198	H	1.140849	-0.525587	0.045262
H199	H	1.390849	-0.275587	0.295262
H200	H	1.640849	-0.025587	0.545262
H201	H	0.385411	-0.000039	-0.249552
H202	H	0.635411	0.249961	0.000448
H203	H	0.885411	0.499961	0.250448
H204	H	1.135411	0.749961	0.500448
H205	H	0.421451	-0.000061	0.025282
H206	H	0.671451	0.249939	0.275282
H207	H	0.921451	0.499939	0.525282
H208	H	1.171451	0.749939	0.775282
H209	H	1.120895	-0.000051	0.325848
H210	H	1.370895	0.249949	0.575848
H211	H	1.620895	0.499949	0.825848
H212	H	1.870895	0.749949	1.075848
H213	H	1.118129	-0.000037	0.483166
H214	H	1.368129	0.249963	0.733166
H215	H	1.618129	0.499963	0.983166
H216	H	1.868129	0.749963	1.233166
H217	H	0.898837	-0.617024	-0.196725
H218	H	1.148837	-0.367024	0.053275
H219	H	1.398837	-0.117024	0.303275
H220	H	1.648837	0.132976	0.553275
H221	H	0.843294	-0.000026	0.447125
H222	H	1.093294	0.249974	0.697125
H223	H	1.343294	0.499974	0.947125
H224	H	1.593294	0.749974	1.197125
H225	H	1.073344	-0.224501	-0.022297
H226	H	1.323344	0.025499	0.227703
H227	H	1.573344	0.275499	0.477703
H228	H	1.823344	0.525499	0.727703
H229	H	0.846049	-0.000030	0.289791
H230	H	1.096049	0.249970	0.539791
H231	H	1.346049	0.499970	0.789791
H232	H	1.596049	0.749970	1.039791
H233	H	1.065343	-0.383066	-0.030299
H234	H	1.315343	-0.133066	0.219701
H235	H	1.565343	0.116934	0.469701
H236	H	1.815343	0.366934	0.719701
H237	H	0.578786	-0.000053	0.022528
H238	H	0.828786	0.249947	0.272528
H239	H	1.078786	0.499947	0.522528
H240	H	1.328786	0.749947	0.772528
H241	H	1.104045	-0.617016	0.008343
H242	H	1.354045	-0.367016	0.258343
H243	H	1.604045	-0.117016	0.508343
H244	H	1.854045	0.132984	0.758343
H245	H	0.868131	-0.224498	-0.227364
H246	H	1.118131	0.025502	0.022636
H247	H	1.368131	0.275502	0.272636
H248	H	1.618131	0.525502	0.522636
H249	H	0.860141	-0.383072	-0.235367
H250	H	1.110141	-0.133072	0.014633
H251	H	1.360141	0.116928	0.264633
H252	H	1.610141	0.366928	0.514633
H253	H	1.096054	-0.775592	0.000336
H254	H	1.346054	-0.525592	0.250336
H255	H	1.596054	-0.275592	0.500336
H256	H	1.846054	-0.025592	0.750336
