data_functionalizedCrystal
_audit_creation_method	'MofGen! by Chris Wilmer'
_symmetry_space_group_name_H-M	'P1'
_symmetry_Int_Tables_number	1
_symmetry_cell_setting	triclinic
loop_
_symmetry_equiv_pos_as_xyz
  x,y,z
_cell_length_a	15.538191
_cell_length_b	11.026607
_cell_length_c	9.482900
_cell_angle_alpha	78.599815
_cell_angle_beta	84.437322
_cell_angle_gamma	102.070945
loop_
_atom_site_label
_atom_site_type_symbol
_atom_site_fract_x
_atom_site_fract_y
_atom_site_fract_z
O1	O	1.198382	0.390430	-0.120855
O2	O	0.946233	0.260051	-0.120865
O3	O	1.051409	0.492688	-0.120856
O4	O	1.093206	0.157793	-0.120865
O5	O	1.030070	0.445293	0.120935
O6	O	0.924894	0.212656	0.120925
O7	O	1.177042	0.343035	0.120935
Cu8	Cu	1.049020	0.273518	0.143007
Cu9	Cu	1.074256	0.329568	-0.142938
O10	O	1.071866	0.110398	0.120926
C11	C	1.033029	0.510805	0.000037
C12	C	1.010044	0.635396	0.000031
C13	C	0.902781	0.222713	0.000028
C14	C	0.805098	0.182080	0.000025
C15	C	1.220495	0.380374	0.000038
C16	C	1.318179	0.421008	0.000032
C17	C	1.674424	0.017335	0.000018
C18	C	1.766210	0.055543	0.000023
C19	C	1.752208	0.270459	0.000029
C20	C	1.660418	0.232268	0.000031
C21	C	1.621534	0.105704	0.000023
C22	C	1.607528	0.320637	0.000037
C23	C	1.515747	0.282450	0.000031
C24	C	1.476856	0.155893	0.000019
C25	C	1.529753	0.067517	0.000018
C26	C	1.646415	0.447202	0.000033
C27	C	1.593524	0.535572	0.000039
C28	C	1.501741	0.497383	0.000044
C29	C	1.462850	0.370826	0.000032
C30	C	1.448844	0.585759	0.000045
C31	C	1.357063	0.547571	0.000040
C32	C	1.371069	0.332638	0.000026
C33	C	1.090247	0.092281	0.000029
C34	C	1.113233	-0.032308	0.000026
N35	N	1.031276	0.234099	0.344126
C36	C	1.073511	0.737157	0.000032
C37	C	1.049757	0.865929	0.000025
N38	N	1.092006	0.368999	-0.344056
C39	C	1.069016	0.317944	0.416329
C40	C	1.054260	0.285141	0.583745
H41	H	1.339406	0.229574	0.000040
C42	C	1.375899	0.113877	0.000011
H43	H	1.360319	0.025848	-0.000006
H44	H	1.345104	0.128396	0.084327
H45	H	1.359995	0.161455	-0.084319
C46	C	1.210402	0.956630	0.000028
H47	H	1.247140	1.037176	0.000017
H48	H	1.214569	0.896426	0.084345
H49	H	1.229449	0.929482	-0.084301
C50	C	1.631640	-0.121886	0.000025
H51	H	1.569402	-0.131968	0.000033
H52	H	1.656997	-0.143268	-0.084286
H53	H	1.642112	-0.176307	0.084360
C54	C	1.170675	0.726082	0.000041
H55	H	1.207414	0.806626	0.000032
H56	H	1.174837	0.665877	0.084359
H57	H	1.189723	0.698933	-0.084287
H58	H	1.625197	0.638621	0.000040
C59	C	0.952589	0.877002	0.000020
H60	H	0.949369	0.962096	0.000026
H61	H	0.931668	0.854399	-0.084296
H62	H	0.916787	0.821354	0.084350
H63	H	1.313998	0.619531	0.000042
C64	C	0.912882	0.646477	0.000026
H65	H	0.909662	0.731571	0.000032
H66	H	0.891960	0.623873	-0.084290
H67	H	0.877080	0.590828	0.084356
C68	C	0.972871	0.104316	0.428041
H69	H	0.970621	0.099290	0.529555
H70	H	0.914459	0.095462	0.403186
H71	H	0.997515	0.038120	0.403164
H72	H	1.498089	-0.035548	0.000031
C73	C	1.127421	0.447729	0.332421
H74	H	1.149181	0.496083	0.399430
H75	H	1.176080	0.434921	0.273026
H76	H	1.093026	0.492266	0.273058
C77	C	1.824387	-0.041673	0.000015
H78	H	1.788080	-0.122516	0.000017
H79	H	1.867924	-0.014710	-0.084301
H80	H	1.853039	-0.047779	0.084345
C81	C	1.150414	0.498791	0.572044
H82	H	1.172172	0.547143	0.639056
H83	H	1.199074	0.485985	0.512649
H84	H	1.116019	0.543329	0.512682
C85	C	1.794985	0.409668	0.000046
H86	H	1.857221	0.419755	0.000058
H87	H	1.784507	0.464102	-0.084264
H88	H	1.769623	0.431022	0.084382
C89	C	1.491625	0.724969	0.000048
H90	H	1.553861	0.735054	0.000054
H91	H	1.481145	0.779396	-0.084265
H92	H	1.466267	0.746334	0.084381
H93	H	1.721151	0.478295	0.000011
H94	H	1.011019	0.189069	0.645865
