data_functionalizedCrystal
_audit_creation_method	'MofGen! by Chris Wilmer'
_symmetry_space_group_name_H-M	'P1'
_symmetry_Int_Tables_number	1
_symmetry_cell_setting	triclinic
loop_
_symmetry_equiv_pos_as_xyz
  x,y,z
_cell_length_a	16.959455
_cell_length_b	11.169416
_cell_length_c	11.169409
_cell_angle_alpha	89.968635
_cell_angle_beta	89.971901
_cell_angle_gamma	90.007169
loop_
_atom_site_label
_atom_site_type_symbol
_atom_site_fract_x
_atom_site_fract_y
_atom_site_fract_z
Zn1	Zn	1.208499	-0.477805	-0.678816
Zn2	Zn	1.708499	0.022195	-0.178816
Zn3	Zn	1.208426	-0.678546	-0.478136
Zn4	Zn	1.708426	-0.178546	0.021864
Zn5	Zn	1.076309	-0.477865	-0.478121
Zn6	Zn	1.576309	0.022135	0.021879
Zn7	Zn	1.076315	-0.678435	-0.678752
Zn8	Zn	1.576315	-0.178435	-0.178752
O9	O	1.142387	-0.578163	-0.578456
O10	O	1.642387	-0.078163	-0.078456
O11	O	1.319100	-0.504455	-0.652228
O12	O	1.819100	-0.004455	-0.152228
O13	O	1.190868	-0.651996	-0.310184
O14	O	1.690868	-0.151996	0.189816
O15	O	1.093873	-0.309907	-0.504764
O16	O	1.593873	0.190093	-0.004764
O17	O	1.319047	-0.651939	-0.504790
O18	O	1.819047	-0.151939	-0.004790
O19	O	1.190991	-0.309863	-0.652214
O20	O	1.690991	0.190137	-0.152214
O21	O	1.093802	-0.504557	-0.310173
O22	O	1.593802	-0.004557	0.189827
O23	O	0.965699	-0.504449	-0.504702
O24	O	1.465699	-0.004449	-0.004702
O25	O	1.093882	-0.651749	-0.846710
O26	O	1.593882	-0.151749	-0.346710
O27	O	0.965703	-0.651807	-0.652105
O28	O	1.465703	-0.151807	-0.152105
O29	O	1.190997	-0.504348	-0.846757
O30	O	1.690997	-0.004348	-0.346757
O31	O	1.190873	-0.846481	-0.504728
O32	O	1.690873	-0.346481	-0.004728
O33	O	1.093811	-0.846399	-0.652119
O34	O	1.593811	-0.346399	-0.152119
C35	C	0.937021	-0.578123	-0.578396
C36	C	1.437021	-0.078123	-0.078396
C37	C	0.849164	-0.578136	-0.578398
C38	C	1.349164	-0.078136	-0.078398
C39	C	1.142357	-0.889987	-0.578444
C40	C	1.642357	-0.389987	-0.078444
C41	C	1.142416	-1.023387	-0.578480
C42	C	1.642416	-0.523387	-0.078480
C43	C	0.477650	-0.654881	-0.501646
C44	C	0.977650	-0.154881	-0.001646
C45	C	0.477727	-0.501544	-0.655413
C46	C	0.977727	-0.001544	-0.155413
C47	C	0.560273	-0.501524	-0.655384
C48	C	1.060273	-0.001524	-0.155384
C49	C	0.601511	-0.578185	-0.578486
C50	C	1.101511	-0.078185	-0.078486
C51	C	0.560204	-0.654866	-0.501617
C52	C	1.060204	-0.154866	-0.001617
C53	C	0.601587	-0.424853	-0.732259
C54	C	1.101587	0.075147	-0.232259
C55	C	0.684138	-0.424831	-0.732234
C56	C	1.184138	0.075169	-0.232234
C57	C	0.725377	-0.501487	-0.655329
C58	C	1.225377	-0.001487	-0.155329
C59	C	0.684065	-0.578170	-0.578457
C60	C	1.184065	-0.078170	-0.078457
C61	C	0.725303	-0.654831	-0.501559
C62	C	1.225303	-0.154831	-0.001559
C63	C	0.683992	-0.731509	-0.424679
C64	C	1.183992	-0.231509	0.075321
C65	C	0.601444	-0.731522	-0.424712
C66	C	1.101444	-0.231522	0.075288
C67	C	0.807926	-0.501474	-0.655296
C68	C	1.307926	-0.001474	-0.155296
C69	C	0.807857	-0.654817	-0.501530
C70	C	1.307857	-0.154817	-0.001530
C71	C	1.348555	-0.578203	-0.578518
C72	C	1.848555	-0.078203	-0.078518
C73	C	1.436412	-0.578220	-0.578544
C74	C	1.936412	-0.078220	-0.078544
C75	C	1.142448	-0.578029	-0.891499
C76	C	1.642448	-0.078029	-0.391499
C77	C	1.142474	-0.577973	-1.024899
C78	C	1.642474	-0.077973	-0.524899
C79	C	1.142439	-0.265120	-0.578494
C80	C	1.642439	0.234880	-0.078494
C81	C	1.142462	-0.131720	-0.578511
C82	C	1.642462	0.368280	-0.078511
C83	C	1.142372	-0.578209	-0.266632
C84	C	1.642372	-0.078209	0.233368
C85	C	1.142499	-0.577927	-0.133232
C86	C	1.642499	-0.077927	0.366768
H87	H	0.717579	-0.793933	-0.362075
H88	H	1.217579	-0.293933	0.137925
H89	H	0.444011	-0.717307	-0.439049
H90	H	0.944011	-0.217307	0.060951
N91	N	0.852481	-0.418802	-0.738227
N92	N	1.352481	0.081198	-0.238227
H93	H	0.911033	-0.430429	-0.726547
H94	H	1.411033	0.069571	-0.226547
H95	H	0.838085	-0.437614	-0.823906
H96	H	1.338085	0.062386	-0.323906
H97	H	0.567801	-0.793949	-0.362120
H98	H	1.067801	-0.293949	0.137880
N99	N	0.433254	-0.418871	-0.738356
N100	N	0.933254	0.081129	-0.238356
H101	H	0.374691	-0.430518	-0.726713
H102	H	0.874691	0.069482	-0.226713
H103	H	0.447671	-0.333131	-0.719812
H104	H	0.947671	0.166869	-0.219812
H105	H	0.568004	-0.362447	-0.794873
H106	H	1.068004	0.137553	-0.294873
N107	N	0.852334	-0.737493	-0.418579
N108	N	1.352334	-0.237493	0.081421
H109	H	0.813636	-0.786064	-0.369884
H110	H	1.313636	-0.286064	0.130116
H111	H	0.886605	-0.793089	-0.467324
H112	H	1.386605	-0.293089	0.032676
H113	H	0.717766	-0.362395	-0.794834
H114	H	1.217766	0.137605	-0.294834
