data_functionalizedCrystal
_audit_creation_method	'MofGen! by Chris Wilmer'
_symmetry_space_group_name_H-M	'P1'
_symmetry_Int_Tables_number	1
_symmetry_cell_setting	triclinic
loop_
_symmetry_equiv_pos_as_xyz
  x,y,z
_cell_length_a	8.634740
_cell_length_b	26.809956
_cell_length_c	8.559648
_cell_angle_alpha	89.998083
_cell_angle_beta	94.825515
_cell_angle_gamma	90.009059
loop_
_atom_site_label
_atom_site_type_symbol
_atom_site_fract_x
_atom_site_fract_y
_atom_site_fract_z
O1	O	1.985440	-0.041448	-0.511644
O2	O	1.541569	-0.041451	-0.468742
O3	O	1.802610	-0.041462	-0.263612
O4	O	1.724399	-0.041438	-0.716775
O5	O	1.802652	0.041498	-0.263573
O6	O	1.541611	0.041508	-0.468704
O7	O	1.985482	0.041511	-0.511606
Zn8	Zn	1.763554	0.054681	-0.490149
Zn9	Zn	1.763498	-0.054621	-0.490199
O10	O	1.724441	0.041522	-0.716736
C11	C	1.485291	0.000028	-0.459004
C12	C	1.317539	0.000026	-0.430026
N13	N	1.763462	-0.129217	-0.490222
C14	C	1.879317	-0.473848	-0.399601
C15	C	1.879346	-0.682725	-0.399569
O16	O	1.977832	-0.709733	-0.322581
N17	N	1.763588	-0.708844	-0.490146
C18	C	1.647821	-0.682740	-0.580745
O19	O	1.549371	-0.709749	-0.657797
C20	C	1.647800	-0.473864	-0.580784
C21	C	1.763556	-0.447748	-0.490190
C22	C	1.995065	-0.447732	-0.309016
C23	C	1.995052	-0.395515	-0.309018
C24	C	1.879291	-0.369415	-0.399606
C25	C	1.763543	-0.395531	-0.490192
C26	C	1.532040	-0.447761	-0.671391
C27	C	1.532047	-0.395538	-0.671396
C28	C	1.647804	-0.369422	-0.580801
C29	C	1.647769	-0.317215	-0.580782
N30	N	1.763527	-0.291096	-0.490206
C31	C	1.879288	-0.317196	-0.399618
C32	C	1.647838	-0.792404	-0.580715
C33	C	1.647841	-0.844623	-0.580703
C34	C	1.879369	-0.844604	-0.399530
C35	C	1.879358	-0.792384	-0.399534
C36	C	1.763596	-0.766285	-0.490139
C37	C	1.879251	-0.207538	-0.399629
C38	C	1.879224	-0.155317	-0.399634
C39	C	1.647702	-0.155340	-0.580813
C40	C	1.647723	-0.207557	-0.580802
C41	C	1.763511	-0.233654	-0.490206
O42	O	1.549345	-0.290175	-0.657744
O43	O	1.977742	-0.290179	-0.322604
C44	C	1.879331	-0.526064	-0.399599
C45	C	1.763583	-0.552180	-0.490185
C46	C	1.647821	-0.526080	-0.580773
C47	C	1.763586	-0.604399	-0.490173
C48	C	1.879347	-0.630499	-0.399585
C49	C	1.995105	-0.604381	-0.309009
C50	C	1.995092	-0.552164	-0.309011
C51	C	1.532064	-0.552199	-0.671350
C52	C	1.532085	-0.604415	-0.671339
C53	C	1.647846	-0.630515	-0.580750
C54	C	2.041761	0.000031	-0.521344
C55	C	2.209512	0.000030	-0.550322
C56	C	1.808558	0.000014	-0.204975
C57	C	1.826201	0.000001	-0.030311
N58	N	1.763603	0.129277	-0.490115
C59	C	1.718493	0.000031	0.224627
C60	C	1.700851	-0.000001	0.049963
H61	H	1.245360	0.000041	-0.675483
H62	H	1.947023	0.000002	0.034594
H63	H	1.973487	-0.134055	-0.325855
O64	O	1.270071	0.000015	-0.264218
H65	H	1.141343	0.000009	-0.266705
O66	O	2.004119	-0.235675	-0.301875
H67	H	1.949567	-0.259467	-0.215638
H68	H	2.089315	-0.374255	-0.235253
O69	O	1.540807	0.000001	-0.035981
H70	H	1.551597	0.000001	-0.164283
O71	O	1.522968	-0.872790	-0.678380
H72	H	1.577493	-0.896584	-0.764611
H73	H	2.089339	-0.468978	-0.235249
H74	H	1.973625	-0.865864	-0.325767
O75	O	2.004225	-0.764217	-0.301849
H76	H	2.084722	-0.791144	-0.238871
O77	O	1.523011	-0.764256	-0.678494
H78	H	1.442537	-0.791196	-0.741477
O79	O	2.119963	-0.523998	-0.211326
H80	H	2.200462	-0.550927	-0.148359
H81	H	1.437782	-0.469017	-0.745162
H82	H	1.437781	-0.374291	-0.745182
O83	O	1.522874	-0.235730	-0.678506
H84	H	1.442381	-0.208806	-0.741503
O85	O	1.522856	-0.127185	-0.678530
H86	H	1.542319	-0.086488	-0.663321
O87	O	1.407229	-0.632582	-0.769062
H88	H	1.326748	-0.605654	-0.832062
H89	H	2.089358	-0.625640	-0.235242
H90	H	1.437798	-0.530952	-0.745120
