data_functionalizedCrystal
_audit_creation_method	'MofGen! by Chris Wilmer'
_symmetry_space_group_name_H-M	'P1'
_symmetry_Int_Tables_number	1
_symmetry_cell_setting	triclinic
loop_
_symmetry_equiv_pos_as_xyz
  x,y,z
_cell_length_a	19.121063
_cell_length_b	19.121246
_cell_length_c	19.120904
_cell_angle_alpha	89.874251
_cell_angle_beta	85.258387
_cell_angle_gamma	84.997708
loop_
_atom_site_label
_atom_site_type_symbol
_atom_site_fract_x
_atom_site_fract_y
_atom_site_fract_z
Zn1	Zn	-0.254527	-1.043555	0.452575
Zn2	Zn	0.245473	-0.543555	0.952575
Zn3	Zn	-0.367178	-1.043468	0.339922
Zn4	Zn	0.132822	-0.543468	0.839922
Zn5	Zn	-0.254107	-0.931341	0.330325
Zn6	Zn	0.245893	-0.431341	0.830325
Zn7	Zn	-0.377162	-0.920834	0.452512
Zn8	Zn	0.122838	-0.420834	0.952512
O9	O	-0.313244	-0.984799	0.393833
O10	O	0.186756	-0.484799	0.893833
O11	O	-0.265468	-1.141829	0.441673
O12	O	0.234532	-0.641829	0.941673
O13	O	-0.347825	-1.032955	0.240367
O14	O	0.152175	-0.532955	0.740367
O15	O	-0.155519	-0.950660	0.342551
O16	O	0.344481	-0.450660	0.842551
O17	O	-0.348232	-1.141765	0.358908
O18	O	0.151768	-0.641765	0.858908
O19	O	-0.155828	-1.033103	0.432368
O20	O	0.344172	-0.533103	0.932368
O21	O	-0.264752	-0.950575	0.233316
O22	O	0.235248	-0.450575	0.733316
O23	O	-0.274433	-0.831661	0.342490
O24	O	0.225567	-0.331661	0.842490
O25	O	-0.365249	-0.932752	0.550802
O26	O	0.134751	-0.432752	1.050802
O27	O	-0.364841	-0.823942	0.432261
O28	O	0.135159	-0.323942	0.932261
O29	O	-0.275150	-1.022915	0.550848
O30	O	0.224850	-0.522915	1.050848
O31	O	-0.467146	-1.022767	0.358847
O32	O	0.032854	-0.522767	0.858847
O33	O	-0.474482	-0.932668	0.441567
O34	O	0.025518	-0.432668	0.941567
C35	C	-0.320676	-0.802317	0.386328
C36	C	0.179324	-0.302317	0.886328
C37	C	-0.323873	-0.724249	0.383135
C38	C	0.176127	-0.224249	0.883135
C39	C	-0.282359	-0.687600	0.424797
C40	C	0.217641	-0.187600	0.924797
C41	C	-0.285359	-0.614248	0.421791
C42	C	0.214641	-0.114248	0.921791
C43	C	-0.329878	-0.577545	0.377124
C44	C	0.170122	-0.077545	0.877124
C45	C	-0.371394	-0.614199	0.335457
C46	C	0.128606	-0.114199	0.835457
C47	C	-0.368389	-0.687551	0.338460
C48	C	0.131611	-0.187551	0.838460
C49	C	-0.341099	-0.356068	0.365893
C50	C	0.158901	0.143932	0.865893
C51	C	-0.344102	-0.282711	0.362894
C52	C	0.155898	0.217289	0.862894
C53	C	-0.258066	-0.282765	0.449227
C54	C	0.241934	0.217235	0.949227
C55	C	-0.255069	-0.356118	0.452230
C56	C	0.244931	0.143882	0.952230
C57	C	-0.296581	-0.392766	0.410560
C58	C	0.203419	0.107234	0.910560
C59	C	-0.332948	-0.502566	0.374051
C60	C	0.167052	-0.002566	0.874051
C61	C	-0.293508	-0.467744	0.413629
C62	C	0.206492	0.032256	0.913629
C63	C	-0.496391	-0.976586	0.401258
C64	C	0.003609	-0.476586	0.901258
C65	C	-0.574740	-0.973136	0.404460
C66	C	-0.074740	-0.473136	0.904460
C67	C	-0.607707	-1.018458	0.362936
C68	C	-0.107707	-0.518458	0.862936
C69	C	-0.681325	-1.015217	0.365952
C70	C	-0.181325	-0.515217	0.865952
C71	C	-0.721975	-0.966649	0.410489
C72	C	-0.221975	-0.466649	0.910489
C73	C	-0.689004	-0.921325	0.452019
C74	C	-0.189004	-0.421325	0.952019
C75	C	-0.615387	-0.924570	0.449006
C76	C	-0.115387	-0.424570	0.949006
C77	C	-0.944442	-0.954506	0.421743
C78	C	-0.444442	-0.454506	0.921743
C79	C	-1.018064	-0.951263	0.424751
C80	C	-0.518064	-0.451263	0.924751
C81	C	-1.010380	-1.045155	0.338685
C82	C	-0.510380	-0.545155	0.838685
C83	C	-0.936762	-1.048393	0.335673
C84	C	-0.436762	-0.548393	0.835673
C85	C	-0.903797	-1.003072	0.377205
C86	C	-0.403797	-0.503072	0.877205
C87	C	-0.797225	-0.963334	0.413572
C88	C	-0.297225	-0.463334	0.913572
C89	C	-0.828549	-1.006391	0.374125
C90	C	-0.328549	-0.506391	0.874125
C91	C	-0.129381	-0.993063	0.386396
C92	C	0.370619	-0.493063	0.886396
C93	C	-0.051030	-0.996585	0.383226
C94	C	0.448970	-0.496585	0.883226
C95	C	-0.321360	-0.976671	0.577021
C96	C	0.178640	-0.476671	1.077021
C97	C	-0.324818	-0.973207	0.655084
C98	C	0.175182	-0.473207	1.155084
C99	C	-0.305779	-0.167994	0.401363
C100	C	0.194221	0.332006	0.901363
C101	C	-0.302588	-0.246062	0.404557
C102	C	0.197412	0.253938	0.904557
C103	C	-0.305107	-0.992939	0.211358
C104	C	0.194893	-0.492939	0.711358
C105	C	-0.301444	-0.996547	0.133293
C106	C	0.198556	-0.496547	0.633293
C107	C	-0.279536	-1.018521	0.691783
C108	C	0.220464	-0.518521	1.191783
C109	C	-0.282783	-1.015258	0.765132
C110	C	0.217217	-0.515258	1.265132
C111	C	-0.331317	-0.966684	0.801780
C112	C	0.168683	-0.466684	1.301780
C113	C	-0.376602	-0.921366	0.765075
C114	C	0.123398	-0.421366	1.265075
C115	C	-0.373351	-0.924626	0.691728
C116	C	0.126649	-0.424626	1.191728
C117	C	-0.343478	-0.954489	1.023240
C118	C	0.156522	-0.454489	1.523240
C119	C	-0.346727	-0.951234	1.096593
C120	C	0.153273	-0.451234	1.596593
C121	C	-0.252907	-1.045125	1.096645
C122	C	0.247093	-0.545125	1.596645
C123	C	-0.249662	-1.048384	1.023296
C124	C	0.250338	-0.548384	1.523296
C125	C	-0.294945	-1.003063	0.986598
C126	C	0.205055	-0.503063	1.486598
C127	C	-0.334639	-0.963349	0.876754
C128	C	0.165361	-0.463349	1.376754
C129	C	-0.291619	-1.006395	0.911625
C130	C	0.208381	-0.506395	1.411625
H131	H	-0.224268	-0.252918	0.483151
H132	H	0.275732	0.247082	0.983151
Br133	Br	-0.431807	-0.564389	0.274831
Br134	Br	0.068193	-0.064389	0.774831
Br135	Br	-0.393364	-0.452749	0.313434
Br136	Br	0.106636	0.047251	0.813434
H137	H	-0.380358	-0.252830	0.326521
H138	H	0.119642	0.247170	0.826521
Br139	Br	-0.552546	-1.084367	0.302482
Br140	Br	-0.052546	-0.584367	0.802482
H141	H	-0.917608	-0.917602	0.455558
H142	H	-0.417608	-0.417602	0.955558
H143	H	-0.374159	-0.923804	0.906601
H144	H	0.125841	-0.423804	1.406601
Br145	Br	-0.570646	-0.863064	0.505367
Br146	Br	-0.070646	-0.363064	1.005367
H147	H	-0.708163	-1.052122	0.332138
H148	H	-0.208163	-0.552122	0.832138
H149	H	-0.903666	-1.087940	0.299407
H150	H	-0.403666	-0.587940	0.799407
H151	H	-0.795449	-1.045937	0.337866
H152	H	-0.295449	-0.545937	0.837866
Br153	Br	-0.191454	-1.106627	1.146453
Br154	Br	0.308546	-0.606627	1.646453
H155	H	-1.037228	-1.082054	0.304873
H156	H	-0.537228	-0.582054	0.804873
H157	H	-0.416117	-0.881814	0.794920
H158	H	0.083883	-0.381814	1.294920
H159	H	-1.051160	-0.911721	0.461031
H160	H	-0.551160	-0.411721	0.961031
H161	H	-0.830330	-0.923789	0.449833
H162	H	-0.330330	-0.423789	0.949833
H163	H	-0.380360	-0.917596	0.993370
H164	H	0.119640	-0.417596	1.493370
Br165	Br	-0.213670	-1.084451	0.642054
Br166	Br	0.286330	-0.584451	1.142054
H167	H	-0.402194	-0.717389	0.304533
H168	H	0.097806	-0.217389	0.804533
Br169	Br	-0.233088	-0.517556	0.474242
Br170	Br	0.266912	-0.017556	0.974242
H171	H	-0.410218	-0.887720	0.661848
H172	H	0.089782	-0.387720	1.161848
Br173	Br	-0.221943	-0.737404	0.485424
Br174	Br	0.278057	-0.237404	0.985424
Br175	Br	-0.221356	-1.076789	0.814939
Br176	Br	0.278644	-0.576789	1.314939
Br177	Br	-0.744171	-0.855418	0.512469
Br178	Br	-0.244171	-0.355418	1.012469
H179	H	-0.210143	-1.087940	0.993462
H180	H	0.289857	-0.587940	1.493462
H181	H	-0.252100	-1.045941	0.881782
H182	H	0.247900	-0.545941	1.381782
Br183	Br	-0.194655	-0.405924	0.512858
Br184	Br	0.305345	0.094076	1.012858
H185	H	-0.251556	-0.584411	0.455718
H186	H	0.248444	-0.084411	0.955718
Br187	Br	-0.412597	-0.885306	1.146330
Br188	Br	0.087403	-0.385306	1.646330
H189	H	-0.374902	-0.385898	0.331962
H190	H	0.125098	0.114102	0.831962
