data_functionalizedCrystal
_audit_creation_method	'MofGen! by Chris Wilmer'
_symmetry_space_group_name_H-M	'P1'
_symmetry_Int_Tables_number	1
_symmetry_cell_setting	triclinic
loop_
_symmetry_equiv_pos_as_xyz
  x,y,z
_cell_length_a	17.699097
_cell_length_b	23.532407
_cell_length_c	16.776229
_cell_angle_alpha	89.988688
_cell_angle_beta	89.989262
_cell_angle_gamma	83.068554
loop_
_atom_site_label
_atom_site_type_symbol
_atom_site_fract_x
_atom_site_fract_y
_atom_site_fract_z
O1	O	1.003707	0.072056	-0.066363
O2	O	0.783282	0.081418	-0.066351
O3	O	0.900141	-0.006176	-0.066342
O4	O	0.886847	0.159649	-0.066371
O5	O	0.900126	-0.006181	0.066234
O6	O	0.783267	0.081412	0.066226
O7	O	1.003691	0.072050	0.066214
Zn8	Zn	0.893476	0.076731	0.087269
Zn9	Zn	0.893497	0.076738	-0.087406
O10	O	0.886832	0.159644	0.066206
C11	C	0.755079	0.081078	-0.000061
C12	C	0.671067	0.080068	-0.000056
C13	C	0.899795	-0.027395	-0.000052
C14	C	0.898777	-0.090615	-0.000046
C15	C	0.155388	0.073879	-0.072354
C16	C	0.234328	0.074824	-0.072350
C17	C	0.273783	0.075295	-0.000080
C18	C	0.234296	0.074814	0.072192
C19	C	0.155359	0.073865	0.072187
C20	C	0.552640	0.078642	0.072212
C21	C	0.631583	0.079594	0.072211
C22	C	0.631609	0.079602	-0.072325
C23	C	0.552672	0.078652	-0.072330
C24	C	0.513193	0.078169	-0.000059
C25	C	0.427598	0.077143	-0.000064
C26	C	0.359375	0.076325	-0.000074
C27	C	0.961548	-0.489536	-0.000093
C28	C	0.960603	-0.548939	-0.000099
O29	O	1.018792	-0.585514	-0.000132
N30	N	0.891130	-0.571767	-0.000095
C31	C	0.822598	-0.535189	-0.000092
O32	O	0.763419	-0.560060	-0.000090
C33	C	0.823545	-0.475787	-0.000092
C34	C	0.893022	-0.452962	-0.000088
C35	C	1.031020	-0.466710	-0.000090
C36	C	1.031965	-0.407311	-0.000083
C37	C	0.963439	-0.370738	-0.000078
C38	C	0.893967	-0.393563	-0.000081
C39	C	0.755014	-0.439210	-0.000096
C40	C	0.755966	-0.379804	-0.000096
C41	C	0.825443	-0.356980	-0.000092
C42	C	0.826386	-0.297591	-0.000069
N43	N	0.895858	-0.274763	-0.000073
C44	C	0.964385	-0.311336	-0.000078
C45	C	0.820616	-0.659937	-0.000094
C46	C	0.819669	-0.719338	-0.000089
C47	C	0.957674	-0.733084	-0.000097
C48	C	0.958620	-0.673682	-0.000097
C49	C	0.890089	-0.637109	-0.000099
C50	C	0.966365	-0.186594	-0.000061
C51	C	0.967304	-0.127189	-0.000050
C52	C	0.829299	-0.113448	-0.000047
C53	C	0.828360	-0.172848	-0.000053
C54	C	0.896899	-0.209420	-0.000063
O55	O	0.768227	-0.260981	-0.000039
O56	O	1.023554	-0.286456	-0.000091
C57	C	1.031894	0.072390	-0.000078
C58	C	1.115906	0.073400	-0.000088
C59	C	0.887178	0.180864	-0.000086
C60	C	0.888196	0.244084	-0.000098
N61	N	0.893468	0.076725	0.206481
N62	N	0.893511	0.076738	-0.206617
C63	C	0.945229	0.037955	0.248201
C64	C	0.945233	0.037954	0.331653
C65	C	0.893480	0.076728	0.373383
C66	C	0.841713	0.115500	0.331657
C67	C	0.841706	0.115497	0.248206
C68	C	0.841741	0.115511	0.668204
C69	C	0.841753	0.115512	0.751660
C70	C	0.945268	0.037968	0.751651
C71	C	0.945260	0.037966	0.668201
C72	C	0.893492	0.076736	0.626481
C73	C	0.893487	0.076735	0.535993
C74	C	0.893487	0.076731	0.463870
H75	H	0.266471	0.075210	-0.131197
C76	C	0.785584	0.157550	0.622772
C77	C	0.796637	0.149244	0.540757
C78	C	0.744915	0.187960	0.498876
H79	H	0.793476	0.195574	0.636342
H80	H	0.735103	0.151412	0.636418
H81	H	0.847106	0.155386	0.527116
H82	H	0.788739	0.111228	0.527163
H83	H	0.694434	0.181822	0.512523
H84	H	0.752811	0.225982	0.512453
H85	H	0.752403	0.182327	0.443225
C86	C	0.112696	0.073343	-0.150905
C87	C	0.164175	0.073950	-0.214191
C88	C	0.124879	0.073448	-0.286565
H89	H	0.075882	0.106162	-0.154030
H90	H	0.087942	0.039763	-0.153951
H91	H	0.188917	0.107526	-0.211147
H92	H	0.200990	0.041133	-0.211092
H93	H	0.100125	0.039868	-0.289611
H94	H	0.088066	0.106267	-0.289682
H95	H	0.159802	0.073854	-0.329513
C96	C	1.040720	-0.226361	0.000057
C97	C	1.044196	-0.260887	0.068251
C98	C	1.112675	-0.297533	0.068387
H99	H	1.082288	-0.204324	0.000102
H100	H	1.043240	-0.249846	-0.046154
H101	H	1.041684	-0.237405	0.114450
H102	H	1.002644	-0.282936	0.068221
H103	H	1.115195	-0.321017	0.022177
H104	H	1.154238	-0.275491	0.068430
H105	H	1.115040	-0.320966	0.114652
H106	H	0.763094	-0.737916	-0.000078
H107	H	1.015195	-0.655102	-0.000094
H108	H	0.764806	-0.630162	-0.000089
C109	C	0.112602	0.073258	0.150708
C110	C	0.140692	0.024517	0.194324
C111	C	0.101331	0.023940	0.266667
H112	H	0.059934	0.072594	0.140468
H113	H	0.119529	0.106593	0.180442
H114	H	0.133758	-0.008809	0.164596
H115	H	0.193355	0.025171	0.204585
H116	H	0.108258	0.057275	0.296402
H117	H	0.048665	0.023278	0.256420
H118	H	0.120389	-0.009127	0.296273
H119	H	0.520507	0.078240	0.131060
H120	H	0.987418	0.006398	0.785628
H121	H	1.088540	-0.388734	-0.000083
C122	C	0.277261	0.075356	0.150576
C123	C	0.354839	0.076307	0.135115
C124	C	0.394438	0.076817	0.207304
H125	H	0.270430	0.042012	0.180335
H126	H	0.258336	0.108411	0.180270
H127	H	0.373758	0.043256	0.105433
H128	H	0.361693	0.109649	0.105368
H129	H	0.375513	0.109871	0.236998
H130	H	0.387601	0.043472	0.237058
H131	H	0.447078	0.077467	0.196824
H132	H	0.799571	0.147068	0.365638
C133	C	1.042818	-0.102519	-0.000091
C134	C	1.102625	-0.147268	-0.000121
C135	C	1.172197	-0.124566	-0.000171
H136	H	1.046162	-0.079650	0.046131
H137	H	1.046103	-0.079641	-0.046340
H138	H	1.099343	-0.170137	0.046123
H139	H	1.099307	-0.170141	-0.046339
H140	H	1.175481	-0.101688	-0.046420
H141	H	1.175533	-0.101697	0.046052
H142	H	1.212784	-0.154924	-0.000198
C143	C	0.679603	-0.464014	0.000054
C144	C	0.674990	-0.497716	0.068266
C145	C	0.605525	-0.520568	0.068433
H146	H	0.676300	-0.486931	-0.046128
H147	H	0.638909	-0.433735	0.000094
H148	H	0.715673	-0.527991	0.068219
H149	H	0.678280	-0.474812	0.114459
H150	H	0.564832	-0.490288	0.068473
H151	H	0.602228	-0.543481	0.022247
H152	H	0.602383	-0.543432	0.114717
C153	C	1.105509	-0.506318	-0.000050
C154	C	1.166542	-0.473602	-0.000028
C155	C	1.235177	-0.510065	0.000026
H156	H	1.108134	-0.529786	-0.046268
H157	H	1.108047	-0.529773	0.046203
H158	H	1.164005	-0.450158	-0.046276
H159	H	1.163942	-0.450136	0.046186
H160	H	1.237715	-0.533519	0.046279
H161	H	1.237794	-0.533531	-0.046192
H162	H	1.276596	-0.487873	0.000049
H163	H	0.987376	0.006384	0.214230
C164	C	0.785423	0.157502	0.202864
C165	C	0.739308	0.127203	0.154997
C166	C	0.687441	0.165878	0.113226
H167	H	0.812375	0.181199	0.170227
H168	H	0.754559	0.180587	0.239642
H169	H	0.770169	0.104128	0.118223
H170	H	0.712340	0.103508	0.187614
H171	H	0.656577	0.188963	0.150004
H172	H	0.714399	0.189573	0.080593
H173	H	0.656141	0.145326	0.080749
H174	H	0.663764	0.079993	-0.131172
C175	C	0.509978	0.078113	-0.150879
C176	C	0.561454	0.078718	-0.214168
C177	C	0.522155	0.078211	-0.286540
H178	H	0.473162	0.110930	-0.154005
H179	H	0.485226	0.044531	-0.153920
H180	H	0.586194	0.112296	-0.211129
H181	H	0.598271	0.045903	-0.211068
H182	H	0.497403	0.044630	-0.289581
H183	H	0.485340	0.111030	-0.289658
H184	H	0.557076	0.078617	-0.329490
H185	H	1.013472	-0.762873	-0.000104
H186	H	0.700158	-0.350029	-0.000099
C187	C	0.752851	-0.197522	-0.000096
C188	C	0.693042	-0.152775	-0.000108
C189	C	0.623471	-0.175478	-0.000169
H190	H	0.749494	-0.220413	0.046116
H191	H	0.749581	-0.220379	-0.046355
H192	H	0.696310	-0.129927	0.046146
H193	H	0.696373	-0.129880	-0.046317
H194	H	0.620202	-0.198336	-0.046428
H195	H	0.620123	-0.198369	0.046044
H196	H	0.582883	-0.145121	-0.000185
H197	H	0.663705	0.079977	0.131066
H198	H	0.773507	-0.083659	-0.000040
C199	C	1.001405	-0.004226	0.376843
C200	C	0.989582	-0.060182	0.356549
C201	C	1.041325	-0.099055	0.398151
H202	H	0.994058	0.001244	0.432533
H203	H	1.051879	0.001887	0.363127
H204	H	0.939121	-0.066293	0.370271
H205	H	0.996935	-0.065671	0.300866
H206	H	1.091798	-0.092942	0.384435
H207	H	1.033973	-0.093580	0.453839
H208	H	1.033314	-0.137025	0.384382
H209	H	0.987405	0.006395	0.634227
H210	H	0.799606	0.147087	0.785636
