data_functionalizedCrystal
_audit_creation_method	'MofGen! by Chris Wilmer'
_symmetry_space_group_name_H-M	'P1'
_symmetry_Int_Tables_number	1
_symmetry_cell_setting	triclinic
loop_
_symmetry_equiv_pos_as_xyz
  x,y,z
_cell_length_a	16.109302
_cell_length_b	27.731996
_cell_length_c	14.586319
_cell_angle_alpha	89.990257
_cell_angle_beta	89.994552
_cell_angle_gamma	83.041584
loop_
_atom_site_label
_atom_site_type_symbol
_atom_site_fract_x
_atom_site_fract_y
_atom_site_fract_z
O1	O	1.102341	0.062133	-0.076294
O2	O	0.860181	0.069865	-0.076288
O3	O	0.988805	-0.004368	-0.076271
O4	O	0.973718	0.136366	-0.076311
O5	O	0.988796	-0.004369	0.076210
O6	O	0.860172	0.069864	0.076193
O7	O	1.102332	0.062132	0.076187
Cu8	Cu	0.981251	0.065998	0.090113
Cu9	Cu	0.981262	0.065999	-0.090214
O10	O	0.973709	0.136365	0.076170
C11	C	0.829206	0.069551	-0.000047
C12	C	0.736922	0.068612	-0.000044
C13	C	0.524604	0.066440	0.083065
C14	C	0.437895	0.065552	0.083062
C15	C	0.437916	0.065556	-0.083181
C16	C	0.524624	0.066440	-0.083177
C17	C	0.567965	0.066885	-0.000051
C18	C	0.394548	0.065113	-0.000058
C19	C	0.300535	0.064150	-0.000062
C20	C	0.661985	0.067846	-0.000047
C21	C	0.988490	-0.022377	-0.000028
C22	C	0.987557	-0.076037	-0.000018
C23	C	0.981688	-0.408777	-0.083180
C24	C	0.978144	-0.610451	-0.083196
O25	O	0.977654	-0.636523	-0.153885
N26	N	0.977698	-0.635670	-0.000080
C27	C	0.978134	-0.610468	0.083047
O28	O	0.977666	-0.636546	0.153742
C29	C	0.981673	-0.408795	0.083062
C30	C	0.982127	-0.383579	-0.000060
C31	C	0.982141	-0.383561	-0.166295
C32	C	0.983032	-0.333146	-0.166291
C33	C	0.983470	-0.307948	-0.083171
C34	C	0.983017	-0.333164	-0.000055
C35	C	0.982103	-0.383594	0.166187
C36	C	0.982985	-0.333172	0.166184
C37	C	0.983439	-0.307956	0.083062
C38	C	0.984346	-0.257551	0.083070
N39	N	0.984791	-0.232331	-0.000047
C40	C	0.984353	-0.257530	-0.083167
C41	C	0.976278	-0.716349	0.083033
C42	C	0.975395	-0.766767	0.083029
C43	C	0.975403	-0.766746	-0.083214
C44	C	0.976292	-0.716328	-0.083209
C45	C	0.976723	-0.691130	-0.000084
C46	C	0.986224	-0.151655	-0.083151
C47	C	0.987119	-0.101236	-0.083138
C48	C	0.987106	-0.101261	0.083104
C49	C	0.986216	-0.151676	0.083093
C50	C	0.985773	-0.176871	-0.000042
O51	O	0.984827	-0.231447	0.153721
O52	O	0.984803	-0.231442	-0.153852
C53	C	0.980798	-0.459192	-0.083185
C54	C	0.980345	-0.484409	-0.000070
C55	C	0.980783	-0.459210	0.083050
C56	C	0.979462	-0.534827	-0.000073
C57	C	0.979024	-0.560025	-0.083193
C58	C	0.979469	-0.534806	-0.166310
C59	C	0.980360	-0.484391	-0.166305
C60	C	0.980338	-0.484430	0.166167
C61	C	0.979448	-0.534845	0.166155
C62	C	0.979010	-0.560043	0.083035
C63	C	1.133308	0.062446	-0.000056
C64	C	1.225591	0.063385	-0.000065
C65	C	0.974023	0.154374	-0.000075
C66	C	0.974957	0.208034	-0.000091
N67	N	0.981250	0.065997	0.216944
N68	N	0.981270	0.065997	-0.217045
C69	C	1.038223	0.033137	0.451958
C70	C	1.038226	0.033136	0.547940
C71	C	0.924291	0.098858	0.547934
C72	C	0.924285	0.098856	0.451955
C73	C	0.981256	0.065997	0.403969
C74	C	0.981264	0.065997	0.595930
C75	C	0.981266	0.065996	0.699997
C76	C	0.981253	0.065997	0.299895
H77	H	0.402595	0.065190	0.150744
O78	O	0.985682	-0.176223	0.163773
C79	C	0.913125	-0.199886	0.168764
H80	H	0.888971	-0.205597	0.096599
H81	H	0.928703	-0.236581	0.203931
H82	H	0.863032	-0.176617	0.209797
H83	H	0.559890	0.066802	0.150752
O84	O	0.395677	0.065149	-0.163843
C85	C	0.309851	0.064262	-0.146026
H86	H	0.294356	0.079433	-0.074594
H87	H	0.271316	0.087382	-0.199116
H88	H	0.294477	0.025256	-0.149960
H89	H	0.559929	0.066801	-0.150864
H90	H	0.976633	-0.695838	0.150728
O91	O	0.868912	0.130824	0.405474
C92	C	0.818620	0.159822	0.468406
H93	H	0.852700	0.160378	0.536818
H94	H	0.805425	0.198422	0.440657
H95	H	0.757070	0.144116	0.478631
H96	H	0.987490	-0.080707	-0.150829
O97	O	0.985818	-0.176052	-0.163988
C98	C	0.986378	-0.142974	-0.237337
H99	H	1.013356	-0.109050	-0.212961
H100	H	1.026489	-0.160609	-0.295487
H101	H	0.919746	-0.132514	-0.262876
H102	H	1.084611	0.006381	0.412891
H103	H	0.983398	-0.312619	-0.233977
O104	O	1.093646	0.001200	0.594414
C105	C	1.143910	-0.027810	0.531475
H106	H	1.144583	-0.007990	0.463051
H107	H	1.210402	-0.035173	0.559198
H108	H	1.117391	-0.063724	0.521282
O109	O	0.974823	-0.791239	-0.163934
C110	C	0.902288	-0.814922	-0.168878
H111	H	0.852213	-0.795892	-0.121704
H112	H	0.878093	-0.813649	-0.242388
H113	H	0.917903	-0.854374	-0.146541
O114	O	0.981757	-0.407963	-0.247127
C115	C	0.982323	-0.374883	-0.320474
H116	H	1.009277	-0.340954	-0.296085
H117	H	1.022457	-0.392513	-0.378611
H118	H	0.915695	-0.364433	-0.346035
H119	H	0.877907	0.125612	0.587013
O120	O	0.976688	-0.691906	-0.164035
C121	C	0.976136	-0.724966	-0.237393
H122	H	0.949177	-0.758902	-0.213020
H123	H	0.936015	-0.707321	-0.295529
H124	H	1.042770	-0.735410	-0.262950
H125	H	0.975038	-0.787295	0.150716
O126	O	0.983431	-0.308772	0.247017
C127	C	0.982813	-0.341842	0.320372
H128	H	1.008523	-0.379785	0.296003
H129	H	1.023432	-0.330359	0.378519
H130	H	0.915988	-0.342125	0.345913
H131	H	0.981735	-0.404116	0.233874
O132	O	0.987378	-0.076741	0.163815
C133	C	0.915865	-0.042081	0.168752
H134	H	0.865263	-0.053442	0.121581
H135	H	0.891679	-0.039663	0.242262
H136	H	0.932823	-0.005112	0.146406
O137	O	0.980631	-0.459921	-0.247088
C138	C	0.908387	-0.466778	-0.297629
H139	H	0.857809	-0.476795	-0.248964
H140	H	0.884776	-0.431788	-0.335363
H141	H	0.924156	-0.497295	-0.349428
O142	O	0.978890	-0.559302	-0.247027
C143	C	0.906351	-0.582982	-0.251967
H144	H	0.856276	-0.563947	-0.204799
H145	H	0.882159	-0.581713	-0.325478
H146	H	0.921960	-0.622433	-0.229620
H147	H	0.980696	-0.463919	0.233854
O148	O	0.978973	-0.559260	0.246988
C149	C	0.979570	-0.526203	0.320346
H150	H	0.953882	-0.488254	0.295970
H151	H	0.938923	-0.537692	0.378478
H152	H	1.046387	-0.525931	0.345910
