data_functionalizedCrystal
_audit_creation_method	'MofGen! by Chris Wilmer'
_symmetry_space_group_name_H-M	'P1'
_symmetry_Int_Tables_number	1
_symmetry_cell_setting	triclinic
loop_
_symmetry_equiv_pos_as_xyz
  x,y,z
_cell_length_a	16.109301
_cell_length_b	16.109301
_cell_length_c	15.186229
_cell_angle_alpha	90.000638
_cell_angle_beta	90.005167
_cell_angle_gamma	83.461481
loop_
_atom_site_label
_atom_site_type_symbol
_atom_site_fract_x
_atom_site_fract_y
_atom_site_fract_z
O1	O	-0.106866	-1.103131	-0.073176
O2	O	-0.120165	-0.861069	-0.073190
O3	O	0.007515	-0.988749	-0.073174
O4	O	-0.234547	-0.975450	-0.073192
O5	O	0.007517	-0.988741	0.073284
O6	O	-0.120164	-0.861060	0.073267
O7	O	-0.106864	-1.103122	0.073282
Zn8	Zn	-0.113514	-0.982090	0.096528
Zn9	Zn	-0.113516	-0.982101	-0.096436
O10	O	-0.234545	-0.975441	0.073265
C11	C	-0.119626	-0.830090	0.000037
C12	C	-0.118011	-0.737794	0.000032
C13	C	0.038491	-0.988206	0.000056
C14	C	0.130786	-0.986591	0.000057
C15	C	-0.107404	-1.134101	0.000053
C16	C	-0.109019	-1.226397	0.000052
C17	C	-0.265521	-0.975984	0.000034
C18	C	-0.357816	-0.977600	0.000027
C19	C	0.353059	-1.058599	0.000047
C20	C	0.439779	-1.057075	0.000040
C21	C	0.419905	-0.905586	0.000034
C22	C	0.333186	-0.907111	0.000035
C23	C	0.299766	-0.983620	0.000046
C24	C	0.473205	-0.980571	0.000038
C25	C	0.567231	-0.978918	0.000030
C26	C	0.205734	-0.985273	0.000052
N27	N	-0.113511	-0.982088	0.228220
C28	C	-0.190018	-0.515522	0.000036
C29	C	-0.188494	-0.428801	0.000042
C30	C	-0.037006	-0.448676	0.000050
C31	C	-0.038530	-0.535394	0.000051
C32	C	-0.115039	-0.568815	0.000039
C33	C	-0.111990	-0.395376	0.000045
C34	C	-0.110337	-0.301350	0.000051
C35	C	-0.116693	-0.662847	0.000035
N36	N	-0.113512	-0.982109	-0.228129
C37	C	-0.056994	-1.038644	0.453950
C38	C	-0.056992	-1.038647	0.546140
C39	C	-0.170032	-0.925547	0.546135
C40	C	-0.170030	-0.925541	0.453947
C41	C	-0.113511	-0.982094	0.407857
C42	C	-0.113512	-0.982103	0.592235
C43	C	-0.113510	-0.982105	0.692191
C44	C	-0.113512	-0.982091	0.307894
H45	H	0.325851	-1.120897	0.000054
H46	H	-0.216049	-0.879503	0.583670
N47	N	-0.269377	-0.371341	0.000074
H48	H	-0.302774	-0.382082	-0.054210
H49	H	-0.256758	-0.311350	0.000124
N50	N	0.275693	-0.826240	0.000044
H51	H	0.239266	-0.823499	-0.054247
H52	H	0.310077	-0.777585	0.000079
H53	H	0.447127	-0.843295	0.000027
N54	N	-0.272534	-0.551571	0.000023
H55	H	-0.319801	-0.504647	0.000023
H56	H	-0.276466	-0.587119	0.054315
H57	H	0.025285	-0.421454	0.000065
H58	H	0.483168	-1.118130	0.000039
N59	N	-0.230984	-0.864538	0.404223
H60	H	-0.266791	-0.828716	0.447408
H61	H	-0.267748	-0.896349	0.365962
N62	N	0.042343	-0.592883	0.000064
H63	H	0.091043	-0.558554	0.000067
H64	H	0.045010	-0.629301	-0.054226
N65	N	0.003963	-1.099637	0.404237
H66	H	0.039768	-1.135460	0.447430
H67	H	0.040729	-1.067817	0.365995
H68	H	-0.010969	-1.084694	0.583667
