data_functionalizedCrystal
_audit_creation_method	'MofGen! by Chris Wilmer'
_symmetry_space_group_name_H-M	'P1'
_symmetry_Int_Tables_number	1
_symmetry_cell_setting	triclinic
loop_
_symmetry_equiv_pos_as_xyz
  x,y,z
_cell_length_a	16.959455
_cell_length_b	16.120531
_cell_length_c	16.120297
_cell_angle_alpha	95.610581
_cell_angle_beta	87.126507
_cell_angle_gamma	87.070417
loop_
_atom_site_label
_atom_site_type_symbol
_atom_site_fract_x
_atom_site_fract_y
_atom_site_fract_z
Zn1	Zn	1.167658	0.356817	0.489543
Zn2	Zn	1.667658	0.856817	0.989543
Zn3	Zn	1.167543	0.489506	0.356846
Zn4	Zn	1.667543	0.989506	0.856846
Zn5	Zn	1.042536	0.349745	0.349778
Zn6	Zn	1.542536	0.849745	0.849778
Zn7	Zn	1.028368	0.496539	0.496554
Zn8	Zn	1.528368	0.996539	0.996554
O9	O	1.101526	0.423152	0.423180
O10	O	1.601526	0.923152	0.923180
O11	O	1.278251	0.374434	0.471964
O12	O	1.778251	0.874434	0.971964
O13	O	1.156843	0.465064	0.238947
O14	O	1.656843	0.965064	0.738947
O15	O	1.065111	0.233719	0.362426
O16	O	1.565111	0.733719	0.862426
O17	O	1.278168	0.471921	0.374472
O18	O	1.778168	0.971921	0.874472
O19	O	1.157037	0.238914	0.465111
O20	O	1.657037	0.738914	0.965111
O21	O	1.065001	0.362382	0.233755
O22	O	1.565001	0.862382	0.733755
O23	O	0.930048	0.369201	0.369224
O24	O	1.430048	0.869201	0.869224
O25	O	1.040964	0.483907	0.612585
O26	O	1.540964	0.983907	1.112585
O27	O	0.919639	0.477050	0.477061
O28	O	1.419639	0.977050	0.977061
O29	O	1.143299	0.381254	0.607434
O30	O	1.643299	0.881254	1.107434
O31	O	1.143104	0.607403	0.381270
O32	O	1.643104	1.107403	0.881270
O33	O	1.040853	0.612570	0.483914
O34	O	1.540853	1.112570	0.983914
C35	C	0.896164	0.423122	0.423137
C36	C	1.396164	0.923122	0.923137
C37	C	0.808307	0.423131	0.423139
C38	C	1.308307	0.923131	0.923139
C39	C	0.436778	0.473858	0.372386
C40	C	0.936778	0.973858	0.872386
C41	C	0.436870	0.372519	0.474080
C42	C	0.936870	0.872519	0.974080
C43	C	0.519417	0.372505	0.474059
C44	C	1.019417	0.872505	0.974059
C45	C	0.560649	0.423168	0.423202
C46	C	1.060649	0.923168	0.923202
C47	C	0.519333	0.473847	0.372365
C48	C	1.019333	0.973847	0.872365
C49	C	0.560739	0.321833	0.524900
C50	C	1.060739	0.821833	1.024900
C51	C	0.643291	0.321817	0.524882
C52	C	1.143291	0.821817	1.024882
C53	C	0.684525	0.372477	0.474020
C54	C	1.184525	0.872477	0.974020
C55	C	0.643204	0.423157	0.423181
C56	C	1.143204	0.923157	0.923181
C57	C	0.684435	0.473821	0.372324
C58	C	1.184435	0.973821	0.872324
C59	C	0.643116	0.524497	0.321480
C60	C	1.143116	1.024497	0.821480
C61	C	0.560566	0.524507	0.321503
C62	C	1.060566	1.024507	0.821503
C63	C	0.767075	0.372467	0.473996
C64	C	1.267075	0.872467	0.973996
C65	C	0.766991	0.473809	0.372303
C66	C	1.266991	0.973809	0.872303
C67	C	1.090449	0.640315	0.434138
C68	C	1.590449	1.140315	0.934138
C69	C	1.085782	0.733220	0.438854
C70	C	1.585782	1.233220	0.938854
C71	C	1.077263	0.903319	0.447481
C72	C	1.577263	1.403319	0.947481
C73	C	1.125822	0.942141	0.398833
C74	C	1.625822	1.442141	0.898833
C75	C	1.121082	1.036790	0.403633
C76	C	1.621082	1.536790	0.903633
C77	C	1.082002	0.808662	0.442682
C78	C	1.582002	1.308662	0.942682
C79	C	1.307691	0.423182	0.423225
C80	C	1.807691	0.923182	0.923225
C81	C	1.395546	0.423195	0.423243
C82	C	1.895546	0.923195	0.923243
C83	C	1.090563	0.434154	0.641184
C84	C	1.590563	0.934154	1.141184
C85	C	1.085892	0.438842	0.734085
C86	C	1.585892	0.938842	1.234085
C87	C	1.112640	1.205140	0.412183
C88	C	1.612640	1.705140	0.912183
C89	C	1.117306	1.112235	0.407457
C90	C	1.617306	1.612235	0.907457
C91	C	1.112495	0.412132	0.206021
C92	C	1.612495	0.912132	0.706021
C93	C	1.117332	0.407208	0.113110
C94	C	1.617332	0.907208	0.613110
C95	C	1.077334	0.447383	0.904174
C96	C	1.577334	0.947383	1.404174
C97	C	1.125887	0.398669	0.943026
C98	C	1.625887	0.898669	1.443026
C99	C	1.121126	0.403422	1.037669
C100	C	1.621126	0.903422	1.537669
C101	C	1.082095	0.442632	0.809522
C102	C	1.582095	0.942632	1.309522
H103	H	0.676698	0.565752	0.280076
H104	H	1.176698	1.065752	0.780076
H105	H	1.032133	0.941164	0.492731
H106	H	1.532133	1.441164	0.992731
H107	H	0.526917	0.565764	0.280108
H108	H	1.026917	1.065764	0.780108
O109	O	1.017542	0.507353	0.954262
O110	O	1.517542	1.007353	1.454262
H111	H	0.982703	0.542307	0.911203
H112	H	1.482703	1.042307	1.411203
O113	O	0.392221	0.528514	0.317547
O114	O	0.892221	1.028514	0.817547
H115	H	0.327891	0.520016	0.326103
H116	H	0.827891	1.020016	0.826103
H117	H	1.170954	0.904293	0.353578
H118	H	1.670954	1.404293	0.853578
H119	H	0.800556	0.515063	0.330885
H120	H	1.300556	1.015063	0.830885
O121	O	0.392399	0.317873	0.528923
O122	O	0.892399	0.817873	1.028923
H123	H	0.350759	0.357494	0.573283
H124	H	0.850759	0.857494	1.073283
O125	O	0.516273	0.267183	0.579744
O126	O	1.016273	0.767183	1.079744
H127	H	0.451930	0.275695	0.571205
H128	H	0.951930	0.775695	1.071205
O129	O	1.185697	0.338708	0.892943
O130	O	1.685697	0.838708	1.392943
H131	H	1.154467	0.294218	0.850999
H132	H	1.654467	0.794218	1.350999
O133	O	0.687858	0.267150	0.579703
O134	O	1.187858	0.767150	1.079703
H135	H	0.645317	0.231916	0.615063
H136	H	1.145317	0.731916	1.115063
H137	H	0.800713	0.331209	0.515394
H138	H	1.300713	0.831209	1.015394
