data_functionalizedCrystal
_audit_creation_method	'MofGen! by Chris Wilmer'
_symmetry_space_group_name_H-M	'P1'
_symmetry_Int_Tables_number	1
_symmetry_cell_setting	triclinic
loop_
_symmetry_equiv_pos_as_xyz
  x,y,z
_cell_length_a	16.974897
_cell_length_b	14.853567
_cell_length_c	16.053789
_cell_angle_alpha	92.881114
_cell_angle_beta	96.538804
_cell_angle_gamma	83.518021
loop_
_atom_site_label
_atom_site_type_symbol
_atom_site_fract_x
_atom_site_fract_y
_atom_site_fract_z
O1	O	1.055292	0.121830	0.140651
O2	O	0.824436	0.135691	0.125070
O3	O	0.946030	-0.002465	0.133279
O4	O	0.933697	0.259986	0.132442
O5	O	0.940048	-0.009262	-0.005984
O6	O	0.818453	0.128894	-0.014193
O7	O	1.049309	0.115033	0.001388
Zn8	Zn	0.932931	0.120885	-0.028513
Zn9	Zn	0.940814	0.129840	0.154972
O10	O	0.927715	0.253189	-0.006821
C11	C	0.791901	0.131637	0.053445
C12	C	0.703868	0.129672	0.047503
C13	C	0.665764	0.132456	0.120618
C14	C	0.583046	0.130623	0.115023
C15	C	0.538435	0.126001	0.036313
C16	C	0.576544	0.123220	-0.036807
C17	C	0.659260	0.125059	-0.031212
C18	C	0.290702	0.120110	0.011438
C19	C	0.207981	0.118269	0.005848
C20	C	0.214489	0.125674	0.157679
C21	C	0.297206	0.127507	0.163268
C22	C	0.335308	0.124731	0.090147
N23	N	0.453884	0.124125	0.030592
N24	N	0.419856	0.126613	0.095869
C25	C	0.942480	-0.039452	0.063613
C26	C	0.940806	-0.139537	0.063507
C27	C	0.861497	-0.552126	0.058138
C28	C	1.005954	-0.573307	0.067888
C29	C	1.007529	-0.479272	0.067999
C30	C	0.936086	-0.421660	0.063179
C31	C	0.863070	-0.458082	0.058247
C32	C	1.080544	-0.442843	0.072923
C33	C	1.082122	-0.348802	0.073033
C34	C	1.010679	-0.291188	0.068218
C35	C	0.937659	-0.327616	0.063287
C36	C	0.866217	-0.270003	0.058466
C37	C	0.793196	-0.306429	0.053541
C38	C	0.791627	-0.400468	0.053432
C39	C	1.012248	-0.197149	0.068328
C40	C	0.867789	-0.175959	0.058575
C41	C	1.081845	0.119087	0.073016
C42	C	1.169877	0.121052	0.078962
C43	C	0.931265	0.290177	0.062848
C44	C	0.932939	0.390261	0.062959
N45	N	0.927558	0.114772	-0.153737
C46	C	0.973830	0.167449	-0.194305
C47	C	0.970082	0.163168	-0.281965
C48	C	0.920056	0.106214	-0.329055
C49	C	0.873783	0.053531	-0.288481
C50	C	0.877536	0.057808	-0.200822
C51	C	0.903673	0.087539	-0.591571
C52	C	0.899922	0.083268	-0.679236
C53	C	0.996222	0.192904	-0.672714
C54	C	0.999967	0.197180	-0.585054
C55	C	0.953696	0.144494	-0.544487
N56	N	0.916222	0.101838	-0.418658
N57	N	0.957536	0.148865	-0.454886
N58	N	0.946194	0.135945	0.280195
H59	H	0.690283	0.122796	-0.090750
O60	O	0.528371	0.118790	-0.121708
H61	H	0.464430	0.118172	-0.113318
O62	O	1.160875	-0.309513	0.078365
H63	H	1.210288	-0.365374	0.081708
O64	O	0.790732	-0.113820	0.053368
H65	H	0.739698	-0.154951	0.049917
O66	O	1.027781	0.228882	-0.143515
H67	H	1.090419	0.208618	-0.156046
H68	H	1.071700	-0.167495	0.072332
H69	H	0.702081	0.136217	0.184713
H70	H	0.732177	-0.430135	0.049421
H71	H	0.735028	-0.259509	0.049610
O72	O	0.331802	0.117116	-0.067418
H73	H	0.362325	0.179179	-0.068965
O74	O	1.053926	0.258609	-0.534270
H75	H	1.048756	0.252740	-0.466500
O76	O	1.083008	-0.635439	0.073079
H77	H	1.069647	-0.706950	0.072176
H78	H	1.007763	0.206061	-0.314991
O79	O	0.541951	0.133576	0.193882
H80	H	0.586871	0.137071	0.249554
O81	O	0.845963	0.021833	-0.730025
H82	H	0.851121	0.027722	-0.797795
O83	O	0.827625	0.000999	-0.157059
H84	H	0.792202	-0.039316	-0.204530
H85	H	0.865996	0.044638	-0.558552
O86	O	1.046142	0.249711	-0.716465
H87	H	1.035138	0.237162	-0.785330
H88	H	0.802046	-0.581789	0.054131
O89	O	0.819827	-0.007905	-0.339260
H90	H	0.775537	0.033245	-0.382071
O91	O	0.345323	0.132497	0.248162
H92	H	0.304929	0.134132	0.298065
H93	H	0.183457	0.127937	0.217209
H94	H	1.138708	-0.489757	0.076840
O95	O	0.159858	0.113292	-0.079051
H96	H	0.200247	0.111680	-0.128957
