data_functionalizedCrystal
_audit_creation_method	'MofGen! by Chris Wilmer'
_symmetry_space_group_name_H-M	'P1'
_symmetry_Int_Tables_number	1
_symmetry_cell_setting	triclinic
loop_
_symmetry_equiv_pos_as_xyz
  x,y,z
_cell_length_a	13.897449
_cell_length_b	29.839131
_cell_length_c	13.897441
_cell_angle_alpha	89.964857
_cell_angle_beta	89.979267
_cell_angle_gamma	90.042700
loop_
_atom_site_label
_atom_site_type_symbol
_atom_site_fract_x
_atom_site_fract_y
_atom_site_fract_z
Zn1	Zn	1.474544	-0.178824	-0.545351
Zn2	Zn	1.474371	-0.253959	-0.384039
Zn3	Zn	1.313233	-0.178845	-0.384069
Zn4	Zn	1.313148	-0.253929	-0.545292
O5	O	1.393824	-0.216389	-0.464688
O6	O	1.609502	-0.188794	-0.523965
O7	O	1.452959	-0.244016	-0.249061
O8	O	1.334739	-0.115975	-0.405500
O9	O	1.609375	-0.243995	-0.405450
O10	O	1.453253	-0.115959	-0.523993
O11	O	1.334571	-0.188830	-0.249083
O12	O	1.178240	-0.188802	-0.405443
O13	O	1.334594	-0.243945	-0.680281
O14	O	1.178177	-0.243966	-0.523893
O15	O	1.453171	-0.188765	-0.680325
O16	O	1.452876	-0.316822	-0.405393
O17	O	1.334426	-0.316800	-0.523864
C18	C	1.143209	-0.216383	-0.464666
C19	C	1.035995	-0.216391	-0.464679
C20	C	0.839700	-0.216393	-0.464704
C21	C	0.948933	-0.216391	-0.464688
C22	C	1.393649	-0.333112	-0.464640
C23	C	1.393663	-0.383046	-0.464652
C24	C	1.455613	-0.692688	-0.403090
C25	C	1.455732	-0.880361	-0.403127
O26	O	1.508265	-0.904625	-0.350748
N27	N	1.394024	-0.903831	-0.464760
C28	C	1.332286	-0.880380	-0.526393
O29	O	1.279809	-0.904649	-0.578824
C30	C	1.332172	-0.692708	-0.526360
C31	C	1.393878	-0.669240	-0.464716
C32	C	1.517314	-0.669221	-0.341451
C33	C	1.517280	-0.622305	-0.341439
C34	C	1.455545	-0.598857	-0.403065
C35	C	1.393844	-0.622325	-0.464703
C36	C	1.270440	-0.669258	-0.587997
C37	C	1.270419	-0.622336	-0.587985
C38	C	1.332124	-0.598869	-0.526341
C39	C	1.332074	-0.551962	-0.526317
N40	N	1.393782	-0.528492	-0.464684
C41	C	1.455518	-0.551939	-0.403057
C42	C	1.332349	-0.978911	-0.526405
C43	C	1.332375	-1.025828	-0.526412
C44	C	1.455823	-1.025806	-0.403147
C45	C	1.455790	-0.978888	-0.403136
C46	C	1.394057	-0.955441	-0.464772
C47	C	1.455441	-0.453414	-0.403035
C48	C	1.455398	-0.406494	-0.403026
C49	C	1.331955	-0.406520	-0.526294
C50	C	1.331993	-0.453436	-0.526301
C51	C	1.393744	-0.476881	-0.464668
O52	O	1.279576	-0.527669	-0.578676
O53	O	1.508002	-0.527662	-0.350650
C54	C	1.455647	-0.739604	-0.403102
C55	C	1.393946	-0.763071	-0.464741
C56	C	1.332211	-0.739623	-0.526367
C57	C	1.393973	-0.809989	-0.464748
C58	C	1.455708	-0.833437	-0.403122
C59	C	1.517416	-0.809967	-0.341489
C60	C	1.517382	-0.763051	-0.341476
C61	C	1.270503	-0.763093	-0.588000
C62	C	1.270541	-0.810009	-0.588007
C63	C	1.332276	-0.833457	-0.526381
C64	C	1.645417	-0.216395	-0.464710
C65	C	1.752631	-0.216398	-0.464720
C66	C	1.393892	-0.216349	-0.716281
C67	C	1.393921	-0.216332	-0.823495
C68	C	1.394025	-0.099211	-0.464757
C69	C	1.394111	-0.049276	-0.464786
C70	C	1.393948	-0.216302	-1.019790
C71	C	1.393930	-0.216320	-0.910558
C72	C	1.393811	-0.216396	-0.214073
C73	C	1.393969	-0.216287	-0.106860
H74	H	1.505726	-0.472497	-0.352851
H75	H	1.282120	-1.044932	-0.576600
H76	H	1.220149	-0.603248	-0.638179
H77	H	1.220189	-0.688357	-0.638190
H78	H	1.282075	-0.959823	-0.576598
C79	C	1.264961	-0.478837	-0.593331
C80	C	1.210905	-0.448257	-0.647311
C81	C	1.149162	-0.471636	-0.709088
H82	H	1.222880	-0.497178	-0.556515
H83	H	1.301835	-0.497093	-0.635451
H84	H	1.174034	-0.430008	-0.605197
H85	H	1.252960	-0.429915	-0.684147
H86	H	1.186036	-0.489893	-0.751208
H87	H	1.107088	-0.489977	-0.672264
H88	H	1.112484	-0.450892	-0.745727
H89	H	1.281688	-0.387422	-0.576466
H90	H	1.567628	-0.743947	-0.291280
H91	H	1.567680	-0.829066	-0.291308
C92	C	1.203504	-0.835404	-0.655046
C93	C	1.149457	-0.804821	-0.709027
C94	C	1.087711	-0.828196	-0.770807
H95	H	1.161418	-0.853743	-0.618232
H96	H	1.240375	-0.853662	-0.697166
H97	H	1.112588	-0.786571	-0.666913
H98	H	1.191518	-0.786480	-0.745861
H99	H	1.124582	-0.846454	-0.812927
H100	H	1.045631	-0.846535	-0.733986
H101	H	1.051039	-0.807450	-0.807447
H102	H	1.506036	-0.959783	-0.352940
C103	C	1.203626	-0.737617	-0.655029
C104	C	1.258176	-0.710640	-0.716924
C105	C	1.196594	-0.687172	-0.778692
H106	H	1.161583	-0.719313	-0.618200
H107	H	1.166903	-0.758304	-0.691788
H108	H	1.294883	-0.689955	-0.680169
H109	H	1.300217	-0.728934	-0.753774
H110	H	1.159870	-0.707860	-0.815451
H111	H	1.154553	-0.668871	-0.741855
H112	H	1.233597	-0.668869	-0.820701
C113	C	1.522504	-0.381097	-0.336059
C114	C	1.576594	-0.411677	-0.282115
C115	C	1.638429	-0.388299	-0.220429
H116	H	1.485725	-0.362825	-0.293905
H117	H	1.564553	-0.362770	-0.372969
H118	H	1.534550	-0.429996	-0.245208
H119	H	1.613392	-0.429949	-0.324244
H120	H	1.680477	-0.369973	-0.257338
H121	H	1.601642	-0.370029	-0.178281
H122	H	1.675142	-0.409045	-0.183827
C123	C	1.584393	-0.596911	-0.274485
C124	C	1.638479	-0.627496	-0.220547
C125	C	1.700331	-0.604122	-0.158869
H126	H	1.547627	-0.578636	-0.232326
H127	H	1.626444	-0.578588	-0.311400
H128	H	1.596434	-0.645811	-0.183634
H129	H	1.675265	-0.645771	-0.262680
H130	H	1.742381	-0.585799	-0.195785
H131	H	1.663556	-0.585849	-0.116717
H132	H	1.737041	-0.624870	-0.122272
H133	H	1.506090	-1.044906	-0.352969
C134	C	1.584530	-0.694679	-0.274730
C135	C	1.646368	-0.721540	-0.329440
C136	C	1.708338	-0.744983	-0.268018
H137	H	1.547846	-0.713060	-0.232614
H138	H	1.621322	-0.673977	-0.238078
H139	H	1.609580	-0.742240	-0.366077
H140	H	1.683074	-0.703171	-0.371554
H141	H	1.745129	-0.724280	-0.231365
H142	H	1.671645	-0.763361	-0.225904
H143	H	1.750307	-0.763207	-0.305130
