data_functionalizedCrystal
_audit_creation_method	'MofGen! by Chris Wilmer'
_symmetry_space_group_name_H-M	'P1'
_symmetry_Int_Tables_number	1
_symmetry_cell_setting	triclinic
loop_
_symmetry_equiv_pos_as_xyz
  x,y,z
_cell_length_a	16.120530
_cell_length_b	12.645330
_cell_length_c	16.120297
_cell_angle_alpha	87.125115
_cell_angle_beta	89.871860
_cell_angle_gamma	87.108294
loop_
_atom_site_label
_atom_site_type_symbol
_atom_site_fract_x
_atom_site_fract_y
_atom_site_fract_z
Zn1	Zn	1.247519	-0.537082	0.534581
Zn2	Zn	1.580853	-0.203749	0.867915
Zn3	Zn	1.914186	0.129584	1.201248
Zn4	Zn	1.254495	-0.705845	0.395529
Zn5	Zn	1.587828	-0.372511	0.728862
Zn6	Zn	1.921162	-0.039178	1.062196
Zn7	Zn	1.115507	-0.519169	0.388499
Zn8	Zn	1.448840	-0.185835	0.721832
Zn9	Zn	1.782174	0.147498	1.055166
Zn10	Zn	1.108451	-0.704868	0.527498
Zn11	Zn	1.441785	-0.371535	0.860832
Zn12	Zn	1.775118	-0.038202	1.194165
O13	O	1.181493	-0.616741	0.461527
O14	O	1.514827	-0.283408	0.794860
O15	O	1.848160	0.049926	1.128194
O16	O	1.364812	-0.567375	0.522042
O17	O	1.698146	-0.234041	0.855376
O18	O	2.031479	0.099292	1.188709
O19	O	1.241930	-0.673993	0.278231
O20	O	1.575264	-0.340660	0.611564
O21	O	1.908597	-0.007327	0.944898
O22	O	1.133052	-0.373201	0.407899
O23	O	1.466386	-0.039868	0.741233
O24	O	1.799719	0.293465	1.074566
O25	O	1.369937	-0.691364	0.419881
O26	O	1.703271	-0.358030	0.753215
O27	O	2.036604	-0.024697	1.086548
O28	O	1.230041	-0.386362	0.515225
O29	O	1.563375	-0.053029	0.848559
O30	O	1.896708	0.280304	1.181892
O31	O	1.139816	-0.536843	0.273066
O32	O	1.473150	-0.203510	0.606399
O33	O	1.806483	0.129824	0.939733
O34	O	0.998204	-0.535896	0.401031
O35	O	1.331537	-0.202563	0.734364
O36	O	1.664870	0.130770	1.067698
O37	O	1.121027	-0.689700	0.644804
O38	O	1.454360	-0.356366	0.978137
O39	O	1.787694	-0.023033	1.311470
O40	O	0.993020	-0.672329	0.503153
O41	O	1.326353	-0.338996	0.836487
O42	O	1.659687	-0.005663	1.169820
O43	O	1.223200	-0.566428	0.650008
O44	O	1.556533	-0.233095	0.983341
O45	O	1.889866	0.100239	1.316674
O46	O	1.235089	-0.854059	0.413013
O47	O	1.568422	-0.520726	0.746346
O48	O	1.901755	-0.187392	1.079680
O49	O	1.127791	-0.853342	0.509970
O50	O	1.461124	-0.520008	0.843304
O51	O	1.794457	-0.186675	1.176637
C52	C	0.965439	-0.602064	0.450561
C53	C	1.298772	-0.268730	0.783895
C54	C	1.632106	0.064603	1.117228
C55	C	0.873009	-0.595812	0.445890
C56	C	1.206342	-0.262478	0.779223
C57	C	1.539676	0.070855	1.112556
C58	C	0.703778	-0.584372	0.437368
C59	C	1.037111	-0.251039	0.770701
C60	C	1.370444	0.082294	1.104035
C61	C	0.660046	-0.649192	0.485747
C62	C	0.993379	-0.315858	0.819080
C63	C	1.326713	0.017475	1.152413
C64	C	0.565880	-0.642827	0.481005
C65	C	0.899213	-0.309493	0.814339
C66	C	1.232547	0.023840	1.147672
C67	C	0.797952	-0.590736	0.442108
C68	C	1.131286	-0.257402	0.775442
C69	C	1.464619	0.075931	1.108775
C70	C	1.181453	-0.892167	0.461505
C71	C	1.514786	-0.558833	0.794839
C72	C	1.848119	-0.225500	1.128172
C73	C	1.181510	-1.010002	0.461528
C74	C	1.514843	-0.676669	0.794861
C75	C	1.848177	-0.343335	1.128194
C76	C	1.248914	-1.177958	0.400396
C77	C	1.582248	-0.844625	0.733729
C78	C	1.915581	-0.511291	1.067063
C79	C	1.249115	-1.055422	0.400564
C80	C	1.582449	-0.722088	0.733898
C81	C	1.915782	-0.388755	1.067231
C82	C	1.200830	-1.061367	0.550384
C83	C	1.534163	-0.728034	0.883718
C84	C	1.867497	-0.394701	1.217051
C85	C	1.201356	-1.183979	0.550068
C86	C	1.534690	-0.850646	0.883402
C87	C	1.868023	-0.517312	1.216735
C88	C	1.094716	-1.169992	0.434665
C89	C	1.428050	-0.836658	0.767998
C90	C	1.761383	-0.503325	1.101332
C91	C	1.095237	-1.047295	0.432721
C92	C	1.428571	-0.713962	0.766054
C93	C	1.761904	-0.380629	1.099387
C94	C	1.398391	-0.631476	0.472536
C95	C	1.731724	-0.298143	0.805869
C96	C	2.065058	0.035190	1.139203
C97	C	1.490820	-0.637756	0.477228
C98	C	1.824153	-0.304422	0.810561
C99	C	2.157487	0.028911	1.143894
C100	C	1.170548	-0.629953	0.678422
C101	C	1.503881	-0.296620	1.011755
C102	C	1.837215	0.036713	1.345088
C103	C	1.165884	-0.635584	0.770849
C104	C	1.499217	-0.302250	1.104182
C105	C	1.832551	0.031083	1.437516
C106	C	1.181556	-0.340242	0.461568
C107	C	1.514889	-0.006909	0.794902
C108	C	1.848222	0.326424	1.128235
C109	C	1.181582	-0.222415	0.461586
C110	C	1.514916	0.110918	0.794919
C111	C	1.848249	0.444251	1.128252
C112	C	1.192444	-0.603507	0.245479
C113	C	1.525777	-0.270174	0.578812
C114	C	1.859110	0.063160	0.912145
C115	C	1.197269	-0.597589	0.153060
C116	C	1.530602	-0.264256	0.486393
C117	C	1.863936	0.069078	0.819726
C118	C	1.157338	-0.645837	0.940074
C119	C	1.490671	-0.312504	1.273407
C120	C	1.824004	0.020829	1.606741
C121	C	1.205813	-0.587338	0.983840
C122	C	1.539146	-0.254005	1.317173
C123	C	1.872479	0.079328	1.650507
C124	C	1.201058	-0.593044	1.078003
C125	C	1.534391	-0.259710	1.411336
C126	C	1.867724	0.073623	1.744669
C127	C	1.162092	-0.640133	0.845903
C128	C	1.495425	-0.306800	1.179236
C129	C	1.828758	0.026533	1.512570
H130	H	0.693327	-0.709464	0.530727
H131	H	1.026661	-0.376131	0.864061
H132	H	1.359994	-0.042797	1.197394
H133	H	1.076289	-1.195686	0.370767
H134	H	1.409623	-0.862353	0.704100
H135	H	1.742956	-0.529020	1.037434
N136	N	1.025683	-1.005749	0.486957
N137	N	1.359017	-0.672415	0.820291
N138	N	1.692350	-0.339082	1.153624
H139	H	0.996555	-1.067249	0.514220
H140	H	1.329888	-0.733916	0.847553
H141	H	1.663221	-0.400583	1.180887
H142	H	0.984730	-0.960169	0.451785
H143	H	1.318063	-0.626836	0.785119
H144	H	1.651397	-0.293503	1.118452
H145	H	1.112270	-0.700201	0.973321
H146	H	1.445603	-0.366868	1.306655
H147	H	1.778937	-0.033535	1.639988
N148	N	0.659703	-0.504559	0.377770
N149	N	0.993037	-0.171226	0.711104
N150	N	1.326370	0.162107	1.044437
H151	H	0.597708	-0.511286	0.382782
H152	H	0.931041	-0.177953	0.716115
H153	H	1.264374	0.155381	1.049448
H154	H	0.677821	-0.518356	0.319113
H155	H	1.011154	-0.185023	0.652446
H156	H	1.344488	0.148311	0.985780
H157	H	1.237542	-1.020427	0.334818
H158	H	1.570876	-0.687094	0.668151
H159	H	1.904209	-0.353761	1.001485
H160	H	1.263450	-1.036079	0.572950
H161	H	1.596784	-0.702745	0.906284
H162	H	1.930117	-0.369412	1.239617
H163	H	1.237537	-1.202521	0.334469
H164	H	1.570870	-0.869187	0.667802
H165	H	1.904204	-0.535854	1.001136
N166	N	1.285291	-1.229081	0.579569
N167	N	1.618624	-0.895748	0.912902
N168	N	1.951957	-0.562415	1.246235
H169	H	1.321600	-1.169285	0.592656
H170	H	1.654934	-0.835952	0.925989
H171	H	1.988267	-0.502618	1.259322
H172	H	1.312227	-1.271779	0.534589
H173	H	1.645560	-0.938446	0.867923
H174	H	1.978893	-0.605113	1.201256
H175	H	1.154220	-1.213663	0.597471
H176	H	1.487554	-0.880330	0.930804
H177	H	1.820887	-0.546996	1.264138
N178	N	1.333809	-1.225678	0.424196
N179	N	1.667142	-0.892345	0.757529
N180	N	2.000476	-0.559012	1.090863
H181	H	1.328842	-1.275969	0.474443
H182	H	1.662176	-0.942635	0.807776
H183	H	1.995509	-0.609302	1.141109
H184	H	1.371359	-1.167308	0.437654
H185	H	1.704692	-0.833975	0.770988
H186	H	2.038025	-0.500642	1.104321
N187	N	1.334454	-1.023514	0.424622
N188	N	1.667788	-0.690181	0.757955
N189	N	2.001121	-0.356848	1.091288
H190	H	1.376665	-1.050410	0.383285
H191	H	1.709999	-0.717076	0.716618
H192	H	2.043332	-0.383743	1.049952
H193	H	1.348861	-1.055074	0.481886
H194	H	1.682194	-0.721741	0.815220
H195	H	2.015528	-0.388407	1.148553
H196	H	1.153089	-1.032173	0.597388
H197	H	1.486423	-0.698840	0.930721
H198	H	1.819756	-0.365507	1.264054
H199	H	1.080589	-1.013131	0.367308
H200	H	1.413923	-0.679797	0.700641
H201	H	1.747256	-0.346464	1.033974
N202	N	1.028331	-1.207931	0.493621
N203	N	1.361664	-0.874597	0.826954
N204	N	1.694998	-0.541264	1.160288
H205	H	1.054351	-1.258824	0.537556
H206	H	1.387684	-0.925491	0.870889
H207	H	1.721017	-0.592157	1.204223
H208	H	0.985504	-1.245085	0.461741
H209	H	1.318837	-0.911752	0.795074
H210	H	1.652171	-0.578418	1.128408
H211	H	1.250884	-0.532970	0.950591
H212	H	1.584217	-0.199636	1.283924
H213	H	1.917551	0.133697	1.617257
