data_functionalizedCrystal
_audit_creation_method	'MofGen! by Chris Wilmer'
_symmetry_space_group_name_H-M	'P1'
_symmetry_Int_Tables_number	1
_symmetry_cell_setting	triclinic
loop_
_symmetry_equiv_pos_as_xyz
  x,y,z
_cell_length_a	10.540539
_cell_length_b	15.944551
_cell_length_c	9.016244
_cell_angle_alpha	89.996810
_cell_angle_beta	89.994699
_cell_angle_gamma	84.012115
loop_
_atom_site_label
_atom_site_type_symbol
_atom_site_fract_x
_atom_site_fract_y
_atom_site_fract_z
O1	O	1.684281	0.118370	-0.123274
O2	O	1.314716	0.129523	-0.123293
O3	O	1.509591	0.001731	-0.123269
O4	O	1.489407	0.246161	-0.123297
O5	O	1.509562	0.001734	0.123411
O6	O	1.314688	0.129525	0.123388
O7	O	1.684253	0.118372	0.123407
Cu8	Cu	1.499468	0.123949	0.145921
Cu9	Cu	1.499502	0.123946	-0.145807
O10	O	1.489378	0.246164	0.123384
C11	C	1.267411	0.128688	0.000046
C12	C	1.126497	0.126185	0.000039
C13	C	0.944375	0.030298	0.000626
C14	C	1.090959	0.032835	0.000054
C15	C	1.064229	0.171108	-0.140828
C16	C	0.917728	0.167922	-0.140930
C17	C	0.917181	0.169824	0.139592
C18	C	1.064151	0.170684	0.141438
C19	C	1.508739	-0.029566	0.000071
C20	C	1.506227	-0.122827	0.000072
C21	C	1.379430	-0.338440	0.000045
C22	C	1.438296	-0.399105	0.121677
C23	C	1.501682	-0.293580	0.000060
C24	C	1.438353	-0.399091	-0.121531
C25	C	1.497283	-0.458519	0.000043
C26	C	1.560582	-0.353017	0.121792
C27	C	1.560622	-0.352996	-0.121525
C28	C	1.619577	-0.413643	0.000136
C29	C	1.504213	-0.198563	0.000072
C30	C	1.494762	-0.553535	0.000042
C31	C	1.731559	0.119207	0.000065
C32	C	1.872473	0.121710	0.000062
C33	C	1.490231	0.277461	0.000040
C34	C	1.492743	0.370722	0.000029
N35	N	1.499453	0.123951	0.351108
N36	N	1.499526	0.123937	-0.350993
C37	C	1.394894	0.192082	0.586128
C38	C	1.395120	0.192337	0.414237
C39	C	1.631905	0.143889	0.413450
C40	C	1.631333	0.144372	0.585395
C41	C	1.472882	0.035659	0.585659
C42	C	1.469829	0.036231	0.413705
H43	H	1.133201	-0.002764	-0.101092
H44	H	1.107254	0.139899	-0.245656
C45	C	1.451874	-0.481707	0.344875
C46	C	1.368484	-0.426674	0.260484
H47	H	1.408769	-0.498720	0.430568
H48	H	1.480193	-0.529902	0.287204
H49	H	1.523206	-0.453814	0.374108
H50	H	1.297156	-0.454569	0.231241
H51	H	1.340146	-0.378471	0.318166
H52	H	1.655936	0.207567	0.370366
H53	H	0.886034	0.139615	0.246368
H54	H	0.869036	0.237251	0.140536
H55	H	1.105548	0.137866	0.245651
C56	C	1.804662	0.041119	0.520306
C57	C	1.739577	0.079965	0.641555
H58	H	1.871488	0.001360	0.554975
H59	H	1.747085	0.013044	0.461965
H60	H	1.839572	0.082610	0.461760
H61	H	1.704659	0.038475	0.700094
H62	H	1.797164	0.108041	0.699919
C63	C	1.736194	-0.285186	0.217906
C64	C	1.630307	-0.325619	0.260767
H65	H	1.779228	-0.268266	0.303705
H66	H	1.792538	-0.322888	0.161072
H67	H	1.708620	-0.236973	0.159891
H68	H	1.657881	-0.373835	0.318773
H69	H	1.573953	-0.287914	0.317625
C70	C	1.263733	-0.000716	0.524752
C71	C	1.345313	0.010051	0.644247
H72	H	1.184978	-0.016523	0.560924
H73	H	1.248895	0.050676	0.471213
H74	H	1.301995	-0.043614	0.461090
H75	H	1.307055	0.052954	0.707903
H76	H	1.360148	-0.041347	0.697810
H77	H	1.612297	-0.332559	-0.224355
H78	H	1.721141	-0.446196	0.000210
H79	H	1.711617	0.095612	0.372555
C80	C	1.155631	-0.355037	0.001602
C81	C	1.242446	-0.294288	0.000199
H82	H	1.071067	-0.327778	0.001712
H83	H	1.168160	-0.389638	-0.083989
H84	H	1.168779	-0.388887	0.088051
H85	H	1.229304	-0.260443	-0.086256
H86	H	1.229912	-0.259673	0.085798
C87	C	1.171921	0.280998	0.032547
C88	C	1.095580	0.262567	0.152907
H89	H	1.191312	0.337727	0.039616
H90	H	1.248789	0.244169	0.033743
H91	H	1.127422	0.273610	-0.057347
H92	H	1.140083	0.269949	0.242801
H93	H	1.018699	0.299407	0.151725
C94	C	1.183180	0.162722	0.520748
C95	C	1.261563	0.176136	0.642004
H96	H	1.100869	0.152870	0.555254
H97	H	1.176280	0.211076	0.458577
H98	H	1.219226	0.115113	0.466192
H99	H	1.225521	0.223750	0.696554
H100	H	1.268458	0.127778	0.704199
C101	C	1.326824	-0.355544	-0.345310
C102	C	1.368551	-0.426625	-0.260352
H103	H	1.283733	-0.372543	-0.431011
H104	H	1.270266	-0.318226	-0.288028
H105	H	1.398180	-0.327666	-0.374529
H106	H	1.297194	-0.454500	-0.231123
H107	H	1.425112	-0.463958	-0.317645
C108	C	0.944210	0.315471	-0.154693
C109	C	0.851728	0.258548	-0.149607
H110	H	0.903466	0.371417	-0.160070
H111	H	0.995334	0.309424	-0.067839
H112	H	0.996536	0.304183	-0.239638
H113	H	0.799408	0.269833	-0.064656
H114	H	0.800582	0.264599	-0.236470
H115	H	1.134043	-0.002512	0.101034
C116	C	1.536233	-0.112467	0.414048
C117	C	1.566007	-0.035521	0.355705
H118	H	1.595613	-0.156762	0.378232
H119	H	1.540326	-0.110652	0.519220
H120	H	1.452571	-0.122177	0.384236
H121	H	1.649666	-0.025807	0.385526
H122	H	1.561926	-0.037335	0.250510
C123	C	1.310733	0.313810	0.725107
C124	C	1.417545	0.279998	0.644422
H125	H	1.324727	0.368082	0.761103
H126	H	1.237808	0.318425	0.662600
H127	H	1.297241	0.277858	0.806354
H128	H	1.431031	0.315948	0.563167
H129	H	1.490491	0.275388	0.706932
H130	H	0.889981	0.134718	-0.246221
H131	H	0.916281	-0.006580	0.101649
C132	C	1.320815	0.339888	0.410935
C133	C	1.418090	0.280751	0.358675
H134	H	1.335008	0.394473	0.376642
H135	H	1.240876	0.325894	0.375320
H136	H	1.320608	0.339411	0.516291
H137	H	1.418292	0.281223	0.253318
H138	H	1.498050	0.294748	0.394283
C139	C	1.518321	-0.093288	0.722146
C140	C	1.575874	-0.032817	0.640557
H141	H	1.581907	-0.135558	0.756034
H142	H	1.474708	-0.067028	0.804826
H143	H	1.459331	-0.118297	0.660899
H144	H	1.634858	-0.007803	0.701807
H145	H	1.619508	-0.059080	0.557866
H146	H	1.085649	0.239662	-0.146076
H147	H	1.296667	0.180340	0.372089
H148	H	1.372396	0.021118	0.372960
C149	C	1.011668	-0.044016	-0.222117
C150	C	0.904288	-0.019286	-0.134973
H151	H	0.986916	-0.074628	-0.305826
H152	H	1.048870	0.004555	-0.254516
H153	H	1.072035	-0.078758	-0.165111
H154	H	0.843925	0.015462	-0.191976
H155	H	0.867066	-0.067863	-0.102575
C156	C	1.682329	0.282483	0.517055
C157	C	1.663012	0.231318	0.639517
H158	H	1.701877	0.336163	0.550466
H159	H	1.751119	0.256891	0.459245
H160	H	1.607081	0.289107	0.458415
H161	H	1.738265	0.224689	0.698152
H162	H	1.594216	0.256916	0.697352
