data_functionalizedCrystal
_audit_creation_method	'MofGen! by Chris Wilmer'
_symmetry_space_group_name_H-M	'P1'
_symmetry_Int_Tables_number	1
_symmetry_cell_setting	triclinic
loop_
_symmetry_equiv_pos_as_xyz
  x,y,z
_cell_length_a	15.625110
_cell_length_b	15.538191
_cell_length_c	14.185328
_cell_angle_alpha	108.247682
_cell_angle_beta	87.162787
_cell_angle_gamma	66.740235
loop_
_atom_site_label
_atom_site_type_symbol
_atom_site_fract_x
_atom_site_fract_y
_atom_site_fract_z
O1	O	1.109877	0.049677	-0.320391
O2	O	0.855906	0.085450	-0.227989
O3	O	1.032330	-0.073610	-0.292172
O4	O	0.933453	0.208737	-0.256207
O5	O	1.009510	-0.109873	-0.450711
O6	O	0.833086	0.049187	-0.386528
O7	O	1.087058	0.013414	-0.478930
Cu8	Cu	0.957988	0.027990	-0.447204
Cu9	Cu	0.984975	0.070874	-0.259714
O10	O	0.910634	0.172474	-0.414746
C11	C	0.812786	0.069293	-0.295721
C12	C	0.718302	0.075165	-0.261345
C13	C	0.597569	0.103208	-0.126479
C14	C	0.686349	0.097688	-0.158791
C15	C	0.661478	0.058159	-0.331626
C16	C	0.572692	0.063681	-0.299328
C17	C	0.540745	0.086205	-0.196754
C18	C	0.515868	0.046678	-0.369602
C19	C	0.427092	0.052195	-0.337307
C20	C	0.395139	0.074714	-0.234738
C21	C	0.451969	0.091722	-0.164459
C22	C	0.547820	0.024148	-0.472177
C23	C	0.490996	0.007144	-0.542451
C24	C	0.402215	0.012668	-0.510156
C25	C	0.370262	0.035187	-0.407586
C26	C	0.345386	-0.004340	-0.580435
C27	C	0.256609	0.001177	-0.548140
C28	C	0.281486	0.040704	-0.375291
C29	C	1.031266	-0.127682	-0.375202
C30	C	1.062081	-0.234775	-0.386404
C31	C	0.755947	-0.497524	-0.275045
C32	C	0.784923	-0.598161	-0.285589
C33	C	0.947908	-0.633938	-0.344887
C34	C	0.918946	-0.533301	-0.334343
C35	C	0.822964	-0.465101	-0.299423
C36	C	0.985963	-0.500879	-0.358721
C37	C	0.957003	-0.400252	-0.348182
C38	C	0.861025	-0.332047	-0.313266
C39	C	0.794004	-0.364474	-0.288884
C40	C	1.081944	-0.569082	-0.393648
C41	C	1.148961	-0.536660	-0.418026
C42	C	1.120002	-0.436030	-0.407481
C43	C	1.024024	-0.367825	-0.372565
C44	C	1.187023	-0.403602	-0.431863
C45	C	1.158063	-0.302975	-0.421324
C46	C	0.995064	-0.267197	-0.362026
C47	C	1.130178	0.029571	-0.411195
C48	C	1.224663	0.023701	-0.445565
C49	C	0.911698	0.226547	-0.331714
C50	C	0.880884	0.333641	-0.320506
N51	N	0.939013	-0.002174	-0.579077
C52	C	1.059630	0.189685	-0.990576
C53	C	1.045281	0.166819	-1.090381
C54	C	0.976965	0.058084	-1.065507
C55	C	0.991304	0.080944	-0.965696
C56	C	1.032638	0.146744	-0.928239
C57	C	0.964312	0.038003	-0.903359
C58	C	0.978654	0.060858	-0.803558
C59	C	1.019989	0.126653	-0.766095
C60	C	1.046980	0.169598	-0.828439
C61	C	0.922985	-0.027802	-0.940820
C62	C	0.895993	-0.070742	-0.878483
C63	C	0.910329	-0.047883	-0.778678
C64	C	0.951663	0.017912	-0.741215
C65	C	0.883337	-0.090828	-0.716335
C66	C	0.897680	-0.067974	-0.616534
C67	C	0.966006	0.040766	-0.641414
N68	N	1.003959	0.101030	-0.127844
H69	H	0.517021	-0.011198	-0.625969
O70	O	1.223219	-0.271478	-0.444839
C71	C	1.291703	-0.288190	-0.383355
H72	H	1.260239	-0.292270	-0.311519
H73	H	1.313582	-0.223819	-0.362305
H74	H	1.356664	-0.361994	-0.426522
O75	O	0.566480	0.124957	-0.026882
C76	C	0.550935	0.044922	-0.015768
H77	H	0.538523	0.000444	-0.090215
H78	H	0.485888	0.076151	0.046383
H79	H	0.615821	-0.006544	0.005514
H80	H	0.911316	-0.046414	-1.022087
O81	O	1.006046	0.104808	-0.605088
C82	C	0.949077	0.199202	-0.610028
H83	H	0.904205	0.189453	-0.669962
H84	H	0.996529	0.233123	-0.630879
H85	H	0.900430	0.251359	-0.533241
O86	O	1.034028	0.148931	-0.669187
C87	C	1.076273	0.216234	-0.649488
H88	H	1.114487	0.209397	-0.723910
H89	H	1.129556	0.197334	-0.598601
H90	H	1.018941	0.296394	-0.610025
H91	H	0.862342	-0.124321	-0.908996
H92	H	1.105521	-0.651016	-0.402219
H93	H	1.265170	-0.459147	-0.460305
H94	H	0.715847	-0.308939	-0.260441
H95	H	1.080625	0.223190	-0.797935
O96	O	0.871365	-0.109734	-0.556094
C97	C	0.831827	-0.172728	-0.610561
H98	H	0.804481	-0.148630	-0.675487
H99	H	0.770467	-0.166649	-0.557897
H100	H	0.888558	-0.253840	-0.642342
H101	H	1.093275	0.243277	-0.960072
O102	O	1.242162	-0.603033	-0.451889
C103	C	1.253351	-0.698810	-0.455992
H104	H	1.191584	-0.690318	-0.401940
H105	H	1.323030	-0.737952	-0.432902
H106	H	1.254489	-0.745606	-0.536449
O107	O	0.719700	-0.629477	-0.261811
C108	C	0.628775	-0.547705	-0.228754
H109	H	0.636344	-0.474355	-0.199925
H110	H	0.586770	-0.553739	-0.165031
H111	H	0.589686	-0.548899	-0.294575
H112	H	0.210334	-0.012651	-0.605362
H113	H	0.732611	0.111542	-0.101556
O114	O	0.250485	0.062733	-0.275602
C115	C	0.244674	0.157825	-0.218177
H116	H	0.293921	0.176333	-0.261944
H117	H	0.266954	0.156749	-0.143078
H118	H	0.168450	0.217286	-0.203072
H119	H	1.067264	0.201793	-1.141134
H120	H	0.943315	0.004506	-1.096020
H121	H	0.322851	0.079207	-0.208444
H122	H	0.425951	0.110074	-0.080931
H123	H	0.677790	-0.441989	-0.246602
O124	O	1.041109	-0.700312	-0.378751
C125	C	1.052298	-0.796088	-0.382853
H126	H	0.990531	-0.787596	-0.328801
H127	H	1.121976	-0.835231	-0.359763
H128	H	1.053435	-0.842884	-0.463310
O129	O	0.692357	0.036404	-0.431270
C130	C	0.628071	0.110145	-0.463194
H131	H	0.555470	0.147911	-0.410919
H132	H	0.621532	0.073275	-0.544018
H133	H	0.655228	0.168877	-0.460463
H134	H	0.849692	-0.144411	-0.746851
H135	H	0.620107	0.019658	-0.498468
H136	H	0.371415	-0.022688	-0.663952
H137	H	0.916907	-0.211662	-0.333583
H138	H	0.837447	-0.250112	-0.304692
