data_functionalizedCrystal
_audit_creation_method	'MofGen! by Chris Wilmer'
_symmetry_space_group_name_H-M	'P1'
_symmetry_Int_Tables_number	1
_symmetry_cell_setting	triclinic
loop_
_symmetry_equiv_pos_as_xyz
  x,y,z
_cell_length_a	18.101398
_cell_length_b	18.101397
_cell_length_c	18.101380
_cell_angle_alpha	90.087478
_cell_angle_beta	89.934607
_cell_angle_gamma	89.981008
loop_
_atom_site_label
_atom_site_type_symbol
_atom_site_fract_x
_atom_site_fract_y
_atom_site_fract_z
Zn1	Zn	1.132459	0.294522	-0.418821
Zn2	Zn	1.382459	0.544522	-0.168821
Zn3	Zn	1.632459	0.794522	0.081179
Zn4	Zn	1.882459	1.044522	0.331179
Zn5	Zn	1.132282	0.418489	-0.294971
Zn6	Zn	1.382282	0.668489	-0.044971
Zn7	Zn	1.632282	0.918489	0.205029
Zn8	Zn	1.882282	1.168489	0.455029
Zn9	Zn	1.008529	0.294656	-0.294982
Zn10	Zn	1.258529	0.544656	-0.044982
Zn11	Zn	1.508529	0.794656	0.205018
Zn12	Zn	1.758529	1.044656	0.455018
Zn13	Zn	1.008585	0.418316	-0.418760
Zn14	Zn	1.258585	0.668316	-0.168760
Zn15	Zn	1.508585	0.918316	0.081240
Zn16	Zn	1.758585	1.168316	0.331240
O17	O	1.070464	0.356496	-0.356884
O18	O	1.320464	0.606496	-0.106884
O19	O	1.570464	0.856496	0.143116
O20	O	1.820464	1.106496	0.393116
O21	O	1.236069	0.310983	-0.402413
O22	O	1.486069	0.560983	-0.152413
O23	O	1.736069	0.810983	0.097587
O24	O	1.986069	1.060983	0.347587
O25	O	1.115769	0.402191	-0.191340
O26	O	1.365769	0.652191	0.058660
O27	O	1.615769	0.902191	0.308660
O28	O	1.865769	1.152191	0.558660
O29	O	1.025020	0.191005	-0.311439
O30	O	1.275020	0.441005	-0.061439
O31	O	1.525020	0.691005	0.188561
O32	O	1.775020	0.941005	0.438561
O33	O	1.235939	0.402061	-0.311421
O34	O	1.485939	0.652061	-0.061421
O35	O	1.735939	0.902061	0.188579
O36	O	1.985939	1.152061	0.438579
O37	O	1.116071	0.190907	-0.402423
O38	O	1.366071	0.440907	-0.152423
O39	O	1.616071	0.690907	0.097577
O40	O	1.866071	0.940907	0.347577
O41	O	1.024848	0.311211	-0.191347
O42	O	1.274848	0.561211	0.058653
O43	O	1.524848	0.811211	0.308653
O44	O	1.774848	1.061211	0.558653
O45	O	0.904904	0.311043	-0.311380
O46	O	1.154904	0.561043	-0.061380
O47	O	1.404904	0.811043	0.188620
O48	O	1.654904	1.061043	0.438620
O49	O	1.025114	0.401766	-0.522402
O50	O	1.275114	0.651766	-0.272402
O51	O	1.525114	0.901766	-0.022402
O52	O	1.775114	1.151766	0.227598
O53	O	0.904945	0.401896	-0.402320
O54	O	1.154945	0.651896	-0.152320
O55	O	1.404945	0.901896	0.097680
O56	O	1.654945	1.151896	0.347680
O57	O	1.116124	0.310815	-0.522446
O58	O	1.366124	0.560815	-0.272446
O59	O	1.616124	0.810815	-0.022446
O60	O	1.866124	1.060815	0.227554
O61	O	1.115823	0.522099	-0.311362
O62	O	1.365823	0.772099	-0.061362
O63	O	1.615823	1.022099	0.188638
O64	O	1.865823	1.272099	0.438638
O65	O	1.024943	0.521972	-0.402310
O66	O	1.274943	0.771972	-0.152310
O67	O	1.524943	1.021972	0.097690
O68	O	1.774943	1.271972	0.347690
C69	C	1.070390	0.548907	-0.356844
C70	C	1.320390	0.798907	-0.106844
C71	C	1.570390	1.048907	0.143156
C72	C	1.820390	1.298907	0.393156
C73	C	1.070426	0.631221	-0.356852
C74	C	1.320426	0.881221	-0.106852
C75	C	1.570426	1.131221	0.143148
C76	C	1.820426	1.381221	0.393148
C77	C	0.878053	0.356466	-0.356845
C78	C	1.128053	0.606466	-0.106845
C79	C	1.378053	0.856466	0.143155
C80	C	1.628053	1.106466	0.393155
C81	C	0.795739	0.356471	-0.356846
C82	C	1.045739	0.606471	-0.106846
C83	C	1.295739	0.856471	0.143154
C84	C	1.545739	1.106471	0.393154
C85	C	1.070460	0.781929	-0.356868
C86	C	1.320460	1.031929	-0.106868
C87	C	1.570460	1.281929	0.143132
C88	C	1.820460	1.531929	0.393132
C89	C	1.127694	0.813332	-0.299700
C90	C	1.377694	1.063332	-0.049700
C91	C	1.627694	1.313332	0.200300
C92	C	1.877694	1.563332	0.450300
C93	C	1.127545	0.898950	-0.299484
C94	C	1.377545	1.148950	-0.049484
C95	C	1.627545	1.398950	0.200516
C96	C	1.877545	1.648950	0.450516
C97	C	1.070495	0.930312	-0.356883
C98	C	1.320495	1.180312	-0.106883
C99	C	1.570495	1.430312	0.143117
C100	C	1.820495	1.680312	0.393117
C101	C	0.992381	0.899309	-0.335871
C102	C	1.242381	1.149309	-0.085871
C103	C	1.492381	1.399309	0.164129
C104	C	1.742381	1.649309	0.414129
C105	C	0.992691	0.813665	-0.335447
C106	C	1.242691	1.063665	-0.085447
C107	C	1.492691	1.313665	0.164553
C108	C	1.742691	1.563665	0.414553
C109	C	1.090666	0.813349	-0.435195
C110	C	1.340666	1.063349	-0.185195
C111	C	1.590666	1.313349	0.064805
C112	C	1.840666	1.563349	0.314805
C113	C	1.092408	0.898999	-0.434787
C114	C	1.342408	1.148999	-0.184787
C115	C	1.592408	1.398999	0.065213
C116	C	1.842408	1.648999	0.315213
C117	C	1.070511	1.014171	-0.356893
C118	C	1.320511	1.264171	-0.106893
C119	C	1.570511	1.514171	0.143107
C120	C	1.820511	1.764171	0.393107
C121	C	1.070440	0.698070	-0.356856
C122	C	1.320440	0.948070	-0.106856
C123	C	1.570440	1.198070	0.143144
C124	C	1.820440	1.448070	0.393144
C125	C	0.496648	0.356517	-0.356908
C126	C	0.746648	0.606517	-0.106908
C127	C	0.996648	0.856517	0.143092
C128	C	1.246648	1.106517	0.393092
C129	C	0.527923	0.299069	-0.299971
C130	C	0.777923	0.549069	-0.049971
C131	C	1.027923	0.799069	0.200029
C132	C	1.277923	1.049069	0.450029
C133	C	0.613541	0.299223	-0.299728
C134	C	0.863541	0.549223	-0.049728
C135	C	1.113541	0.799223	0.200272
C136	C	1.363541	1.049223	0.450272
C137	C	0.645031	0.356494	-0.356877
C138	C	0.895031	0.606494	-0.106877
C139	C	1.145031	0.856494	0.143123
C140	C	1.395031	1.106494	0.393123
C141	C	0.613908	0.434526	-0.335548
C142	C	0.863908	0.684526	-0.085548
C143	C	1.113908	0.934526	0.164452
C144	C	1.363908	1.184526	0.414452
C145	C	0.528262	0.434207	-0.335152
C146	C	0.778262	0.684207	-0.085152
C147	C	1.028262	0.934207	0.164848
C148	C	1.278262	1.184207	0.414848
C149	C	0.528317	0.336611	-0.435309
C150	C	0.778317	0.586611	-0.185309
C151	C	1.028317	0.836611	0.064691
C152	C	1.278317	1.086611	0.314691
C153	C	0.613967	0.334874	-0.434881
C154	C	0.863967	0.584874	-0.184881
C155	C	1.113967	0.834874	0.065119
C156	C	1.363967	1.084874	0.315119
C157	C	0.728890	0.356485	-0.356861
C158	C	0.978890	0.606485	-0.106861
C159	C	1.228890	0.856485	0.143139
C160	C	1.478890	1.106485	0.393139
C161	C	0.412789	0.356531	-0.356923
C162	C	0.662789	0.606531	-0.106923
C163	C	0.912789	0.856531	0.143077
C164	C	1.162789	1.106531	0.393077
C165	C	1.263626	0.356527	-0.356923
C166	C	1.513626	0.606527	-0.106923
C167	C	1.763626	0.856527	0.143077
C168	C	2.013626	1.106527	0.393077
C169	C	1.345940	0.356540	-0.356940
C170	C	1.595940	0.606540	-0.106940
C171	C	1.845940	0.856540	0.143060
C172	C	2.095940	1.106540	0.393060
C173	C	1.070645	0.356257	-0.550046
C174	C	1.320645	0.606257	-0.300046
C175	C	1.570645	0.856257	-0.050046
C176	C	1.820645	1.106257	0.199954
C177	C	1.070723	0.356155	-0.632360
C178	C	1.320723	0.606155	-0.382360
C179	C	1.570723	0.856155	-0.132360
C180	C	1.820723	1.106155	0.117640
C181	C	1.070541	1.163334	-0.356923
C182	C	1.320541	1.413334	-0.106923
C183	C	1.570541	1.663334	0.143077
C184	C	1.820541	1.913334	0.393077
C185	C	1.070530	1.081020	-0.356899
C186	C	1.320530	1.331020	-0.106899
C187	C	1.570530	1.581020	0.143101
C188	C	1.820530	1.831020	0.393101
C189	C	1.070326	0.356681	-0.164473
C190	C	1.320326	0.606681	0.085527
C191	C	1.570326	0.856681	0.335527
C192	C	1.820326	1.106681	0.585527
C193	C	1.070392	0.356574	-0.082159
C194	C	1.320392	0.606574	0.167841
C195	C	1.570392	0.856574	0.417841
C196	C	1.820392	1.106574	0.667841
C197	C	1.070612	0.356295	0.216931
C198	C	1.320612	0.606295	0.466931
C199	C	1.570612	0.856295	0.716931
C200	C	1.820612	1.106295	0.966931
C201	C	1.012779	0.299697	0.185559
C202	C	1.262779	0.549697	0.435559
C203	C	1.512779	0.799697	0.685559
C204	C	1.762779	1.049697	0.935559
C205	C	1.012882	0.299551	0.099940
C206	C	1.262882	0.549551	0.349940
C207	C	1.512882	0.799551	0.599940
C208	C	1.762882	1.049551	0.849940
C209	C	1.070502	0.356434	0.068549
C210	C	1.320502	0.606434	0.318549
C211	C	1.570502	0.856434	0.568549
C212	C	1.820502	1.106434	0.818549
C213	C	1.148414	0.334659	0.099430
C214	C	1.398414	0.584659	0.349430
C215	C	1.648414	0.834659	0.599430
C216	C	1.898414	1.084659	0.849430
C217	C	1.148142	0.334167	0.185075
C218	C	1.398142	0.584167	0.435075
C219	C	1.648142	0.834167	0.685075
C220	C	1.898142	1.084167	0.935075
C221	C	1.051195	0.434835	0.185602
C222	C	1.301195	0.684835	0.435602
C223	C	1.551195	0.934835	0.685602
C224	C	1.801195	1.184835	0.935602
C225	C	1.049405	0.434514	0.099954
C226	C	1.299405	0.684514	0.349954
C227	C	1.549405	0.934514	0.599954
C228	C	1.799405	1.184514	0.849954
C229	C	1.070445	0.356513	-0.015310
C230	C	1.320445	0.606513	0.234690
C231	C	1.570445	0.856513	0.484690
C232	C	1.820445	1.106513	0.734690
C233	C	1.070675	0.356214	0.300791
C234	C	1.320675	0.606214	0.550791
C235	C	1.570675	0.856214	0.800791
C236	C	1.820675	1.106214	1.050791
H237	H	1.185461	0.919911	-0.312610
H238	H	1.435461	1.169911	-0.062610
H239	H	1.685461	1.419911	0.187390
H240	H	1.935461	1.669911	0.437390
H241	H	1.192615	0.374622	0.079093
H242	H	1.442615	0.624622	0.329093
H243	H	1.692615	0.874622	0.579093
H244	H	1.942615	1.124622	0.829093
F245	F	0.499693	0.316071	-0.224481
F246	F	0.749693	0.566071	0.025519
F247	F	0.999693	0.816071	0.275519
F248	F	1.249693	1.066071	0.525519
H249	H	1.192680	0.373556	0.205822
H250	H	1.442680	0.623556	0.455822
H251	H	1.692680	0.873556	0.705822
H252	H	1.942680	1.123556	0.955822
F253	F	0.641989	0.385574	-0.493304
F254	F	0.891989	0.635574	-0.243304
F255	F	1.141989	0.885574	0.006696
F256	F	1.391989	1.135574	0.256696
F257	F	0.501887	0.391301	-0.490761
F258	F	0.751887	0.641301	-0.240761
F259	F	1.001887	0.891301	0.009239
F260	F	1.251887	1.141301	0.259239
F261	F	1.170354	0.260468	0.071165
F262	F	1.420354	0.510468	0.321165
F263	F	1.670354	0.760468	0.571165
F264	F	1.920354	1.010468	0.821165
H265	H	0.955094	0.313248	0.079068
H266	H	1.205094	0.563248	0.329068
H267	H	1.455094	0.813248	0.579068
H268	H	1.705094	1.063248	0.829068
F269	F	1.110400	0.785342	-0.224272
F270	F	1.360400	1.035342	0.025728
F271	F	1.610400	1.285342	0.275728
F272	F	1.860400	1.535342	0.525728
F273	F	1.029316	0.224086	0.213458
F274	F	1.279316	0.474086	0.463458
F275	F	1.529316	0.724086	0.713458
F276	F	1.779316	0.974086	0.963458
H277	H	0.633955	0.312389	-0.241634
H278	H	0.883955	0.562389	0.008366
H279	H	1.133955	0.812389	0.258366
H280	H	1.383955	1.062389	0.508366
F281	F	0.974470	0.455963	0.073593
F282	F	1.224470	0.705963	0.323593
F283	F	1.474470	0.955963	0.573593
F284	F	1.724470	1.205963	0.823593
F285	F	1.110049	0.925875	-0.223632
F286	F	1.360049	1.175875	0.026368
F287	F	1.610049	1.425875	0.276368
F288	F	1.860049	1.675875	0.526368
H289	H	0.954838	0.313202	0.206298
H290	H	1.204838	0.563202	0.456298
H291	H	1.454838	0.813202	0.706298
H292	H	1.704838	1.063202	0.956298
F293	F	1.167544	0.925482	-0.455507
F294	F	1.417544	1.175482	-0.205507
F295	F	1.667544	1.425482	0.044493
F296	F	1.917544	1.675482	0.294493
F297	F	1.163848	0.785040	-0.460224
F298	F	1.413848	1.035040	-0.210224
F299	F	1.663848	1.285040	0.039776
F300	F	1.913848	1.535040	0.289776
F301	F	1.203619	0.786341	-0.316656
F302	F	1.453619	1.036341	-0.066656
F303	F	1.703619	1.286341	0.183344
F304	F	1.953619	1.536341	0.433344
F305	F	1.029754	0.223597	0.072931
F306	F	1.279754	0.473597	0.322931
F307	F	1.529754	0.723597	0.572931
F308	F	1.779754	0.973597	0.822931
H309	H	0.507574	0.478463	-0.374814
H310	H	0.757574	0.728463	-0.124814
H311	H	1.007574	0.978463	0.125186
H312	H	1.257574	1.228463	0.375186
H313	H	0.948582	0.919621	-0.376233
H314	H	1.198582	1.169621	-0.126233
H315	H	1.448582	1.419621	0.123767
H316	H	1.698582	1.669621	0.373767
H317	H	0.975600	0.793797	-0.278197
H318	H	1.225600	1.043797	-0.028197
H319	H	1.475600	1.293797	0.221803
H320	H	1.725600	1.543797	0.471803
F321	F	1.100460	0.492702	0.072042
F322	F	1.350460	0.742702	0.322042
F323	F	1.600460	0.992702	0.572042
F324	F	1.850460	1.242702	0.822042
F325	F	0.641845	0.456961	-0.261441
F326	F	0.891845	0.706961	-0.011441
F327	F	1.141845	0.956961	0.238559
F328	F	1.391845	1.206961	0.488559
F329	F	1.169726	0.259108	0.210955
F330	F	1.419726	0.509108	0.460955
F331	F	1.669726	0.759108	0.710955
F332	F	1.919726	1.009108	0.960955
H333	H	1.053794	0.920338	-0.479652
H334	H	1.303794	1.170338	-0.229652
H335	H	1.553794	1.420338	0.020348
H336	H	1.803794	1.670338	0.270348
F337	F	0.969666	0.927483	-0.261867
F338	F	1.219666	1.177483	-0.011867
F339	F	1.469666	1.427483	0.238133
F340	F	1.719666	1.677483	0.488133
F341	F	0.978293	0.460536	0.214040
F342	F	1.228293	0.710536	0.464040
F343	F	1.478293	0.960536	0.714040
F344	F	1.728293	1.210536	0.964040
H345	H	1.093323	0.477014	0.205896
H346	H	1.343323	0.727014	0.455896
H347	H	1.593323	0.977014	0.705896
H348	H	1.843323	1.227014	0.955896
F349	F	0.935036	0.786510	-0.387515
F350	F	1.185036	1.036510	-0.137515
F351	F	1.435036	1.286510	0.112485
F352	F	1.685036	1.536510	0.362485
H353	H	0.634315	0.277451	-0.450964
H354	H	0.884315	0.527451	-0.200964
H355	H	1.134315	0.777451	0.049036
H356	H	1.384315	1.027451	0.299036
H357	H	1.048986	0.793031	-0.477788
H358	H	1.298986	1.043031	-0.227788
H359	H	1.548986	1.293031	0.022212
H360	H	1.798986	1.543031	0.272212
H361	H	0.508211	0.451079	-0.277837
H362	H	0.758211	0.701079	-0.027837
H363	H	1.008211	0.951079	0.222163
H364	H	1.258211	1.201079	0.472163
H365	H	0.634584	0.241361	-0.313098
H366	H	0.884584	0.491361	-0.063098
H367	H	1.134584	0.741361	0.186902
H368	H	1.384584	0.991361	0.436902
H369	H	0.507355	0.241030	-0.313194
H370	H	0.757355	0.491030	-0.063194
H371	H	1.007355	0.741030	0.186806
H372	H	1.257355	0.991030	0.436806
F373	F	0.640562	0.491977	-0.388060
F374	F	0.890562	0.741977	-0.138060
F375	F	1.140562	0.991977	0.111940
F376	F	1.390562	1.241977	0.361940
F377	F	0.500132	0.263525	-0.460655
F378	F	0.750132	0.513525	-0.210655
F379	F	1.000132	0.763525	0.039345
F380	F	1.250132	1.013525	0.289345
