data_functionalizedCrystal
_audit_creation_method	'MofGen! by Chris Wilmer'
_symmetry_space_group_name_H-M	'P1'
_symmetry_Int_Tables_number	1
_symmetry_cell_setting	triclinic
loop_
_symmetry_equiv_pos_as_xyz
  x,y,z
_cell_length_a	16.992694
_cell_length_b	10.868271
_cell_length_c	16.974813
_cell_angle_alpha	93.659696
_cell_angle_beta	87.024634
_cell_angle_gamma	89.998604
loop_
_atom_site_label
_atom_site_type_symbol
_atom_site_fract_x
_atom_site_fract_y
_atom_site_fract_z
O1	O	1.040210	0.118859	0.167650
O2	O	0.811927	0.118712	0.165811
O3	O	0.932433	0.107357	0.052029
O4	O	0.919705	0.130214	0.281432
O5	O	0.932423	-0.097288	0.052024
O6	O	0.811917	-0.085933	0.165805
O7	O	1.040201	-0.085786	0.167645
Zn8	Zn	0.926057	-0.118352	0.166724
Zn9	Zn	0.926070	0.151277	0.166731
O10	O	0.919695	-0.074432	0.281426
C11	C	0.782712	0.016158	0.163442
C12	C	0.695676	0.015469	0.156382
N13	N	0.926054	-0.302366	0.166719
C14	C	0.645362	0.022255	0.224498
C15	C	0.563582	0.021577	0.217860
C16	C	0.532118	0.014121	0.143106
C17	C	0.582439	0.007331	0.074985
C18	C	0.664216	0.008001	0.081623
C19	C	0.288550	0.011347	0.115591
C20	C	0.206766	0.010681	0.108957
C21	C	0.187915	0.024924	0.251833
C22	C	0.269696	0.025601	0.258465
C23	C	0.320009	0.018804	0.190344
N24	N	0.448527	0.013432	0.136319
N25	N	0.403599	0.019485	0.197132
C26	C	0.926066	-0.553371	0.166729
C27	C	0.926057	-0.413694	0.166726
C28	C	1.069416	0.016770	0.170013
C29	C	1.156452	0.017467	0.177073
C30	C	0.931944	0.002099	0.022537
C31	C	0.930491	-0.006646	-0.065332
N32	N	0.926080	0.335291	0.166730
C33	C	0.929816	0.100796	-0.106605
C34	C	0.928447	0.092574	-0.189167
C35	C	0.927758	-0.023091	-0.230454
C36	C	0.928431	-0.130541	-0.189174
C37	C	0.929795	-0.122318	-0.106614
C38	C	0.923673	-0.059645	-0.477373
C39	C	0.922311	-0.067860	-0.559940
C40	C	0.922326	0.155257	-0.559926
C41	C	0.923695	0.163469	-0.477365
C42	C	0.924363	0.056019	-0.436092
N43	N	0.926361	-0.031497	-0.314845
N44	N	0.925755	0.064427	-0.351702
C45	C	0.920184	0.030829	0.310918
C46	C	0.921636	0.039583	0.398787
H47	H	0.670973	0.028327	0.285371
H48	H	0.295307	0.031686	0.319338
Cl49	Cl	0.167213	0.001281	0.014973
Cl50	Cl	0.927600	0.227652	-0.241050
H51	H	0.329506	0.005812	0.060122
H52	H	0.556814	0.001243	0.014118
H53	H	0.146942	0.030455	0.307293
H54	H	0.522619	0.027104	0.273327
H55	H	0.927865	-0.224718	-0.222797
H56	H	0.705182	0.002476	0.026156
H57	H	0.924233	-0.147139	-0.443780
H58	H	0.930333	-0.209810	-0.073009
Cl59	Cl	0.930688	0.246211	-0.054710
Cl60	Cl	0.924563	0.308883	-0.425467
Cl61	Cl	0.921484	0.290328	-0.611816
Cl62	Cl	0.921450	-0.213278	-0.611843
