data_functionalizedCrystal
_audit_creation_method	'MofGen! by Chris Wilmer'
_symmetry_space_group_name_H-M	'P1'
_symmetry_Int_Tables_number	1
_symmetry_cell_setting	triclinic
loop_
_symmetry_equiv_pos_as_xyz
  x,y,z
_cell_length_a	10.654550
_cell_length_b	15.995350
_cell_length_c	9.730223
_cell_angle_alpha	89.997832
_cell_angle_beta	89.999957
_cell_angle_gamma	83.988653
loop_
_atom_site_label
_atom_site_type_symbol
_atom_site_fract_x
_atom_site_fract_y
_atom_site_fract_z
O1	O	1.666303	0.117602	-0.114180
O2	O	2.166303	0.617602	0.385820
O3	O	1.300678	0.128807	-0.114204
O4	O	1.800678	0.628807	0.385796
O5	O	1.493485	0.001375	-0.114190
O6	O	1.993485	0.501375	0.385810
O7	O	1.473496	0.245034	-0.114194
O8	O	1.973496	0.745034	0.385806
O9	O	1.493473	0.001371	0.114390
O10	O	1.993473	0.501371	0.614390
O11	O	1.300666	0.128803	0.114375
O12	O	1.800666	0.628803	0.614375
O13	O	1.666290	0.117599	0.114400
O14	O	2.166290	0.617599	0.614400
Zn15	Zn	1.483476	0.123201	0.150680
Zn16	Zn	1.983476	0.623201	0.650680
Zn17	Zn	1.483492	0.123205	-0.150484
Zn18	Zn	1.983492	0.623205	0.349516
O19	O	1.473483	0.245031	0.114386
O20	O	1.973483	0.745031	0.614386
C21	C	1.253884	0.127982	0.000082
C22	C	1.753884	0.627982	0.500082
C23	C	1.114473	0.125521	0.000073
C24	C	1.614473	0.625521	0.500073
C25	C	1.034008	0.200551	0.000075
C26	C	1.534008	0.700551	0.500075
C27	C	0.903017	0.198233	0.000099
C28	C	1.403017	0.698233	0.500099
C29	C	0.932971	0.045849	0.000112
C30	C	1.432971	0.545849	0.500112
C31	C	1.063959	0.048168	0.000098
C32	C	1.563959	0.548168	0.500098
C33	C	1.492652	-0.029826	0.000097
C34	C	1.992652	0.470174	0.500097
C35	C	1.490175	-0.122791	0.000089
C36	C	1.990175	0.377209	0.500089
C37	C	1.481277	-0.460590	0.000093
C38	C	1.981277	0.039410	0.500093
C39	C	1.343964	-0.413954	-0.000429
C40	C	1.843964	0.086046	0.499571
C41	C	1.346442	-0.317249	0.000087
C42	C	1.846442	0.182751	0.500087
C43	C	1.485691	-0.293004	0.000090
C44	C	1.985691	0.206996	0.500090
C45	C	1.553412	-0.333690	0.130623
C46	C	2.053412	0.166310	0.630623
C47	C	1.549962	-0.430346	0.130732
C48	C	2.049962	0.069654	0.630732
C49	C	1.552813	-0.430684	-0.129206
C50	C	2.052813	0.069316	0.370794
C51	C	1.552780	-0.333739	-0.130931
C52	C	2.052780	0.166261	0.369069
C53	C	1.488192	-0.198292	0.000093
C54	C	1.988192	0.301708	0.500093
C55	C	1.478780	-0.555303	0.000099
C56	C	1.978780	-0.055303	0.500099
C57	C	1.713084	0.118423	0.000110
C58	C	2.213084	0.618423	0.500110
C59	C	1.852495	0.120885	0.000111
C60	C	2.352495	0.620885	0.500111
C61	C	1.474316	0.276232	0.000095
C62	C	1.974316	0.776232	0.500095
C63	C	1.476793	0.369197	0.000094
C64	C	1.976793	0.869197	0.500094
N65	N	1.483474	0.123197	0.356216
N66	N	1.983474	0.623197	0.856216
N67	N	1.483504	0.123202	-0.356021
N68	N	1.983504	0.623202	0.143979
C69	C	1.568878	0.066794	0.428148
C70	C	2.068878	0.566794	0.928148
C71	C	1.568890	0.066794	0.572031
C72	C	2.068890	0.566794	1.072031
C73	C	1.398091	0.179608	0.572037
C74	C	1.898091	0.679608	1.072037
C75	C	1.398074	0.179603	0.428157
C76	C	1.898074	0.679603	0.928157
H77	H	1.129478	-0.012934	0.000100
H78	H	1.629478	0.487066	0.500100
H79	H	1.292840	-0.289697	0.093810
H80	H	1.792840	0.210303	0.593810
O81	O	1.275905	-0.279995	-0.123837
O82	O	1.775905	0.220005	0.376163
H83	H	1.239709	-0.331048	-0.184673
H84	H	1.739709	0.168952	0.315327
H85	H	1.289086	-0.432803	-0.094036
H86	H	1.789086	0.067197	0.405964
O87	O	1.661018	0.005961	0.649603
O88	O	2.161018	0.505961	1.149603
H89	H	1.608180	-0.035073	0.715158
H90	H	2.108180	0.464927	1.215158
O91	O	1.271573	-0.440311	0.122872
O92	O	1.771573	0.059689	0.622872
H93	H	1.332969	-0.486482	0.184527
H94	H	1.832969	0.013518	0.684527
O95	O	1.687295	-0.312616	-0.141379
O96	O	2.187295	0.187384	0.358621
H97	H	1.740726	-0.336654	-0.049117
H98	H	2.240726	0.163346	0.450883
H99	H	1.507924	-0.451483	-0.228142
H100	H	2.007924	0.048517	0.271858
O101	O	1.686915	-0.471978	-0.130387
O102	O	2.186915	0.028022	0.369613
H103	H	1.702602	-0.513604	-0.039385
H104	H	2.202602	-0.013604	0.460615
H105	H	1.328562	0.225533	0.630626
H106	H	1.828562	0.725533	1.130626
H107	H	1.638414	0.020864	0.369578
H108	H	2.138414	0.520864	0.869578
O109	O	1.487298	-0.297957	-0.258857
O110	O	1.987298	0.202043	0.241143
H111	H	1.407306	-0.251352	-0.229262
H112	H	1.907306	0.248648	0.270738
O113	O	1.688919	-0.314185	0.137072
O114	O	2.188919	0.185815	0.637072
H115	H	1.752473	-0.373773	0.135646
H116	H	2.252473	0.126227	0.635646
H117	H	1.328522	0.225533	0.369586
H118	H	1.828522	0.725533	0.869586
H119	H	1.075132	0.263537	0.000065
H120	H	1.575132	0.763537	0.500065
O121	O	1.484532	-0.454983	0.259968
O122	O	1.984532	0.045017	0.759968
H123	H	1.386911	-0.423047	0.262244
H124	H	1.886911	0.076953	0.762244
O125	O	0.816224	0.279157	0.000106
O126	O	1.316224	0.779157	0.500106
H127	H	0.834161	0.316133	-0.093072
H128	H	1.334161	0.816133	0.406928
O129	O	0.878489	-0.037580	0.000130
O130	O	1.378489	0.462420	0.500130
H131	H	0.773886	-0.026589	0.000127
H132	H	1.273886	0.473411	0.500127
H133	H	1.650775	-0.462009	0.136657
H134	H	2.150775	0.037991	0.636657
H135	H	1.506366	-0.305584	0.227758
H136	H	2.006366	0.194416	0.727758
