data_functionalizedCrystal
_audit_creation_method	'MofGen! by Chris Wilmer'
_symmetry_space_group_name_H-M	'P1'
_symmetry_Int_Tables_number	1
_symmetry_cell_setting	triclinic
loop_
_symmetry_equiv_pos_as_xyz
  x,y,z
_cell_length_a	21.295418
_cell_length_b	12.759393
_cell_length_c	12.759400
_cell_angle_alpha	90.031564
_cell_angle_beta	89.967105
_cell_angle_gamma	89.955003
loop_
_atom_site_label
_atom_site_type_symbol
_atom_site_fract_x
_atom_site_fract_y
_atom_site_fract_z
Zn1	Zn	-0.962407	0.594725	-0.417693
Zn2	Zn	-0.962344	0.419045	-0.593412
Zn3	Zn	-0.857136	0.418983	-0.417804
Zn4	Zn	-0.857129	0.594605	-0.593387
O5	O	-0.909754	0.506839	-0.505574
O6	O	-1.050488	0.571496	-0.440967
O7	O	-0.948364	0.272015	-0.570174
O8	O	-0.871130	0.442319	-0.270768
O9	O	-1.050442	0.442425	-0.570067
O10	O	-0.948472	0.571436	-0.270687
O11	O	-0.871068	0.271970	-0.441156
O12	O	-0.769045	0.442203	-0.441131
O13	O	-0.871118	0.741642	-0.570024
O14	O	-0.769040	0.571232	-0.570131
O15	O	-0.948466	0.741730	-0.440943
O16	O	-0.948358	0.442309	-0.740430
O17	O	-0.871057	0.571292	-0.740411
C18	C	-0.746202	0.506699	-0.505641
C19	C	-0.676234	0.506663	-0.505695
C20	C	-0.909717	0.506817	-0.778541
C21	C	-0.909758	0.506843	-0.895318
C22	C	-0.909798	0.780873	-0.505468
C23	C	-0.909817	0.897649	-0.505423
C24	C	-0.643381	0.573744	-0.572956
C25	C	-0.577639	0.573784	-0.572935
C26	C	-0.544752	0.506723	-0.505663
C27	C	-0.577612	0.439638	-0.438388
C28	C	-0.643354	0.439608	-0.438404
N29	N	-0.441477	0.414819	-0.497475
N30	N	-0.379026	0.414850	-0.497466
C31	C	-0.346677	0.506811	-0.505610
N32	N	-0.379139	0.598741	-0.513783
N33	N	-0.441596	0.598709	-0.513797
C34	C	-0.473466	0.506749	-0.505638
C35	C	-0.242539	0.573940	-0.572852
C36	C	-0.176795	0.573981	-0.572823
C37	C	-0.176770	0.439826	-0.438282
C38	C	-0.242512	0.439794	-0.438305
C39	C	-0.275393	0.506850	-0.505596
C40	C	-0.073944	0.506951	-0.505525
C41	C	-0.143912	0.506921	-0.505550
C42	C	-0.909746	0.233872	-0.505604
C43	C	-0.909849	0.117096	-0.505353
C44	C	-0.950097	0.952559	-0.438204
C45	C	-0.950112	1.062283	-0.438166
C46	C	-0.869565	1.062179	-0.572575
C47	C	-0.869547	0.952456	-0.572607
C48	C	-0.990367	0.897752	-0.371020
C49	C	-1.030651	0.952662	-0.303796
C50	C	-1.030666	1.062386	-0.303758
C51	C	-0.990397	1.117200	-0.370944
C52	C	-0.950054	0.439756	-0.950155
C53	C	-0.950092	0.439788	-1.059879
C54	C	-0.869535	0.573998	-1.059920
C55	C	-0.869500	0.573970	-0.950198
C56	C	-0.990312	0.372629	-0.895275
C57	C	-1.030610	0.305535	-0.950112
C58	C	-1.030649	0.305567	-1.059836
C59	C	-0.990389	0.372693	-1.114723
C60	C	-0.909809	0.506884	-0.231541
C61	C	-0.909832	0.506903	-0.114764
H62	H	-0.670149	0.628348	-0.627748
N63	N	-1.071772	0.896676	-0.235152
N64	N	-1.049627	0.835447	-0.168231
H65	H	-1.078668	0.795908	-0.119747
H66	H	-0.670102	0.384982	-0.383628
H67	H	-0.990361	0.808409	-0.371046
N68	N	-1.071810	1.118460	-0.235077
N69	N	-1.107757	1.069508	-0.175096
H70	H	-1.136818	1.109108	-0.126589
H71	H	-0.550831	0.385038	-0.383613
N72	N	-1.071733	0.236986	-0.894036
N73	N	-1.071694	0.236965	-0.796071
H74	H	-1.100738	0.188551	-0.756467
N75	N	-0.143183	0.371311	-0.369580
N76	N	-0.150458	0.274349	-0.376440
H77	H	-0.126734	0.225960	-0.327916
N78	N	-0.276120	0.642438	-0.641590
N79	N	-0.246776	0.702336	-0.701638
H80	H	-0.270491	0.750713	-0.750186
N81	N	-0.828431	1.118151	-0.641207
N82	N	-0.792465	1.069110	-0.701216
H83	H	-0.763412	1.108639	-0.749688
N84	N	-0.828346	0.642491	-0.894156
N85	N	-0.850456	0.709466	-0.832831
H86	H	-0.821392	0.757862	-0.793248
H87	H	-0.269261	0.385164	-0.383539
N88	N	-0.544081	0.642317	-0.641649
N89	N	-0.573446	0.702183	-0.701719
H90	H	-0.549748	0.750584	-0.750250
N91	N	-1.071802	0.237038	-1.115869
N92	N	-1.071830	0.237070	-1.213834
H93	H	-1.100893	0.188665	-1.253407
H94	H	-0.990429	0.372723	-1.204068
N95	N	-0.828409	0.642539	-1.115999
N96	N	-0.788330	0.605493	-1.177329
H97	H	-0.759282	0.653898	-1.216937
N98	N	-0.990414	1.229281	-0.370884
N99	N	-1.026379	1.278298	-0.310856
H100	H	-1.026394	1.357455	-0.310814
H101	H	-0.836737	0.907748	-0.627326
N102	N	-0.143244	0.642523	-0.641530
N103	N	-0.172613	0.702387	-0.701598
H104	H	-0.148918	0.750798	-0.750124
H105	H	-0.990283	0.372592	-0.805933
