data_functionalizedCrystal
_audit_creation_method	'MofGen! by Chris Wilmer'
_symmetry_space_group_name_H-M	'P1'
_symmetry_Int_Tables_number	1
_symmetry_cell_setting	triclinic
loop_
_symmetry_equiv_pos_as_xyz
  x,y,z
_cell_length_a	8.497374
_cell_length_b	17.077404
_cell_length_c	17.077402
_cell_angle_alpha	89.976892
_cell_angle_beta	89.987778
_cell_angle_gamma	90.003463
loop_
_atom_site_label
_atom_site_type_symbol
_atom_site_fract_x
_atom_site_fract_y
_atom_site_fract_z
Zn1	Zn	0.891988	1.199930	0.312640
Zn2	Zn	0.628173	1.199874	0.443874
Zn3	Zn	0.628207	1.068699	0.312627
Zn4	Zn	0.891897	1.068630	0.443868
O5	O	0.760066	1.134283	0.378252
O6	O	0.857016	1.309770	0.330056
O7	O	0.407415	1.182479	0.426461
O8	O	0.663251	1.086159	0.202782
O9	O	0.663193	1.309729	0.426474
O10	O	0.857049	1.182574	0.202791
O11	O	0.407440	1.086105	0.330034
O12	O	0.663162	0.958843	0.330028
O13	O	1.112671	1.086042	0.426463
O14	O	0.856894	0.958792	0.426450
O15	O	1.112738	1.182508	0.330050
O16	O	0.663104	1.182412	0.553720
O17	O	0.856861	1.085988	0.553716
C18	C	0.760023	0.930336	0.378238
C19	C	0.760042	0.843086	0.378251
C20	C	0.860756	0.802090	0.428533
C21	C	0.860781	0.720109	0.428535
C22	C	0.760083	0.679126	0.378257
C23	C	0.659364	0.720128	0.327969
C24	C	0.659348	0.802107	0.327964
C25	C	0.659402	0.549258	0.327985
C26	C	0.659416	0.467273	0.327991
C27	C	0.860835	0.467260	0.428556
C28	C	0.860819	0.549239	0.428551
C29	C	0.760098	0.590235	0.378263
C30	C	0.760003	1.134208	0.582200
C31	C	0.760029	1.134247	0.669450
C32	C	1.171547	1.134278	0.378253
C33	C	1.350191	1.134279	0.378262
C34	C	0.760111	1.339028	0.378267
C35	C	0.760130	1.426277	0.378273
C36	C	0.760164	1.134381	0.173508
C37	C	0.760206	1.134422	0.086258
C38	C	0.659248	1.184506	0.710416
C39	C	0.659289	1.184545	0.792397
C40	C	0.760103	1.134319	0.833409
C41	C	0.860895	1.084058	0.792437
C42	C	0.860861	1.084024	0.710458
C43	C	0.860955	1.084130	0.963307
C44	C	0.860986	1.084163	1.045291
C45	C	0.659382	1.184651	1.045246
C46	C	0.659349	1.184618	0.963267
C47	C	0.760139	1.134355	0.922300
H48	H	0.942791	0.686734	0.469481
C49	C	1.128069	1.045849	1.070528
C50	C	0.971815	1.028966	1.090380
H51	H	1.196489	1.011776	1.098369
H52	H	1.142477	1.038627	1.015849
H53	H	1.151216	1.098592	1.083914
H54	H	0.948664	0.976224	1.076988
H55	H	0.957400	1.036181	1.145071
H56	H	0.577437	0.433907	0.287041
C57	C	1.073112	1.073097	0.871081
C58	C	0.971744	1.028883	0.918272
H59	H	1.141507	1.038988	0.843282
H60	H	1.013064	1.102999	0.834931
H61	H	1.133531	1.107280	0.903031
H62	H	0.911317	0.994703	0.886322
H63	H	1.031799	0.998967	0.954427
H64	H	0.942929	1.043098	0.677104
H65	H	0.942751	0.835452	0.469478
H66	H	0.942807	0.582606	0.469495
C67	C	0.950329	0.341591	0.473212
C68	C	0.971562	0.422201	0.483828
H69	H	1.018689	0.313772	0.507332
H70	H	0.844307	0.328144	0.484618
H71	H	0.973616	0.328186	0.420486
H72	H	0.948263	0.435606	0.536552
H73	H	1.077607	0.435653	0.472427
C74	C	0.460272	0.541040	0.228594
C75	C	0.548671	0.594322	0.272717
H76	H	0.391900	0.568863	0.194483
H77	H	0.529113	0.509088	0.198617
H78	H	0.399831	0.509043	0.262761
H79	H	0.609121	0.626316	0.238550
H80	H	0.479821	0.626289	0.302696
H81	H	0.577381	0.686753	0.287029
C82	C	0.460232	0.793891	0.228573
C83	C	0.548626	0.847173	0.272699
H84	H	0.391871	0.821714	0.194458
H85	H	0.529077	0.761935	0.198601
H86	H	0.399780	0.761896	0.262739
H87	H	0.609087	0.879163	0.238534
H88	H	0.479772	0.879142	0.302673
C89	C	0.637925	1.290309	0.884343
C90	C	0.548646	1.239919	0.837355
H91	H	0.569657	1.324538	0.912072
H92	H	0.697828	1.260409	0.920554
H93	H	0.706821	1.320165	0.852264
H94	H	0.479758	1.210060	0.869435
H95	H	0.488717	1.269823	0.801139
C96	C	0.459984	1.283841	0.718614
C97	C	0.548427	1.239717	0.665339
H98	H	0.391575	1.317930	0.690785
H99	H	0.399594	1.249679	0.750627
H100	H	0.528806	1.313849	0.750551
H101	H	0.479605	1.209704	0.633406
H102	H	0.608822	1.273883	0.633312
C103	C	0.570212	1.229481	1.170889
C104	C	0.548798	1.240005	1.090273
H105	H	0.502006	1.263685	1.198687
H106	H	0.546845	1.176796	1.184423
H107	H	0.676308	1.240840	1.184230
H108	H	0.442705	1.228641	1.076930
H109	H	0.572155	1.292703	1.076733
H110	H	0.577251	1.225511	0.929875
H111	H	0.942986	1.043166	0.825836
