data_functionalizedCrystal
_audit_creation_method	'MofGen! by Chris Wilmer'
_symmetry_space_group_name_H-M	'P1'
_symmetry_Int_Tables_number	1
_symmetry_cell_setting	triclinic
loop_
_symmetry_equiv_pos_as_xyz
  x,y,z
_cell_length_a	14.971491
_cell_length_b	16.109301
_cell_length_c	14.048226
_cell_angle_alpha	89.992144
_cell_angle_beta	89.991693
_cell_angle_gamma	83.538858
loop_
_atom_site_label
_atom_site_type_symbol
_atom_site_fract_x
_atom_site_fract_y
_atom_site_fract_z
O1	O	1.186788	0.108368	-0.079204
O2	O	0.926370	0.121339	-0.079198
O3	O	1.063733	-0.006169	-0.079192
O4	O	1.049425	0.235875	-0.079211
O5	O	1.063716	-0.006176	0.079130
O6	O	0.926353	0.121331	0.079124
O7	O	1.186771	0.108361	0.079117
Zn8	Zn	1.056560	0.114845	0.104257
Zn9	Zn	1.056581	0.114855	-0.104338
O10	O	1.049408	0.235868	0.079111
C11	C	0.893038	0.120754	-0.000036
C12	C	0.793743	0.119013	-0.000033
C13	C	0.366058	0.111507	-0.086356
C14	C	0.459355	0.113140	-0.086352
C15	C	0.505991	0.113958	-0.000048
C16	C	0.459325	0.113134	0.086258
C17	C	0.366030	0.111495	0.086254
C18	C	0.653782	0.116552	0.086262
C19	C	0.747083	0.118192	0.086266
C20	C	0.747108	0.118197	-0.086345
C21	C	0.653812	0.116558	-0.086349
C22	C	0.607152	0.115736	-0.000042
C23	C	1.063145	-0.037148	-0.000030
C24	C	1.061407	-0.129445	-0.000029
C25	C	1.138876	-0.351620	-0.000046
C26	C	1.137236	-0.438342	-0.000054
C27	C	0.974259	-0.418674	-0.000046
C28	C	0.975900	-0.331953	-0.000045
C29	C	1.058211	-0.298429	-0.000040
C30	C	1.054930	-0.471872	-0.000049
C31	C	1.053152	-0.565900	-0.000057
C32	C	1.059989	-0.204395	-0.000034
C33	C	1.220103	0.108945	-0.000047
C34	C	1.319398	0.110686	-0.000056
C35	C	1.049996	0.266847	-0.000053
C36	C	1.051734	0.359145	-0.000060
N37	N	1.056551	0.114837	0.246618
N38	N	1.056597	0.114855	-0.246699
C39	C	1.117395	0.058401	0.296439
C40	C	1.117401	0.058400	0.396096
C41	C	1.056567	0.114841	0.445931
C42	C	0.995717	0.171281	0.396104
C43	C	0.995707	0.171276	0.296448
C44	C	0.995743	0.171287	0.603818
C45	C	0.995753	0.171292	0.703480
C46	C	1.117436	0.058410	0.703466
C47	C	1.117427	0.058406	0.603810
C48	C	1.056578	0.114847	0.553990
H49	H	1.205898	-0.324328	-0.000044
H50	H	0.615843	0.115898	-0.156626
C51	C	0.877876	-0.504788	-0.081423
C52	C	0.883788	-0.455531	-0.000040
H53	H	0.822024	-0.527544	-0.081413
H54	H	0.881900	-0.471360	-0.136624
H55	H	0.925688	-0.548875	-0.081416
H56	H	0.835979	-0.411440	-0.000052
H57	H	0.879755	-0.488961	0.055175
C58	C	0.873965	0.189124	0.184411
C59	C	0.928827	0.233315	0.241682
H60	H	0.832670	0.227425	0.150608
H61	H	0.910193	0.155518	0.140475
H62	H	0.841813	0.154469	0.223317
H63	H	0.960984	0.267965	0.202776
H64	H	0.892594	0.266936	0.285624
H65	H	0.910209	-0.288642	-0.000043
C66	C	0.375463	0.111671	-0.256972
C67	C	0.314800	0.110609	-0.181226
H68	H	0.343819	0.111111	-0.315541
H69	H	0.405013	0.160752	-0.253386
H70	H	0.418689	0.063861	-0.253366
H71	H	0.271578	0.158423	-0.184828
H72	H	0.285235	0.061523	-0.184814
C73	C	0.663123	0.116722	0.256885
C74	C	0.602491	0.115652	0.181131
H75	H	0.631455	0.116174	0.315450
H76	H	0.706345	0.068918	0.253307
H77	H	0.692678	0.165809	0.253281
H78	H	0.572941	0.066561	0.184732
H79	H	0.559253	0.163461	0.184711
H80	H	1.166936	0.012443	0.255869
C81	C	0.375370	0.111664	0.256872
C82	C	0.314737	0.110596	0.181117
H83	H	0.343702	0.111111	0.315437
H84	H	0.418594	0.063861	0.253289
H85	H	0.404922	0.160753	0.253271
H86	H	0.285189	0.061504	0.184714
H87	H	0.271497	0.158404	0.184701
C88	C	1.298493	-0.449067	-0.000047
C89	C	1.225906	-0.496810	-0.000054
H90	H	1.353236	-0.485165	-0.000042
H91	H	1.295750	-0.414828	-0.055252
H92	H	1.295729	-0.414839	0.055168
H93	H	1.228667	-0.531034	-0.055273
H94	H	1.228650	-0.531064	0.055157
H95	H	0.946181	0.217233	0.436685
C96	C	0.976295	0.284423	0.815526
C97	C	0.928876	0.233330	0.758254
H98	H	0.935004	0.322726	0.849334
H99	H	1.012527	0.250818	0.859459
H100	H	1.013502	0.314389	0.776621
H101	H	0.891673	0.203359	0.797160
H102	H	0.892628	0.266940	0.714316
H103	H	1.166943	0.012445	0.436660
C104	C	1.170036	-0.085445	0.734146
C105	C	1.184327	-0.003633	0.758219
H106	H	1.211338	-0.123742	0.767946
H107	H	1.110359	-0.094569	0.750504
H108	H	1.178735	-0.093508	0.667660
H109	H	1.175621	0.004432	0.824704
H110	H	1.244018	0.005495	0.741867
H111	H	1.166966	0.012452	0.563235
H112	H	0.946190	0.217244	0.563257
H113	H	0.785102	0.118867	-0.156619
H114	H	0.785051	0.118863	0.156543
C115	C	0.554212	0.186401	-0.186491
C116	C	0.510642	0.114047	-0.181217
H117	H	0.585877	0.186957	-0.245057
H118	H	0.510982	0.234199	-0.182908
H119	H	0.595339	0.187109	-0.135089
H120	H	0.469510	0.113342	-0.232615
H121	H	0.553877	0.066237	-0.184809
H122	H	0.497304	0.113795	0.156529
