data_functionalizedCrystal
_audit_creation_method	'MofGen! by Chris Wilmer'
_symmetry_space_group_name_H-M	'P1'
_symmetry_Int_Tables_number	1
_symmetry_cell_setting	triclinic
loop_
_symmetry_equiv_pos_as_xyz
  x,y,z
_cell_length_a	16.109295
_cell_length_b	10.868271
_cell_length_c	16.109301
_cell_angle_alpha	89.993636
_cell_angle_beta	96.539666
_cell_angle_gamma	90.002028
loop_
_atom_site_label
_atom_site_type_symbol
_atom_site_fract_x
_atom_site_fract_y
_atom_site_fract_z
O1	O	-1.103135	-0.102242	0.106845
O2	O	-0.769802	0.231091	0.440178
O3	O	-0.436469	0.564424	0.773512
O4	O	-0.861073	-0.102264	0.120149
O5	O	-0.527739	0.231070	0.453483
O6	O	-0.194406	0.564403	0.786816
O7	O	-0.988754	-0.102240	-0.007534
O8	O	-0.655420	0.231093	0.325799
O9	O	-0.322087	0.564427	0.659133
O10	O	-0.975454	-0.102266	0.234528
O11	O	-0.642121	0.231067	0.567862
O12	O	-0.308788	0.564400	0.901195
O13	O	-0.988742	0.102405	-0.007538
O14	O	-0.655408	0.435738	0.325795
O15	O	-0.322075	0.769071	0.659128
O16	O	-0.861061	0.102381	0.120145
O17	O	-0.527727	0.435714	0.453478
O18	O	-0.194394	0.769048	0.786812
O19	O	-1.103123	0.102402	0.106841
O20	O	-0.769790	0.435736	0.440174
O21	O	-0.436457	0.769069	0.773507
Zn22	Zn	-0.982090	0.134883	0.113492
Zn23	Zn	-0.648757	0.468217	0.446826
Zn24	Zn	-0.315423	0.801550	0.780159
Zn25	Zn	-0.982106	-0.134745	0.113498
Zn26	Zn	-0.648773	0.198589	0.446831
Zn27	Zn	-0.315439	0.531922	0.780165
O28	O	-0.975442	0.102378	0.234524
O29	O	-0.642109	0.435712	0.567857
O30	O	-0.308776	0.769045	0.901191
C31	C	-0.830092	0.000056	0.119609
C32	C	-0.496758	0.333389	0.452942
C33	C	-0.163425	0.666723	0.786276
C34	C	-0.737796	0.000048	0.117996
C35	C	-0.404463	0.333382	0.451329
C36	C	-0.071129	0.666715	0.784662
N37	N	-0.982085	0.318897	0.113488
N38	N	-0.648752	0.652231	0.446821
N39	N	-0.315419	0.985564	0.780154
C40	C	-0.515523	0.000054	0.190008
C41	C	-0.182190	0.333387	0.523341
C42	C	0.151143	0.666720	0.856675
C43	C	-0.428803	0.000061	0.188486
C44	C	-0.095469	0.333394	0.521819
C45	C	0.237864	0.666728	0.855152
C46	C	-0.448677	0.000072	0.036996
C47	C	-0.115344	0.333406	0.370330
C48	C	0.217990	0.666739	0.703663
C49	C	-0.535396	0.000074	0.038520
C50	C	-0.202063	0.333407	0.371853
C51	C	0.131271	0.666740	0.705186
C52	C	-0.568816	0.000058	0.115028
C53	C	-0.235483	0.333391	0.448361
C54	C	0.097850	0.666725	0.781695
C55	C	-0.395377	0.000064	0.111982
C56	C	-0.062044	0.333398	0.445316
C57	C	0.271290	0.666731	0.778649
C58	C	-0.301351	0.000073	0.110331
C59	C	0.031983	0.333406	0.443665
C60	C	0.365316	0.666739	0.776998
C61	C	-0.662849	0.000052	0.116679
C62	C	-0.329515	0.333385	0.450013
C63	C	0.003818	0.666719	0.783346
C64	C	-0.982096	0.569903	0.113498
C65	C	-0.648763	0.903237	0.446832
C66	C	-0.315429	1.236570	0.780165
C67	C	-0.982087	0.430226	0.113495
C68	C	-0.648754	0.763559	0.446828
C69	C	-0.315421	1.096893	0.780162
C70	C	-0.134104	0.000078	0.107386
C71	C	0.199230	0.333412	0.440719
C72	C	0.532563	0.666745	0.774053
C73	C	-0.226397	0.000074	0.109014
C74	C	0.106936	0.333407	0.442348
C75	C	0.440270	0.666741	0.775681
C76	C	-0.988209	0.000083	-0.038511
C77	C	-0.654876	0.333416	0.294822
C78	C	-0.321542	0.666750	0.628156
C79	C	-0.986594	0.000085	-0.130806
C80	C	-0.653260	0.333418	0.202527
C81	C	-0.319927	0.666751	0.535860
N82	N	-0.982109	0.681241	0.113499
N83	N	-0.648776	1.014574	0.446832
N84	N	-0.315443	1.347908	0.780165
C85	C	-1.058602	0.000071	-0.353080
C86	C	-0.725268	0.333405	-0.019747
C87	C	-0.391935	0.666738	0.313587
C88	C	-1.057078	0.000061	-0.439800
C89	C	-0.723744	0.333395	-0.106467
C90	C	-0.390411	0.666728	0.226866
C91	C	-0.905588	0.000053	-0.419923
C92	C	-0.572255	0.333386	-0.086590
C93	C	-0.238922	0.666719	0.246744
C94	C	-0.907113	0.000054	-0.333204
C95	C	-0.573780	0.333387	0.000129
C96	C	-0.240447	0.666721	0.333462
C97	C	-0.983622	0.000070	-0.299785
C98	C	-0.650289	0.333403	0.033548
C99	C	-0.316956	0.666736	0.366881
C100	C	-0.980573	0.000058	-0.473225
C101	C	-0.647240	0.333391	-0.139891
C102	C	-0.313907	0.666725	0.193442
C103	C	-0.978920	0.000047	-0.567251
C104	C	-0.645587	0.333380	-0.233917
C105	C	-0.312254	0.666714	0.099416
C106	C	-0.985276	0.000079	-0.205754
C107	C	-0.651943	0.333412	0.127580
C108	C	-0.318609	0.666745	0.460913
C109	C	-0.975987	0.000053	0.265501
C110	C	-0.642654	0.333386	0.598834
C111	C	-0.309320	0.666720	0.932168
C112	C	-0.977602	0.000043	0.357796
C113	C	-0.644269	0.333376	0.691130
C114	C	-0.310935	0.666710	1.024463
H115	H	-0.542731	0.000050	0.252306
H116	H	-0.209398	0.333383	0.585639
H117	H	0.123936	0.666717	0.918972
H118	H	-1.118133	0.000060	-0.483190
H119	H	-0.784800	0.333393	-0.149857
H120	H	-0.451467	0.666727	0.183477
Cl121	Cl	-0.361808	0.000057	0.282751
Cl122	Cl	-0.028475	0.333390	0.616084
Cl123	Cl	0.304858	0.666724	0.949418
H124	H	-0.846052	0.000049	-0.289809
H125	H	-0.512719	0.333382	0.043524
H126	H	-0.179386	0.666716	0.376857
H127	H	-0.421455	0.000093	-0.025294
H128	H	-0.088122	0.333426	0.308039
H129	H	0.245212	0.666759	0.641373
Cl130	Cl	-0.602398	0.000089	-0.055749
Cl131	Cl	-0.269065	0.333423	0.277584
Cl132	Cl	0.064268	0.666756	0.610918
H133	H	-1.120900	0.000082	-0.325874
H134	H	-0.787567	0.333415	0.007460
H135	H	-0.454234	0.666748	0.340793
H136	H	-0.843297	0.000042	-0.447144
H137	H	-0.509964	0.333376	-0.113810
H138	H	-0.176631	0.666709	0.219523
