data_functionalizedCrystal
_audit_creation_method	'MofGen! by Chris Wilmer'
_symmetry_space_group_name_H-M	'P1'
_symmetry_Int_Tables_number	1
_symmetry_cell_setting	triclinic
loop_
_symmetry_equiv_pos_as_xyz
  x,y,z
_cell_length_a	26.210047
_cell_length_b	15.995350
_cell_length_c	15.995350
_cell_angle_alpha	83.492375
_cell_angle_beta	90.006733
_cell_angle_gamma	89.994610
loop_
_atom_site_label
_atom_site_type_symbol
_atom_site_fract_x
_atom_site_fract_y
_atom_site_fract_z
O1	O	0.042383	-1.110992	-0.107915
O2	O	0.042393	-0.867217	-0.121242
O3	O	0.042388	-0.995769	0.007309
O4	O	0.042389	-0.982441	-0.236466
O5	O	-0.042470	-0.995744	0.007289
O6	O	-0.042465	-0.867192	-0.121262
O7	O	-0.042475	-1.110968	-0.107935
Cu8	Cu	-0.050218	-0.989078	-0.114600
Cu9	Cu	0.050137	-0.989107	-0.114577
O10	O	-0.042469	-0.982416	-0.236486
C11	C	-0.000034	-0.836010	-0.120701
C12	C	-0.000030	-0.743060	-0.119049
N13	N	-0.120802	-0.989063	-0.114616
C14	C	-0.000040	-0.995205	0.038494
C15	C	-0.000038	-0.993553	0.131444
C16	C	-0.473319	-1.046024	-0.057667
C17	C	-0.686977	-1.046042	-0.057655
O18	O	-0.714601	-1.094440	-0.009238
N19	N	-0.713696	-0.989111	-0.114558
C20	C	-0.686997	-0.932168	-0.171464
O21	O	-0.714625	-0.883740	-0.219858
C22	C	-0.473339	-0.932147	-0.171471
C23	C	-0.446623	-0.989087	-0.114570
C24	C	-0.446603	-1.102959	-0.000770
C25	C	-0.393191	-1.102957	-0.000776
C26	C	-0.366496	-1.046020	-0.057680
C27	C	-0.393212	-0.989085	-0.114577
C28	C	-0.446641	-0.875200	-0.228373
C29	C	-0.393223	-0.875198	-0.228368
C30	C	-0.366507	-0.932139	-0.171467
C31	C	-0.313105	-0.932146	-0.171487
N32	N	-0.286386	-0.989076	-0.114584
C33	C	-0.313081	-1.046013	-0.057680
C34	C	-0.799170	-0.932185	-0.171458
C35	C	-0.852584	-0.932191	-0.171457
C36	C	-0.852561	-1.046064	-0.057647
C37	C	-0.799146	-1.046061	-0.057652
C38	C	-0.772451	-0.989116	-0.114555
C39	C	-0.200914	-1.046005	-0.057699
C40	C	-0.147497	-1.046000	-0.057713
C41	C	-0.147525	-0.932125	-0.171520
C42	C	-0.200937	-0.932132	-0.171509
C43	C	-0.227630	-0.989075	-0.114592
O44	O	-0.285448	-0.883767	-0.219872
O45	O	-0.285444	-1.094422	-0.009282
C46	C	-0.526730	-1.046026	-0.057660
C47	C	-0.553446	-0.989091	-0.114557
C48	C	-0.526750	-0.932154	-0.171461
C49	C	-0.606860	-0.989097	-0.114557
C50	C	-0.633556	-1.046034	-0.057653
C51	C	-0.606837	-1.102965	-0.000750
C52	C	-0.553425	-1.102963	-0.000757
C53	C	-0.553469	-0.875223	-0.228364
C54	C	-0.606881	-0.875231	-0.228353
C55	C	-0.633576	-0.932168	-0.171450
N56	N	0.120720	-0.989128	-0.114554
C57	C	-0.000046	-1.142175	-0.108476
C58	C	-0.000047	-1.235125	-0.110127
C59	C	-0.000041	-0.405312	-0.113117
C60	C	-0.000231	-0.452746	-0.021565
C61	C	-0.000036	-0.549436	-0.023217
C62	C	-0.000036	-0.572873	-0.116060
C63	C	0.048420	-0.531800	-0.161205
C64	C	0.048457	-0.435164	-0.158905
C65	C	-0.048042	-0.434797	-0.160819
C66	C	-0.048679	-0.531742	-0.160798
C67	C	-0.000031	-0.667570	-0.117727
C68	C	-0.000042	-0.310614	-0.111452
C69	C	-0.000040	-0.982980	-0.267671
C70	C	-0.000039	-0.984631	-0.360621
C71	C	-0.000039	-0.987621	0.469192
C72	C	0.000155	-0.896069	0.421758
C73	C	-0.000036	-0.897721	0.325068
C74	C	-0.000038	-0.990564	0.301631
C75	C	-0.048497	-1.035706	0.342697
C76	C	-0.048538	-1.033406	0.439333
C77	C	0.047962	-1.035326	0.439714
C78	C	0.048602	-1.035304	0.342769
C79	C	-0.000039	-0.992231	0.206934
C80	C	-0.000041	-0.985956	0.563890
H81	H	-0.125747	-1.092371	-0.011377
H82	H	0.051527	-1.103009	0.327408
N83	N	-0.093658	-0.565966	-0.119457
N84	N	-0.125731	-0.603624	-0.159290
H85	H	-0.157500	-0.627789	-0.130090
H86	H	0.034701	-0.862235	0.296654
N87	N	-0.365956	-0.817042	-0.286509
N88	N	-0.336157	-0.843601	-0.338508
H89	H	-0.316900	-0.802530	-0.379573
N90	N	-0.879843	-1.104207	0.000487
N91	N	-0.927534	-1.104185	0.000483
H92	H	-0.946804	-1.145237	0.041546
N93	N	-0.043203	-0.850377	0.446323
N94	N	-0.087217	-0.876437	0.433958
H95	H	-0.117842	-0.844174	0.451309
H96	H	0.084680	-0.416866	-0.125966
N97	N	-0.365914	-1.161186	0.057293
N98	N	-0.389764	-1.212053	0.108051
H99	H	-0.370503	-1.253203	0.149045
H100	H	-0.050737	-1.100622	0.471581
N101	N	-0.771897	-0.874020	-0.229581
N102	N	-0.742094	-0.822042	-0.202996
H103	H	-0.722833	-0.780965	-0.244048
H104	H	-0.050301	-1.103914	0.328571
H105	H	-0.084557	-1.004332	0.314307
N106	N	-0.094120	-0.409016	-0.123295
N107	N	-0.102675	-0.332609	-0.119814
H108	H	-0.135216	-0.314400	-0.093307
H109	H	-0.468333	-1.149324	0.045572
H110	H	-0.051606	-0.547106	-0.228502
N111	N	-0.093969	-0.992062	0.462285
N112	N	-0.090956	-0.926610	0.497919
H113	H	-0.123042	-0.897406	0.514125
N114	N	-0.228222	-0.873968	-0.229640
N115	N	-0.204377	-0.823136	-0.280441
H116	H	-0.223643	-0.782049	-0.321491
N117	N	0.043617	-0.584391	0.021623
N118	N	0.074035	-0.537365	0.054231
H119	H	0.104868	-0.562050	0.085900
H120	H	-0.468385	-0.828834	-0.274706
H121	H	-0.628581	-1.149329	0.045580
N122	N	0.051216	-0.394716	-0.243227
N123	N	0.053111	-0.437884	-0.303585
H124	H	0.055060	-0.409322	-0.363137
N125	N	-0.120243	-0.873977	-0.229641
N126	N	-0.072552	-0.873988	-0.229629
H127	H	-0.053282	-0.832917	-0.270674
H128	H	-0.034981	-0.434214	0.015022
H129	H	-0.531738	-0.828857	-0.274700
H130	H	0.034906	-0.859487	0.440298
N131	N	0.094035	-0.997789	0.465504
N132	N	0.092051	-0.935415	0.505929
H133	H	0.124587	-0.908898	0.524145
N134	N	-0.526148	-1.161132	0.057372
N135	N	-0.549998	-1.211959	0.108171
H136	H	-0.530737	-1.253044	0.149230
N137	N	0.048360	-1.120007	0.479550
N138	N	0.013482	-1.145213	0.529445
H139	H	0.013758	-1.205018	0.557579
N140	N	-0.048448	-0.394951	-0.245496
N141	N	-0.013576	-0.345044	-0.270702
H142	H	-0.013859	-0.316898	-0.330502
N143	N	0.043118	-0.428164	0.024141
N144	N	0.074152	-0.375863	-0.010418
H145	H	0.104768	-0.358500	0.021859
N146	N	0.050676	-0.549520	-0.246771
N147	N	0.016515	-0.592723	-0.275503
H148	H	0.018107	-0.605240	-0.335935
H149	H	-0.034830	-0.861976	0.297195
N150	N	-0.879862	-0.874023	-0.229587
N151	N	-0.873897	-0.796636	-0.228390
H152	H	-0.893160	-0.755548	-0.269443
N153	N	-0.228167	-1.104173	0.000448
N154	N	-0.204298	-1.154999	0.051241
H155	H	-0.223545	-1.196083	0.092306
N156	N	0.093657	-0.567435	-0.121865
N157	N	0.090336	-0.623069	-0.060589
H158	H	0.122283	-0.648246	-0.032809
N159	N	-0.771866	-1.104186	0.000519
N160	N	-0.795715	-1.154990	0.051344
H161	H	-0.776451	-1.196027	0.092448
H162	H	-0.628629	-0.828865	-0.274696
N163	N	0.093573	-0.993946	0.308531
N164	N	0.089854	-0.931752	0.254034
H165	H	0.121613	-0.902540	0.229849
N166	N	-0.043610	-0.585081	0.021310
N167	N	-0.074377	-0.538554	0.053828
H168	H	-0.105152	-0.563725	0.085283
