data_functionalizedCrystal
_audit_creation_method	'MofGen! by Chris Wilmer'
_symmetry_space_group_name_H-M	'P1'
_symmetry_Int_Tables_number	1
_symmetry_cell_setting	triclinic
loop_
_symmetry_equiv_pos_as_xyz
  x,y,z
_cell_length_a	10.654554
_cell_length_b	16.109304
_cell_length_c	9.130313
_cell_angle_alpha	90.001562
_cell_angle_beta	89.999615
_cell_angle_gamma	83.974691
loop_
_atom_site_label
_atom_site_type_symbol
_atom_site_fract_x
_atom_site_fract_y
_atom_site_fract_z
O1	O	1.666248	0.116788	-0.121794
O2	O	1.300620	0.127909	-0.121795
O3	O	1.493476	0.001378	-0.121796
O4	O	1.473392	0.243320	-0.121794
O5	O	1.493474	0.001381	0.121803
O6	O	1.300617	0.127913	0.121804
O7	O	1.666246	0.116791	0.121804
Cu8	Cu	1.483431	0.122352	0.144046
Cu9	Cu	1.483434	0.122348	-0.144037
O10	O	1.473389	0.243323	0.121805
C11	C	1.253832	0.127094	0.000004
C12	C	1.114422	0.124648	0.000003
C13	C	0.902935	0.196853	0.000000
C14	C	1.033925	0.199152	0.000000
C15	C	1.063923	0.047841	-0.000009
C16	C	0.932934	0.045544	-0.000019
C17	C	0.885617	0.284211	0.000012
C18	C	1.016608	0.286509	0.000012
C19	C	1.492661	-0.029600	0.000000
C20	C	1.490220	-0.121910	-0.000010
C21	C	1.484582	-0.334283	-0.132790
C22	C	1.482277	-0.421017	-0.132789
C23	C	1.482280	-0.421010	0.132796
C24	C	1.484576	-0.334277	0.132793
C25	C	1.485733	-0.290916	-0.000004
C26	C	1.481132	-0.464383	0.000000
C27	C	1.478633	-0.558424	0.000003
C28	C	1.488230	-0.196869	-0.000007
C29	C	1.713034	0.117607	0.000002
C30	C	1.852444	0.120052	-0.000007
C31	C	1.474205	0.274301	0.000005
C32	C	1.476646	0.366611	0.000006
N33	N	1.483439	0.122355	0.346669
N34	N	1.483437	0.122339	-0.346660
C35	C	1.568857	0.066346	0.423321
C36	C	1.568854	0.066336	0.576658
C37	C	1.398009	0.178351	0.576677
C38	C	1.398008	0.178356	0.423343
C39	C	1.667496	0.001677	0.423311
C40	C	1.667493	0.001667	0.576648
H41	H	0.843427	0.317130	-0.101930
H42	H	1.051865	0.314328	-0.105170
H43	H	1.485520	-0.298981	-0.240922
H44	H	0.839608	0.310605	0.105189
H45	H	1.129474	-0.012820	-0.000021
Br46	Br	1.064782	0.343449	0.169923
H47	H	1.481336	-0.456322	-0.240916
H48	H	1.481341	-0.456325	0.240915
Br49	Br	1.282059	0.254356	0.319312
Br50	Br	1.617985	-0.098976	0.655911
H51	H	1.485507	-0.298966	0.240930
H52	H	1.328453	0.223946	0.639122
H53	H	0.891831	-0.016994	-0.000044
Br54	Br	1.633204	-0.104830	0.353925
H55	H	1.758406	0.021927	0.375753
H56	H	1.763811	0.015913	0.618265
