data_functionalizedCrystal
_audit_creation_method	'MofGen! by Chris Wilmer'
_symmetry_space_group_name_H-M	'P1'
_symmetry_Int_Tables_number	1
_symmetry_cell_setting	triclinic
loop_
_symmetry_equiv_pos_as_xyz
  x,y,z
_cell_length_a	17.077404
_cell_length_b	16.625546
_cell_length_c	17.077396
_cell_angle_alpha	90.030215
_cell_angle_beta	90.019501
_cell_angle_gamma	90.022693
loop_
_atom_site_label
_atom_site_type_symbol
_atom_site_fract_x
_atom_site_fract_y
_atom_site_fract_z
Zn1	Zn	1.200057	-0.320997	0.443833
Zn2	Zn	1.533390	0.012337	0.777167
Zn3	Zn	1.866724	0.345670	1.110500
Zn4	Zn	1.199965	-0.455839	0.312563
Zn5	Zn	1.533298	-0.122506	0.645897
Zn6	Zn	1.866632	0.210827	0.979230
Zn7	Zn	1.068789	-0.321025	0.312581
Zn8	Zn	1.402122	0.012308	0.645915
Zn9	Zn	1.735455	0.345642	0.979248
Zn10	Zn	1.068758	-0.455792	0.443787
Zn11	Zn	1.402091	-0.122458	0.777120
Zn12	Zn	1.735424	0.210875	1.110454
O13	O	1.134392	-0.388413	0.378191
O14	O	1.467725	-0.055080	0.711524
O15	O	1.801059	0.278253	1.044858
O16	O	1.309892	-0.338892	0.426432
O17	O	1.643225	-0.005559	0.759765
O18	O	1.976558	0.327775	1.093099
O19	O	1.182539	-0.437988	0.202719
O20	O	1.515872	-0.104655	0.536052
O21	O	1.849205	0.228679	0.869385
O22	O	1.086253	-0.208189	0.330019
O23	O	1.419587	0.125144	0.663352
O24	O	1.752920	0.458478	0.996686
O25	O	1.309824	-0.437960	0.329988
O26	O	1.643157	-0.104627	0.663322
O27	O	1.976491	0.228706	0.996655
O28	O	1.182695	-0.208168	0.426449
O29	O	1.516029	0.125165	0.759783
O30	O	1.849362	0.458499	1.093116
O31	O	1.086164	-0.338940	0.202732
O32	O	1.419497	-0.005607	0.536065
O33	O	1.752831	0.327726	0.869399
O34	O	0.958938	-0.338894	0.329974
O35	O	1.292271	-0.005561	0.663307
O36	O	1.625604	0.327773	0.996641
O37	O	1.086200	-0.437879	0.553640
O38	O	1.419534	-0.104546	0.886973
O39	O	1.752867	0.228788	1.220307
O40	O	0.958915	-0.437906	0.426370
O41	O	1.292248	-0.104573	0.759704
O42	O	1.625582	0.228760	1.093037
O43	O	1.182665	-0.338846	0.553674
O44	O	1.515999	-0.005512	0.887007
O45	O	1.849332	0.327821	1.220341
O46	O	1.182509	-0.568666	0.329943
O47	O	1.515842	-0.235332	0.663277
O48	O	1.849175	0.098001	0.996610
O49	O	1.086111	-0.568630	0.426353
O50	O	1.419444	-0.235297	0.759686
O51	O	1.752778	0.098036	1.093020
C52	C	0.930444	-0.388399	0.378169
C53	C	1.263778	-0.055065	0.711503
C54	C	1.597111	0.278268	1.044836
C55	C	0.843194	-0.388412	0.378179
C56	C	1.176528	-0.055078	0.711512
C57	C	1.509861	0.278255	1.044845
C58	C	1.134318	-0.597904	0.378158
C59	C	1.467651	-0.264571	0.711492
C60	C	1.800984	0.068763	1.044825
C61	C	1.134358	-0.687525	0.378170
C62	C	1.467691	-0.354192	0.711504
C63	C	1.801024	-0.020859	1.044837
C64	C	0.802213	-0.440045	0.428292
C65	C	1.135546	-0.106712	0.761625
C66	C	1.468880	0.226621	1.094959
C67	C	0.720232	-0.440047	0.428304
C68	C	1.053566	-0.106714	0.761638
C69	C	1.386899	0.226620	1.094971
C70	C	0.679235	-0.388419	0.378199
C71	C	1.012568	-0.055085	0.711533
C72	C	1.345902	0.278248	1.044866
C73	C	0.720222	-0.336780	0.328084
C74	C	1.053556	-0.003446	0.661418
C75	C	1.386889	0.329887	0.994751
C76	C	0.802201	-0.336774	0.328076
C77	C	1.135535	-0.003441	0.661410
C78	C	1.468868	0.329892	0.994743
C79	C	0.549352	-0.336795	0.328103
C80	C	0.882686	-0.003462	0.661436
C81	C	1.216019	0.329871	0.994770
C82	C	0.467368	-0.336801	0.328110
C83	C	0.800701	-0.003468	0.661443
C84	C	1.134034	0.329865	0.994776
C85	C	0.467383	-0.440068	0.428331
C86	C	0.800717	-0.106735	0.761665
C87	C	1.134050	0.226598	1.094998
C88	C	0.549362	-0.440063	0.428323
C89	C	0.882696	-0.106730	0.761657
C90	C	1.216029	0.226604	1.094990
C91	C	0.590344	-0.388425	0.378207
C92	C	0.923677	-0.055091	0.711540
C93	C	1.257011	0.278242	1.044873
C94	C	1.134495	-1.015701	0.378252
C95	C	1.467828	-0.682367	0.711586
C96	C	1.801161	-0.349034	1.044919
C97	C	1.134454	-0.924392	0.378232
C98	C	1.467787	-0.591059	0.711565
C99	C	1.801121	-0.257726	1.044898
C100	C	1.134426	-0.851616	0.378211
C101	C	1.467759	-0.518283	0.711544
C102	C	1.801092	-0.184949	1.044878
C103	C	1.134386	-0.760302	0.378191
C104	C	1.467720	-0.426968	0.711525
C105	C	1.801053	-0.093635	1.044858
C106	C	1.339136	-0.388428	0.378213
C107	C	1.672470	-0.055095	0.711547
C108	C	2.005803	0.278238	1.044880
C109	C	1.426386	-0.388435	0.378223
C110	C	1.759719	-0.055102	0.711556
C111	C	2.093053	0.278232	1.044889
C112	C	1.134440	-0.388354	0.582936
C113	C	1.467773	-0.055021	0.916269
C114	C	1.801106	0.278313	1.249602
C115	C	1.134460	-0.388329	0.670185
C116	C	1.467793	-0.054995	1.003519
C117	C	1.801126	0.278338	1.336852
C118	C	1.134488	-0.178104	0.378241
C119	C	1.467821	0.155229	0.711575
C120	C	1.801155	0.488562	1.044908
C121	C	1.134529	-0.088483	0.378263
C122	C	1.467862	0.244850	0.711596
C123	C	1.801196	0.578183	1.044929
C124	C	1.134390	-0.388414	0.174243
C125	C	1.467723	-0.055081	0.507577
C126	C	1.801057	0.278252	0.840910
C127	C	1.134522	-0.388212	0.086994
C128	C	1.467855	-0.054879	0.420327
C129	C	1.801188	0.278454	0.753661
C130	C	1.184691	-0.336758	0.711195
C131	C	1.518024	-0.003424	1.044528
C132	C	1.851358	0.329909	1.377861
C133	C	1.184700	-0.336731	0.793175
C134	C	1.518034	-0.003397	1.126508
C135	C	1.851367	0.329936	1.459842
C136	C	1.134482	-0.388280	0.834145
C137	C	1.467815	-0.054946	1.167478
C138	C	1.801149	0.278387	1.500812
C139	C	1.084245	-0.439853	0.793130
C140	C	1.417579	-0.106519	1.126463
C141	C	1.750912	0.226814	1.459797
C142	C	1.084233	-0.439875	0.711151
C143	C	1.417566	-0.106541	1.044484
C144	C	1.750899	0.226792	1.377818
C145	C	1.084277	-0.439804	0.964000
C146	C	1.417610	-0.106471	1.297333
C147	C	1.750944	0.226862	1.630667
C148	C	1.084291	-0.439783	1.045985
C149	C	1.417624	-0.106450	1.379318
C150	C	1.750957	0.226883	1.712651
C151	C	1.184745	-0.336660	1.046024
C152	C	1.518078	-0.003327	1.379358
C153	C	1.851411	0.330007	1.712691
C154	C	1.184732	-0.336682	0.964045
C155	C	1.518065	-0.003349	1.297379
C156	C	1.851399	0.329984	1.630712
C157	C	1.134496	-0.388257	0.923036
C158	C	1.467829	-0.054923	1.256369
C159	C	1.801163	0.278410	1.589703
H160	H	0.835587	-0.482090	0.469091
H161	H	1.168920	-0.148757	0.802424
H162	H	1.502254	0.184577	1.135757
Cl163	Cl	1.247886	-0.271931	0.844726
Cl164	Cl	1.581219	0.061402	1.178059
Cl165	Cl	1.914552	0.394735	1.511393
H166	H	0.434012	-0.482112	0.469140
H167	H	0.767346	-0.148778	0.802474
H168	H	1.100679	0.184555	1.135807
Cl169	Cl	0.415829	-0.271900	0.265116
Cl170	Cl	0.749162	0.061433	0.598450
Cl171	Cl	1.082495	0.394767	0.931783
H172	H	1.043397	-0.481757	1.079340
H173	H	1.376730	-0.148424	1.412674
H174	H	1.710063	0.184910	1.746007
Cl175	Cl	1.247869	-0.271882	0.912541
Cl176	Cl	1.581203	0.061451	1.245874
Cl177	Cl	1.914536	0.394785	1.579208
H178	H	1.225647	-0.294665	1.079418
H179	H	1.558981	0.038668	1.412751
H180	H	1.892314	0.372002	1.746085
H181	H	1.043321	-0.481861	0.677762
H182	H	1.376655	-0.148528	1.011096
H183	H	1.709988	0.184806	1.344429
H184	H	1.043357	-0.481789	0.930613
H185	H	1.376691	-0.148456	1.263946
H186	H	1.710024	0.184878	1.597280
H187	H	1.043354	-0.481822	0.826494
H188	H	1.376687	-0.148488	1.159827
H189	H	1.710021	0.184845	1.493161
Cl190	Cl	0.600871	-0.271877	0.265098
Cl191	Cl	0.934204	0.061456	0.598432
Cl192	Cl	1.267537	0.394789	0.931765
H193	H	0.686836	-0.294739	0.287291
H194	H	1.020169	0.038594	0.620625
H195	H	1.353502	0.371927	0.953958
Cl196	Cl	1.247830	-0.271954	0.659698
Cl197	Cl	1.581164	0.061380	0.993031
Cl198	Cl	1.914497	0.394713	1.326364
H199	H	0.835567	-0.294725	0.287273
H200	H	1.168901	0.038609	0.620606
H201	H	1.502234	0.371942	0.953940
Cl202	Cl	0.668716	-0.504961	0.491307
Cl203	Cl	1.002050	-0.171628	0.824640
Cl204	Cl	1.335383	0.161706	1.157973
H205	H	0.582740	-0.482108	0.469119
H206	H	0.916074	-0.148774	0.802452
H207	H	1.249407	0.184559	1.135786
