data_functionalizedCrystal
_audit_creation_method	'MofGen! by Chris Wilmer'
_symmetry_space_group_name_H-M	'P1'
_symmetry_Int_Tables_number	1
_symmetry_cell_setting	triclinic
loop_
_symmetry_equiv_pos_as_xyz
  x,y,z
_cell_length_a	12.827893
_cell_length_b	16.625546
_cell_length_c	12.827885
_cell_angle_alpha	90.035124
_cell_angle_beta	90.019272
_cell_angle_gamma	90.022439
loop_
_atom_site_label
_atom_site_type_symbol
_atom_site_fract_x
_atom_site_fract_y
_atom_site_fract_z
Zn1	Zn	1.597618	-0.320963	0.590810
Zn2	Zn	2.097618	0.179037	1.090810
Zn3	Zn	1.597491	-0.455817	0.416054
Zn4	Zn	2.097491	0.044183	0.916054
Zn5	Zn	1.422860	-0.321002	0.416084
Zn6	Zn	1.922860	0.178998	0.916084
Zn7	Zn	1.422823	-0.455757	0.590754
Zn8	Zn	1.922823	0.044243	1.090754
O9	O	1.510198	-0.388385	0.503425
O10	O	2.010198	0.111615	1.003425
O11	O	1.743837	-0.338861	0.567639
O12	O	2.243837	0.161139	1.067639
O13	O	1.574287	-0.437976	0.269822
O14	O	2.074287	0.062024	0.769822
O15	O	1.446110	-0.208165	0.439297
O16	O	1.946110	0.291835	0.939297
O17	O	1.743744	-0.437937	0.439247
O18	O	2.243744	0.062063	0.939247
O19	O	1.574505	-0.208136	0.567668
O20	O	2.074505	0.291864	1.067668
O21	O	1.445987	-0.338928	0.269843
O22	O	1.945987	0.161072	0.769843
O23	O	1.276619	-0.338869	0.439243
O24	O	1.776619	0.161131	0.939243
O25	O	1.446048	-0.437835	0.736997
O26	O	1.946048	0.062165	1.236997
O27	O	1.276592	-0.437873	0.567572
O28	O	1.776592	0.062127	1.067572
O29	O	1.574469	-0.338802	0.737039
O30	O	2.074469	0.161198	1.237039
O31	O	1.574252	-0.568642	0.439192
O32	O	2.074252	-0.068642	0.939192
O33	O	1.445925	-0.568598	0.567544
O34	O	1.945925	-0.068598	1.067544
C35	C	1.238688	-0.388370	0.503405
C36	C	1.738688	0.111630	1.003405
C37	C	1.122535	-0.388382	0.503422
C38	C	1.622535	0.111618	1.003422
C39	C	1.070765	-0.437449	0.566825
C40	C	1.570765	0.062551	1.066825
C41	C	0.950714	-0.437464	0.566844
C42	C	1.450714	0.062536	1.066844
C43	C	1.510099	-0.597876	0.503382
C44	C	2.010099	-0.097876	1.003382
C45	C	1.510152	-0.687497	0.503398
C46	C	2.010152	-0.187497	1.003398
C47	C	1.510335	-1.015673	0.503507
C48	C	2.010335	-0.515673	1.003507
C49	C	1.510281	-0.924364	0.503479
C50	C	2.010281	-0.424364	1.003479
C51	C	1.510243	-0.851588	0.503452
C52	C	2.010243	-0.351588	1.003452
C53	C	1.510190	-0.760274	0.503425
C54	C	2.010190	-0.260274	1.003425
C55	C	1.782768	-0.388401	0.503446
C56	C	2.282768	0.111599	1.003446
C57	C	1.898921	-0.388408	0.503455
C58	C	2.398921	0.111592	1.003455
C59	C	1.510269	-0.388308	0.775996
C60	C	2.010269	0.111692	1.275996
C61	C	1.510299	-0.388275	0.892149
C62	C	2.010299	0.111725	1.392149
C63	C	1.510326	-0.178076	0.503492
C64	C	2.010326	0.321924	1.003492
C65	C	1.510380	-0.088455	0.503521
C66	C	2.010380	0.411545	1.003521
C67	C	1.510187	-0.388404	0.231915
C68	C	2.010187	0.111596	0.731915
C69	C	1.510359	-0.388210	0.115763
C70	C	2.010359	0.111790	0.615763
C71	C	1.573853	-0.339261	0.943954
C72	C	2.073853	0.160739	1.443954
C73	C	1.573886	-0.339225	1.064004
C74	C	2.073886	0.160775	1.564004
H75	H	1.115319	-0.479444	0.621098
H76	H	1.615319	0.020556	1.121098
H77	H	1.455906	-0.430206	0.936673
H78	H	1.955906	0.069794	1.436673
O79	O	1.638650	-0.289073	1.117190
O80	O	2.138650	0.210927	1.617190
C81	C	1.579145	-0.237032	1.180357
C82	C	2.079145	0.262968	1.680357
H83	H	1.496863	-0.232037	1.147397
H84	H	1.996863	0.267963	1.647397
H85	H	1.616974	-0.174982	1.181722
H86	H	2.116974	0.325018	1.681722
H87	H	1.575481	-0.261995	1.263030
H88	H	2.075481	0.238005	1.763030
O89	O	0.897448	-0.487506	0.631572
O90	O	1.397448	0.012494	1.131572
C91	C	0.789443	-0.476389	0.617168
C92	C	1.289443	0.023611	1.117168
H93	H	0.774643	-0.414125	0.583075
H94	H	1.274643	0.085875	1.083075
H95	H	0.747924	-0.481906	0.695399
H96	H	1.247924	0.018094	1.195399
H97	H	0.758427	-0.524148	0.561384
H98	H	1.258427	-0.024148	1.061384
O99	O	1.638886	-0.289267	0.890964
O100	O	2.138886	0.210733	1.390964
C101	C	1.743060	-0.306884	0.917541
C102	C	2.243060	0.193116	1.417541
H103	H	1.745299	-0.337803	0.996804
H104	H	2.245299	0.162197	1.496804
H105	H	1.789960	-0.248692	0.921187
H106	H	2.289960	0.251308	1.421187
H107	H	1.778160	-0.348400	0.856122
H108	H	2.278160	0.151600	1.356122
O109	O	1.445300	-0.438242	1.062748
O110	O	1.945300	0.061758	1.562748
C111	C	1.341137	-0.420616	1.089318
C112	C	1.841137	0.079384	1.589318
H113	H	1.338935	-0.389647	1.168598
H114	H	1.838935	0.110353	1.668598
H115	H	1.294247	-0.478810	1.092927
H116	H	1.794247	0.021190	1.592927
H117	H	1.306000	-0.379142	1.027916
H118	H	1.806000	0.120858	1.527916
O119	O	1.069433	-0.338166	0.438787
O120	O	1.569433	0.161834	0.938787
C121	C	1.096077	-0.257801	0.461758
C122	C	1.596077	0.242199	0.961758
H123	H	1.126196	-0.253775	0.545217
H124	H	1.626196	0.246225	1.045217
H125	H	1.024253	-0.218022	0.452925
H126	H	1.524253	0.281978	0.952925
H127	H	1.159323	-0.236621	0.405707
H128	H	1.659323	0.263379	0.905707
H129	H	0.943436	-0.346401	0.449166
H130	H	1.443436	0.153599	0.949166
