data_functionalizedCrystal
_audit_creation_method	'MofGen! by Chris Wilmer'
_symmetry_space_group_name_H-M	'P1'
_symmetry_Int_Tables_number	1
_symmetry_cell_setting	triclinic
loop_
_symmetry_equiv_pos_as_xyz
  x,y,z
_cell_length_a	17.077404
_cell_length_b	15.298852
_cell_length_c	17.077396
_cell_angle_alpha	99.698732
_cell_angle_beta	90.018362
_cell_angle_gamma	80.331075
loop_
_atom_site_label
_atom_site_type_symbol
_atom_site_fract_x
_atom_site_fract_y
_atom_site_fract_z
Zn1	Zn	1.254196	-0.359194	0.389781
Zn2	Zn	1.276844	-0.510059	0.235819
Zn3	Zn	1.122932	-0.359220	0.258528
Zn4	Zn	1.145627	-0.510000	0.367054
O5	O	1.199900	-0.434618	0.312795
O6	O	1.367050	-0.379221	0.369365
O7	O	1.256407	-0.490086	0.128979
O8	O	1.121369	-0.232976	0.294954
O9	O	1.383688	-0.490061	0.256250
O10	O	1.217808	-0.232957	0.391385
O11	O	1.143329	-0.379264	0.145663
O12	O	1.016094	-0.379207	0.272916
O13	O	1.160049	-0.489960	0.479921
O14	O	1.032768	-0.489984	0.352650
O15	O	1.239815	-0.379163	0.496619
O16	O	1.278414	-0.636291	0.234212
O17	O	1.182010	-0.636248	0.330630
C18	C	0.995948	-0.434593	0.312782
C19	C	0.908700	-0.434603	0.312791
C20	C	0.859062	-0.376991	0.371752
C21	C	0.777083	-0.376997	0.371754
C22	C	0.744743	-0.434620	0.312799
C23	C	0.794387	-0.492235	0.253833
C24	C	0.876364	-0.492224	0.253827
C25	C	0.623520	-0.492255	0.253849
C26	C	0.541537	-0.492268	0.253855
C27	C	0.524238	-0.377029	0.371776
C28	C	0.606216	-0.377018	0.371771
C29	C	0.655854	-0.434634	0.312805
C30	C	1.235153	-0.669002	0.277508
C31	C	1.250306	-0.769272	0.262438
C32	C	1.092111	-1.051953	0.420578
C33	C	1.077875	-0.957744	0.434743
C34	C	1.120981	-0.910621	0.391668
C35	C	1.178326	-0.957717	0.334426
C36	C	1.192567	-1.051935	0.320264
C37	C	1.221438	-0.910604	0.291354
C38	C	1.278783	-0.957700	0.234112
C39	C	1.293021	-1.051909	0.219952
C40	C	1.249915	-1.099031	0.263027
C41	C	1.207197	-0.816386	0.305515
C42	C	1.307654	-0.816368	0.205201
C43	C	1.321889	-0.910577	0.191036
C44	C	1.404648	-0.434645	0.312810
C45	C	1.491900	-0.434656	0.312816
C46	C	1.199937	-0.434552	0.517550
C47	C	1.199953	-0.434523	0.604804
C48	C	1.164530	-0.199319	0.348238
C49	C	1.149458	-0.099049	0.363342
C50	C	1.199898	-0.434619	0.108847
C51	C	1.199996	-0.434393	0.021632
C52	C	1.241488	-0.376827	0.654491
C53	C	1.241493	-0.376797	0.736476
C54	C	1.199967	-0.434469	0.768772
C55	C	1.158427	-0.492168	0.719079
C56	C	1.158418	-0.492192	0.637096
C57	C	1.158451	-0.492113	0.889957
C58	C	1.158461	-0.492090	0.971945
C59	C	1.241526	-0.376718	0.989337
C60	C	1.241517	-0.376743	0.907354
C61	C	1.199978	-0.434443	0.857667
H62	H	0.483818	-0.330114	0.419787
H63	H	1.261497	-1.175744	0.251493
H64	H	1.275306	-0.329866	0.628201
H65	H	1.124613	-0.539122	0.745381
H66	H	1.275347	-0.329734	1.029796
H67	H	1.057024	-1.090328	0.455648
H68	H	1.124587	-0.539166	0.596643
H69	H	1.275317	-0.329817	0.776927
H70	H	1.339721	-1.090252	0.173348
H71	H	0.515210	-0.539190	0.205849
H72	H	0.916779	-0.539137	0.205815
H73	H	1.031187	-0.919402	0.481350
H74	H	0.663934	-0.539170	0.205831
H75	H	1.368580	-0.948936	0.144430
H76	H	0.768049	-0.539148	0.205827
H77	H	1.342756	-0.778002	0.170127
H78	H	0.632544	-0.330101	0.419781
H79	H	1.275336	-0.329786	0.881061
H80	H	1.124645	-0.539050	0.998238
H81	H	0.885387	-0.330070	0.419762
H82	H	1.124611	-0.539085	0.849506
H83	H	1.109387	-0.833912	0.403204
H84	H	0.736671	-0.330086	0.419767
H85	H	1.160507	-0.778049	0.352122
