data_functionalizedCrystal
_audit_creation_method	'MofGen! by Chris Wilmer'
_symmetry_space_group_name_H-M	'P1'
_symmetry_Int_Tables_number	1
_symmetry_cell_setting	triclinic
loop_
_symmetry_equiv_pos_as_xyz
  x,y,z
_cell_length_a	15.455379
_cell_length_b	16.992694
_cell_length_c	16.992695
_cell_angle_alpha	89.331777
_cell_angle_beta	87.182553
_cell_angle_gamma	92.824304
loop_
_atom_site_label
_atom_site_type_symbol
_atom_site_fract_x
_atom_site_fract_y
_atom_site_fract_z
O1	O	0.072022	-1.047586	0.163653
O2	O	0.072048	-0.819185	0.161821
O3	O	0.072028	-0.932470	0.048537
O4	O	0.072042	-0.934301	0.276936
O5	O	-0.072232	-0.938998	0.055070
O6	O	-0.072213	-0.825713	0.168353
O7	O	-0.072238	-1.054114	0.170186
Cu8	Cu	-0.085398	-0.940510	0.169866
Cu9	Cu	0.085207	-0.932789	0.162140
O10	O	-0.072219	-0.940829	0.283469
C11	C	-0.000079	-0.793089	0.162731
C12	C	-0.000070	-0.705604	0.155702
N13	N	-0.205392	-0.945945	0.175300
N14	N	0.205202	-0.927360	0.156701
C15	C	-0.000102	-0.933378	0.022443
C16	C	-0.000101	-0.926350	-0.065041
C17	C	0.749203	-0.897358	0.126509
C18	C	0.658396	-0.901457	0.130642
C19	C	0.612996	-0.954147	0.183561
C20	C	0.658406	-1.002736	0.232357
C21	C	0.749212	-0.998633	0.228228
C22	C	0.341418	-0.971846	0.201367
C23	C	0.250606	-0.975947	0.205491
C24	C	0.250602	-0.874666	0.103776
C25	C	0.341410	-0.870570	0.099648
C26	C	0.386812	-0.919157	0.148447
N27	N	0.520176	-0.958340	0.187785
N28	N	0.479630	-0.914960	0.144227
C29	C	-0.000109	-1.080210	0.169275
C30	C	-0.000113	-1.167695	0.176304
C31	C	-0.000066	-0.659613	0.223520
C32	C	-0.000079	-0.577412	0.216911
C33	C	-0.000088	-0.541205	0.142484
C34	C	-0.000094	-0.587202	0.074661
C35	C	-0.000088	-0.669401	0.081271
C36	C	-0.000113	-0.295891	0.115091
C37	C	-0.000116	-0.213686	0.108486
C38	C	-0.000103	-0.203903	0.250737
C39	C	-0.000091	-0.286103	0.257340
C40	C	-0.000102	-0.332093	0.189517
N41	N	-0.000098	-0.457183	0.135727
N42	N	-0.000098	-0.416114	0.196275
C43	C	-0.000109	-0.994168	-0.111032
C44	C	-0.000100	-0.987559	-0.193233
C45	C	-0.000089	-0.913131	-0.229442
C46	C	-0.000078	-0.845307	-0.183445
C47	C	-0.000081	-0.851917	-0.101246
C48	C	-0.000074	-0.885735	-0.474757
C49	C	-0.000074	-0.879131	-0.556962
C50	C	-0.000094	-1.021383	-0.566744
C51	C	-0.000102	-1.027987	-0.484543
C52	C	-0.000087	-0.960163	-0.438554
N53	N	-0.000082	-0.906373	-0.313464
N54	N	-0.000087	-0.966921	-0.354533
C55	C	-0.000087	-0.939921	0.309563
C56	C	-0.000082	-0.946949	0.397047
H57	H	0.786162	-0.854454	0.083414
H58	H	-0.000074	-0.315577	0.317946
Br59	Br	-0.000148	-0.164548	0.007472
Br60	Br	0.810834	-1.064576	0.294447
Br61	Br	-0.000044	-0.708743	0.324533
H62	H	-0.000106	-1.076601	-0.604197
Br63	Br	-0.000129	-0.358297	0.023045
H64	H	-0.000075	-0.539970	0.272136
H65	H	-0.000090	-0.706846	0.026046
Br66	Br	-0.000089	-0.141484	0.342777
Br67	Br	-0.000048	-0.744295	-0.232586
Br68	Br	-0.000137	-1.095183	-0.061899
H69	H	-0.000114	-0.557715	0.014061
H70	H	-0.000061	-0.830508	-0.437322
H71	H	0.621434	-1.045635	0.275449
Br72	Br	-0.000111	-1.079602	-0.255646
H73	H	-0.000112	-1.088594	-0.455068
H74	H	-0.000073	-0.796692	-0.063801
Br75	Br	-0.000067	-0.778115	-0.606102
Br76	Br	0.403019	-0.799029	0.027856
Br77	Br	0.596779	-0.835508	0.064428
H78	H	0.213643	-1.018855	0.248588
Br79	Br	0.403025	-1.037757	0.267622
Br80	Br	0.188980	-0.808728	0.037556
