data_functionalizedCrystal
_audit_creation_method	'MofGen! by Chris Wilmer'
_symmetry_space_group_name_H-M	'P1'
_symmetry_Int_Tables_number	1
_symmetry_cell_setting	triclinic
loop_
_symmetry_equiv_pos_as_xyz
  x,y,z
_cell_length_a	10.654550
_cell_length_b	10.489741
_cell_length_c	9.730223
_cell_angle_alpha	89.995878
_cell_angle_beta	89.999957
_cell_angle_gamma	84.512052
loop_
_atom_site_label
_atom_site_type_symbol
_atom_site_fract_x
_atom_site_fract_y
_atom_site_fract_z
O1	O	1.667923	0.179162	-0.114186
O2	O	1.302452	0.196231	-0.114212
O3	O	1.493504	0.002095	-0.114190
O4	O	1.476872	0.373298	-0.114208
O5	O	1.493491	0.002089	0.114390
O6	O	1.302440	0.196226	0.114368
O7	O	1.667911	0.179157	0.114393
Zn8	Zn	1.485173	0.187690	0.150673
Zn9	Zn	1.485190	0.187697	-0.150491
O10	O	1.476859	0.373293	0.114372
C11	C	1.255648	0.194975	0.000075
C12	C	1.116203	0.191225	0.000066
C13	C	1.036771	0.305530	0.000064
C14	C	0.905748	0.301999	0.000088
C15	C	0.933603	0.069849	0.000110
C16	C	1.064623	0.073381	0.000095
C17	C	1.492241	-0.045439	0.000099
C18	C	1.488483	-0.187067	0.000096
C19	C	1.366923	-0.255148	0.000078
C20	C	1.424341	-0.347301	0.112783
C21	C	1.424382	-0.347270	-0.112579
C22	C	1.545951	-0.277354	0.112895
C23	C	1.545975	-0.277314	-0.112568
C24	C	1.603481	-0.369439	0.000165
C25	C	1.714715	0.180413	0.000104
C26	C	1.854160	0.184162	0.000104
C27	C	1.478122	0.420827	0.000080
C28	C	1.481880	0.562454	0.000074
N29	N	1.485171	0.187685	0.356209
N30	N	1.485201	0.187693	-0.356027
C31	C	1.569798	0.101758	0.428145
C32	C	1.569811	0.101758	0.572028
C33	C	1.400566	0.273624	0.572027
C34	C	1.400548	0.273616	0.428147
H35	H	1.266977	-0.205449	0.000184
H36	H	1.597336	-0.246549	0.208286
C37	C	1.308521	0.366712	0.349959
C38	C	1.231006	0.298027	0.267406
C39	C	1.146208	0.383736	0.195372
H40	H	1.354024	0.420265	0.293703
H41	H	1.258058	0.417881	0.413361
H42	H	1.281463	0.246881	0.204011
H43	H	1.185475	0.244479	0.323627
H44	H	1.095745	0.434904	0.258774
H45	H	1.191722	0.437284	0.139124
H46	H	1.093597	0.337145	0.139361
H47	H	1.078762	0.401486	0.000050
H48	H	1.638702	0.031785	0.369576
H49	H	1.331669	0.343590	0.630613
H50	H	0.841079	0.395078	0.000090
H51	H	0.891590	-0.026096	0.000142
H52	H	1.129300	-0.019705	0.000100
C53	C	1.355522	-0.388532	0.239707
C54	C	1.231717	-0.330169	0.239168
C55	C	1.168273	-0.368128	0.356053
H56	H	1.397746	-0.363446	0.319842
H57	H	1.354224	-0.478965	0.239210
H58	H	1.233021	-0.239756	0.239678
H59	H	1.189460	-0.355248	0.159059
H60	H	1.166975	-0.458561	0.355556
H61	H	1.210506	-0.343040	0.436180
H62	H	1.084261	-0.328544	0.355697
C63	C	1.736948	-0.435207	0.000039
C64	C	1.800772	-0.398055	-0.116933
C65	C	1.923733	-0.458584	-0.117078
H66	H	1.734051	-0.525429	-0.000791
H67	H	1.779971	-0.411223	0.080117
H68	H	1.757760	-0.422048	-0.196990
H69	H	1.803703	-0.307843	-0.116127
H70	H	1.966756	-0.434600	-0.037001
H71	H	1.920824	-0.548804	-0.117905
H72	H	1.967057	-0.433377	-0.196436
H73	H	1.372936	-0.378207	-0.207872
C74	C	1.614293	-0.235978	-0.239778
C75	C	1.550230	-0.270994	-0.357475
C76	C	1.613107	-0.232917	-0.474696
H77	H	1.697859	-0.276664	-0.240776
H78	H	1.616815	-0.145697	-0.238468
H79	H	1.547723	-0.361258	-0.358785
H80	H	1.466668	-0.230313	-0.356523
H81	H	1.615628	-0.142636	-0.473387
H82	H	1.696670	-0.273606	-0.475680
H83	H	1.569643	-0.256659	-0.554567
H84	H	1.638720	0.031787	0.630593
