data_functionalizedCrystal
_audit_creation_method	'MofGen! by Chris Wilmer'
_symmetry_space_group_name_H-M	'P1'
_symmetry_Int_Tables_number	1
_symmetry_cell_setting	triclinic
loop_
_symmetry_equiv_pos_as_xyz
  x,y,z
_cell_length_a	18.215407
_cell_length_b	18.101397
_cell_length_c	18.215399
_cell_angle_alpha	90.031052
_cell_angle_beta	90.016885
_cell_angle_gamma	90.017909
loop_
_atom_site_label
_atom_site_type_symbol
_atom_site_fract_x
_atom_site_fract_y
_atom_site_fract_z
Zn1	Zn	1.125091	-0.294885	0.416054
Zn2	Zn	1.125010	-0.418732	0.292982
Zn3	Zn	1.002025	-0.294903	0.293006
Zn4	Zn	1.001999	-0.418683	0.416012
O5	O	1.063531	-0.356801	0.354513
O6	O	1.228065	-0.311326	0.399735
O7	O	1.108672	-0.402334	0.190001
O8	O	1.018394	-0.191268	0.309357
O9	O	1.228005	-0.402316	0.309315
O10	O	1.108811	-0.191254	0.399759
O11	O	1.018316	-0.311358	0.190019
O12	O	0.899037	-0.311310	0.309316
O13	O	1.018351	-0.402233	0.519002
O14	O	0.899018	-0.402251	0.399688
O15	O	1.108786	-0.311279	0.519032
O16	O	1.108648	-0.522358	0.309274
O17	O	1.018272	-0.522323	0.399664
C18	C	0.872325	-0.356778	0.354501
C19	C	0.790526	-0.356786	0.354512
C20	C	0.602362	-0.309505	0.401669
C21	C	0.525503	-0.309511	0.401671
C22	C	0.525452	-0.404117	0.307371
C23	C	0.602310	-0.404107	0.307365
C24	C	0.640762	-0.356802	0.354518
C25	C	0.487046	-0.356819	0.354527
C26	C	0.403713	-0.356826	0.354529
C27	C	0.724101	-0.356793	0.354515
C28	C	1.063468	-0.549211	0.354478
C29	C	1.063509	-0.631525	0.354487
C30	C	1.063602	-0.930616	0.354554
C31	C	1.120306	-0.899283	0.297531
C32	C	1.120502	-0.813664	0.297679
C33	C	1.063556	-0.782234	0.354520
C34	C	1.084580	-0.813241	0.432092
C35	C	1.085018	-0.898886	0.431781
C36	C	0.985724	-0.899122	0.334677
C37	C	0.986109	-0.813473	0.332946
C38	C	1.063528	-0.698374	0.354506
C39	C	1.063632	-1.014476	0.354574
C40	C	1.255484	-0.356824	0.354527
C41	C	1.337283	-0.356834	0.354532
C42	C	1.063574	-0.356748	0.546466
C43	C	1.063593	-0.356726	0.628265
C44	C	1.063614	-0.163639	0.354565
C45	C	1.063650	-0.081325	0.354587
C46	C	1.063530	-0.356800	0.163307
C47	C	1.063655	-0.356613	0.081509
C48	C	1.110710	-0.309302	0.893340
C49	C	1.110701	-0.309322	0.816481
C50	C	1.016536	-0.404042	0.816439
C51	C	1.016549	-0.404026	0.893297
C52	C	1.063634	-0.356651	0.931745
C53	C	1.063613	-0.356688	0.778029
C54	C	1.063603	-0.356710	0.694695
C55	C	1.063645	-0.356630	1.015084
H56	H	1.107349	-0.792703	0.240161
Br57	Br	1.179897	-0.932094	0.459844
Br58	Br	0.915307	-0.932895	0.403899
H59	H	1.149035	-0.270767	0.785216
H60	H	1.149049	-0.270726	0.924643
Br61	Br	0.952633	-0.468329	0.764254
Br62	Br	0.654546	-0.245304	0.465660
H63	H	0.978214	-0.442587	0.924567
H64	H	0.494241	-0.270997	0.440065
H65	H	0.970256	-0.793214	0.275860
Br66	Br	1.017843	-0.779319	0.504812
Br67	Br	0.911900	-0.777827	0.397100
Br68	Br	0.473262	-0.468315	0.243382
Br69	Br	1.098655	-0.933691	0.201372
Br70	Br	0.654429	-0.468289	0.243360
H71	H	1.178190	-0.793123	0.310830
Br72	Br	1.215933	-0.935064	0.319195
H73	H	1.045527	-0.919611	0.475732
Br74	Br	1.178397	-0.777401	0.460634
H75	H	0.966598	-0.920782	0.279094
