data_functionalizedCrystal
_audit_creation_method	'MofGen! by Chris Wilmer'
_symmetry_space_group_name_H-M	'P1'
_symmetry_Int_Tables_number	1
_symmetry_cell_setting	triclinic
loop_
_symmetry_equiv_pos_as_xyz
  x,y,z
_cell_length_a	27.732048
_cell_length_b	14.044220
_cell_length_c	13.101039
_cell_angle_alpha	93.659868
_cell_angle_beta	93.329410
_cell_angle_gamma	92.084233
loop_
_atom_site_label
_atom_site_type_symbol
_atom_site_fract_x
_atom_site_fract_y
_atom_site_fract_z
O1	O	0.114020	-1.261246	-0.085126
O2	O	0.614020	-0.761246	0.414874
O3	O	0.109817	-0.985339	-0.085151
O4	O	0.609817	-0.485339	0.414849
O5	O	0.041925	-1.131860	-0.085119
O6	O	0.541925	-0.631860	0.414881
O7	O	0.181913	-1.114725	-0.085159
O8	O	0.681913	-0.614725	0.414841
O9	O	0.046805	-1.121348	0.085309
O10	O	0.546805	-0.621348	0.585309
O11	O	0.114697	-0.974827	0.085276
O12	O	0.614697	-0.474827	0.585276
O13	O	0.118900	-1.250733	0.085301
O14	O	0.618900	-0.750733	0.585301
Zn15	Zn	0.117574	-1.111111	0.112348
Zn16	Zn	0.617574	-0.611111	0.612348
Zn17	Zn	0.111144	-1.124962	-0.112198
Zn18	Zn	0.611144	-0.624962	0.387802
O19	O	0.186793	-1.104212	0.085268
O20	O	0.686793	-0.604212	0.585268
C21	C	0.110418	-0.944796	0.000059
C22	C	0.610418	-0.444796	0.500059
C23	C	0.104930	-0.839651	0.000051
C24	C	0.604930	-0.339651	0.500051
C25	C	0.026341	-1.126244	0.000098
C26	C	0.526341	-0.626244	0.500098
C27	C	-0.027364	-1.125160	0.000106
C28	C	0.472636	-0.625160	0.500106
C29	C	0.118300	-1.291277	0.000088
C30	C	0.618300	-0.791277	0.500088
C31	C	0.123787	-1.396422	0.000090
C32	C	0.623787	-0.896422	0.500090
C33	C	-0.362438	-1.204929	0.000061
C34	C	0.137562	-0.704929	0.500061
C35	C	-0.564286	-1.200910	0.000046
C36	C	-0.064286	-0.700910	0.500046
O37	O	-0.592120	-1.273853	0.000008
O38	O	-0.092120	-0.773853	0.500008
N39	N	-0.587487	-1.114029	0.000039
N40	N	-0.087487	-0.614029	0.500039
C41	C	-0.560223	-1.028146	0.000029
C42	C	-0.060223	-0.528146	0.500029
O43	O	-0.584589	-0.954156	0.000012
O44	O	-0.084589	-0.454156	0.500012
C45	C	-0.358376	-1.032166	0.000037
C46	C	0.141624	-0.532166	0.500037
C47	C	-0.335177	-1.119052	0.000054
C48	C	0.164823	-0.619052	0.500054
C49	C	-0.339239	-1.291808	0.000077
C50	C	0.160761	-0.791808	0.500077
C51	C	-0.288779	-1.292812	0.000086
C52	C	0.211221	-0.792812	0.500086
C53	C	-0.261519	-1.206935	0.000079
C54	C	0.238481	-0.706935	0.500079
C55	C	-0.284718	-1.120056	0.000063
C56	C	0.215282	-0.620056	0.500063
C57	C	-0.331113	-0.946285	0.000019
C58	C	0.168887	-0.446285	0.500019
C59	C	-0.280648	-0.947297	0.000018
C60	C	0.219352	-0.447297	0.500018
C61	C	-0.257449	-1.034184	0.000036
C62	C	0.242551	-0.534184	0.500036
C63	C	-0.206998	-1.035183	0.000066
C64	C	0.293002	-0.535183	0.500066
N65	N	-0.183797	-1.122064	0.000072
N66	N	0.316203	-0.622064	0.500072
C67	C	-0.211057	-1.207941	0.000079
C68	C	0.288943	-0.707941	0.500079
C69	C	-0.666196	-1.026042	0.000027
C70	C	-0.166196	-0.526042	0.500027
C71	C	-0.716658	-1.025036	0.000027
C72	C	-0.216658	-0.525036	0.500027
C73	C	-0.720717	-1.197801	0.000043
C74	C	-0.220717	-0.697801	0.500043
C75	C	-0.670255	-1.198805	0.000050
C76	C	-0.170255	-0.698805	0.500050
C77	C	-0.642995	-1.112923	0.000034
C78	C	-0.142995	-0.612923	0.500034
C79	C	-0.105089	-1.210041	0.000100
C80	C	0.394911	-0.710041	0.500100
C81	C	-0.054625	-1.211037	0.000113
C82	C	0.445375	-0.711037	0.500113
C83	C	-0.050570	-1.038273	0.000093
C84	C	0.449430	-0.538273	0.500093
C85	C	-0.101030	-1.037276	0.000085
C86	C	0.398970	-0.537276	0.500085
C87	C	-0.128288	-1.123168	0.000085
C88	C	0.371712	-0.623168	0.500085
O89	O	-0.179134	-0.962280	0.000092
O90	O	0.320866	-0.462280	0.500092
O91	O	-0.186683	-1.281921	0.000073
O92	O	0.313317	-0.781921	0.500073
C93	C	-0.412897	-1.203925	0.000052
C94	C	0.087103	-0.703925	0.500052
C95	C	-0.436096	-1.117046	0.000035
C96	C	0.063904	-0.617046	0.500035
C97	C	-0.408835	-1.031169	0.000029
C98	C	0.091165	-0.531169	0.500029
C99	C	-0.486557	-1.116040	0.000035
C100	C	0.013443	-0.616040	0.500035
C101	C	-0.513818	-1.201917	0.000042
C102	C	-0.013818	-0.701917	0.500042
C103	C	-0.490617	-1.288798	0.000049
C104	C	0.009383	-0.788798	0.500049
C105	C	-0.440157	-1.289802	0.000059
C106	C	0.059843	-0.789802	0.500059
C107	C	-0.432037	-0.944288	0.000022
C108	C	0.067963	-0.444288	0.500022
C109	C	-0.482496	-0.943292	0.000013
C110	C	0.017504	-0.443292	0.500013
C111	C	-0.509756	-1.029168	0.000020
C112	C	-0.009756	-0.529168	0.500020
C113	C	0.202376	-1.109828	0.000050
C114	C	0.702376	-0.609828	0.500050
C115	C	0.256082	-1.110913	0.000034
C116	C	0.756082	-0.610913	0.500034
N117	N	0.121962	-1.101664	0.265594
N118	N	0.621962	-0.601664	0.765594
C119	C	0.094899	-0.647135	0.000074
C120	C	0.594899	-0.147135	0.500074
C121	C	0.133816	-0.588932	0.000067
C122	C	0.633816	-0.088932	0.500067
C123	C	0.128235	-0.481810	0.000080
C124	C	0.628235	0.018190	0.500080
C125	C	0.100480	-0.754268	0.000061
C126	C	0.600480	-0.254268	0.500061
N127	N	0.106752	-1.134415	-0.265444
N128	N	0.606752	-0.634415	0.234556
C129	C	0.127936	-1.088813	0.474634
C130	C	0.627936	-0.588813	0.974634
C131	C	0.100779	-1.147264	0.525523
C132	C	0.600779	-0.647264	1.025523
C133	C	0.104104	-1.140113	0.641839
C134	C	0.604104	-0.640113	1.141839
C135	C	0.124612	-1.095962	0.358306
C136	C	0.624612	-0.595962	0.858306
H137	H	-0.035739	-1.281793	0.000130
H138	H	0.464261	-0.781793	0.500130
Br139	Br	0.032384	-0.596098	0.000097
Br140	Br	0.532384	-0.096098	0.500097
Br141	Br	0.058088	-1.240020	0.452544
Br142	Br	0.558088	-0.740020	0.952544
H143	H	0.153681	-1.033404	0.518418
H144	H	0.653681	-0.533404	1.018418
Br145	Br	-0.243656	-0.830737	-0.000007
Br146	Br	0.256344	-0.330737	0.499993
H147	H	-0.269896	-1.363564	0.000096
H148	H	0.230104	-0.863564	0.500096
Br149	Br	-0.376226	-1.408371	0.000086
Br150	Br	0.123774	-0.908371	0.500086
Br151	Br	-0.638776	-1.316726	0.000075
Br152	Br	-0.138776	-0.816726	0.500075
Br153	Br	-0.142075	-1.326610	0.000099
Br154	Br	0.357925	-0.826610	0.500099
H155	H	-0.742921	-1.267725	0.000049
H156	H	-0.242921	-0.767725	0.500049
Br157	Br	0.196335	-0.639966	0.000045
Br158	Br	0.696335	-0.139966	0.500045
H159	H	-0.644006	-0.956102	0.000015
H160	H	-0.144006	-0.456102	0.500015
Br161	Br	-0.748135	-0.907113	0.000028
Br162	Br	-0.248135	-0.407113	0.500028
Br163	Br	-0.513973	-0.825362	-0.000002
Br164	Br	-0.013973	-0.325362	0.499998
Br165	Br	-0.362584	-0.828360	-0.000008
Br166	Br	0.137416	-0.328360	0.499992
H167	H	-0.512821	-1.358722	0.000060
H168	H	-0.012821	-0.858722	0.500060
H169	H	-0.119918	-0.966524	0.000099
H170	H	0.380082	-0.466524	0.500099
H171	H	-0.028365	-0.968354	0.000091
H172	H	0.471635	-0.468354	0.500091
H173	H	-0.409846	-0.874355	0.000014
H174	H	0.090154	-0.374355	0.500014
H175	H	-0.421273	-1.360554	0.000072
H176	H	0.078727	-0.860554	0.500072
