data_functionalizedCrystal
_audit_creation_method	'MofGen! by Chris Wilmer'
_symmetry_space_group_name_H-M	'P1'
_symmetry_Int_Tables_number	1
_symmetry_cell_setting	triclinic
loop_
_symmetry_equiv_pos_as_xyz
  x,y,z
_cell_length_a	19.188933
_cell_length_b	17.038272
_cell_length_c	18.266242
_cell_angle_alpha	89.995358
_cell_angle_beta	90.004209
_cell_angle_gamma	92.871437
loop_
_atom_site_label
_atom_site_type_symbol
_atom_site_fract_x
_atom_site_fract_y
_atom_site_fract_z
O1	O	0.932208	-0.097598	0.060857
O2	O	1.432208	0.402402	0.560857
O3	O	0.729713	-0.110734	0.060864
O4	O	1.229713	0.389266	0.560864
O5	O	0.829757	0.009646	0.060855
O6	O	1.329757	0.509646	0.560855
O7	O	0.832164	-0.217977	0.060866
O8	O	1.332164	0.282023	0.560866
O9	O	0.829746	0.009649	-0.060907
O10	O	1.329746	0.509649	0.439093
O11	O	0.729702	-0.110731	-0.060898
O12	O	1.229702	0.389269	0.439102
O13	O	0.932197	-0.097595	-0.060905
O14	O	1.432197	0.402405	0.439095
Zn15	Zn	0.830947	-0.104163	-0.080234
Zn16	Zn	1.330947	0.395837	0.419766
Zn17	Zn	0.830963	-0.104166	0.080193
Zn18	Zn	1.330963	0.395834	0.580193
O19	O	0.832153	-0.217975	-0.060896
O20	O	1.332153	0.282025	0.439104
C21	C	0.703670	-0.110307	-0.000016
C22	C	1.203670	0.389693	0.499984
C23	C	0.626086	-0.109029	-0.000014
C24	C	1.126086	0.390971	0.499986
C25	C	0.072271	-0.099911	0.066351
C26	C	0.572271	0.400089	0.566351
C27	C	0.145169	-0.101107	0.066353
C28	C	0.645169	0.398893	0.566353
C29	C	0.181617	-0.101707	-0.000019
C30	C	0.681617	0.398293	0.499981
C31	C	0.145162	-0.101091	-0.066399
C32	C	0.645162	0.398909	0.433601
C33	C	0.072265	-0.099887	-0.066400
C34	C	0.572265	0.400113	0.433600
N35	N	0.293513	-0.148077	-0.049420
N36	N	0.793513	0.351923	0.450580
N37	N	0.362762	-0.149223	-0.049415
N38	N	0.862762	0.350777	0.450585
C39	C	0.401251	-0.105332	-0.000020
C40	C	0.901251	0.394668	0.499980
N41	N	0.367875	-0.060263	0.049381
N42	N	0.867875	0.439737	0.549381
N43	N	0.298619	-0.059122	0.049377
N44	N	0.798619	0.440878	0.549377
C45	C	0.260662	-0.103012	-0.000025
C46	C	0.760662	0.396988	0.499975
C47	C	0.516743	-0.107239	0.066359
C48	C	1.016743	0.392761	0.566359
C49	C	0.589643	-0.108430	0.066359
C50	C	1.089643	0.391570	0.566359
C51	C	0.589634	-0.108422	-0.066395
C52	C	1.089634	0.391578	0.433605
C53	C	0.516735	-0.107223	-0.066393
C54	C	1.016735	0.392777	0.433607
C55	C	0.480294	-0.106636	-0.000014
C56	C	0.980294	0.393364	0.499986
C57	C	0.827562	0.038769	-0.000026
C58	C	1.327562	0.538769	0.499974
C59	C	0.821031	0.125541	-0.000025
C60	C	1.321031	0.625541	0.499975
C61	C	0.958240	-0.098022	-0.000023
C62	C	1.458240	0.401978	0.499977
C63	C	1.035824	-0.099300	-0.000021
C64	C	1.535824	0.400700	0.499979
C65	C	0.834348	-0.247097	-0.000013
C66	C	1.334348	0.252903	0.499987
C67	C	0.840879	-0.333870	-0.000009
C68	C	1.340879	0.166130	0.499991
N69	N	0.830942	-0.104160	-0.189721
N70	N	1.330942	0.395840	0.310279
C71	C	0.880997	0.175842	-0.000028
C72	C	1.380997	0.675842	0.499972
C73	C	0.874856	0.257374	-0.000021
C74	C	1.374856	0.757374	0.499979
C75	C	0.808748	0.288602	-0.000016
C76	C	1.308748	0.788602	0.499984
C77	C	0.748777	0.238295	-0.000011
C78	C	1.248777	0.738295	0.499989
C79	C	0.754919	0.156765	-0.000013
C80	C	1.254919	0.656765	0.499987
C81	C	0.787050	0.534293	-0.000006
C82	C	1.287050	1.034293	0.499994
C83	C	0.780913	0.615829	-0.000006
C84	C	1.280913	1.115829	0.499994
C85	C	0.906993	0.634902	-0.000014
C86	C	1.406993	1.134902	0.499986
C87	C	0.913129	0.553370	-0.000021
C88	C	1.413129	1.053370	0.499979
C89	C	0.853158	0.503070	-0.000012
C90	C	1.353158	1.003070	0.499988
C91	C	0.802469	0.371940	-0.000011
C92	C	1.302469	0.871940	0.499989
C93	C	0.859437	0.419733	-0.000012
C94	C	1.359437	0.919733	0.499988
C95	C	0.875275	-0.050874	-0.772002
C96	C	1.375275	0.449126	-0.272002
C97	C	0.875276	-0.050875	-0.695357
C98	C	1.375276	0.449125	-0.195357
C99	C	0.830963	-0.104159	-0.657033
C100	C	1.330963	0.395841	-0.157033
C101	C	0.786659	-0.157459	-0.695361
C102	C	1.286659	0.342541	-0.195361
C103	C	0.786664	-0.157461	-0.772004
C104	C	1.286664	0.342539	-0.272004
N105	N	0.769780	-0.114289	-0.536704
N106	N	1.269780	0.385711	-0.036704
N107	N	0.769777	-0.114282	-0.463896
N108	N	1.269777	0.385718	0.036104
C109	C	0.830946	-0.104158	-0.426111
C110	C	1.330946	0.395842	0.073889
N111	N	0.892119	-0.094024	-0.463884
N112	N	1.392119	0.405976	0.036116
N113	N	0.892121	-0.094027	-0.536699
N114	N	1.392121	0.405973	-0.036699
C115	C	0.830953	-0.104163	-0.573926
C116	C	1.330953	0.395837	-0.073926
C117	C	0.875252	-0.050867	-0.304685
C118	C	1.375252	0.449133	0.195315
C119	C	0.875254	-0.050874	-0.228039
C120	C	1.375254	0.449126	0.271961
C121	C	0.786631	-0.157454	-0.228044
C122	C	1.286631	0.342546	0.271956
C123	C	0.786635	-0.157450	-0.304689
C124	C	1.286635	0.342550	0.195311
C125	C	0.830944	-0.104153	-0.343005
C126	C	1.330944	0.395847	0.156995
N127	N	0.830973	-0.104163	0.189680
N128	N	1.330973	0.395837	0.689680
H129	H	0.042605	-0.099430	0.120402
H130	H	0.542605	0.400570	0.620402
H131	H	0.750588	-0.200856	-0.803203
H132	H	1.250588	0.299144	-0.303203
H133	H	0.487071	-0.106758	0.120409
H134	H	0.987071	0.393242	0.620409
H135	H	0.911334	-0.007471	-0.335884
H136	H	1.411334	0.492529	0.164116
C137	C	0.629735	-0.109093	0.139377
C138	C	1.129735	0.390907	0.639377
N139	N	0.659933	-0.109592	0.194375
N140	N	1.159933	0.390408	0.694375
C141	C	0.737913	-0.216070	-0.653203
C142	C	1.237913	0.283930	-0.153203
N143	N	0.701197	-0.260219	-0.621450
N144	N	1.201197	0.239781	-0.121450
C145	C	0.923992	0.007752	-0.185889
C146	C	1.423992	0.507752	0.314111
N147	N	0.960701	0.051911	-0.154142
N148	N	1.460701	0.551911	0.345858
H149	H	0.750557	-0.200841	-0.335890
H150	H	1.250557	0.299159	0.164110
C151	C	0.185269	-0.101789	0.139370
C152	C	0.685269	0.398211	0.639370
N153	N	0.215469	-0.102306	0.194366
N154	N	0.715469	0.397694	0.694366
C155	C	0.185255	-0.101773	-0.139408
C156	C	0.685255	0.398227	0.360592
N157	N	0.215452	-0.102292	-0.194402
N158	N	0.715452	0.397708	0.305598
H159	H	0.042590	-0.099393	-0.120449
H160	H	0.542590	0.400607	0.379551
H161	H	0.750553	-0.200842	-0.196841
H162	H	1.250553	0.299158	0.303159
C163	C	0.708185	0.650177	0.000005
C164	C	1.208185	1.150177	0.500005
N165	N	0.653410	0.676049	0.000013
N166	N	1.153410	1.176049	0.500013
H167	H	0.619309	-0.108908	-0.120436
H168	H	1.119309	0.391092	0.379564
C169	C	0.688951	0.101433	-0.000012
C170	C	1.188951	0.601433	0.499988
N171	N	0.639261	0.059758	-0.000009
N172	N	1.139261	0.559758	0.499991
H173	H	0.487060	-0.106728	-0.120440
H174	H	0.987060	0.393272	0.379560
C175	C	0.953722	0.141499	-0.000034
C176	C	1.453722	0.641499	0.499966
N177	N	1.008500	0.115635	-0.000034
N178	N	1.508500	0.615635	0.499966
H179	H	0.923687	0.298326	-0.000025
H180	H	1.423687	0.798326	0.499975
H181	H	0.966961	0.527950	-0.000025
H182	H	1.466961	1.027950	0.499975
H183	H	0.694950	0.263727	-0.000003
H184	H	1.194950	0.763727	0.499997
H185	H	0.955817	0.675865	-0.000020
H186	H	1.455817	1.175865	0.499980
H187	H	0.738217	0.493347	0.000001
H188	H	1.238217	0.993347	0.500001
C189	C	0.932154	0.385379	-0.000020
C190	C	1.432154	0.885379	0.499980
N191	N	0.986925	0.359496	-0.000032
N192	N	1.486925	0.859496	0.499968
H193	H	0.748643	0.397376	-0.000009
H194	H	1.248643	0.897376	0.499991
C195	C	0.924007	0.007766	-0.814145
C196	C	1.424007	0.507766	-0.314145
N197	N	0.960708	0.051938	-0.845889
N198	N	1.460708	0.551938	-0.345889
C199	C	0.924009	0.007754	-0.653199
C200	C	1.424009	0.507754	-0.153199
N201	N	0.960713	0.051915	-0.621447
N202	N	1.460713	0.551915	-0.121447
