data_functionalizedCrystal
_audit_creation_method	'MofGen! by Chris Wilmer'
_symmetry_space_group_name_H-M	'P1'
_symmetry_Int_Tables_number	1
_symmetry_cell_setting	triclinic
loop_
_symmetry_equiv_pos_as_xyz
  x,y,z
_cell_length_a	19.288864
_cell_length_b	19.188930
_cell_length_c	18.366186
_cell_angle_alpha	89.988632
_cell_angle_beta	89.977106
_cell_angle_gamma	83.140512
loop_
_atom_site_label
_atom_site_type_symbol
_atom_site_fract_x
_atom_site_fract_y
_atom_site_fract_z
O1	O	0.921359	0.087099	-0.060791
O2	O	1.254693	0.420432	0.272542
O3	O	1.588026	0.753766	0.605875
O4	O	0.719099	0.098849	-0.060743
O5	O	1.052433	0.432182	0.272591
O6	O	1.385766	0.765515	0.605924
O7	O	0.826066	-0.008682	-0.060754
O8	O	1.159400	0.324651	0.272579
O9	O	1.492733	0.657984	0.605913
O10	O	0.814393	0.194630	-0.060780
O11	O	1.147726	0.527963	0.272554
O12	O	1.481059	0.861297	0.605887
O13	O	0.826048	-0.008687	0.060345
O14	O	1.159381	0.324646	0.393679
O15	O	1.492715	0.657979	0.727012
O16	O	0.719081	0.098843	0.060357
O17	O	1.052415	0.432177	0.393690
O18	O	1.385748	0.765510	0.727023
O19	O	0.921341	0.087094	0.060308
O20	O	1.254674	0.420427	0.393641
O21	O	1.588008	0.753761	0.726975
Zn22	Zn	0.820208	0.092968	0.079560
Zn23	Zn	1.153542	0.426301	0.412893
Zn24	Zn	1.486875	0.759634	0.746226
Zn25	Zn	0.820232	0.092975	-0.079994
Zn26	Zn	1.153566	0.426308	0.253339
Zn27	Zn	1.486899	0.759641	0.586673
O28	O	0.814374	0.194625	0.060320
O29	O	1.147708	0.527958	0.393653
O30	O	1.481041	0.861291	0.726986
C31	C	0.693214	0.098468	-0.000186
C32	C	1.026547	0.431801	0.333147
C33	C	1.359881	0.765135	0.666480
C34	C	0.616110	0.097333	-0.000167
C35	C	0.949444	0.430666	0.333166
C36	C	1.282777	0.764000	0.666499
C37	C	0.571419	0.160427	-0.000187
C38	C	0.904752	0.493761	0.333147
C39	C	1.238085	0.827094	0.666480
C40	C	0.498972	0.159361	-0.000195
C41	C	0.832305	0.492694	0.333139
C42	C	1.165638	0.826028	0.666472
C43	C	0.471219	0.095197	-0.000198
C44	C	0.804553	0.428530	0.333136
C45	C	1.137886	0.761864	0.666469
C46	C	0.515921	0.032095	-0.000174
C47	C	0.849254	0.365428	0.333159
C48	C	1.182587	0.698761	0.666493
C49	C	0.588366	0.033163	-0.000159
C50	C	0.921700	0.366496	0.333174
C51	C	1.255033	0.699829	0.666508
C52	C	0.362960	0.044759	-0.042642
C53	C	0.696293	0.378092	0.290691
C54	C	1.029626	0.711426	0.624024
C55	C	0.290515	0.043694	-0.042662
C56	C	0.623849	0.377027	0.290671
C57	C	0.957182	0.710360	0.624005
C58	C	0.247773	0.091900	-0.000241
C59	C	0.581107	0.425234	0.333092
C60	C	0.914440	0.758567	0.666425
C61	C	0.277483	0.141184	0.042190
C62	C	0.610817	0.474518	0.375523
C63	C	0.944150	0.807851	0.708856
C64	C	0.349929	0.142253	0.042205
C65	C	0.683262	0.475586	0.375538
C66	C	1.016596	0.808919	0.708872
C67	C	0.392665	0.094032	-0.000214
C68	C	0.725998	0.427365	0.333120
C69	C	1.059332	0.760699	0.666453
C70	C	0.124526	0.153843	-0.000268
C71	C	0.457859	0.487176	0.333065
C72	C	0.791192	0.820510	0.666398
C73	C	0.052078	0.152774	-0.000272
C74	C	0.385411	0.486107	0.333062
C75	C	0.718744	0.819441	0.666395
C76	C	0.069028	0.025506	-0.000259
C77	C	0.402362	0.358839	0.333075
C78	C	0.735695	0.692172	0.666408
C79	C	0.141475	0.026576	-0.000248
C80	C	0.474808	0.359910	0.333085
C81	C	0.808142	0.693243	0.666419
C82	C	0.169219	0.090747	-0.000256
C83	C	0.502552	0.424080	0.333077
C84	C	0.835886	0.757414	0.666410
C85	C	0.825679	-0.034696	-0.000202
C86	C	1.159012	0.298638	0.333131
C87	C	1.492346	0.631971	0.666464
C88	C	0.824544	-0.112200	-0.000196
C89	C	1.157878	0.221133	0.333138
C90	C	1.491211	0.554466	0.666471
C91	C	0.887309	-0.157129	-0.000207
C92	C	1.220642	0.176204	0.333126
C93	C	1.553975	0.509538	0.666459
C94	C	0.886243	-0.229953	-0.000219
C95	C	1.219576	0.103381	0.333115
C96	C	1.552909	0.436714	0.666448
C97	C	0.822408	-0.257844	-0.000204
C98	C	1.155742	0.075489	0.333129
C99	C	1.489075	0.408822	0.666463
C100	C	0.759636	-0.212906	-0.000196
C101	C	1.092969	0.120427	0.333137
C102	C	1.426302	0.453761	0.666470
C103	C	0.760704	-0.140084	-0.000192
C104	C	1.094037	0.193250	0.333141
C105	C	1.427370	0.526583	0.666474
N106	N	0.773609	-0.365847	0.041020
N107	N	1.106942	-0.032514	0.374354
N108	N	1.440275	0.300819	0.707687
N109	N	0.772598	-0.435026	0.041018
N110	N	1.105932	-0.101693	0.374351
N111	N	1.439265	0.231641	0.707685
C112	C	0.819187	-0.477253	-0.000218
C113	C	1.152520	-0.143919	0.333116
C114	C	1.485854	0.189414	0.666449
N115	N	0.866835	-0.447689	-0.041442
N116	N	1.200168	-0.114356	0.291891
N117	N	1.533501	0.218978	0.625225
N118	N	0.867847	-0.378504	-0.041436
N119	N	1.201180	-0.045171	0.291897
N120	N	1.534514	0.288162	0.625230
C121	C	0.821243	-0.336807	-0.000209
C122	C	1.154577	-0.003473	0.333125
C123	C	1.487910	0.329860	0.666458
C124	C	0.880800	-0.601146	-0.000243
C125	C	1.214133	-0.267813	0.333090
C126	C	1.547467	0.065521	0.666424
C127	C	0.879731	-0.673971	-0.000259
C128	C	1.213065	-0.340637	0.333075
C129	C	1.546398	-0.007304	0.666408
C130	C	0.753122	-0.656922	-0.000229
C131	C	1.086456	-0.323589	0.333104
C132	C	1.419789	0.009745	0.666438
C133	C	0.754193	-0.584099	-0.000220
C134	C	1.087526	-0.250766	0.333113
C135	C	1.420860	0.082568	0.666446
C136	C	0.818034	-0.556216	-0.000224
C137	C	1.151367	-0.222882	0.333109
C138	C	1.484700	0.110451	0.666443
C139	C	0.947227	0.087475	-0.000250
C140	C	1.280560	0.420808	0.333084
C141	C	1.613893	0.754141	0.666417
C142	C	1.024330	0.088609	-0.000274
C143	C	1.357664	0.421943	0.333060
C144	C	1.690997	0.755276	0.666393
C145	C	0.814762	0.220638	-0.000234
C146	C	1.148095	0.553972	0.333100
C147	C	1.481428	0.887305	0.666433
C148	C	0.815896	0.298143	-0.000245
C149	C	1.149230	0.631476	0.333088
C150	C	1.482563	0.964809	0.666422
N151	N	0.820197	0.092963	0.188451
N152	N	1.153530	0.426296	0.521784
N153	N	1.486864	0.759629	0.855117
N154	N	0.820249	0.092974	-0.188885
N155	N	1.153582	0.426308	0.144448
N156	N	1.486916	0.759641	0.477781
C157	C	0.867577	0.045371	0.226546
C158	C	1.200911	0.378705	0.559879
C159	C	1.534244	0.712038	0.893213
C160	C	0.867582	0.045368	0.302774
C161	C	1.200915	0.378701	0.636107
C162	C	1.534249	0.712035	0.969441
C163	C	0.820213	0.092968	0.340903
C164	C	1.153546	0.426302	0.674237
C165	C	1.486879	0.759635	1.007570
C166	C	0.772823	0.140563	0.302799
C167	C	1.106157	0.473897	0.636132
C168	C	1.439490	0.807230	0.969466
C169	C	0.772816	0.140560	0.226573
C170	C	1.106149	0.473894	0.559906
C171	C	1.439482	0.807227	0.893239
C172	C	0.810919	0.156585	0.461657
C173	C	1.144252	0.489919	0.794990
C174	C	1.477586	0.823252	1.128324
C175	C	0.810932	0.156589	0.537882
C176	C	1.144265	0.489922	0.871215
C177	C	1.477598	0.823256	1.204549
C178	C	0.820232	0.092977	0.576011
C179	C	1.153566	0.426310	0.909344
C180	C	1.486899	0.759644	1.242678
C181	C	0.829535	0.029359	0.537906
C182	C	1.162868	0.362692	0.871239
C183	C	1.496202	0.696025	1.204572
C184	C	0.829527	0.029356	0.461679
C185	C	1.162861	0.362689	0.795013
C186	C	1.496194	0.696022	1.128346
C187	C	0.820215	0.092977	0.423558
C188	C	1.153549	0.426310	0.756892
C189	C	1.486882	0.759643	1.090225
C190	C	0.867620	0.045378	0.696761
C191	C	1.200953	0.378712	1.030095
C192	C	1.534287	0.712045	1.363428
C193	C	0.867620	0.045374	0.772990
C194	C	1.200953	0.378708	1.106324
C195	C	1.534286	0.712041	1.439657
C196	C	0.772864	0.140576	0.773014
C197	C	1.106198	0.473909	1.106347
C198	C	1.439531	0.807242	1.439681
C199	C	0.772862	0.140574	0.696786
C200	C	1.106195	0.473907	1.030120
C201	C	1.439528	0.807240	1.363453
C202	C	0.820243	0.092976	0.658664
C203	C	1.153576	0.426309	0.991998
C204	C	1.486910	0.759642	1.325331
H205	H	0.624755	-0.018218	-0.000144
H206	H	0.958088	0.315115	0.333190
H207	H	1.291422	0.648449	0.666523
H208	H	0.906157	0.006613	0.195509
H209	H	1.239490	0.339946	0.528843
H210	H	1.572823	0.673279	0.862176
H211	H	0.707661	-0.235620	-0.000186
H212	H	1.040995	0.097713	0.333147
H213	H	1.374328	0.431047	0.666481
H214	H	0.709591	-0.103502	-0.000183
H215	H	1.042925	0.229831	0.333151
H216	H	1.376258	0.563165	0.666484
H217	H	0.837108	-0.022440	0.568948
H218	H	1.170442	0.310893	0.902282
H219	H	1.503775	0.644226	1.235615
C220	C	0.919703	-0.006983	0.344688
C221	C	1.253037	0.326350	0.678021
C222	C	1.586370	0.659684	1.011354
H223	H	0.947922	-0.035328	0.311066
H224	H	1.281256	0.298005	0.644399
H225	H	1.614589	0.631339	0.977733
H226	H	0.894814	-0.035983	0.374446
H227	H	1.228147	0.297350	0.707780
H228	H	1.561481	0.630683	1.041113
H229	H	0.948540	0.018070	0.374399
H230	H	1.281873	0.351404	0.707733
H231	H	1.615207	0.684737	1.041066
C232	C	0.682906	-0.687594	-0.000215
C233	C	1.016239	-0.354261	0.333118
C234	C	1.349572	-0.020928	0.666452
H235	H	0.691258	-0.737400	-0.000216
H236	H	1.024591	-0.404067	0.333117
H237	H	1.357925	-0.070733	0.666451
H238	H	0.657078	-0.672147	-0.042438
H239	H	0.990411	-0.338813	0.290895
H240	H	1.323744	-0.005480	0.624229
H241	H	0.657065	-0.672169	0.042027
H242	H	0.990399	-0.338836	0.375361
H243	H	1.323732	-0.005503	0.708694
H244	H	0.803333	0.208389	0.430619
H245	H	1.136667	0.541722	0.763952
H246	H	1.470000	0.875056	1.097286
C247	C	0.951020	-0.570470	-0.000255
C248	C	1.284353	-0.237137	0.333078
C249	C	1.617687	0.096196	0.666412
H250	H	0.988249	-0.607661	-0.000274
H251	H	1.321583	-0.274328	0.333059
H252	H	1.654916	0.059005	0.666392
H253	H	0.954063	-0.542428	0.041977
H254	H	1.287397	-0.209095	0.375311
H255	H	1.620730	0.124238	0.708644
H256	H	0.954073	-0.542406	-0.042488
H257	H	1.287407	-0.209072	0.290845
H258	H	1.620740	0.124261	0.624179
C259	C	0.685153	-0.534672	-0.000203
C260	C	1.018486	-0.201339	0.333130
C261	C	1.351820	0.131994	0.666464
H262	H	0.694931	-0.487308	-0.000209
H263	H	1.028264	-0.153975	0.333124
H264	H	1.361598	0.179359	0.666458
H265	H	0.658958	-0.543112	0.042030
H266	H	0.992291	-0.209779	0.375364
H267	H	1.325625	0.123554	0.708697
H268	H	0.658979	-0.543097	-0.042435
H269	H	0.992312	-0.209764	0.290898
H270	H	1.325646	0.123570	0.624232
H271	H	0.266331	0.003566	-0.077215
H272	H	0.599664	0.336900	0.256119
H273	H	0.932998	0.670233	0.589452
C274	C	0.948776	-0.723393	-0.000270
C275	C	1.282109	-0.390060	0.333063
C276	C	1.615443	-0.056726	0.666396
H277	H	0.986947	-0.696353	-0.000265
H278	H	1.320280	-0.363020	0.333069
H279	H	1.653614	-0.029687	0.666402
H280	H	0.951004	-0.752146	-0.042503
H281	H	1.284337	-0.418812	0.290831
H282	H	1.617670	-0.085479	0.624164
H283	H	0.950978	-0.752164	0.041963
H284	H	1.284311	-0.418831	0.375296
H285	H	1.617645	-0.085497	0.708629
H286	H	0.242684	0.180439	0.076733
H287	H	0.576017	0.513772	0.410067
H288	H	0.909351	0.847105	0.743400
C289	C	0.190638	-0.042828	-0.000238
C290	C	0.523971	0.290505	0.333096
C291	C	0.857304	0.623839	0.666429
H292	H	0.163736	-0.081196	-0.000247
H293	H	0.497069	0.252138	0.333086
H294	H	0.830402	0.585471	0.666420
H295	H	0.219229	-0.045061	0.041997
H296	H	0.552563	0.288273	0.375330
H297	H	0.885896	0.621606	0.708664
H298	H	0.219272	-0.045052	-0.042469
H299	H	0.552605	0.288281	0.290865
H300	H	0.885939	0.621615	0.624198
C301	C	0.720759	0.192935	0.814947
C302	C	1.054092	0.526268	1.148281
C303	C	1.387425	0.859602	1.481614
H304	H	0.727551	0.186124	0.865802
H305	H	1.060884	0.519457	1.199135
H306	H	1.394217	0.852790	1.532469
H307	H	0.674427	0.185472	0.802481
H308	H	1.007760	0.518805	1.135814
H309	H	1.341093	0.852138	1.469147
H310	H	0.728162	0.239516	0.802440
H311	H	1.061495	0.572850	1.135773
H312	H	1.394828	0.906183	1.469106
C313	C	0.919729	-0.006983	0.654824
C314	C	1.253062	0.326351	0.988157
C315	C	1.586396	0.659684	1.321491
H316	H	0.947941	-0.035336	0.688433
H317	H	1.281275	0.297998	1.021766
H318	H	1.614608	0.631331	1.355100
H319	H	0.948563	0.018057	0.625067
H320	H	1.281896	0.351390	0.958400
H321	H	1.615229	0.684724	1.291734
H322	H	0.894825	-0.035985	0.625109
H323	H	1.228159	0.297348	0.958442
H324	H	1.561492	0.630682	1.291775
C325	C	0.957531	-0.126460	-0.000224
C326	C	1.290864	0.206873	0.333109
C327	C	1.624197	0.540206	0.666443
H328	H	0.994758	-0.163653	-0.000240
H329	H	1.328092	0.169681	0.333093
H330	H	1.661425	0.503014	0.666427
H331	H	0.960576	-0.098413	0.042004
H332	H	1.293910	0.234920	0.375337
H333	H	1.627243	0.568253	0.708671
H334	H	0.960583	-0.098401	-0.042461
H335	H	1.293916	0.234932	0.290872
H336	H	1.627250	0.568265	0.624205
C337	C	0.955286	-0.279383	-0.000226
C338	C	1.288619	0.053950	0.333107
C339	C	1.621953	0.387284	0.666440
H340	H	0.993459	-0.252346	-0.000223
H341	H	1.326793	0.080987	0.333110
H342	H	1.660126	0.414320	0.666443
H343	H	0.957512	-0.308139	-0.042456
H344	H	1.290845	0.025194	0.290877
H345	H	1.624179	0.358527	0.624211
H346	H	0.957486	-0.308150	0.042009
H347	H	1.290820	0.025183	0.375343
H348	H	1.624153	0.358516	0.708676
C349	C	0.155048	0.224426	-0.000270
C350	C	0.488381	0.557759	0.333063
C351	C	0.821714	0.891092	0.666397
H352	H	0.118052	0.261851	-0.000272
H353	H	0.451385	0.595185	0.333061
H354	H	0.784719	0.928518	0.666394
H355	H	0.182978	0.227491	-0.042496
H356	H	0.516311	0.560824	0.290837
H357	H	0.849645	0.894157	0.624171
H358	H	0.182934	0.227485	0.041969
H359	H	0.516268	0.560818	0.375303
H360	H	0.849601	0.894151	0.708636
H361	H	0.837100	-0.022445	0.430657
H362	H	1.170434	0.310889	0.763990
H363	H	1.503767	0.644222	1.097323
C364	C	0.919742	-0.006978	0.814896
C365	C	1.253075	0.326356	1.148229
C366	C	1.586409	0.659689	1.481562
H367	H	0.947962	-0.035318	0.781271
H368	H	1.281295	0.298015	1.114605
H369	H	1.614628	0.631348	1.447938
H370	H	0.894855	-0.035982	0.844652
H371	H	1.228188	0.297351	1.177985
H372	H	1.561522	0.630685	1.511319
H373	H	0.948577	0.018075	0.844609
H374	H	1.281911	0.351408	1.177943
H375	H	1.615244	0.684742	1.511276
C376	C	0.720750	0.192932	0.654879
C377	C	1.054083	0.526266	0.988213
C378	C	1.387417	0.859599	1.321546
H379	H	0.692542	0.221286	0.688503
H380	H	1.025876	0.554619	1.021837
H381	H	1.359209	0.887952	1.355170
H382	H	0.691912	0.167891	0.625163
H383	H	1.025246	0.501224	0.958497
H384	H	1.358579	0.834558	1.291830
H385	H	0.745649	0.221934	0.625125
H386	H	1.078982	0.555267	0.958459
H387	H	1.412316	0.888601	1.291792
C388	C	0.800700	0.226563	0.579795
C389	C	1.134033	0.559896	0.913128
C390	C	1.467367	0.893230	1.246461
H391	H	0.802045	0.217456	0.630653
H392	H	1.135379	0.550789	0.963986
H393	H	1.468712	0.884122	1.297319
H394	H	0.756815	0.251569	0.567321
H395	H	1.090148	0.584902	0.900654
H396	H	1.423481	0.918235	1.233987
H397	H	0.836940	0.253832	0.567274
H398	H	1.170273	0.587165	0.900607
H399	H	1.503606	0.920498	1.233941
H400	H	0.734253	0.179319	0.333848
H401	H	1.067587	0.512652	0.667181
H402	H	1.400920	0.845986	1.000515
H403	H	0.734232	0.179316	0.195555
H404	H	1.067565	0.512649	0.528888
H405	H	1.400899	0.845982	0.862221
H406	H	0.594003	0.212680	-0.000195
H407	H	0.927336	0.546013	0.333139
H408	H	1.260670	0.879347	0.666472
H409	H	0.462577	0.210742	-0.000208
H410	H	0.795910	0.544075	0.333125
H411	H	1.129243	0.877408	0.666458
H412	H	0.374116	0.182379	0.076756
H413	H	0.707449	0.515712	0.410089
H414	H	1.040783	0.849046	0.743423
H415	H	0.015690	0.204155	-0.000283
H416	H	0.349023	0.537488	0.333050
H417	H	0.682356	0.870822	0.666383
H418	H	0.397755	0.005502	-0.077191
H419	H	0.731089	0.338835	0.256143
H420	H	1.064422	0.672168	0.589476
C421	C	0.038509	-0.045074	-0.000266
C422	C	0.371843	0.288260	0.333067
C423	C	0.705176	0.621593	0.666400
H424	H	-0.011038	-0.036674	-0.000283
H425	H	0.322296	0.296659	0.333050
H426	H	0.655629	0.629992	0.666383
H427	H	0.053840	-0.071050	0.041966
H428	H	0.387174	0.262283	0.375300
H429	H	0.720507	0.595617	0.708633
H430	H	0.053888	-0.071037	-0.042499
H431	H	0.387221	0.262297	0.290834
H432	H	0.720555	0.595630	0.624168
H433	H	0.493320	-0.020148	-0.000187
H434	H	0.826653	0.313185	0.333147
H435	H	1.159987	0.646518	0.666480
