data_functionalizedCrystal
_audit_creation_method	'MofGen! by Chris Wilmer'
_symmetry_space_group_name_H-M	'P1'
_symmetry_Int_Tables_number	1
_symmetry_cell_setting	triclinic
loop_
_symmetry_equiv_pos_as_xyz
  x,y,z
_cell_length_a	14.971506
_cell_length_b	10.540510
_cell_length_c	14.048226
_cell_angle_alpha	89.996066
_cell_angle_beta	89.993237
_cell_angle_gamma	84.067849
loop_
_atom_site_label
_atom_site_type_symbol
_atom_site_fract_x
_atom_site_fract_y
_atom_site_fract_z
O1	O	1.187856	0.165548	-0.079162
O2	O	0.927568	0.185331	-0.079162
O3	O	1.063664	-0.009337	-0.079162
O4	O	1.051760	0.360215	-0.079162
O5	O	1.063648	-0.009348	0.079160
O6	O	0.927552	0.185319	0.079159
O7	O	1.187840	0.165536	0.079159
Zn8	Zn	1.057693	0.175426	0.104296
Zn9	Zn	1.057715	0.175441	-0.104299
O10	O	1.051743	0.360204	0.079159
C11	C	0.894231	0.184436	-0.000001
C12	C	0.794920	0.181771	-0.000001
C13	C	0.357217	0.285964	-0.000011
C14	C	0.450531	0.288458	-0.000015
C15	C	0.507115	0.174083	-0.000011
C16	C	0.470380	0.057207	-0.000012
C17	C	0.377068	0.054714	-0.000015
C18	C	0.664872	0.062411	-0.000004
C19	C	0.758191	0.064903	0.000000
C20	C	0.738335	0.296155	-0.000005
C21	C	0.645023	0.293662	-0.000007
C22	C	0.608295	0.176785	-0.000007
C23	C	1.062769	-0.056636	-0.000003
C24	C	1.060115	-0.197556	-0.000009
C25	C	1.154660	-0.416075	0.000354
C26	C	1.157491	-0.269511	-0.000008
C27	C	1.010277	-0.241748	-0.090416
C28	C	1.008136	-0.388484	-0.090487
C29	C	1.006089	-0.388283	0.089554
C30	C	1.010708	-0.241994	0.090744
C31	C	1.221177	0.166431	-0.000003
C32	C	1.320488	0.169096	-0.000010
C33	C	1.052639	0.407503	-0.000002
C34	C	1.055293	0.548423	-0.000002
N35	N	1.057685	0.175415	0.246657
N36	N	1.057730	0.175442	-0.246660
C37	C	1.117967	0.089252	0.296475
C38	C	1.117973	0.089251	0.396133
C39	C	1.057700	0.175420	0.445971
C40	C	0.997411	0.261588	0.396145
C41	C	0.997402	0.261581	0.296490
C42	C	0.997437	0.261597	0.603860
C43	C	0.997448	0.261605	0.703522
C44	C	1.118009	0.089267	0.703503
C45	C	1.117999	0.089260	0.603847
C46	C	1.057711	0.175429	0.554029
H47	H	0.347166	-0.040451	-0.000015
C48	C	1.184299	-0.005523	0.549020
C49	C	1.253001	0.044250	0.480486
C50	C	1.319298	-0.050536	0.425658
C51	C	1.316894	-0.195094	0.439364
C52	C	1.248190	-0.244874	0.507902
C53	C	1.181892	-0.150089	0.562730
H54	H	1.254783	0.151268	0.470337
H55	H	1.370158	-0.013684	0.374922
H56	H	1.365972	-0.265260	0.398777
H57	H	1.246407	-0.351892	0.518050
H58	H	1.131032	-0.186940	0.613466
H59	H	1.167097	0.019105	0.744071
C60	C	0.909750	-0.418455	-0.096045
C61	C	0.833380	-0.308912	-0.100409
C62	C	0.734997	-0.338876	-0.105975
C63	C	0.712985	-0.478384	-0.107177
C64	C	0.789357	-0.587937	-0.102812
C65	C	0.887740	-0.557972	-0.097246
H66	H	0.849673	-0.205631	-0.099519
H67	H	0.678462	-0.257777	-0.109206
H68	H	0.640156	-0.500565	-0.111297
H69	H	0.773064	-0.691217	-0.103702
H70	H	0.944275	-0.639071	-0.094016
C71	C	0.490923	0.417021	-0.000008
C72	C	0.469887	0.512047	0.082211
C73	C	0.510275	0.640619	0.082219
C74	C	0.571698	0.674165	0.000010
C75	C	0.592737	0.579136	-0.082215
C76	C	0.552350	0.450564	-0.082224
H77	H	0.424415	0.487217	0.143073
H78	H	0.494700	0.710965	0.143088
H79	H	0.601595	0.769341	0.000016
H80	H	0.638209	0.603966	-0.143077
H81	H	0.567925	0.380218	-0.143092
C82	C	1.210183	-0.230459	0.087531
C83	C	1.249973	-0.332730	0.158257
C84	C	1.302675	-0.293688	0.245794
C85	C	1.315589	-0.152374	0.262604
C86	C	1.275798	-0.050094	0.191876
C87	C	1.223096	-0.089136	0.104339
H88	H	1.240415	-0.437347	0.145815
H89	H	1.332131	-0.369403	0.298152
H90	H	1.354602	-0.123473	0.327404
H91	H	1.285356	0.054523	0.204318
H92	H	1.193640	-0.013421	0.051981
C93	C	0.913434	-0.176636	-0.094965
C94	C	0.847091	-0.196249	-0.013806
C95	C	0.750249	-0.131135	-0.018351
C96	C	0.719750	-0.046408	-0.104056
C97	C	0.786094	-0.026791	-0.185222
C98	C	0.882936	-0.091905	-0.180677
H99	H	0.869667	-0.258973	0.049644
H100	H	0.701136	-0.145657	0.041734
H101	H	0.648061	0.001794	-0.107421
H102	H	0.763518	0.035933	-0.248672
H103	H	0.932049	-0.077383	-0.240762
H104	H	0.948366	0.331772	0.744095
H105	H	0.768243	0.391320	-0.000005
H106	H	0.598953	0.386796	-0.000005
H107	H	1.167059	0.019090	0.436694
H108	H	0.804261	-0.028231	-0.000004
H109	H	0.634973	-0.032763	-0.000008
C110	C	1.054174	-0.443336	-0.181776
C111	C	1.061764	-0.587944	-0.200736
C112	C	1.107806	-0.642789	-0.292027
C113	C	1.146258	-0.553027	-0.364357
C114	C	1.138670	-0.408411	-0.345399
C115	C	1.092627	-0.353566	-0.254109
H116	H	1.033298	-0.654399	-0.147192
H117	H	1.113423	-0.749843	-0.306060
H118	H	1.180342	-0.593626	-0.431935
H119	H	1.167135	-0.341956	-0.398944
H120	H	1.087010	-0.246511	-0.240075
C121	C	0.931091	0.356365	0.241686
C122	C	0.864823	0.451195	0.296503
C123	C	0.798507	0.545978	0.241701
C124	C	0.798459	0.545930	0.132084
C125	C	0.864729	0.451096	0.077261
C126	C	0.931045	0.356314	0.132063
H127	H	0.864856	0.451234	0.377653
H128	H	0.749449	0.616180	0.282285
H129	H	0.749367	0.616094	0.091516
H130	H	0.864696	0.451058	-0.003890
H131	H	0.980103	0.286112	0.091479
H132	H	0.932978	-0.409611	0.090163
H133	H	0.311151	0.379101	-0.000008
H134	H	0.516459	-0.035919	-0.000014
C135	C	1.047656	-0.446084	0.182132
C136	C	1.126817	-0.551514	0.177589
C137	C	1.168395	-0.609318	0.270160
C138	C	1.130813	-0.561691	0.367274
C139	C	1.051648	-0.456255	0.371821
C140	C	1.010069	-0.398451	0.279250
H141	H	1.154642	-0.586776	0.105696
H142	H	1.226999	-0.687369	0.266794
H143	H	1.161592	-0.604480	0.435801
H144	H	1.023823	-0.420993	0.443714
H145	H	0.951466	-0.320400	0.282616
H146	H	0.948331	0.331744	0.436729
H147	H	1.192590	-0.458461	0.065190
H148	H	0.948341	0.331761	0.563301
H149	H	1.192385	-0.460000	-0.064115
H150	H	1.044901	-0.211275	-0.157697
C151	C	1.210482	-0.231710	-0.087717
C152	C	1.250348	-0.334950	-0.157651
C153	C	1.303336	-0.297150	-0.245368
C154	C	1.316457	-0.156110	-0.263151
C155	C	1.276590	-0.052861	-0.193214
C156	C	1.223603	-0.090661	-0.105497
H157	H	1.240636	-0.439365	-0.144489
H158	H	1.332848	-0.373583	-0.297139
H159	H	1.355682	-0.128128	-0.328084
H160	H	1.286303	0.051554	-0.206376
H161	H	1.194091	-0.014229	-0.053726
H162	H	1.046971	-0.213795	0.157627
H163	H	1.167052	0.019088	0.255904
H164	H	0.939615	-0.192128	0.096204
