data_functionalizedCrystal
_audit_creation_method	'MofGen! by Chris Wilmer'
_symmetry_space_group_name_H-M	'P1'
_symmetry_Int_Tables_number	1
_symmetry_cell_setting	triclinic
loop_
_symmetry_equiv_pos_as_xyz
  x,y,z
_cell_length_a	13.897449
_cell_length_b	13.897447
_cell_length_c	13.897441
_cell_angle_alpha	90.029327
_cell_angle_beta	90.023394
_cell_angle_gamma	90.020357
loop_
_atom_site_label
_atom_site_type_symbol
_atom_site_fract_x
_atom_site_fract_y
_atom_site_fract_z
Zn1	Zn	1.474690	-0.383963	0.545458
Zn2	Zn	1.808024	-0.050629	0.878792
Zn3	Zn	2.141357	0.282704	1.212125
Zn4	Zn	1.474579	-0.545285	0.384163
Zn5	Zn	1.807912	-0.211951	0.717496
Zn6	Zn	2.141246	0.121382	1.050830
Zn7	Zn	1.313379	-0.384007	0.384169
Zn8	Zn	1.646713	-0.050674	0.717502
Zn9	Zn	1.980046	0.282659	1.050836
Zn10	Zn	1.313356	-0.545220	0.545408
Zn11	Zn	1.646689	-0.211887	0.878742
Zn12	Zn	1.980023	0.121447	1.212075
O13	O	1.394001	-0.464619	0.464800
O14	O	1.727335	-0.131285	0.798133
O15	O	2.060668	0.202048	1.131466
O16	O	1.609657	-0.405371	0.524080
O17	O	1.942991	-0.072038	0.857414
O18	O	2.276324	0.261296	1.190747
O19	O	1.453159	-0.523937	0.249182
O20	O	1.786492	-0.190603	0.582516
O21	O	2.119826	0.142730	0.915849
O22	O	1.334834	-0.249020	0.405588
O23	O	1.668167	0.084313	0.738921
O24	O	2.001501	0.417647	1.072254
O25	O	1.609576	-0.523893	0.405578
O26	O	1.942909	-0.190560	0.738911
O27	O	2.276242	0.142773	1.072244
O28	O	1.453348	-0.248987	0.524086
O29	O	1.786682	0.084346	0.857420
O30	O	2.120015	0.417680	1.190753
O31	O	1.334726	-0.405447	0.249187
O32	O	1.668060	-0.072114	0.582520
O33	O	2.001393	0.261220	0.915853
O34	O	1.178395	-0.405384	0.405539
O35	O	1.511728	-0.072051	0.738873
O36	O	1.845061	0.261282	1.072206
O37	O	1.334794	-0.523783	0.680397
O38	O	1.668127	-0.190450	1.013730
O39	O	2.001461	0.142884	1.347063
O40	O	1.178378	-0.523826	0.524001
O41	O	1.511711	-0.190493	0.857334
O42	O	1.845044	0.142840	1.190668
O43	O	1.453326	-0.405308	0.680433
O44	O	1.786659	-0.071975	1.013767
O45	O	2.119992	0.261358	1.347100
O46	O	1.453136	-0.680258	0.405529
O47	O	1.786470	-0.346924	0.738863
O48	O	2.119803	-0.013591	1.072196
O49	O	1.334686	-0.680210	0.523995
O50	O	1.668020	-0.346877	0.857329
O51	O	2.001353	-0.013543	1.190662
C52	C	1.143387	-0.464604	0.464766
C53	C	1.476720	-0.131271	0.798099
C54	C	1.810054	0.202063	1.131433
C55	C	1.036173	-0.464621	0.464775
C56	C	1.369506	-0.131287	0.798108
C57	C	1.702840	0.202046	1.131441
C58	C	1.393923	-0.715233	0.464777
C59	C	1.727256	-0.381900	0.798111
C60	C	2.060589	-0.048566	1.131444
C61	C	1.393978	-0.822447	0.464800
C62	C	1.727311	-0.489114	0.798133
C63	C	2.060644	-0.155780	1.131467
C64	C	0.949103	-0.464624	0.464791
C65	C	1.282437	-0.131291	0.798124
C66	C	1.615770	0.202043	1.131457
C67	C	0.839871	-0.464631	0.464820
C68	C	1.173204	-0.131297	0.798153
C69	C	1.506537	0.202036	1.131487
C70	C	1.394024	-0.909517	0.464822
C71	C	1.727357	-0.576183	0.798155
C72	C	2.060691	-0.242850	1.131489
C73	C	1.394092	-1.018749	0.464847
C74	C	1.727425	-0.685416	0.798180
C75	C	2.060758	-0.352082	1.131513
C76	C	1.645594	-0.464634	0.464834
C77	C	1.978928	-0.131301	0.798167
C78	C	2.312261	0.202032	1.131501
C79	C	1.752808	-0.464641	0.464849
C80	C	2.086141	-0.131308	0.798182
C81	C	2.419475	0.202026	1.131515
C82	C	1.394070	-0.464533	0.716393
C83	C	1.727403	-0.131200	1.049726
C84	C	2.060736	0.202133	1.383059
C85	C	1.394099	-0.464497	0.823607
C86	C	1.727432	-0.131164	1.156940
C87	C	2.060765	0.202170	1.490273
C88	C	1.394106	-0.213026	0.464843
C89	C	1.727440	0.120308	0.798177
C90	C	2.060773	0.453641	1.131510
C91	C	1.394151	-0.105812	0.464862
C92	C	1.727484	0.227522	0.798195
C93	C	2.060818	0.560855	1.131528
C94	C	1.393989	-0.464634	0.214185
C95	C	1.727322	-0.131301	0.547519
C96	C	2.060655	0.202033	0.880852
C97	C	1.394146	-0.464399	0.106972
C98	C	1.727480	-0.131065	0.440305
C99	C	2.060813	0.202268	0.773639
C100	C	1.394125	-0.464432	1.019902
C101	C	1.727458	-0.131099	1.353235
C102	C	2.060792	0.202235	1.686569
C103	C	1.394107	-0.464471	0.910669
C104	C	1.727441	-0.131137	1.244003
C105	C	2.060774	0.202196	1.577336
