data_functionalizedCrystal
_audit_creation_method	'MofGen! by Chris Wilmer'
_symmetry_space_group_name_H-M	'P1'
_symmetry_Int_Tables_number	1
_symmetry_cell_setting	triclinic
loop_
_symmetry_equiv_pos_as_xyz
  x,y,z
_cell_length_a	25.639239
_cell_length_b	21.295420
_cell_length_c	21.295411
_cell_angle_alpha	90.025759
_cell_angle_beta	89.980474
_cell_angle_gamma	89.967272
loop_
_atom_site_label
_atom_site_type_symbol
_atom_site_fract_x
_atom_site_fract_y
_atom_site_fract_z
Zn1	Zn	-0.208293	-0.962319	-0.355941
Zn2	Zn	0.125040	-0.628986	-0.022607
Zn3	Zn	0.458373	-0.295653	0.310726
Zn4	Zn	-0.295713	-0.962207	-0.250670
Zn5	Zn	0.037620	-0.628874	0.082663
Zn6	Zn	0.370953	-0.295540	0.415997
Zn7	Zn	-0.208285	-0.857043	-0.250684
Zn8	Zn	0.125049	-0.523709	0.082650
Zn9	Zn	0.458382	-0.190376	0.415983
Zn10	Zn	-0.295691	-0.856997	-0.355900
Zn11	Zn	0.037643	-0.523664	-0.022566
Zn12	Zn	0.370976	-0.190330	0.310767
O13	O	-0.251996	-0.909642	-0.303298
O14	O	0.081338	-0.576308	0.030035
O15	O	0.414671	-0.242975	0.363368
O16	O	-0.219903	-1.050394	-0.341988
O17	O	0.113430	-0.717061	-0.008655
O18	O	0.446764	-0.383727	0.324679
O19	O	-0.284122	-0.948229	-0.162582
O20	O	0.049212	-0.614895	0.170751
O21	O	0.382545	-0.281562	0.504084
O22	O	-0.135121	-0.871074	-0.264669
O23	O	0.198213	-0.537741	0.068664
O24	O	0.531546	-0.204407	0.401998
O25	O	-0.284130	-1.050311	-0.264646
O26	O	0.049203	-0.716978	0.068687
O27	O	0.382536	-0.383645	0.402021
O28	O	-0.135127	-0.948421	-0.342001
O29	O	0.198206	-0.615087	-0.008668
O30	O	0.531540	-0.281754	0.324666
O31	O	-0.219888	-0.870965	-0.162592
O32	O	0.113445	-0.537632	0.170741
O33	O	0.446778	-0.204298	0.504074
O34	O	-0.219866	-0.768947	-0.264629
O35	O	0.113467	-0.435614	0.068704
O36	O	0.446801	-0.102281	0.402038
O37	O	-0.284091	-0.870996	-0.443994
O38	O	0.049242	-0.537663	-0.110661
O39	O	0.382575	-0.204330	0.222672
O40	O	-0.284083	-0.768914	-0.341931
O41	O	0.049250	-0.435580	-0.008598
O42	O	0.382584	-0.102247	0.324736
O43	O	-0.219881	-0.948376	-0.444025
O44	O	0.113452	-0.615043	-0.110691
O45	O	0.446786	-0.281710	0.222642
O46	O	-0.368876	-0.948184	-0.264606
O47	O	-0.035542	-0.614851	0.068727
O48	O	0.297791	-0.281518	0.402061
O49	O	-0.368859	-0.870887	-0.341918
O50	O	-0.035526	-0.537554	-0.008584
O51	O	0.297808	-0.204221	0.324749
C52	C	-0.251971	-0.746090	-0.303277
C53	C	0.081362	-0.412757	0.030056
C54	C	0.414695	-0.079423	0.363389
C55	C	-0.251974	-0.676122	-0.303283
C56	C	0.081360	-0.342789	0.030050
C57	C	0.414693	-0.009455	0.363383
C58	C	-0.218613	-0.176706	-0.343630
C59	C	0.114720	0.156627	-0.010297
C60	C	0.448054	0.489960	0.323036
C61	C	-0.218611	-0.242449	-0.343632
C62	C	0.114723	0.090885	-0.010298
C63	C	0.448056	0.424218	0.323035
C64	C	-0.251995	-0.275282	-0.303300
C65	C	0.081338	0.058051	0.030033
C66	C	0.414671	0.391384	0.363366
C67	C	-0.285395	-0.242368	-0.262976
C68	C	0.047939	0.090965	0.070357
C69	C	0.381272	0.424299	0.403691
C70	C	-0.285400	-0.176627	-0.262980
C71	C	0.047934	0.156707	0.070353
C72	C	0.381267	0.490040	0.403686
N73	N	-0.255931	-0.378472	-0.248183
N74	N	0.077402	-0.045138	0.085151
N75	N	0.410735	0.288195	0.418484
N76	N	-0.255924	-0.440923	-0.248180
N77	N	0.077410	-0.107590	0.085153
N78	N	0.410743	0.225744	0.418486
C79	C	-0.251983	-0.473357	-0.303286
C80	C	0.081350	-0.140024	0.030048
C81	C	0.414683	0.193310	0.363381
N82	N	-0.248041	-0.440981	-0.358395
N83	N	0.085293	-0.107647	-0.025061
N84	N	0.418626	0.225686	0.308272
N85	N	-0.248046	-0.378523	-0.358396
N86	N	0.085287	-0.045190	-0.025063
N87	N	0.418621	0.288143	0.308270
C88	C	-0.251994	-0.346568	-0.303291
C89	C	0.081339	-0.013234	0.030042
C90	C	0.414673	0.320099	0.363375
C91	C	-0.218587	-0.577549	-0.343612
C92	C	0.114747	-0.244216	-0.010279
C93	C	0.448080	0.089118	0.323055
C94	C	-0.218588	-0.643293	-0.343614
C95	C	0.114745	-0.309959	-0.010281
C96	C	0.448079	0.023374	0.323052
C97	C	-0.285369	-0.643211	-0.262953
C98	C	0.047964	-0.309877	0.070380
C99	C	0.381298	0.023456	0.403714
C100	C	-0.285370	-0.577468	-0.262956
C101	C	0.047963	-0.244135	0.070377
C102	C	0.381296	0.089198	0.403710
C103	C	-0.251976	-0.544641	-0.303285
C104	C	0.081357	-0.211308	0.030048
C105	C	0.414690	0.122025	0.363382
C106	C	-0.387838	-0.909536	-0.303270
C107	C	-0.054505	-0.576202	0.030064
C108	C	0.278829	-0.242869	0.363397
C109	C	-0.445952	-0.909548	-0.303278
C110	C	-0.112619	-0.576215	0.030055
C111	C	0.220714	-0.242881	0.363388
C112	C	-0.806311	-0.949995	-0.263111
C113	C	-0.472978	-0.616662	0.070222
C114	C	-0.139645	-0.283329	0.403556
C115	C	-0.860916	-0.950020	-0.263119
C116	C	-0.527582	-0.616686	0.070214
C117	C	-0.194249	-0.283353	0.403547
O118	O	-0.889149	-0.984300	-0.228936
O119	O	-0.555816	-0.650966	0.104397
O120	O	-0.222483	-0.317633	0.437731
N121	N	-0.888235	-0.909752	-0.303340
N122	N	-0.554901	-0.576419	0.029993
N123	N	-0.221568	-0.243086	0.363326
C124	C	-0.860946	-0.869462	-0.343560
C125	C	-0.527613	-0.536129	-0.010226
C126	C	-0.194280	-0.202796	0.323107
O127	O	-0.889197	-0.835214	-0.377772
O128	O	-0.555864	-0.501881	-0.044439
O129	O	-0.222531	-0.168548	0.288895
C130	C	-0.806343	-0.869441	-0.343554
C131	C	-0.473010	-0.536108	-0.010221
C132	C	-0.139676	-0.202775	0.323113
C133	C	-0.779027	-0.909707	-0.303326
C134	C	-0.445694	-0.576374	0.030007
C135	C	-0.112360	-0.243040	0.363341
C136	C	-0.778995	-0.990258	-0.222887
C137	C	-0.445662	-0.656925	0.110447
C138	C	-0.112329	-0.323591	0.443780
C139	C	-0.724395	-0.990233	-0.222878
C140	C	-0.391061	-0.656899	0.110456
C141	C	-0.057728	-0.323566	0.443789
C142	C	-0.697110	-0.949944	-0.263093
C143	C	-0.363777	-0.616611	0.070241
C144	C	-0.030444	-0.283278	0.403574
C145	C	-0.724426	-0.909682	-0.303317
C146	C	-0.391093	-0.576348	0.030016
C147	C	-0.057760	-0.243015	0.363350
C148	C	-0.779056	-0.829155	-0.383776
C149	C	-0.445723	-0.495822	-0.050443
C150	C	-0.112389	-0.162489	0.282890
C151	C	-0.724449	-0.829138	-0.383768
C152	C	-0.391115	-0.495805	-0.050434
C153	C	-0.057782	-0.162472	0.282899
C154	C	-0.697133	-0.869404	-0.343540
C155	C	-0.363799	-0.536070	-0.010206
C156	C	-0.030466	-0.202737	0.323127
C157	C	-0.642542	-0.869368	-0.343523
C158	C	-0.309208	-0.536035	-0.010190
C159	C	0.024125	-0.202701	0.323144
N160	N	-0.615223	-0.909636	-0.303302
N161	N	-0.281889	-0.576302	0.030031
N162	N	0.051444	-0.242969	0.363365
C163	C	-0.642507	-0.949924	-0.263087
C164	C	-0.309174	-0.616590	0.070246
C165	C	0.024160	-0.283257	0.403580
C166	C	-0.975617	-0.869510	-0.343569
C167	C	-0.642284	-0.536176	-0.010236
C168	C	-0.308950	-0.202843	0.323097
C169	C	-1.030219	-0.869527	-0.343573
C170	C	-0.696886	-0.536193	-0.010239
C171	C	-0.363553	-0.202860	0.323094
C172	C	-1.030185	-0.950085	-0.263133
C173	C	-0.696852	-0.616752	0.070201
C174	C	-0.363518	-0.283418	0.403534
C175	C	-0.975582	-0.950064	-0.263127
C176	C	-0.642248	-0.616731	0.070206
C177	C	-0.308915	-0.283398	0.403540
C178	C	-0.948298	-0.909777	-0.303349
C179	C	-0.614965	-0.576444	0.029985
C180	C	-0.281631	-0.243110	0.363318
C181	C	-0.527842	-0.949867	-0.263071
C182	C	-0.194509	-0.616534	0.070263
C183	C	0.138825	-0.283200	0.403596
C184	C	-0.473237	-0.949836	-0.263063
C185	C	-0.139903	-0.616503	0.070270
C186	C	0.193430	-0.283169	0.403603
C187	C	-0.473276	-0.869280	-0.343505
C188	C	-0.139942	-0.535947	-0.010172
C189	C	0.193391	-0.202614	0.323162
C190	C	-0.527876	-0.869309	-0.343510
C191	C	-0.194543	-0.535975	-0.010177
C192	C	0.138790	-0.202642	0.323156
C193	C	-0.555158	-0.909607	-0.303291
C194	C	-0.221825	-0.576274	0.030042
C195	C	0.111509	-0.242940	0.363376
O196	O	-0.614273	-0.835108	-0.377691
O197	O	-0.280940	-0.501774	-0.044358
O198	O	0.052393	-0.168441	0.288976
O199	O	-0.614250	-0.984172	-0.228886
O200	O	-0.280916	-0.650838	0.104447
O201	O	0.052417	-0.317505	0.437780
C202	C	-0.115623	-0.909765	-0.303341
C203	C	0.217711	-0.576432	0.029992
C204	C	0.551044	-0.243098	0.363325
C205	C	-0.057508	-0.909818	-0.303359
C206	C	0.275825	-0.576484	0.029974
C207	C	0.609158	-0.243151	0.363307
C208	C	-0.251985	-0.909694	-0.467489
C209	C	0.081349	-0.576360	-0.134155
C210	C	0.414682	-0.243027	0.199178
C211	C	-0.251980	-0.909716	-0.537457
C212	C	0.081353	-0.576383	-0.204124
C213	C	0.414687	-0.243049	0.129210
C214	C	-0.252014	-0.073832	-0.303315
C215	C	0.081319	0.259502	0.030018
C216	C	0.414653	0.592835	0.363352
C217	C	-0.252005	-0.143800	-0.303309
C218	C	0.081328	0.189533	0.030024
C219	C	0.414661	0.522867	0.363358
C220	C	-0.218544	-0.950006	-0.570340
C221	C	0.114789	-0.616673	-0.237007
C222	C	0.448123	-0.283339	0.096326
C223	C	-0.218521	-0.950005	-0.636083
C224	C	0.114812	-0.616672	-0.302750
C225	C	0.448145	-0.283339	0.030584
C226	C	-0.251944	-0.909721	-0.668940
C227	C	0.081389	-0.576388	-0.335606
C228	C	0.414723	-0.243054	-0.002273
C229	C	-0.285382	-0.869423	-0.636048
C230	C	0.047951	-0.536090	-0.302715
C231	C	0.381285	-0.202756	0.030619
C232	C	-0.285400	-0.869421	-0.570307
C233	C	0.047933	-0.536087	-0.236974
C234	C	0.381267	-0.202754	0.096360
N235	N	-0.297682	-0.904856	-0.772157
N236	N	0.035652	-0.571523	-0.438823
N237	N	0.368985	-0.238190	-0.105490
N238	N	-0.297663	-0.904862	-0.834608
N239	N	0.035670	-0.571529	-0.501275
N240	N	0.369004	-0.238196	-0.167942
C241	C	-0.251891	-0.909725	-0.867014
C242	C	0.081443	-0.576392	-0.533681
C243	C	0.414776	-0.243058	-0.200348
N244	N	-0.206137	-0.914594	-0.834610
N245	N	0.127196	-0.581260	-0.501276
N246	N	0.460530	-0.247927	-0.167943
N247	N	-0.206156	-0.914591	-0.772152
N248	N	0.127177	-0.581257	-0.438819
N249	N	0.460511	-0.247924	-0.105486
C250	C	-0.251928	-0.909719	-0.740225
C251	C	0.081406	-0.576386	-0.406892
C252	C	0.414739	-0.243052	-0.073558
C253	C	-0.218428	-0.950016	-0.971183
C254	C	0.114906	-0.616683	-0.637850
C255	C	0.448239	-0.283349	-0.304517
C256	C	-0.218404	-0.950011	-1.036927
C257	C	0.114929	-0.616678	-0.703594
C258	C	0.448263	-0.283344	-0.370260
C259	C	-0.285269	-0.869432	-1.036891
C260	C	0.048064	-0.536099	-0.703558
C261	C	0.381397	-0.202765	-0.370224
C262	C	-0.285288	-0.869434	-0.971149
C263	C	0.048045	-0.536101	-0.637815
C264	C	0.381378	-0.202767	-0.304482
C265	C	-0.251868	-0.909729	-0.938299
C266	C	0.081465	-0.576396	-0.604965
C267	C	0.414799	-0.243063	-0.271632
C268	C	-0.251969	-0.909626	-0.139747
C269	C	0.081364	-0.576292	0.193586
C270	C	0.414698	-0.242959	0.526920
C271	C	-0.251826	-0.909726	-0.069779
C272	C	0.081507	-0.576392	0.263554
C273	C	0.414840	-0.243059	0.596887
H274	H	-0.312578	-0.269105	-0.230139
H275	H	0.020755	0.064228	0.103194
H276	H	0.354089	0.397561	0.436527
C277	C	-0.181883	-0.140601	-0.387999
C278	C	0.151451	0.192733	-0.054665
C279	C	0.484784	0.526066	0.278668
N280	N	-0.154219	-0.113405	-0.421419
N281	N	0.179115	0.219929	-0.088086
N282	N	0.512448	0.553262	0.245248
H283	H	-0.312593	-0.836621	-0.662804
H284	H	0.020740	-0.503288	-0.329471
H285	H	0.354074	-0.169955	0.003862
C286	C	-0.181619	-0.994334	-1.073099
C287	C	0.151714	-0.661001	-0.739765
C288	C	0.485048	-0.327668	-0.406432
N289	N	-0.153912	-1.027720	-1.100344
N290	N	0.179421	-0.694387	-0.767010
N291	N	0.512754	-0.361054	-0.433677
H292	H	-0.450997	-0.982625	-0.230303
H293	H	-0.117664	-0.649292	0.103031
H294	H	0.215669	-0.315958	0.436364
H295	H	-0.702157	-1.023022	-0.190122
H296	H	-0.368824	-0.689689	0.143211
H297	H	-0.035490	-0.356355	0.476544
C298	C	-0.181660	-0.994336	-0.935046
C299	C	0.151673	-0.661002	-0.601713
C300	C	0.485006	-0.327669	-0.268380
N301	N	-0.153966	-1.027717	-0.907829
N302	N	0.179367	-0.694383	-0.574496
N303	N	0.512700	-0.361050	-0.241163
C304	C	-0.322035	-0.825119	-1.073030
C305	C	0.011298	-0.491786	-0.739696
C306	C	0.344632	-0.158453	-0.406363
N307	N	-0.349728	-0.791741	-1.100252
N308	N	-0.016394	-0.458408	-0.766919
N309	N	0.316939	-0.125075	-0.433586
C310	C	-0.322185	-0.825098	-0.534134
C311	C	0.011148	-0.491765	-0.200801
C312	C	0.344482	-0.158431	0.132533
N313	N	-0.349893	-0.791714	-0.506888
N314	N	-0.016559	-0.458381	-0.173554
N315	N	0.316774	-0.125048	0.159779
C316	C	-0.322073	-0.825114	-0.934975
C317	C	0.011260	-0.491781	-0.601642
C318	C	0.344594	-0.158447	-0.268309
N319	N	-0.349780	-0.791728	-0.907730
N320	N	-0.016446	-0.458395	-0.574397
N321	N	0.316887	-0.125062	-0.241063
C322	C	-0.809000	-1.034579	-0.178639
C323	C	-0.475666	-0.701245	0.154694
C324	C	-0.142333	-0.367912	0.488027
N325	N	-0.831595	-1.067960	-0.145305
N326	N	-0.498262	-0.734627	0.188028
N327	N	-0.164928	-0.401293	0.521362
H328	H	-0.801287	-0.796364	-0.416531
H329	H	-0.467954	-0.463030	-0.083198
H330	H	-0.134621	-0.129697	0.250135
H331	H	-0.550048	-0.982683	-0.230322
H332	H	-0.216715	-0.649350	0.103012
H333	H	0.116618	-0.316016	0.436345
C334	C	-0.322131	-0.140429	-0.218616
C335	C	0.011202	0.192905	0.114717
C336	C	0.344536	0.526238	0.448051
N337	N	-0.349796	-0.113163	-0.185198
N338	N	-0.016463	0.220170	0.148135
N339	N	0.316871	0.553503	0.481469
C340	C	-0.181858	-0.541437	-0.387980
C341	C	0.151475	-0.208104	-0.054647
C342	C	0.484809	0.125229	0.278686
N343	N	-0.154195	-0.514240	-0.421400
N344	N	0.179139	-0.180906	-0.088067
N345	N	0.512472	0.152427	0.245267
C346	C	-0.181850	-0.679490	-0.387972
C347	C	0.151483	-0.346156	-0.054639
C348	C	0.484816	-0.012823	0.278694
N349	N	-0.154178	-0.706754	-0.421382
N350	N	0.179156	-0.373420	-0.088049
N351	N	0.512489	-0.040087	0.245284
H352	H	-0.312556	-0.669943	-0.230119
H353	H	0.020778	-0.336610	0.103214
H354	H	0.354111	-0.003277	0.436547
C355	C	-0.181872	-0.278653	-0.387987
C356	C	0.151461	0.054680	-0.054654
C357	C	0.484794	0.388013	0.278680
N358	N	-0.154199	-0.305920	-0.421394
N359	N	0.179134	0.027413	-0.088061
N360	N	0.512467	0.360746	0.245272
H361	H	-0.312560	-0.550676	-0.230119
H362	H	0.020773	-0.217342	0.103214
H363	H	0.354107	0.115991	0.436547
H364	H	-0.953344	-0.982852	-0.230370
H365	H	-0.620011	-0.649519	0.102963
H366	H	-0.286677	-0.316186	0.436296
H367	H	-1.052410	-0.982892	-0.230389
H368	H	-0.719076	-0.649559	0.102944
H369	H	-0.385743	-0.316226	0.436277
C370	C	-1.060261	-0.825225	-0.387820
C371	C	-0.726928	-0.491892	-0.054487
C372	C	-0.393594	-0.158559	0.278846
N373	N	-1.082886	-0.791859	-0.421152
N374	N	-0.749553	-0.458525	-0.087819
N375	N	-0.416220	-0.125192	0.245514
H376	H	-0.953405	-0.836698	-0.376321
H377	H	-0.620072	-0.503364	-0.042988
H378	H	-0.286739	-0.170031	0.290346
H379	H	-0.550118	-0.836523	-0.376269
H380	H	-0.216785	-0.503190	-0.042936
H381	H	0.116548	-0.169856	0.290397
C382	C	-0.694440	-0.784818	-0.428016
C383	C	-0.361107	-0.451485	-0.094683
C384	C	-0.027774	-0.118151	0.238651
N385	N	-0.671839	-0.751435	-0.461343
N386	N	-0.338506	-0.418102	-0.128010
N387	N	-0.005173	-0.084768	0.205324
H388	H	-0.191330	-0.982817	-0.543598
H389	H	0.142003	-0.649484	-0.210265
H390	H	0.475337	-0.316150	0.123069
C391	C	-0.443253	-0.824968	-0.387742
C392	C	-0.109919	-0.491635	-0.054409
C393	C	0.223414	-0.158301	0.278925
N394	N	-0.420637	-0.791596	-0.421066
N395	N	-0.087304	-0.458262	-0.087732
N396	N	0.246029	-0.124929	0.245601
C397	C	-0.181741	-0.994333	-0.672262
C398	C	0.151592	-0.661000	-0.338929
C399	C	0.484926	-0.327666	-0.005595
N400	N	-0.154039	-1.027722	-0.699510
N401	N	0.179294	-0.694389	-0.366177
N402	N	0.512627	-0.361056	-0.032844
