data_functionalizedCrystal
_audit_creation_method	'MofGen! by Chris Wilmer'
_symmetry_space_group_name_H-M	'P1'
_symmetry_Int_Tables_number	1
_symmetry_cell_setting	triclinic
loop_
_symmetry_equiv_pos_as_xyz
  x,y,z
_cell_length_a	14.446369
_cell_length_b	21.606444
_cell_length_c	21.606444
_cell_angle_alpha	59.999173
_cell_angle_beta	89.995554
_cell_angle_gamma	60.011798
loop_
_atom_site_label
_atom_site_type_symbol
_atom_site_fract_x
_atom_site_fract_y
_atom_site_fract_z
Zr1	Zr	0.891978	0.677375	-0.081197
O2	O	0.744234	0.806465	-0.180005
O3	O	0.937237	0.548279	-0.050915
O4	O	0.937297	0.677374	-0.180022
O5	O	0.744164	0.677373	0.050953
O6	O	1.089626	0.677379	-0.180027
O7	O	0.744174	0.677370	-0.050897
O8	O	1.089518	0.446452	0.050922
O9	O	0.744272	0.908301	-0.179997
O10	O	1.070260	0.601384	-0.037995
O11	O	0.956572	0.601382	0.038019
O12	O	0.956642	0.753375	-0.113988
O13	O	0.842954	0.753373	-0.037974
Zr14	Zr	1.134909	0.677388	0.081234
Zr15	Zr	1.134925	0.677384	-0.081206
Zr16	Zr	0.891962	0.677380	0.081243
Zr17	Zr	0.892038	0.839791	-0.081184
Zr18	Zr	1.134850	0.514973	0.081221
O19	O	1.089651	0.806485	0.050951
O20	O	1.089673	0.806478	-0.180017
O21	O	0.744212	0.806472	0.050964
O22	O	1.282653	0.548298	0.180042
O23	O	1.282676	0.548291	-0.050927
O24	O	0.937214	0.548285	0.180054
O25	O	1.282724	0.677390	-0.050916
O26	O	1.089591	0.677390	0.180059
O27	O	0.937262	0.677384	0.180064
O28	O	1.282714	0.677393	0.050934
O29	O	0.937382	0.908308	-0.180003
O30	O	1.089506	0.446456	0.180040
O31	O	1.282616	0.446463	0.180033
O32	O	1.282629	0.446459	0.050915
O33	O	0.744259	0.908304	-0.050879
O34	O	0.937369	0.908312	-0.050885
O35	O	1.070245	0.601388	0.114025
O36	O	1.183934	0.601390	0.038011
O37	O	1.070316	0.753381	-0.037982
O38	O	0.956627	0.753379	0.038032
C39	C	1.013369	0.474225	0.000002
C40	C	1.013344	0.405275	-0.000004
C41	C	0.709554	0.677371	0.000029
C42	C	0.606417	0.677367	0.000033
C43	C	1.097423	-0.074188	0.056143
C44	C	1.097398	-0.009380	0.056135
C45	C	1.013490	0.079104	0.000027
C46	C	0.929606	0.102781	-0.056081
C47	C	0.929636	0.037973	-0.056075
C48	C	0.929485	0.364144	-0.056104
C49	C	0.929459	0.428951	-0.056103
C50	C	1.097247	0.316790	0.056106
C51	C	1.097277	0.251982	0.056112
C52	C	1.013398	0.275664	0.000002
C53	C	1.013426	0.205391	0.000010
C54	C	1.013455	0.149377	0.000022
C55	C	0.531395	0.581516	0.047713
C56	C	0.638723	0.581452	0.047987
C57	C	0.531871	0.724983	0.035005
C58	C	0.425012	0.724375	0.035349
C59	C	0.423451	0.726345	-0.082696
C60	C	0.532122	0.724539	-0.082561
C61	C	1.317333	0.677393	0.000008
C62	C	1.420471	0.677397	0.000004
C63	C	1.013464	0.677376	-0.203169
C64	C	1.013471	0.677374	-0.272129
C65	C	1.013518	0.880539	0.000035
C66	C	1.013544	0.949489	0.000040
C67	C	0.929498	0.677388	-0.695430
C68	C	0.929508	0.677381	-0.630631
C69	C	1.013433	0.677383	-0.598240
C70	C	1.097361	0.677382	-0.630647
C71	C	1.097355	0.677382	-0.695442
C72	C	1.097388	0.677380	-0.369335
C73	C	1.097386	0.677382	-0.304537
C74	C	0.929541	0.677379	-0.304524
C75	C	0.929535	0.677379	-0.369319
C76	C	1.013466	0.677374	-0.401719
C77	C	1.013455	0.677379	-0.471980
C78	C	1.013440	0.677384	-0.527982
C79	C	1.013424	0.677387	0.203206
C80	C	1.013417	0.677389	0.272166
C81	C	1.317259	0.474236	-0.000009
C82	C	1.420371	0.405290	-0.000018
C83	C	1.013349	0.474230	0.203189
C84	C	1.013317	0.405283	0.272144
C85	C	1.317239	0.474241	0.203179
C86	C	1.420344	0.405298	0.272129
C87	C	0.709649	0.880522	-0.203142
C88	C	0.606544	0.949466	-0.272092
C89	C	0.709629	0.880528	0.000046
C90	C	0.606517	0.949474	0.000055
C91	C	1.013538	0.880533	-0.203153
C92	C	1.013570	0.949481	-0.272107
C93	C	1.409457	0.372909	-0.039703
C94	C	1.506332	0.308136	-0.039727
C95	C	1.614120	0.275741	-0.000061
C96	C	1.625032	0.308128	0.039626
C97	C	1.528158	0.372904	0.039645
C98	C	1.072639	0.372907	0.344207
C99	C	1.072604	0.308133	0.409003
C100	C	1.013254	0.275730	0.401734
C101	C	0.953926	0.308112	0.329664
C102	C	0.953954	0.372890	0.264870
C103	C	1.528118	0.372922	0.264831
C104	C	1.625005	0.308151	0.329611
C105	C	1.614117	0.275752	0.401689
C106	C	1.506331	0.308134	0.408986
C107	C	1.409446	0.372909	0.344207
C108	C	0.498770	0.981850	-0.264794
C109	C	0.401882	1.046641	-0.329574
C110	C	0.412771	1.079043	-0.401652
C111	C	0.520556	1.046657	-0.408949
C112	C	0.617441	0.981871	-0.344170
C113	C	0.617431	0.981861	0.039734
C114	C	0.520556	1.046652	0.039740
C115	C	0.412767	1.079050	0.000071
C116	C	0.401856	1.046659	-0.039613
C117	C	0.498730	0.981874	-0.039623
C118	C	1.072932	0.981863	-0.264814
C119	C	1.072984	1.046638	-0.329598
C120	C	1.013668	1.079034	-0.401674
C121	C	0.954304	1.046646	-0.408965
C122	C	0.954259	0.981867	-0.344182
H123	H	1.165747	-0.146235	0.101835
N124	N	1.293206	0.407821	0.352084
H125	H	1.301021	0.377461	0.407576
H126	H	1.250417	0.396535	0.326938
N127	N	0.733686	0.946933	-0.352040
H128	H	0.742791	0.996357	-0.380660
H129	H	0.742660	0.920052	-0.380650
N130	N	1.718622	0.205871	0.471553
H131	H	1.695379	0.190251	0.518326
H132	H	1.765235	0.228468	0.471512
H133	H	0.314129	1.072999	-0.323618
N134	N	0.890214	0.946953	-0.352049
H135	H	0.944596	0.881923	-0.326946
H136	H	0.852646	0.977373	-0.407553
H137	H	0.861152	0.677392	-0.721802
N138	N	0.534494	0.531661	0.016799
H139	H	0.464023	0.570739	-0.028431
H140	H	0.537896	0.478718	0.057340
H141	H	0.489882	0.955471	-0.206110
N142	N	0.839017	0.677375	-0.269578
H143	H	0.794946	0.731327	-0.269667
H144	H	0.875687	0.623382	-0.215738
H145	H	1.692992	0.222995	-0.000082
N146	N	0.308268	1.148918	-0.471519
H147	H	0.238345	1.164509	-0.455951
H148	H	0.308309	1.126324	-0.502680
N149	N	1.187866	0.677385	-0.730396
H150	H	1.241031	0.677390	-0.700047
H151	H	1.151182	0.731342	-0.784257
H152	H	0.906011	1.073033	-0.467657
N153	N	0.839165	0.063503	-0.116581
H154	H	0.875799	0.039126	-0.146062
H155	H	0.786028	0.129394	-0.152074
H156	H	1.165704	-0.028667	0.101817
H157	H	1.165601	0.179936	0.101802
N158	N	0.532292	1.081608	-0.486692
H159	H	0.454556	1.127559	-0.526616
H160	H	0.575113	1.032136	-0.492706
N161	N	1.187734	0.291248	0.116617
H162	H	1.240890	0.225360	0.152161
H163	H	1.151021	0.315684	0.146043
H164	H	1.321699	0.399284	-0.072014
N165	N	0.308289	1.148912	0.000101
H166	H	0.238343	1.164523	-0.031046
H167	H	0.308376	1.202619	-0.022452
H168	H	1.712806	0.281742	0.071920
H169	H	1.497482	0.281746	0.467681
H170	H	1.121323	1.073002	-0.323647
N171	N	1.539938	0.407823	0.082454
H172	H	1.622923	0.377466	0.107578
H173	H	1.502320	0.396539	0.122349
H174	H	0.861175	0.677379	-0.604248
N175	N	0.733681	0.946927	0.082522
H176	H	0.725878	0.977287	0.107652
H177	H	0.776478	0.958201	0.046087
N178	N	1.013725	1.148907	-0.471536
H179	H	0.933384	1.202670	-0.502718
H180	H	1.047548	1.126295	-0.502672
H181	H	0.529463	1.073014	0.072057
N182	N	0.838963	0.524393	-0.116630
H183	H	0.875586	0.553781	-0.146105
H184	H	0.794876	0.553701	-0.092099
H185	H	0.314081	1.073047	-0.071910
H186	H	1.120969	0.399282	0.350139
H187	H	0.692976	0.544106	0.024518
H188	H	0.489828	0.955506	-0.071932
H189	H	1.497425	0.281774	-0.072045
H190	H	1.120921	0.281775	0.467679
N191	N	1.136916	0.946921	-0.187078
H192	H	1.105819	0.996345	-0.181000
H193	H	1.219906	0.920028	-0.181064
N194	N	0.839014	0.389701	-0.116625
H195	H	0.761973	0.425486	-0.114171
H196	H	0.851856	0.335188	-0.108087
N197	N	0.839109	0.198216	-0.116602
H198	H	0.851814	0.235680	-0.108093
H199	H	0.762117	0.211366	-0.114119
N200	N	1.013249	0.205850	0.471625
H201	H	0.966654	0.190229	0.456092
H202	H	0.979517	0.228450	0.502785
N203	N	0.533361	0.532219	0.128257
H204	H	0.462638	0.571688	0.133949
H205	H	0.602345	0.512847	0.163809
H206	H	0.905651	0.399241	0.206195
H207	H	0.692566	0.543750	0.109001
N208	N	0.319892	0.819906	-0.130004
H209	H	0.249394	0.820751	-0.132038
H210	H	0.322374	0.850974	-0.183045
H211	H	0.346462	0.794721	0.002846
N212	N	0.425331	0.679551	0.115956
H213	H	0.424340	0.712378	0.136935
H214	H	0.495819	0.617536	0.147900
H215	H	1.165700	0.677377	-0.604268
N216	N	0.495833	0.818400	-0.008798
H217	H	0.527560	0.830782	-0.051836
H218	H	0.525436	0.827459	0.026071
H219	H	0.583456	0.691913	0.095286
H220	H	1.537005	0.399291	0.206147
N221	N	0.417994	0.685704	-0.121398
H222	H	0.413530	0.635146	-0.085710
H223	H	0.488177	0.663832	-0.135962
H224	H	0.583534	0.689821	-0.108687
H225	H	0.506631	0.794515	-0.121097
H226	H	0.861192	0.677382	-0.395692
H227	H	0.905604	0.281720	0.323757
H228	H	1.165733	0.677382	-0.278165
H229	H	1.165726	0.677377	-0.395711
H230	H	1.712760	0.281792	0.323656
