data_functionalizedCrystal
_audit_creation_method	'MofGen! by Chris Wilmer'
_symmetry_space_group_name_H-M	'P1'
_symmetry_Int_Tables_number	1
_symmetry_cell_setting	triclinic
loop_
_symmetry_equiv_pos_as_xyz
  x,y,z
_cell_length_a	29.839131
_cell_length_b	29.839135
_cell_length_c	21.395355
_cell_angle_alpha	89.971956
_cell_angle_beta	90.027826
_cell_angle_gamma	89.962946
loop_
_atom_site_label
_atom_site_type_symbol
_atom_site_fract_x
_atom_site_fract_y
_atom_site_fract_z
Zn1	Zn	-0.178883	-0.686793	0.354279
Zn2	Zn	-0.253999	-0.686718	0.249485
Zn3	Zn	-0.178886	-0.611660	0.249510
Zn4	Zn	-0.253990	-0.611632	0.354219
O5	O	-0.216439	-0.649201	0.301873
O6	O	-0.188850	-0.749650	0.340393
O7	O	-0.244040	-0.676741	0.161810
O8	O	-0.116018	-0.621670	0.263443
O9	O	-0.244037	-0.749595	0.263401
O10	O	-0.116017	-0.676870	0.340417
O11	O	-0.188855	-0.621597	0.161828
O12	O	-0.188846	-0.548789	0.263384
O13	O	-0.244022	-0.621622	0.441904
O14	O	-0.244024	-0.548769	0.340314
O15	O	-0.188842	-0.676843	0.441949
O16	O	-0.316865	-0.676714	0.263342
O17	O	-0.316858	-0.621549	0.340290
C18	C	-0.216435	-0.532478	0.301846
C19	C	-0.216443	-0.482544	0.301849
C20	C	-0.187741	-0.172926	0.342019
C21	C	-0.187742	0.014747	0.342035
O22	O	-0.163331	0.038989	0.376161
N23	N	-0.216431	0.038241	0.301892
C24	C	-0.245121	0.014815	0.261738
O25	O	-0.269519	0.039105	0.227589
C26	C	-0.245117	-0.172857	0.261719
C27	C	-0.216429	-0.196350	0.301869
C28	C	-0.159055	-0.196419	0.382166
C29	C	-0.159057	-0.243334	0.382164
C30	C	-0.187745	-0.266757	0.342014
C31	C	-0.216431	-0.243265	0.301867
C32	C	-0.273804	-0.196283	0.221562
C33	C	-0.273799	-0.243204	0.221560
C34	C	-0.245111	-0.266696	0.261711
C35	C	-0.245121	-0.313604	0.261716
N36	N	-0.216431	-0.337098	0.301860
C37	C	-0.187743	-0.313675	0.342009
C38	C	-0.245121	0.113345	0.261752
C39	C	-0.245122	0.160263	0.261757
C40	C	-0.187743	0.160192	0.342054
C41	C	-0.187744	0.113273	0.342051
C42	C	-0.216432	0.089851	0.301896
C43	C	-0.187750	-0.412201	0.342002
C44	C	-0.187755	-0.459121	0.341998
C45	C	-0.245133	-0.459045	0.261699
C46	C	-0.245129	-0.412130	0.261705
C47	C	-0.216434	-0.388709	0.301858
O48	O	-0.269515	-0.337875	0.227603
O49	O	-0.163341	-0.337973	0.376143
C50	C	-0.187739	-0.126011	0.342021
C51	C	-0.216426	-0.102519	0.301874
C52	C	-0.245113	-0.125942	0.261725
C53	C	-0.216427	-0.055601	0.301879
C54	C	-0.187739	-0.032178	0.342029
C55	C	-0.159050	-0.055672	0.382172
C56	C	-0.159052	-0.102588	0.382170
C57	C	-0.273803	-0.102447	0.221581
C58	C	-0.273799	-0.055532	0.221587
C59	C	-0.245111	-0.032109	0.261736
C60	C	-0.333162	-0.649132	0.301820
C61	C	-0.383096	-0.649144	0.301819
C62	C	-0.692704	-0.677937	0.342010
C63	C	-0.880377	-0.677986	0.342048
O64	O	-0.904611	-0.702400	0.376181
N65	N	-0.903881	-0.649277	0.301943
C66	C	-0.880465	-0.620552	0.261828
O67	O	-0.904763	-0.596131	0.227721
C68	C	-0.692793	-0.620501	0.261794
C69	C	-0.669291	-0.649215	0.301897
C70	C	-0.669202	-0.706649	0.382111
C71	C	-0.622286	-0.706638	0.382099
C72	C	-0.598873	-0.677916	0.341986
C73	C	-0.622375	-0.649204	0.301885
C74	C	-0.669377	-0.591774	0.221682
C75	C	-0.622456	-0.591763	0.221679
C76	C	-0.598954	-0.620477	0.261782
C77	C	-0.552046	-0.620472	0.261760
N78	N	-0.528542	-0.649181	0.301865
C79	C	-0.551955	-0.677903	0.341978
C80	C	-0.978995	-0.620581	0.261848
C81	C	-1.025913	-0.620594	0.261855
C82	C	-1.025822	-0.678028	0.342076
C83	C	-0.978903	-0.678017	0.342065
C84	C	-0.955491	-0.649290	0.301953
C85	C	-0.453429	-0.677878	0.341949
C86	C	-0.406510	-0.677866	0.341932
C87	C	-0.406605	-0.620431	0.261713
C88	C	-0.453520	-0.620444	0.261728
C89	C	-0.476932	-0.649170	0.301851
O90	O	-0.527783	-0.596067	0.227649
O91	O	-0.527649	-0.702313	0.376090
C92	C	-0.739619	-0.677948	0.342023
C93	C	-0.763121	-0.649237	0.301922
C94	C	-0.739708	-0.620515	0.261809
C95	C	-0.810039	-0.649250	0.301929
C96	C	-0.833453	-0.677972	0.342042
C97	C	-0.809948	-0.706681	0.382148
C98	C	-0.763033	-0.706670	0.382136
C99	C	-0.763213	-0.591806	0.221703
C100	C	-0.810128	-0.591819	0.221718
C101	C	-0.833541	-0.620541	0.261831
C102	C	-0.099261	-0.649282	0.301940
C103	C	-0.049327	-0.649316	0.301968
C104	C	-0.216430	-0.649238	0.465296
C105	C	-0.216426	-0.649254	0.534938
C106	C	-0.216442	0.233621	0.301899
C107	C	-0.216435	0.183686	0.301907
C108	C	-0.216416	-0.649190	0.139085
C109	C	-0.216293	-0.649261	0.069445
C110	C	-0.187693	-0.678006	0.567675
C111	C	-0.187674	-0.678006	0.633110
C112	C	-0.216396	-0.649258	0.665806
C113	C	-0.245131	-0.620500	0.633061
C114	C	-0.245147	-0.620498	0.567627
C115	C	-0.256847	-0.645686	0.769462
C116	C	-0.256833	-0.645691	0.834895
C117	C	-0.216348	-0.649260	0.867627
C118	C	-0.175878	-0.652834	0.834918
C119	C	-0.175893	-0.652832	0.769483
C120	C	-0.216382	-0.649256	0.736758
C121	C	-0.187591	-0.678013	0.971317
C122	C	-0.187571	-0.678010	1.036754
C123	C	-0.245033	-0.620506	1.036703
C124	C	-0.245049	-0.620508	0.971267
C125	C	-0.216329	-0.649264	0.938578
H126	H	-0.164382	-0.393137	0.374697
O127	O	-0.156807	-0.484455	0.385303
H128	H	-0.176946	-0.505827	0.417132
H129	H	-0.164171	-0.701422	1.063407
O130	O	-0.737692	-0.737644	0.425391
H131	H	-0.716316	-0.717527	0.457240
O132	O	-0.835206	-0.737661	0.425414
H133	H	-0.826183	-0.729936	0.474575
O134	O	-1.051080	-0.709006	0.385345
H135	H	-1.042058	-0.701278	0.434505
O136	O	-0.694450	-0.737629	0.425382
H137	H	-0.715819	-0.760502	0.397377
O138	O	-0.128111	-0.171162	0.425477
H139	H	-0.105218	-0.149792	0.397506
O140	O	-0.381160	-0.708838	0.385187
H141	H	-0.359782	-0.731701	0.357166
H142	H	-0.164203	-0.701426	0.944700
H143	H	-0.289806	-0.642660	0.742817
O144	O	-0.276110	-0.589491	0.668319
H145	H	-0.271275	-0.594325	0.719321
H146	H	-0.603396	-0.568369	0.189015
O147	O	-0.300482	-0.641840	0.870168
H148	H	-0.293672	-0.642448	0.921167
O149	O	-0.276129	-0.589476	0.532311
H150	H	-0.296096	-0.569481	0.566036
O151	O	-0.128103	-0.030405	0.425473
H152	H	-0.132922	0.006166	0.418720
H153	H	-0.297164	-0.036408	0.188892
H154	H	-0.959936	-0.597188	0.229182
H155	H	-0.268494	-0.393001	0.229018
H156	H	-1.045045	-0.597217	0.229192
H157	H	-0.472657	-0.597067	0.229067
O158	O	-0.478677	-0.708862	0.385219
H159	H	-0.454446	-0.728826	0.413094
H160	H	-0.164383	0.094149	0.374744
H161	H	-0.829259	-0.568437	0.189055
O162	O	-0.381348	-0.589452	0.218450
H163	H	-0.344776	-0.594267	0.225189
H164	H	-0.268450	-0.597097	0.944612
H165	H	-0.688504	-0.568392	0.189025
O166	O	-0.737962	-0.560832	0.178427
H167	H	-0.762192	-0.540877	0.150540
O168	O	-0.276070	-0.484312	0.218390
H169	H	-0.271244	-0.520883	0.225131
O170	O	-0.276011	-0.589498	1.071962
H171	H	-0.268303	-0.554245	1.059385
H172	H	-0.164306	-0.701421	0.541064
O173	O	-0.156799	0.185460	0.385356
H174	H	-0.121529	0.176436	0.374701
H175	H	-0.135696	-0.262458	0.414858
O176	O	-0.156686	-0.709022	0.668433
H177	H	-0.136720	-0.729019	0.634709
O178	O	-0.128104	-0.127924	0.425467
H179	H	-0.108154	-0.103748	0.453377
H180	H	-0.268488	0.179387	0.229069
O181	O	-0.276064	0.088085	0.218439
H182	H	-0.296013	0.112309	0.190533
O183	O	-0.132247	-0.656684	0.734201
H184	H	-0.104091	-0.659164	0.767949
O185	O	-0.132206	-0.656671	0.870209
H186	H	-0.138991	-0.656063	0.921205
H187	H	-0.297160	-0.262272	0.188858
O188	O	-0.304740	-0.170951	0.178247
H189	H	-0.324679	-0.195128	0.150325
O190	O	-0.304745	-0.127707	0.178272
H191	H	-0.340014	-0.118682	0.188927
O192	O	-0.596946	-0.737616	0.425349
H193	H	-0.605936	-0.729898	0.474515
O194	O	-0.953555	-0.708988	0.385317
H195	H	-0.977723	-0.728961	0.413208
