data_functionalizedCrystal
_audit_creation_method	'MofGen! by Chris Wilmer'
_symmetry_space_group_name_H-M	'P1'
_symmetry_Int_Tables_number	1
_symmetry_cell_setting	triclinic
loop_
_symmetry_equiv_pos_as_xyz
  x,y,z
_cell_length_a	27.732048
_cell_length_b	15.944499
_cell_length_c	14.421503
_cell_angle_alpha	90.007822
_cell_angle_beta	90.013741
_cell_angle_gamma	83.060132
loop_
_atom_site_label
_atom_site_type_symbol
_atom_site_fract_x
_atom_site_fract_y
_atom_site_fract_z
O1	O	0.062224	1.113738	0.077177
O2	O	0.069936	0.869081	0.077168
O3	O	-0.004284	0.999008	0.077156
O4	O	0.136445	0.983811	0.077190
O5	O	-0.004292	0.998996	-0.077068
O6	O	0.069928	0.869070	-0.077055
O7	O	0.062216	1.113726	-0.077046
Cu8	Cu	0.066072	0.991397	-0.091132
Cu9	Cu	0.066081	0.991411	0.091255
O10	O	0.136437	0.983799	-0.077033
C11	C	0.069617	0.837785	0.000055
C12	C	0.068670	0.744549	0.000051
C13	C	0.111790	0.452449	0.000075
C14	C	0.089379	0.513777	0.076112
C15	C	0.065231	0.408957	0.000072
C16	C	0.089359	0.513752	-0.075940
C17	C	0.066923	0.573844	0.000060
C18	C	0.042807	0.469058	0.076171
C19	C	0.042793	0.469026	-0.075950
C20	C	0.020348	0.530337	0.000105
C21	C	0.064257	0.313970	0.000079
C22	C	0.067893	0.668830	0.000059
C23	C	-0.022297	0.998683	0.000041
C24	C	-0.075956	0.997723	0.000034
C25	C	-0.414472	1.068453	0.000084
C26	C	-0.616147	1.064889	0.000097
O27	O	-0.647129	1.129568	0.000140
N28	N	-0.635596	0.987848	0.000093
C29	C	-0.604623	0.911693	0.000092
O30	O	-0.625793	0.846083	0.000099
C31	C	-0.402949	0.915258	0.000086
C32	C	-0.383503	0.992304	0.000080
C33	C	-0.395025	1.145493	0.000079
C34	C	-0.344609	1.146384	0.000071
C35	C	-0.313640	1.070234	0.000067
C36	C	-0.333087	0.993194	0.000072
C37	C	-0.371977	0.839103	0.000092
C38	C	-0.321556	0.840001	0.000093
C39	C	-0.302110	0.917047	0.000087
C40	C	-0.251702	0.917934	0.000060
N41	N	-0.232253	0.994976	0.000064
C42	C	-0.263222	1.071125	0.000067
C43	C	-0.710505	0.909826	0.000093
C44	C	-0.760923	0.908935	0.000093
C45	C	-0.772443	1.062132	0.000100
C46	C	-0.722024	1.063023	0.000093
C47	C	-0.691056	0.986868	0.000097
C48	C	-0.157345	1.072989	0.000049
C49	C	-0.106925	1.073872	0.000037
C50	C	-0.095409	0.920676	0.000036
C51	C	-0.145825	0.919792	0.000043
C52	C	-0.176792	0.995955	0.000053
O53	O	-0.220691	0.853291	0.000028
O54	O	-0.242043	1.136726	0.000081
C55	C	-0.464888	1.067563	0.000092
C56	C	-0.484334	0.990523	0.000097
C57	C	-0.453365	0.914374	0.000093
C58	C	-0.534752	0.989632	0.000097
C59	C	-0.565721	1.065782	0.000100
C60	C	-0.546272	1.142823	0.000104
C61	C	-0.495857	1.143713	0.000096
C62	C	-0.472814	0.837332	0.000089
C63	C	-0.523231	0.836449	0.000097
C64	C	-0.554200	0.912598	0.000100
C65	C	0.154449	0.984124	0.000083
C66	C	0.208108	0.985085	0.000097
C67	C	0.062536	1.145023	0.000069
C68	C	0.063483	1.238258	0.000080
N69	N	0.066065	0.991393	-0.219414
C70	C	0.031472	1.051027	-0.530848
C71	C	0.075015	1.067446	-0.469000
C72	C	0.066079	0.991412	-0.591303
C73	C	0.022530	0.975024	-0.469057
C74	C	0.066069	0.991405	-0.408581
C75	C	0.109644	1.007868	-0.530815
C76	C	0.057130	0.915413	-0.530877
C77	C	0.100705	0.931799	-0.469057
C78	C	0.066083	0.991418	-0.696564
C79	C	0.066070	0.991398	-0.303322
N80	N	0.066084	0.991421	0.219536
H81	H	0.109077	0.533623	0.140400
O82	O	0.016721	0.442718	-0.161114
H83	H	-0.015422	0.412174	-0.139730
H84	H	0.082584	1.131713	-0.441821
H85	H	0.150430	0.418614	0.000159
O86	O	0.158433	1.026335	-0.566586
H87	H	0.158047	1.026229	-0.643547
O88	O	-0.026248	0.956652	-0.433129
H89	H	-0.042431	1.010287	-0.389715
O90	O	0.115449	0.540000	-0.161085
H91	H	0.090264	0.584355	-0.202890
O92	O	0.016744	0.442947	0.161410
H93	H	0.004495	0.499682	0.203735
O94	O	-0.428420	1.227638	0.000072
H95	H	-0.451659	1.230924	0.062931
H96	H	0.129998	0.881378	-0.442097
H97	H	-0.706195	1.125760	0.000089
H98	H	-0.480029	1.206452	0.000091
O99	O	0.047089	0.830311	-0.566916
H100	H	0.047541	0.830929	-0.643872
O101	O	-0.085949	1.156975	0.000046
H102	H	-0.115958	1.209774	0.000063
H103	H	-0.182554	1.135009	0.000061
H104	H	-0.018326	0.564020	0.000136
O105	O	-0.166806	0.836698	0.000038
H106	H	-0.154358	0.800147	0.062898
O107	O	-0.323638	1.229483	0.000092
H108	H	-0.353649	1.282278	0.000111
H109	H	0.002243	1.101478	-0.557978
O110	O	-0.805849	1.144269	0.000110
H111	H	-0.844174	1.130697	0.000119
O112	O	-0.439414	0.755196	0.000069
H113	H	-0.461414	0.701482	0.000057
O114	O	-0.781896	0.825836	0.000087
H115	H	-0.751886	0.773039	0.000093
H116	H	-0.685294	0.847808	0.000097
O117	O	-0.579681	1.224957	0.000100
H118	H	-0.572759	1.261869	0.062955
H119	H	-0.387801	0.776364	0.000102
H120	H	-0.296343	0.777985	0.000097
H121	H	-0.070185	0.858677	0.000030
H122	H	-0.539058	0.773704	0.000093
