data_functionalizedCrystal
_audit_creation_method	'MofGen! by Chris Wilmer'
_symmetry_space_group_name_H-M	'P1'
_symmetry_Int_Tables_number	1
_symmetry_cell_setting	triclinic
loop_
_symmetry_equiv_pos_as_xyz
  x,y,z
_cell_length_a	11.792241
_cell_length_b	10.654550
_cell_length_c	9.730223
_cell_angle_alpha	89.994659
_cell_angle_beta	90.004274
_cell_angle_gamma	95.660841
loop_
_atom_site_label
_atom_site_type_symbol
_atom_site_fract_x
_atom_site_fract_y
_atom_site_fract_z
O1	O	0.159419	-1.667386	0.114404
O2	O	0.174608	-1.301864	0.114382
O3	O	0.001863	-1.493495	0.114383
O4	O	0.332163	-1.475755	0.114402
O5	O	0.001859	-1.493488	-0.114196
O6	O	0.174603	-1.301857	-0.114198
O7	O	0.159415	-1.667378	-0.114176
Zn8	Zn	0.167008	-1.484617	-0.150479
Zn9	Zn	0.167014	-1.484626	0.150685
O10	O	0.332159	-1.475748	-0.114178
C11	C	0.173490	-1.255066	0.000089
C12	C	0.170154	-1.115632	0.000080
C13	C	-0.040432	-1.492377	0.000094
C14	C	-0.166454	-1.489042	0.000095
N15	N	0.167004	-1.484619	-0.356016
C16	C	-0.397180	-1.482908	0.000118
C17	C	-0.268787	-1.486316	0.000105
C18	C	0.374455	-1.476865	0.000114
C19	C	0.500476	-1.480201	0.000122
C20	C	0.160532	-1.714177	0.000120
C21	C	0.163869	-1.853611	0.000137
C22	C	0.271863	-1.035858	0.000106
C23	C	0.268721	-0.904847	0.000129
C24	C	0.062152	-0.933394	0.000107
C25	C	0.065295	-1.064404	0.000074
C26	C	0.391124	-1.019376	0.000124
C27	C	0.387982	-0.888364	0.000148
C28	C	0.097521	-1.407997	-0.427973
C29	C	0.097526	-1.408000	-0.571856
C30	C	0.236501	-1.561258	-0.571812
C31	C	0.236500	-1.561248	-0.427932
C32	C	0.017281	-1.319519	-0.427999
C33	C	0.017287	-1.319522	-0.571882
N34	N	0.167010	-1.484633	0.356221
H35	H	-0.017527	-1.129352	0.000033
H36	H	-0.072221	-1.350703	-0.610936
F37	F	0.053744	-1.189946	-0.376978
F38	F	0.440761	-1.065850	0.129117
H39	H	0.293084	-1.623644	-0.630383
F40	F	0.435090	-0.828524	-0.128832
H41	H	0.052953	-1.224834	-0.616520
H42	H	0.432920	-0.846507	0.095818
F43	F	-0.094420	-1.371500	-0.369662
H44	H	-0.023221	-0.891668	0.000123
H45	H	0.437765	-1.048572	-0.095539
H46	H	0.293090	-1.623630	-0.369350
