data_functionalizedCrystal
_audit_creation_method	'MofGen! by Chris Wilmer'
_symmetry_space_group_name_H-M	'P1'
_symmetry_Int_Tables_number	1
_symmetry_cell_setting	triclinic
loop_
_symmetry_equiv_pos_as_xyz
  x,y,z
_cell_length_a	18.101389
_cell_length_b	12.759401
_cell_length_c	12.759399
_cell_angle_alpha	90.012458
_cell_angle_beta	90.011274
_cell_angle_gamma	90.016824
loop_
_atom_site_label
_atom_site_type_symbol
_atom_site_fract_x
_atom_site_fract_y
_atom_site_fract_z
Zn1	Zn	-0.418727	-1.606231	0.418427
Zn2	Zn	-0.294901	-1.606135	0.594095
Zn3	Zn	-0.294905	-1.430541	0.418425
Zn4	Zn	-0.418706	-1.430523	0.594059
O5	O	-0.356810	-1.518357	0.506251
O6	O	-0.402309	-1.753239	0.441745
O7	O	-0.191269	-1.582809	0.570806
O8	O	-0.311340	-1.453894	0.271404
O9	O	-0.311334	-1.753169	0.570808
O10	O	-0.402312	-1.582973	0.271405
O11	O	-0.191271	-1.453801	0.441742
O12	O	-0.311320	-1.283518	0.441707
O13	O	-0.522342	-1.453863	0.570746
O14	O	-0.402276	-1.283504	0.570745
O15	O	-0.522357	-1.582955	0.441710
O16	O	-0.311314	-1.582792	0.741111
O17	O	-0.402273	-1.453770	0.741085
C18	C	-0.356796	-1.245390	0.506223
C19	C	-0.356808	-1.128613	0.506236
C20	C	-0.404251	-1.073789	0.439152
C21	C	-0.404255	-0.964065	0.439159
C22	C	-0.309371	-0.964000	0.573341
C23	C	-0.309364	-1.073722	0.573329
C24	C	-0.549972	-1.518418	0.506225
C25	C	-0.632286	-1.518444	0.506213
C26	C	-0.931377	-1.518505	0.506016
C27	C	-0.900042	-1.437004	0.586944
C28	C	-0.814424	-1.437225	0.587320
C29	C	-0.782994	-1.518474	0.506114
C30	C	-0.814093	-1.629175	0.536171
C31	C	-0.899738	-1.628721	0.536702
C32	C	-0.899794	-1.490267	0.394852
C33	C	-0.814143	-1.487804	0.395494
C34	C	-0.699135	-1.518463	0.506168
C35	C	-1.015237	-1.518523	0.505966
C36	C	-0.164399	-1.518357	0.506202
C37	C	-0.082086	-1.518535	0.505917
C38	C	-0.356807	-1.518297	0.779219
C39	C	-0.356830	-1.518367	0.895995
C40	C	-0.356821	-0.792391	0.506271
C41	C	-0.356819	-0.909167	0.506255
C42	C	-0.309524	-1.585626	0.950836
C43	C	-0.309555	-1.585695	1.060560
C44	C	-0.404199	-1.451238	1.060593
C45	C	-0.404171	-1.451175	0.950871
C46	C	-0.356842	-1.518450	1.232218
C47	C	-0.356888	-1.518500	1.115441
H48	H	-0.270726	-1.118361	0.627957
H49	H	-0.270744	-0.919293	0.627967
H50	H	-0.921573	-1.455464	0.668840
O51	O	-0.455423	-0.904928	0.366803
H52	H	-0.513524	-0.926005	0.384948
O53	O	-0.455189	-1.378609	0.891720
H54	H	-0.513330	-1.396578	0.912724
H55	H	-0.442741	-1.396530	1.105286
H56	H	-0.793397	-1.355136	0.568511
O57	O	-0.455410	-1.132993	0.366774
H58	H	-0.513514	-1.111958	0.384903
O59	O	-0.927305	-1.327932	0.562288
H60	H	-0.963485	-1.330641	0.492096
O61	O	-0.787288	-1.461786	0.696493
H62	H	-0.835339	-1.473586	0.749218
O63	O	-0.785816	-1.560696	0.311376
H64	H	-0.748933	-1.620191	0.347261
H65	H	-0.920467	-1.691505	0.480317
O66	O	-0.928384	-1.385194	0.358571
H67	H	-0.881153	-1.331286	0.345423
H68	H	-0.793736	-1.691532	0.479079
O69	O	-0.926224	-1.660407	0.644344
H70	H	-0.877861	-1.675905	0.695531
O71	O	-0.926636	-1.568896	0.314983
H72	H	-0.904099	-1.548437	0.236719
H73	H	-0.792655	-1.653523	0.616570
H74	H	-0.270977	-1.640340	0.906159
O75	O	-0.787210	-1.379904	0.365446
H76	H	-0.751783	-1.348242	0.429023
H77	H	-0.271035	-1.640466	1.105207
