data_functionalizedCrystal
_audit_creation_method	'MofGen! by Chris Wilmer'
_symmetry_space_group_name_H-M	'P1'
_symmetry_Int_Tables_number	1
_symmetry_cell_setting	triclinic
loop_
_symmetry_equiv_pos_as_xyz
  x,y,z
_cell_length_a	6.817900
_cell_length_b	10.773890
_cell_length_c	19.453114
_cell_angle_alpha	96.632036
_cell_angle_beta	101.709288
_cell_angle_gamma	96.645716
loop_
_atom_site_label
_atom_site_type_symbol
_atom_site_fract_x
_atom_site_fract_y
_atom_site_fract_z
V1	V	-3.972243	-0.173886	-0.217846
O2	O	-3.996138	0.007019	-0.214877
O3	O	-3.890140	-0.343502	-0.215224
O4	O	-3.915573	-0.171798	-0.313373
O5	O	-3.970529	-0.165873	-0.116048
V6	V	-4.461309	-0.152179	-0.205808
O7	O	-4.221341	-0.221504	-0.244253
O8	O	-4.662409	-0.104561	-0.179401
O9	O	-4.320205	0.017437	-0.208430
O10	O	-4.554811	-0.333085	-0.208777
O11	O	-4.580420	-0.160192	-0.307606
O12	O	-4.294773	-0.154267	-0.110281
C13	C	-3.727210	-0.384833	-0.211495
C14	C	-3.741313	-0.523500	-0.209988
C15	C	-3.919162	-0.591378	-0.212607
C16	C	-3.933742	-0.734698	-0.211049
C17	C	-3.759651	-0.165805	-0.336693
C18	C	-3.794377	-0.165220	-0.414779
C19	C	-3.991230	-0.171207	-0.454997
C20	C	-4.023860	-0.170657	-0.528367
C21	C	-3.859629	-0.164146	-0.561519
C22	C	-3.662748	-0.158152	-0.521292
C23	C	-3.630122	-0.158689	-0.447922
N24	N	-3.786796	-0.230022	-0.679872
N25	N	-3.817802	-0.229515	-0.749571
C26	C	-3.957917	-0.162524	-0.782578
N27	N	-4.065888	-0.096077	-0.743256
N28	N	-4.034886	-0.096590	-0.673551
C29	C	-3.894986	-0.163562	-0.641076
C30	C	-4.190163	-0.167914	-0.902353
C31	C	-4.222785	-0.167356	-0.975724
C32	C	-3.861669	-0.154863	-0.968648
C33	C	-3.829051	-0.155408	-0.895277
C34	C	-3.993306	-0.161940	-0.862135
C35	C	-4.146476	0.058761	-0.212157
C36	C	-4.111611	0.197427	-0.213669
C37	C	-4.114036	-0.160264	-0.086957
C38	C	-4.058550	-0.160843	-0.008870
H39	H	-3.599847	-0.571491	-0.206596
C40	C	-4.107665	-0.527287	-0.216987
C41	C	-4.081409	-0.435695	-0.157394
C42	C	-4.255028	-0.376642	-0.161399
H43	H	-4.129742	-0.488246	-0.258710
H44	H	-4.221177	-0.588406	-0.218390
H45	H	-3.967930	-0.374586	-0.155998
H46	H	-4.059358	-0.474703	-0.115662
H47	H	-4.368541	-0.437761	-0.162803
H48	H	-4.277092	-0.337609	-0.203125
H49	H	-4.237244	-0.314499	-0.120964
C50	C	-3.745084	-0.798641	-0.206666
C51	C	-3.661958	-0.780389	-0.265522
C52	C	-3.488187	-0.839291	-0.261512
H53	H	-3.648801	-0.763149	-0.164443
H54	H	-3.779892	-0.886485	-0.206257
H55	H	-3.627143	-0.692563	-0.265924
H56	H	-3.758185	-0.815885	-0.307753
H57	H	-3.522995	-0.927134	-0.261104
H58	H	-3.391921	-0.803793	-0.219287
H59	H	-3.431775	-0.826924	-0.301448
H60	H	-4.253095	-0.754591	-0.217067
C61	C	-3.615478	-0.148978	-0.851490
C62	C	-3.622057	-0.150860	-0.780142
C63	C	-3.425349	-0.144965	-0.739787
H64	H	-3.557161	-0.219454	-0.867929
H65	H	-3.535899	-0.073205	-0.856066
H66	H	-3.701605	-0.226624	-0.775570
H67	H	-3.680336	-0.080388	-0.763682
H68	H	-3.345771	-0.069193	-0.744363
H69	H	-3.367048	-0.215443	-0.756232
H70	H	-3.429785	-0.146230	-0.691373
H71	H	-4.124982	-0.176520	-0.428017
C72	C	-4.436609	-0.174111	-1.019375
C73	C	-4.553190	-0.285904	-1.012428
C74	C	-4.750169	-0.292177	-1.052636
H75	H	-4.495133	-0.103746	-1.002912
H76	H	-4.432621	-0.172919	-1.067832
H77	H	-4.557187	-0.287085	-0.963980
H78	H	-4.494730	-0.356289	-1.028895
H79	H	-4.746182	-0.290985	-1.101093
H80	H	-4.808673	-0.221807	-1.036170
H81	H	-4.829289	-0.368033	-1.047933
H82	H	-4.184167	-0.175539	-0.561119
H83	H	-3.529031	-0.152846	-0.548289
C84	C	-3.416511	-0.152449	-0.404200
C85	C	-3.402912	-0.260278	-0.370627
C86	C	-3.206167	-0.254590	-0.330344
H87	H	-3.323207	-0.148564	-0.434383
H88	H	-3.385592	-0.079334	-0.369452
H89	H	-3.433807	-0.333373	-0.405371
H90	H	-3.496171	-0.264184	-0.340432
H91	H	-3.175248	-0.181476	-0.295596
H92	H	-3.112879	-0.250703	-0.360532
H93	H	-3.196919	-0.327744	-0.307555
H94	H	-4.323909	-0.173227	-0.875366
H95	H	-3.727946	-0.149551	-0.995638
