data_functionalizedCrystal
_audit_creation_method	'MofGen! by Chris Wilmer'
_symmetry_space_group_name_H-M	'P1'
_symmetry_Int_Tables_number	1
_symmetry_cell_setting	triclinic
loop_
_symmetry_equiv_pos_as_xyz
  x,y,z
_cell_length_a	6.817900
_cell_length_b	16.255748
_cell_length_c	17.110486
_cell_angle_alpha	96.306194
_cell_angle_beta	99.060439
_cell_angle_gamma	103.490428
loop_
_atom_site_label
_atom_site_type_symbol
_atom_site_fract_x
_atom_site_fract_y
_atom_site_fract_z
V1	V	-3.976897	-0.116839	-0.246990
O2	O	-3.965373	0.005874	-0.242010
O3	O	-3.928742	-0.231921	-0.245569
O4	O	-3.906755	-0.114928	-0.354589
O5	O	-3.987513	-0.111929	-0.132235
V6	V	-4.463311	-0.102174	-0.233232
O7	O	-4.231815	-0.149006	-0.277170
O8	O	-4.658590	-0.070007	-0.203052
O9	O	-4.288259	0.012908	-0.234653
O10	O	-4.592231	-0.224887	-0.238212
O11	O	-4.570092	-0.107084	-0.347987
O12	O	-4.310246	-0.104085	-0.125633
C13	C	-3.774506	-0.259979	-0.241741
C14	C	-3.816275	-0.354059	-0.241296
C15	C	-3.752889	-0.633163	-0.235844
C16	C	-3.845679	-0.589971	-0.303747
C17	C	-3.966764	-0.692706	-0.239729
C18	C	-3.799430	-0.568264	-0.172630
C19	C	-3.892813	-0.526317	-0.240497
C20	C	-4.060126	-0.650762	-0.307680
C21	C	-4.013831	-0.629050	-0.176503
C22	C	-4.106776	-0.585889	-0.244425
C23	C	-4.009360	-0.788559	-0.239286
C24	C	-3.850235	-0.430468	-0.240946
C25	C	-3.746458	-0.110741	-0.380806
C26	C	-3.770395	-0.109940	-0.468771
C27	C	-3.962936	-0.113788	-0.514137
C28	C	-3.985414	-0.113035	-0.596789
C29	C	-3.815352	-0.108440	-0.634073
C30	C	-3.622794	-0.104590	-0.588700
C31	C	-3.600315	-0.105337	-0.506049
C32	C	-3.874151	-0.105968	-0.883422
C33	C	-3.896647	-0.105223	-0.966080
C34	C	-4.259266	-0.113667	-0.974163
C35	C	-4.236772	-0.114419	-0.891511
C36	C	-4.044215	-0.110564	-0.846144
C37	C	-3.838326	-0.107673	-0.718557
C38	C	-4.021241	-0.111325	-0.761661
C39	C	-4.105838	0.040962	-0.238479
C40	C	-4.043306	0.135041	-0.238929
C41	C	-4.133886	-0.108274	-0.099411
C42	C	-4.089188	-0.109071	-0.011446
H43	H	-3.688768	-0.532450	-0.115571
O44	O	-3.392628	-0.101166	-0.457115
H45	H	-3.405557	-0.102440	-0.393376
H46	H	-4.159702	-0.115063	-0.731301
O47	O	-3.666479	-0.101825	-0.834502
H48	H	-3.619192	-0.044020	-0.788076
H49	H	-4.256147	-0.565146	-0.248077
H50	H	-3.774216	-0.572527	-0.357553
H51	H	-4.170629	-0.686469	-0.364813
H52	H	-4.085236	-0.646515	-0.122696
H53	H	-3.758150	-0.101479	-0.996433
O54	O	-4.146365	-0.118734	-0.473928
H55	H	-4.265979	-0.178548	-0.500316
O56	O	-3.555363	-0.660887	-0.231139
H57	H	-3.486430	-0.645513	-0.284053
O58	O	-4.193074	-0.117166	-0.645721
H59	H	-4.307552	-0.120490	-0.605910
O60	O	-3.654906	-0.102766	-0.758766
H61	H	-3.535254	-0.042957	-0.732396
H62	H	-4.375258	-0.118159	-0.861160
O63	O	-4.466939	-0.117809	-1.023089
H64	H	-4.454005	-0.116509	-1.086824
H65	H	-3.484326	-0.100844	-0.619062
