data_functionalizedCrystal
_audit_creation_method	'MofGen! by Chris Wilmer'
_symmetry_space_group_name_H-M	'P1'
_symmetry_Int_Tables_number	1
_symmetry_cell_setting	triclinic
loop_
_symmetry_equiv_pos_as_xyz
  x,y,z
_cell_length_a	14.908571
_cell_length_b	12.759400
_cell_length_c	14.908858
_cell_angle_alpha	86.673995
_cell_angle_beta	89.795097
_cell_angle_gamma	86.710990
loop_
_atom_site_label
_atom_site_type_symbol
_atom_site_fract_x
_atom_site_fract_y
_atom_site_fract_z
Zn1	Zn	1.345360	-0.469297	-0.587610
Zn2	Zn	1.353950	-0.655687	-0.437252
Zn3	Zn	1.203669	-0.470490	-0.428604
Zn4	Zn	1.194982	-0.635398	-0.578907
O5	O	1.274490	-0.557718	-0.508093
O6	O	1.472327	-0.502013	-0.574927
O7	O	1.341245	-0.640111	-0.310278
O8	O	1.222505	-0.323312	-0.449720
O9	O	1.478637	-0.638954	-0.464459
O10	O	1.326605	-0.322435	-0.566541
O11	O	1.230834	-0.504047	-0.303924
O12	O	1.076689	-0.484374	-0.441280
O13	O	1.207700	-0.604374	-0.705889
O14	O	1.070307	-0.605531	-0.551707
O15	O	1.318182	-0.482340	-0.712283
O16	O	1.332822	-0.800016	-0.456020
O17	O	1.216029	-0.785109	-0.560093
C18	C	1.040873	-0.542881	-0.494611
C19	C	0.940929	-0.536558	-0.488865
C20	C	1.274438	-0.830683	-0.508072
C21	C	1.274496	-0.947462	-0.508097
C22	C	0.746536	-0.651056	-0.592900
C23	C	0.652629	-0.645117	-0.587504
C24	C	0.659208	-0.518737	-0.472682
C25	C	0.753114	-0.524676	-0.478078
C26	C	0.796775	-0.590838	-0.538188
C27	C	0.890683	-0.596782	-0.543579
C28	C	0.897260	-0.470397	-0.428762
C29	C	0.803354	-0.464458	-0.423366
C30	C	1.335370	-1.010051	-0.453973
C31	C	1.335424	-1.119776	-0.454004
C32	C	1.213721	-1.104315	-0.562284
C33	C	1.213672	-0.994591	-0.562258
C34	C	1.396194	-0.962922	-0.399813
C35	C	1.457072	-1.025511	-0.345684
C36	C	1.457126	-1.135236	-0.345715
C37	C	1.396301	-1.182373	-0.399875
C38	C	1.509020	-0.572614	-0.521628
C39	C	1.608962	-0.578961	-0.527396
C40	C	1.261014	-0.540961	-0.742624
C41	C	1.255271	-0.533820	-0.842567
C42	C	1.274566	-0.283687	-0.508136
C43	C	1.274598	-0.166911	-0.508155
C44	C	1.189698	-0.452917	-0.980123
C45	C	1.195090	-0.459624	-0.886218
C46	C	1.310064	-0.601311	-0.892828
C47	C	1.304672	-0.594603	-0.986734
C48	C	1.244486	-0.520405	-1.030378
C49	C	1.239089	-0.513703	-1.124285
C50	C	1.354067	-0.655384	-1.130893
C51	C	1.359460	-0.662091	-1.036988
C52	C	1.287966	-0.574338	-0.274478
C53	C	1.293883	-0.581194	-0.174546
H54	H	0.926230	-0.650657	-0.592522
H55	H	1.396155	-0.873579	-0.399779
C56	C	0.597369	-0.711369	-0.647686
N57	N	0.555748	-0.761274	-0.693015
H58	H	1.140688	-0.392505	-1.015659
C59	C	0.952531	-0.404157	-0.368572
N60	N	0.994162	-0.354270	-0.323236
H61	H	1.506702	-1.186194	-0.301648
H62	H	1.150478	-0.404666	-0.845304
H63	H	1.398684	-0.710333	-1.171821
H64	H	1.359071	-0.661712	-0.857277
C65	C	0.794564	-0.723838	-0.659017
N66	N	0.830738	-0.778658	-0.708819
H67	H	0.623643	-0.464864	-0.423749
C68	C	1.523978	-0.973658	-0.286114
N69	N	1.574372	-0.934604	-0.241244
H70	H	1.408464	-0.722498	-1.001440
C71	C	0.755316	-0.391683	-0.357249
N72	N	0.719136	-0.336870	-0.307446
H73	H	1.396356	-1.271719	-0.399903
C74	C	1.146810	-1.156170	-0.621847
N75	N	1.096408	-1.195227	-0.666706
C76	C	1.146695	-0.925740	-0.621782
N77	N	1.096243	-0.873881	-0.666615
H78	H	1.190082	-0.453287	-1.159818
