data_functionalizedCrystal
_audit_creation_method	'MofGen! by Chris Wilmer'
_symmetry_space_group_name_H-M	'P1'
_symmetry_Int_Tables_number	1
_symmetry_cell_setting	triclinic
loop_
_symmetry_equiv_pos_as_xyz
  x,y,z
_cell_length_a	14.519709
_cell_length_b	10.723022
_cell_length_c	9.198806
_cell_angle_alpha	89.997988
_cell_angle_beta	90.001670
_cell_angle_gamma	84.073686
loop_
_atom_site_label
_atom_site_type_symbol
_atom_site_fract_x
_atom_site_fract_y
_atom_site_fract_z
O1	O	1.224702	0.163572	-0.120699
O2	O	0.956323	0.182835	-0.120743
O3	O	1.096704	-0.008431	-0.120715
O4	O	1.084321	0.354837	-0.120728
O5	O	1.096693	-0.008431	0.121070
O6	O	0.956312	0.182834	0.121042
O7	O	1.224691	0.163571	0.121086
Cu8	Cu	1.090500	0.173203	0.143141
Cu9	Cu	1.090513	0.173203	-0.142798
O10	O	1.084310	0.354837	0.121057
C11	C	0.921953	0.181937	0.000144
C12	C	0.819558	0.179247	0.000127
C13	C	0.444612	0.169343	0.000193
C14	C	0.548934	0.172093	0.000174
C15	C	0.632082	0.174294	0.000159
C16	C	0.736410	0.177045	0.000143
C17	C	1.095797	-0.054922	0.000176
C18	C	1.093102	-0.193452	0.000170
C19	C	1.259061	0.164469	0.000196
C20	C	1.361456	0.167159	0.000203
C21	C	1.012150	-0.241256	0.000154
C22	C	1.009362	-0.384432	0.000149
C23	C	1.085216	0.401328	0.000164
C24	C	1.087912	0.539858	0.000160
N25	N	1.090498	0.173202	0.344255
N26	N	1.090523	0.173195	-0.343912
C27	C	1.149439	0.092543	0.416464
C28	C	1.149454	0.092538	0.583876
H29	H	0.944907	-0.176184	0.000152
O30	O	1.170551	-0.410907	-0.000020
C31	C	1.176982	-0.336496	-0.125259
H32	H	1.104479	-0.304366	-0.167019
H33	H	1.214194	-0.251108	-0.097089
H34	H	1.217473	-0.393842	-0.212938
O35	O	0.926749	-0.433736	0.000194
C36	C	0.942357	-0.565714	0.000151
H37	H	1.014151	-0.595997	0.045938
H38	H	0.887839	-0.605907	0.070334
H39	H	0.937702	-0.601958	-0.115849
H40	H	1.160345	-0.258523	0.000186
O41	O	1.209523	0.010157	0.342178
C42	C	1.159450	-0.066719	0.254128
H43	H	1.087648	-0.017005	0.231517
H44	H	1.197716	-0.086315	0.147016
H45	H	1.152498	-0.158998	0.312648
O46	O	1.209616	0.009979	0.657788
C47	C	1.193588	-0.113527	0.620735
H48	H	1.158090	-0.113433	0.510190
H49	H	1.262414	-0.175024	0.615677
H50	H	1.147301	-0.151995	0.706375
O51	O	1.030444	0.255639	0.581869
C52	C	1.080536	0.332513	0.493847
H53	H	1.152316	0.282755	0.471182
H54	H	1.042254	0.352196	0.386759
H55	H	1.087544	0.424750	0.552418
H56	H	1.040042	0.242249	0.406373
