data_functionalizedCrystal
_audit_creation_method	'MofGen! by Chris Wilmer'
_symmetry_space_group_name_H-M	'P1'
_symmetry_Int_Tables_number	1
_symmetry_cell_setting	triclinic
loop_
_symmetry_equiv_pos_as_xyz
  x,y,z
_cell_length_a	17.038272
_cell_length_b	17.038272
_cell_length_c	16.098538
_cell_angle_alpha	92.920305
_cell_angle_beta	87.069734
_cell_angle_gamma	91.111556
loop_
_atom_site_label
_atom_site_type_symbol
_atom_site_fract_x
_atom_site_fract_y
_atom_site_fract_z
O1	O	1.052033	0.167266	-0.069152
O2	O	1.552033	0.667266	0.430848
O3	O	0.824222	0.164557	-0.069177
O4	O	1.324222	0.664557	0.430823
O5	O	0.936773	0.052006	-0.069158
O6	O	1.436773	0.552006	0.430842
O7	O	0.939482	0.279817	-0.069171
O8	O	1.439482	0.779817	0.430829
O9	O	0.930197	0.058553	0.069354
O10	O	1.430197	0.558553	0.569354
O11	O	0.817646	0.171104	0.069335
O12	O	1.317646	0.671104	0.569335
O13	O	1.045456	0.173813	0.069359
O14	O	1.545456	0.673813	0.569359
Zn15	Zn	0.930507	0.173498	0.091339
Zn16	Zn	1.430507	0.673498	0.591339
Zn17	Zn	0.939172	0.164872	-0.091156
Zn18	Zn	1.439172	0.664872	0.408844
O19	O	0.932905	0.286364	0.069341
O20	O	1.432905	0.786364	0.569341
C21	C	0.791641	0.165367	0.000076
C22	C	1.291641	0.665367	0.500076
C23	C	0.704358	0.158019	0.000067
C24	C	1.204358	0.658019	0.500067
C25	C	0.931022	0.025987	0.000097
C26	C	1.431022	0.525987	0.500097
C27	C	0.923674	-0.061297	0.000096
C28	C	1.423674	0.438703	0.500096
C29	C	0.658749	0.225482	0.000064
C30	C	1.158749	0.725482	0.500064
C31	C	0.576737	0.218574	0.000075
C32	C	1.076737	0.718574	0.500075
C33	C	0.540335	0.144201	0.000085
C34	C	1.040335	0.644201	0.500085
C35	C	0.585950	0.076733	0.000090
C36	C	1.085950	0.576733	0.500090
C37	C	0.667961	0.083642	0.000084
C38	C	1.167961	0.583642	0.500084
C39	C	0.292946	0.119792	0.000108
C40	C	0.792946	0.619792	0.500108
C41	C	0.210929	0.112887	0.000112
C42	C	0.710929	0.612887	0.500112
C43	C	0.201722	0.254729	0.000098
C44	C	0.701722	0.754729	0.500098
C45	C	0.283734	0.261632	0.000088
C46	C	0.783734	0.761632	0.500088
C47	C	0.329342	0.194164	0.000098
C48	C	0.829342	0.694164	0.500098
C49	C	0.456505	0.137138	0.000094
C50	C	0.956505	0.637138	0.500094
C51	C	0.413170	0.201228	0.000094
C52	C	0.913170	0.701228	0.500094
C53	C	0.991137	-0.106906	0.000104
C54	C	1.491137	0.393094	0.500104
C55	C	0.984229	-0.188918	0.000096
C56	C	1.484229	0.311082	0.500096
C57	C	0.909856	-0.225320	0.000085
C58	C	1.409856	0.274680	0.500085
C59	C	0.842388	-0.179705	0.000074
C60	C	1.342388	0.320295	0.500074
C61	C	0.849297	-0.097694	0.000077
C62	C	1.349297	0.402306	0.500077
C63	C	0.885446	-0.472708	0.000071
C64	C	1.385446	0.027292	0.500071
C65	C	0.878541	-0.554725	0.000071
C66	C	1.378541	-0.054725	0.500071
C67	C	1.020383	-0.563932	0.000091
C68	C	1.520383	-0.063932	0.500091
C69	C	1.027286	-0.481920	0.000098
C70	C	1.527286	0.018080	0.500098
C71	C	0.959818	-0.436312	0.000083
C72	C	1.459818	0.063688	0.500083
C73	C	0.902792	-0.309149	0.000079
C74	C	1.402792	0.190851	0.500079
C75	C	0.966882	-0.352485	0.000084
C76	C	1.466882	0.147515	0.500084
C77	C	1.078037	0.173002	0.000105
C78	C	1.578037	0.673002	0.500105
C79	C	1.165320	0.180351	0.000108
C80	C	1.665320	0.680351	0.500108
C81	C	0.938656	0.312383	0.000083
C82	C	1.438656	0.812383	0.500083
C83	C	0.946005	0.399666	0.000079
C84	C	1.446005	0.899666	0.500079
N85	N	0.924599	0.179385	0.215887
N86	N	1.424599	0.679385	0.715887
N87	N	0.945085	0.158979	-0.215705
N88	N	1.445085	0.658979	0.284295
C89	C	0.972390	0.131633	0.259480
C90	C	1.472390	0.631633	0.759480
C91	C	0.968265	0.135759	0.346668
C92	C	1.468265	0.635759	0.846668
C93	C	0.916352	0.187642	0.390262
C94	C	1.416352	0.687642	0.890262
C95	C	0.868556	0.235395	0.346663
C96	C	1.368556	0.735395	0.846663
C97	C	0.872678	0.231265	0.259476
C98	C	1.372678	0.731265	0.759476
C99	C	0.901410	0.202602	0.653510
C100	C	1.401410	0.702602	1.153510
C101	C	0.897294	0.206731	0.740702
C102	C	1.397294	0.706731	1.240702
C103	C	0.997003	0.107093	0.740702
C104	C	1.497003	0.607093	1.240702
C105	C	1.001123	0.102971	0.653513
C106	C	1.501123	0.602971	1.153513
C107	C	0.953324	0.150721	0.609922
C108	C	1.453324	0.650721	1.109922
C109	C	0.912136	0.191862	0.479383
C110	C	1.412136	0.691862	0.979383
C111	C	0.957536	0.146496	0.520803
C112	C	1.457536	0.646496	1.020803
H113	H	0.539605	0.273510	0.000072
H114	H	1.039605	0.773510	0.500072
H115	H	1.027437	-0.322844	0.000074
H116	H	1.527437	0.177156	0.500074
N117	N	1.017058	0.086976	0.391219
N118	N	1.517058	0.586976	0.891219
N119	N	1.065150	0.117443	0.439888
N120	N	1.565150	0.617443	0.939888
H121	H	1.099598	0.082980	0.471360
H122	H	1.599598	0.582980	0.971360
N123	N	0.155145	0.323651	0.000107
N124	N	0.655145	0.823651	0.500107
N125	N	0.187656	0.390050	0.000105
N126	N	0.687656	0.890050	0.500105
H127	H	0.154762	0.438731	0.000114
H128	H	0.654762	0.938731	0.500114
H129	H	1.043394	0.060724	0.618021
H130	H	1.543394	0.560724	1.118021
H131	H	1.087848	-0.452287	0.000107
H132	H	1.587848	0.047713	0.500107
N133	N	1.053142	-0.235501	0.000130
N134	N	1.553142	0.264499	0.500130
N135	N	1.062334	-0.279531	0.058522
N136	N	1.562334	0.220469	0.558522
H137	H	1.111009	-0.312430	0.058548
H138	H	1.611009	0.187570	0.558548
N139	N	0.695915	0.301460	0.000064
N140	N	1.195915	0.801460	0.500064
N141	N	0.680904	0.350931	0.058450
N142	N	1.180904	0.850931	0.558450
H143	H	0.707150	0.404594	0.058454
H144	H	1.207150	0.904594	0.558454
N145	N	1.089297	-0.610521	0.000081
N146	N	1.589297	-0.110521	0.500081
N147	N	1.140323	-0.607199	-0.058303
N148	N	1.640323	-0.107199	0.441697
H149	H	1.188997	-0.640103	-0.058314
H150	H	1.688997	-0.140103	0.441686
N151	N	0.419323	0.061168	0.000079
N152	N	0.919323	0.561168	0.500079
N153	N	0.434323	0.011697	-0.058310
N154	N	0.934323	0.511697	0.441690
H155	H	0.408061	-0.041958	-0.058321
H156	H	0.908061	0.458042	0.441679
N157	N	0.450336	0.277202	0.000093
N158	N	0.950336	0.777202	0.500093
N159	N	0.435331	0.326681	0.058474
N160	N	0.935331	0.826681	0.558474
H161	H	0.461585	0.380339	0.058472
H162	H	0.961585	0.880339	0.558472
N163	N	0.320932	0.337594	0.000077
N164	N	0.820932	0.837594	0.500077
N165	N	0.368434	0.354508	-0.058312
N166	N	0.868434	0.854508	0.441688
H167	H	0.394709	0.408156	-0.058322
H168	H	0.894709	0.908156	0.441678
H169	H	0.862492	0.241484	0.618024
H170	H	1.362492	0.741484	1.118024
H171	H	1.051699	-0.077274	0.000118
H172	H	1.551699	0.422726	0.500118
H173	H	0.817975	-0.584359	0.000075
H174	H	1.317975	-0.084359	0.500075
N175	N	0.816523	-0.426140	0.000062
N176	N	1.316523	0.073860	0.500062
N177	N	0.750125	-0.458654	0.000059
N178	N	1.250125	0.041346	0.500059
H179	H	0.701444	-0.425763	0.000055
H180	H	1.201444	0.074237	0.500055
N181	N	0.766424	-0.216898	0.000053
N182	N	1.266424	0.283102	0.500053
N183	N	0.760263	-0.290122	0.000051
N184	N	1.260263	0.209878	0.500051
H185	H	0.706611	-0.316390	0.000037
H186	H	1.206611	0.183610	0.500037
N187	N	0.173758	0.036907	0.000119
N188	N	0.673758	0.536907	0.500119
N189	N	0.214486	-0.023326	0.000128
N190	N	0.714486	0.476674	0.500128
H191	H	0.188234	-0.076985	0.000131
H192	H	0.688234	0.423015	0.500131
H193	H	0.855019	0.248983	0.776192
H194	H	1.355019	0.748983	1.276192
N195	N	0.815526	0.288382	0.391203
N196	N	1.315526	0.788382	0.891203
N197	N	0.811852	0.292064	0.469047
N198	N	1.311852	0.792064	0.969047
H199	H	0.774400	0.329488	0.500504
H200	H	1.274400	0.829488	1.000504
N201	N	0.823874	0.280056	0.214944
N202	N	1.323874	0.780056	0.714944
N203	N	0.854332	0.328171	0.166282
N204	N	1.354332	0.828171	0.666282
H205	H	0.819862	0.362631	0.134832
H206	H	1.319862	0.862631	0.634832
N207	N	0.780378	-0.051116	0.000058
N208	N	1.280378	0.448884	0.500058
N209	N	0.713978	-0.083624	0.000044
N210	N	1.213978	0.416376	0.500044
H211	H	0.665300	-0.050730	0.000025
H212	H	1.165300	0.449270	0.500025
N213	N	0.826816	-0.346318	0.000073
N214	N	1.326816	0.153682	0.500073
N215	N	0.782865	-0.336830	-0.058311
N216	N	1.282865	0.163170	0.441689
H217	H	0.729205	-0.363080	-0.058315
H218	H	1.229205	0.136920	0.441685
N219	N	1.025378	0.078587	0.214967
N220	N	1.525378	0.578587	0.714967
N221	N	1.068009	0.035921	0.253904
N222	N	1.568009	0.535921	0.753904
H223	H	1.105414	-0.001565	0.222470
H224	H	1.605414	0.498435	0.722470
H225	H	1.035918	0.068216	0.776202
H226	H	1.535918	0.568216	1.276202
N227	N	0.859121	0.244871	0.523911
N228	N	1.359121	0.744871	1.023911
N229	N	0.865482	0.317072	0.514168
N230	N	1.365482	0.817072	1.014168
H231	H	0.828037	0.354508	0.545617
H232	H	1.328037	0.854508	1.045617
H233	H	0.999800	0.104250	0.485307
H234	H	1.499800	0.604250	0.985307
H235	H	0.556305	0.016177	0.000110
H236	H	1.056305	0.516177	0.500110
N237	N	0.339523	0.050876	0.000125
N238	N	0.839523	0.550876	0.500125
N239	N	0.330679	0.005379	0.058515
N240	N	0.830679	0.505379	0.558515
H241	H	0.363576	-0.043298	0.058527
H242	H	0.863576	0.456702	0.558527
N243	N	0.714553	0.014732	0.000104
N244	N	1.214553	0.514732	0.500104
N245	N	0.705714	-0.030759	0.058500
N246	N	1.205714	0.469241	0.558500
H247	H	0.738619	-0.079429	0.058520
H248	H	1.238619	0.420571	0.558520
