data_functionalizedCrystal
_audit_creation_method	'MofGen! by Chris Wilmer'
_symmetry_space_group_name_H-M	'P1'
_symmetry_Int_Tables_number	1
_symmetry_cell_setting	triclinic
loop_
_symmetry_equiv_pos_as_xyz
  x,y,z
_cell_length_a	20.919309
_cell_length_b	14.560438
_cell_length_c	14.560438
_cell_angle_alpha	90.001144
_cell_angle_beta	62.591815
_cell_angle_gamma	57.443049
loop_
_atom_site_label
_atom_site_type_symbol
_atom_site_fract_x
_atom_site_fract_y
_atom_site_fract_z
Zr1	Zr	0.700756	-0.159684	0.923949
O2	O	0.834318	-0.313798	0.784768
O3	O	0.567194	-0.107263	0.961436
O4	O	0.700754	-0.306330	0.968903
O5	O	0.700760	0.036407	0.777302
O6	O	0.700753	-0.306328	1.120043
O7	O	0.700758	-0.114731	0.777301
O8	O	0.461839	0.049766	1.106686
O9	O	0.939674	-0.319687	0.790659
O10	O	0.622130	-0.091160	1.096475
O11	O	0.622132	0.021632	0.983681
O12	O	0.779382	-0.212744	0.992473
O13	O	0.779384	-0.099952	0.879680
Zr14	Zr	0.700758	0.081366	1.165001
Zr15	Zr	0.700755	-0.159682	1.165000
Zr16	Zr	0.700759	0.081364	0.923950
Zr17	Zr	0.868787	-0.169077	0.933344
Zr18	Zr	0.532727	0.090759	1.155605
O19	O	0.834320	0.028945	1.127514
O20	O	0.834316	-0.313794	1.127512
O21	O	0.834322	0.028941	0.784770
O22	O	0.567196	0.235480	1.304181
O23	O	0.567192	-0.107259	1.304179
O24	O	0.567198	0.235476	0.961438
O25	O	0.700754	-0.114725	1.311648
O26	O	0.700760	0.228012	1.120046
O27	O	0.700761	0.228010	0.968906
O28	O	0.700756	0.036413	1.311649
O29	O	0.939673	-0.319685	0.982263
O30	O	0.461841	0.241367	1.106687
O31	O	0.461840	0.241369	1.298290
O32	O	0.461838	0.049768	1.298289
O33	O	0.939676	-0.128086	0.790661
O34	O	0.939675	-0.128084	0.982264
O35	O	0.622132	0.134426	1.096476
O36	O	0.622130	0.021634	1.209270
O37	O	0.779382	-0.099950	1.105268
O38	O	0.779384	0.012842	0.992475
C39	C	0.490576	-0.027411	1.032722
C40	C	0.419242	-0.023423	1.028733
C41	C	0.700759	-0.039163	0.742957
C42	C	0.700760	-0.039164	0.640624
C43	C	0.700761	0.262355	1.044477
C44	C	0.700762	0.364686	1.044477
C45	C	0.385728	-0.080426	1.085733
C46	C	0.318698	-0.076669	1.081988
C47	C	0.285187	-0.015915	1.021236
C48	C	0.318704	0.041095	0.964234
C49	C	0.385728	0.037344	0.967986
C50	C	0.082813	-0.001636	1.006967
C51	C	0.015786	0.002108	1.003216
C52	C	0.015783	-0.115655	1.120973
C53	C	0.082813	-0.119406	1.124714
C54	C	0.116320	-0.062392	1.067717
C55	C	0.216674	-0.012075	1.017403
C56	C	0.184828	-0.066225	1.071556
C57	C	0.910938	-0.050908	1.056228
C58	C	0.982272	-0.054895	1.060217
C59	C	0.700754	-0.340673	1.044473
C60	C	0.700752	-0.443004	1.044472
C61	C	0.782844	0.349299	0.990191
C62	C	0.782840	0.445454	0.990185
C63	C	0.618664	0.572381	1.098760
C64	C	0.618669	0.476227	1.098759
C65	C	0.700761	-0.122429	0.592547
C66	C	0.700755	-0.122422	0.496399
C67	C	0.700751	0.044119	0.496411
C68	C	0.700750	0.044117	0.592561
C69	C	0.700755	-0.039156	1.345993
C70	C	0.700754	-0.039154	1.448326
C71	C	0.490574	-0.027407	1.334240
C72	C	0.419240	-0.023419	1.432584
C73	C	0.490579	0.274104	1.032724
C74	C	0.419247	0.380422	1.028735
C75	C	0.490577	0.274107	1.334242
C76	C	0.419244	0.380427	1.432586
C77	C	0.910937	-0.352425	0.754708
C78	C	0.982270	-0.458745	0.656363
C79	C	0.910940	-0.050911	0.754709
C80	C	0.982275	-0.054899	0.656366
C81	C	0.910935	-0.352422	1.056226
C82	C	0.982267	-0.458740	1.060214
C83	C	0.385740	-0.080433	1.419889
C84	C	0.318723	-0.076708	1.512285
C85	C	0.285203	-0.015962	1.617374
C86	C	0.318709	0.041054	1.630067
C87	C	0.385729	0.037322	1.537672
C88	C	0.385749	0.489238	1.085740
C89	C	0.318734	0.589144	1.081989
C90	C	0.285214	0.580232	1.021239
C91	C	0.318718	0.471405	0.964227
C92	C	0.385737	0.371501	0.967973
C93	C	0.385744	0.371480	1.537657
C94	C	0.318729	0.471368	1.630072
C95	C	0.285210	0.580204	1.617413
C96	C	0.318716	0.589148	1.512331
C97	C	0.385735	0.489260	1.419919
C98	C	1.015778	-0.449798	0.551293
C99	C	1.082814	-0.549688	0.458880
C100	C	1.116337	-0.658523	0.471538
C101	C	1.082826	-0.667468	0.576620
C102	C	1.015796	-0.567579	0.669031
C103	C	1.015781	0.002104	0.669061
C104	C	1.082817	-0.001648	0.576666
C105	C	1.116339	-0.062398	0.471577
C106	C	1.082830	-0.119409	0.458884
C107	C	1.015800	-0.115663	0.551278
C108	C	1.015766	-0.449791	1.120975
C109	C	1.082782	-0.549679	1.124743
C110	C	1.116301	-0.658515	1.067745
C111	C	1.082796	-0.667461	1.006982
C112	C	1.015777	-0.567574	1.003220
H113	H	0.413013	-0.129904	1.135199
H114	H	0.849689	0.258482	0.945988
C115	C	1.119636	-0.539818	1.191570
H116	H	1.090083	-0.460692	1.224956
H117	H	1.108647	-0.574246	1.246687
H118	H	1.182918	-0.578417	1.144280
H119	H	1.170919	-0.065439	0.396353
H120	H	1.170873	-0.739840	1.070817
C121	C	0.978917	0.068935	0.784646
H122	H	1.008487	0.102333	0.778959
H123	H	0.915640	0.128193	0.821064
H124	H	0.989903	0.017496	0.825218
C125	C	0.873130	0.428525	0.930477
H126	H	0.922019	0.348324	0.898158
H127	H	0.876549	0.463388	0.874948
H128	H	0.876535	0.463402	0.981499
H129	H	1.110089	0.044783	0.587022
C130	C	0.528369	0.695072	1.158482
H131	H	0.540120	0.750136	1.150720
H132	H	0.494637	0.705395	1.127526
H133	H	0.494648	0.705382	1.234061
H134	H	0.700754	-0.190223	0.457259
C135	C	1.119705	-0.186219	0.343284
H136	H	1.164415	-0.180266	0.290084
H137	H	1.145856	-0.265144	0.336289
H138	H	1.071587	-0.154437	0.332153
H139	H	0.230638	0.661530	1.692670
C140	C	0.700750	0.135710	0.645453
H141	H	0.700741	0.123787	0.709606
H142	H	0.753260	0.129328	0.594972
H143	H	0.648229	0.210528	0.664434
H144	H	1.110129	-0.756093	0.586914
H145	H	0.551824	0.488765	1.142965
H146	H	0.291407	0.090511	1.715642
C147	C	0.978939	-0.178355	0.537300
H148	H	1.008501	-0.215057	0.461478
H149	H	0.989913	-0.234690	0.572968
H150	H	0.915659	-0.123984	0.568810
C151	C	0.422561	0.100058	1.551649
H152	H	0.392987	0.136777	1.627470
H153	H	0.485840	0.045721	1.520132
H154	H	0.411559	0.156402	1.515986
H155	H	1.110098	-0.756089	0.960576
C156	C	0.978947	-0.577427	0.936361
H157	H	0.934230	-0.502357	0.942278
H158	H	1.027080	-0.620077	0.861599
H159	H	0.952796	-0.615918	0.963974
C160	C	0.422621	0.499063	1.152554
H161	H	0.393074	0.578184	1.185948
H162	H	0.411638	0.464626	1.207664
H163	H	0.485903	0.460460	1.105252
C164	C	0.281830	0.461617	0.897421
H165	H	0.237111	0.536707	0.903375
H166	H	0.329932	0.418979	0.822645
H167	H	0.255667	0.423145	0.925054
H168	H	0.700767	-0.190239	0.631679
C169	C	0.281831	0.708870	1.498421
H170	H	0.237111	0.767070	1.568511
H171	H	0.329934	0.714640	1.461161
H172	H	0.255668	0.718770	1.457021
C173	C	0.422609	0.251771	1.551597
H174	H	0.467318	0.193552	1.481518
H175	H	0.448760	0.241878	1.593005
H176	H	0.374488	0.246029	1.588863
H177	H	0.988514	-0.574877	0.754582
H178	H	0.110083	0.044794	0.960560
C179	C	0.281842	-0.139381	1.144680
H180	H	0.311408	-0.176114	1.181386
H181	H	0.218564	-0.085029	1.196861
H182	H	0.292833	-0.195712	1.094460
H183	H	0.230630	-0.012931	1.692598
C184	C	0.119670	-0.186235	1.191542
H185	H	0.090105	-0.219641	1.224960
H186	H	0.182947	-0.245488	1.144258
H187	H	0.108680	-0.134797	1.246652
H188	H	0.988485	-0.361181	1.167391
H189	H	0.189382	0.037391	0.967939
C190	C	0.700752	0.135711	0.443531
H191	H	0.700763	0.123781	0.379375
H192	H	0.648241	0.210526	0.494017
H193	H	0.753272	0.129312	0.424558
H194	H	1.110087	-0.542383	0.373327
H195	H	0.291455	0.464065	1.715625
H196	H	0.413032	-0.129914	1.334329
H197	H	0.291450	-0.123138	1.501929
H198	H	0.413002	0.282902	0.921555
C199	C	0.281883	0.708841	1.144709
H200	H	0.237176	0.767071	1.133774
H201	H	0.255734	0.718730	1.220707
H202	H	0.330012	0.714570	1.118322
H203	H	0.413002	0.496561	1.334369
C204	C	-0.021085	-0.178351	1.183676
H205	H	-0.065808	-0.167409	1.172752
H206	H	0.027026	-0.258501	1.157298
H207	H	-0.047239	-0.147799	1.259680
H208	H	0.291410	0.090569	0.914774
H209	H	0.230643	0.661590	1.018198
H210	H	0.988487	-0.361188	0.540965
H211	H	-0.011495	0.051581	0.953739
H212	H	1.170917	-0.739850	0.396282
H213	H	0.413017	0.083759	0.921568
H214	H	0.212111	-0.115686	1.121026
