data_functionalizedCrystal
_audit_creation_method	'MofGen! by Chris Wilmer'
_symmetry_space_group_name_H-M	'P1'
_symmetry_Int_Tables_number	1
_symmetry_cell_setting	triclinic
loop_
_symmetry_equiv_pos_as_xyz
  x,y,z
_cell_length_a	6.817900
_cell_length_b	17.458011
_cell_length_c	15.185107
_cell_angle_alpha	94.535315
_cell_angle_beta	104.257894
_cell_angle_gamma	106.367272
loop_
_atom_site_label
_atom_site_type_symbol
_atom_site_fract_x
_atom_site_fract_y
_atom_site_fract_z
V1	V	-4.050384	-0.111123	-0.284216
O2	O	-4.022031	0.004768	-0.277966
O3	O	-4.016566	-0.219789	-0.283079
O4	O	-4.005521	-0.109665	-0.407804
O5	O	-4.033153	-0.106118	-0.152378
V6	V	-4.531664	-0.097231	-0.268349
O7	O	-4.316562	-0.141595	-0.319021
O8	O	-4.715683	-0.066759	-0.233544
O9	O	-4.342275	0.011434	-0.269486
O10	O	-4.677414	-0.213123	-0.274599
O11	O	-4.666292	-0.102236	-0.400187
O12	O	-4.353320	-0.098690	-0.144761
C13	C	-3.865000	-0.246271	-0.278804
C14	C	-3.918661	-0.335108	-0.278698
C15	C	-4.240349	-0.835592	-0.278491
C16	C	-4.189920	-0.752121	-0.278603
C17	C	-3.981906	-0.706313	-0.274099
C18	C	-3.824307	-0.743977	-0.269475
C19	C	-3.874733	-0.827445	-0.269357
C20	C	-3.811488	-0.456241	-0.273956
C21	C	-3.761073	-0.372768	-0.274077
C22	C	-4.126690	-0.380917	-0.283203
C23	C	-4.177103	-0.464387	-0.283091
C24	C	-4.019498	-0.502044	-0.278461
N25	N	-3.930357	-0.620993	-0.274216
N26	N	-4.071045	-0.587362	-0.278338
C27	C	-3.850910	-0.105796	-0.437902
C28	C	-3.895610	-0.105322	-0.538941
C29	C	-4.135315	-0.176472	-0.979688
C30	C	-4.034269	-0.030049	-0.952610
C31	C	-3.992227	-0.030506	-0.857679
C32	C	-4.021730	-0.103947	-0.823749
C33	C	-4.093276	-0.176931	-0.884750
C34	C	-3.920699	0.042476	-0.796672
C35	C	-3.878654	0.042022	-0.701735
C36	C	-3.908143	-0.031419	-0.667803
C37	C	-3.979691	-0.104406	-0.728810
C38	C	-4.009195	-0.177847	-0.694880
C39	C	-4.080729	-0.250835	-0.755885
C40	C	-4.122766	-0.250373	-0.850818
C41	C	-3.866106	-0.031881	-0.572871
C42	C	-3.967156	-0.178307	-0.599941
C43	C	-4.157184	0.037912	-0.273759
C44	C	-4.082762	0.126749	-0.273870
C45	C	-4.171274	-0.102561	-0.114659
C46	C	-4.105812	-0.103031	-0.013618
H47	H	-3.746410	-0.858107	-0.265601
O48	O	-4.005279	0.041346	-0.985446
C49	C	-3.790595	0.089567	-0.949629
H50	H	-3.716520	0.069682	-0.883085
H51	H	-3.782009	0.155670	-0.934983
H52	H	-3.699659	0.082342	-1.001856
H53	H	-3.896696	0.102268	-0.824306
H54	H	-3.807877	0.027544	-0.523206
O55	O	-4.204902	-0.247298	-1.039071
C56	C	-4.235621	-0.231150	-1.130138
H57	H	-4.261430	-0.169557	-1.133087
H58	H	-4.381212	-0.279863	-1.177335
H59	H	-4.089067	-0.230972	-1.153632
H60	H	-4.409735	-0.872885	-0.282164
O61	O	-3.809076	0.112994	-0.642605
C62	C	-3.792107	0.177910	-0.692913
H63	H	-3.773416	0.158161	-0.762945
H64	H	-3.647265	0.231109	-0.653549
H65	H	-3.941911	0.196954	-0.702924
O66	O	-3.558865	-0.328380	-0.269650
C67	C	-3.430580	-0.379517	-0.265559
H68	H	-3.504707	-0.436186	-0.237873
H69	H	-3.264548	-0.346374	-0.218019
H70	H	-3.418747	-0.397342	-0.337474
H71	H	-4.346486	-0.501680	-0.286759
H72	H	-4.318251	-0.721464	-0.282370
H73	H	-4.254997	-0.350248	-0.286971
H74	H	-3.683142	-0.486889	-0.270176
H75	H	-4.104757	-0.310631	-0.728247
O76	O	-3.622369	-0.699367	-0.265145
C77	C	-3.611637	-0.617617	-0.266221
H78	H	-3.777257	-0.613742	-0.299096
H79	H	-3.499350	-0.589469	-0.307733
H80	H	-3.549626	-0.583535	-0.192705
H81	H	-3.991175	-0.238112	-0.572324
O82	O	-4.192628	-0.321253	-0.910124
C83	C	-4.393613	-0.329149	-0.970264
H84	H	-4.473646	-0.290397	-0.937044
H85	H	-4.497077	-0.395169	-0.984799
H86	H	-4.372639	-0.308267	-1.037577
