data_functionalizedCrystal
_audit_creation_method	'MofGen! by Chris Wilmer'
_symmetry_space_group_name_H-M	'P1'
_symmetry_Int_Tables_number	1
_symmetry_cell_setting	triclinic
loop_
_symmetry_equiv_pos_as_xyz
  x,y,z
_cell_length_a	16.109301
_cell_length_b	16.109301
_cell_length_c	15.186229
_cell_angle_alpha	89.994833
_cell_angle_beta	89.999362
_cell_angle_gamma	83.461481
loop_
_atom_site_label
_atom_site_type_symbol
_atom_site_fract_x
_atom_site_fract_y
_atom_site_fract_z
O1	O	1.103131	0.106866	-0.073176
O2	O	0.861069	0.120165	-0.073190
O3	O	0.988749	-0.007515	-0.073174
O4	O	0.975450	0.234547	-0.073192
O5	O	0.988741	-0.007517	0.073284
O6	O	0.861060	0.120164	0.073267
O7	O	1.103122	0.106864	0.073282
Zn8	Zn	0.982090	0.113514	0.096528
Zn9	Zn	0.982101	0.113516	-0.096436
O10	O	0.975441	0.234545	0.073265
C11	C	0.830090	0.119626	0.000037
C12	C	0.737794	0.118011	0.000032
C13	C	0.988206	-0.038491	0.000056
C14	C	0.986591	-0.130786	0.000057
C15	C	0.515522	0.190018	0.000036
C16	C	0.428801	0.188494	0.000042
C17	C	0.448676	0.037006	0.000050
C18	C	0.535394	0.038530	0.000051
C19	C	0.568815	0.115039	0.000039
C20	C	0.395376	0.111990	0.000045
C21	C	0.301350	0.110337	0.000051
C22	C	0.662847	0.116693	0.000035
C23	C	1.058599	-0.353059	0.000047
C24	C	1.057075	-0.439779	0.000040
C25	C	0.905586	-0.419905	0.000034
C26	C	0.907111	-0.333186	0.000035
C27	C	0.983620	-0.299766	0.000046
C28	C	0.980571	-0.473205	0.000038
C29	C	0.978918	-0.567231	0.000030
C30	C	0.985273	-0.205734	0.000052
C31	C	1.134101	0.107404	0.000053
C32	C	1.226397	0.109019	0.000052
C33	C	0.975984	0.265521	0.000034
C34	C	0.977600	0.357816	0.000027
N35	N	0.982088	0.113511	0.228220
N36	N	0.982109	0.113512	-0.228129
C37	C	1.038644	0.056994	0.453950
C38	C	1.038647	0.056992	0.546140
C39	C	0.925547	0.170032	0.546135
C40	C	0.925541	0.170030	0.453947
C41	C	0.982094	0.113511	0.407857
C42	C	0.982103	0.113512	0.592235
C43	C	0.982105	0.113510	0.692191
C44	C	0.982091	0.113512	0.307894
H45	H	0.542730	0.252317	0.000034
C46	C	0.822499	-0.456147	-0.000152
C47	C	0.777185	-0.429071	-0.075514
C48	C	0.700645	-0.462448	-0.075720
H49	H	0.791525	-0.437880	0.050860
H50	H	0.832294	-0.515430	-0.000198
H51	H	0.767386	-0.369801	-0.075460
H52	H	0.808134	-0.447337	-0.126538
H53	H	0.710440	-0.521730	-0.075766
H54	H	0.669678	-0.444178	-0.024705
H55	H	0.669893	-0.444087	-0.126855
C56	C	1.138418	-0.497740	0.000179
C57	C	1.141956	-0.548132	0.075512
C58	C	1.216874	-0.601543	0.075661
H59	H	1.184268	-0.465518	0.000229
H60	H	1.140979	-0.532023	-0.050871
H61	H	1.139402	-0.513853	0.126548
H62	H	1.096123	-0.580371	0.075477
H63	H	1.219436	-0.635826	0.024612
H64	H	1.262719	-0.569315	0.075710
H65	H	1.219282	-0.635746	0.126770
C66	C	0.412227	-0.045973	0.000009
C67	C	0.324875	-0.031263	-0.000018
C68	C	0.291273	-0.107685	-0.000070
H69	H	0.430428	-0.076912	0.051069
H70	H	0.430477	-0.076849	-0.051083
H71	H	0.306633	-0.000400	0.051069
H72	H	0.306652	-0.000337	-0.051074
H73	H	0.309523	-0.138560	-0.051162
H74	H	0.309480	-0.138618	0.050991
H75	H	0.232002	-0.097714	-0.000096
C76	C	0.825725	-0.275278	-0.000148
C77	C	0.822172	-0.224923	-0.075510
C78	C	0.747212	-0.171577	-0.075719
H79	H	0.823090	-0.240960	0.050864
H80	H	0.779918	-0.307572	-0.000197
H81	H	0.867967	-0.192632	-0.075453
H82	H	0.824794	-0.259219	-0.126534
H83	H	0.701404	-0.203871	-0.075768
H84	H	0.744583	-0.137264	-0.024704
H85	H	0.744788	-0.137410	-0.126855
C86	C	0.593125	-0.042971	0.000008
C87	C	0.545298	-0.110300	-0.000013
C88	C	0.598450	-0.185387	-0.000060
H89	H	0.627384	-0.045643	0.051068
H90	H	0.627356	-0.045566	-0.051084
H91	H	0.511081	-0.107706	0.051074
H92	H	0.511040	-0.107655	-0.051069
H93	H	0.632681	-0.187982	-0.051153
H94	H	0.632706	-0.188051	0.051001
H95	H	0.566007	-0.231079	-0.000083
C96	C	1.141639	-0.316727	0.000229
C97	C	1.146955	-0.267547	0.075589
C98	C	1.223446	-0.234077	0.075789
H99	H	1.145465	-0.283249	-0.050784
H100	H	1.186099	-0.360867	0.000274
H101	H	1.102507	-0.223413	0.075537
H102	H	1.143144	-0.301006	0.126614
H103	H	1.267906	-0.278218	0.075834
H104	H	1.227265	-0.200603	0.024773
H105	H	1.227066	-0.200712	0.126924
C106	C	0.864115	0.231264	0.596292
C107	C	0.813255	0.186963	0.649248
C108	C	0.756662	0.243344	0.695473
H109	H	0.830351	0.264948	0.555739
H110	H	0.893994	0.265871	0.632297
H111	H	0.783378	0.152371	0.613246
H112	H	0.846995	0.153282	0.689818
H113	H	0.786541	0.277950	0.731478
H114	H	0.722905	0.277025	0.654913
H115	H	0.722153	0.213294	0.731414
C116	C	1.100074	-0.004467	0.404068
C117	C	1.149583	-0.053978	0.464172
C118	C	1.206173	-0.110614	0.418256
H119	H	1.134752	0.025350	0.368095
H120	H	1.070195	-0.039131	0.368133
H121	H	1.179460	-0.019318	0.500093
H122	H	1.114927	-0.083813	0.500147
H123	H	1.176293	-0.145279	0.382320
H124	H	1.240845	-0.080790	0.382285
H125	H	1.239765	-0.144220	0.459029
C126	C	1.099914	-0.004465	0.596231
C127	C	1.055648	-0.055391	0.649146
C128	C	1.112060	-0.112025	0.695292
H129	H	1.134535	0.025355	0.632261
H130	H	1.133579	-0.038172	0.555603
H131	H	1.021997	-0.021688	0.689769
H132	H	1.021029	-0.085229	0.613138
H133	H	1.145725	-0.145731	0.654665
H134	H	1.146678	-0.082197	0.731317
H135	H	1.082034	-0.146589	0.731194
H136	H	0.879487	0.216053	0.416415
H137	H	0.385413	0.249550	0.000041
