data_functionalizedCrystal
_audit_creation_method	'MofGen! by Chris Wilmer'
_symmetry_space_group_name_H-M	'P1'
_symmetry_Int_Tables_number	1
_symmetry_cell_setting	triclinic
loop_
_symmetry_equiv_pos_as_xyz
  x,y,z
_cell_length_a	10.723024
_cell_length_b	10.065875
_cell_length_c	10.723024
_cell_angle_alpha	98.874314
_cell_angle_beta	95.532131
_cell_angle_gamma	98.831087
loop_
_atom_site_label
_atom_site_type_symbol
_atom_site_fract_x
_atom_site_fract_y
_atom_site_fract_z
O1	O	1.675288	0.113481	-0.156842
O2	O	1.312136	0.113485	-0.173595
O3	O	1.502088	0.113478	0.016357
O4	O	1.485336	0.113488	-0.346794
O5	O	1.465868	-0.113509	-0.020011
O6	O	1.275917	-0.113502	-0.209963
O7	O	1.639068	-0.113506	-0.193210
Zn8	Zn	1.451742	-0.149543	-0.207361
Zn9	Zn	1.499463	0.149522	-0.159444
O10	O	1.449117	-0.113499	-0.383162
C11	C	1.247527	-0.000008	-0.190560
C12	C	1.108973	-0.000006	-0.186912
N13	N	1.419182	-0.353648	-0.240061
C14	C	1.033991	-0.000002	-0.293199
C15	C	0.890788	-0.000001	-0.289431
C16	C	1.488127	-0.421429	-0.170814
C17	C	1.463078	-0.578595	-0.195991
C18	C	1.703678	-0.000010	-0.176245
C19	C	1.842234	-0.000003	-0.179892
C20	C	1.482759	-0.000014	0.044673
C21	C	1.479112	-0.000009	0.183228
N22	N	1.532032	0.353627	-0.126734
C23	C	1.468446	-0.000004	-0.411477
C24	C	1.472094	0.000000	-0.550031
C25	C	1.585400	-0.000009	0.258210
C26	C	1.581633	-0.000004	0.401415
H27	H	1.075812	-0.000007	-0.386985
H28	H	1.381097	-0.000010	0.385542
C29	C	1.362314	0.116684	0.332391
C30	C	1.352499	-0.000004	0.239676
H31	H	1.284147	0.116680	0.367241
H32	H	1.380926	0.195821	0.294840
H33	H	1.428515	0.116671	0.397983
H34	H	1.286304	0.000014	0.174079
H35	H	1.333871	-0.079161	0.277226
C36	C	1.609699	-0.602473	0.095824
C37	C	1.636726	-0.567827	-0.021419
H38	H	1.674320	-0.554024	0.160871
H39	H	1.606509	-0.697786	0.092551
H40	H	1.529945	-0.579083	0.113572
H41	H	1.716476	-0.591227	-0.039171
H42	H	1.639931	-0.472493	-0.018147
H43	H	1.067156	0.000026	-0.093121
C44	C	1.023518	0.116677	-0.033485
C45	C	0.929200	-0.000006	-0.057046
H46	H	1.077217	0.116668	0.042350
H47	H	0.984783	0.195817	-0.024117
H48	H	1.072534	0.116665	-0.102705
H49	H	0.880178	0.000011	0.012170
H50	H	0.967938	-0.079167	-0.066405
H51	H	1.672623	-0.000009	0.465846
C52	C	0.746736	0.116691	-0.398442
C53	C	0.803815	0.000006	-0.412271
H54	H	0.693035	0.116688	-0.474279
H55	H	0.810728	0.195830	-0.382450
H56	H	0.697715	0.116677	-0.329226
H57	H	0.852844	0.000025	-0.481481
H58	H	0.739814	-0.079153	-0.428278
C59	C	1.566042	-0.377071	0.051750
C60	C	1.592852	-0.342670	-0.065637
H61	H	1.630696	-0.328433	0.116676
H62	H	1.562978	-0.472344	0.048656
H63	H	1.486276	-0.353745	0.069536
H64	H	1.672614	-0.366006	-0.083428
H65	H	1.595930	-0.247377	-0.062544
C66	C	1.240791	-0.622904	-0.274937
C67	C	1.358348	-0.657315	-0.301191
H68	H	1.176138	-0.671511	-0.339878
H69	H	1.243893	-0.527625	-0.271830
H70	H	1.222609	-0.646262	-0.195305
H71	H	1.376535	-0.633947	-0.380819
H72	H	1.355249	-0.752615	-0.304312
C73	C	1.196901	-0.397961	-0.319002
C74	C	1.314458	-0.432372	-0.345256
H75	H	1.132247	-0.446568	-0.383943
H76	H	1.200002	-0.302682	-0.315895
H77	H	1.178719	-0.421319	-0.239371
H78	H	1.332644	-0.409004	-0.424884
H79	H	1.311358	-0.527672	-0.348378
H80	H	1.679184	-0.000018	0.216387
