data_functionalizedCrystal
_audit_creation_method	'MofGen! by Chris Wilmer'
_symmetry_space_group_name_H-M	'P1'
_symmetry_Int_Tables_number	1
_symmetry_cell_setting	triclinic
loop_
_symmetry_equiv_pos_as_xyz
  x,y,z
_cell_length_a	10.489711
_cell_length_b	16.992695
_cell_length_c	16.053802
_cell_angle_alpha	87.258926
_cell_angle_beta	87.391283
_cell_angle_gamma	92.402384
loop_
_atom_site_label
_atom_site_type_symbol
_atom_site_fract_x
_atom_site_fract_y
_atom_site_fract_z
O1	O	1.708745	-0.107302	-0.069461
O2	O	2.208745	0.392698	0.430539
O3	O	1.338451	-0.117716	-0.069456
O4	O	1.838451	0.382284	0.430544
O5	O	1.522113	0.001641	-0.069452
O6	O	2.022113	0.501641	0.430548
O7	O	1.525083	-0.226660	-0.069465
O8	O	2.025083	0.273340	0.430535
O9	O	1.512001	-0.004901	0.069407
O10	O	2.012001	0.495099	0.569407
O11	O	1.328338	-0.124259	0.069403
O12	O	1.828338	0.375741	0.569403
O13	O	1.698633	-0.113844	0.069398
O14	O	2.198633	0.386156	0.569398
Zn15	Zn	1.511880	-0.120090	0.091447
Zn16	Zn	2.011880	0.379910	0.591447
Zn17	Zn	1.525203	-0.111470	-0.091505
Zn18	Zn	2.025203	0.388530	0.408495
O19	O	1.514971	-0.233202	0.069394
O20	O	2.014971	0.266798	0.569394
C21	C	1.285794	-0.120206	-0.000026
C22	C	1.785794	0.379794	0.499974
C23	C	1.143959	-0.117868	-0.000024
C24	C	1.643959	0.382132	0.499976
C25	C	0.967818	-0.189645	-0.000038
C26	C	1.467818	0.310355	0.499962
C27	C	1.061830	-0.150565	-0.068499
C28	C	1.561830	0.349435	0.431501
C29	C	1.051832	-0.156997	0.068405
C30	C	1.551832	0.343003	0.568405
C31	C	0.985273	-0.074579	-0.068559
C32	C	1.485273	0.425421	0.431441
C33	C	0.975262	-0.081023	0.068406
C34	C	1.475262	0.418977	0.568406
C35	C	1.069242	-0.041888	-0.000072
C36	C	1.569242	0.458112	0.499928
C37	C	1.513238	0.027604	-0.000022
C38	C	2.013238	0.527604	0.499978
C39	C	1.501842	0.114712	-0.000022
C40	C	2.001842	0.614712	0.499978
C41	C	1.751290	-0.111355	-0.000034
C42	C	2.251290	0.388645	0.499966
C43	C	1.893125	-0.113693	-0.000041
C44	C	2.393125	0.386307	0.499959
C45	C	1.523846	-0.259165	-0.000037
C46	C	2.023846	0.240835	0.499963
C47	C	1.535242	-0.346272	-0.000043
C48	C	2.035242	0.153728	0.499957
N49	N	1.502797	-0.125973	0.216307
N50	N	2.002797	0.374027	0.716307
C51	C	1.611793	0.164339	-0.000023
C52	C	2.111793	0.664339	0.499977
C53	C	1.601078	0.246185	-0.000031
C54	C	2.101078	0.746185	0.499969
C55	C	1.480412	0.278403	-0.000032
C56	C	1.980412	0.778403	0.499968
C57	C	1.370454	0.228770	-0.000034
C58	C	1.870454	0.728770	0.499966
C59	C	1.381170	0.146925	-0.000032
C60	C	1.881170	0.646925	0.499968
C61	C	1.436000	0.522250	-0.000043
C62	C	1.936000	1.022250	0.499957
C63	C	1.425292	0.604101	-0.000042
C64	C	1.925292	1.104101	0.499958
C65	C	1.655917	0.621510	-0.000041
C66	C	2.155917	1.121510	0.499959
C67	C	1.666622	0.539663	-0.000034
C68	C	2.166622	1.039663	0.499966
C69	C	1.556664	0.490037	-0.000040
C70	C	2.056664	0.990037	0.499960
N71	N	1.469458	0.362064	-0.000037
N72	N	1.969458	0.862064	0.499963
N73	N	1.567621	0.406379	-0.000041
N74	N	2.067621	0.906379	0.499959
N75	N	1.534296	-0.105582	-0.216365
N76	N	2.034296	0.394418	0.283635
C77	C	1.580978	-0.075204	0.260003
C78	C	2.080978	0.424796	0.760003
C79	C	1.574637	-0.079327	0.347410
C80	C	2.074637	0.420673	0.847410
C81	C	1.490120	-0.134222	0.391119
C82	C	1.990120	0.365778	0.891119
C83	C	1.411931	-0.184993	0.347417
C84	C	1.911931	0.315007	0.847417
C85	C	1.418266	-0.180866	0.260012
C86	C	1.918266	0.319134	0.760012
C87	C	1.462442	-0.152226	0.652528
C88	C	1.962442	0.347774	1.152528
C89	C	1.456115	-0.156350	0.739939
C90	C	1.956115	0.343650	1.239939
C91	C	1.618821	-0.050683	0.739926
C92	C	2.118821	0.449317	1.239926
C93	C	1.625154	-0.046564	0.652519
C94	C	2.125154	0.453436	1.152519
C95	C	1.546960	-0.097332	0.608825
C96	C	2.046960	0.402668	1.108825
N97	N	1.483639	-0.138439	0.480462
N98	N	1.983639	0.361561	0.980462
N99	N	1.553435	-0.093111	0.519483
N100	N	2.053435	0.406889	1.019483
H101	H	1.710051	0.138113	-0.000017
H102	H	2.210051	0.638113	0.499983
Cl103	Cl	0.899486	-0.286021	-0.000145
Cl104	Cl	1.399486	0.213979	0.499855
H105	H	1.638297	-0.037987	0.382986
H106	H	2.138297	0.462013	0.882986
Cl107	Cl	1.242941	0.084537	-0.000035
Cl108	Cl	1.742941	0.584537	0.499965
H109	H	1.113266	0.020599	-0.000103
H110	H	1.613266	0.520599	0.499897
Cl111	Cl	1.717111	0.013139	0.794859
Cl112	Cl	2.217111	0.513139	1.294859
H113	H	1.354601	-0.222206	0.224436
H114	H	1.854601	0.277794	0.724436
Cl115	Cl	1.687240	-0.006193	0.205063
Cl116	Cl	2.187240	0.493807	0.705063
Cl117	Cl	1.818325	0.499168	-0.000059
Cl118	Cl	2.318325	0.999168	0.499941
Cl119	Cl	1.120494	-0.195969	-0.157869
Cl120	Cl	1.620494	0.304031	0.342131
Cl121	Cl	1.731406	0.022447	0.597570
Cl122	Cl	2.231406	0.522447	1.097570
Cl123	Cl	1.297765	0.459874	-0.000053
Cl124	Cl	1.797765	0.959874	0.499947
Cl125	Cl	1.794141	0.683901	-0.000035
Cl126	Cl	2.294141	1.183901	0.499965
Cl127	Cl	0.916536	-0.035657	0.157778
Cl128	Cl	1.416536	0.464343	0.657778
H129	H	1.327025	0.630328	-0.000030
H130	H	1.827025	1.130328	0.499970
Cl131	Cl	1.218759	0.269274	-0.000046
Cl132	Cl	1.718759	0.769274	0.499954
Cl133	Cl	1.097442	-0.210843	0.157765
Cl134	Cl	1.597442	0.289157	0.657765
Cl135	Cl	1.349857	-0.225370	0.794882
Cl136	Cl	1.849857	0.274630	1.294882
Cl137	Cl	1.364149	-0.216050	0.597604
Cl138	Cl	1.864149	0.283950	1.097604
Cl139	Cl	1.305673	-0.254002	0.402364
Cl140	Cl	1.805673	0.245998	0.902364
H141	H	0.955891	-0.039741	-0.126506
H142	H	1.455891	0.460259	0.373494
Cl143	Cl	1.739309	0.308571	-0.000029
Cl144	Cl	2.239309	0.808571	0.499971
