data_functionalizedCrystal
_audit_creation_method	'MofGen! by Chris Wilmer'
_symmetry_space_group_name_H-M	'P1'
_symmetry_Int_Tables_number	1
_symmetry_cell_setting	triclinic
loop_
_symmetry_equiv_pos_as_xyz
  x,y,z
_cell_length_a	16.974829
_cell_length_b	14.044220
_cell_length_c	16.053789
_cell_angle_alpha	92.661029
_cell_angle_beta	96.542606
_cell_angle_gamma	88.283427
loop_
_atom_site_label
_atom_site_type_symbol
_atom_site_fract_x
_atom_site_fract_y
_atom_site_fract_z
O1	O	1.064233	0.128083	0.141338
O2	O	1.564233	0.628083	0.641338
O3	O	0.834390	0.142665	0.125810
O4	O	1.334390	0.642665	0.625810
O5	O	0.945861	-0.002618	0.133333
O6	O	1.445861	0.497382	0.633333
O7	O	0.952762	0.273367	0.133816
O8	O	1.452762	0.773367	0.633816
O9	O	0.939381	-0.009766	-0.005965
O10	O	1.439381	0.490234	0.494035
O11	O	0.827910	0.135518	-0.013487
O12	O	1.327910	0.635518	0.486513
O13	O	1.057752	0.120936	0.002040
O14	O	1.557752	0.620936	0.502040
Zn15	Zn	0.941802	0.127092	-0.027840
Zn16	Zn	1.441802	0.627092	0.472160
Zn17	Zn	0.950341	0.136509	0.155691
Zn18	Zn	1.450341	0.636509	0.655691
O19	O	0.946281	0.266220	-0.005482
O20	O	1.446281	0.766220	0.494518
C21	C	0.801557	0.138403	0.054162
C22	C	1.301557	0.638403	0.554162
C23	C	0.713380	0.136339	0.048205
C24	C	1.213380	0.636339	0.548205
C25	C	0.216655	0.124336	0.006521
C26	C	0.716655	0.624336	0.506521
C27	C	0.299507	0.126275	0.012120
C28	C	0.799507	0.626275	0.512120
C29	C	0.344466	0.131134	0.090852
C30	C	0.844466	0.631134	0.590852
C31	C	0.306568	0.134063	0.163990
C32	C	0.806568	0.634063	0.663990
C33	C	0.223718	0.132130	0.158390
C34	C	0.723718	0.632130	0.658390
C35	C	0.592632	0.137336	0.115743
C36	C	1.092632	0.637336	0.615743
C37	C	0.675488	0.139265	0.121337
C38	C	1.175488	0.639265	0.621337
C39	C	0.668421	0.131480	-0.030533
C40	C	1.168421	0.631480	0.469467
C41	C	0.585569	0.129542	-0.036126
C42	C	1.085569	0.629542	0.463874
C43	C	0.547679	0.132476	0.037011
C44	C	1.047679	0.632476	0.537011
N45	N	0.429154	0.133113	0.096577
N46	N	0.929154	0.633113	0.596577
N47	N	0.462992	0.130504	0.031285
N48	N	0.962992	0.630504	0.531285
C49	C	0.939601	-0.041513	0.063480
C50	C	1.439601	0.458487	0.563480
C51	C	0.930592	-0.146759	0.062870
C52	C	1.430592	0.353241	0.562870
C53	C	0.914122	-0.339456	0.061769
C54	C	1.414122	0.160544	0.561769
C55	C	0.978018	-0.396948	0.066089
C56	C	1.478018	0.103052	0.566089
C57	C	0.968854	-0.504172	0.065476
C58	C	1.468854	-0.004172	0.565476
C59	C	0.923285	-0.232222	0.062382
C60	C	1.423285	0.267778	0.562382
C61	C	1.090585	0.125198	0.073690
C62	C	1.590585	0.625198	0.573690
C63	C	1.178763	0.127262	0.079653
C64	C	1.678763	0.627262	0.579653
C65	C	0.952542	0.305114	0.064373
C66	C	1.452542	0.805114	0.564373
C67	C	0.961551	0.410360	0.064988
C68	C	1.461551	0.910360	0.564988
N69	N	0.935980	0.120665	-0.153094
N70	N	1.435980	0.620665	0.346906
C71	C	0.986113	0.176057	-0.193394
C72	C	1.486113	0.676057	0.306606
C73	C	0.982051	0.171555	-0.281076
C74	C	1.482051	0.671555	0.218924
C75	C	0.927852	0.111665	-0.328457
C76	C	1.427852	0.611665	0.171543
C77	C	0.877717	0.056267	-0.288150
C78	C	1.377717	0.556267	0.211850
C79	C	0.881783	0.060765	-0.200470
C80	C	1.381783	0.560765	0.299530
C81	C	0.910099	0.092028	-0.591068
C82	C	1.410099	0.592028	-0.091068
C83	C	0.906035	0.087537	-0.678754
C84	C	1.406035	0.587537	-0.178754
C85	C	1.010371	0.202823	-0.671674
C86	C	1.510371	0.702823	-0.171674
C87	C	1.014430	0.207320	-0.583992
C88	C	1.514430	0.707320	-0.083992
C89	C	0.964297	0.151918	-0.543694
C90	C	1.464297	0.651918	-0.043694
N91	N	0.923697	0.107064	-0.418082
N92	N	1.423697	0.607064	0.081918
N93	N	0.968457	0.156515	-0.454070
N94	N	1.468457	0.656515	0.045930
N95	N	0.956168	0.142929	0.280946
N96	N	1.456168	0.642929	0.780946
H97	H	0.561792	0.139722	0.175297
H98	H	1.061792	0.639722	0.675297
F99	F	0.833630	-0.380373	0.056336
F100	F	1.333630	0.119627	0.556336
F101	F	1.035409	0.230512	-0.323963
F102	F	1.535409	0.730512	0.176037
F103	F	1.058515	-0.356032	0.071520
F104	F	1.558515	0.143968	0.571520
H105	H	0.548969	0.125565	-0.100238
H106	H	1.048969	0.625565	0.399762
F107	F	0.828431	0.001801	-0.157580
F108	F	1.328431	0.501801	0.342420
H109	H	0.712092	0.143230	0.185454
H110	H	1.212092	0.643230	0.685454
F111	F	0.168813	0.119157	-0.077277
F112	F	0.668813	0.619157	0.422723
H113	H	0.330354	0.123890	-0.047432
H114	H	0.830354	0.623890	0.452568
H115	H	0.343181	0.138024	0.228095
H116	H	0.843181	0.638024	0.728095
H117	H	1.030244	0.224831	-0.154823
H118	H	1.530244	0.724831	0.345177
H119	H	0.699280	0.129093	-0.090078
H120	H	1.199280	0.629093	0.409922
F121	F	1.072092	0.271094	-0.533574
F122	F	1.572092	0.771094	-0.033574
H123	H	0.192868	0.134516	0.217942
H124	H	0.692868	0.634516	0.717942
H125	H	1.051186	0.247928	-0.704495
H126	H	1.551186	0.747928	-0.204495
F127	F	0.848346	0.023791	-0.729179
F128	F	1.348346	0.523791	-0.229179
F129	F	0.856721	0.033093	-0.548192
F130	F	1.356721	0.533093	-0.048192
F131	F	0.820035	-0.007474	-0.338578
F132	F	1.320035	0.492526	0.161422
