data_functionalizedCrystal
_audit_creation_method	'MofGen! by Chris Wilmer'
_symmetry_space_group_name_H-M	'P1'
_symmetry_Int_Tables_number	1
_symmetry_cell_setting	triclinic
loop_
_symmetry_equiv_pos_as_xyz
  x,y,z
_cell_length_a	21.295419
_cell_length_b	21.295417
_cell_length_c	12.759393
_cell_angle_alpha	90.039170
_cell_angle_beta	90.021680
_cell_angle_gamma	90.045308
loop_
_atom_site_label
_atom_site_type_symbol
_atom_site_fract_x
_atom_site_fract_y
_atom_site_fract_z
Zn1	Zn	0.962338	-0.250323	0.594015
Zn2	Zn	1.295671	0.083010	0.927349
Zn3	Zn	1.629005	0.416343	1.260682
Zn4	Zn	0.962245	-0.355608	0.418312
Zn5	Zn	1.295579	-0.022274	0.751645
Zn6	Zn	1.628912	0.311059	1.084979
Zn7	Zn	0.857066	-0.250383	0.418345
Zn8	Zn	1.190400	0.082950	0.751678
Zn9	Zn	1.523733	0.416283	1.085012
Zn10	Zn	0.857030	-0.355586	0.593944
Zn11	Zn	1.190364	-0.022253	0.927277
Zn12	Zn	1.523697	0.311081	1.260610
O13	O	0.909670	-0.302975	0.506154
O14	O	1.243003	0.030358	0.839487
O15	O	1.576337	0.363692	1.172821
O16	O	1.050415	-0.264274	0.570724
O17	O	1.383748	0.069060	0.904057
O18	O	1.717082	0.402393	1.237391
O19	O	0.948270	-0.341683	0.271295
O20	O	1.281603	-0.008350	0.604629
O21	O	1.614936	0.324983	0.937962
O22	O	0.871084	-0.162286	0.441692
O23	O	1.204418	0.171047	0.775025
O24	O	1.537751	0.504381	1.108358
O25	O	1.050347	-0.341625	0.441636
O26	O	1.383680	-0.008292	0.774969
O27	O	1.717014	0.325041	1.108302
O28	O	0.948427	-0.162242	0.570756
O29	O	1.281760	0.171091	0.904089
O30	O	1.615094	0.504425	1.237423
O31	O	0.870995	-0.264376	0.271319
O32	O	1.204328	0.068958	0.604653
O33	O	1.537662	0.402291	0.937986
O34	O	0.768972	-0.264355	0.441622
O35	O	1.102305	0.068979	0.774956
O36	O	1.435639	0.402312	1.108289
O37	O	0.871023	-0.341589	0.740974
O38	O	1.204357	-0.008255	1.074308
O39	O	1.537690	0.325078	1.407641
O40	O	0.768946	-0.341647	0.570634
O41	O	1.102279	-0.008313	0.903967
O42	O	1.435612	0.325020	1.237301
O43	O	0.948392	-0.264253	0.741027
O44	O	1.281726	0.069081	1.074360
O45	O	1.615059	0.402414	1.407694
O46	O	0.948235	-0.443694	0.441566
O47	O	1.281568	-0.110361	0.774900
O48	O	1.614901	0.222973	1.108233
O49	O	0.870934	-0.443678	0.570602
O50	O	1.204267	-0.110345	0.903936
O51	O	1.537600	0.222988	1.237269
C52	C	0.746118	-0.303005	0.506125
C53	C	1.079452	0.030328	0.839458
C54	C	1.412785	0.363661	1.172791
C55	C	0.676150	-0.303033	0.506137
C56	C	1.009484	0.030300	0.839470
C57	C	1.342817	0.363633	1.172804
C58	C	0.643341	-0.262822	0.573457
C59	C	0.976675	0.070511	0.906790
C60	C	1.310008	0.403845	1.240124
C61	C	0.577599	-0.262805	0.573461
C62	C	0.910932	0.070528	0.906794
C63	C	1.244266	0.403861	1.240128
C64	C	0.544668	-0.303011	0.506156
C65	C	0.878001	0.030323	0.839489
C66	C	1.211334	0.363656	1.172823
C67	C	0.577485	-0.343225	0.438823
C68	C	0.910818	-0.009891	0.772156
C69	C	1.244151	0.323442	1.105489
C70	C	0.643226	-0.343236	0.438813
C71	C	0.976559	-0.009903	0.772147
C72	C	1.309892	0.323431	1.105480
N73	N	0.441393	-0.358090	0.497945
N74	N	0.774726	-0.024756	0.831278
N75	N	1.108059	0.308577	1.164612
N76	N	0.378941	-0.358077	0.497960
N77	N	0.712274	-0.024744	0.831294
N78	N	1.045608	0.308590	1.164627
C79	C	0.346593	-0.302978	0.506179
C80	C	0.679926	0.030355	0.839513
C81	C	1.013260	0.363688	1.172846
N82	N	0.379056	-0.247891	0.514403
N83	N	0.712389	0.085442	0.847736
N84	N	1.045722	0.418776	1.181070
N85	N	0.441513	-0.247904	0.514393
N86	N	0.774846	0.085429	0.847726
N87	N	1.108180	0.418762	1.181060
C88	C	0.473382	-0.303003	0.506158
C89	C	0.806716	0.030331	0.839492
C90	C	1.140049	0.363664	1.172825
C91	C	0.242499	-0.262745	0.573507
C92	C	0.575832	0.070588	0.906841
C93	C	0.909165	0.403921	1.240174
C94	C	0.176755	-0.262727	0.573504
C95	C	0.510088	0.070606	0.906837
C96	C	0.843422	0.403939	1.240171
C97	C	0.176642	-0.343153	0.438871
C98	C	0.509975	-0.009819	0.772205
C99	C	0.843309	0.323514	1.105538
C100	C	0.242384	-0.343165	0.438869
C101	C	0.575718	-0.009832	0.772202
C102	C	0.909051	0.323502	1.105536
C103	C	0.275309	-0.302962	0.506193
C104	C	0.608642	0.030371	0.839526
C105	C	0.941975	0.363705	1.172859
C106	C	0.909587	-0.466527	0.506096
C107	C	1.242921	-0.133193	0.839429
C108	C	1.576254	0.200140	1.172763
C109	C	0.909610	-0.536495	0.506106
C110	C	1.242943	-0.203161	0.839439
C111	C	1.576276	0.130172	1.172773
C112	C	0.949896	-0.569349	0.438986
C113	C	1.283230	-0.236015	0.772319
C114	C	1.616563	0.097318	1.105653
C115	C	0.949926	-0.635091	0.439010
C116	C	1.283259	-0.301758	0.772343
C117	C	1.616592	0.031575	1.105676
C118	C	0.909658	-0.667977	0.506142
C119	C	1.242991	-0.334644	0.839476
C120	C	1.576324	-0.001311	1.172809
C121	C	0.869368	-0.635115	0.573276
C122	C	1.202702	-0.301782	0.906609
C123	C	1.536035	0.031551	1.239942
C124	C	0.869344	-0.569374	0.573257
C125	C	1.202678	-0.236041	0.906591
C126	C	1.536011	0.097293	1.239924
N127	N	0.854590	-0.771257	0.514142
N128	N	1.187924	-0.437923	0.847475
N129	N	1.521257	-0.104590	1.180808
N130	N	0.854615	-0.833708	0.514153
N131	N	1.187948	-0.500375	0.847486
N132	N	1.521281	-0.167041	1.180820
C133	C	0.909728	-0.866052	0.506203
C134	C	1.243061	-0.532719	0.839536
C135	C	1.576395	-0.199385	1.172869
N136	N	0.964817	-0.833585	0.498220
N137	N	1.298151	-0.500252	0.831554
N138	N	1.631484	-0.166918	1.164887
N139	N	0.964792	-0.771128	0.498204
N140	N	1.298125	-0.437795	0.831537
N141	N	1.631459	-0.104461	1.164870
C142	C	0.909679	-0.739263	0.506170
C143	C	1.243013	-0.405929	0.839503
C144	C	1.576346	-0.072596	1.172837
C145	C	0.950050	-0.970191	0.439104
C146	C	1.283383	-0.636858	0.772438
C147	C	1.616717	-0.303525	1.105771
C148	C	0.950080	-1.035935	0.439136
C149	C	1.283414	-0.702602	0.772469
C150	C	1.616747	-0.369268	1.105802
C151	C	0.869517	-1.035958	0.573396
C152	C	1.202851	-0.702625	0.906729
C153	C	1.536184	-0.369291	1.240063
C154	C	0.869492	-0.970216	0.573370
C155	C	1.202826	-0.636882	0.906704
C156	C	1.536159	-0.303549	1.240037
C157	C	0.909758	-0.937336	0.506219
C158	C	1.243091	-0.604003	0.839552
C159	C	1.576424	-0.270670	1.172886
C160	C	1.073860	-0.302945	0.506184
C161	C	1.407194	0.030388	0.839518
C162	C	1.740527	0.363721	1.172851
C163	C	1.143828	-0.302932	0.506197
C164	C	1.477162	0.030401	0.839530
C165	C	1.810495	0.363734	1.172864
C166	C	0.909714	-0.302912	0.780188
C167	C	1.243047	0.030422	1.113521
C168	C	1.576381	0.363755	1.446854
C169	C	0.909733	-0.302884	0.896964
C170	C	1.243066	0.030449	1.230298
C171	C	1.576400	0.363782	1.563631
C172	C	0.909770	-0.138785	0.506235
C173	C	1.243103	0.194549	0.839569
C174	C	1.576437	0.527882	1.172902
C175	C	0.909813	-0.068817	0.506270
C176	C	1.243146	0.264517	0.839603
C177	C	1.576479	0.597850	1.172937
C178	C	0.909662	-0.302993	0.233187
C179	C	1.242996	0.030340	0.566520
C180	C	1.576329	0.363674	0.899853
C181	C	0.909766	-0.302843	0.116411
C182	C	1.243099	0.030491	0.449744
C183	C	1.576432	0.363824	0.783077
C184	C	0.950024	-0.262612	0.951855
C185	C	1.283358	0.070721	1.285189
C186	C	1.616691	0.404055	1.618522
C187	C	0.950039	-0.262589	1.061580
C188	C	1.283373	0.070744	1.394913
C189	C	1.616706	0.404078	1.728246
C190	C	0.869470	-0.343117	1.061512
C191	C	1.202803	-0.009784	1.394845
C192	C	1.536136	0.323550	1.728178
C193	C	0.869452	-0.343136	0.951790
C194	C	1.202785	-0.009803	1.285123
C195	C	1.536119	0.323531	1.618456
C196	C	0.996543	-0.216122	0.951895
C197	C	1.329876	0.117212	1.285229
C198	C	1.663209	0.450545	1.618562
C199	C	0.996558	-0.216099	1.061620
C200	C	1.329891	0.117235	1.394953
C201	C	1.663224	0.450568	1.728286
H202	H	0.550881	-0.230057	0.628280
H203	H	0.884214	0.103276	0.961613
H204	H	1.217547	0.436609	1.294946
Cl205	Cl	0.684729	-0.212280	0.658090
Cl206	Cl	1.018062	0.121053	0.991423
Cl207	Cl	1.351395	0.454387	1.324757
H208	H	0.982734	-0.661846	0.384353
H209	H	1.316067	-0.328513	0.717686
H210	H	1.649401	0.004820	1.051019
H211	H	0.269307	-0.230006	0.628320
H212	H	0.602641	0.103328	0.961653
H213	H	0.935974	0.436661	1.294986
Cl214	Cl	0.135509	-0.212168	0.658139
Cl215	Cl	0.468842	0.121165	0.991472
Cl216	Cl	0.802176	0.454498	1.324806
H217	H	1.045308	-0.229143	1.091400
H218	H	1.378642	0.104190	1.424733
H219	H	1.711975	0.437523	1.758066
Cl220	Cl	0.283632	-0.393716	0.354228
Cl221	Cl	0.616965	-0.060383	0.687561
Cl222	Cl	0.950299	0.272950	1.020895
Cl223	Cl	0.969556	-0.144627	1.114209
Cl224	Cl	1.302889	0.188706	1.447543
Cl225	Cl	1.636222	0.522039	1.780876
Cl226	Cl	0.818748	-0.676457	0.657676
Cl227	Cl	1.152082	-0.343123	0.991009
Cl228	Cl	1.485415	-0.009790	1.324343
H229	H	0.149830	-0.375889	0.384070
H230	H	0.483163	-0.042555	0.717403
H231	H	0.816497	0.290778	1.050737
Cl232	Cl	0.976426	-0.140863	0.905961
Cl233	Cl	1.309759	0.192471	1.239294
Cl234	Cl	1.643092	0.525804	1.572628
Cl235	Cl	0.684473	-0.393790	0.354172
Cl236	Cl	1.017807	-0.060457	0.687506
Cl237	Cl	1.351140	0.272876	1.020839
Cl238	Cl	0.818694	-0.528070	0.657643
Cl239	Cl	1.152027	-0.194736	0.990977
Cl240	Cl	1.485360	0.138597	1.324310
H241	H	0.836733	-1.062733	0.628061
H242	H	1.170066	-0.729400	0.961395
H243	H	1.503400	-0.396066	1.294728
Cl244	Cl	1.000668	-0.928854	0.354687
Cl245	Cl	1.334001	-0.595521	0.688021
Cl246	Cl	1.667334	-0.262188	1.021354
Cl247	Cl	0.818787	-0.393756	0.882787
Cl248	Cl	1.152121	-0.060423	1.216120
Cl249	Cl	1.485454	0.272910	1.549453
Cl250	Cl	1.068016	-0.243082	0.899338
Cl251	Cl	1.401349	0.090251	1.232672
Cl252	Cl	1.734682	0.423584	1.566005
H253	H	0.550668	-0.375960	0.384022
H254	H	0.884001	-0.042627	0.717355
H255	H	1.217334	0.290707	1.050688
Cl256	Cl	1.000736	-1.077238	0.354755
Cl257	Cl	1.334069	-0.743905	0.688089
Cl258	Cl	1.667402	-0.410571	1.021422
Cl259	Cl	1.000525	-0.528018	0.354583
Cl260	Cl	1.333858	-0.194685	0.687916
Cl261	Cl	1.667191	0.138648	1.021249
H262	H	0.836685	-0.943464	0.628022
H263	H	1.170018	-0.610131	0.961355
H264	H	1.503351	-0.276797	1.294688
Cl265	Cl	0.818834	-0.393716	1.130442
Cl266	Cl	1.152167	-0.060383	1.463776
Cl267	Cl	1.485500	0.272950	1.797109
