data_functionalizedCrystal
_audit_creation_method	'MofGen! by Chris Wilmer'
_symmetry_space_group_name_H-M	'P1'
_symmetry_Int_Tables_number	1
_symmetry_cell_setting	triclinic
loop_
_symmetry_equiv_pos_as_xyz
  x,y,z
_cell_length_a	21.295419
_cell_length_b	21.295417
_cell_length_c	21.295420
_cell_angle_alpha	90.005898
_cell_angle_beta	90.016964
_cell_angle_gamma	90.044503
loop_
_atom_site_label
_atom_site_type_symbol
_atom_site_fract_x
_atom_site_fract_y
_atom_site_fract_z
Zn1	Zn	0.962312	-0.250524	0.355916
Zn2	Zn	0.962230	-0.355749	0.250643
Zn3	Zn	0.857049	-0.250524	0.250661
Zn4	Zn	0.857006	-0.355786	0.355875
O5	O	0.909649	-0.303146	0.303273
O6	O	1.050390	-0.264466	0.341961
O7	O	0.948261	-0.341775	0.162556
O8	O	0.871065	-0.162435	0.264647
O9	O	1.050330	-0.341774	0.264617
O10	O	0.948401	-0.162434	0.341978
O11	O	0.870985	-0.264467	0.162569
O12	O	0.768954	-0.264504	0.264608
O13	O	0.870991	-0.341838	0.443969
O14	O	0.768922	-0.341839	0.341908
O15	O	0.948359	-0.264502	0.443999
O16	O	0.948219	-0.443843	0.264578
O17	O	0.870912	-0.443871	0.341891
C18	C	0.746098	-0.303176	0.303256
C19	C	0.676129	-0.303204	0.303263
C20	C	0.909569	-0.466697	0.303242
C21	C	0.909592	-0.536665	0.303249
C22	C	0.643317	-0.263015	0.343598
C23	C	0.577574	-0.262998	0.343600
C24	C	0.544647	-0.303181	0.303275
C25	C	0.577468	-0.343373	0.262932
C26	C	0.643209	-0.343384	0.262926
N27	N	0.441373	-0.358257	0.298356
N28	N	0.378921	-0.358245	0.298365
C29	C	0.346572	-0.303149	0.303289
N30	N	0.379034	-0.248065	0.308215
N31	N	0.441491	-0.248078	0.308209
C32	C	0.473362	-0.303173	0.303276
C33	C	0.242474	-0.262939	0.343628
C34	C	0.176730	-0.262921	0.343626
C35	C	0.176625	-0.343300	0.262961
C36	C	0.242367	-0.343313	0.262960
C37	C	0.275288	-0.303133	0.303297
C38	C	0.949838	-0.569475	0.343544
C39	C	0.949860	-0.635217	0.343559
C40	C	0.909643	-0.668148	0.303269
C41	C	0.869390	-0.635331	0.262971
C42	C	0.869364	-0.569589	0.262961
N43	N	0.904891	-0.771387	0.248178
N44	N	0.904919	-0.833839	0.248189
C45	C	0.909717	-0.866223	0.303297
N46	N	0.914498	-0.833796	0.358395
N47	N	0.914473	-0.771339	0.358383
C48	C	0.909666	-0.739433	0.303275
C49	C	0.949989	-0.970317	0.343612
C50	C	0.950007	-1.036061	0.343629
C51	C	0.869539	-1.036173	0.263035
C52	C	0.869518	-0.970431	0.263024
C53	C	0.909746	-0.937507	0.303312
C54	C	1.073839	-0.303116	0.303292
C55	C	1.143808	-0.303103	0.303299
C56	C	0.909680	-0.303174	0.467464
C57	C	0.909693	-0.303187	0.537432
C58	C	0.909747	-0.138955	0.303319
C59	C	0.909788	-0.068987	0.303339
C60	C	0.949972	-0.262925	0.570315
C61	C	0.949962	-0.262914	0.636058
C62	C	0.909680	-0.303177	0.668914
C63	C	0.869393	-0.343442	0.636023
C64	C	0.869399	-0.343447	0.570282
N65	N	0.904811	-0.358273	0.772131
N66	N	0.904808	-0.358266	0.834582
C67	C	0.909658	-0.303164	0.866989
N68	N	0.914522	-0.248067	0.834585
N69	N	0.914528	-0.248074	0.772128
C70	C	0.909669	-0.303176	0.740200
C71	C	0.949929	-0.262887	0.971158
C72	C	0.949915	-0.262876	1.036902
C73	C	0.869349	-0.343409	1.036866
C74	C	0.869360	-0.343415	0.971123
C75	C	0.909653	-0.303155	0.938273
C76	C	0.909622	-0.303136	1.139722
C77	C	0.909632	-0.303138	1.069754
H78	H	0.670117	-0.230297	0.376443
C79	C	0.825804	-0.934919	0.219199
C80	C	0.790599	-0.977826	0.183904
C81	C	0.750327	-0.945136	0.143519
H82	H	0.798296	-0.909295	0.243178
H83	H	0.849880	-0.909267	0.191756
H84	H	0.766525	-1.003467	0.211344
H85	H	0.818092	-1.003451	0.159913
H86	H	0.774403	-0.919484	0.116077
H87	H	0.722822	-0.919513	0.167503
H88	H	0.726440	-0.974243	0.119563
H89	H	0.982781	-0.230141	0.543573
H90	H	0.982743	-0.943509	0.376419
C91	C	0.993648	-0.219245	0.935373
C92	C	0.985050	-0.227883	0.870761
C93	C	1.025321	-0.187699	0.837779
H94	H	0.984502	-0.176924	0.946065
H95	H	1.035949	-0.228458	0.946132
H96	H	0.942759	-0.218666	0.860007
H97	H	0.994201	-0.270197	0.860051
H98	H	1.067622	-0.196912	0.848537
H99	H	1.016171	-0.145380	0.848475
H100	H	1.019497	-0.193559	0.793936
H101	H	0.836563	-0.376205	0.944349
C102	C	0.993671	-1.071603	0.387481
C103	C	0.979940	-1.055597	0.449750
C104	C	1.020158	-1.088319	0.490163
H105	H	0.987966	-1.115482	0.381807
H106	H	1.035977	-1.060768	0.378336
H107	H	0.937644	-1.066436	0.458891
H108	H	0.985648	-1.011724	0.455444
H109	H	1.062464	-1.077485	0.481018
H110	H	1.014450	-1.132196	0.484483
H111	H	1.010850	-1.077459	0.532416
H112	H	0.150015	-0.230190	0.376471
H113	H	0.982714	-0.230086	1.063674
C114	C	0.825688	-0.671161	0.219328
C115	C	0.785346	-0.708955	0.254939
C116	C	0.745082	-0.741976	0.214758
H117	H	0.801655	-0.642275	0.195313
H118	H	0.849779	-0.696821	0.191935
H119	H	0.761259	-0.683298	0.282321
H120	H	0.809363	-0.737853	0.278953
H121	H	0.769172	-0.767636	0.187365
H122	H	0.721053	-0.713086	0.190745
H123	H	0.717709	-0.767627	0.238913
H124	H	0.550853	-0.230269	0.376445
H125	H	0.836593	-0.376223	0.662779
H126	H	0.836790	-1.062985	0.230234
H127	H	0.550654	-0.376089	0.230098
C128	C	0.278335	-0.219379	0.387390
C129	C	0.342932	-0.228005	0.378768
C130	C	0.375985	-0.187894	0.419075
H131	H	0.267676	-0.177040	0.378294
H132	H	0.267603	-0.228667	0.429683
H133	H	0.353660	-0.218713	0.336484
H134	H	0.353610	-0.270335	0.387869
H135	H	0.365252	-0.197182	0.461368
H136	H	0.365320	-0.145558	0.409976
H137	H	0.419817	-0.193746	0.413235
H138	H	0.669925	-0.376111	0.230080
H139	H	0.836590	-0.542876	0.230148
C140	C	0.993768	-0.219177	0.671656
C141	C	1.029066	-0.183931	0.628816
C142	C	1.069432	-0.143641	0.661584
H143	H	0.969775	-0.191695	0.697297
H144	H	1.021209	-0.243242	0.697297
H145	H	1.001628	-0.159868	0.603187
H146	H	1.053071	-0.211396	0.603174
H147	H	1.096873	-0.167707	0.687225
H148	H	1.045434	-0.116163	0.687225
H149	H	1.093390	-0.119726	0.632523
C150	C	0.825687	-0.387107	1.072644
C151	C	0.834314	-0.378498	1.137257
C152	C	0.794109	-0.418749	1.170238
H153	H	0.783371	-0.377949	1.061932
H154	H	0.834888	-0.429413	1.061906
H155	H	0.825108	-0.336202	1.147990
H156	H	0.876622	-0.387661	1.147987
H157	H	0.803311	-0.461055	1.159500
H158	H	0.751796	-0.409588	1.159521
H159	H	0.799961	-0.412918	1.214081
C160	C	0.140770	-0.386906	0.219247
C161	C	0.076173	-0.378306	0.227895
C162	C	0.043121	-0.418471	0.187640
H163	H	0.151461	-0.377665	0.176942
H164	H	0.151471	-0.429232	0.228390
H165	H	0.065476	-0.335990	0.218747
H166	H	0.065463	-0.387552	0.270191
H167	H	0.053822	-0.460797	0.196783
H168	H	0.053817	-0.409226	0.145338
H169	H	-0.000712	-0.412645	0.193506
H170	H	0.269084	-0.376041	0.230117
H171	H	0.982628	-0.661936	0.376379
C172	C	0.993534	-0.533843	0.387355
C173	C	1.028774	-0.576653	0.422658
C174	C	1.069027	-0.543850	0.463029
H175	H	1.021022	-0.508169	0.363366
H176	H	0.969443	-0.508232	0.414793
H177	H	1.052864	-0.602253	0.395224
H178	H	1.001303	-0.602328	0.446660
H179	H	1.044936	-0.518240	0.490467
H180	H	1.096511	-0.518177	0.439035
H181	H	1.092938	-0.572892	0.486991
C182	C	0.825646	-0.387237	0.534689
C183	C	0.790375	-0.422507	0.577531
C184	C	0.750071	-0.462861	0.544765
H185	H	0.798181	-0.363237	0.509027
H186	H	0.849703	-0.414696	0.509069
H187	H	0.766321	-0.395052	0.603140
H188	H	0.817824	-0.446521	0.603194
H189	H	0.774128	-0.490321	0.519145
H190	H	0.722610	-0.438856	0.519105
H191	H	0.726139	-0.486801	0.573828
