data_functionalizedCrystal
_audit_creation_method	'MofGen! by Chris Wilmer'
_symmetry_space_group_name_H-M	'P1'
_symmetry_Int_Tables_number	1
_symmetry_cell_setting	triclinic
loop_
_symmetry_equiv_pos_as_xyz
  x,y,z
_cell_length_a	21.395364
_cell_length_b	19.805405
_cell_length_c	21.395356
_cell_angle_alpha	89.972988
_cell_angle_beta	89.983440
_cell_angle_gamma	90.024743
loop_
_atom_site_label
_atom_site_type_symbol
_atom_site_fract_x
_atom_site_fract_y
_atom_site_fract_z
Zn1	Zn	0.957827	-0.269524	-0.354258
Zn2	Zn	1.457827	0.230476	0.145742
Zn3	Zn	0.957753	-0.382708	-0.249478
Zn4	Zn	1.457753	0.117292	0.250522
Zn5	Zn	0.853057	-0.269535	-0.249495
Zn6	Zn	1.353057	0.230465	0.250505
Zn7	Zn	0.853019	-0.382673	-0.354218
Zn8	Zn	1.353019	0.117327	0.145782
O9	O	0.905414	-0.326110	-0.301862
O10	O	1.405414	0.173890	0.198138
O11	O	1.045495	-0.284548	-0.340369
O12	O	1.545495	0.215452	0.159631
O13	O	0.943849	-0.367715	-0.161802
O14	O	1.443849	0.132285	0.338198
O15	O	0.867002	-0.174817	-0.263415
O16	O	1.367002	0.325183	0.236585
O17	O	1.045440	-0.367704	-0.263387
O18	O	1.545440	0.132296	0.236613
O19	O	0.943976	-0.174809	-0.340385
O20	O	1.443976	0.325191	0.159615
O21	O	0.866930	-0.284567	-0.161815
O22	O	1.366930	0.215433	0.338185
O23	O	0.765374	-0.284533	-0.263377
O24	O	1.265374	0.215467	0.236623
O25	O	0.866938	-0.367645	-0.441901
O26	O	1.366938	0.132355	0.058099
O27	O	0.765346	-0.367655	-0.340316
O28	O	1.265346	0.132345	0.159684
O29	O	0.943940	-0.284515	-0.441931
O30	O	1.443940	0.215485	0.058069
O31	O	0.943812	-0.477420	-0.263349
O32	O	1.443812	0.022580	0.236651
O33	O	0.866865	-0.477395	-0.340300
O34	O	1.366865	0.022605	0.159700
C35	C	0.742626	-0.326092	-0.301844
C36	C	1.242626	0.173908	0.198156
C37	C	0.672985	-0.326101	-0.301851
C38	C	1.172985	0.173899	0.198149
C39	C	0.171191	-0.369471	-0.341886
C40	C	0.671191	0.130529	0.158114
C41	C	0.236626	-0.369471	-0.341880
C42	C	0.736626	0.130529	0.158120
C43	C	0.269347	-0.326125	-0.301882
C44	C	0.769347	0.173875	0.198118
C45	C	0.236627	-0.282788	-0.261877
C46	C	0.736627	0.217212	0.238123
C47	C	0.171192	-0.282793	-0.261880
C48	C	0.671192	0.217207	0.238120
C49	C	0.373032	-0.265127	-0.297032
C50	C	0.873032	0.234873	0.202968
C51	C	0.438465	-0.265120	-0.297033
C52	C	0.938465	0.234880	0.202967
C53	C	0.471168	-0.326107	-0.301868
C54	C	0.971168	0.173893	0.198132
C55	C	0.438429	-0.387103	-0.306715
C56	C	0.938429	0.112897	0.193285
C57	C	0.372995	-0.387109	-0.306719
C58	C	0.872995	0.112891	0.193281
C59	C	0.340299	-0.326114	-0.301874
C60	C	0.840299	0.173886	0.198126
C61	C	0.574833	-0.369445	-0.341861
C62	C	1.074833	0.130555	0.158139
C63	C	0.640269	-0.369447	-0.341850
C64	C	1.140269	0.130553	0.158150
C65	C	0.640268	-0.282757	-0.261851
C66	C	1.140268	0.217243	0.238149
C67	C	0.574833	-0.282762	-0.261858
C68	C	1.074833	0.217238	0.238142
C69	C	0.542119	-0.326105	-0.301867
C70	C	1.042119	0.173895	0.198133
C71	C	0.905344	-0.501966	-0.301832
C72	C	1.405344	-0.001966	0.198168
C73	C	0.905371	-0.577198	-0.301840
C74	C	1.405371	-0.077198	0.198160
C75	C	0.945476	-0.612533	-0.261813
C76	C	1.445476	-0.112533	0.238187
C77	C	0.945503	-0.683222	-0.261827
C78	C	1.445503	-0.183222	0.238173
C79	C	0.905420	-0.718574	-0.301865
C80	C	1.405420	-0.218574	0.198135
C81	C	0.865313	-0.683234	-0.341896
C82	C	1.365313	-0.183234	0.158104
C83	C	0.865290	-0.612547	-0.341885
C84	C	1.365290	-0.112547	0.158115
C85	C	0.865406	-0.968307	-0.341943
C86	C	1.365406	-0.468307	0.158057
C87	C	0.865430	-1.038999	-0.341949
C88	C	1.365430	-0.538999	0.158051
C89	C	0.945618	-1.038982	-0.261885
C90	C	1.445618	-0.538982	0.238115
C91	C	0.945595	-0.968295	-0.261873
C92	C	1.445595	-0.468295	0.238127
C93	C	0.905491	-0.932961	-0.301907
C94	C	1.405491	-0.432961	0.198093
C95	C	0.905463	-0.856313	-0.301892
C96	C	1.405463	-0.356313	0.198108
C97	C	0.905444	-0.795221	-0.301877
C98	C	1.405444	-0.295221	0.198123
C99	C	1.068837	-0.326129	-0.301881
C100	C	1.568837	0.173871	0.198119
C101	C	1.138479	-0.326137	-0.301889
C102	C	1.638479	0.173863	0.198111
C103	C	0.905443	-0.326075	-0.465286
C104	C	1.405443	0.173925	0.034714
C105	C	0.905455	-0.326059	-0.534927
C106	C	1.405455	0.173941	-0.034927
C107	C	0.905502	-0.149567	-0.301906
C108	C	1.405502	0.350433	0.198094
C109	C	0.905539	-0.074335	-0.301925
C110	C	1.405539	0.425665	0.198075
C111	C	0.945577	-0.369213	-1.036718
C112	C	1.445577	0.130787	-0.536718
C113	C	0.945566	-0.369234	-0.971282
C114	C	1.445566	0.130766	-0.471282
C115	C	0.905515	-0.325952	-0.938565
C116	C	1.405515	0.174048	-0.438565
C117	C	0.865460	-0.282658	-0.971290
C118	C	1.365460	0.217342	-0.471290
C119	C	0.865468	-0.282642	-1.036724
C120	C	1.365468	0.217358	-0.536724
C121	C	0.900585	-0.264995	-0.834912
C122	C	1.400585	0.235005	-0.334912
C123	C	0.900581	-0.265009	-0.769479
C124	C	1.400581	0.234991	-0.269479
C125	C	0.905487	-0.326000	-0.736745
C126	C	1.405487	0.174000	-0.236745
C127	C	0.910408	-0.386979	-0.769452
C128	C	1.410408	0.113021	-0.269452
C129	C	0.910416	-0.386963	-0.834886
C130	C	1.410416	0.113037	-0.334886
C131	C	0.905501	-0.325964	-0.867613
C132	C	1.405501	0.174036	-0.367613
C133	C	0.945523	-0.369318	-0.633076
C134	C	1.445523	0.130682	-0.133076
C135	C	0.945507	-0.369341	-0.567639
C136	C	1.445507	0.130659	-0.067639
C137	C	0.865405	-0.282759	-0.567648
C138	C	1.365405	0.217241	-0.067648
C139	C	0.865418	-0.282742	-0.633083
C140	C	1.365418	0.217258	-0.133083
C141	C	0.905480	-0.326021	-0.665793
C142	C	1.405480	0.173979	-0.165793
C143	C	0.905422	-0.326097	-0.139075
C144	C	1.405422	0.173903	0.360925
C145	C	0.905531	-0.325921	-0.069434
C146	C	1.405531	0.174079	0.430566
H147	H	0.144558	-0.247503	-0.229309
H148	H	0.644558	0.252497	0.270691
H149	H	0.978231	-0.939513	-0.229269
H150	H	1.478231	-0.439513	0.270731
O151	O	0.826440	-0.240692	-0.535972
O152	O	1.326440	0.259308	-0.035972
C153	C	0.791109	-0.202462	-0.578884
C154	C	1.291109	0.297538	-0.078884
H155	H	0.788933	-0.230173	-0.625521
H156	H	1.288933	0.269827	-0.125521
H157	H	0.741744	-0.195242	-0.559973
H158	H	1.241744	0.304758	-0.059973
H159	H	0.814078	-0.151056	-0.585858
H160	H	1.314078	0.348944	-0.085858
O161	O	0.826563	-1.073311	-0.380939
O162	O	1.326563	-0.573311	0.119061
C163	C	0.840207	-1.055975	-0.443394
C164	C	1.340207	-0.555975	0.056606
H165	H	0.890252	-1.036497	-0.446596
H166	H	1.390252	-0.536497	0.053404
H167	H	0.834811	-1.102448	-0.474348
H168	H	1.334811	-0.602448	0.025652
H169	H	0.806592	-1.014964	-0.459741
H170	H	1.306592	-0.514964	0.040259
H171	H	0.144559	-0.404767	-0.374462
H172	H	0.644559	0.095233	0.125538
O173	O	0.826300	-0.578147	-0.380680
O174	O	1.326300	-0.078147	0.119320
C175	C	0.785830	-0.537328	-0.344969
C176	C	1.285830	-0.037328	0.155031
H177	H	0.807952	-0.526750	-0.297505
H178	H	1.307952	-0.026750	0.202495
H179	H	0.777402	-0.487612	-0.370477
H180	H	1.277402	0.012388	0.129523
H181	H	0.739411	-0.564614	-0.338047
H182	H	1.239411	-0.064614	0.161953
H183	H	0.978115	-0.404600	-0.541003
H184	H	1.478115	0.095400	-0.041003
H185	H	0.978186	-0.404479	-0.944639
H186	H	1.478186	0.095521	-0.444639
O187	O	0.895842	-0.205681	-0.866609
O188	O	1.395842	0.294319	-0.366609
C189	C	0.891488	-0.151867	-0.823713
C190	C	1.391488	0.348133	-0.323713
H191	H	0.912528	-0.167904	-0.777068
H192	H	1.412528	0.332096	-0.277068
H193	H	0.918122	-0.106372	-0.842634
H194	H	1.418122	0.393628	-0.342634
H195	H	0.840292	-0.137810	-0.816748
H196	H	1.340292	0.362190	-0.316748
H197	H	0.978275	-1.067759	-0.229290
H198	H	1.478275	-0.567759	0.270710
H199	H	0.914404	-0.436643	-0.742801
H200	H	1.414404	0.063357	-0.242801
O201	O	0.826533	-0.933963	-0.380893
O202	O	1.326533	-0.433963	0.119107
C203	C	0.862158	-0.893005	-0.421383
C204	C	1.362158	-0.393005	0.078617
H205	H	0.911512	-0.914257	-0.425303
H206	H	1.411512	-0.414257	0.074697
H207	H	0.839463	-0.892198	-0.469579
H208	H	1.339463	-0.392198	0.030421
H209	H	0.864307	-0.839441	-0.402011
H210	H	1.364307	-0.339441	0.097989
H211	H	0.914422	-0.436614	-0.861513
H212	H	1.414422	0.063386	-0.361513
H213	H	0.346411	-0.215462	-0.293085
H214	H	0.846411	0.284538	0.206915
O215	O	0.826548	-0.240521	-1.068411
O216	O	1.326548	0.259479	-0.568411
C217	C	0.791180	-0.202336	-1.025506
C218	C	1.291180	0.297664	-0.525506
H219	H	0.816835	-0.200006	-0.978866
H220	H	1.316835	0.299994	-0.478866
H221	H	0.784523	-0.149002	-1.044423
H222	H	1.284523	0.350998	-0.544423
H223	H	0.743582	-0.227122	-1.018537
H224	H	1.243582	0.272878	-0.518537
O225	O	0.268478	-0.240775	-0.222993
O226	O	0.768478	0.259225	0.277007
C227	C	0.306292	-0.279252	-0.182453
C228	C	0.806292	0.220748	0.317547
H229	H	0.316084	-0.330576	-0.204468
H230	H	0.816084	0.169424	0.295532
H231	H	0.352312	-0.251667	-0.174101
H232	H	0.852312	0.248333	0.325899
H233	H	0.281058	-0.286627	-0.136010
H234	H	0.781058	0.213373	0.363990
H235	H	0.832810	-0.247487	-0.659721
H236	H	1.332810	0.252513	-0.159721
O237	O	0.984611	-0.717525	-0.223080
O238	O	1.484611	-0.217525	0.276920
C239	C	1.025058	-0.758292	-0.258868
C240	C	1.525058	-0.258292	0.241132
H241	H	1.028759	-0.736952	-0.308225
H242	H	1.528759	-0.236952	0.191775
H243	H	1.073336	-0.758971	-0.236345
H244	H	1.573336	-0.258971	0.263655
H245	H	1.005788	-0.811918	-0.260973
H246	H	1.505788	-0.311918	0.239027
H247	H	0.832680	-0.712023	-0.374499
H248	H	1.332680	-0.212023	0.125501
O249	O	0.984507	-0.411321	-1.068394
O250	O	1.484507	0.088679	-0.568394
C251	C	1.019862	-0.449525	-1.025480
C252	C	1.519862	0.050475	-0.525480
H253	H	0.994192	-0.451875	-0.978831
H254	H	1.494192	0.048125	-0.478831
H255	H	1.026523	-0.502851	-1.044372
H256	H	1.526523	-0.002851	-0.544372
H257	H	1.067458	-0.424743	-1.018537
H258	H	1.567458	0.075257	-0.518537
H259	H	0.548198	-0.247472	-0.229290
H260	H	1.048198	0.252528	0.270710
H261	H	0.666903	-0.404740	-0.374419
H262	H	1.166903	0.095260	0.125581
O263	O	0.984453	-0.411426	-0.664758
O264	O	1.484453	0.088574	-0.164758
C265	C	1.019804	-0.449635	-0.621846
C266	C	1.519804	0.050365	-0.121846
H267	H	0.994132	-0.451990	-0.575199
H268	H	1.494132	0.048010	-0.075199
H269	H	1.026466	-0.502959	-0.640743
H270	H	1.526466	-0.002959	-0.140743
H271	H	1.067400	-0.424855	-0.614898
H272	H	1.567400	0.075145	-0.114898
H273	H	0.263266	-0.404759	-0.374452
H274	H	0.763266	0.095241	0.125548
H275	H	0.896577	-0.215357	-0.742854
H276	H	1.396577	0.284643	-0.242854
O277	O	0.826525	-0.240707	-0.939442
O278	O	1.326525	0.259293	-0.439442
C279	C	0.786027	-0.279250	-0.901586
C280	C	1.286027	0.220750	-0.401586
H281	H	0.808102	-0.330548	-0.891776
H282	H	1.308102	0.169452	-0.391776
H283	H	0.777638	-0.251691	-0.855578
H284	H	1.277638	0.248309	-0.355578
H285	H	0.739594	-0.286680	-0.926793
H286	H	1.239594	0.213320	-0.426793
H287	H	0.465054	-0.436764	-0.310657
H288	H	0.965054	0.063236	0.189343
O289	O	0.341290	-0.446418	-0.311398
O290	O	0.841290	0.053582	0.188602
C291	C	0.384178	-0.500248	-0.315682
C292	C	0.884178	-0.000248	0.184318
H293	H	0.430822	-0.484192	-0.294655
H294	H	0.930822	0.015808	0.205345
H295	H	0.365246	-0.545702	-0.288994
H296	H	0.865246	-0.045702	0.211006
H297	H	0.391147	-0.514377	-0.366859
H298	H	0.891147	-0.014377	0.133141
H299	H	0.666909	-0.247466	-0.229282
H300	H	1.166909	0.252534	0.270718
O301	O	0.543147	-0.411610	-0.380744
O302	O	1.043147	0.088390	0.119256
C303	C	0.586055	-0.449849	-0.416056
C304	C	1.086055	0.050151	0.083944
H305	H	0.632686	-0.452162	-0.390382
H306	H	1.132686	0.047838	0.109618
H307	H	0.567129	-0.503185	-0.422662
H308	H	1.067129	-0.003185	0.077338
H309	H	0.593046	-0.425123	-0.463678
H310	H	1.093046	0.074877	0.036322
H311	H	0.465116	-0.215454	-0.293094
H312	H	0.965116	0.284546	0.206906
O313	O	0.984470	-0.578300	-0.222898
O314	O	1.484470	-0.078300	0.277102
C315	C	1.019862	-0.624649	-0.187561
C316	C	1.519862	-0.124649	0.312439
H317	H	1.022032	-0.675017	-0.213236
H318	H	1.522032	-0.175017	0.286764
H319	H	1.069225	-0.604188	-0.180918
H320	H	1.569225	-0.104188	0.319082
H321	H	0.996949	-0.632221	-0.139957
H322	H	1.496949	-0.132221	0.360043
