data_functionalizedCrystal
_audit_creation_method	'MofGen! by Chris Wilmer'
_symmetry_space_group_name_H-M	'P1'
_symmetry_Int_Tables_number	1
_symmetry_cell_setting	triclinic
loop_
_symmetry_equiv_pos_as_xyz
  x,y,z
_cell_length_a	27.732048
_cell_length_b	27.732064
_cell_length_c	26.809956
_cell_angle_alpha	90.008400
_cell_angle_beta	89.996742
_cell_angle_gamma	82.646039
loop_
_atom_site_label
_atom_site_type_symbol
_atom_site_fract_x
_atom_site_fract_y
_atom_site_fract_z
O1	O	0.640934	0.057510	-0.041411
O2	O	0.500141	0.066255	-0.041426
O3	O	0.574906	-0.008514	-0.041420
O4	O	0.566169	0.132279	-0.041417
O5	O	0.574892	-0.008502	0.041539
O6	O	0.500127	0.066267	0.041534
O7	O	0.640920	0.057521	0.041548
Zn8	Zn	0.570522	0.061896	0.054712
Zn9	Zn	0.570540	0.061881	-0.054590
O10	O	0.566155	0.132290	0.041542
C11	C	0.482127	0.066077	0.000052
C12	C	0.428473	0.065524	0.000046
C13	C	0.089660	0.106228	0.000069
C14	C	-0.112000	0.104177	0.000073
O15	O	-0.143253	0.141397	0.000096
N16	N	-0.131126	0.059842	0.000071
C17	C	-0.099834	0.016017	0.000072
O18	O	-0.120730	-0.021740	0.000075
C19	C	0.101825	0.018068	0.000071
C20	C	0.120948	0.062406	0.000068
C21	C	0.108784	0.150562	0.000066
C22	C	0.159196	0.151074	0.000062
C23	C	0.190484	0.107252	0.000061
C24	C	0.171360	0.062918	0.000064
C25	C	0.133116	-0.025756	0.000075
C26	C	0.183533	-0.025240	0.000076
C27	C	0.202656	0.019098	0.000073
C28	C	0.253060	0.019609	0.000059
N29	N	0.272186	0.063944	0.000061
C30	C	0.240898	0.107765	0.000062
C31	C	-0.205708	0.014943	0.000071
C32	C	-0.256123	0.014430	0.000070
C33	C	-0.268285	0.102590	0.000073
C34	C	-0.217870	0.103103	0.000070
C35	C	-0.186582	0.059278	0.000073
C36	C	0.346768	0.108838	0.000053
C37	C	0.397185	0.109346	0.000047
C38	C	0.409342	0.021186	0.000048
C39	C	0.358930	0.020678	0.000051
C40	C	0.327643	0.064507	0.000055
O41	O	0.284342	-0.017592	0.000042
O42	O	0.261803	0.145516	0.000069
C43	C	0.039248	0.105716	0.000073
C44	C	0.020124	0.061382	0.000075
C45	C	0.051412	0.017560	0.000074
C46	C	-0.030290	0.060869	0.000075
C47	C	-0.061578	0.104690	0.000076
C48	C	-0.042452	0.149025	0.000078
C49	C	0.007960	0.149537	0.000074
C50	C	0.032286	-0.026775	0.000072
C51	C	-0.018127	-0.027284	0.000076
C52	C	-0.049415	0.016538	0.000077
C53	C	0.574715	-0.026515	0.000058
C54	C	0.574159	-0.080169	0.000053
C55	C	0.526192	-0.457242	0.000047
C56	C	0.528238	-0.255582	0.000046
O57	O	0.491017	-0.224329	0.000022
N58	N	0.572572	-0.236454	0.000051
C59	C	0.616398	-0.267745	0.000052
O60	O	0.654154	-0.246849	0.000051
C61	C	0.614351	-0.469405	0.000049
C62	C	0.570014	-0.488529	0.000049
C63	C	0.481858	-0.476367	0.000047
C64	C	0.481347	-0.526779	0.000049
C65	C	0.525169	-0.558066	0.000052
C66	C	0.569503	-0.538941	0.000052
C67	C	0.658177	-0.500695	0.000047
C68	C	0.657661	-0.551112	0.000044
C69	C	0.613324	-0.570237	0.000045
C70	C	0.612814	-0.620640	0.000058
N71	N	0.568480	-0.639768	0.000053
C72	C	0.524658	-0.608481	0.000050
C73	C	0.617469	-0.161871	0.000055
C74	C	0.617981	-0.111456	0.000056
C75	C	0.529821	-0.099296	0.000049
C76	C	0.529310	-0.149712	0.000051
C77	C	0.573135	-0.180998	0.000050
C78	C	0.523588	-0.714350	0.000057
C79	C	0.523080	-0.764767	0.000062
C80	C	0.611241	-0.776923	0.000066
C81	C	0.611748	-0.726511	0.000064
C82	C	0.567918	-0.695225	0.000057
O83	O	0.650016	-0.651921	0.000076
O84	O	0.486907	-0.629387	0.000041
C85	C	0.526703	-0.406830	0.000044
C86	C	0.571036	-0.387705	0.000044
C87	C	0.614859	-0.418992	0.000046
C88	C	0.571548	-0.337290	0.000045
C89	C	0.527726	-0.306003	0.000043
C90	C	0.483391	-0.325131	0.000038
C91	C	0.482880	-0.375543	0.000041
C92	C	0.659193	-0.399865	0.000051
C93	C	0.659701	-0.349452	0.000049
C94	C	0.615878	-0.318165	0.000046
C95	C	0.658934	0.057699	0.000069
C96	C	0.712589	0.058252	0.000072
C97	C	0.566347	0.150291	0.000063
C98	C	0.566903	0.203945	0.000065
N99	N	0.570512	0.061906	0.129308
N100	N	0.570553	0.061867	-0.129186
C101	C	0.603642	0.028781	0.473937
C102	C	0.603653	0.028774	0.682815
O103	O	0.631801	0.000613	0.709821
N104	N	0.570543	0.061870	0.708935
C105	C	0.537425	0.094968	0.682834
O106	O	0.509259	0.123115	0.709844
C107	C	0.537412	0.094973	0.473957
C108	C	0.570528	0.061878	0.447839
C109	C	0.636755	-0.004312	0.447819
C110	C	0.636753	-0.004308	0.395602
C111	C	0.603639	0.028789	0.369504
C112	C	0.570526	0.061882	0.395622
C113	C	0.504292	0.128069	0.447856
C114	C	0.504291	0.128066	0.395634
C115	C	0.537407	0.094971	0.369515
C116	C	0.537410	0.094983	0.317308
N117	N	0.570521	0.061886	0.291187
C118	C	0.603635	0.028789	0.317285
C119	C	0.537435	0.094964	0.792497
C120	C	0.537439	0.094964	0.844716
C121	C	0.603667	0.028768	0.844693
C122	C	0.603665	0.028771	0.792473
C123	C	0.570546	0.061868	0.766376
C124	C	0.603630	0.028801	0.207627
C125	C	0.603627	0.028809	0.155406
C126	C	0.537397	0.095002	0.155434
C127	C	0.537402	0.094996	0.207650
C128	C	0.570520	0.061891	0.233746
O129	O	0.509273	0.123125	0.290270
O130	O	0.631789	0.000640	0.290266
C131	C	0.603643	0.028777	0.526153
C132	C	0.570530	0.061870	0.552271
C133	C	0.537416	0.094967	0.526173
C134	C	0.570534	0.061869	0.604490
C135	C	0.603649	0.028773	0.630588
C136	C	0.636759	-0.004324	0.604468
C137	C	0.636758	-0.004320	0.552251
C138	C	0.504306	0.128063	0.552294
C139	C	0.504310	0.128057	0.604510
C140	C	0.537424	0.094960	0.630609
H141	H	-0.067936	0.184706	0.000076
H142	H	0.477319	0.155017	0.374388
O143	O	0.472075	0.160235	0.473142
C144	C	0.442858	0.189449	0.438899
H145	H	0.442466	0.169630	0.401674
H146	H	0.404199	0.197087	0.453985
H147	H	0.458281	0.225252	0.433348
H148	H	-0.293769	0.138272	0.000074
O149	O	0.505207	0.127068	0.870062
C150	C	0.457418	0.119545	0.857293
H151	H	0.457473	0.080843	0.842934
H152	H	0.433117	0.125273	0.891635
H153	H	0.443021	0.146434	0.826985
O154	O	0.505249	0.127103	0.129999
C155	C	0.512359	0.120011	0.078310
H156	H	0.530717	0.081456	0.071175
H157	H	0.475714	0.125634	0.058466
H158	H	0.536393	0.147208	0.063492
O159	O	0.661020	-0.092825	-0.000006
C160	C	0.663967	-0.064044	-0.042977
H161	H	0.625775	-0.051209	-0.057303
H162	H	0.682986	-0.031168	-0.033314
H163	H	0.685523	-0.086482	-0.073063
O164	O	0.439721	-0.021392	-0.000042
C165	C	0.431102	-0.048351	-0.042999
H166	H	0.413682	-0.022710	-0.073031
H167	H	0.467019	-0.068005	-0.057420
H168	H	0.405636	-0.076136	-0.033282
O169	O	0.472073	0.160161	0.629856
C170	C	0.424286	0.152635	0.617082
H171	H	0.424345	0.113934	0.602720
H172	H	0.399982	0.158358	0.651422
H173	H	0.409889	0.179525	0.586775
O174	O	0.702743	-0.330821	-0.000018
C175	C	0.705686	-0.302045	-0.042994
H176	H	0.667493	-0.289211	-0.057317
H177	H	0.724706	-0.269168	-0.033337
H178	H	0.727239	-0.324486	-0.073079
O179	O	0.505187	0.127162	0.232947
C180	C	0.475968	0.156383	0.198711
H181	H	0.475577	0.136573	0.161481
H182	H	0.437310	0.164016	0.213799
H183	H	0.491390	0.192189	0.193171
O184	O	0.505330	0.127141	0.767096
C185	C	0.530993	0.156796	0.736905
H186	H	0.568956	0.137279	0.729065
H187	H	0.510753	0.164593	0.700192
H188	H	0.534019	0.192494	0.757042
H189	H	-0.202303	0.139206	0.000070
O190	O	0.668905	-0.036542	0.629771
C191	C	0.661393	-0.084339	0.617014
H192	H	0.642766	-0.084151	0.579098
H193	H	0.697902	-0.108399	0.615228
H194	H	0.637438	-0.099117	0.646400
O195	O	0.668827	-0.036553	0.526866
C196	C	0.643106	-0.066200	0.496721
H197	H	0.605171	-0.046630	0.488863
H198	H	0.663338	-0.074091	0.460014
H199	H	0.640010	-0.101852	0.516907
H200	H	0.494139	-0.073813	0.000049
O201	O	0.114628	-0.068869	0.000105
C202	C	0.153063	-0.107431	0.000096
H203	H	0.187214	-0.094130	0.015796
H204	H	0.142758	-0.138403	0.024188
H205	H	0.160298	-0.120941	-0.039702
O206	O	-0.274616	-0.028682	0.000090
C207	C	-0.236183	-0.067247	0.000077
H208	H	-0.202033	-0.053952	0.015783
H209	H	-0.246493	-0.098222	0.024163
H210	H	-0.228947	-0.080751	-0.039723
H211	H	0.647851	-0.710939	0.000070
H212	H	0.694879	-0.425334	0.000053
O213	O	0.472186	0.160284	0.526970
C214	C	0.479685	0.208077	0.539758
H215	H	0.518385	0.208039	0.554106
H216	H	0.473941	0.232385	0.505428
H217	H	0.452793	0.222454	0.570080
O218	O	0.480967	-0.684033	0.000075
C219	C	0.441733	-0.711733	0.000063
H220	H	0.454296	-0.749449	0.015770
H221	H	0.411047	-0.692914	0.024147
H222	H	0.428129	-0.715234	-0.039737
O223	O	0.480039	-0.783401	-0.000007
C224	C	0.477105	-0.812197	-0.042977
H225	H	0.515302	-0.825036	-0.057298
H226	H	0.458086	-0.845071	-0.033315
H227	H	0.455557	-0.789771	-0.073066
O228	O	0.177787	0.194134	-0.000032
C229	C	0.206592	0.197062	-0.042995
H230	H	0.194859	0.171880	-0.073020
H231	H	0.201771	0.236050	-0.057422
H232	H	0.246436	0.185624	-0.033283
H233	H	0.023525	0.185642	0.000072
H234	H	0.630595	0.001859	0.134143
H235	H	0.083313	0.186249	0.000069
O236	O	-0.175271	-0.027601	0.000003
C237	C	-0.145751	-0.029956	-0.042970
H238	H	-0.143471	0.008390	-0.057290
H239	H	-0.107729	-0.048258	-0.033310
H240	H	-0.162183	-0.051903	-0.073058
H241	H	0.653160	-0.187341	0.000054
H242	H	0.412752	0.145453	0.000045
H243	H	0.321299	0.144528	0.000059
H244	H	0.447710	-0.299648	0.000039
H245	H	0.343359	-0.015426	0.000046
O246	O	0.213974	-0.067781	0.000010
C247	C	0.243492	-0.070137	-0.042963
H248	H	0.245767	-0.031792	-0.057289
H249	H	0.281517	-0.088433	-0.033302
H250	H	0.227063	-0.092091	-0.073048
H251	H	0.057756	-0.062461	0.000073
O252	O	-0.036619	-0.070400	0.000100
C253	C	0.001813	-0.108964	0.000087
H254	H	0.035966	-0.095668	0.015786
H255	H	-0.008494	-0.139937	0.024177
H256	H	0.009045	-0.122472	-0.039712
O257	O	0.438235	-0.545272	0.000023
C258	C	0.399671	-0.506839	0.000032
H259	H	0.412968	-0.472690	-0.015672
H260	H	0.368697	-0.517150	-0.024058
H261	H	0.386166	-0.499600	0.039830
H262	H	0.630597	0.001843	0.228869
H263	H	0.694281	-0.485133	0.000046
H264	H	0.446171	-0.450897	0.000043
H265	H	0.663718	-0.031258	0.374340
H266	H	0.446776	-0.391109	0.000042
H267	H	0.630630	0.001822	0.771211
O268	O	0.486198	-0.168207	0.000025
C269	C	0.447633	-0.129775	0.000037
H270	H	0.460927	-0.095624	-0.015664
H271	H	0.416658	-0.140086	-0.024052
H272	H	0.434128	-0.122539	0.039837
H273	H	0.693350	-0.576584	0.000041
H274	H	0.663720	-0.031265	0.469063
O275	O	0.653763	-0.807389	0.000046
C276	C	0.643799	-0.855985	0.000059
H277	H	0.605847	-0.857641	-0.015646
H278	H	0.671754	-0.879036	-0.024028
H279	H	0.645740	-0.870574	0.039858
O280	O	0.635813	-0.003451	0.869995
C281	C	0.628298	-0.051247	0.857240
H282	H	0.609668	-0.051059	0.819325
H283	H	0.664805	-0.075309	0.855451
H284	H	0.604344	-0.066024	0.886628
