data_functionalizedCrystal
_audit_creation_method	'MofGen! by Chris Wilmer'
_symmetry_space_group_name_H-M	'P1'
_symmetry_Int_Tables_number	1
_symmetry_cell_setting	triclinic
loop_
_symmetry_equiv_pos_as_xyz
  x,y,z
_cell_length_a	14.519709
_cell_length_b	13.101039
_cell_length_c	14.519709
_cell_angle_alpha	86.632446
_cell_angle_beta	83.680145
_cell_angle_gamma	93.358259
loop_
_atom_site_label
_atom_site_type_symbol
_atom_site_fract_x
_atom_site_fract_y
_atom_site_fract_z
O1	O	1.228925	0.085083	0.115817
O2	O	0.960450	0.085114	0.130052
O3	O	1.101805	0.085088	-0.011303
O4	O	1.087569	0.085109	0.257173
O5	O	1.091663	-0.085340	-0.001144
O6	O	0.950308	-0.085314	0.140211
O7	O	1.218783	-0.085345	0.125976
Zn8	Zn	1.082935	-0.112389	0.134707
Zn9	Zn	1.096297	0.112158	0.121322
O10	O	1.077427	-0.085319	0.267331
C11	C	0.921019	-0.000096	0.134468
C12	C	0.818638	-0.000084	0.132479
N13	N	1.073822	-0.265635	0.143841
C14	C	0.443740	-0.000131	0.125162
C15	C	0.548049	-0.000118	0.127194
C16	C	0.631186	-0.000107	0.128820
C17	C	0.735501	-0.000095	0.130853
C18	C	1.061423	-0.474676	0.156277
C19	C	1.117813	-0.525562	0.099747
C20	C	1.110914	-0.641879	0.106667
C21	C	1.068321	-0.358348	0.149358
C22	C	1.258213	-0.000133	0.121560
C23	C	1.360594	-0.000138	0.123549
C24	C	1.096070	-0.000126	-0.040583
C25	C	1.094082	-0.000126	-0.142965
N26	N	1.105418	0.265405	0.112180
C27	C	1.086764	-0.000098	-0.517862
C28	C	1.088796	-0.000106	-0.413554
C29	C	1.090423	-0.000113	-0.330417
C30	C	1.092456	-0.000119	-0.226102
C31	C	1.083162	-0.000103	0.296612
C32	C	1.085151	-0.000096	0.398992
H33	H	1.171271	-0.481769	0.046155
H34	H	1.007970	-0.518463	0.209866
