data_functionalizedCrystal
_audit_creation_method	'MofGen! by Chris Wilmer'
_symmetry_space_group_name_H-M	'P1'
_symmetry_Int_Tables_number	1
_symmetry_cell_setting	triclinic
loop_
_symmetry_equiv_pos_as_xyz
  x,y,z
_cell_length_a	12.645331
_cell_length_b	29.839131
_cell_length_c	12.645331
_cell_angle_alpha	90.009749
_cell_angle_beta	90.003677
_cell_angle_gamma	90.040399
loop_
_atom_site_label
_atom_site_type_symbol
_atom_site_fract_x
_atom_site_fract_y
_atom_site_fract_z
Zn1	Zn	1.620358	-0.178964	0.599388
Zn2	Zn	2.120358	0.321036	1.099388
Zn3	Zn	1.620225	-0.254065	0.422104
Zn4	Zn	2.120225	0.245935	0.922104
Zn5	Zn	1.443131	-0.178949	0.422132
Zn6	Zn	1.943131	0.321051	0.922132
Zn7	Zn	1.442980	-0.254066	0.599319
Zn8	Zn	1.942980	0.245934	1.099319
O9	O	1.531673	-0.216511	0.510736
O10	O	2.031673	0.283489	1.010736
O11	O	1.768687	-0.188932	0.575888
O12	O	2.268687	0.311068	1.075888
O13	O	1.596740	-0.244095	0.273760
O14	O	2.096740	0.255905	0.773760
O15	O	1.466759	-0.116084	0.445687
O16	O	1.966759	0.383916	0.945687
O17	O	1.768589	-0.244109	0.445638
O18	O	2.268589	0.255891	0.945638
O19	O	1.596967	-0.116095	0.575915
O20	O	2.096967	0.383905	1.075915
O21	O	1.466630	-0.188907	0.273781
O22	O	1.966630	0.311093	0.773781
O23	O	1.294764	-0.188907	0.445620
O24	O	1.794764	0.311093	0.945620
O25	O	1.466503	-0.244110	0.747675
O26	O	1.966503	0.255890	1.247675
O27	O	1.294653	-0.244096	0.575798
O28	O	1.794653	0.255904	1.075798
O29	O	1.596821	-0.188933	0.747726
O30	O	2.096821	0.311067	1.247726
O31	O	1.596594	-0.316933	0.445571
O32	O	2.096594	0.183067	0.945571
O33	O	1.466374	-0.316933	0.575770
O34	O	1.966374	0.183067	1.075770
C35	C	1.256244	-0.216500	0.510705
C36	C	1.756244	0.283500	1.010705
C37	C	1.138414	-0.216507	0.510717
C38	C	1.638414	0.283493	1.010717
C39	C	0.970884	-0.181628	0.429274
C40	C	1.470884	0.318372	0.929274
C41	C	1.093443	-0.181718	0.428915
C42	C	1.593443	0.318282	0.928915
C43	C	1.093857	-0.263827	0.480187
C44	C	1.593857	0.236173	0.980187
C45	C	0.971259	-0.263637	0.479631
C46	C	1.471259	0.236363	0.979631
C47	C	0.971239	-0.204515	0.623005
C48	C	1.471239	0.295485	1.123005
C49	C	1.093846	-0.203458	0.622382
C50	C	1.593846	0.296542	1.122382
C51	C	1.531482	-0.333234	0.510683
C52	C	2.031482	0.166766	1.010683
C53	C	1.531497	-0.383168	0.510696
C54	C	2.031497	0.116832	1.010696
C55	C	1.599602	-0.692799	0.443040
C56	C	2.099602	-0.192799	0.943040
C57	C	1.599733	-0.880472	0.443081
C58	C	2.099733	-0.380472	0.943081
O59	O	1.657487	-0.904725	0.385517
O60	O	2.157487	-0.404725	0.885517
N61	N	1.531893	-0.903953	0.510816
N62	N	2.031893	-0.403953	1.010816
C63	C	1.464020	-0.880514	0.578550
C64	C	1.964020	-0.380514	1.078550
O65	O	1.406329	-0.904792	0.636171
O66	O	1.906329	-0.404792	1.136171
C67	C	1.463896	-0.692841	0.578513
C68	C	1.963896	-0.192841	1.078513
C69	C	1.531733	-0.669362	0.510767
C70	C	2.031733	-0.169362	1.010767
C71	C	1.667435	-0.669319	0.375300
C72	C	2.167435	-0.169319	0.875300
C73	C	1.667397	-0.622404	0.375286
C74	C	2.167397	-0.122404	0.875286
C75	C	1.599527	-0.598968	0.443013
C76	C	2.099527	-0.098968	0.943013
C77	C	1.531695	-0.622447	0.510753
C78	C	2.031695	-0.122447	1.010753
C79	C	1.396029	-0.669403	0.646252
C80	C	1.896029	-0.169403	1.146252
C81	C	1.396006	-0.622482	0.646238
C82	C	1.896006	-0.122482	1.146238
C83	C	1.463843	-0.599003	0.578492
C84	C	1.963843	-0.099003	1.078492
C85	C	1.463788	-0.552095	0.578466
C86	C	1.963788	-0.052095	1.078466
N87	N	1.531628	-0.528614	0.510731
N88	N	2.031628	-0.028614	1.010731
C89	C	1.599498	-0.552050	0.443005
C90	C	2.099498	-0.052050	0.943005
C91	C	1.464089	-0.979044	0.578563
C92	C	1.964089	-0.479044	1.078563
C93	C	1.464119	-1.025962	0.578571
C94	C	1.964119	-0.525962	1.078571
C95	C	1.599833	-1.025917	0.443103
C96	C	2.099833	-0.525917	0.943103
C97	C	1.599798	-0.978998	0.443091
C98	C	2.099798	-0.478998	0.943091
C99	C	1.531929	-0.955563	0.510828
C100	C	2.031929	-0.455563	1.010828
C101	C	1.599413	-0.453524	0.442980
C102	C	2.099413	0.046476	0.942980
C103	C	1.599367	-0.406604	0.442970
C104	C	2.099367	0.093396	0.942970
C105	C	1.463657	-0.406654	0.578440
C106	C	1.963657	0.093346	1.078440
C107	C	1.463699	-0.453569	0.578448
C108	C	1.963699	0.046431	1.078448
C109	C	1.531586	-0.477003	0.510714
C110	C	2.031586	0.022997	1.010714
O111	O	1.406073	-0.527812	0.636008
O112	O	1.906073	-0.027812	1.136008
O113	O	1.657197	-0.527763	0.385409
O114	O	2.157197	-0.027763	0.885409
C115	C	1.599640	-0.739714	0.443054
C116	C	2.099640	-0.239714	0.943054
C117	C	1.531808	-0.763193	0.510794
C118	C	2.031808	-0.263193	1.010794
C119	C	1.463938	-0.739757	0.578520
C120	C	1.963938	-0.239757	1.078520
C121	C	1.531837	-0.810111	0.510802
C122	C	2.031837	-0.310111	1.010802
C123	C	1.599707	-0.833547	0.443075
C124	C	2.099707	-0.333547	0.943075
C125	C	1.667547	-0.810066	0.375341
C126	C	2.167547	-0.310066	0.875341
C127	C	1.667510	-0.763150	0.375327
C128	C	2.167510	-0.263150	0.875327
C129	C	1.396098	-0.763238	0.646255
C130	C	1.896098	-0.263238	1.146255
C131	C	1.396140	-0.810154	0.646262
C132	C	1.896140	-0.310154	1.146262
C133	C	1.464010	-0.833590	0.578536
C134	C	1.964010	-0.333590	1.078536
C135	C	1.808179	-0.216522	0.510767
C136	C	2.308179	0.283478	1.010767
C137	C	1.926009	-0.216527	0.510781
C138	C	2.426009	0.283473	1.010781
C139	C	1.531660	-0.216523	0.787241
C140	C	2.031660	0.283477	1.287241
C141	C	1.531654	-0.216529	0.905071
C142	C	2.031654	0.283471	1.405071
C143	C	1.531894	-0.099333	0.510812
C144	C	2.031894	0.400667	1.010812
C145	C	1.531989	-0.049398	0.510844
C146	C	2.031989	0.450602	1.010844
C147	C	1.449661	-0.251242	0.949921
C148	C	1.949661	0.248758	1.449921
C149	C	1.449334	-0.251134	1.072481
C150	C	1.949334	0.248866	1.572481
C151	C	1.501778	-0.169139	1.072988
C152	C	2.001778	0.330861	1.572988
C153	C	1.501189	-0.169345	0.950390
C154	C	2.001189	0.330655	1.450390
C155	C	1.643716	-0.228780	0.950258
C156	C	2.143716	0.271220	1.450258
C157	C	1.643108	-0.229819	1.072864
C158	C	2.143108	0.270181	1.572864
C159	C	1.531668	-0.216513	1.235306
C160	C	2.031668	0.283487	1.735306
C161	C	1.531643	-0.216519	1.117476
C162	C	2.031643	0.283481	1.617476
H163	H	1.122741	-0.189656	0.345752
H164	H	1.622741	0.310344	0.845752
H165	H	1.655037	-0.959884	0.387926
H166	H	2.155037	-0.459884	0.887926
Cl167	Cl	1.752769	-0.698774	0.290146
Cl168	Cl	2.252769	-0.198774	0.790146
H169	H	1.122981	-0.290523	0.537689
H170	H	1.622981	0.209477	1.037689
H171	H	1.420773	-0.158593	1.103693
H172	H	1.920773	0.341407	1.603693
Cl173	Cl	1.322182	-0.238855	0.902367
Cl174	Cl	1.822182	0.261145	1.402367
Cl175	Cl	1.478102	-0.305370	1.118925
Cl176	Cl	1.978102	0.194630	1.618925
H177	H	1.366293	-0.243011	1.101810
H178	H	1.866293	0.256989	1.601810
Cl179	Cl	1.685154	-1.055388	0.357961
Cl180	Cl	2.185154	-0.555388	0.857961
H181	H	1.707429	-0.206391	1.103497
H182	H	2.207429	0.293609	1.603497
H183	H	1.408820	-0.959966	0.633724
H184	H	1.908820	-0.459966	1.133724
H185	H	1.124529	-0.274191	0.399026
H186	H	1.624529	0.225809	0.899026
H187	H	0.942631	-0.273825	0.397589
H188	H	1.442631	0.226175	0.897589
Cl189	Cl	0.923580	-0.152171	0.665867
Cl190	Cl	1.423580	0.347829	1.165867
H191	H	1.670988	-0.262747	0.919332
H192	H	2.170988	0.237253	1.419332
Cl193	Cl	1.310755	-0.698908	0.731437
Cl194	Cl	1.810755	-0.198908	1.231437
Cl195	Cl	1.589415	-0.128039	0.904578
Cl196	Cl	2.089415	0.371961	1.404578
H197	H	1.408869	-1.045075	0.633727
H198	H	1.908869	-0.545075	1.133727
Cl199	Cl	1.677895	-0.283655	1.117753
Cl200	Cl	2.177895	0.216345	1.617753
H201	H	1.419287	-0.158980	0.921795
H202	H	1.919287	0.341020	1.421795
H203	H	1.468083	-0.286483	0.920434
H204	H	1.968083	0.213517	1.420434
H205	H	0.941569	-0.290518	0.536408
H206	H	1.441569	0.209482	1.036408
H207	H	1.340890	-0.829267	0.701429
H208	H	1.840890	-0.329267	1.201429
H209	H	1.340740	-0.603403	0.701402
H210	H	1.840740	-0.103403	1.201402
H211	H	1.559667	-0.142565	1.102133
H212	H	2.059667	0.357435	1.602133
H213	H	1.704798	-0.203496	0.921262
H214	H	2.204798	0.296504	1.421262
H215	H	1.122976	-0.168636	0.645403
H216	H	1.622976	0.331364	1.145403
Cl217	Cl	0.923268	-0.193738	0.301635
Cl218	Cl	1.423268	0.306262	0.801635
H219	H	1.123572	-0.146628	0.448053
H220	H	1.623572	0.353372	0.948053
Cl221	Cl	1.378345	-0.377182	0.663583
Cl222	Cl	1.878345	0.122818	1.163583
H223	H	1.124459	-0.227024	0.686359
H224	H	1.624459	0.272976	1.186359
H225	H	0.941448	-0.146432	0.448206
H226	H	1.441448	0.353568	0.948206
Cl227	Cl	1.378396	-0.483087	0.663594
Cl228	Cl	1.878396	0.016913	1.163594
H229	H	0.942215	-0.229934	0.683735
H230	H	1.442215	0.270066	1.183735
H231	H	1.722639	-0.603290	0.320124
H232	H	2.222639	-0.103290	0.820124
H233	H	1.722749	-0.744037	0.320162
H234	H	2.222749	-0.244037	0.820162
H235	H	1.654608	-0.387489	0.387799
H236	H	2.154608	0.112511	0.887799
Cl237	Cl	1.684756	-0.482977	0.357827
Cl238	Cl	2.184756	0.017023	0.857827
H239	H	1.722806	-0.829156	0.320193
H240	H	2.222806	-0.329156	0.820193
Cl241	Cl	1.310766	-0.733783	0.731406
Cl242	Cl	1.810766	-0.233783	1.231406
