data_functionalizedCrystal
_audit_creation_method	'MofGen! by Chris Wilmer'
_symmetry_space_group_name_H-M	'P1'
_symmetry_Int_Tables_number	1
_symmetry_cell_setting	triclinic
loop_
_symmetry_equiv_pos_as_xyz
  x,y,z
_cell_length_a	12.827893
_cell_length_b	16.120484
_cell_length_c	12.827885
_cell_angle_alpha	92.863938
_cell_angle_beta	89.980538
_cell_angle_gamma	92.925431
loop_
_atom_site_label
_atom_site_type_symbol
_atom_site_fract_x
_atom_site_fract_y
_atom_site_fract_z
Zn1	Zn	1.576506	-0.331866	-0.611895
Zn2	Zn	1.909839	0.001467	-0.278562
Zn3	Zn	2.243172	0.334800	0.054771
Zn4	Zn	1.567506	-0.471301	-0.445998
Zn5	Zn	1.900840	-0.137968	-0.112665
Zn6	Zn	2.234173	0.195365	0.220668
Zn7	Zn	1.401744	-0.331907	-0.437171
Zn8	Zn	1.735077	0.001426	-0.103838
Zn9	Zn	2.068411	0.334760	0.229495
Zn10	Zn	1.392843	-0.471239	-0.620694
Zn11	Zn	1.726177	-0.137906	-0.287361
Zn12	Zn	2.059510	0.195427	0.045972
O13	O	1.484650	-0.401579	-0.528940
O14	O	1.817983	-0.068245	-0.195607
O15	O	2.151316	0.265088	0.137727
O16	O	1.721547	-0.350372	-0.589900
O17	O	2.054881	-0.017038	-0.256567
O18	O	2.388214	0.316295	0.076766
O19	O	1.545476	-0.452853	-0.298594
O20	O	1.878810	-0.119520	0.034739
O21	O	2.212143	0.213813	0.368073
O22	O	1.432418	-0.215236	-0.452972
O23	O	1.765751	0.118097	-0.119639
O24	O	2.099084	0.451430	0.213694
O25	O	1.714936	-0.452814	-0.468017
O26	O	2.048269	-0.119481	-0.134683
O27	O	2.381602	0.213853	0.198650
O28	O	1.560814	-0.215206	-0.581341
O29	O	1.894148	0.118127	-0.248008
O30	O	2.227481	0.451460	0.085325
O31	O	1.423691	-0.350441	-0.292109
O32	O	1.757025	-0.017107	0.041224
O33	O	2.090358	0.316226	0.374558
O34	O	1.254328	-0.350381	-0.461505
O35	O	1.587661	-0.017047	-0.128171
O36	O	1.920994	0.316286	0.205162
O37	O	1.417248	-0.452708	-0.765761
O38	O	1.750581	-0.119375	-0.432427
O39	O	2.083915	0.213958	-0.099094
O40	O	1.247789	-0.452748	-0.596338
O41	O	1.581122	-0.119414	-0.263005
O42	O	1.914455	0.213919	0.070329
O43	O	1.552184	-0.350311	-0.759296
O44	O	1.885517	-0.016978	-0.425963
O45	O	2.218851	0.316355	-0.092629
O46	O	1.536846	-0.587959	-0.476549
O47	O	1.870179	-0.254625	-0.143215
O48	O	2.203512	0.078708	0.190118
O49	O	1.408522	-0.587913	-0.604897
O50	O	1.741855	-0.254580	-0.271564
O51	O	2.075188	0.078754	0.061769
C52	C	1.213141	-0.401562	-0.528919
C53	C	1.546474	-0.068229	-0.195586
C54	C	1.879808	0.265104	0.137748
C55	C	1.096987	-0.401576	-0.528936
C56	C	1.430320	-0.068242	-0.195603
C57	C	1.763654	0.265091	0.137731
C58	C	1.041989	-0.452309	-0.595563
C59	C	1.375322	-0.118976	-0.262230
C60	C	1.708656	0.214357	0.071104
C61	C	0.921938	-0.452324	-0.595582
C62	C	1.255271	-0.118991	-0.262249
C63	C	1.588604	0.214343	0.071084
C64	C	1.470770	-0.618186	-0.542658
C65	C	1.804103	-0.284852	-0.209325
C66	C	2.137436	0.048481	0.124008
C67	C	1.464927	-0.710851	-0.548562
C68	C	1.798261	-0.377518	-0.215229
C69	C	2.131594	-0.044185	0.118104
C70	C	1.454267	-0.880512	-0.559362
C71	C	1.787600	-0.547179	-0.226029
C72	C	2.120933	-0.213846	0.107304
C73	C	1.515220	-0.921804	-0.498534
C74	C	1.848554	-0.588471	-0.165201
C75	C	2.181887	-0.255138	0.168132
C76	C	1.509289	-1.016209	-0.504544
C77	C	1.842622	-0.682876	-0.171210
C78	C	2.175955	-0.349543	0.162123
C79	C	1.460197	-0.786099	-0.553355
C80	C	1.793530	-0.452765	-0.220021
C81	C	2.126864	-0.119432	0.113312
C82	C	1.757219	-0.401595	-0.528962
C83	C	2.090552	-0.068262	-0.195628
C84	C	2.423886	0.265071	0.137705
C85	C	1.873372	-0.401602	-0.528971
C86	C	2.206705	-0.068269	-0.195637
C87	C	2.540038	0.265064	0.137696
C88	C	1.484727	-0.401498	-0.801505
C89	C	1.818060	-0.068165	-0.468172
C90	C	2.151394	0.265168	-0.134838
C91	C	1.484760	-0.401464	-0.917656
C92	C	1.818093	-0.068131	-0.584323
C93	C	2.151426	0.265202	-0.250990
C94	C	1.498613	-0.184125	-0.515191
C95	C	1.831946	0.149208	-0.181857
C96	C	2.165279	0.482541	0.151476
C97	C	1.504563	-0.091460	-0.509332
C98	C	1.837896	0.241873	-0.175998
C99	C	2.171230	0.575207	0.157335
C100	C	1.424518	-0.350777	-0.966231
C101	C	1.757851	-0.017444	-0.632898
C102	C	2.091184	0.315889	-0.299565
C103	C	1.424550	-0.350741	-1.086279
C104	C	1.757884	-0.017408	-0.752946
C105	C	2.091217	0.315926	-0.419613
C106	C	1.484637	-0.401598	-0.257431
C107	C	1.817970	-0.068265	0.075902
C108	C	2.151304	0.265069	0.409235
C109	C	1.484822	-0.401397	-0.141266
C110	C	1.818155	-0.068064	0.192067
C111	C	2.151488	0.265269	0.525401
H112	H	1.083781	-0.495730	-0.652594
H113	H	1.417114	-0.162397	-0.319261
H114	H	1.750448	0.170936	0.014073
C115	C	0.937241	-0.342917	-0.451907
C116	C	1.270575	-0.009583	-0.118573
C117	C	1.603908	0.323750	0.214760
N118	N	0.985356	-0.298713	-0.393864
N119	N	1.318690	0.034621	-0.060531
N120	N	1.652023	0.367954	0.272803
H121	H	1.571858	-0.886255	-0.441944
H122	H	1.905192	-0.552921	-0.108611
H123	H	2.238525	-0.219588	0.224723
H124	H	1.372914	-0.307413	-0.918943
H125	H	1.706247	0.025920	-0.585610
H126	H	2.039580	0.359254	-0.252277
C127	C	1.377744	-0.928536	-0.635797
C128	C	1.711077	-0.595202	-0.302464
C129	C	2.044411	-0.261869	0.030869
N130	N	1.320103	-0.964716	-0.693362
N131	N	1.653436	-0.631383	-0.360029
N132	N	1.986770	-0.298050	-0.026695
C133	C	1.354872	-0.292113	-1.142727
C134	C	1.688205	0.041220	-0.809393
C135	C	2.021539	0.374553	-0.476060
N136	N	1.302387	-0.247954	-1.185246
N137	N	1.635721	0.085379	-0.851912
N138	N	1.969054	0.418713	-0.518579
H139	H	0.874653	-0.495761	-0.652621
H140	H	1.207986	-0.162428	-0.319288
H141	H	1.541320	0.170905	0.014045
H142	H	1.055196	-0.358148	-0.471913
H143	H	1.388529	-0.024815	-0.138579
H144	H	1.721862	0.308518	0.194754
C145	C	1.554503	-0.460027	-1.084825
C146	C	1.887836	-0.126694	-0.751492
C147	C	2.221170	0.206640	-0.418159
N148	N	1.606986	-0.504188	-1.042307
N149	N	1.940319	-0.170854	-0.708973
N150	N	2.273652	0.162479	-0.375640
H151	H	1.536358	-0.444833	-0.964944
H152	H	1.869691	-0.111500	-0.631611
H153	H	2.203025	0.221833	-0.298278
