data_functionalizedCrystal
_audit_creation_method	'MofGen! by Chris Wilmer'
_symmetry_space_group_name_H-M	'P1'
_symmetry_Int_Tables_number	1
_symmetry_cell_setting	triclinic
loop_
_symmetry_equiv_pos_as_xyz
  x,y,z
_cell_length_a	27.354012
_cell_length_b	27.353283
_cell_length_c	27.349551
_cell_angle_alpha	60.005606
_cell_angle_beta	60.011434
_cell_angle_gamma	59.993282
loop_
_atom_site_label
_atom_site_type_symbol
_atom_site_fract_x
_atom_site_fract_y
_atom_site_fract_z
O1	O	0.067635	-0.714267	0.597330
O2	O	0.025429	-0.556105	0.481282
O3	O	0.125575	-0.656186	0.481214
O4	O	-0.032512	-0.614186	0.597397
O5	O	0.158797	-0.622968	0.514367
O6	O	0.058650	-0.522887	0.514434
O7	O	0.100856	-0.681048	0.630482
Zn8	Zn	0.085028	-0.596693	0.577722
Zn9	Zn	0.041257	-0.640460	0.534042
O10	O	0.000709	-0.580967	0.630549
N11	N	0.114901	-0.566828	0.607534
N12	N	0.011389	-0.670331	0.504229
C13	C	0.179404	-0.338196	0.672015
C14	C	0.179501	-0.502386	0.836160
C15	C	0.179415	-0.502363	0.671996
C16	C	0.343611	-0.502373	0.671960
C17	C	0.197478	-0.392371	0.690061
C18	C	0.197534	-0.484321	0.781984
C19	C	0.289434	-0.484312	0.690032
C20	C	0.197486	-0.484308	0.690051
C21	C	0.156398	-0.269238	0.649045
C22	C	0.156418	-0.525342	0.649015
C23	C	0.220484	-0.461329	0.713032
C24	C	0.443889	-0.485097	0.619172
C25	C	0.506571	-0.505993	0.598266
C26	C	0.506589	-0.607412	0.636940
C27	C	0.443909	-0.586515	0.657848
C28	C	0.171510	-0.237888	0.587422
C29	C	0.150593	-0.175201	0.566543
C30	C	0.099458	-0.175218	0.668913
C31	C	0.120375	-0.237905	0.689792
C32	C	0.094789	-0.510201	0.664176
C33	C	0.073888	-0.531091	0.643278
C34	C	0.176239	-0.582263	0.592072
C35	C	0.197142	-0.561373	0.612963
C36	C	0.094933	-0.510244	0.936476
C37	C	0.074073	-0.531151	0.999161
C38	C	0.176453	-0.582335	0.999126
C39	C	0.197312	-0.561429	0.936439
C40	C	0.156551	-0.525382	0.905116
C41	C	0.412561	-0.525357	0.648961
C42	C	-0.098513	-0.688235	0.485867
C43	C	-0.006461	-0.688368	0.394066
C44	C	-0.006645	-0.780264	0.486040
C45	C	-0.006630	-0.688361	0.486097
C46	C	-0.029562	-0.711308	0.463018
N47	N	0.537030	-0.566846	0.607436
O48	O	0.741877	-0.576849	0.459995
O49	O	0.742050	-0.693241	0.618010
O50	O	0.741986	-0.692977	0.517791
O51	O	0.741941	-0.577114	0.560214
O52	O	0.642405	-0.659839	0.551046
O53	O	0.642469	-0.660104	0.651265
O54	O	0.642296	-0.543712	0.493251
Zn55	Zn	0.626572	-0.596646	0.577538
Zn56	Zn	0.757774	-0.640307	0.533723
O57	O	0.642360	-0.543976	0.593469
N58	N	0.847316	-0.670107	0.503818
N59	N	0.114877	-0.144758	0.607577
O60	O	-0.032498	0.060193	0.597441
O61	O	0.125523	0.060193	0.481067
O62	O	0.025289	0.060179	0.481345
O63	O	0.067736	0.060207	0.597163
O64	O	0.058511	-0.039410	0.514543
O65	O	0.158745	-0.039397	0.514265
O66	O	0.000724	-0.039396	0.630638
Zn67	Zn	0.085009	-0.055208	0.577722
Zn68	Zn	0.041238	0.076005	0.533983
O69	O	0.100958	-0.039382	0.630360
N70	N	0.011362	0.165555	0.504130
N71	N	0.115121	-0.566884	1.029592
O72	O	0.104990	-0.714248	1.234528
O73	O	-0.011371	-0.556177	1.234539
O74	O	-0.011103	-0.656395	1.234497
O75	O	0.104722	-0.614030	1.234569
O76	O	0.022090	-0.623190	1.134913
O77	O	0.021822	-0.522972	1.134954
O78	O	0.138182	-0.681044	1.134943
Zn79	Zn	0.085272	-0.596736	1.119137
Zn80	Zn	0.041539	-0.640484	1.250344
O81	O	0.137914	-0.580826	1.134984
N82	N	0.011689	-0.670343	1.339890
C83	C	0.038085	-0.519567	0.481870
C84	C	0.162104	-0.643505	0.481786
C85	C	0.088200	-0.717587	0.629893
C86	C	-0.035819	-0.593649	0.629977
C87	C	0.692280	-0.692701	0.654545
C88	C	0.692203	-0.692374	0.530435
C89	C	0.692063	-0.544251	0.456717
C90	C	0.692144	-0.544580	0.580825
C91	C	0.162000	0.010521	0.481600
C92	C	0.037914	0.010381	0.481984
C93	C	-0.035795	0.010399	0.630065
C94	C	0.088333	0.010415	0.629722
C95	C	-0.010799	-0.519660	1.184747
C96	C	-0.010461	-0.643761	1.184677
C97	C	0.137610	-0.717561	1.184734
C98	C	0.137280	-0.593452	1.184783
H99	H	0.061737	-0.480889	0.910978
O100	O	-0.054440	-0.465526	1.184722
C101	C	-0.155392	-0.404162	1.184734
C102	C	-0.106018	-0.465491	1.184751
H103	H	-0.197109	-0.404117	1.184770
H104	H	-0.138961	-0.367584	1.143058
H105	H	-0.166670	-0.395395	1.226410
H106	H	-0.094718	-0.474315	1.143103
H107	H	-0.122475	-0.502035	1.226455
H108	H	0.692134	-0.508185	0.589902
O109	O	-0.090011	-0.582864	0.673449
C110	C	-0.188623	-0.511919	0.701110
C111	C	-0.127275	-0.524049	0.651829
H112	H	-0.218772	-0.464373	0.683644
H113	H	-0.182389	-0.517278	0.741947
H114	H	-0.210138	-0.545151	0.714211
H115	H	-0.105726	-0.490828	0.638677
H116	H	-0.133548	-0.518711	0.611024
H117	H	0.028825	0.010378	0.445599
H118	H	0.174144	-0.762957	1.184724
O119	O	0.692362	-0.736238	0.708708
C120	C	0.692396	-0.764063	0.807352
C121	C	0.692317	-0.714710	0.746035
H122	H	0.692346	-0.746671	0.837552
H123	H	0.734100	-0.804891	0.801075
H124	H	0.650751	-0.777156	0.828838
H125	H	0.733933	-0.701567	0.724516
H126	H	0.650584	-0.673915	0.752352
H127	H	0.097420	0.010424	0.666105
O128	O	-0.089891	0.010298	0.673705
C129	C	-0.143339	-0.041262	0.773583
C130	C	-0.082037	-0.041231	0.724211
H131	H	-0.137008	-0.082913	0.814434
H132	H	-0.173553	-0.041307	0.756278
H133	H	-0.164837	0.000441	0.786601
H134	H	-0.060487	-0.082927	0.711171
H135	H	-0.051865	-0.041155	0.741543
H136	H	-0.046832	-0.652809	1.184615
H137	H	0.173667	-0.584388	1.184797
H138	H	0.692221	-0.728771	0.521355
H139	H	0.023897	-0.518815	1.024687
O140	O	0.413409	-0.425679	0.610465
C141	C	0.342583	-0.336628	0.566620
C142	C	0.377072	-0.403913	0.576426
H143	H	0.313187	-0.319013	0.539109
H144	H	0.375718	-0.311409	0.541705
H145	H	0.313280	-0.329662	0.611828
H146	H	0.406376	-0.410935	0.531244
H147	H	0.343905	-0.429098	0.601368
O148	O	0.691972	-0.500579	0.402623
C149	C	0.691904	-0.399620	0.341287
C150	C	0.691993	-0.449020	0.402578
H151	H	0.691933	-0.357927	0.341226
H152	H	0.650206	-0.388286	0.332528
H153	H	0.733555	-0.416095	0.304712
H154	H	0.650370	-0.432585	0.439192
H155	H	0.733718	-0.460346	0.411285
O156	O	0.216052	0.010880	0.437957
C157	C	0.314538	0.011343	0.409962
C158	C	0.253348	0.010951	0.459435
H159	H	0.344714	0.011388	0.427312
H160	H	0.308033	0.053120	0.369253
H161	H	0.336182	-0.030235	0.396705
H162	H	0.231672	0.052500	0.472742
H163	H	0.259893	-0.030854	0.500111
H164	H	0.247489	-0.573760	0.910909
O165	O	0.216130	-0.617363	1.029460
C166	C	0.319879	-0.665901	1.022809
C167	C	0.275012	-0.626230	0.988381
H168	H	0.367495	-0.673072	0.989612
H169	H	0.312717	-0.711017	1.052130
H170	H	0.312636	-0.642944	1.052181
H171	H	0.282228	-0.649134	0.958977
H172	H	0.282185	-0.581116	0.959099
O173	O	0.099038	-0.771830	0.673302
C174	C	0.170092	-0.870399	0.700868
C175	C	0.157893	-0.809002	0.651652
H176	H	0.217679	-0.900465	0.683387
H177	H	0.136949	-0.892015	0.713958
H178	H	0.164686	-0.864153	0.741718
H179	H	0.163307	-0.815195	0.610770
H180	H	0.191033	-0.787407	0.638613
O181	O	0.055204	-0.475111	0.699101
C182	C	-0.025927	-0.382863	0.707145
C183	C	0.018881	-0.422537	0.667523
H184	H	-0.055315	-0.340354	0.681635
H185	H	-0.000436	-0.370481	0.719466
H186	H	-0.055232	-0.408408	0.749690
H187	H	0.048197	-0.397029	0.624953
H188	H	-0.006648	-0.434922	0.655250
O189	O	0.014017	-0.516461	0.658106
C190	C	-0.079835	-0.521238	0.737601
C191	C	-0.012039	-0.537853	0.720891
H192	H	-0.100923	-0.538515	0.788363
H193	H	-0.087809	-0.542375	0.716515
H194	H	-0.100969	-0.470479	0.720290
H195	H	0.009140	-0.588604	0.738198
H196	H	-0.004108	-0.516674	0.741968
H197	H	0.247325	-0.573698	0.600612
O198	O	0.215884	-0.617241	0.557038
C199	C	0.319611	-0.665827	0.508486
C200	C	0.274783	-0.626202	0.548154
H201	H	0.367240	-0.673095	0.501302
H202	H	0.312410	-0.642860	0.463378
H203	H	0.312365	-0.710902	0.531449
H204	H	0.282002	-0.581121	0.525244
H205	H	0.281995	-0.649216	0.593260
H206	H	0.029071	-0.474132	0.445424
H207	H	0.418403	-0.619300	0.682106
O208	O	0.216267	-0.654279	0.438277
C209	C	0.288346	-0.714829	0.375089
C210	C	0.227002	-0.702701	0.424374
H211	H	0.297039	-0.753970	0.363824
H212	H	0.324924	-0.726243	0.391575
H213	H	0.288471	-0.673217	0.333347
H214	H	0.226818	-0.744292	0.466133
H215	H	0.190451	-0.691262	0.407838
O216	O	0.536949	-0.666842	0.645641
C217	C	0.530357	-0.765227	0.686170
C218	C	0.495897	-0.697940	0.676371
H219	H	0.497182	-0.790388	0.711004
H220	H	0.559705	-0.782915	0.713754
H221	H	0.559701	-0.772184	0.640961
H222	H	0.466520	-0.690931	0.721551
H223	H	0.466586	-0.680284	0.648759
H224	H	0.532080	-0.473208	0.574011
H225	H	0.200842	-0.263395	0.554238
H226	H	0.162897	-0.149674	0.516363
H227	H	0.108067	-0.263426	0.739970
O228	O	0.064454	-0.144871	0.708574
C229	C	0.015986	-0.151505	0.812317
C230	C	0.055621	-0.185944	0.767466
H231	H	0.008843	-0.184697	0.859941
H232	H	-0.029140	-0.122175	0.805159
H233	H	0.038951	-0.122138	0.805050
H234	H	0.032709	-0.215343	0.774706
H235	H	0.100746	-0.215235	0.774635
