data_functionalizedCrystal
_audit_creation_method	'MofGen! by Chris Wilmer'
_symmetry_space_group_name_H-M	'P1'
_symmetry_Int_Tables_number	1
_symmetry_cell_setting	triclinic
loop_
_symmetry_equiv_pos_as_xyz
  x,y,z
_cell_length_a	10.654546
_cell_length_b	22.010155
_cell_length_c	10.654558
_cell_angle_alpha	90.005240
_cell_angle_beta	84.485875
_cell_angle_gamma	89.983865
loop_
_atom_site_label
_atom_site_type_symbol
_atom_site_fract_x
_atom_site_fract_y
_atom_site_fract_z
O1	O	-1.667858	0.050631	-0.176360
O2	O	-1.302379	0.050609	-0.193171
O3	O	-1.493516	0.050618	-0.002027
O4	O	-1.476721	0.050622	-0.367504
O5	O	-1.493482	-0.050432	-0.002056
O6	O	-1.302345	-0.050442	-0.193200
O7	O	-1.667823	-0.050419	-0.176389
Cu8	Cu	-1.485081	-0.059657	-0.184797
Cu9	Cu	-1.485122	0.059847	-0.184763
O10	O	-1.476686	-0.050428	-0.367533
C11	C	-1.255564	0.000081	-0.191952
C12	C	-1.116120	0.000072	-0.188262
C13	C	-1.036638	0.000080	-0.300804
C14	C	-0.905617	0.000086	-0.297329
C15	C	-0.933573	0.000079	-0.068760
C16	C	-1.064592	0.000069	-0.072236
C17	C	-1.020496	0.000086	-0.432766
C18	C	-0.889475	0.000092	-0.429291
N19	N	-1.485061	-0.143710	-0.184820
C20	C	-1.569762	-0.563485	-0.100137
C21	C	-1.569768	-0.627093	-0.100128
O22	O	-1.641734	-0.659981	-0.028143
N23	N	-1.485121	-0.658917	-0.184737
C24	C	-1.400454	-0.627130	-0.269351
O25	O	-1.328454	-0.660040	-0.341316
C26	C	-1.400443	-0.563524	-0.269352
C27	C	-1.485104	-0.531703	-0.184747
C28	C	-1.654416	-0.531664	-0.015537
C29	C	-1.654412	-0.468061	-0.015548
C30	C	-1.569753	-0.436278	-0.100158
C31	C	-1.485100	-0.468099	-0.184757
C32	C	-1.315771	-0.531738	-0.353959
C33	C	-1.315766	-0.468127	-0.353953
C34	C	-1.400428	-0.436306	-0.269348
C35	C	-1.400437	-0.372714	-0.269378
N36	N	-1.485085	-0.340890	-0.184769
C37	C	-1.569743	-0.372672	-0.100159
C38	C	-1.400481	-0.760708	-0.269340
C39	C	-1.400497	-0.824313	-0.269345
C40	C	-1.569810	-0.824271	-0.100121
C41	C	-1.569800	-0.760665	-0.100122
C42	C	-1.485129	-0.728884	-0.184731
C43	C	-1.569728	-0.239101	-0.100188
C44	C	-1.569719	-0.175492	-0.100210
C45	C	-1.400402	-0.175539	-0.269429
C46	C	-1.400414	-0.239143	-0.269413
C47	C	-1.485082	-0.270922	-0.184782
O48	O	-1.328505	-0.339786	-0.341323
O49	O	-1.641719	-0.339755	-0.028196
C50	C	-0.714638	0.000102	-0.177611
C51	C	-0.854081	0.000088	-0.181310
C52	C	-1.492264	0.000093	0.044756
C53	C	-1.488568	0.000095	0.184199
N54	N	-1.485151	0.143899	-0.184730
C55	C	-1.477939	0.000098	-0.414317
C56	C	-1.481635	0.000100	-0.553759
C57	C	-1.486810	-0.054987	0.249697
C58	C	-1.483348	-0.054985	0.380720
C59	C	-1.483397	0.055186	0.380734
C60	C	-1.486868	0.055183	0.249715
C61	C	-1.486776	-0.118593	0.249689
C62	C	-1.483314	-0.118591	0.380712
H63	H	-0.843790	-0.043535	-0.469185
H64	H	-1.572751	-0.138326	0.432412
O65	O	-1.652092	-0.269871	-0.017932
C66	C	-1.819974	-0.263099	0.149963
C67	C	-1.726782	-0.228177	0.056862
H68	H	-1.880367	-0.229405	0.210476
H69	H	-1.883280	-0.292857	0.095235
H70	H	-1.765193	-0.292897	0.213165
H71	H	-1.781460	-0.198347	-0.006363
H72	H	-1.663477	-0.198458	0.111668
H73	H	-1.394633	-0.143020	0.405541
H74	H	-1.246831	-0.557638	-0.422852
O75	O	-1.141622	0.000081	0.037205
C76	C	-1.155519	0.000024	0.264280
C77	C	-1.068139	0.000027	0.140429
H78	H	-1.096144	-0.000033	0.347769
H79	H	-1.217579	0.042317	0.268483
H80	H	-1.217539	-0.042262	0.268270
H81	H	-1.006041	0.042284	0.136357
H82	H	-1.006165	-0.042294	0.136278
H83	H	-1.056168	0.043716	-0.474772
H84	H	-1.575440	-0.143013	0.224858
O85	O	-0.839820	0.050525	-0.488765
C86	C	-0.812109	0.107580	-0.682455
C87	C	-0.868438	0.050452	-0.615249
H88	H	-0.835203	0.107533	-0.784735
H89	H	-0.853905	0.149896	-0.632836
H90	H	-0.705428	0.107582	-0.679560
H91	H	-0.975117	0.050391	-0.618124
H92	H	-0.826545	0.008162	-0.664888
O93	O	-0.883308	0.000106	0.043834
C94	C	-0.693858	0.000078	0.150490
C95	C	-0.750611	0.000061	0.022890
H96	H	-0.586566	0.000029	0.133601
H97	H	-0.726456	0.042375	0.206197
H98	H	-0.726551	-0.042204	0.206147
H99	H	-0.717945	0.042314	-0.032869
H100	H	-0.718019	-0.042264	-0.032722
O101	O	-1.318365	-0.729866	-0.351724
C102	C	-1.246631	-0.710474	-0.569434
C103	C	-1.339717	-0.745424	-0.476276
H104	H	-1.263843	-0.723049	-0.670154
H105	H	-1.261148	-0.659537	-0.555028
H106	H	-1.145914	-0.722993	-0.552072
H107	H	-1.440469	-0.732956	-0.493581
H108	H	-1.325089	-0.796352	-0.490704
O109	O	-1.736688	-0.437249	0.066770
C110	C	-1.904662	-0.443944	0.234576
C111	C	-1.811531	-0.478909	0.141429
H112	H	-1.965215	-0.477611	0.294945
H113	H	-1.849957	-0.414190	0.297911
H114	H	-1.967822	-0.414140	0.179760
H115	H	-1.748348	-0.508746	0.196143
H116	H	-1.866314	-0.508625	0.078095
H117	H	-1.049814	-0.042204	-0.484388
H118	H	-1.638665	-0.149585	-0.031314
H119	H	-1.246813	-0.442254	-0.422851
O120	O	-1.736489	-0.562558	0.066783
C121	C	-1.761796	-0.634375	0.238030
C122	C	-1.668693	-0.599421	0.144896
H123	H	-1.707021	-0.664197	0.301191
H124	H	-1.822271	-0.600723	0.298577
H125	H	-1.825039	-0.664116	0.183199
H126	H	-1.605369	-0.569680	0.199626
H127	H	-1.608308	-0.633106	0.084350
H128	H	-1.638737	-0.734760	-0.031229
H129	H	-1.638742	-0.850160	-0.031225
O130	O	-1.318055	-0.269963	-0.351642
C131	C	-1.150149	-0.263283	-0.519519
C132	C	-1.243350	-0.228310	-0.426458
H133	H	-1.089743	-0.229623	-0.580050
H134	H	-1.086856	-0.293044	-0.464757
H135	H	-1.204922	-0.293083	-0.582707
H136	H	-1.188679	-0.198478	-0.363247
H137	H	-1.306643	-0.198588	-0.481298
O138	O	-1.318092	-0.855193	-0.351414
C139	C	-1.100359	-0.874652	-0.423031
C140	C	-1.193553	-0.839657	-0.330001
H141	H	-0.999650	-0.862095	-0.405769
H142	H	-1.114783	-0.925582	-0.408503
H143	H	-1.117664	-0.862155	-0.523765
H144	H	-1.176305	-0.852104	-0.229230
H145	H	-1.179108	-0.788737	-0.344639
H146	H	-1.482013	0.100037	0.434093
O147	O	-1.488527	0.108744	0.186278
C148	C	-1.488309	0.218018	0.200137
C149	C	-1.486394	0.157402	0.272130
H150	H	-1.486611	0.257374	0.269520
H151	H	-1.402178	0.220814	0.128100
H152	H	-1.577654	0.220737	0.149490
H153	H	-1.397106	0.154643	0.322852
H154	H	-1.572585	0.154632	0.344094
H155	H	-1.331478	-0.149652	-0.338322
H156	H	-1.397323	-0.138333	0.197980
