data_functionalizedCrystal
_audit_creation_method	'MofGen! by Chris Wilmer'
_symmetry_space_group_name_H-M	'P1'
_symmetry_Int_Tables_number	1
_symmetry_cell_setting	triclinic
loop_
_symmetry_equiv_pos_as_xyz
  x,y,z
_cell_length_a	11.792241
_cell_length_b	11.792241
_cell_length_c	13.930277
_cell_angle_alpha	89.996987
_cell_angle_beta	89.999552
_cell_angle_gamma	95.806585
loop_
_atom_site_label
_atom_site_type_symbol
_atom_site_fract_x
_atom_site_fract_y
_atom_site_fract_z
O1	O	-0.155567	1.506913	-0.079726
O2	O	-0.171600	1.176572	-0.079747
O3	O	0.001587	1.349759	-0.079742
O4	O	-0.328754	1.333726	-0.079732
O5	O	0.001591	1.349735	0.079920
O6	O	-0.171596	1.176548	0.079914
O7	O	-0.155563	1.506889	0.079936
Zn8	Zn	-0.163579	1.341715	0.105275
Zn9	Zn	-0.163584	1.341747	-0.105087
O10	O	-0.328750	1.333702	0.079930
C11	C	-0.170591	1.134269	0.000081
C12	C	-0.167576	1.008255	0.000072
C13	C	-0.162034	0.777543	0.000099
C14	C	-0.165113	0.905928	0.000084
C15	C	-0.371043	1.334721	0.000101
C16	C	-0.497057	1.337736	0.000105
C17	C	-0.727769	1.343279	0.000081
C18	C	-0.599384	1.340199	0.000094
C19	C	0.043880	1.348740	0.000085
C20	C	0.169894	1.345726	0.000075
C21	C	-0.156572	1.549192	0.000105
C22	C	-0.159587	1.675206	0.000108
N23	N	-0.163575	1.341701	0.248841
N24	N	-0.163579	1.341769	-0.248653
C25	C	-0.240241	1.265056	0.701108
C26	C	-0.086919	1.418468	0.701082
C27	C	-0.086915	1.418455	0.600586
C28	C	-0.163577	1.341742	0.550347
C29	C	-0.240242	1.265043	0.600603
C30	C	-0.010259	1.495160	0.550323
C31	C	-0.010253	1.495151	0.449821
C32	C	-0.086910	1.418432	0.399579
C33	C	-0.163578	1.341728	0.449842
C34	C	-0.240239	1.265016	0.399602
C35	C	-0.316902	1.188306	0.449862
C36	C	-0.316899	1.188324	0.550361
C37	C	-0.086913	1.418414	0.299080
C38	C	-0.240240	1.265002	0.299097
H39	H	-0.379326	1.125851	0.408946
C40	C	-0.002594	1.502786	0.243796
C41	C	0.084516	1.457908	0.174713
C42	C	0.168842	1.542285	0.119430
C43	C	0.166058	1.671540	0.133230
C44	C	0.078945	1.716424	0.202316
C45	C	-0.005381	1.632048	0.257599
H46	H	0.086580	1.362220	0.164495
H47	H	0.233329	1.509057	0.068288
H48	H	0.228482	1.734000	0.092306
H49	H	0.076881	1.812113	0.212534
H50	H	-0.069868	1.665275	0.308740
H51	H	-0.379316	1.125870	0.591290
H52	H	-0.302656	1.202597	0.742032
C53	C	-0.002594	1.502851	0.756339
C54	C	0.084509	1.457986	0.825439
C55	C	0.168839	1.542373	0.880698
C56	C	0.166067	1.671625	0.866859
C57	C	0.078961	1.716497	0.797756
C58	C	-0.005369	1.632110	0.742496
H59	H	0.086564	1.362300	0.835686
H60	H	0.233321	1.509155	0.931853
H61	H	0.228494	1.734093	0.907765
H62	H	0.076906	1.812183	0.787508
H63	H	-0.069851	1.665328	0.691342
C64	C	0.074066	1.579544	0.605580
C65	C	0.161177	1.534678	0.674671
C66	C	0.245508	1.619065	0.729931
C67	C	0.242727	1.748317	0.716099
C68	C	0.155613	1.793189	0.647005
C69	C	0.071282	1.708802	0.591745
H70	H	0.163238	1.438992	0.684913
H71	H	0.309996	1.585847	0.781079
H72	H	0.305154	1.810785	0.757006
H73	H	0.153551	1.888875	0.636763
H74	H	0.006794	1.742020	0.540597
C75	C	0.074080	1.579518	0.394537
C76	C	0.161183	1.534624	0.325456
C77	C	0.245518	1.618988	0.270170
C78	C	0.242751	1.748245	0.283963
C79	C	0.155644	1.793146	0.353046
C80	C	0.071309	1.708782	0.408333
H81	H	0.163235	1.438934	0.315243
H82	H	0.310000	1.585748	0.219030
H83	H	0.305181	1.810696	0.243037
H84	H	0.153592	1.888836	0.363260
H85	H	0.006827	1.742022	0.459473
H86	H	-0.302664	1.202529	0.258198
