data_functionalizedCrystal
_audit_creation_method	'MofGen! by Chris Wilmer'
_symmetry_space_group_name_H-M	'P1'
_symmetry_Int_Tables_number	1
_symmetry_cell_setting	triclinic
loop_
_symmetry_equiv_pos_as_xyz
  x,y,z
_cell_length_a	12.759395
_cell_length_b	13.897449
_cell_length_c	12.759394
_cell_angle_alpha	89.991787
_cell_angle_beta	89.985318
_cell_angle_gamma	90.001565
loop_
_atom_site_label
_atom_site_type_symbol
_atom_site_fract_x
_atom_site_fract_y
_atom_site_fract_z
Zn1	Zn	1.606082	0.545328	0.418459
Zn2	Zn	2.106082	1.045328	0.918459
Zn3	Zn	1.606027	0.384033	0.594104
Zn4	Zn	2.106027	0.884033	1.094104
Zn5	Zn	1.430435	0.384053	0.418439
Zn6	Zn	1.930435	0.884053	0.918439
Zn7	Zn	1.430373	0.545292	0.594096
Zn8	Zn	1.930373	1.045292	1.094096
O9	O	1.518229	0.464677	0.506274
O10	O	2.018229	0.964677	1.006274
O11	O	1.753096	0.523939	0.441770
O12	O	2.253096	1.023939	0.941770
O13	O	1.582738	0.249054	0.570796
O14	O	2.082738	0.749054	1.070796
O15	O	1.453785	0.405471	0.271420
O16	O	1.953785	0.905471	0.771420
O17	O	1.753056	0.405436	0.570816
O18	O	2.253056	0.905436	1.070816
O19	O	1.582832	0.523959	0.271435
O20	O	2.082832	1.023959	0.771435
O21	O	1.453731	0.249069	0.441736
O22	O	1.953731	0.749069	0.941736
O23	O	1.283406	0.405435	0.441728
O24	O	1.783406	0.905435	0.941728
O25	O	1.453678	0.680278	0.570802
O26	O	1.953678	1.180278	1.070802
O27	O	1.283360	0.523896	0.570783
O28	O	1.783360	1.023896	1.070783
O29	O	1.582771	0.680305	0.441762
O30	O	2.082771	1.180305	0.941762
O31	O	1.582677	0.405400	0.741124
O32	O	2.082677	0.905400	1.241124
O33	O	1.453624	0.523877	0.741118
O34	O	1.953624	1.023877	1.241118
C35	C	1.245262	0.464665	0.506253
C36	C	1.745262	0.964665	1.006253
C37	C	1.128485	0.464683	0.506270
C38	C	1.628485	0.964683	1.006270
C39	C	1.128508	0.588279	0.372112
C40	C	1.628508	1.088279	0.872112
C41	C	1.073658	0.650085	0.305046
C42	C	1.573658	1.150085	0.805046
C43	C	0.963937	0.650097	0.305064
C44	C	1.463937	1.150097	0.805064
C45	C	0.909062	0.588295	0.372154
C46	C	1.409062	1.088295	0.872154
C47	C	0.963912	0.526488	0.439220
C48	C	1.463912	1.026488	0.939220
C49	C	1.073636	0.526485	0.439197
C50	C	1.573636	1.026485	0.939197
C51	C	0.963889	0.402888	0.573371
C52	C	1.463889	0.902888	1.073371
C53	C	1.073611	0.402880	0.573360
C54	C	1.573611	0.902880	1.073360
C55	C	0.909014	0.341086	0.640461
C56	C	1.409014	0.841086	1.140461
C57	C	0.963864	0.279283	0.707534
C58	C	1.463864	0.779283	1.207534
C59	C	1.073592	0.279274	0.707514
C60	C	1.573592	0.779274	1.207514
C61	C	1.128460	0.341074	0.640426
C62	C	1.628460	0.841074	1.140426
C63	C	1.518223	0.716270	0.506283
C64	C	2.018223	1.216270	1.006283
C65	C	1.518221	0.823483	0.506287
C66	C	2.018221	1.323483	1.006287
C67	C	1.518218	0.910553	0.506291
C68	C	2.018218	1.410553	1.006291
C69	C	1.518217	1.019786	0.506286
C70	C	2.018217	1.519786	1.006286
C71	C	1.792263	0.464689	0.506296
C72	C	2.292263	0.964689	1.006296
C73	C	1.909039	0.464694	0.506305
C74	C	2.409039	0.964694	1.006305
C75	C	1.518166	0.464653	0.779242
C76	C	2.018166	0.964653	1.279242
C77	C	1.518235	0.464676	0.896018
C78	C	2.018235	0.964676	1.396018
C79	C	1.518226	1.214062	0.506286
C80	C	2.018226	1.714062	1.006286
C81	C	1.518222	1.106848	0.506276
C82	C	2.018222	1.606848	1.006276
C83	C	1.518321	0.464721	0.232241
C84	C	2.018321	0.964721	0.732241
C85	C	1.518361	0.464740	0.115464
C86	C	2.018361	0.964740	0.615464
C87	C	1.652719	0.341399	0.895971
C88	C	2.152719	0.841399	1.395971
C89	C	1.719988	0.279771	0.950808
C90	C	2.219988	0.779771	1.450808
C91	C	1.720050	0.279798	1.060530
C92	C	2.220050	0.779798	1.560530
C93	C	1.652837	0.341460	1.115417
C94	C	2.152837	0.841460	1.615417
C95	C	1.585568	0.403087	1.060580
C96	C	2.085568	0.903087	1.560580
C97	C	1.585512	0.403052	0.950856
C98	C	2.085512	0.903052	1.450856
C99	C	1.451091	0.526367	1.060627
C100	C	1.951091	1.026367	1.560627
C101	C	1.451023	0.526338	0.950905
C102	C	1.951023	1.026338	1.450905
C103	C	1.383879	0.588029	1.115514
C104	C	1.883879	1.088029	1.615514
C105	C	1.316603	0.649653	1.060677
C106	C	1.816603	1.149653	1.560677
C107	C	1.316543	0.649623	0.950948
C108	C	1.816543	1.149623	1.450948
C109	C	1.383754	0.587965	0.896068
C110	C	1.883754	1.087965	1.396068
H111	H	0.919176	0.228964	0.762149
H112	H	1.419176	0.728964	1.262149
Br113	Br	1.383470	0.587615	1.264421
Br114	Br	1.883470	1.087615	1.764421
Br115	Br	1.148021	0.195383	0.798531
Br116	Br	1.648021	0.695383	1.298531
Br117	Br	1.225406	0.733337	1.135169
Br118	Br	1.725406	1.233337	1.635169
H119	H	0.919279	0.700420	0.250447
H120	H	1.419279	1.200420	0.750447
H121	H	1.217801	0.341068	0.640397
H122	H	1.717801	0.841068	1.140397
Br123	Br	1.652965	0.341658	0.747063
Br124	Br	2.152965	0.841658	1.247063
Br125	Br	1.811209	0.196099	0.876316
Br126	Br	2.311209	0.696099	1.376316
Br127	Br	0.760153	0.588296	0.372161
Br128	Br	1.260153	1.088296	0.872161
Br129	Br	1.811352	0.196169	1.134957
Br130	Br	2.311352	0.696169	1.634957
H131	H	1.652902	0.341484	1.204758
H132	H	2.152902	0.841484	1.704758
Br133	Br	1.225253	0.733273	0.876536
Br134	Br	1.725253	1.233273	1.376536
Br135	Br	1.384015	0.588230	0.747160
Br136	Br	1.884015	1.088230	1.247160
H137	H	1.217849	0.588271	0.372085
H138	H	1.717849	1.088271	0.872085
H139	H	1.118350	0.700402	0.250421
H140	H	1.618350	1.200402	0.750421
H141	H	0.819673	0.341097	0.640469
H142	H	1.319673	0.841097	1.140469
