data_functionalizedCrystal
_audit_creation_method	'MofGen! by Chris Wilmer'
_symmetry_space_group_name_H-M	'P1'
_symmetry_Int_Tables_number	1
_symmetry_cell_setting	triclinic
loop_
_symmetry_equiv_pos_as_xyz
  x,y,z
_cell_length_a	14.044220
_cell_length_b	10.654541
_cell_length_c	9.730217
_cell_angle_alpha	89.999932
_cell_angle_beta	90.002267
_cell_angle_gamma	91.163597
loop_
_atom_site_label
_atom_site_type_symbol
_atom_site_fract_x
_atom_site_fract_y
_atom_site_fract_z
O1	O	-0.133219	1.681226	-0.114245
O2	O	-0.145915	1.317022	-0.114256
O3	O	-0.001546	1.493657	-0.114245
O4	O	-0.277587	1.504591	-0.114256
O5	O	-0.001545	1.493651	0.114336
O6	O	-0.145914	1.317016	0.114324
O7	O	-0.133218	1.681220	0.114335
Zn8	Zn	-0.139565	1.499117	0.150622
Zn9	Zn	-0.139567	1.499125	-0.150542
O10	O	-0.277586	1.504585	0.114324
C11	C	-0.144983	1.270128	0.000032
C12	C	-0.142195	1.130404	0.000028
C13	C	-0.314827	1.119781	0.000003
C14	C	-0.399829	1.048829	-0.000015
C15	C	-0.397204	0.917547	-0.000016
C16	C	-0.309567	0.857215	0.000005
C17	C	-0.224565	0.928167	0.000023
C18	C	-0.227199	1.059452	0.000020
C19	C	-0.051935	0.938790	0.000057
C20	C	-0.054558	1.070072	0.000049
C21	C	0.035701	0.878458	0.000078
C22	C	0.120706	0.949411	0.000086
C23	C	0.118077	1.080701	0.000085
C24	C	0.030444	1.141025	0.000066
C25	C	-0.312933	1.509374	0.000032
C26	C	-0.418252	1.523649	0.000028
C27	C	-0.611085	1.549748	0.000035
C28	C	-0.668053	1.448500	0.000033
C29	C	-0.775352	1.463022	0.000036
C30	C	-0.503776	1.535228	0.000031
C31	C	0.033800	1.488869	0.000044
C32	C	0.139120	1.474593	0.000039
C33	C	-0.134150	1.728114	0.000044
C34	C	-0.136938	1.867838	0.000039
N35	N	-0.139564	1.499121	0.356158
N36	N	-0.139561	1.499131	-0.356079
C37	C	-0.011763	1.655605	0.356159
C38	C	0.052135	1.733855	0.428100
C39	C	0.052135	1.733868	0.571979
C40	C	-0.011767	1.655619	0.643922
C41	C	-0.075664	1.577368	0.571982
C42	C	-0.075660	1.577367	0.428099
C43	C	-0.203459	1.420880	0.571981
C44	C	-0.203466	1.420872	0.428101
C45	C	-0.267361	1.342631	0.643923
C46	C	-0.331265	1.264385	0.571983
C47	C	-0.331263	1.264376	0.428094
C48	C	-0.267363	1.342621	0.356160
H49	H	-0.471181	1.097966	-0.000028
H50	H	-0.642895	1.647328	0.000043
N51	N	-0.625912	1.319238	0.000054
H52	H	-0.647691	1.272042	0.084796
H53	H	-0.647700	1.272114	-0.084730
H54	H	-0.011765	1.655613	0.239005
N55	N	0.121078	1.818217	0.350507
H56	H	0.111390	1.806333	0.248443
H57	H	0.109507	1.908607	0.375634
H58	H	-0.307437	0.750318	0.000021
N59	N	-0.400176	1.180000	0.649585
H60	H	-0.467606	1.202000	0.624551
H61	H	-0.388539	1.089613	0.624520
H62	H	0.104169	1.797581	0.630554
H63	H	-0.011755	1.655623	0.761077
H64	H	0.187297	1.138463	0.000105
N65	N	-0.400180	1.179964	0.350515
H66	H	-0.467609	1.201962	0.375552
H67	H	-0.390407	1.191860	0.248474
N68	N	-0.267362	1.342635	0.799107
H69	H	-0.217190	1.404082	0.833767
H70	H	-0.331979	1.368086	0.833641
N71	N	-0.267367	1.342618	0.200977
H72	H	-0.217191	1.404060	0.166324
H73	H	-0.252989	1.255646	0.166435
N74	N	0.215213	0.884328	0.000108
H75	H	0.252498	0.909484	-0.084622
H76	H	0.252413	0.909520	0.084904
H77	H	-0.466420	0.859777	-0.000021
H78	H	-0.316973	1.226677	-0.000026
H79	H	0.037833	0.771562	0.000084
N80	N	0.027609	1.282620	0.000060
H81	H	-0.040804	1.310069	0.000046
H82	H	0.060903	1.316229	0.084808
