data_functionalizedCrystal
_audit_creation_method	'MofGen! by Chris Wilmer'
_symmetry_space_group_name_H-M	'P1'
_symmetry_Int_Tables_number	1
_symmetry_cell_setting	triclinic
loop_
_symmetry_equiv_pos_as_xyz
  x,y,z
_cell_length_a	15.944551
_cell_length_b	10.268362
_cell_length_c	11.792241
_cell_angle_alpha	90.005428
_cell_angle_beta	96.153923
_cell_angle_gamma	89.999906
loop_
_atom_site_label
_atom_site_type_symbol
_atom_site_fract_x
_atom_site_fract_y
_atom_site_fract_z
O1	O	1.115185	-0.108165	-0.146381
O2	O	1.615185	0.391835	0.353619
O3	O	0.870717	-0.108197	-0.164428
O4	O	1.370717	0.391803	0.335572
O5	O	0.998883	-0.108171	0.009815
O6	O	1.498883	0.391829	0.509815
O7	O	0.987018	-0.108191	-0.320624
O8	O	1.487018	0.391809	0.179376
O9	O	0.998872	0.108429	0.009822
O10	O	1.498872	0.608429	0.509822
O11	O	0.870705	0.108403	-0.164421
O12	O	1.370705	0.608403	0.335579
O13	O	1.115173	0.108436	-0.146373
O14	O	1.615173	0.608436	0.353627
Cu15	Cu	0.992938	0.128197	-0.155396
Cu16	Cu	1.492938	0.628197	0.344604
Cu17	Cu	0.992952	-0.127958	-0.155405
Cu18	Cu	1.492952	0.372042	0.344595
O19	O	0.987007	0.108410	-0.320616
O20	O	1.487007	0.608410	0.179384
C21	C	0.839414	0.000099	-0.163675
C22	C	1.339414	0.500099	0.336325
C23	C	0.746157	0.000087	-0.161429
C24	C	1.246157	0.500087	0.338571
N25	N	0.992935	0.308363	-0.155390
N26	N	1.492935	0.808363	0.344610
N27	N	0.992961	-0.308124	-0.155402
N28	N	1.492961	0.191876	0.344598
C29	C	0.530789	0.000119	-0.048056
C30	C	1.030789	0.500119	0.451944
C31	C	0.470012	-0.106680	-0.100706
C32	C	0.970012	0.393320	0.399294
C33	C	0.575413	0.000102	-0.157365
C34	C	1.075413	0.500102	0.342635
C35	C	0.470023	0.106871	-0.100725
C36	C	0.970023	0.606871	0.399275
C37	C	0.410483	0.000123	-0.153432
C38	C	0.910483	0.500123	0.346568
C39	C	0.515865	-0.106785	-0.210045
C40	C	1.015865	0.393215	0.289955
C41	C	0.515882	0.106863	-0.210049
C42	C	1.015882	0.606863	0.289951
C43	C	0.455123	0.000038	-0.262778
C44	C	0.955123	0.500038	0.237222
C45	C	0.670426	0.000089	-0.159628
C46	C	1.170426	0.500089	0.340372
C47	C	0.315471	0.000127	-0.151178
C48	C	0.815471	0.500127	0.348822
C49	C	1.146476	0.000137	-0.147126
C50	C	1.646476	0.500137	0.352874
C51	C	1.239733	0.000140	-0.149372
C52	C	1.739733	0.500140	0.350628
C53	C	0.998132	0.000129	0.052104
C54	C	1.498132	0.500129	0.552104
C55	C	0.995901	0.000127	0.178099
C56	C	1.495901	0.500127	0.678099
C57	C	0.992947	0.574033	-0.155403
C58	C	1.492947	1.074033	0.344597
C59	C	0.992938	0.426195	-0.155399
C60	C	1.492938	0.926195	0.344601
C61	C	0.987758	0.000107	-0.362905
C62	C	1.487758	0.500107	0.137095
C63	C	0.989989	0.000100	-0.488900
C64	C	1.489989	0.500100	0.011100
C65	C	0.991799	0.000105	0.408777
C66	C	1.491799	0.500105	0.908777
C67	C	0.994079	0.000117	0.280411
C68	C	1.494079	0.500117	0.780411
H69	H	0.449698	-0.196965	-0.054476
H70	H	0.949698	0.303035	0.445524
O71	O	0.542829	0.226453	-0.271241
O72	O	1.042829	0.726453	0.228759
H73	H	0.612277	0.224825	-0.273052
H74	H	1.112277	0.724825	0.226948
O75	O	0.574372	0.000029	0.072124
O76	O	1.074372	0.500029	0.572124
H77	H	0.555211	0.087817	0.117855
H78	H	1.055211	0.587817	0.617855
O79	O	0.542614	-0.226548	-0.271203
O80	O	1.042614	0.273452	0.228797
H81	H	0.612130	-0.225651	-0.272333
H82	H	1.112130	0.274349	0.227667
O83	O	0.411748	-0.000022	-0.383070
O84	O	0.911748	0.499978	0.116930
H85	H	0.430114	-0.088754	-0.428164
H86	H	0.930114	0.411246	0.071836
H87	H	0.449724	0.197158	-0.054468
H88	H	0.949724	0.697158	0.445532
