data_functionalizedCrystal
_audit_creation_method	'MofGen! by Chris Wilmer'
_symmetry_space_group_name_H-M	'P1'
_symmetry_Int_Tables_number	1
_symmetry_cell_setting	triclinic
loop_
_symmetry_equiv_pos_as_xyz
  x,y,z
_cell_length_a	8.597340
_cell_length_b	10.489716
_cell_length_c	7.681481
_cell_angle_alpha	84.203772
_cell_angle_beta	103.474906
_cell_angle_gamma	84.931820
loop_
_atom_site_label
_atom_site_type_symbol
_atom_site_fract_x
_atom_site_fract_y
_atom_site_fract_z
O1	O	2.101853	0.176392	0.172477
O2	O	1.638024	0.196715	0.102104
O3	O	1.880512	0.000876	0.138888
O4	O	1.859364	0.372231	0.135692
O5	O	1.910358	-0.023283	0.436274
O6	O	1.667869	0.172556	0.399489
O7	O	2.131699	0.152233	0.469862
Zn8	Zn	1.904523	0.158559	0.481892
Zn9	Zn	1.865200	0.190389	0.090074
O10	O	1.889210	0.348072	0.433078
C11	C	1.593553	0.183799	0.241785
C12	C	1.416581	0.181290	0.214934
C13	C	1.893846	-0.058724	0.287334
C14	C	1.889090	-0.200318	0.286597
C15	C	2.037794	-0.299093	0.309174
C16	C	1.944501	-0.363961	0.150631
C17	C	1.973892	-0.387744	0.443824
C18	C	1.795847	-0.263312	0.127941
C19	C	1.825274	-0.287100	0.421270
C20	C	1.731868	-0.351915	0.262674
C21	C	2.176169	0.165149	0.330177
C22	C	2.353140	0.167659	0.357017
C23	C	1.875877	0.407672	0.284628
C24	C	1.880631	0.549267	0.285353
N25	N	1.931371	0.136834	0.749299
N26	N	1.838364	0.212103	-0.177331
H27	H	1.434218	0.157898	0.499209
C28	C	1.147115	0.189357	0.032606
C29	C	1.307131	0.194466	0.022960
H30	H	1.079549	0.197499	-0.085910
H31	H	1.137937	0.109228	0.096823
H32	H	1.115334	0.257895	0.093422
H33	H	1.338917	0.125921	-0.037844
H34	H	1.316316	0.274605	-0.041284
C35	C	2.274428	-0.305548	0.193418
C36	C	2.212349	-0.266978	0.335420
H37	H	2.382175	-0.285693	0.209598
H38	H	2.272530	-0.395848	0.192117
H39	H	2.210691	-0.261243	0.082235
H40	H	2.276079	-0.311291	0.446603
H41	H	2.214258	-0.176661	0.336739
C42	C	1.920740	-0.344470	-0.168891
C43	C	2.012442	-0.409712	-0.003856
H44	H	1.962701	-0.372707	-0.264255
H45	H	1.812144	-0.362145	-0.185515
H46	H	1.925208	-0.254311	-0.168833
H47	H	2.007965	-0.499871	-0.003908
H48	H	2.121066	-0.392047	0.012773
C49	C	1.699870	-0.057782	-0.050192
C50	C	1.694374	-0.190631	-0.052457
H51	H	1.637242	-0.012914	-0.161569
H52	H	1.657851	-0.030890	0.045818
H53	H	1.808248	-0.039444	-0.033317
H54	H	1.585997	-0.208969	-0.069318
H55	H	1.736387	-0.217533	-0.148495
C56	C	1.464219	-0.319850	0.070656
C57	C	1.557122	-0.383611	0.236063
H58	H	1.356343	-0.339427	0.054221
H59	H	1.466246	-0.229418	0.069999
H60	H	1.507052	-0.347481	-0.024434
H61	H	1.514296	-0.355972	0.331154
H62	H	1.555087	-0.474061	0.236735
C63	C	1.598245	-0.269468	0.553124
C64	C	1.757403	-0.241314	0.575772
H65	H	1.556361	-0.241209	0.648528
H66	H	1.534817	-0.226393	0.441015
H67	H	1.595624	-0.359903	0.554502
H68	H	1.760022	-0.150877	0.574382
H69	H	1.820847	-0.284386	0.687911
H70	H	2.049137	-0.441751	0.577307
C71	C	1.741865	0.437618	0.750956
C72	C	1.710187	0.315818	0.701721
H73	H	1.662737	0.501647	0.676271
H74	H	1.738949	0.439973	0.873449
H75	H	1.845387	0.453843	0.736509
H76	H	1.606668	0.299588	0.716182
H77	H	1.713087	0.313460	0.579199
C78	C	2.027876	-0.088685	0.821011
C79	C	2.059556	0.033113	0.870253
H80	H	2.107016	-0.152714	0.895678
H81	H	1.924372	-0.104915	0.835465
H82	H	2.030783	-0.091031	0.698498
H83	H	2.056637	0.035463	0.992763
H84	H	2.163087	0.049348	0.855815
