data_functionalizedCrystal
_audit_creation_method	'MofGen! by Chris Wilmer'
_symmetry_space_group_name_H-M	'P1'
_symmetry_Int_Tables_number	1
_symmetry_cell_setting	triclinic
loop_
_symmetry_equiv_pos_as_xyz
  x,y,z
_cell_length_a	16.992694
_cell_length_b	11.792241
_cell_length_c	15.455313
_cell_angle_alpha	92.683265
_cell_angle_beta	87.142206
_cell_angle_gamma	87.430819
loop_
_atom_site_label
_atom_site_type_symbol
_atom_site_fract_x
_atom_site_fract_y
_atom_site_fract_z
O1	O	1.044827	0.236106	-0.072022
O2	O	0.816531	0.233463	-0.072048
O3	O	0.936219	0.070068	-0.072029
O4	O	0.925139	0.399501	-0.072042
O5	O	0.929374	0.079370	0.072232
O6	O	0.809687	0.242766	0.072213
O7	O	1.037982	0.245409	0.072239
Cu8	Cu	0.923210	0.244937	0.085398
Cu9	Cu	0.931304	0.233935	-0.085207
O10	O	0.918295	0.408804	0.072219
C11	C	0.783882	0.234716	0.000079
C12	C	0.696795	0.224578	0.000070
C13	C	0.932101	0.032371	0.000102
C14	C	0.930017	-0.093813	0.000101
C15	C	0.646971	0.322395	0.000066
C16	C	0.565143	0.312864	0.000079
C17	C	0.533142	0.205513	0.000088
C18	C	0.582973	0.107688	0.000094
C19	C	0.664799	0.117221	0.000088
C20	C	0.289375	0.166002	0.000113
C21	C	0.207543	0.156476	0.000117
C22	C	0.189719	0.361652	0.000103
C23	C	0.271548	0.371176	0.000091
C24	C	0.321371	0.273351	0.000102
N25	N	0.449501	0.195767	0.000098
N26	N	0.405010	0.283098	0.000098
C27	C	0.926187	-0.324840	0.000086
C28	C	0.928315	-0.196280	0.000094
C29	C	1.070631	0.244155	0.000109
C30	C	1.157718	0.254293	0.000113
C31	C	0.922413	0.446501	0.000087
C32	C	0.924497	0.572684	0.000082
N33	N	0.917522	0.252674	0.205393
N34	N	0.936998	0.226189	-0.205202
C35	C	0.968388	0.183287	0.250795
C36	C	0.964094	0.189150	0.341602
C37	C	0.908938	0.264406	0.387005
C38	C	0.858067	0.333796	0.341597
C39	C	0.862358	0.327927	0.250791
C40	C	0.890417	0.289710	0.658584
C41	C	0.886132	0.295576	0.749396
C42	C	0.992158	0.150928	0.749395
C43	C	0.996447	0.145070	0.658588
C44	C	0.945574	0.214455	0.613187
N45	N	0.904549	0.270403	0.479825
N46	N	0.949959	0.208452	0.520369
H47	H	0.524579	0.392517	0.000075
H48	H	1.005512	0.132648	0.378568
C49	C	1.029059	0.100502	0.200859
H50	H	1.058731	0.060010	0.240908
H51	H	1.063557	0.142041	0.165425
H52	H	1.002311	0.048361	0.165449
H53	H	1.041360	0.083790	0.621622
C54	C	1.048107	0.074599	0.799337
H55	H	1.037649	0.088863	0.859920
H56	H	1.101211	0.090754	0.784447
H57	H	1.039962	-0.002922	0.784464
C58	C	0.547777	-0.010398	0.000104
H59	H	0.589172	-0.067289	0.000112
H60	H	0.518608	-0.021627	-0.050201
H61	H	0.513848	-0.015135	0.050419
H62	H	0.181491	0.069054	0.000123
H63	H	0.841215	0.356864	0.786359
H64	H	0.813154	0.395068	0.378569
C65	C	0.719609	0.009626	0.000091
H66	H	0.772924	0.030678	0.000095
H67	H	0.712243	-0.037337	-0.050211
H68	H	0.707480	-0.030836	0.050409
H69	H	0.820937	0.384428	0.213825
C70	C	0.834465	0.366042	0.608654
H71	H	0.801010	0.411710	0.648702
H72	H	0.803313	0.319925	0.573241
H73	H	0.864559	0.413604	0.573222
C74	C	0.682165	0.440482	0.000055
H75	H	0.640769	0.497373	0.000063
H76	H	0.716095	0.445224	-0.050254
H77	H	0.711334	0.451710	0.050367
C78	C	0.344174	0.058402	0.000112
H79	H	0.397491	0.079447	0.000115
H80	H	0.336804	0.011448	-0.050194
H81	H	0.332045	0.017933	0.050427
C82	C	0.306747	0.489259	0.000077
H83	H	0.362617	0.480925	0.000064
H84	H	0.287299	0.533102	0.050380
H85	H	0.292053	0.526591	-0.050241
C86	C	0.134912	0.469250	0.000102
H87	H	0.081596	0.448202	0.000115
H88	H	0.147038	0.509723	-0.050205
H89	H	0.142283	0.516201	0.050415
