data_functionalizedCrystal
_audit_creation_method	'MofGen! by Chris Wilmer'
_symmetry_space_group_name_H-M	'P1'
_symmetry_Int_Tables_number	1
_symmetry_cell_setting	triclinic
loop_
_symmetry_equiv_pos_as_xyz
  x,y,z
_cell_length_a	19.188930
_cell_length_b	10.723024
_cell_length_c	9.798715
_cell_angle_alpha	90.001978
_cell_angle_beta	89.982440
_cell_angle_gamma	96.193675
loop_
_atom_site_label
_atom_site_type_symbol
_atom_site_fract_x
_atom_site_fract_y
_atom_site_fract_z
O1	O	0.927157	-0.155778	-0.113927
O2	O	0.723981	-0.176749	-0.113833
O3	O	0.830256	0.015410	-0.113877
O4	O	0.820882	-0.347937	-0.113883
O5	O	0.830248	0.015410	0.113105
O6	O	0.723974	-0.176749	0.113149
O7	O	0.927149	-0.155778	0.113055
Zn8	Zn	0.825560	-0.166263	0.149141
Zn9	Zn	0.825570	-0.166264	-0.149918
O10	O	0.820874	-0.347937	0.113099
C11	C	0.697962	-0.176070	-0.000330
C12	C	0.620444	-0.174031	-0.000294
C13	C	0.829569	0.061895	-0.000387
C14	C	0.827529	0.200407	-0.000391
N15	N	0.825558	-0.166262	0.353240
C16	C	0.576253	-0.286784	-0.000317
C17	C	0.503417	-0.284869	-0.000332
C18	C	0.474775	-0.170195	-0.000351
C19	C	0.518976	-0.057427	-0.000320
C20	C	0.591811	-0.059346	-0.000292
N21	N	0.366228	-0.082541	-0.077657
N22	N	0.297038	-0.080726	-0.077687
C23	C	0.255329	-0.164408	-0.000435
N24	N	0.285423	-0.249992	0.076832
N25	N	0.354620	-0.251810	0.076856
C26	C	0.395799	-0.168102	-0.000381
C27	C	0.132160	-0.275091	-0.000472
C28	C	0.059322	-0.273171	-0.000479
C29	C	0.074883	-0.045726	-0.000481
C30	C	0.147719	-0.047650	-0.000460
C31	C	0.176353	-0.162335	-0.000463
C32	C	0.953168	-0.156457	-0.000451
C33	C	1.030686	-0.158496	-0.000496
C34	C	0.821561	-0.394423	-0.000393
C35	C	0.823601	-0.532935	-0.000398
C36	C	0.886994	0.276624	-0.000420
C37	C	0.884886	0.419784	-0.000424
N38	N	0.825578	-0.166255	-0.354018
C39	C	0.870179	-0.085229	0.420999
C40	C	0.870190	-0.085224	0.578161
H41	H	0.599562	-0.380170	-0.000322
H42	H	0.183701	0.044166	-0.000449
H43	H	0.775058	0.241140	-0.000376
H44	H	0.939465	0.235891	-0.000436
N45	N	0.488081	0.066251	-0.000345
H46	H	0.504180	0.115637	-0.084479
H47	H	0.504140	0.115533	0.083861
N48	N	0.920757	0.006700	0.343737
H49	H	0.913572	-0.006320	0.242416
H50	H	0.970410	-0.007193	0.368579
H51	H	0.787376	-0.235640	0.587722
H52	H	0.908395	-0.015852	0.636431
H53	H	0.023342	-0.364992	-0.000490
H54	H	0.787361	-0.235631	0.411581
N55	N	0.952320	0.506527	-0.000446
H56	H	0.954322	0.561198	-0.084589
H57	H	0.993470	0.455214	-0.000409
N58	N	0.455741	-0.406484	-0.000360
H59	H	0.484933	-0.479426	-0.000357
H60	H	0.425208	-0.410626	-0.084521
H61	H	0.051564	0.047644	-0.000581
N62	N	0.163047	-0.398782	-0.000448
H63	H	0.215894	-0.382889	-0.000436
H64	H	0.146938	-0.448109	-0.084595
N65	N	0.756166	0.380325	-0.000346
H66	H	0.754169	0.325642	-0.084481
H67	H	0.715014	0.431634	-0.000273
N68	N	0.639480	0.062271	-0.000260
H69	H	0.610286	0.135210	-0.000268
H70	H	0.670059	0.066432	-0.084394
