data_functionalizedCrystal
_audit_creation_method	'MofGen! by Chris Wilmer'
_symmetry_space_group_name_H-M	'P1'
_symmetry_Int_Tables_number	1
_symmetry_cell_setting	triclinic
loop_
_symmetry_equiv_pos_as_xyz
  x,y,z
_cell_length_a	23.532407
_cell_length_b	23.532407
_cell_length_c	18.266242
_cell_angle_alpha	89.988983
_cell_angle_beta	89.993638
_cell_angle_gamma	82.848712
loop_
_atom_site_label
_atom_site_type_symbol
_atom_site_fract_x
_atom_site_fract_y
_atom_site_fract_z
O1	O	0.755263	0.069136	-0.060842
O2	O	0.589400	0.079139	-0.060855
O3	O	0.677333	-0.008794	-0.060835
O4	O	0.667330	0.157069	-0.060862
O5	O	0.677318	-0.008798	0.060927
O6	O	0.589385	0.079135	0.060907
O7	O	0.755248	0.069132	0.060920
Zn8	Zn	0.672314	0.074133	0.080246
Zn9	Zn	0.672334	0.074138	-0.080181
O10	O	0.667315	0.157065	0.060900
C11	C	0.568176	0.078882	0.000025
C12	C	0.504959	0.078116	0.000021
C13	C	0.238792	0.022921	0.000050
C14	C	0.298192	0.023632	0.000049
O15	O	0.334937	-0.020153	0.000082
N16	N	0.320818	0.075909	0.000036
C17	C	0.284041	0.127477	0.000030
O18	O	0.308740	0.172007	0.000019
C19	C	0.224642	0.126765	0.000035
C20	C	0.202019	0.074485	0.000042
C21	C	0.216168	-0.029354	0.000057
C22	C	0.156772	-0.030066	0.000056
C23	C	0.119999	0.021499	0.000048
C24	C	0.142623	0.073774	0.000041
C25	C	0.187865	0.178333	0.000035
C26	C	0.128463	0.177616	0.000041
C27	C	0.105840	0.125336	0.000047
C28	C	0.046454	0.124627	0.000031
N29	N	0.023828	0.072351	0.000045
C30	C	0.060600	0.020787	0.000053
C31	C	0.408783	0.128968	0.000019
C32	C	0.468181	0.129681	0.000009
C33	C	0.482328	0.025836	0.000030
C34	C	0.422929	0.025124	0.000035
C35	C	0.386157	0.076692	0.000033
C36	C	-0.064136	0.019297	0.000050
C37	C	-0.123538	0.018590	0.000046
C38	C	-0.137680	0.122435	0.000029
C39	C	-0.078284	0.123142	0.000029
C40	C	-0.041512	0.071568	0.000042
O41	O	0.009675	0.168390	0.000002
O42	O	0.035892	-0.023737	0.000074
C43	C	0.677071	-0.030012	0.000048
C44	C	0.676305	-0.093229	0.000054
C45	C	0.723538	-0.492332	0.000017
C46	C	0.722827	-0.551733	0.000012
O47	O	0.766613	-0.588477	-0.000012
N48	N	0.670551	-0.574359	0.000008
C49	C	0.618982	-0.537581	0.000003
O50	O	0.574452	-0.562281	-0.000001
C51	C	0.619695	-0.478182	0.000003
C52	C	0.671974	-0.455559	0.000014
C53	C	0.775814	-0.469709	0.000027
C54	C	0.776525	-0.410313	0.000034
C55	C	0.724961	-0.373540	0.000031
C56	C	0.672685	-0.396163	0.000021
C57	C	0.568127	-0.441406	-0.000007
C58	C	0.568843	-0.382003	-0.000007
C59	C	0.621123	-0.359381	0.000003
C60	C	0.621832	-0.299994	0.000025
N61	N	0.674109	-0.277368	0.000028
C62	C	0.725673	-0.314141	0.000032
C63	C	0.617491	-0.662324	0.000001
C64	C	0.616778	-0.721722	0.000006
C65	C	0.720623	-0.735869	0.000013
C66	C	0.721335	-0.676470	0.000013
C67	C	0.669767	-0.639698	0.000004
C68	C	0.727163	-0.189404	0.000047
C69	C	0.727869	-0.130002	0.000057
C70	C	0.624025	-0.115860	0.000046
C71	C	0.623318	-0.175257	0.000039
C72	C	0.674891	-0.212028	0.000038
O73	O	0.578069	-0.263215	0.000046
O74	O	0.770196	-0.289433	0.000026
C75	C	0.776472	0.069389	0.000039
C76	C	0.839689	0.070155	0.000038
C77	C	0.667577	0.178283	0.000015
C78	C	0.668343	0.241500	0.000005
N79	N	0.672305	0.074128	0.189733
N80	N	0.672347	0.074138	-0.189668
C81	C	0.711255	0.035210	0.228051
C82	C	0.711258	0.035208	0.304695
C83	C	0.672318	0.074133	0.343020
C84	C	0.633361	0.113054	0.304693
C85	C	0.633355	0.113051	0.228049
N86	N	0.664784	0.124568	0.463343
N87	N	0.664793	0.124568	0.536151
C88	C	0.672334	0.074141	0.573942
N89	N	0.679876	0.023712	0.536174
N90	N	0.679869	0.023712	0.463359
C91	C	0.672320	0.074139	0.426127
C92	C	0.711289	0.035217	0.695367
C93	C	0.711289	0.035213	0.772013
C94	C	0.633394	0.113064	0.772009
C95	C	0.633392	0.113063	0.695364
C96	C	0.672342	0.074140	0.657048
H97	H	0.098525	0.219610	0.000043
H98	H	0.743003	0.003521	0.664169
O99	O	0.749121	-0.002521	0.342005
C100	C	0.784091	0.027807	0.386304
H101	H	0.761152	0.072487	0.397779
H102	H	0.793244	0.003992	0.440204
H103	H	0.826154	0.031467	0.356751
H104	H	0.819097	-0.391900	0.000040
O105	O	0.209905	0.229079	0.000118
C106	C	0.243829	0.232609	0.063182
H107	H	0.258872	0.187637	0.084219
H108	H	0.282603	0.255085	0.048985
H109	H	0.217445	0.257958	0.107336
O110	O	-0.145418	-0.032247	0.000087
C111	C	-0.100219	-0.077604	0.000078
H112	H	-0.059955	-0.061873	0.023128
H113	H	-0.112434	-0.114125	0.035435
H114	H	-0.091720	-0.093491	-0.058334
O115	O	-0.028364	-0.030763	-0.000040
C116	C	0.006411	-0.033465	-0.063112
H117	H	0.009175	0.011723	-0.084139
H118	H	0.051172	-0.054948	-0.048930
H119	H	-0.012992	-0.059353	-0.107267
O120	O	0.134896	-0.080901	0.000104
C121	C	0.180099	-0.126253	0.000096
H122	H	0.220363	-0.110516	0.023138
H123	H	0.167891	-0.162773	0.035461
H124	H	0.188596	-0.142145	-0.058315
O125	O	-0.173326	0.172574	-0.000011
C126	C	-0.140627	0.218873	0.000002
H127	H	-0.096208	0.204167	-0.023051
H128	H	-0.162741	0.254982	-0.035350
H129	H	-0.136490	0.234908	0.058416
O130	O	0.566029	-0.743761	-0.000096
C131	C	0.562508	-0.777671	-0.063171
H132	H	0.607483	-0.792714	-0.084191
H133	H	0.540025	-0.816445	-0.048995
H134	H	0.537169	-0.751275	-0.107329
O135	O	0.251942	-0.079412	-0.000037
C136	C	0.286712	-0.082114	-0.063114
H137	H	0.289478	-0.036927	-0.084141
H138	H	0.331473	-0.103600	-0.048938
H139	H	0.267304	-0.108000	-0.107267
H140	H	0.404515	-0.017447	0.000041
H141	H	0.769159	-0.219337	0.000042
H142	H	0.762610	-0.765821	0.000013
O143	O	0.595598	0.150885	0.190744
C144	C	0.625896	0.185876	0.146410
H145	H	0.670587	0.162966	0.134925
H146	H	0.602073	0.195008	0.092517
H147	H	0.629527	0.227948	0.175938
H148	H	0.512280	-0.016150	0.000036
O149	O	-0.056240	0.173891	0.000121
C150	C	-0.022330	0.177412	0.063199
H151	H	-0.007287	0.132437	0.084226
H152	H	0.016445	0.199894	0.049025
H153	H	-0.048725	0.202751	0.107352
O154	O	0.567342	-0.626686	0.000035
C155	C	0.521054	-0.659400	0.000014
H156	H	0.535773	-0.703818	0.023064
H157	H	0.484941	-0.637300	0.035365
H158	H	0.505020	-0.663534	-0.058402
H159	H	0.770443	-0.111587	0.000068
H160	H	0.817806	-0.499644	0.000027
O161	O	0.595512	0.150788	0.341999
C162	C	0.560550	0.120465	0.386340
H163	H	0.583488	0.075785	0.397829
H164	H	0.551410	0.144284	0.440232
H165	H	0.518479	0.116807	0.356818
O166	O	0.517292	-0.463277	-0.000054
C167	C	0.471940	-0.418072	-0.000043
H168	H	0.487683	-0.377805	-0.023087
H169	H	0.435425	-0.430272	-0.035404
H170	H	0.456040	-0.409587	0.058369
O171	O	0.772083	-0.654429	-0.000080
C172	C	0.775619	-0.620499	-0.063153
H173	H	0.730649	-0.605451	-0.084181
H174	H	0.798097	-0.581729	-0.048971
H175	H	0.800970	-0.646881	-0.107308
H176	H	0.601686	0.144756	0.803212
O177	O	0.490058	0.180516	0.000026
C178	C	0.444857	0.225871	-0.000001
H179	H	0.404590	0.210136	0.023054
H180	H	0.457063	0.262391	0.035342
H181	H	0.436368	0.241760	-0.058420
H182	H	0.526850	-0.352065	-0.000016
H183	H	0.743005	0.003519	0.803212
O184	O	0.572521	-0.197211	-0.000097
C185	C	0.541113	-0.178363	-0.063151
H186	H	0.571696	-0.166160	-0.107218
H187	H	0.517098	-0.214211	-0.084332
H188	H	0.509149	-0.139477	-0.048890
O189	O	0.373007	0.179028	-0.000093
C190	C	0.338239	0.181733	-0.063164
H191	H	0.335478	0.136547	-0.084174
H192	H	0.293477	0.203215	-0.048986
H193	H	0.357648	0.207624	-0.107330
O194	O	0.573990	-0.080052	0.000009
C195	C	0.585835	-0.022776	0.000032
H196	H	0.630560	-0.020747	-0.023010
H197	H	0.552956	0.004326	-0.035325
H198	H	0.583566	-0.005593	0.058448
H199	H	0.601678	0.144756	0.664164
H200	H	0.742969	0.003516	0.196856
