data_functionalizedCrystal
_audit_creation_method	'MofGen! by Chris Wilmer'
_symmetry_space_group_name_H-M	'P1'
_symmetry_Int_Tables_number	1
_symmetry_cell_setting	triclinic
loop_
_symmetry_equiv_pos_as_xyz
  x,y,z
_cell_length_a	18.101398
_cell_length_b	12.594516
_cell_length_c	18.101389
_cell_angle_alpha	89.985805
_cell_angle_beta	89.975198
_cell_angle_gamma	90.009547
loop_
_atom_site_label
_atom_site_type_symbol
_atom_site_fract_x
_atom_site_fract_y
_atom_site_fract_z
Zn1	Zn	1.132220	-0.423918	-0.418870
Zn2	Zn	1.132158	-0.601886	-0.295038
Zn3	Zn	1.008379	-0.423915	-0.295030
Zn4	Zn	1.008372	-0.601848	-0.418825
O5	O	1.070282	-0.512892	-0.356941
O6	O	1.235845	-0.447543	-0.402465
O7	O	1.115715	-0.578292	-0.191404
O8	O	1.024836	-0.274969	-0.311473
O9	O	1.235799	-0.578295	-0.311486
O10	O	1.115822	-0.274972	-0.402458
O11	O	1.024776	-0.447537	-0.191398
O12	O	0.904745	-0.447501	-0.311430
O13	O	1.024823	-0.578231	-0.522464
O14	O	0.904740	-0.578227	-0.402381
O15	O	1.115814	-0.447506	-0.522497
O16	O	1.115708	-0.750827	-0.311443
O17	O	1.024763	-0.750799	-0.402389
C18	C	0.877872	-0.512860	-0.356900
C19	C	0.795558	-0.512873	-0.356901
C20	C	1.070248	-0.789433	-0.356928
C21	C	1.070301	-0.907738	-0.356947
C22	C	0.644849	-0.512894	-0.356934
C23	C	0.613474	-0.430527	-0.299805
C24	C	0.527856	-0.430217	-0.299992
C25	C	0.496467	-0.512916	-0.356966
C26	C	0.527600	-0.482994	-0.435099
C27	C	0.613244	-0.482383	-0.434751
C28	C	0.613272	-0.625397	-0.336618
C29	C	0.527620	-0.624804	-0.334916
C30	C	0.412607	-0.512930	-0.356988
C31	C	0.728709	-0.512878	-0.356917
C32	C	1.119824	-0.976968	-0.307534
C33	C	1.137919	-1.047688	-0.375130
C34	C	1.052298	-1.047816	-0.289394
C35	C	1.088431	-0.976900	-0.424578
C36	C	1.002779	-0.977022	-0.338797
C37	C	1.020849	-1.047711	-0.406439
C38	C	1.263444	-0.512924	-0.356981
C39	C	1.345758	-0.512938	-0.356999
C40	C	1.070325	-0.512865	-0.550103
C41	C	1.070343	-0.512853	-0.632417
C42	C	1.070337	-0.235271	-0.356970
C43	C	1.070360	-0.116965	-0.356982
C44	C	1.070386	-0.512654	-0.931508
C45	C	1.012940	-0.594640	-0.900162
C46	C	1.013095	-0.595021	-0.814544
C47	C	1.070364	-0.512753	-0.783125
C48	C	1.148397	-0.543204	-0.814233
C49	C	1.148077	-0.543742	-0.899878
C50	C	1.050479	-0.400034	-0.899926
C51	C	1.048743	-0.400684	-0.814275
C52	C	1.070357	-0.512807	-0.699266
C53	C	1.070399	-0.512602	-1.015367
C54	C	1.070282	-0.512842	-0.164530
C55	C	1.070407	-0.512553	-0.082216
H56	H	0.506803	-0.448883	-0.242067
F57	F	1.174569	-0.936364	-0.252964
H58	H	0.507374	-0.346859	-0.313480
H59	H	0.633230	-0.400161	-0.451923
F60	F	1.032364	-1.088533	-0.214705
H61	H	1.195046	-1.078732	-0.390502
H62	H	1.103625	-0.945883	-0.481771
F63	F	0.640381	-0.557422	-0.492311
H64	H	1.192331	-0.486619	-0.920616
F65	F	1.030312	-0.704121	-0.787774
F66	F	0.640351	-0.454618	-0.223843
H67	H	0.634839	-0.652726	-0.280595
F68	F	1.099444	-0.316602	-0.786330
F69	F	0.928128	-0.936421	-0.318682
H70	H	0.507272	-0.541160	-0.478843
H71	H	0.506160	-0.401681	-0.452574
H72	H	0.635002	-0.347635	-0.313119
H73	H	0.507270	-0.647375	-0.277412
H74	H	0.506248	-0.689425	-0.373465
F75	F	0.639810	-0.705609	-0.390990
F76	F	0.966142	-1.088059	-0.461139
F77	F	0.937465	-0.570108	-0.787048
F78	F	0.937077	-0.569984	-0.927060
H79	H	1.164951	-0.626069	-0.919866
H80	H	1.192349	-0.485365	-0.793885
F81	F	1.029916	-0.703074	-0.928346
H82	H	1.165562	-0.624656	-0.792795
F83	F	0.977394	-0.363773	-0.928135
H84	H	0.991318	-0.377721	-0.793942
F85	F	1.105167	-0.320192	-0.926423
