data_functionalizedCrystal
_audit_creation_method	'MofGen! by Chris Wilmer'
_symmetry_space_group_name_H-M	'P1'
_symmetry_Int_Tables_number	1
_symmetry_cell_setting	triclinic
loop_
_symmetry_equiv_pos_as_xyz
  x,y,z
_cell_length_a	16.109301
_cell_length_b	19.188930
_cell_length_c	14.586319
_cell_angle_alpha	89.991095
_cell_angle_beta	89.999213
_cell_angle_gamma	83.303131
loop_
_atom_site_label
_atom_site_type_symbol
_atom_site_fract_x
_atom_site_fract_y
_atom_site_fract_z
O1	O	1.102833	0.089744	-0.076193
O2	O	0.860734	0.100912	-0.076209
O3	O	0.988770	-0.006311	-0.076182
O4	O	0.974797	0.196968	-0.076219
O5	O	0.988762	-0.006313	0.076298
O6	O	0.860726	0.100911	0.076272
O7	O	1.102825	0.089742	0.076288
Cu8	Cu	0.981774	0.095326	0.090203
Cu9	Cu	0.981785	0.095328	-0.090124
O10	O	0.974789	0.196966	0.076262
C11	C	0.829757	0.100459	0.000030
C12	C	0.737466	0.099103	0.000025
C13	C	0.514993	0.159573	0.000024
C14	C	0.428277	0.158294	0.000030
C15	C	0.448573	0.031076	0.000050
C16	C	0.535287	0.032357	0.000050
C17	C	0.568495	0.096608	0.000033
C18	C	0.395064	0.094047	0.000038
C19	C	0.301043	0.092659	0.000045
C20	C	0.662522	0.097996	0.000028
C21	C	0.988313	-0.032324	0.000061
C22	C	0.986955	-0.109832	0.000068
C23	C	1.062082	-0.154580	0.000078
C24	C	1.060806	-0.227407	0.000063
C25	C	0.984399	-0.255482	0.000057
C26	C	0.909261	-0.210724	0.000043
C27	C	0.910540	-0.137899	0.000048
N28	N	0.925991	-0.363624	0.051945
N29	N	0.924782	-0.432805	0.051942
C30	C	0.980543	-0.474900	0.000038
N31	N	1.037571	-0.445200	-0.051850
N32	N	1.038783	-0.376013	-0.051843
C33	C	0.983004	-0.334448	0.000051
C34	C	1.054292	-0.598616	0.000030
C35	C	1.053012	-0.671443	0.000010
C36	C	0.901465	-0.654759	-0.000001
C37	C	0.902747	-0.581933	0.000010
C38	C	0.979162	-0.553866	0.000030
C39	C	1.133802	0.090196	0.000047
C40	C	1.226093	0.091552	0.000046
C41	C	0.975246	0.222979	0.000017
C42	C	0.976604	0.300486	0.000003
N43	N	0.981773	0.095325	0.217034
N44	N	0.981793	0.095325	-0.216955
C45	C	1.038486	0.047862	0.452052
C46	C	1.038488	0.047860	0.548034
C47	C	0.925074	0.142790	0.548020
C48	C	0.925068	0.142787	0.452040
C49	C	0.981779	0.095324	0.404059
C50	C	0.981787	0.095325	0.596020
C51	C	0.981789	0.095323	0.700087
C52	C	0.981776	0.095325	0.299985
H53	H	0.578851	-0.018920	0.000059
N54	N	1.099663	-0.003322	0.599796
H55	H	1.090283	-0.052882	0.583104
H56	H	1.158604	0.004807	0.583056
N57	N	1.141845	-0.275676	0.000085
H58	H	1.144678	-0.306268	0.056611
H59	H	1.144657	-0.306213	-0.056476
N60	N	0.550803	0.228872	0.000016
H61	H	0.586329	0.232237	0.056540
H62	H	0.586286	0.232204	-0.056547
N63	N	0.863910	0.193980	0.599771
H64	H	0.872518	0.186781	0.667857
H65	H	0.873330	0.243513	0.582980
N66	N	0.863906	0.193987	0.400271
H67	H	0.872507	0.186781	0.332188
H68	H	0.804959	0.185908	0.417054
N69	N	0.826851	-0.241002	0.000050
H70	H	0.779450	-0.201600	0.000046
H71	H	0.823021	-0.270849	-0.056476
N72	N	0.370570	0.226206	0.000072
H73	H	0.404769	0.267100	0.000078
H74	H	0.334126	0.228473	-0.056437
N75	N	1.144498	-0.124308	0.000098
H76	H	1.191898	-0.163711	0.000101
H77	H	1.148336	-0.094447	-0.056427
N78	N	0.829507	-0.089629	0.000038
H79	H	0.780906	-0.118462	0.000029
H80	H	0.826732	-0.059061	0.056568
N81	N	1.136705	-0.568336	0.000048
H82	H	1.184107	-0.607738	0.000044
H83	H	1.140539	-0.538472	-0.056473
N84	N	0.412756	-0.038220	0.000073
H85	H	0.349704	-0.029478	0.000071
H86	H	0.432345	-0.065774	-0.056447
H87	H	1.114193	-0.707878	0.000012
N88	N	0.819052	-0.685029	-0.000017
H89	H	0.829640	-0.737954	-0.000023
H90	H	0.786182	-0.668667	0.056507
N91	N	0.821716	-0.533663	0.000006
H92	H	0.773117	-0.562496	0.000000
H93	H	0.818943	-0.503093	0.056534
N94	N	1.099648	-0.003328	0.400299
H95	H	1.135571	-0.033396	0.445271
H96	H	1.067931	-0.034203	0.360486
