data_functionalizedCrystal
_audit_creation_method	'MofGen! by Chris Wilmer'
_symmetry_space_group_name_H-M	'P1'
_symmetry_Int_Tables_number	1
_symmetry_cell_setting	triclinic
loop_
_symmetry_equiv_pos_as_xyz
  x,y,z
_cell_length_a	14.971475
_cell_length_b	13.448316
_cell_length_c	14.971506
_cell_angle_alpha	89.998220
_cell_angle_beta	96.383967
_cell_angle_gamma	90.004731
loop_
_atom_site_label
_atom_site_type_symbol
_atom_site_fract_x
_atom_site_fract_y
_atom_site_fract_z
O1	O	-1.186961	-0.082668	0.116513
O2	O	-0.926560	-0.082674	0.130482
O3	O	-1.063731	-0.082668	-0.006701
O4	O	-1.049791	-0.082674	0.253697
O5	O	-1.063715	0.082716	-0.006702
O6	O	-0.926545	0.082710	0.130482
O7	O	-1.186946	0.082716	0.116513
Cu8	Cu	-1.056744	0.097814	0.123497
Cu9	Cu	-1.056762	-0.097772	0.123498
O10	O	-1.049775	0.082710	0.253696
C11	C	-0.893228	0.000017	0.129859
C12	C	-0.793930	0.000015	0.127992
C13	C	-0.747277	0.090166	0.127113
C14	C	-0.653978	0.090167	0.125344
C15	C	-0.607333	0.000015	0.124462
C16	C	-0.653993	-0.090144	0.125339
C17	C	-0.747291	-0.090143	0.127101
C18	C	-0.459530	-0.090138	0.121668
C19	C	-0.366226	-0.090139	0.119908
C20	C	-0.366217	0.090171	0.119912
C21	C	-0.459515	0.090172	0.121674
C22	C	-0.506169	0.000013	0.122552
N23	N	-1.056738	0.235378	0.123497
C24	C	-1.063096	0.000022	-0.040026
C25	C	-1.061218	0.000018	-0.139322
C26	C	-0.220277	0.000021	0.117142
C27	C	-0.319573	0.000012	0.119029
C28	C	-1.111044	0.287414	0.177835
C29	C	-1.111054	0.391517	0.177832
C30	C	-1.056753	0.443583	0.123494
C31	C	-1.002445	0.391539	0.069149
C32	C	-1.002440	0.287438	0.069148
C33	C	-1.002457	0.608519	0.069156
C34	C	-1.002460	0.712628	0.069158
C35	C	-1.111071	0.712599	0.177840
C36	C	-1.111066	0.608497	0.177839
C37	C	-1.056757	0.556461	0.123495
N38	N	-1.056766	0.764664	0.123497
C39	C	-1.134637	0.000020	-0.577607
C40	C	-1.136394	0.000026	-0.484307
C41	C	-1.055802	0.000021	-0.427084
C42	C	-0.973446	0.000019	-0.463166
C43	C	-0.971689	0.000020	-0.556464
C44	C	-0.977113	0.000016	-0.268703
C45	C	-0.978869	0.000013	-0.175398
C46	C	-1.141818	0.000022	-0.196546
C47	C	-1.140061	0.000023	-0.289844
C48	C	-1.057705	0.000019	-0.325919
C49	C	-1.050410	0.000017	0.287021
C50	C	-1.052288	0.000015	0.386317
H51	H	-0.328228	0.163582	0.119197
Cl52	Cl	-0.307588	-0.203475	0.118796
Cl53	Cl	-0.934181	0.456993	0.000837
Cl54	Cl	-0.518179	-0.203483	0.122771
H55	H	-1.155257	0.245030	0.222089
Cl56	Cl	-1.241379	0.000023	-0.361781
H57	H	-0.616008	-0.163547	0.124614
H58	H	-0.904632	0.000024	-0.585834
Cl59	Cl	-0.805942	-0.203481	0.128202
Cl60	Cl	-0.934195	0.543104	0.000823
Cl61	Cl	-1.179326	0.456930	0.246149
H62	H	-0.910050	0.000026	-0.298071
H63	H	-1.155279	0.566109	0.222090
H64	H	-0.958242	0.755016	0.024913
Cl65	Cl	-1.235960	0.000019	-0.649537
H66	H	-0.907826	0.000021	-0.416567
H67	H	-0.785248	0.163579	0.127839
H68	H	-1.155288	0.754972	0.222093
Cl69	Cl	-1.239924	0.000007	-0.438960
Cl70	Cl	-0.877551	0.000018	-0.103461
H71	H	-0.615999	0.163577	0.124613
Cl72	Cl	-0.934176	0.222021	0.000824
H73	H	-0.497490	0.163582	0.122398
Cl74	Cl	-1.245351	0.000026	-0.151195
