data_functionalizedCrystal
_audit_creation_method	'MofGen! by Chris Wilmer'
_symmetry_space_group_name_H-M	'P1'
_symmetry_Int_Tables_number	1
_symmetry_cell_setting	triclinic
loop_
_symmetry_equiv_pos_as_xyz
  x,y,z
_cell_length_a	16.109304
_cell_length_b	14.044202
_cell_length_c	15.186229
_cell_angle_alpha	90.000871
_cell_angle_beta	89.999066
_cell_angle_gamma	91.672330
loop_
_atom_site_label
_atom_site_type_symbol
_atom_site_fract_x
_atom_site_fract_y
_atom_site_fract_z
O1	O	0.200472	-1.257646	-0.073174
O2	O	0.533805	-0.924313	0.260160
O3	O	0.867139	-0.590979	0.593493
O4	O	0.193231	-0.981679	-0.073186
O5	O	0.526565	-0.648346	0.260148
O6	O	0.859898	-0.315012	0.593481
O7	O	0.076385	-1.127242	-0.073180
O8	O	0.409718	-0.793909	0.260154
O9	O	0.743052	-0.460575	0.593487
O10	O	0.317318	-1.112083	-0.073179
O11	O	0.650652	-0.778749	0.260154
O12	O	0.983985	-0.445416	0.593487
O13	O	0.076383	-1.127232	0.073278
O14	O	0.409716	-0.793899	0.406611
O15	O	0.743049	-0.460566	0.739944
O16	O	0.193229	-0.981669	0.073272
O17	O	0.526562	-0.648336	0.406605
O18	O	0.859895	-0.315003	0.739938
O19	O	0.200470	-1.257636	0.073284
O20	O	0.533803	-0.924303	0.406617
O21	O	0.867136	-0.590970	0.739950
Zn22	Zn	0.196849	-1.119651	0.096531
Zn23	Zn	0.530182	-0.786318	0.429864
Zn24	Zn	0.863515	-0.452985	0.763198
Zn25	Zn	0.196852	-1.119664	-0.096433
Zn26	Zn	0.530185	-0.786331	0.236901
Zn27	Zn	0.863519	-0.452997	0.570234
O28	O	0.317316	-1.112073	0.073278
O29	O	0.650649	-0.778740	0.406611
O30	O	0.983983	-0.445406	0.739945
C31	C	0.190063	-0.946361	0.000041
C32	C	0.523396	-0.613027	0.333375
C33	C	0.856730	-0.279694	0.666708
C34	C	0.180616	-0.841138	0.000037
C35	C	0.513949	-0.507804	0.333370
C36	C	0.847283	-0.174471	0.666703
C37	C	0.230339	-0.590837	0.000045
C38	C	0.563672	-0.257503	0.333379
C39	C	0.897006	0.075830	0.666712
C40	C	0.163359	-0.648485	0.000044
C41	C	0.496692	-0.315152	0.333377
C42	C	0.830025	0.018181	0.666710
C43	C	0.172963	-0.755687	0.000040
C44	C	0.506296	-0.422353	0.333373
C45	C	0.839630	-0.089020	0.666706
C46	C	0.220736	-0.483625	0.000049
C47	C	0.554069	-0.150292	0.333382
C48	C	0.887403	0.183042	0.666716
C49	C	0.045363	-1.126623	0.000047
C50	C	0.378697	-0.793289	0.333380
C51	C	0.712030	-0.459956	0.666714
C52	C	-0.047069	-1.124780	0.000041
C53	C	0.286264	-0.791447	0.333374
C54	C	0.619598	-0.458114	0.666708
C55	C	-0.259722	-1.120529	-0.079790
C56	C	0.073611	-0.787196	0.253543
C57	C	0.406945	-0.453862	0.586877
C58	C	-0.346572	-1.118789	-0.079789
C59	C	-0.013238	-0.785456	0.253544
C60	C	0.320095	-0.452123	0.586877
C61	C	-0.346571	-1.118783	0.079887
C62	C	-0.013238	-0.785450	0.413220
C63	C	0.320096	-0.452117	0.746553
C64	C	-0.259723	-1.120516	0.079885
C65	C	0.073611	-0.787183	0.413218
C66	C	0.406944	-0.453850	0.746552
C67	C	-0.216301	-1.121394	0.000044
C68	C	0.117033	-0.788061	0.333377
C69	C	0.450366	-0.454727	0.666711
C70	C	-0.389999	-1.117921	0.000046
C71	C	-0.056665	-0.784588	0.333380
C72	C	0.276668	-0.451254	0.666713
C73	C	-0.484165	-1.116035	0.000048
C74	C	-0.150831	-0.782701	0.333381
C75	C	0.182502	-0.449368	0.666714
C76	C	-0.122128	-1.123279	0.000042
C77	C	0.211205	-0.789945	0.333376
C78	C	0.544538	-0.456612	0.666709
C79	C	0.348338	-1.112692	0.000049
C80	C	0.681671	-0.779359	0.333383
C81	C	1.015004	-0.446026	0.666716
C82	C	0.440770	-1.114535	0.000050
C83	C	0.774103	-0.781202	0.333383
C84	C	1.107437	-0.447868	0.666716
C85	C	0.203636	-0.292955	0.000054
C86	C	0.536970	0.040378	0.333388
C87	C	0.870303	0.373712	0.666721
C88	C	0.213078	-0.398179	0.000052
C89	C	0.546411	-0.064845	0.333386
C90	C	0.879744	0.268488	0.666719
N91	N	0.196847	-1.119649	0.228224
N92	N	0.530180	-0.786316	0.561557
N93	N	0.863513	-0.452983	0.894890
N94	N	0.196848	-1.119673	-0.228125
N95	N	0.530182	-0.786340	0.105208
N96	N	0.863515	-0.453007	0.438541
C97	C	0.145128	-1.184127	0.453949
C98	C	0.478461	-0.850793	0.787282
C99	C	0.811794	-0.517460	1.120616
C100	C	0.145126	-1.184130	0.546139
C101	C	0.478459	-0.850796	0.879472
C102	C	0.811793	-0.517463	1.212805
C103	C	0.248569	-1.055189	0.546143
C104	C	0.581903	-0.721856	0.879476
C105	C	0.915236	-0.388522	1.212809
C106	C	0.248566	-1.055182	0.453955
C107	C	0.581900	-0.721849	0.787288
C108	C	0.915233	-0.388516	1.120621
C109	C	0.196847	-1.119656	0.407860
C110	C	0.530180	-0.786323	0.741194
C111	C	0.863513	-0.452990	1.074527
C112	C	0.196848	-1.119666	0.592238
C113	C	0.530182	-0.786333	0.925571
C114	C	0.863515	-0.453000	1.258905
C115	C	0.196847	-1.119669	0.692194
C116	C	0.530180	-0.786336	1.025527
C117	C	0.863513	-0.453002	1.358861
C118	C	0.196847	-1.119653	0.307898
C119	C	0.530180	-0.786319	0.641231
C120	C	0.863514	-0.452986	0.974564
H121	H	0.294891	-0.621991	0.000043
H122	H	0.628224	-0.288658	0.333376
H123	H	0.961557	0.044676	0.666709
C124	C	-0.211960	-1.121484	-0.167611
C125	C	0.121374	-0.788150	0.165723
C126	C	0.454707	-0.454817	0.499056
H127	H	-0.250262	-1.120710	-0.215156
H128	H	0.083072	-0.787377	0.118177
H129	H	0.416405	-0.454044	0.451511
H130	H	-0.180321	-1.177400	-0.170934
H131	H	0.153012	-0.844066	0.162399
H132	H	0.486345	-0.510733	0.495733
H133	H	-0.175839	-1.066911	-0.170928
H134	H	0.157494	-0.733577	0.162405
H135	H	0.490827	-0.400244	0.495739
H136	H	-0.381936	-1.118071	0.144890
H137	H	-0.048603	-0.784737	0.478223
H138	H	0.284731	-0.451404	0.811557
C139	C	-0.394332	-1.117847	-0.167607
C140	C	-0.060999	-0.784514	0.165727
C141	C	0.272335	-0.451180	0.499060
H142	H	-0.356030	-1.118626	-0.215153
H143	H	-0.022697	-0.785293	0.118180
H144	H	0.310636	-0.451959	0.451513
H145	H	-0.425970	-1.061931	-0.170933
H146	H	-0.092637	-0.728598	0.162401
H147	H	0.240697	-0.395264	0.495734
H148	H	-0.430452	-1.172420	-0.170919
H149	H	-0.097119	-0.839087	0.162414
H150	H	0.236214	-0.505754	0.495748
C151	C	-0.211956	-1.121471	0.167707
C152	C	0.121377	-0.788137	0.501040
C153	C	0.454711	-0.454804	0.834373
H154	H	-0.250254	-1.120714	0.215257
H155	H	0.083079	-0.787380	0.548590
H156	H	0.416412	-0.454047	0.881924
H157	H	-0.175834	-1.066906	0.171023
H158	H	0.157500	-0.733573	0.504357
H159	H	0.490833	-0.400239	0.837690
H160	H	-0.180320	-1.177395	0.171022
H161	H	0.153013	-0.844062	0.504355
H162	H	0.486347	-0.510729	0.837688
H163	H	0.103013	-1.236624	0.416421
H164	H	0.436347	-0.903291	0.749754
H165	H	0.769680	-0.569957	1.083088
C166	C	0.076146	-0.606408	0.000039
C167	C	0.409479	-0.273074	0.333372
C168	C	0.742812	0.060259	0.666706
H169	H	0.035383	-0.656677	0.000041
H170	H	0.368717	-0.323344	0.333375
H171	H	0.702050	0.009989	0.666708
H172	H	0.069628	-0.568295	-0.051033
H173	H	0.402961	-0.234962	0.282300
H174	H	0.736295	0.098372	0.615634
H175	H	0.069620	-0.568299	0.051119
H176	H	0.402953	-0.234965	0.384453
H177	H	0.736286	0.098368	0.717786
H178	H	0.103011	-1.236626	0.583662
H179	H	0.436344	-0.903293	0.916995
H180	H	0.769677	-0.569959	1.250328
H181	H	0.290680	-1.002697	0.583682
H182	H	0.624013	-0.669364	0.917015
H183	H	0.957346	-0.336030	1.250349
C184	C	0.305462	-0.984264	0.403253
C185	C	0.638796	-0.650931	0.736587
C186	C	0.972129	-0.317597	1.069920
H187	H	0.336274	-0.945876	0.443907
H188	H	0.669607	-0.612543	0.777241
H189	H	1.002940	-0.279209	1.110574
H190	H	0.272607	-0.944818	0.367295
H191	H	0.605940	-0.611484	0.700628
H192	H	0.939274	-0.278151	1.033962
H193	H	0.342618	-1.018354	0.367287
H194	H	0.675951	-0.685021	0.700621
H195	H	1.009284	-0.351687	1.033954
