data_functionalizedCrystal
_audit_creation_method	'MofGen! by Chris Wilmer'
_symmetry_space_group_name_H-M	'P1'
_symmetry_Int_Tables_number	1
_symmetry_cell_setting	triclinic
loop_
_symmetry_equiv_pos_as_xyz
  x,y,z
_cell_length_a	14.971482
_cell_length_b	14.971487
_cell_length_c	14.048226
_cell_angle_alpha	89.997127
_cell_angle_beta	90.004294
_cell_angle_gamma	96.386495
loop_
_atom_site_label
_atom_site_type_symbol
_atom_site_fract_x
_atom_site_fract_y
_atom_site_fract_z
O1	O	1.186948	-0.116545	0.079147
O2	O	0.926547	-0.130508	0.079151
O3	O	1.063726	0.006674	0.079144
O4	O	1.049768	-0.253727	0.079154
O5	O	1.063713	0.006675	-0.079177
O6	O	0.926534	-0.130506	-0.079170
O7	O	1.186935	-0.116544	-0.079175
Zn8	Zn	1.056732	-0.123525	-0.104309
Zn9	Zn	1.056749	-0.123527	0.104286
O10	O	1.049755	-0.253725	-0.079168
C11	C	0.893216	-0.129883	-0.000009
C12	C	0.793918	-0.128014	-0.000007
C13	C	0.747267	-0.127133	-0.086309
C14	C	0.653968	-0.125362	-0.086310
C15	C	0.607322	-0.124479	-0.000008
C16	C	0.653981	-0.125357	0.086300
C17	C	0.747279	-0.127121	0.086300
C18	C	0.459519	-0.121682	0.086294
C19	C	0.366215	-0.119919	0.086294
C20	C	0.366209	-0.119922	-0.086317
C21	C	0.459506	-0.121687	-0.086317
C22	C	0.506158	-0.122567	-0.000008
C23	C	1.063096	0.039999	-0.000015
C24	C	1.061225	0.139296	-0.000013
C25	C	1.220266	-0.117168	-0.000012
C26	C	1.319563	-0.119038	-0.000008
N27	N	1.056727	-0.123523	-0.246670
C28	C	1.141814	0.196522	-0.000014
C29	C	1.140050	0.289822	-0.000003
C30	C	1.057697	0.325893	0.000003
C31	C	0.977102	0.268659	0.000007
C32	C	0.978866	0.175362	0.000002
C33	C	0.973430	0.463122	0.000014
C34	C	0.971665	0.556426	0.000016
C35	C	1.134615	0.577582	0.000009
C36	C	1.136379	0.484284	0.000004
C37	C	1.055783	0.427057	0.000006
C38	C	1.050385	0.712949	-0.000001
C39	C	1.052255	0.613652	0.000015
C40	C	1.111030	-0.177864	-0.296483
C41	C	1.111041	-0.177860	-0.396141
C42	C	1.056744	-0.123520	-0.445983
C43	C	1.002440	-0.069173	-0.396164
C44	C	1.002434	-0.069173	-0.296508
C45	C	1.002454	-0.069179	-0.603878
C46	C	1.002459	-0.069181	-0.703541
C47	C	1.111062	-0.177866	-0.703511
C48	C	1.111056	-0.177866	-0.603855
C49	C	1.056750	-0.123520	-0.554042
N50	N	1.056762	-0.123521	0.246647
H51	H	0.497482	-0.122411	-0.156591
F52	F	0.944675	-0.011342	-0.756585
H53	H	0.913242	0.128768	0.000004
F54	F	0.889454	0.307051	0.000024
F55	F	0.604338	-0.124390	0.178150
H56	H	0.785261	-0.127841	0.156576
F57	F	0.887650	0.402218	0.000018
H58	H	1.155265	-0.222119	-0.563275
F59	F	1.168819	-0.235703	-0.243445
H60	H	0.328220	-0.119206	-0.156593
H61	H	1.205675	0.336412	-0.000006
F62	F	0.944645	-0.011329	-0.243494
H63	H	0.958234	-0.024924	-0.563323
H64	H	1.200239	0.624181	0.000010
H65	H	1.155262	-0.222108	-0.436694
H66	H	1.155277	-0.222120	-0.744073
F67	F	0.316573	-0.118978	0.178146
F68	F	0.944655	-0.011338	-0.449213
F69	F	0.884016	0.594813	0.000021
H70	H	1.203438	0.454918	-0.000007
F71	F	1.229467	0.158142	-0.000029
F72	F	0.796902	-0.128079	-0.178165
H73	H	0.615990	-0.124629	-0.156586
F74	F	0.509168	-0.122615	0.178154
