data_functionalizedCrystal
_audit_creation_method	'MofGen! by Chris Wilmer'
_symmetry_space_group_name_H-M	'P1'
_symmetry_Int_Tables_number	1
_symmetry_cell_setting	triclinic
loop_
_symmetry_equiv_pos_as_xyz
  x,y,z
_cell_length_a	8.597314
_cell_length_b	8.597304
_cell_length_c	7.681481
_cell_angle_alpha	76.508647
_cell_angle_beta	76.526409
_cell_angle_gamma	93.640319
loop_
_atom_site_label
_atom_site_type_symbol
_atom_site_fract_x
_atom_site_fract_y
_atom_site_fract_z
O1	O	-2.099834	0.220453	0.138659
O2	O	-1.635774	0.245847	0.064410
O3	O	-1.880496	0.001109	0.138667
O4	O	-1.855112	0.465190	0.064403
O5	O	-1.910617	-0.029082	0.440675
O6	O	-1.665895	0.215656	0.366418
O7	O	-2.129955	0.190262	0.440667
Zn8	Zn	-1.902708	0.198165	0.451493
Zn9	Zn	-1.863022	0.237943	0.053585
O10	O	-1.885234	0.434999	0.366411
C11	C	-1.591452	0.229705	0.206565
C12	C	-1.414508	0.226569	0.180198
C13	C	-1.894509	-0.073372	0.298518
C14	C	-1.891368	-0.250322	0.324879
C15	C	-1.174279	0.206402	0.298516
C16	C	-1.351224	0.209533	0.324892
C17	C	-1.871220	0.509481	0.206555
C18	C	-1.874360	0.686432	0.180183
N19	N	-1.929804	0.171016	0.723057
N20	N	-1.835938	0.265079	-0.217975
H21	H	-1.333312	0.238756	0.036133
H22	H	-1.740120	0.361089	0.677725
H23	H	-1.862195	-0.232342	0.036125
C24	C	-1.448603	0.045448	0.636632
C25	C	-1.460817	0.193069	0.519373
H26	H	-1.516277	0.035283	0.756694
H27	H	-1.340093	0.041132	0.643821
H28	H	-1.481183	-0.040186	0.588915
H29	H	-1.428225	0.278705	0.567082
H30	H	-1.569350	0.197401	0.512190
C31	C	-1.901354	-0.519920	0.508733
C32	C	-1.907760	-0.359968	0.519366
H33	H	-1.911478	-0.587607	0.628802
H34	H	-1.801239	-0.528148	0.429166
H35	H	-1.987022	-0.552487	0.461048
H36	H	-1.822084	-0.327397	0.567038
H37	H	-2.007887	-0.351733	0.598962
H38	H	-2.025640	0.075012	0.827367
