data_functionalizedCrystal
_audit_creation_method	'MofGen! by Chris Wilmer'
_symmetry_space_group_name_H-M	'P1'
_symmetry_Int_Tables_number	1
_symmetry_cell_setting	triclinic
loop_
_symmetry_equiv_pos_as_xyz
  x,y,z
_cell_length_a	29.839131
_cell_length_b	12.645331
_cell_length_c	12.645324
_cell_angle_alpha	90.022962
_cell_angle_beta	89.960392
_cell_angle_gamma	89.959601
loop_
_atom_site_label
_atom_site_type_symbol
_atom_site_fract_x
_atom_site_fract_y
_atom_site_fract_z
Zn1	Zn	-0.178831	-1.620559	-0.599388
Zn2	Zn	0.321169	-1.120559	-0.099388
Zn3	Zn	-0.253972	-1.620367	-0.422104
Zn4	Zn	0.246028	-1.120367	0.077896
Zn5	Zn	-0.178856	-1.443273	-0.422133
Zn6	Zn	0.321144	-0.943273	0.077867
Zn7	Zn	-0.253934	-1.443182	-0.599320
Zn8	Zn	0.246066	-0.943182	-0.099320
O9	O	-0.216398	-1.531845	-0.510736
O10	O	0.283602	-1.031845	-0.010736
O11	O	-0.188805	-1.768881	-0.575888
O12	O	0.311195	-1.268881	-0.075888
O13	O	-0.244034	-1.596832	-0.273761
O14	O	0.255966	-1.096832	0.226239
O15	O	-0.115985	-1.466909	-0.445687
O16	O	0.384015	-0.966909	0.054313
O17	O	-0.244011	-1.768740	-0.445638
O18	O	0.255989	-1.268740	0.054362
O19	O	-0.115968	-1.597161	-0.575916
O20	O	0.384032	-1.097161	-0.075916
O21	O	-0.188846	-1.466722	-0.273782
O22	O	0.311154	-0.966722	0.226218
O23	O	-0.188809	-1.294914	-0.445620
O24	O	0.311191	-0.794914	0.054380
O25	O	-0.243945	-1.466755	-0.747676
O26	O	0.256055	-0.966755	-0.247676
O27	O	-0.243969	-1.294847	-0.575799
O28	O	0.256031	-0.794847	-0.075799
O29	O	-0.188768	-1.597073	-0.747727
O30	O	0.311232	-1.097073	-0.247727
O31	O	-0.316834	-1.596744	-0.445571
O32	O	0.183166	-1.096744	0.054429
O33	O	-0.316806	-1.466568	-0.575771
O34	O	0.183194	-0.966568	-0.075771
C35	C	-0.216388	-1.256416	-0.510706
C36	C	0.283612	-0.756416	-0.010706
C37	C	-0.216394	-1.138586	-0.510718
C38	C	0.283606	-0.638586	-0.010718
C39	C	-0.333121	-1.531654	-0.510684
C40	C	0.166879	-1.031654	-0.010684
C41	C	-0.383055	-1.531669	-0.510697
C42	C	0.116945	-1.031669	-0.010697
C43	C	-0.216349	-1.531925	-0.787242
C44	C	0.283651	-1.031925	-0.287242
C45	C	-0.216329	-1.531959	-0.905072
C46	C	0.283671	-1.031959	-0.405072
C47	C	-0.692701	-1.599752	-0.443041
C48	C	-0.192701	-1.099752	0.056959
C49	C	-0.880374	-1.599883	-0.443082
C50	C	-0.380374	-1.099883	0.056918
O51	O	-0.904640	-1.657617	-0.385518
O52	O	-0.404640	-1.157617	0.114482
N53	N	-0.903840	-1.532065	-0.510816
N54	N	-0.403840	-1.032065	-0.010816
C55	C	-0.880386	-1.464215	-0.578550
C56	C	-0.380386	-0.964215	-0.078550
O57	O	-0.904652	-1.406543	-0.636171
O58	O	-0.404652	-0.906543	-0.136171
C59	C	-0.692714	-1.464091	-0.578514
C60	C	-0.192714	-0.964091	-0.078514
C61	C	-0.669249	-1.531905	-0.510767
C62	C	-0.169249	-1.031905	-0.010767
C63	C	-0.669236	-1.667561	-0.375300
C64	C	-0.169236	-1.167561	0.124700
C65	C	-0.622321	-1.667524	-0.375287
C66	C	-0.122321	-1.167524	0.124713
C67	C	-0.598870	-1.599677	-0.443013
C68	C	-0.098870	-1.099677	0.056987
C69	C	-0.622334	-1.531867	-0.510753
C70	C	-0.122334	-1.031867	-0.010753
C71	C	-0.669260	-1.396247	-0.646252
C72	C	-0.169260	-0.896247	-0.146252
C73	C	-0.622339	-1.396224	-0.646239
C74	C	-0.122339	-0.896224	-0.146239
C75	C	-0.598875	-1.464038	-0.578492
C76	C	-0.098875	-0.964038	-0.078492
C77	C	-0.551967	-1.463983	-0.578466
C78	C	-0.051967	-0.963983	-0.078466
N79	N	-0.528501	-1.531800	-0.510732
N80	N	-0.028501	-1.031800	-0.010732
C81	C	-0.551952	-1.599647	-0.443005
C82	C	-0.051952	-1.099647	0.056995
C83	C	-0.978916	-1.464284	-0.578563
C84	C	-0.478916	-0.964284	-0.078563
C85	C	-1.025834	-1.464314	-0.578571
C86	C	-0.525834	-0.964314	-0.078571
C87	C	-1.025819	-1.599983	-0.443104
C88	C	-0.525819	-1.099983	0.056896
C89	C	-0.978900	-1.599947	-0.443091
C90	C	-0.478900	-1.099947	0.056909
C91	C	-0.955450	-1.532101	-0.510829
C92	C	-0.455450	-1.032101	-0.010829
C93	C	-0.453426	-1.599563	-0.442981
C94	C	0.046574	-1.099563	0.057019
C95	C	-0.406507	-1.599516	-0.442970
C96	C	0.093493	-1.099516	0.057030
C97	C	-0.406526	-1.463852	-0.578441
C98	C	0.093474	-0.963852	-0.078441
C99	C	-0.453441	-1.463894	-0.578448
C100	C	0.046559	-0.963894	-0.078448
C101	C	-0.476890	-1.531758	-0.510715
C102	C	0.023110	-1.031758	-0.010715
O103	O	-0.527672	-1.406287	-0.636009
O104	O	-0.027672	-0.906287	-0.136009
O105	O	-0.527678	-1.657327	-0.385409
O106	O	-0.027678	-1.157327	0.114591
C107	C	-0.739616	-1.599789	-0.443054
C108	C	-0.239616	-1.099789	0.056946
C109	C	-0.763080	-1.531980	-0.510794
C110	C	-0.263080	-1.031980	-0.010794
C111	C	-0.739629	-1.464133	-0.578521
C112	C	-0.239629	-0.964133	-0.078521
C113	C	-0.809998	-1.532009	-0.510802
C114	C	-0.309998	-1.032009	-0.010802
C115	C	-0.833449	-1.599856	-0.443076
C116	C	-0.333449	-1.099856	0.056924
C117	C	-0.809983	-1.667674	-0.375341
C118	C	-0.309983	-1.167674	0.124659
C119	C	-0.763067	-1.667636	-0.375328
C120	C	-0.263067	-1.167636	0.124672
C121	C	-0.763096	-1.396316	-0.646256
C122	C	-0.263096	-0.896316	-0.146256
C123	C	-0.810011	-1.396358	-0.646263
C124	C	-0.310011	-0.896358	-0.146263
C125	C	-0.833462	-1.464205	-0.578536
C126	C	-0.333462	-0.964205	-0.078536
C127	C	-0.099220	-1.532067	-0.510812
C128	C	0.400780	-1.032067	-0.010812
C129	C	-0.049285	-1.532161	-0.510845
C130	C	0.450715	-1.032161	-0.010845
C131	C	-0.216409	-1.808351	-0.510768
C132	C	0.283591	-1.308351	-0.010768
C133	C	-0.216414	-1.926181	-0.510781
C134	C	0.283586	-1.426181	-0.010781
C135	C	-0.181533	-0.971028	-0.429274
C136	C	0.318467	-0.471028	0.070726
C137	C	-0.181624	-1.093588	-0.428915
C138	C	0.318376	-0.593588	0.071085
C139	C	-0.263721	-1.094019	-0.480188
C140	C	0.236279	-0.594019	0.019812
C141	C	-0.263531	-0.971421	-0.479632
C142	C	0.236469	-0.471421	0.020368
C143	C	-0.204378	-0.971449	-0.623006
C144	C	0.295622	-0.471449	-0.123006
C145	C	-0.203320	-1.094055	-0.622382
C146	C	0.296680	-0.594055	-0.122382
C147	C	-0.181717	-1.614261	-1.072668
C148	C	0.318283	-1.114261	-0.572668
C149	C	-0.181592	-1.613997	-0.950108
C150	C	0.318408	-1.113997	-0.450108
C151	C	-0.203463	-1.420289	-0.949554
C152	C	0.296537	-0.920289	-0.449554
C153	C	-0.203200	-1.420789	-1.072153
C154	C	0.296800	-0.920789	-0.572153
C155	C	-0.263857	-1.560420	-1.072254
C156	C	0.236143	-1.060420	-0.572254
C157	C	-0.263618	-1.562864	-0.949649
C158	C	0.236382	-1.062864	-0.449649
C159	C	-0.216415	-1.531827	-0.235307
C160	C	0.283585	-1.031827	0.264693
C161	C	-0.216309	-1.531999	-0.117477
C162	C	0.283691	-1.031999	0.382523
H163	H	-0.387403	-1.654738	-0.387799
H164	H	0.112597	-1.154738	0.112201
Br165	Br	-0.194974	-1.752741	-1.121823
Br166	Br	0.305026	-1.252741	-0.621823
H167	H	-0.603248	-1.340977	-0.701402
H168	H	-0.103248	-0.840977	-0.201402
H169	H	-0.290778	-1.507299	-0.918988
H170	H	0.209222	-1.007299	-0.418988
H171	H	-0.226872	-1.124691	-0.686360
H172	H	0.273128	-0.624691	-0.186360
Br173	Br	-0.123334	-1.583315	-1.124061
Br174	Br	0.376666	-1.083315	-0.624061
H175	H	-0.290405	-1.123163	-0.537689
H176	H	0.209595	-0.623163	-0.037689
Br177	Br	-0.145276	-1.142638	-0.660769
Br178	Br	0.354724	-0.642638	-0.160769
H179	H	-0.189650	-1.696804	-0.920035
H180	H	0.310350	-1.196804	-0.420035
H181	H	-0.229783	-0.942445	-0.683735
H182	H	0.270217	-0.442445	-0.183735
H183	H	-0.472547	-1.408677	-0.633616
H184	H	0.027453	-0.908677	-0.133616
Br185	Br	-0.281027	-1.145090	-0.344912
Br186	Br	0.218973	-0.645090	0.155088
H187	H	-0.289631	-1.500509	-1.101239
H188	H	0.210369	-1.000509	-0.601239
Br189	Br	-0.947061	-1.691982	-0.351146
Br190	Br	-0.447061	-1.191982	0.148854
H191	H	-0.273319	-1.645042	-0.920575
H192	H	0.226681	-1.145042	-0.420575
Br193	Br	-0.701092	-1.304219	-0.738211
Br194	Br	-0.201092	-0.804219	-0.238211
Br195	Br	-0.122885	-1.582640	-0.901260
Br196	Br	0.377115	-1.082640	-0.401260
Br197	Br	-0.244168	-1.315351	-0.900947
Br198	Br	0.255832	-0.815351	-0.400947
Br199	Br	-0.280541	-0.923652	-0.342890
Br200	Br	0.219459	-0.423652	0.157110
H201	H	-0.227299	-1.357414	-1.101792
H202	H	0.272701	-0.857414	-0.601792
Br203	Br	-0.947098	-1.372198	-0.670501
Br204	Br	-0.447098	-0.872198	-0.170501
Br205	Br	-0.145277	-1.380569	-1.119862
Br206	Br	0.354723	-0.880569	-0.619862
H207	H	-0.170469	-0.940585	-0.650768
H208	H	0.329531	-0.440585	-0.150768
Br209	Br	-0.841850	-1.304312	-0.738211
Br210	Br	-0.341850	-0.804312	-0.238211
Br211	Br	-0.146176	-1.379386	-0.898425
Br212	Br	0.353824	-0.879386	-0.398425
H213	H	-0.275570	-1.640424	-1.103236
H214	H	0.224430	-1.140424	-0.603236
H215	H	-0.472513	-1.654826	-0.387828
H216	H	0.027487	-1.154826	0.112172
Br217	Br	-0.701054	-1.759654	-0.283375
Br218	Br	-0.201054	-1.259654	0.216625
H219	H	-0.603219	-1.722747	-0.320125
H220	H	-0.103219	-1.222747	0.179875
H221	H	-1.044921	-1.655227	-0.387958
H222	H	-0.544921	-1.155227	0.112042
Br223	Br	-1.057673	-1.372261	-0.670501
Br224	Br	-0.557673	-0.872261	-0.170501
Br225	Br	-0.374690	-1.371782	-0.670355
Br226	Br	0.125310	-0.871782	-0.170355
H227	H	-0.829085	-1.722914	-0.320193
H228	H	-0.329085	-1.222914	0.179807
Br229	Br	-0.123130	-1.143821	-0.460812
Br230	Br	0.376870	-0.643821	0.039188
H231	H	-0.743966	-1.722857	-0.320162
H232	H	-0.243966	-1.222857	0.179838
H233	H	-0.744005	-1.341068	-0.701408
H234	H	-0.244005	-0.841068	-0.201408
Br235	Br	-0.122861	-0.921981	-0.460825
Br236	Br	0.377139	-0.421981	0.039175
H237	H	-0.290400	-0.941750	-0.536408
H238	H	0.209600	-0.441750	-0.036408
Br239	Br	-0.194635	-0.919576	-0.291482
Br240	Br	0.305365	-0.419576	0.208518
H241	H	-0.189579	-1.122858	-0.345753
H242	H	0.310421	-0.622858	0.154247
