data_functionalizedCrystal
_audit_creation_method	'MofGen! by Chris Wilmer'
_symmetry_space_group_name_H-M	'P1'
_symmetry_Int_Tables_number	1
_symmetry_cell_setting	triclinic
loop_
_symmetry_equiv_pos_as_xyz
  x,y,z
_cell_length_a	10.654562
_cell_length_b	11.792254
_cell_length_c	9.730223
_cell_angle_alpha	89.998472
_cell_angle_beta	89.996961
_cell_angle_gamma	84.344351
loop_
_atom_site_label
_atom_site_type_symbol
_atom_site_fract_x
_atom_site_fract_y
_atom_site_fract_z
O1	O	1.667382	0.159483	-0.114381
O2	O	1.301863	0.174656	-0.114364
O3	O	1.493484	0.001921	-0.114363
O4	O	1.475760	0.332218	-0.114382
O5	O	1.493482	0.001925	0.114217
O6	O	1.301861	0.174660	0.114216
O7	O	1.667379	0.159487	0.114199
Zn8	Zn	1.484620	0.167074	0.150499
Zn9	Zn	1.484623	0.167069	-0.150665
O10	O	1.475758	0.332222	0.114198
C11	C	1.255067	0.173541	-0.000072
C12	C	1.115634	0.170199	-0.000065
C13	C	1.050107	0.168642	0.124523
C14	C	0.919093	0.165511	0.124500
C15	C	0.919146	0.165498	-0.124710
C16	C	1.050158	0.168621	-0.124686
C17	C	1.050074	0.168655	0.268403
C18	C	0.919061	0.165523	0.268380
C19	C	1.492367	-0.040371	-0.000074
C20	C	1.489025	-0.166391	-0.000075
C21	C	1.486310	-0.268734	-0.000080
C22	C	1.482914	-0.397129	-0.000092
C23	C	1.714175	0.160602	-0.000096
C24	C	1.853608	0.163944	-0.000112
C25	C	1.476876	0.374514	-0.000095
C26	C	1.480218	0.500534	-0.000102
N27	N	1.484627	0.167078	0.356036
N28	N	1.484625	0.167056	-0.356201
C29	C	1.569499	0.090617	0.427962
C30	C	1.569495	0.090603	0.571845
C31	C	1.399745	0.243521	0.571863
C32	C	1.399743	0.243529	0.427982
C33	C	1.667507	0.002333	0.427953
C34	C	1.667503	0.002320	0.571836
H35	H	0.872556	0.243966	0.323612
O36	O	1.120831	0.170287	-0.259068
H37	H	1.191161	0.094478	-0.265006
H38	H	1.637220	-0.080123	0.616458
H39	H	1.758613	0.029981	0.383321
H40	H	1.646306	-0.084908	0.388905
H41	H	0.865819	0.164213	-0.226172
H42	H	1.763960	0.021771	0.610881
H43	H	1.096552	0.090216	0.323660
H44	H	1.079419	0.251434	0.313042
H45	H	0.889702	0.082747	0.313031
O46	O	1.308193	0.325984	0.350395
H47	H	1.324788	0.414606	0.378000
O48	O	1.308203	0.325987	0.649460
H49	H	1.322466	0.313142	0.761593
