data_functionalizedCrystal
_audit_creation_method	'MofGen! by Chris Wilmer'
_symmetry_space_group_name_H-M	'P1'
_symmetry_Int_Tables_number	1
_symmetry_cell_setting	triclinic
loop_
_symmetry_equiv_pos_as_xyz
  x,y,z
_cell_length_a	16.109318
_cell_length_b	16.109304
_cell_length_c	17.766277
_cell_angle_alpha	89.996447
_cell_angle_beta	89.994221
_cell_angle_gamma	83.465600
loop_
_atom_site_label
_atom_site_type_symbol
_atom_site_fract_x
_atom_site_fract_y
_atom_site_fract_z
O1	O	1.103130	0.106937	-0.062527
O2	O	1.436463	0.440270	0.270807
O3	O	1.769796	0.773604	0.604140
O4	O	0.861070	0.120221	-0.062541
O5	O	1.194403	0.453554	0.270792
O6	O	1.527736	0.786888	0.604125
O7	O	0.988748	-0.007451	-0.062534
O8	O	1.322081	0.325882	0.270799
O9	O	1.655415	0.659215	0.604133
O10	O	0.975451	0.234609	-0.062534
O11	O	1.308785	0.567943	0.270799
O12	O	1.642118	0.901276	0.604133
O13	O	0.988726	-0.007458	0.062654
O14	O	1.322059	0.325875	0.395988
O15	O	1.655392	0.659209	0.729321
O16	O	0.861047	0.120215	0.062647
O17	O	1.194381	0.453548	0.395980
O18	O	1.527714	0.786881	0.729314
O19	O	1.103107	0.106930	0.062662
O20	O	1.436441	0.440264	0.395995
O21	O	1.769774	0.773597	0.729328
Cu22	Cu	0.982075	0.113572	0.074085
Cu23	Cu	1.315409	0.446905	0.407418
Cu24	Cu	1.648742	0.780239	0.740752
Cu25	Cu	0.982102	0.113580	-0.073965
Cu26	Cu	1.315435	0.446913	0.259368
Cu27	Cu	1.648768	0.780246	0.592702
O28	O	0.975429	0.234603	0.062654
O29	O	1.308762	0.567936	0.395988
O30	O	1.642096	0.901270	0.729321
C31	C	0.830084	0.119677	0.000051
C32	C	1.163417	0.453011	0.333384
C33	C	1.496751	0.786344	0.666717
C34	C	0.737789	0.118056	0.000045
C35	C	1.071123	0.451390	0.333378
C36	C	1.404456	0.784723	0.666712
C37	C	0.988198	-0.038430	0.000058
C38	C	1.321531	0.294904	0.333392
C39	C	1.654865	0.628237	0.666725
C40	C	0.986582	-0.130725	0.000053
C41	C	1.319915	0.202609	0.333386
C42	C	1.653248	0.535942	0.666720
C43	C	0.438728	0.112825	-0.068182
C44	C	0.772061	0.446158	0.265151
C45	C	1.105394	0.779492	0.598485
C46	C	0.525449	0.114342	-0.068187
C47	C	0.858782	0.447676	0.265147
C48	C	1.192116	0.781009	0.598480
C49	C	0.525443	0.114324	0.068301
C50	C	0.858777	0.447657	0.401634
C51	C	1.192110	0.780991	0.734967
C52	C	0.438725	0.112801	0.068305
C53	C	0.772058	0.446134	0.401638
C54	C	1.105391	0.779467	0.734971
C55	C	0.395368	0.112055	0.000061
C56	C	0.728702	0.445389	0.333394
C57	C	1.062035	0.778722	0.666728
C58	C	0.568809	0.115096	0.000053
C59	C	0.902142	0.448429	0.333386
C60	C	1.235475	0.781763	0.666719
C61	C	0.662836	0.116741	0.000048
C62	C	0.996169	0.450075	0.333381
C63	C	1.329502	0.783408	0.666715
C64	C	0.301336	0.110408	0.000065
C65	C	0.634669	0.443742	0.333399
C66	C	0.968002	0.777075	0.666732
C67	C	0.982861	-0.343059	-0.068185
C68	C	1.316194	-0.009726	0.265149
C69	C	1.649527	0.323608	0.598482
C70	C	0.981334	-0.429779	-0.068184
C71	C	1.314668	-0.096446	0.265149
C72	C	1.648001	0.236888	0.598483
C73	C	0.981314	-0.429783	0.068303
C74	C	1.314647	-0.096450	0.401637
C75	C	1.647981	0.236883	0.734970
C76	C	0.982834	-0.343064	0.068302
C77	C	1.316168	-0.009730	0.401635
C78	C	1.649501	0.323603	0.734969
C79	C	0.983612	-0.299704	0.000056
C80	C	1.316945	0.033629	0.333389
C81	C	1.650278	0.366962	0.666722
C82	C	0.980565	-0.473144	0.000058
C83	C	1.313899	-0.139811	0.333391
C84	C	1.647232	0.193523	0.666724
C85	C	0.978911	-0.567170	0.000059
C86	C	1.312244	-0.233837	0.333392
C87	C	1.645577	0.099497	0.666726
C88	C	0.985265	-0.205672	0.000054
C89	C	1.318598	0.127661	0.333388
C90	C	1.651931	0.460994	0.666721
C91	C	1.134093	0.107474	0.000068
C92	C	1.467426	0.440808	0.333401
C93	C	1.800760	0.774141	0.666734
C94	C	1.226388	0.109095	0.000069
C95	C	1.559721	0.442428	0.333402
C96	C	1.893054	0.775762	0.666735
C97	C	0.975979	0.265581	0.000060
C98	C	1.309312	0.598914	0.333394
C99	C	1.642646	0.932248	0.666727
C100	C	0.977595	0.357876	0.000060
C101	C	1.310929	0.691210	0.333394
C102	C	1.644262	1.024543	0.666727
N103	N	0.982063	0.113566	0.178215
N104	N	1.315396	0.446899	0.511549
N105	N	1.648729	0.780233	0.844882
N106	N	0.982121	0.113579	-0.178095
N107	N	1.315454	0.446912	0.155238
N108	N	1.648788	0.780246	0.488571
C109	C	1.038617	0.057060	0.217606
C110	C	1.371950	0.390394	0.550939
C111	C	1.705284	0.723727	0.884272
C112	C	1.038622	0.057056	0.296407
C113	C	1.371955	0.390390	0.629741
C114	C	1.705288	0.723723	0.963074
C115	C	0.982080	0.113573	0.335816
C116	C	1.315414	0.446906	0.669149
C117	C	1.648747	0.780239	1.002483
C118	C	0.925515	0.170083	0.296416
C119	C	1.258849	0.503416	0.629750
C120	C	1.592182	0.836749	0.963083
C121	C	0.925507	0.170079	0.217616
C122	C	1.258840	0.503413	0.550949
C123	C	1.592173	0.836746	0.884283
C124	C	0.971167	0.189294	0.460654
C125	C	1.304500	0.522627	0.793987
C126	C	1.637834	0.855961	1.127320
C127	C	0.971182	0.189298	0.539452
C128	C	1.304515	0.522632	0.872786
C129	C	1.637848	0.855965	1.206119
C130	C	0.982102	0.113583	0.578862
C131	C	1.315436	0.446916	0.912196
C132	C	1.648769	0.780249	1.245529
C133	C	0.993026	0.037859	0.539464
C134	C	1.326360	0.371192	0.872797
C135	C	1.659693	0.704526	1.206130
C136	C	0.993018	0.037856	0.460663
C137	C	1.326351	0.371189	0.793997
C138	C	1.659684	0.704522	1.127330
C139	C	0.982083	0.113582	0.421262
C140	C	1.315416	0.446915	0.754595
C141	C	1.648750	0.780249	1.087928
C142	C	1.038665	0.057068	0.703698
C143	C	1.371998	0.390401	1.037032
C144	C	1.705332	0.723735	1.370365
C145	C	1.038664	0.057063	0.782502
C146	C	1.371997	0.390397	1.115835
C147	C	1.705331	0.723730	1.449168
C148	C	0.925562	0.170097	0.782509
C149	C	1.258895	0.503430	1.115842
C150	C	1.592228	0.836763	1.449176
C151	C	0.925559	0.170094	0.703707
C152	C	1.258892	0.503428	1.037041
C153	C	1.592225	0.836761	1.370374
C154	C	0.982115	0.113581	0.664307
C155	C	1.315448	0.446914	0.997640
C156	C	1.648781	0.780248	1.330973
H157	H	0.403430	0.112217	-0.123750
H158	H	0.736763	0.445550	0.209583
H159	H	1.070097	0.778884	0.542916
H160	H	0.560749	0.114968	-0.123757
H161	H	0.894082	0.448301	0.209576
H162	H	1.227415	0.781635	0.542910
O163	O	0.864542	0.231046	0.338924
O164	O	1.197876	0.564379	0.672257
O165	O	1.531209	0.897713	1.005590
H166	H	0.875118	0.295860	0.323782
H167	H	1.208451	0.629193	0.657115
H168	H	1.541784	0.962526	0.990448
H169	H	0.879452	0.216094	0.185544
H170	H	1.212786	0.549427	0.518877
H171	H	1.546119	0.882760	0.852210
H172	H	0.980721	-0.465074	-0.123752
H173	H	1.314054	-0.131741	0.209581
H174	H	1.647388	0.201592	0.542915
H175	H	0.560754	0.114932	0.123862
H176	H	0.894088	0.448266	0.457196
H177	H	1.227421	0.781599	0.790529
O178	O	0.864592	0.231081	0.824994
O179	O	1.197926	0.564415	1.158327
O180	O	1.531259	0.897748	1.491661
H181	H	0.799779	0.220480	0.809890
H182	H	1.133112	0.553813	1.143223
H183	H	1.466445	0.887146	1.476557
H184	H	0.980683	-0.465097	0.123867
H185	H	1.314016	-0.131764	0.457200
H186	H	1.647350	0.201569	0.790534
O187	O	0.391948	0.111976	0.141913
O188	O	0.725281	0.445309	0.475246
O189	O	1.058614	0.778642	0.808579
H190	H	0.436661	0.112764	0.189366
H191	H	0.769995	0.446097	0.522699
H192	H	1.103328	0.779430	0.856033
O193	O	0.983683	-0.296286	-0.141789
O194	O	1.317016	0.037047	0.191545
O195	O	1.650350	0.370380	0.524878
H196	H	0.982894	-0.341005	-0.189240
H197	H	1.316227	-0.007672	0.144094
H198	H	1.649560	0.325662	0.477427
O199	O	0.983654	-0.296294	0.141907
O200	O	1.316987	0.037039	0.475240
O201	O	1.650321	0.370372	0.808574
H202	H	0.982874	-0.341014	0.189363
H203	H	1.316207	-0.007681	0.522697
H204	H	1.649540	0.325653	0.856030
H205	H	1.084676	0.011041	0.328485
H206	H	1.418010	0.344374	0.661818
H207	H	1.751343	0.677708	0.995151
O208	O	1.099603	-0.003901	0.175107
O209	O	1.432936	0.329433	0.508440
O210	O	1.766270	0.662766	0.841774
H211	H	1.138924	-0.043200	0.215742
H212	H	1.472257	0.290133	0.549075
H213	H	1.805590	0.623467	0.882409
H214	H	1.001910	-0.023801	0.428588
H215	H	1.335243	0.309533	0.761922
H216	H	1.668577	0.642866	1.095255
O217	O	1.004799	-0.043816	0.581956
O218	O	1.338133	0.289517	0.915289
O219	O	1.671466	0.622851	1.248622
H220	H	1.002959	-0.031097	0.643369
H221	H	1.336292	0.302237	0.976702
H222	H	1.669625	0.635570	1.310036
H223	H	1.084714	0.011049	0.671617
H224	H	1.418047	0.344382	1.004950
H225	H	1.751381	0.677716	1.338284
O226	O	1.099673	-0.003876	0.824993
O227	O	1.433007	0.329457	1.158326
O228	O	1.766340	0.662791	1.491660
H229	H	1.139004	-0.043162	0.784353
H230	H	1.472337	0.290171	1.117687
H231	H	1.805671	0.623504	1.451020
H232	H	0.962292	0.250957	0.571525
H233	H	1.295625	0.584290	0.904858
H234	H	1.628959	0.917624	1.238191
O235	O	0.864570	0.231049	0.661214
O236	O	1.197904	0.564383	0.994547
O237	O	1.531237	0.897716	1.327881
H238	H	0.825258	0.270354	0.701853
H239	H	1.158591	0.603688	1.035187
H240	H	1.491924	0.937021	1.368520
H241	H	0.962260	0.250955	0.428572
H242	H	1.295593	0.584288	0.761906
H243	H	1.628926	0.917622	1.095239
