data_functionalizedCrystal
_audit_creation_method	'MofGen! by Chris Wilmer'
_symmetry_space_group_name_H-M	'P1'
_symmetry_Int_Tables_number	1
_symmetry_cell_setting	triclinic
loop_
_symmetry_equiv_pos_as_xyz
  x,y,z
_cell_length_a	10.654562
_cell_length_b	15.944493
_cell_length_c	9.730223
_cell_angle_alpha	90.004543
_cell_angle_beta	89.996961
_cell_angle_gamma	83.982574
loop_
_atom_site_label
_atom_site_type_symbol
_atom_site_fract_x
_atom_site_fract_y
_atom_site_fract_z
O1	O	1.666261	0.118027	-0.114360
O2	O	1.300636	0.129256	-0.114342
O3	O	1.493471	0.001421	-0.114363
O4	O	1.473426	0.245861	-0.114339
O5	O	1.493468	0.001425	0.114217
O6	O	1.300633	0.129259	0.114238
O7	O	1.666259	0.118030	0.114219
Zn8	Zn	1.483446	0.123645	0.150521
Zn9	Zn	1.483449	0.123641	-0.150643
O10	O	1.473424	0.245864	0.114241
C11	C	1.253848	0.128431	-0.000049
C12	C	1.114438	0.125957	-0.000043
C13	C	1.048921	0.124805	0.124545
C14	C	0.917930	0.122488	0.124522
C15	C	0.917983	0.122478	-0.124689
C16	C	1.048973	0.124789	-0.124664
C17	C	1.048889	0.124814	0.268425
C18	C	0.917898	0.122497	0.268402
C19	C	1.492650	-0.029877	-0.000079
C20	C	1.490194	-0.123140	-0.000096
C21	C	1.603701	-0.358239	-0.000076
C22	C	1.542492	-0.409165	-0.112774
C23	C	1.485643	-0.293887	-0.000079
C24	C	1.542462	-0.409138	0.112588
C25	C	1.481256	-0.458822	-0.000057
C26	C	1.424466	-0.343584	-0.112870
C27	C	1.424453	-0.343554	0.112593
C28	C	1.363158	-0.394447	-0.000132
C29	C	1.488174	-0.198872	-0.000093
C30	C	1.478715	-0.553834	-0.000052
C31	C	1.713047	0.118855	-0.000076
C32	C	1.852456	0.121328	-0.000091
C33	C	1.474244	0.277162	-0.000046
C34	C	1.476700	0.370425	-0.000038
N35	N	1.483453	0.123647	0.356057
N36	N	1.483451	0.123632	-0.356179
C37	C	1.568862	0.067062	0.427974
C38	C	1.568859	0.067051	0.571857
C39	C	1.398033	0.180220	0.571894
C40	C	1.398032	0.180226	0.428014
C41	C	1.667490	0.001727	0.427954
C42	C	1.667487	0.001717	0.571837
H43	H	1.077652	0.186076	0.313074
H44	H	1.328485	0.226284	0.630496
H45	H	1.763807	0.016112	0.610884
H46	H	1.646903	-0.062837	0.388894
C47	C	1.112429	0.046392	0.343053
N48	N	1.160286	-0.012675	0.399258
H49	H	1.637783	-0.059296	0.616448
C50	C	0.854298	0.201044	0.342681
N51	N	0.806388	0.260246	0.398502
C52	C	1.121041	0.126036	-0.261720
N53	N	1.175322	0.126972	-0.364957
H54	H	0.864665	0.121527	-0.226151
H55	H	0.889121	0.061237	0.313041
C56	C	1.609851	-0.447887	-0.241492
N57	N	1.660594	-0.477053	-0.338436
H58	H	1.758402	0.022188	0.383325
H59	H	1.374638	-0.315056	-0.208249
C60	C	1.225671	-0.416146	-0.000207
N61	N	1.122118	-0.432490	-0.000270
C62	C	1.741080	-0.336322	-0.000234
N63	N	1.844551	-0.319813	-0.000360
C64	C	1.357149	-0.304824	0.241326
N65	N	1.306461	-0.275654	0.338299
H66	H	1.592344	-0.437777	0.207859
C67	C	1.304171	0.242539	0.348911
N68	N	1.233510	0.289502	0.289330
