data_functionalizedCrystal
_audit_creation_method	'MofGen! by Chris Wilmer'
_symmetry_space_group_name_H-M	'P1'
_symmetry_Int_Tables_number	1
_symmetry_cell_setting	triclinic
loop_
_symmetry_equiv_pos_as_xyz
  x,y,z
_cell_length_a	6.817900
_cell_length_b	11.102244
_cell_length_c	12.200737
_cell_angle_alpha	92.494029
_cell_angle_beta	107.141108
_cell_angle_gamma	108.604870
loop_
_atom_site_label
_atom_site_type_symbol
_atom_site_fract_x
_atom_site_fract_y
_atom_site_fract_z
V1	V	-4.094439	-0.176135	-0.357658
O2	O	-4.053803	0.008159	-0.350853
O3	O	-4.071327	-0.348953	-0.355209
O4	O	-4.063769	-0.173560	-0.513647
O5	O	-4.061414	-0.168448	-0.191319
V6	V	-4.572493	-0.154076	-0.337763
O7	O	-4.367694	-0.224524	-0.401300
O8	O	-4.749435	-0.105686	-0.294121
O9	O	-4.372398	0.018742	-0.340212
O10	O	-4.730525	-0.338369	-0.344568
O11	O	-4.722915	-0.161762	-0.504103
O12	O	-4.379957	-0.156651	-0.181775
C13	C	-3.921906	-0.391078	-0.349566
C14	C	-3.984414	-0.532359	-0.348604
C15	C	-3.958627	-0.580506	-0.243107
C16	C	-4.017374	-0.713258	-0.242216
C17	C	-4.127687	-0.749705	-0.452327
C18	C	-4.068954	-0.616956	-0.453217
C19	C	-3.874086	-0.495910	-0.138494
C20	C	-3.848292	-0.544056	-0.032989
C21	C	-3.907039	-0.676807	-0.032098
C22	C	-3.991580	-0.761413	-0.136711
C23	C	-3.912263	-0.167345	-0.551668
C24	C	-3.968638	-0.166383	-0.679189
C25	C	-4.014417	-0.165600	-0.782750
C26	C	-4.071865	-0.164613	-0.912672
C27	C	-4.185162	0.060860	-0.345852
C28	C	-4.101893	0.202141	-0.346822
C29	C	-4.194804	-0.162870	-0.143748
C30	C	-4.117667	-0.163826	-0.016225
H31	H	-3.886053	-0.716004	0.053809
H32	H	-4.039426	-0.869507	-0.135978
C33	C	-4.220655	-0.842765	-0.567395
C34	C	-4.285248	-0.988783	-0.566417
C35	C	-4.378209	-1.081842	-0.681487
C36	C	-4.406576	-1.028883	-0.797535
C37	C	-4.341982	-0.882857	-0.798517
C38	C	-4.249022	-0.789798	-0.683447
H39	H	-4.264250	-1.027994	-0.480508
H40	H	-4.426025	-1.189940	-0.680759
H41	H	-4.475391	-1.097770	-0.882716
H42	H	-4.362980	-0.843646	-0.884426
H43	H	-4.201205	-0.681700	-0.684174
C44	C	-4.097311	-0.563980	-0.569261
C45	C	-3.897071	-0.471548	-0.593311
C46	C	-3.925440	-0.418571	-0.709356
C47	C	-4.154049	-0.458025	-0.801352
C48	C	-4.354305	-0.550462	-0.777304
C49	C	-4.325936	-0.603439	-0.661259
H50	H	-3.727827	-0.442337	-0.525208
H51	H	-3.777196	-0.350143	-0.727157
H52	H	-4.175050	-0.418808	-0.887255
H53	H	-4.523549	-0.579673	-0.845407
H54	H	-4.474179	-0.671867	-0.643458
C55	C	-3.809464	-0.349883	-0.139471
C56	C	-3.632463	-0.280732	-0.192293
C57	C	-3.567835	-0.134706	-0.193272
C58	C	-3.680207	-0.057832	-0.141429
C59	C	-3.857219	-0.126983	-0.088603
C60	C	-3.921847	-0.273009	-0.087624
H61	H	-3.549268	-0.337639	-0.230674
H62	H	-3.436798	-0.083516	-0.232378
H63	H	-3.632366	0.050265	-0.142153
H64	H	-3.940413	-0.070076	-0.050221
H65	H	-4.052883	-0.324199	-0.048518
H66	H	-3.779473	-0.475162	0.052183
