data_functionalizedCrystal
_audit_creation_method	'MofGen! by Chris Wilmer'
_symmetry_space_group_name_H-M	'P1'
_symmetry_Int_Tables_number	1
_symmetry_cell_setting	triclinic
loop_
_symmetry_equiv_pos_as_xyz
  x,y,z
_cell_length_a	13.930277
_cell_length_b	11.026607
_cell_length_c	11.026607
_cell_angle_alpha	108.586017
_cell_angle_beta	89.998255
_cell_angle_gamma	89.993484
loop_
_atom_site_label
_atom_site_type_symbol
_atom_site_fract_x
_atom_site_fract_y
_atom_site_fract_z
O1	O	0.079829	-1.726738	-0.533624
O2	O	0.079830	-1.360158	-0.472860
O3	O	0.079826	-1.513067	-0.319952
O4	O	0.079833	-1.573830	-0.686532
O5	O	-0.079836	-1.513038	-0.319942
O6	O	-0.079832	-1.360130	-0.472850
O7	O	-0.079833	-1.726710	-0.533614
Zn8	Zn	-0.105182	-1.543416	-0.503230
Zn9	Zn	0.105179	-1.543453	-0.503244
O10	O	-0.079829	-1.573802	-0.686522
C11	C	-0.000001	-1.312485	-0.461645
C12	C	-0.000000	-1.170471	-0.428228
C13	C	-0.000004	-1.501843	-0.272287
C14	C	-0.000000	-1.468426	-0.130273
N15	N	-0.248748	-1.543400	-0.503222
C16	C	-0.701016	-1.475734	-0.570917
C17	C	-0.700989	-1.611204	-0.435568
C18	C	-0.600493	-1.611188	-0.435561
C19	C	-0.550254	-1.543446	-0.503234
C20	C	-0.600511	-1.475719	-0.570914
C21	C	-0.550229	-1.678924	-0.367892
C22	C	-0.449727	-1.678912	-0.367883
C23	C	-0.399486	-1.611161	-0.435550
C24	C	-0.449749	-1.543431	-0.503232
C25	C	-0.399510	-1.475688	-0.570905
C26	C	-0.449771	-1.407950	-0.638580
C27	C	-0.550270	-1.407969	-0.638581
C28	C	-0.298987	-1.611142	-0.435549
C29	C	-0.299005	-1.475673	-0.570903
N30	N	0.248745	-1.543477	-0.503244
C31	C	-0.000001	-1.774384	-0.544828
C32	C	0.000005	-1.916398	-0.578245
C33	C	0.000002	-1.116821	-0.520498
C34	C	0.000003	-0.970043	-0.485962
C35	C	0.000003	-1.585026	-0.734187
C36	C	0.000005	-1.618443	-0.876200
C37	C	0.000001	-1.560695	-0.076624
C38	C	0.000004	-1.526160	0.070155
H39	H	-0.408855	-1.352800	-0.693687
H40	H	-0.591137	-1.734085	-0.312802
O41	O	0.000066	-0.991407	-0.702934
C42	C	0.000045	-1.206092	-0.851042
C43	C	-0.000012	-1.121297	-0.709785
H44	H	-0.000038	-1.311124	-0.856627
H45	H	0.066888	-1.185044	-0.900550
H46	H	-0.066748	-1.184870	-0.900530
H47	H	0.066736	-1.142470	-0.660187
H48	H	-0.066899	-1.142360	-0.660373
O49	O	-0.599242	-1.342295	-0.704304
C50	C	-0.754081	-1.282239	-0.764241
C51	C	-0.698737	-1.356685	-0.689777
H52	H	-0.834533	-1.293826	-0.752500
H53	H	-0.734383	-1.321143	-0.869972
H54	H	-0.734290	-1.176549	-0.725300
H55	H	-0.718498	-1.462387	-0.728609
H56	H	-0.718440	-1.317677	-0.584055
O57	O	-0.401057	-1.744722	-0.302026
C58	C	-0.411645	-1.879149	-0.167834
C59	C	-0.466885	-1.804655	-0.242343
H60	H	-0.464843	-1.927647	-0.119583
H61	H	-0.364639	-1.810258	-0.092045
H62	H	-0.364548	-1.954769	-0.236800
H63	H	-0.514034	-1.729034	-0.173476
H64	H	-0.513831	-1.873625	-0.318149
O65	O	0.000132	-1.743151	0.048846
C66	C	0.082876	-1.909389	-0.113714
C67	C	0.082840	-1.768129	-0.028928
H68	H	0.149749	-1.929635	-0.176596
H69	H	0.016103	-1.929680	-0.176774
H70	H	0.082830	-1.973459	-0.050461
H71	H	0.082920	-1.703967	-0.092082
H72	H	0.149608	-1.747942	0.034142
H73	H	-0.258069	-1.666301	-0.380456
H74	H	-0.000001	-1.179555	-0.625061
H75	H	0.000026	-0.907314	-0.381393
H76	H	0.000023	-1.107738	-0.323666
O77	O	-0.749687	-1.676902	-0.369642
C78	C	-0.780496	-1.703096	-0.164389
C79	C	-0.725261	-1.628619	-0.238910
H80	H	-0.760783	-1.664070	-0.058676
H81	H	-0.760706	-1.808802	-0.203230
H82	H	-0.860952	-1.691497	-0.176090
H83	H	-0.644792	-1.640113	-0.227240
H84	H	-0.745131	-1.522942	-0.200053
O85	O	0.000045	-1.343614	-0.055632
C86	C	-0.000012	-1.123128	-0.049241
C87	C	-0.000042	-1.264427	-0.133918
H88	H	-0.000102	-1.059066	-0.112500
H89	H	0.066825	-1.102804	0.013699
H90	H	-0.066811	-1.102914	0.013779
H91	H	0.066713	-1.284741	-0.197015
H92	H	-0.066922	-1.284680	-0.196773
H93	H	-0.258106	-1.420503	-0.626005
H94	H	-0.741941	-1.420578	-0.626013
H95	H	-0.000006	-1.665258	-0.139357
H96	H	0.000011	-1.421590	0.132884
