data_functionalizedCrystal
_audit_creation_method	'MofGen! by Chris Wilmer'
_symmetry_space_group_name_H-M	'P1'
_symmetry_Int_Tables_number	1
_symmetry_cell_setting	triclinic
loop_
_symmetry_equiv_pos_as_xyz
  x,y,z
_cell_length_a	13.033855
_cell_length_b	12.827893
_cell_length_c	12.827885
_cell_angle_alpha	90.021189
_cell_angle_beta	82.792119
_cell_angle_gamma	97.175334
loop_
_atom_site_label
_atom_site_type_symbol
_atom_site_fract_x
_atom_site_fract_y
_atom_site_fract_z
Zn1	Zn	-0.416026	-1.650547	-0.538103
Zn2	Zn	-0.590802	-1.672656	-0.341181
Zn3	Zn	-0.416072	-1.475795	-0.363365
Zn4	Zn	-0.590718	-1.497978	-0.515886
O5	O	-0.503404	-1.574244	-0.439634
O6	O	-0.439226	-1.799718	-0.511995
O7	O	-0.567678	-1.646510	-0.197881
O8	O	-0.269831	-1.480440	-0.405125
O9	O	-0.567633	-1.815961	-0.367317
O10	O	-0.269797	-1.608830	-0.533505
O11	O	-0.439304	-1.501877	-0.214179
O12	O	-0.439223	-1.332499	-0.383583
O13	O	-0.567490	-1.518248	-0.665076
O14	O	-0.567535	-1.348797	-0.495640
O15	O	-0.439145	-1.630340	-0.681399
O16	O	-0.737025	-1.668021	-0.345775
O17	O	-0.736963	-1.539685	-0.474130
C18	C	-0.503376	-1.302730	-0.439608
C19	C	-0.503389	-1.186579	-0.439619
C20	C	-0.439960	-1.126770	-0.511293
C21	C	-0.439972	-1.006722	-0.511306
C22	C	-0.774911	-1.608688	-0.405157
C23	C	-0.891063	-1.623518	-0.390443
C24	C	-0.942851	-1.566585	-0.447334
C25	C	-1.062900	-1.581912	-0.432128
C26	C	-0.230837	-1.539694	-0.474268
C27	C	-0.114685	-1.524971	-0.489027
C28	C	-0.503303	-1.574302	-0.712217
C29	C	-0.503260	-1.574327	-0.828376
C30	C	-0.503425	-0.846817	-0.439652
C31	C	-0.503412	-0.962968	-0.439642
C32	C	-0.566757	-1.645900	-0.872099
C33	C	-0.566714	-1.645927	-0.992155
C34	C	-0.503430	-1.574236	-0.168121
C35	C	-0.503178	-1.574377	-0.052000
H36	H	-0.557724	-1.014365	-0.378281
H37	H	-0.385671	-0.955319	-0.572672
H38	H	-0.448816	-1.513095	-1.014374
N39	N	-1.055706	-1.445371	-0.568466
H40	H	-1.106762	-1.409483	-0.604341
H41	H	-1.010494	-1.391302	-0.531568
N42	N	-0.950056	-1.703114	-0.311014
H43	H	-0.931046	-1.775362	-0.329702
H44	H	-0.931165	-1.684443	-0.238736
N45	N	-0.431211	-1.493174	-0.896510
H46	H	-0.382812	-1.529554	-0.947956
H47	H	-0.473783	-1.450216	-0.936317
N48	N	-0.638807	-1.727051	-0.803965
H49	H	-0.628652	-1.715505	-0.727855
H50	H	-0.713447	-1.720299	-0.813531
N51	N	-1.121887	-1.661505	-0.352685
H52	H	-1.167104	-1.715640	-0.389510
H53	H	-1.070772	-1.697317	-0.316826
H54	H	-0.621077	-1.707202	-1.029787
H55	H	-0.385643	-1.164441	-0.572643
N56	N	-0.575327	-1.136683	-0.358342
H57	H	-0.623767	-1.097566	-0.394625
H58	H	-0.617586	-1.193143	-0.310529
H59	H	-0.898315	-1.506491	-0.507295
