data_functionalizedCrystal
_audit_creation_method	'MofGen! by Chris Wilmer'
_symmetry_space_group_name_H-M	'P1'
_symmetry_Int_Tables_number	1
_symmetry_cell_setting	triclinic
loop_
_symmetry_equiv_pos_as_xyz
  x,y,z
_cell_length_a	12.759401
_cell_length_b	12.594516
_cell_length_c	12.759393
_cell_angle_alpha	89.971602
_cell_angle_beta	90.019676
_cell_angle_gamma	89.972842
loop_
_atom_site_label
_atom_site_type_symbol
_atom_site_fract_x
_atom_site_fract_y
_atom_site_fract_z
Zn1	Zn	1.606179	0.423679	0.594000
Zn2	Zn	2.106179	0.923679	1.094000
Zn3	Zn	1.606033	0.601695	0.418327
Zn4	Zn	2.106033	1.101695	0.918327
Zn5	Zn	1.430477	0.423732	0.418339
Zn6	Zn	1.930477	0.923732	0.918339
Zn7	Zn	1.430432	0.601617	0.593968
Zn8	Zn	1.930432	1.101617	1.093968
O9	O	1.518280	0.512680	0.506158
O10	O	2.018280	1.012680	1.006158
O11	O	1.753180	0.447303	0.570705
O12	O	2.253180	0.947303	1.070705
O13	O	1.582703	0.578142	0.271307
O14	O	2.082703	1.078142	0.771307
O15	O	1.453864	0.274779	0.441660
O16	O	1.953864	0.774779	0.941660
O17	O	1.753073	0.578091	0.441638
O18	O	2.253073	1.078091	0.941638
O19	O	1.582951	0.274740	0.570717
O20	O	2.082951	0.774740	1.070717
O21	O	1.453723	0.447394	0.271316
O22	O	1.953723	0.947394	0.771316
O23	O	1.283450	0.447318	0.441628
O24	O	1.783450	0.947318	0.941628
O25	O	1.453788	0.577958	0.740993
O26	O	1.953788	1.077958	1.240993
O27	O	1.283417	0.578010	0.570662
O28	O	1.783417	1.078010	1.070662
O29	O	1.582908	0.447228	0.741017
O30	O	2.082908	0.947228	1.241017
O31	O	1.582659	0.750630	0.441607
O32	O	2.082659	1.250630	0.941607
O33	O	1.453646	0.750573	0.570650
O34	O	1.953646	1.250573	1.070650
C35	C	1.245313	0.512662	0.506143
C36	C	1.745313	1.012662	1.006143
C37	C	1.128536	0.512680	0.506162
C38	C	1.628536	1.012680	1.006162
C39	C	1.073731	0.444702	0.573471
C40	C	1.573731	0.944702	1.073471
C41	C	0.964007	0.444713	0.573478
C42	C	1.464007	0.944713	1.073478
C43	C	0.963903	0.580689	0.438864
C44	C	1.463903	1.080689	0.938864
C45	C	1.073625	0.580672	0.438853
C46	C	1.573625	1.080672	0.938853
C47	C	1.518160	0.789221	0.506146
C48	C	2.018160	1.289221	1.006146
C49	C	1.518205	0.907527	0.506176
C50	C	2.018205	1.407527	1.006176
C51	C	1.448016	0.976788	0.576313
C52	C	1.948016	1.476788	1.076313
C53	C	1.422401	1.047656	0.480446
C54	C	1.922401	1.547656	0.980446
C55	C	1.543877	1.047457	0.602058
C56	C	2.043877	1.547457	1.102058
C57	C	1.492541	0.976837	0.410259
C58	C	1.992541	1.476837	0.910259
C59	C	1.614060	0.976632	0.531936
C60	C	2.114060	1.476632	1.031936
C61	C	1.588483	1.047469	0.436003
C62	C	2.088483	1.547469	0.936003
C63	C	1.792313	0.512700	0.506174
C64	C	2.292313	1.012700	1.006174
C65	C	1.909090	0.512708	0.506180
C66	C	2.409090	1.012708	1.006180
C67	C	1.518359	0.512578	0.780192
C68	C	2.018359	1.012578	1.280192
C69	C	1.518392	0.512535	0.896969
C70	C	2.018392	1.012535	1.396969
C71	C	1.518383	1.235060	0.506192
C72	C	2.018383	1.735060	1.006192
C73	C	1.518308	1.116754	0.506202
C74	C	2.018308	1.616754	1.006202
C75	C	1.518262	0.512705	0.233191
C76	C	2.018262	1.012705	0.733191
C77	C	1.518432	0.512449	0.116415
C78	C	2.018432	1.012449	0.616415
C79	C	1.585630	0.444452	0.951845
C80	C	2.085630	0.944452	1.451845
C81	C	1.585648	0.444407	1.061569
C82	C	2.085648	0.944407	1.561569
C83	C	1.451187	0.580534	1.061531
C84	C	1.951187	1.080534	1.561531
C85	C	1.451165	0.580574	0.951809
C86	C	1.951165	1.080574	1.451809
H87	H	0.919182	0.636046	0.384065
H88	H	1.419182	1.136046	0.884065
F89	F	1.657177	0.372036	0.893483
F90	F	2.157177	0.872036	1.393483
F91	F	1.464095	0.936463	0.304255
F92	F	1.964095	1.436463	0.804255
H93	H	1.565548	1.078478	0.683135
H94	H	2.065548	1.578478	1.183135
F95	F	1.657219	0.371951	1.119967
F96	F	2.157219	0.871951	1.619967
H97	H	1.396455	0.635932	1.106196
H98	H	1.896455	1.135932	1.606196
F99	F	1.666127	1.087779	0.358406
F100	F	2.166127	1.587779	0.858406
H101	H	1.118249	0.636029	0.384037
H102	H	1.618249	1.136029	0.884037
H103	H	0.919389	0.389356	0.628285
H104	H	1.419389	0.889356	1.128285
H105	H	1.388569	0.945752	0.635539
H106	H	1.888569	1.445752	1.135539
H107	H	1.118436	0.389335	0.628275
H108	H	1.618436	0.889335	1.128275
F109	F	1.316506	1.088431	0.451972
F110	F	1.816506	1.588431	0.951972
F111	F	1.719927	0.935825	0.560445
F112	F	2.219927	1.435825	1.060445
H113	H	1.396404	0.636014	0.907128
H114	H	1.896404	1.136014	1.407128
