data_functionalizedCrystal
_audit_creation_method	'MofGen! by Chris Wilmer'
_symmetry_space_group_name_H-M	'P1'
_symmetry_Int_Tables_number	1
_symmetry_cell_setting	triclinic
loop_
_symmetry_equiv_pos_as_xyz
  x,y,z
_cell_length_a	12.759401
_cell_length_b	13.032721
_cell_length_c	12.759393
_cell_angle_alpha	82.851041
_cell_angle_beta	90.018364
_cell_angle_gamma	97.204304
loop_
_atom_site_label
_atom_site_type_symbol
_atom_site_fract_x
_atom_site_fract_y
_atom_site_fract_z
Zn1	Zn	1.553095	-0.415981	0.647065
Zn2	Zn	1.530654	-0.590760	0.493689
Zn3	Zn	1.377391	-0.416033	0.471411
Zn4	Zn	1.355060	-0.590683	0.669321
O5	O	1.454050	-0.503364	0.570372
O6	O	1.697138	-0.439176	0.626729
O7	O	1.510277	-0.567636	0.343720
O8	O	1.419435	-0.269788	0.476075
O9	O	1.680651	-0.567586	0.514044
O10	O	1.548524	-0.269750	0.605127
O11	O	1.397675	-0.439265	0.327352
O12	O	1.227409	-0.439189	0.497655
O13	O	1.381376	-0.567454	0.813383
O14	O	1.211002	-0.567504	0.643058
O15	O	1.526871	-0.439101	0.797032
O16	O	1.488624	-0.736987	0.535625
O17	O	1.359616	-0.736930	0.664660
C18	C	1.181085	-0.503345	0.570355
C19	C	1.064306	-0.503362	0.570376
C20	C	1.000915	-0.570282	0.645990
C21	C	0.891189	-0.570295	0.646003
C22	C	0.908256	-0.436465	0.494779
C23	C	1.017980	-0.436447	0.494771
C24	C	0.991061	-0.647551	0.733295
C25	C	0.881335	-0.647565	0.733308
C26	C	1.419290	-0.774876	0.604998
C27	C	1.404516	-0.891031	0.619846
C28	C	1.461816	-0.942809	0.562669
C29	C	1.446548	-1.062861	0.578014
C30	C	1.728080	-0.503384	0.570389
C31	C	1.844856	-0.503393	0.570397
C32	C	1.454136	-0.503263	0.844392
C33	C	1.454172	-0.503220	0.961163
C34	C	1.488974	-0.230791	0.535633
C35	C	1.503856	-0.114637	0.520830
C36	C	1.454034	-0.503389	0.297407
C37	C	1.454239	-0.503138	0.180599
C38	C	1.529971	-0.436330	1.117231
C39	C	1.529941	-0.436374	1.007512
C40	C	1.378436	-0.570035	1.024540
C41	C	1.378472	-0.569996	1.134258
C42	C	1.617438	-0.359159	1.107399
C43	C	1.617408	-0.359203	0.997680
H44	H	1.015255	-0.724391	0.713817
C45	C	1.322973	-0.951196	0.701327
H46	H	1.289009	-0.903143	0.735215
H47	H	1.271834	-0.993848	0.666515
H48	H	1.357780	-0.993702	0.752538
C49	C	1.365001	-1.123027	0.659497
H50	H	1.365431	-1.195822	0.659117
H51	H	1.382596	-1.105124	0.727828
H52	H	1.296657	-1.105265	0.641797
H53	H	0.870523	-0.381985	0.433225
H54	H	1.696041	-0.380827	1.139939
C55	C	1.585382	-1.054473	0.439325
H56	H	1.584937	-0.981678	0.439687
H57	H	1.653730	-1.072228	0.456991
H58	H	1.567753	-1.072387	0.370999
C59	C	0.840385	-0.608542	0.832818
H60	H	0.898075	-0.591161	0.877128
H61	H	0.806144	-0.548596	0.812794
H62	H	0.791680	-0.661806	0.869933
C63	C	1.295172	-0.643489	1.203960
H64	H	1.250040	-0.683303	1.160643
H65	H	1.329544	-0.689005	1.252566
H66	H	1.254524	-0.603492	1.241661
H67	H	1.023627	-0.625969	0.811948
C68	C	1.087707	-0.362832	0.411599
H69	H	1.044398	-0.322994	0.366568
H70	H	1.136345	-0.317344	0.446060
H71	H	1.125383	-0.402752	0.370837
C72	C	1.295094	-0.643566	0.973560
H73	H	1.305914	-0.634018	0.899140
H74	H	1.301477	-0.713775	1.000491
H75	H	1.226467	-0.628252	0.989585
H76	H	0.841199	-0.728480	0.721702
H77	H	1.522182	-0.898264	0.502361
H78	H	1.598148	-0.282266	1.131631
H79	H	1.690978	-0.388214	0.967351
H80	H	1.605974	-0.278275	0.957587
