data_functionalizedCrystal
_audit_creation_method	'MofGen! by Chris Wilmer'
_symmetry_space_group_name_H-M	'P1'
_symmetry_Int_Tables_number	1
_symmetry_cell_setting	triclinic
loop_
_symmetry_equiv_pos_as_xyz
  x,y,z
_cell_length_a	19.121063
_cell_length_b	17.077404
_cell_length_c	17.077396
_cell_angle_alpha	89.980499
_cell_angle_beta	87.591200
_cell_angle_gamma	87.530787
loop_
_atom_site_label
_atom_site_type_symbol
_atom_site_fract_x
_atom_site_fract_y
_atom_site_fract_z
Zn1	Zn	-0.279610	-1.186697	0.457152
Zn2	Zn	0.220390	-0.686697	0.957152
Zn3	Zn	-0.397067	-1.180993	0.331476
Zn4	Zn	0.102933	-0.680993	0.831476
Zn5	Zn	-0.279634	-1.055428	0.325901
Zn6	Zn	0.220366	-0.555428	0.825901
Zn7	Zn	-0.397025	-1.049788	0.462698
Zn8	Zn	0.102975	-0.549788	0.962698
O9	O	-0.338334	-1.118227	0.394307
O10	O	0.161666	-0.618227	0.894307
O11	O	-0.295198	-1.295787	0.440493
O12	O	0.204802	-0.795787	0.940493
O13	O	-0.381517	-1.164310	0.220891
O14	O	0.118483	-0.664310	0.720891
O15	O	-0.181347	-1.077589	0.338657
O16	O	0.318653	-0.577589	0.838657
O17	O	-0.381493	-1.291597	0.348160
O18	O	0.118507	-0.791597	0.848160
O19	O	-0.181328	-1.174032	0.435086
O20	O	0.318672	-0.674032	0.935086
O21	O	-0.295240	-1.072058	0.216795
O22	O	0.204760	-0.572058	0.716795
O23	O	-0.295199	-0.944833	0.344035
O24	O	0.204801	-0.444833	0.844035
O25	O	-0.381422	-1.067976	0.571808
O26	O	0.118578	-0.567976	1.071808
O27	O	-0.381446	-0.940690	0.444539
O28	O	0.118554	-0.440690	0.944539
O29	O	-0.295157	-1.168563	0.567733
O30	O	0.204843	-0.668563	1.067733
O31	O	-0.495346	-1.158841	0.353538
O32	O	0.004654	-0.658841	0.853538
O33	O	-0.495315	-1.062445	0.449946
O34	O	0.004685	-0.562445	0.949946
C35	C	-0.338321	-0.914279	0.394284
C36	C	0.161679	-0.414279	0.894284
C37	C	-0.338333	-0.827029	0.394294
C38	C	0.161667	-0.327029	0.894294
C39	C	-0.520815	-1.109434	0.402966
C40	C	-0.020815	-0.609434	0.902966
C41	C	-0.598881	-1.105744	0.406696
C42	C	-0.098881	-0.605744	0.906696
C43	C	-0.338282	-1.118277	0.599049
C44	C	0.161718	-0.618277	1.099049
C45	C	-0.338260	-1.118298	0.686297
C46	C	0.161740	-0.618298	1.186297
C47	C	-0.635549	-1.154237	0.358296
C48	C	-0.135549	-0.654237	0.858296
C49	C	-0.708900	-1.150772	0.361809
C50	C	-0.208900	-0.650772	0.861809
C51	C	-0.745582	-1.098808	0.413719
C52	C	-0.245582	-0.598808	0.913719
C53	C	-0.708908	-1.050312	0.462125
C54	C	-0.208908	-0.550312	0.962125
C55	C	-0.635558	-1.053782	0.458615
C56	C	-0.135558	-0.553782	0.958615
C57	C	-0.967052	-1.085821	0.426830
C58	C	-0.467052	-0.585821	0.926830
C59	C	-1.040407	-1.082353	0.430334
C60	C	-0.540407	-0.582353	0.930334
C61	C	-1.040393	-1.182814	0.330019
C62	C	-0.540393	-0.682814	0.830019
C63	C	-0.967042	-1.186276	0.326511
C64	C	-0.467042	-0.686276	0.826511
C65	C	-0.930375	-1.137783	0.374919
C66	C	-0.430375	-0.637783	0.874919
C67	C	-0.820559	-1.095262	0.417310
C68	C	-0.320559	-0.595262	0.917310
C69	C	-0.855399	-1.141333	0.371332
C70	C	-0.355399	-0.641333	0.871332
C71	C	-0.155141	-1.127075	0.385631
C72	C	0.344859	-0.627075	0.885631
C73	C	-0.077075	-1.130846	0.381934
C74	C	0.422925	-0.630846	0.881934
C75	C	-0.338347	-1.322970	0.394329
C76	C	0.161653	-0.822970	0.894329
C77	C	-0.338353	-1.410220	0.394339
C78	C	0.161647	-0.910220	0.894339
C79	C	-0.383309	-0.783899	0.446550
C80	C	0.116691	-0.283899	0.946550
C81	C	-0.383311	-0.701918	0.446562
C82	C	0.116689	-0.201918	0.946562
C83	C	-0.338339	-0.663069	0.394315
C84	C	0.161661	-0.163069	0.894315
C85	C	-0.293358	-0.706206	0.342057
C86	C	0.206642	-0.206206	0.842057
C87	C	-0.293353	-0.788185	0.342049
C88	C	0.206647	-0.288185	0.842049
C89	C	-0.293371	-0.535335	0.342077
C90	C	0.206629	-0.035335	0.842077
C91	C	-0.293377	-0.453350	0.342084
C92	C	0.206623	0.046650	0.842084
C93	C	-0.383329	-0.449068	0.446590
C94	C	0.116671	0.050932	0.946590
C95	C	-0.383324	-0.531047	0.446582
C96	C	0.116676	-0.031047	0.946582
C97	C	-0.338344	-0.574178	0.394323
C98	C	0.161656	-0.074178	0.894323
C99	C	-0.338335	-1.118224	0.190359
C100	C	0.161665	-0.618224	0.690359
C101	C	-0.338159	-1.118365	0.103101
C102	C	0.161841	-0.618365	0.603101
C103	C	-0.293338	-1.170675	0.725167
C104	C	0.206662	-0.670675	1.225167
C105	C	-0.293315	-1.170686	0.807146
C106	C	0.206685	-0.670686	1.307146
C107	C	-0.338217	-1.118322	0.850255
C108	C	0.161783	-0.618322	1.350255
C109	C	-0.383141	-1.065939	0.811380
C110	C	0.116859	-0.565939	1.311380
C111	C	-0.383160	-1.065925	0.729402
C112	C	0.116840	-0.565925	1.229402
C113	C	-0.383099	-1.065973	0.982248
C114	C	0.116901	-0.565973	1.482248
C115	C	-0.383081	-1.065987	1.064232
C116	C	0.116919	-0.565987	1.564232
C117	C	-0.293254	-1.170733	1.059992
C118	C	0.206746	-0.670733	1.559992
C119	C	-0.293273	-1.170720	0.978014
C120	C	0.206727	-0.670720	1.478014
C121	C	-0.338198	-1.118337	0.939145
C122	C	0.161802	-0.618337	1.439145
H123	H	-0.605687	-1.196548	0.316022
H124	H	-0.105687	-0.696548	0.816022
H125	H	-1.070271	-1.040047	0.472619
H126	H	-0.570271	-0.540047	0.972619
H127	H	-0.256776	-1.213318	0.690074
H128	H	0.243224	-0.713318	1.190074
H129	H	-0.937177	-1.228589	0.284241
H130	H	-0.437177	-0.728589	0.784241
H131	H	-0.256738	-0.674569	0.299520
H132	H	0.243262	-0.174569	0.799520
H133	H	-1.070255	-1.222295	0.290609
H134	H	-0.570255	-0.722295	0.790609
H135	H	-0.419699	-1.023301	0.846485
H136	H	0.080301	-0.523301	1.346485
H137	H	-0.256725	-0.823301	0.299501
H138	H	0.243275	-0.323301	0.799501
H139	H	-0.605704	-1.014295	0.498029
H140	H	-0.105704	-0.514295	0.998029
H141	H	-0.256737	-1.213339	0.838790
H142	H	0.243263	-0.713339	1.338790
H143	H	-0.825531	-1.183645	0.329069
H144	H	-0.325531	-0.683645	0.829069
H145	H	-0.419733	-1.023267	0.697755
H146	H	0.080267	-0.523267	1.197755
H147	H	-0.419935	-0.666805	0.489113
H148	H	0.080065	-0.166805	0.989113
H149	H	-0.256713	-1.213363	0.942917
H150	H	0.243287	-0.713363	1.442917
H151	H	-0.419948	-0.562675	0.489122
H152	H	0.080052	-0.062675	0.989122
H153	H	-0.256673	-1.213384	1.091644
H154	H	0.243327	-0.713384	1.591644
H155	H	-0.419643	-1.023346	1.099329
H156	H	0.080357	-0.523346	1.599329
H157	H	-0.937203	-1.046335	0.466244
H158	H	-0.437203	-0.546335	0.966244
H159	H	-0.256737	-0.570450	0.299529
H160	H	0.243263	-0.070450	0.799529
H161	H	-0.419952	-0.413947	0.489143
H162	H	0.080048	0.086053	0.989143
H163	H	-0.738781	-1.008005	0.504395
H164	H	-0.238781	-0.508005	1.004395
H165	H	-0.738752	-1.190260	0.322396
H166	H	-0.238752	-0.690260	0.822396
H167	H	-0.850433	-1.052952	0.459574
H168	H	-0.350433	-0.552952	0.959574
H169	H	-0.256748	-0.421722	0.299549
H170	H	0.243252	0.078278	0.799549
H171	H	-0.419933	-0.815523	0.489093
H172	H	0.080067	-0.315523	0.989093
H173	H	-0.419670	-1.023306	0.950603
H174	H	0.080330	-0.523306	1.450603
