data_functionalizedCrystal
_audit_creation_method	'MofGen! by Chris Wilmer'
_symmetry_space_group_name_H-M	'P1'
_symmetry_Int_Tables_number	1
_symmetry_cell_setting	triclinic
loop_
_symmetry_equiv_pos_as_xyz
  x,y,z
_cell_length_a	11.792241
_cell_length_b	11.792254
_cell_length_c	9.798715
_cell_angle_alpha	89.996677
_cell_angle_beta	90.000512
_cell_angle_gamma	84.196007
loop_
_atom_site_label
_atom_site_type_symbol
_atom_site_fract_x
_atom_site_fract_y
_atom_site_fract_z
O1	O	1.506915	0.155564	-0.113359
O2	O	1.176574	0.171597	-0.113391
O3	O	1.349754	-0.001589	-0.113365
O4	O	1.333736	0.328750	-0.113385
O5	O	1.349741	-0.001589	0.113618
O6	O	1.176561	0.171597	0.113591
O7	O	1.506902	0.155564	0.113623
Zn8	Zn	1.341730	0.163580	0.149645
Zn9	Zn	1.341747	0.163581	-0.149413
O10	O	1.333723	0.328750	0.113597
C11	C	1.134277	0.170590	0.000096
C12	C	1.008263	0.167576	0.000084
C13	C	1.348738	-0.043880	0.000126
C14	C	1.345718	-0.169893	0.000124
C15	C	1.343264	-0.272229	0.000119
C16	C	1.340196	-0.400616	0.000106
C17	C	0.777551	0.162033	0.000124
C18	C	0.905936	0.165112	0.000102
C19	C	1.549199	0.156571	0.000133
C20	C	1.675213	0.159586	0.000136
C21	C	1.334738	0.371041	0.000103
C22	C	1.337758	0.497054	0.000096
N23	N	1.341726	0.163579	0.353745
N24	N	1.341759	0.163573	-0.353513
C25	C	1.414440	0.090544	0.421533
C26	C	1.414458	0.090540	0.578696
H27	H	1.476677	0.028013	0.363220
N28	N	1.259281	0.246397	0.569287
H29	H	1.210767	0.295133	0.636127
H30	H	1.303229	0.296689	0.509989
N31	N	1.496933	0.007715	0.655900
H32	H	1.485258	0.019454	0.757227
H33	H	1.483116	-0.072852	0.631004
N34	N	1.259277	0.246401	0.430983
H35	H	1.273046	0.327007	0.406184
H36	H	1.178600	0.232934	0.406167
