data_functionalizedCrystal
_audit_creation_method	'MofGen! by Chris Wilmer'
_symmetry_space_group_name_H-M	'P1'
_symmetry_Int_Tables_number	1
_symmetry_cell_setting	triclinic
loop_
_symmetry_equiv_pos_as_xyz
  x,y,z
_cell_length_a	12.759395
_cell_length_b	12.759399
_cell_length_c	12.759393
_cell_angle_alpha	89.969094
_cell_angle_beta	89.979644
_cell_angle_gamma	90.016653
loop_
_atom_site_label
_atom_site_type_symbol
_atom_site_fract_x
_atom_site_fract_y
_atom_site_fract_z
Zn1	Zn	-1.606264	0.418172	0.594001
Zn2	Zn	-1.606154	0.593888	0.418320
Zn3	Zn	-1.430563	0.418228	0.418338
Zn4	Zn	-1.430553	0.593815	0.593959
O5	O	-1.518383	0.506026	0.506154
O6	O	-1.753271	0.441489	0.570706
O7	O	-1.582819	0.570640	0.271301
O8	O	-1.453920	0.271200	0.441665
O9	O	-1.753190	0.570586	0.441634
O10	O	-1.583007	0.271159	0.570724
O11	O	-1.453813	0.441584	0.271314
O12	O	-1.283540	0.441513	0.441624
O13	O	-1.453904	0.570461	0.740985
O14	O	-1.283533	0.570515	0.570652
O15	O	-1.582998	0.441418	0.741016
O16	O	-1.582810	0.740899	0.441593
O17	O	-1.453797	0.740845	0.570635
C18	C	-1.245416	0.506013	0.506136
C19	C	-1.128639	0.506033	0.506153
C20	C	-1.518319	0.778993	0.506130
C21	C	-1.518388	0.895770	0.506155
C22	C	-1.792417	0.506039	0.506173
C23	C	-1.909194	0.506045	0.506181
C24	C	-1.128671	0.640580	0.640293
C25	C	-1.073826	0.707862	0.707365
C26	C	-0.964104	0.707875	0.707378
C27	C	-0.909225	0.640596	0.640314
C28	C	-0.964070	0.573314	0.573241
C29	C	-1.073794	0.573311	0.573233
C30	C	-0.964039	0.438763	0.439108
C31	C	-1.073760	0.438754	0.439088
C32	C	-0.909160	0.371484	0.372043
C33	C	-0.964005	0.304206	0.304964
C34	C	-1.073733	0.304197	0.304953
C35	C	-1.128605	0.371472	0.372016
C36	C	-1.518462	0.505925	0.780188
C37	C	-1.518496	0.505882	0.896964
C38	C	-1.518477	0.231993	0.506201
C39	C	-1.518517	0.115216	0.506221
C40	C	-1.585641	0.950625	0.439040
C41	C	-1.585709	1.060349	0.439075
C42	C	-1.451260	1.060353	0.573344
C43	C	-1.451198	0.950631	0.573313
C44	C	-1.518366	0.506050	0.233187
C45	C	-1.518536	0.505797	0.116411
C46	C	-1.585720	0.438678	0.951844
C47	C	-1.585738	0.438633	1.061568
C48	C	-1.451304	0.573004	1.061523
C49	C	-1.451282	0.573043	0.951801
H50	H	-1.218012	0.640585	0.640281
H51	H	-1.640475	1.105007	0.384425
O52	O	-1.385957	1.113485	0.638672
C53	C	-1.252551	1.101907	0.771800
C54	C	-1.326473	1.041609	0.697888
H55	H	-1.204423	1.043822	0.819680
H56	H	-1.300736	1.153162	0.826861
H57	H	-1.197713	1.153390	0.723515
H58	H	-1.381326	0.990069	0.746088
H59	H	-1.278222	0.990420	0.642824
O60	O	-0.910934	0.773174	0.772680
C61	C	-0.877363	0.824344	0.951307
C62	C	-0.937663	0.750350	0.877471
H63	H	-0.898934	0.805902	1.036047
H64	H	-0.898923	0.909056	0.932797
H65	H	-0.789523	0.812804	0.939735
H66	H	-1.025517	0.761796	0.889002
H67	H	-0.916016	0.665665	0.895999
O68	O	-1.127298	0.773183	0.772408
C69	C	-1.296344	0.832763	0.831883
C70	C	-1.235924	0.758755	0.758151
H71	H	-1.384179	0.821109	0.820397
H72	H	-1.274821	0.917480	0.813276
H73	H	-1.274751	0.814438	0.916624
H74	H	-1.257485	0.776986	0.673385
H75	H	-1.257452	0.674061	0.776847
H76	H	-0.819884	0.640604	0.640339
H77	H	-1.640447	0.383988	0.907199
H78	H	-1.396432	0.905965	0.627972
O79	O	-1.651141	0.373320	1.114716
C80	C	-1.784437	0.240006	1.103174
C81	C	-1.710437	0.313941	1.042855
H82	H	-1.832382	0.191963	1.045101
H83	H	-1.839433	0.288176	1.154517
H84	H	-1.736216	0.185090	1.154571
H85	H	-1.758573	0.368872	0.991401
H86	H	-1.655438	0.265706	0.991578
H87	H	-1.640352	0.905959	0.384357
O88	O	-1.386173	0.638359	1.114842
C89	C	-1.372012	0.780117	1.238741
C90	C	-1.445892	0.706183	1.178408
H91	H	-1.420264	0.834957	1.290166
H92	H	-1.323976	0.828233	1.180715
H93	H	-1.317086	0.731837	1.290066
H94	H	-1.500882	0.754382	1.127082
H95	H	-1.493854	0.658064	1.236491
H96	H	-1.396532	0.627768	0.907117
H97	H	-0.919314	0.249428	0.250370
O98	O	-0.802577	0.371329	0.372148
C99	C	-0.645146	0.270648	0.399271
C100	C	-0.765850	0.270682	0.399221
H101	H	-0.615415	0.189278	0.421135
H102	H	-0.615315	0.330233	0.458759
H103	H	-0.615346	0.292398	0.317871
H104	H	-0.795738	0.248905	0.480576
H105	H	-0.795609	0.211118	0.339676
H106	H	-1.118381	0.249400	0.250341
H107	H	-1.217947	0.371474	0.372010
