data_functionalizedCrystal
_audit_creation_method	'MofGen! by Chris Wilmer'
_symmetry_space_group_name_H-M	'P1'
_symmetry_Int_Tables_number	1
_symmetry_cell_setting	triclinic
loop_
_symmetry_equiv_pos_as_xyz
  x,y,z
_cell_length_a	11.169417
_cell_length_b	18.101397
_cell_length_c	11.169409
_cell_angle_alpha	90.039881
_cell_angle_beta	90.019824
_cell_angle_gamma	90.021344
loop_
_atom_site_label
_atom_site_type_symbol
_atom_site_fract_x
_atom_site_fract_y
_atom_site_fract_z
Zn1	Zn	1.834878	-0.294752	0.678480
Zn2	Zn	1.834732	-0.418619	0.477770
Zn3	Zn	1.634164	-0.294797	0.477814
Zn4	Zn	1.634136	-0.418558	0.678415
O5	O	1.734477	-0.356682	0.578120
O6	O	2.002808	-0.311190	0.651864
O7	O	1.808077	-0.402238	0.309826
O8	O	1.660862	-0.191159	0.504478
O9	O	2.002701	-0.402194	0.504404
O10	O	1.808326	-0.191125	0.651907
O11	O	1.660720	-0.311267	0.309859
O12	O	1.466210	-0.311208	0.504416
O13	O	1.660814	-0.402091	0.846374
O14	O	1.466190	-0.402135	0.651796
O15	O	1.808298	-0.311131	0.846421
O16	O	1.808049	-0.522244	0.504341
O17	O	1.660672	-0.522199	0.651754
C18	C	1.422653	-0.356670	0.578104
C19	C	1.289253	-0.356683	0.578126
C20	C	1.734375	-0.549092	0.578062
C21	C	1.734440	-0.631406	0.578077
C22	C	1.734594	-0.930497	0.578186
C23	C	1.827061	-0.899169	0.485190
C24	C	1.827381	-0.813551	0.485431
C25	C	1.734518	-0.782115	0.578131
C26	C	1.768813	-0.813109	0.704636
C27	C	1.769528	-0.898754	0.704129
C28	C	1.607585	-0.899011	0.545773
C29	C	1.608212	-0.813361	0.542949
C30	C	1.734473	-0.698255	0.578108
C31	C	1.734642	-1.014357	0.578218
C32	C	2.047520	-0.356693	0.578136
C33	C	2.180920	-0.356699	0.578143
C34	C	1.734569	-0.356599	0.891162
C35	C	1.734609	-0.356564	1.024563
C36	C	1.734613	-0.163520	0.578205
C37	C	1.734671	-0.081206	0.578241
C38	C	1.734455	-0.356710	0.266295
C39	C	1.734648	-0.356537	0.132896
H40	H	1.805924	-0.792599	0.391629
O41	O	1.939697	-0.789123	0.510881
C42	C	2.020088	-0.815368	0.423357
H43	H	1.981279	-0.866868	0.379159
H44	H	2.034781	-0.770841	0.352732
C45	C	2.188148	-0.771363	0.537142
C46	C	2.140486	-0.834620	0.482865
H47	H	2.262417	-0.783235	0.573847
H48	H	2.133988	-0.753678	0.596108
H49	H	2.200381	-0.734263	0.478279
H50	H	2.128240	-0.871714	0.541730
H51	H	2.194647	-0.852311	0.423910
O52	O	1.570160	-0.924810	0.437671
C53	C	1.456197	-0.895543	0.411335
H54	H	1.409839	-0.878726	0.498080
H55	H	1.466472	-0.845097	0.351153
C56	C	1.437389	-0.975089	0.240146
C57	C	1.380447	-0.954440	0.346688
H58	H	1.390664	-1.011418	0.200263
H59	H	1.514170	-0.994805	0.257885
H60	H	1.445948	-0.933045	0.190008
H61	H	1.371903	-0.996482	0.396830
H62	H	1.303663	-0.934732	0.328956
O63	O	1.878236	-0.787372	0.738094
C64	C	1.867309	-0.746753	0.845287
H65	H	1.771372	-0.726143	0.855024
H66	H	1.890684	-0.783704	0.924528
C67	C	2.071222	-0.705624	0.830225
C68	C	1.953393	-0.680305	0.842179
H69	H	2.124326	-0.664637	0.828312
H70	H	2.078586	-0.732992	0.758010
H71	H	2.090684	-0.736417	0.896262
H72	H	1.933928	-0.649520	0.776136
H73	H	1.946028	-0.652930	0.914384
H74	H	1.862366	-0.918669	0.731587
O75	O	1.801645	-0.923898	0.373030
C76	C	1.699806	-0.969879	0.376949
H77	H	1.688894	-0.993122	0.471149
H78	H	1.616970	-0.936423	0.352198
C79	C	1.728603	-1.005357	0.171718
C80	C	1.715207	-1.033909	0.287413
H81	H	1.738099	-1.044852	0.116485
H82	H	1.797211	-0.974377	0.169075
H83	H	1.659570	-0.977477	0.151108
H84	H	1.784245	-1.061780	0.308026
H85	H	1.646610	-1.064896	0.290057
H86	H	1.920627	-0.920634	0.506389
H87	H	1.582353	-0.793113	0.449852
O88	O	1.690989	-0.788925	0.789664
C89	C	1.724390	-0.817760	0.902045
H90	H	1.779854	-0.869957	0.888539
H91	H	1.779726	-0.775008	0.952693
C92	C	1.543080	-0.772388	0.991217
C93	C	1.611193	-0.836501	0.974629
H94	H	1.473257	-0.783945	1.035994
H95	H	1.520579	-0.752959	0.915506
H96	H	1.589207	-0.736768	1.033420
H97	H	1.565072	-0.872116	0.932415
H98	H	1.633684	-0.855936	1.050336
O99	O	1.692833	-0.923571	0.789681
C100	C	1.756261	-0.966614	0.873571
H101	H	1.841432	-0.988831	0.830400
H102	H	1.780735	-0.931053	0.954233
C103	C	1.572824	-1.004373	0.967584
C104	C	1.677428	-1.031666	0.914558
H105	H	1.524196	-1.044498	0.992872
H106	H	1.530091	-0.975372	0.911069
H107	H	1.593235	-0.974739	1.034795
H108	H	1.657017	-1.061292	0.847340
H109	H	1.720157	-1.060674	0.971063
O110	O	1.521669	-0.787926	0.617994
C111	C	1.547944	-0.809956	0.736168
H112	H	1.608578	-0.860587	0.734183
H113	H	1.595276	-0.762978	0.785063
C114	C	1.356327	-0.766900	0.804325
C115	C	1.430791	-0.829090	0.801887
H116	H	1.284062	-0.778700	0.844867
H117	H	1.338626	-0.752055	0.724711
H118	H	1.395784	-0.727758	0.845069
H119	H	1.391339	-0.868228	0.761131
H120	H	1.448483	-0.843942	0.881497
O121	O	1.525534	-0.923263	0.626654
C122	C	1.582552	-0.968438	0.712183
H123	H	1.668620	-0.991821	0.672554
H124	H	1.604744	-0.934263	0.795048
C125	C	1.392883	-1.003643	0.795877
C126	C	1.498588	-1.032367	0.747201
H127	H	1.341090	-1.043075	0.817483
H128	H	1.354468	-0.973206	0.738258
H129	H	1.411392	-0.975164	0.864926
H130	H	1.480080	-1.060837	0.678146
H131	H	1.536998	-1.062810	0.804810
