data_functionalizedCrystal
_audit_creation_method	'MofGen! by Chris Wilmer'
_symmetry_space_group_name_H-M	'P1'
_symmetry_Int_Tables_number	1
_symmetry_cell_setting	triclinic
loop_
_symmetry_equiv_pos_as_xyz
  x,y,z
_cell_length_a	17.038272
_cell_length_b	14.044220
_cell_length_c	13.101039
_cell_angle_alpha	93.667477
_cell_angle_beta	86.404528
_cell_angle_gamma	92.150217
loop_
_atom_site_label
_atom_site_type_symbol
_atom_site_fract_x
_atom_site_fract_y
_atom_site_fract_z
O1	O	1.055801	0.202095	-0.085089
O2	O	0.827941	0.198806	-0.085119
O3	O	0.938450	0.062191	-0.085095
O4	O	0.945292	0.338710	-0.085114
O5	O	0.930523	0.072010	0.085333
O6	O	0.820014	0.208625	0.085309
O7	O	1.047873	0.211914	0.085339
Zn8	Zn	0.932685	0.211829	0.112383
Zn9	Zn	0.943130	0.198891	-0.112163
O10	O	0.937364	0.348530	0.085314
C11	C	0.931492	0.031544	0.000119
C12	C	0.922561	-0.074402	0.000119
C13	C	0.794640	0.200726	0.000091
C14	C	0.707224	0.191806	0.000080
C15	C	0.906233	-0.268381	0.000103
C16	C	0.969578	-0.320905	0.000108
C17	C	0.960493	-0.428842	0.000098
C18	C	0.915317	-0.160434	0.000112
C19	C	0.662839	0.273694	0.000075
C20	C	0.580701	0.265309	0.000090
C21	C	0.542950	0.175034	0.000102
C22	C	0.587341	0.093140	0.000110
C23	C	0.669477	0.101527	0.000102
C24	C	0.295118	0.145406	0.000131
C25	C	0.212976	0.137025	0.000136
C26	C	0.206341	0.309195	0.000117
C27	C	0.288480	0.317573	0.000104
C28	C	0.332863	0.235680	0.000117
C29	C	0.458992	0.166461	0.000114
C30	C	0.416819	0.244254	0.000113
C31	C	1.081174	0.209994	0.000126
C32	C	1.168591	0.218913	0.000131
C33	C	0.944322	0.379176	0.000098
C34	C	0.953254	0.485121	0.000091
N35	N	0.925562	0.220658	0.265630
N36	N	0.950258	0.190055	-0.265410
C37	C	0.915872	0.232680	0.474670
C38	C	0.959946	0.178037	0.525556
C39	C	0.954554	0.184725	0.641873
C40	C	0.921263	0.225992	0.358342
H41	H	1.030636	-0.284815	0.000047
Br42	Br	0.520466	0.376448	0.000079
H43	H	0.705615	0.034845	0.000106
Br44	Br	0.714064	0.396215	0.000047
H45	H	0.845184	-0.304474	0.000092
Br46	Br	0.339708	0.440093	0.000075
Br47	Br	0.146103	0.420330	0.000100
Br48	Br	0.161742	0.014503	0.000174
Br49	Br	1.029947	0.092120	0.452572
Br50	Br	0.355343	0.034264	0.000152
Br51	Br	0.536109	-0.029376	0.000137
H52	H	0.447559	0.317756	0.000108
Br53	Br	0.846235	0.319022	0.547654
H54	H	0.428245	0.092960	0.000153
