data_functionalizedCrystal
_audit_creation_method	'MofGen! by Chris Wilmer'
_symmetry_space_group_name_H-M	'P1'
_symmetry_Int_Tables_number	1
_symmetry_cell_setting	triclinic
loop_
_symmetry_equiv_pos_as_xyz
  x,y,z
_cell_length_a	13.339070
_cell_length_b	13.330367
_cell_length_c	13.262508
_cell_angle_alpha	74.086302
_cell_angle_beta	99.430496
_cell_angle_gamma	90.007766
loop_
_atom_site_label
_atom_site_type_symbol
_atom_site_fract_x
_atom_site_fract_y
_atom_site_fract_z
O1	O	1.344488	-0.060294	0.526821
O2	O	1.049672	-0.041431	0.457673
O3	O	1.204502	-0.009767	0.341620
O4	O	1.189659	-0.091958	0.642874
O5	O	1.204480	-0.176612	0.341610
O6	O	1.049650	-0.208276	0.457663
O7	O	1.344466	-0.227138	0.526811
Cu8	Cu	1.197056	-0.232941	0.492236
Cu9	Cu	1.197082	-0.035628	0.492248
O10	O	1.189636	-0.258802	0.642864
C11	C	1.011923	-0.121667	0.445987
C12	C	0.899476	-0.112169	0.411171
N13	N	1.197044	-0.371721	0.492229
C14	C	0.535814	-0.186012	0.681888
C15	C	0.641463	-0.194934	0.714603
C16	C	0.705972	-0.174244	0.638748
C17	C	0.664820	-0.144630	0.530172
C18	C	0.559160	-0.135699	0.497453
C19	C	0.729318	-0.123931	0.454313
C20	C	0.688167	-0.094317	0.345736
C21	C	0.582517	-0.085389	0.313023
C22	C	0.518009	-0.106079	0.388879
C23	C	0.834978	-0.132861	0.487032
C24	C	0.858324	-0.082549	0.302596
C25	C	0.752675	-0.073627	0.269881
C26	C	1.128521	-0.858362	0.543607
C27	C	1.265671	-0.830304	0.440889
C28	C	1.265660	-0.725284	0.440882
C29	C	1.197079	-0.686798	0.492240
C30	C	1.128509	-0.753333	0.543605
C31	C	1.334235	-0.658744	0.389527
C32	C	1.334227	-0.553717	0.389520
C33	C	1.265640	-0.515228	0.440872
C34	C	1.197067	-0.581770	0.492238
C35	C	1.128486	-0.543284	0.543596
C36	C	1.059907	-0.609822	0.594956
C37	C	1.059922	-0.714844	0.594957
C38	C	1.265625	-0.410206	0.440871
C39	C	1.128475	-0.438255	0.543594
C40	C	1.382215	-0.146900	0.538497
C41	C	1.494662	-0.156392	0.573314
C42	C	1.203661	-0.082453	0.302270
C43	C	1.201175	-0.050461	0.185032
N44	N	1.197102	0.103153	0.492249
C45	C	1.194115	-0.324079	-0.145481
C46	C	1.196442	-0.354138	-0.035331
C47	C	1.197626	-0.278221	0.019765
C48	C	1.196481	-0.172240	-0.035300
C49	C	1.194146	-0.142178	-0.145462
C50	C	1.197657	-0.096320	0.019784
C51	C	1.196512	0.009660	-0.035281
C52	C	1.194178	0.039717	-0.145432
C53	C	1.192994	-0.036199	-0.200528
C54	C	1.199992	-0.126383	0.129947
C55	C	1.200024	0.055518	0.129966
C56	C	1.197696	0.085577	0.019815
C57	C	1.190477	-0.186114	0.682214
C58	C	1.192963	-0.218100	0.799452
H59	H	0.868472	-0.156977	0.575435
Cl60	Cl	0.530786	-0.048126	0.176527
H61	H	1.200980	0.117336	0.174823
H62	H	1.321466	-0.356038	0.399060
H63	H	0.791995	-0.181507	0.665392
H64	H	1.072682	-0.912538	0.585420
H65	H	1.321513	-0.861644	0.399081
H66	H	0.674961	-0.219038	0.803006
H67	H	1.004072	-0.578477	0.636778
Cl68	Cl	1.192724	0.172951	-0.214657
Cl69	Cl	1.201433	-0.259611	0.199158
Cl70	Cl	1.200550	-0.316012	0.158242
H71	H	1.004089	-0.769026	0.636774
H72	H	0.719154	-0.049506	0.181476
H73	H	1.196763	0.171868	-0.025034
Cl74	Cl	1.420434	-0.470076	0.324951
H75	H	1.197384	-0.440427	0.009497
H76	H	0.483283	-0.202846	0.743637
H77	H	1.390077	-0.690084	0.347719
H78	H	1.193143	-0.385878	-0.190352
H79	H	1.191104	-0.011731	-0.290221
H80	H	1.072624	-0.406927	0.585411
Cl81	Cl	0.385186	-0.094866	0.347754
Cl82	Cl	0.939413	-0.056528	0.207229
