data_functionalizedCrystal
_audit_creation_method	'MofGen! by Chris Wilmer'
_symmetry_space_group_name_H-M	'P1'
_symmetry_Int_Tables_number	1
_symmetry_cell_setting	triclinic
loop_
_symmetry_equiv_pos_as_xyz
  x,y,z
_cell_length_a	16.109301
_cell_length_b	16.109301
_cell_length_c	15.186229
_cell_angle_alpha	89.994833
_cell_angle_beta	89.999362
_cell_angle_gamma	83.461481
loop_
_atom_site_label
_atom_site_type_symbol
_atom_site_fract_x
_atom_site_fract_y
_atom_site_fract_z
O1	O	-1.103131	-0.106866	0.073176
O2	O	-0.861069	-0.120165	0.073190
O3	O	-0.988749	0.007515	0.073174
O4	O	-0.975450	-0.234547	0.073192
O5	O	-0.988741	0.007517	-0.073284
O6	O	-0.861060	-0.120164	-0.073267
O7	O	-1.103122	-0.106864	-0.073282
Zn8	Zn	-0.982090	-0.113514	-0.096528
Zn9	Zn	-0.982101	-0.113516	0.096436
O10	O	-0.975441	-0.234545	-0.073265
C11	C	-0.830090	-0.119626	-0.000037
C12	C	-0.737794	-0.118011	-0.000032
C13	C	-0.988206	0.038491	-0.000056
C14	C	-0.986591	0.130786	-0.000057
C15	C	-1.134101	-0.107404	-0.000053
C16	C	-1.226397	-0.109019	-0.000052
C17	C	-0.975984	-0.265521	-0.000034
C18	C	-0.977600	-0.357816	-0.000027
C19	C	-0.515522	-0.190018	-0.000036
C20	C	-0.428801	-0.188494	-0.000042
C21	C	-0.448676	-0.037006	-0.000050
C22	C	-0.535394	-0.038530	-0.000051
C23	C	-0.568815	-0.115039	-0.000039
C24	C	-0.395376	-0.111990	-0.000045
C25	C	-0.301350	-0.110337	-0.000051
C26	C	-0.662847	-0.116693	-0.000035
N27	N	-0.982088	-0.113511	-0.228220
C28	C	-1.058599	0.353059	-0.000047
C29	C	-1.057075	0.439779	-0.000040
C30	C	-0.905586	0.419905	-0.000034
C31	C	-0.907111	0.333186	-0.000035
C32	C	-0.983620	0.299766	-0.000046
C33	C	-0.980571	0.473205	-0.000038
C34	C	-0.978918	0.567231	-0.000030
C35	C	-0.985273	0.205734	-0.000052
C36	C	-1.038644	-0.056994	-0.453950
C37	C	-1.038647	-0.056992	-0.546140
C38	C	-0.925547	-0.170032	-0.546135
C39	C	-0.925541	-0.170030	-0.453947
C40	C	-0.982094	-0.113511	-0.407857
C41	C	-0.982103	-0.113512	-0.592235
C42	C	-0.982105	-0.113510	-0.692191
C43	C	-0.982091	-0.113512	-0.307894
N44	N	-0.982109	-0.113512	0.228129
H45	H	-0.542730	-0.252317	-0.000034
H46	H	-0.879503	-0.216049	-0.583670
H47	H	-0.879487	-0.216053	-0.416415
C48	C	-0.594025	0.043952	-0.000054
C49	C	-0.656381	0.063728	0.075993
C50	C	-0.715012	0.146205	0.075986
C51	C	-0.711287	0.208906	-0.000068
C52	C	-0.648929	0.189131	-0.076121
C53	C	-0.590298	0.106654	-0.076113
H54	H	-0.659140	0.017312	0.132298
H55	H	-0.761173	0.160843	0.132285
H56	H	-0.754689	0.269960	-0.000074
H57	H	-0.646170	0.235548	-0.132425
H58	H	-0.544137	0.092016	-0.132413
H59	H	-1.120897	0.325851	-0.000054
C60	C	-0.370179	-0.270973	-0.000037
C61	C	-0.406944	-0.355125	-0.000027
C62	C	-0.348321	-0.437608	-0.000024
C63	C	-0.252933	-0.435938	-0.000032
C64	C	-0.216163	-0.351782	-0.000042
C65	C	-0.274786	-0.269299	-0.000044
H66	H	-0.477560	-0.356365	-0.000022
H67	H	-0.375541	-0.499906	-0.000017
H68	H	-0.209537	-0.496996	-0.000030
H69	H	-0.145546	-0.350543	-0.000047
H70	H	-0.247565	-0.207002	-0.000052
H71	H	-1.118130	0.483168	-0.000039
H72	H	-1.084692	-0.010972	-0.416426
H73	H	-0.421454	0.025285	-0.000065
C74	C	-0.821431	0.456673	-0.000026
C75	C	-0.799548	0.513564	-0.076076
C76	C	-0.715391	0.550332	-0.076068
C77	C	-0.653119	0.530208	-0.000011
C78	C	-0.675001	0.473314	0.076044
C79	C	-0.759157	0.436547	0.076036
H80	H	-0.845647	0.528463	-0.132383
H81	H	-0.699193	0.592448	-0.132370
H82	H	-0.590822	0.557426	-0.000006
H83	H	-0.628902	0.458415	0.132351
H84	H	-0.775356	0.394430	0.132338
C85	C	-1.100855	0.005176	-0.596844
C86	C	-1.163066	0.067335	-0.546145
C87	C	-1.225276	0.129506	-0.596849
C88	C	-1.225275	0.129519	-0.698253
C89	C	-1.163062	0.067358	-0.748957
C90	C	-1.100852	0.005187	-0.698253
H91	H	-1.163069	0.067327	-0.471075
H92	H	-1.271331	0.175522	-0.559314
H93	H	-1.271326	0.175542	-0.735787
H94	H	-1.163059	0.067365	-0.824027
H95	H	-1.054797	-0.040829	-0.735789
C96	C	-0.824629	0.274555	-0.000035
C97	C	-0.804848	0.212208	-0.076084
C98	C	-0.722371	0.153577	-0.076080
C99	C	-0.659675	0.157293	-0.000027
C100	C	-0.679454	0.219643	0.076028
C101	C	-0.761931	0.278274	0.076023
H102	H	-0.851261	0.209455	-0.132388
H103	H	-0.707729	0.107422	-0.132380
H104	H	-0.598620	0.113891	-0.000024
H105	H	-0.633042	0.222396	0.132331
H106	H	-0.776573	0.324429	0.132324
