data_functionalizedCrystal
_audit_creation_method	'MofGen! by Chris Wilmer'
_symmetry_space_group_name_H-M	'P1'
_symmetry_Int_Tables_number	1
_symmetry_cell_setting	triclinic
loop_
_symmetry_equiv_pos_as_xyz
  x,y,z
_cell_length_a	18.101395
_cell_length_b	18.101398
_cell_length_c	15.296720
_cell_angle_alpha	99.666182
_cell_angle_beta	99.643705
_cell_angle_gamma	90.029256
loop_
_atom_site_label
_atom_site_type_symbol
_atom_site_fract_x
_atom_site_fract_y
_atom_site_fract_z
Zn1	Zn	-0.367298	1.059619	-0.509969
Zn2	Zn	-0.469721	1.080961	-0.359118
Zn3	Zn	-0.345897	0.957221	-0.359144
Zn4	Zn	-0.491093	0.935733	-0.509935
O5	O	-0.418502	1.008384	-0.434542
O6	O	-0.380896	1.166082	-0.489962
O7	O	-0.435395	1.082471	-0.232883
O8	O	-0.245107	0.970865	-0.379176
O9	O	-0.456146	1.181762	-0.379133
O10	O	-0.260829	1.046096	-0.489987
O11	O	-0.344422	0.991559	-0.232902
O12	O	-0.365146	0.850738	-0.379143
O13	O	-0.492572	0.934243	-0.636178
O14	O	-0.471821	0.834951	-0.489929
O15	O	-0.401620	1.025261	-0.636203
O16	O	-0.576185	1.061636	-0.379100
O17	O	-0.591887	0.954938	-0.489904
C18	C	-0.418481	0.815974	-0.434535
C19	C	-0.418493	0.733657	-0.434554
C20	C	-0.418506	0.582949	-0.434553
C21	C	-0.485696	0.541703	-0.504148
C22	C	-0.485898	0.456114	-0.503942
C23	C	-0.418520	0.434566	-0.434553
C24	C	-0.425828	0.479152	-0.339366
C25	C	-0.426293	0.564739	-0.339769
C26	C	-0.343748	0.547908	-0.459312
C27	C	-0.344475	0.461959	-0.461409
C28	C	-0.418525	0.350708	-0.434547
C29	C	-0.418501	0.666808	-0.434552
C30	C	-0.610909	1.008288	-0.434515
C31	C	-0.693226	1.008311	-0.434534
C32	C	-0.992323	1.008466	-0.434582
C33	C	-0.970933	0.941443	-0.504470
C34	C	-0.885284	0.941203	-0.504252
C35	C	-0.843938	1.008389	-0.434559
C36	C	-0.861585	1.000776	-0.339487
C37	C	-0.947290	1.000349	-0.339905
C38	C	-0.964128	1.083347	-0.458930
C39	C	-0.878773	1.082590	-0.461015
C40	C	-0.760075	1.008348	-0.434540
C41	C	-1.076185	1.008507	-0.434595
C42	C	-0.225347	1.008497	-0.434588
C43	C	-0.143035	1.008545	-0.434608
C44	C	-0.451867	0.974974	-0.669838
C45	C	-0.466085	0.960737	-0.770107
C46	C	-0.418524	1.201544	-0.434548
C47	C	-0.418533	1.283858	-0.434551
C48	C	-0.316754	1.110165	-1.052801
C49	C	-0.303396	1.123546	-0.958593
C50	C	-0.344067	1.082845	-0.911467
C51	C	-0.398098	1.028761	-0.958558
C52	C	-0.411461	1.015383	-1.052775
C53	C	-0.438774	0.988062	-0.911441
C54	C	-0.492805	0.933978	-0.958532
C55	C	-0.506165	0.920602	-1.052740
C56	C	-0.465494	0.961303	-1.099866
C57	C	-0.425411	1.001441	-0.817224
C58	C	-0.520118	0.906658	-0.817198
C59	C	-0.533476	0.893277	-0.911406
C60	C	-0.385214	1.041705	-0.200161
C61	C	-0.370787	1.056086	-0.099892
H62	H	-0.293858	0.575391	-0.408627
C63	C	-0.498181	0.454228	-0.310606
H64	H	-0.502099	0.481528	-0.252915
H65	H	-0.540277	0.463627	-0.353036
H66	H	-0.496796	0.402151	-0.308110
C67	C	-0.970412	0.926946	-0.312051
H68	H	-0.927442	0.897667	-0.300592
H69	H	-0.992153	0.938256	-0.259166
H70	H	-1.005896	0.899621	-0.359228
C71	C	-0.854590	0.865860	-0.482454
H72	H	-0.894477	0.835283	-0.473689
H73	H	-0.832335	0.841168	-0.530996
H74	H	-0.818027	0.874649	-0.429208
C75	C	-0.360957	0.461900	-0.267384
H76	H	-0.366472	0.489439	-0.210359
H77	H	-0.361775	0.409784	-0.265143
H78	H	-0.314598	0.475849	-0.282239
C79	C	-0.243966	1.183031	-0.906800
H80	H	-0.221653	1.205351	-0.948357
H81	H	-0.267087	1.220499	-0.870042
H82	H	-0.206480	1.159937	-0.870056
H83	H	-0.960361	1.047781	-0.286058
H84	H	-0.334412	0.559832	-0.527552
H85	H	-0.541063	0.565498	-0.487920
H86	H	-0.850659	1.134082	-0.413821
C87	C	-0.565608	0.861124	-1.104542
H88	H	-0.567747	0.858993	-1.167399
H89	H	-0.552582	0.813562	-1.089109
H90	H	-0.613175	0.874137	-1.089084
C91	C	-0.272021	1.154927	-1.104640
H92	H	-0.287716	1.139209	-1.167493
H93	H	-0.280673	1.206871	-1.089202
H94	H	-0.220071	1.146304	-1.089216
H95	H	-0.476367	0.950411	-1.176578
C96	C	-0.828680	0.928260	-0.311126
H97	H	-0.804177	0.902541	-0.357089
H98	H	-0.793636	0.940408	-0.256839
H99	H	-0.867937	0.897084	-0.301973
C100	C	-0.336679	0.421085	-0.556034
H101	H	-0.378370	0.387462	-0.579084
H102	H	-0.335101	0.456749	-0.594752
H103	H	-0.291759	0.393809	-0.552638
H104	H	-0.874233	0.944400	-0.574747
H105	H	-0.577468	0.849241	-0.949760
C106	C	-0.274738	0.442099	-0.397983
H107	H	-0.230862	0.459297	-0.415788
H108	H	-0.276851	0.465463	-0.338050
H109	H	-0.273472	0.389276	-0.400991
C110	C	-0.564864	0.861886	-0.765373
H111	H	-0.598965	0.827769	-0.806911
H112	H	-0.531324	0.834854	-0.728624
H113	H	-0.591923	0.895424	-0.728617
C114	C	-0.481886	0.414195	-0.599269
H115	H	-0.480121	0.449441	-0.638472
H116	H	-0.438109	0.385193	-0.597640
H117	H	-0.524967	0.382099	-0.620516
H118	H	-0.333188	1.093743	-0.834759
C119	C	-0.481934	0.555961	-0.599777
H120	H	-0.439358	0.587199	-0.598120
H121	H	-0.478051	0.509551	-0.638070
H122	H	-0.526073	0.579946	-0.622136
C123	C	-0.823803	1.065447	-0.267219
H124	H	-0.796862	1.097739	-0.294451
H125	H	-0.861010	1.092899	-0.239734
H126	H	-0.790211	1.045595	-0.222894
H127	H	-0.480528	0.587657	-0.318842
C128	C	-0.561101	0.431541	-0.481741
H129	H	-0.591644	0.473890	-0.472804
H130	H	-0.585922	0.395511	-0.530195
H131	H	-0.552132	0.410073	-0.428506
C132	C	-1.006306	1.096283	-0.550988
H133	H	-1.041509	1.056131	-0.575438
H134	H	-1.031905	1.142124	-0.543682
H135	H	-0.971522	1.098552	-0.590649
C136	C	-1.012349	0.945471	-0.599993
H137	H	-1.043051	0.988067	-0.598114
H138	H	-0.976840	0.949450	-0.638317
H139	H	-1.042749	0.901362	-0.622469
C140	C	-0.997036	0.866529	-0.482971
H141	H	-0.983898	0.826331	-0.525516
H142	H	-0.973441	0.860999	-0.424196
H143	H	-1.049884	0.866038	-0.485954
C144	C	-0.362039	0.603063	-0.267308
H145	H	-0.335773	0.566304	-0.237749
H146	H	-0.328605	0.628333	-0.294822
H147	H	-0.382107	0.638185	-0.224637
C148	C	-0.864680	1.090688	-0.555527
H149	H	-0.837676	1.049030	-0.578772
H150	H	-0.911306	1.092411	-0.594211
H151	H	-0.836343	1.135618	-0.551899
H152	H	-0.977149	1.133116	-0.408027
C153	C	-0.365980	1.060924	-0.765430
H154	H	-0.363848	1.063069	-0.702572
H155	H	-0.318412	1.047925	-0.780886
H156	H	-0.379021	1.108485	-0.780871
