data_functionalizedCrystal
_audit_creation_method	'MofGen! by Chris Wilmer'
_symmetry_space_group_name_H-M	'P1'
_symmetry_Int_Tables_number	1
_symmetry_cell_setting	triclinic
loop_
_symmetry_equiv_pos_as_xyz
  x,y,z
_cell_length_a	25.639239
_cell_length_b	18.050591
_cell_length_c	18.050582
_cell_angle_alpha	89.980240
_cell_angle_beta	89.975362
_cell_angle_gamma	90.035133
loop_
_atom_site_label
_atom_site_type_symbol
_atom_site_fract_x
_atom_site_fract_y
_atom_site_fract_z
Zn1	Zn	-0.208234	1.135238	-0.419998
Zn2	Zn	0.291766	1.635238	0.080002
Zn3	Zn	-0.295661	1.135126	-0.295803
Zn4	Zn	0.204339	1.635126	0.204197
Zn5	Zn	-0.208236	1.011058	-0.295811
Zn6	Zn	0.291764	1.511058	0.204189
Zn7	Zn	-0.295634	1.010983	-0.419941
Zn8	Zn	0.204366	1.510983	0.080059
O9	O	-0.251941	1.073101	-0.357888
O10	O	0.248059	1.573101	0.142112
O11	O	-0.219841	1.239148	-0.403543
O12	O	0.280159	1.739148	0.096457
O13	O	-0.284077	1.118653	-0.191880
O14	O	0.215923	1.618653	0.308120
O15	O	-0.135071	1.027609	-0.312312
O16	O	0.364929	1.527609	0.187688
O17	O	-0.284074	1.239066	-0.312298
O18	O	0.215926	1.739066	0.187702
O19	O	-0.135069	1.118844	-0.403551
O20	O	0.364931	1.618844	0.096449
O21	O	-0.219846	1.027500	-0.191886
O22	O	0.280154	1.527500	0.308114
O23	O	-0.219820	0.907123	-0.312257
O24	O	0.280180	1.407123	0.187743
O25	O	-0.284028	1.027481	-0.523873
O26	O	0.215972	1.527481	-0.023873
O27	O	-0.284031	0.907068	-0.403455
O28	O	0.215969	1.407068	0.096545
O29	O	-0.219815	1.118771	-0.523915
O30	O	0.280185	1.618771	-0.023915
O31	O	-0.368823	1.118580	-0.312243
O32	O	0.131177	1.618580	0.187757
O33	O	-0.368803	1.027373	-0.403447
O34	O	0.131197	1.527373	0.096553
C35	C	-0.251923	0.880149	-0.357851
C36	C	0.248077	1.380149	0.142149
C37	C	-0.251928	0.797604	-0.357853
C38	C	0.248072	1.297604	0.142147
C39	C	-0.387784	1.072977	-0.357854
C40	C	0.112216	1.572977	0.142146
C41	C	-0.445898	1.072991	-0.357865
C42	C	0.054102	1.572991	0.142135
C43	C	-0.216974	0.548786	-0.308377
C44	C	0.283026	1.048786	0.191623
C45	C	-0.204244	0.598222	-0.376154
C46	C	0.295756	1.098222	0.123846
C47	C	-0.251954	0.500483	-0.357914
C48	C	0.248046	1.000483	0.142086
C49	C	-0.264646	0.598130	-0.290111
C50	C	0.235354	1.098130	0.209889
C51	C	-0.251940	0.646468	-0.357880
C52	C	0.248060	1.146468	0.142120
C53	C	-0.239200	0.548831	-0.425727
C54	C	0.260800	1.048831	0.074273
C55	C	-0.299624	0.548735	-0.339638
C56	C	0.200376	1.048735	0.160362
C57	C	-0.286913	0.598148	-0.407462
C58	C	0.213087	1.098148	0.092538
C59	C	-0.251961	0.416385	-0.357932
C60	C	0.248039	0.916385	0.142068
C61	C	-0.251933	0.730565	-0.357870
C62	C	0.248067	1.230565	0.142130
C63	C	-0.806259	1.120717	-0.310480
C64	C	-0.306259	1.620717	0.189520
C65	C	-0.860863	1.120746	-0.310489
C66	C	-0.360863	1.620746	0.189511
O67	O	-0.889098	1.161195	-0.270164
O68	O	-0.389098	1.661195	0.229836
N69	N	-0.888180	1.073232	-0.357938
N70	N	-0.388180	1.573232	0.142062
C71	C	-0.860891	1.025691	-0.405384
C72	C	-0.360891	1.525691	0.094616
O73	O	-0.889140	0.985280	-0.445744
O74	O	-0.389140	1.485280	0.054256
C75	C	-0.806287	1.025667	-0.405377
C76	C	-0.306287	1.525667	0.094623
C77	C	-0.778973	1.073179	-0.357921
C78	C	-0.278973	1.573179	0.142079
C79	C	-0.778944	1.168226	-0.263027
C80	C	-0.278944	1.668226	0.236973
C81	C	-0.724344	1.168196	-0.263017
C82	C	-0.224344	1.668196	0.236983
C83	C	-0.697058	1.120657	-0.310458
C84	C	-0.197058	1.620657	0.189542
C85	C	-0.724372	1.073149	-0.357910
C86	C	-0.224372	1.573149	0.142090
C87	C	-0.778999	0.978131	-0.452827
C88	C	-0.278999	1.478131	0.047173
C89	C	-0.724391	0.978111	-0.452817
C90	C	-0.224391	1.478111	0.047183
C91	C	-0.697077	1.025622	-0.405360
C92	C	-0.197077	1.525622	0.094640
C93	C	-0.642486	1.025580	-0.405341
C94	C	-0.142486	1.525580	0.094659
N95	N	-0.615168	1.073094	-0.357893
N96	N	-0.115168	1.573094	0.142107
C97	C	-0.642454	1.120633	-0.310451
C98	C	-0.142454	1.620633	0.189549
C99	C	-0.975561	1.025747	-0.405396
C100	C	-0.475561	1.525747	0.094604
C101	C	-1.030164	1.025767	-0.405399
C102	C	-0.530164	1.525767	0.094601
C103	C	-1.030132	1.120823	-0.310505
C104	C	-0.530132	1.620823	0.189495
C105	C	-0.975529	1.120799	-0.310499
C106	C	-0.475529	1.620799	0.189501
C107	C	-0.948244	1.073261	-0.357948
C108	C	-0.448244	1.573261	0.142052
C109	C	-0.527789	1.120566	-0.310432
C110	C	-0.027789	1.620566	0.189568
C111	C	-0.473184	1.120529	-0.310423
C112	C	0.026816	1.620529	0.189577
C113	C	-0.473220	1.025477	-0.405320
C114	C	0.026780	1.525477	0.094680
C115	C	-0.527821	1.025510	-0.405326
C116	C	-0.027821	1.525510	0.094674
C117	C	-0.555104	1.073061	-0.357880
C118	C	-0.055104	1.573061	0.142120
O119	O	-0.614216	0.985154	-0.445648
O120	O	-0.114216	1.485154	0.054352
O121	O	-0.614198	1.161044	-0.270105
O122	O	-0.114198	1.661044	0.229895
C123	C	-0.115568	1.073247	-0.357939
C124	C	0.384432	1.573247	0.142061
C125	C	-0.057454	1.073309	-0.357960
C126	C	0.442546	1.573309	0.142040
C127	C	-0.251918	1.073131	-0.551594
C128	C	0.248082	1.573131	-0.051594
C129	C	-0.251908	1.073143	-0.634140
C130	C	0.248092	1.573143	-0.134140
C131	C	-0.251960	1.266807	-0.357926
C132	C	0.248040	1.766807	0.142074
C133	C	-0.251968	1.349353	-0.357942
C134	C	0.248032	1.849353	0.142058
C135	C	-0.286780	1.023537	-0.833568
C136	C	0.213220	1.523537	-0.333568
C137	C	-0.299563	1.091289	-0.882964
C138	C	0.200437	1.591289	-0.382964
C139	C	-0.251868	1.073180	-0.785270
C140	C	0.248132	1.573180	-0.285270
C141	C	-0.239071	1.005465	-0.882956
C142	C	0.260929	1.505465	-0.382956
C143	C	-0.251831	1.073209	-0.931256
C144	C	0.248169	1.573209	-0.431256
C145	C	-0.264677	1.140967	-0.833579
C146	C	0.235323	1.640967	-0.333579
C147	C	-0.204162	1.055097	-0.833566
C148	C	0.295838	1.555097	-0.333566
C149	C	-0.216927	1.122896	-0.882940
C150	C	0.283073	1.622896	-0.382940
C151	C	-0.251891	1.073162	-0.701172
C152	C	0.248109	1.573162	-0.201172
C153	C	-0.251808	1.073235	-1.015352
C154	C	0.248192	1.573235	-0.515352
C155	C	-0.251927	1.073115	-0.164936
C156	C	0.248073	1.573115	0.335064
C157	C	-0.251789	1.073247	-0.082391
C158	C	0.248211	1.573247	0.417609
H159	H	-0.187375	0.527114	-0.266551
H160	H	0.312625	1.027114	0.233449
O161	O	-0.352980	1.111572	-0.911714
O162	O	0.147020	1.611572	-0.411714
H163	H	-0.352372	1.111919	-0.973198
H164	H	0.147628	1.611919	-0.473198
O165	O	-0.946075	1.172057	-0.259322
O166	O	-0.446075	1.672057	0.240678
H167	H	-0.921163	1.209806	-0.292601
H168	H	-0.421163	1.709806	0.207399
O169	O	-1.059623	0.974518	-0.456579
O170	O	-0.559623	1.474518	0.043421
H171	H	-1.031470	0.941463	-0.489566
H172	H	-0.531470	1.441463	0.010434
O173	O	-0.353014	0.519910	-0.319145
O174	O	0.146986	1.019910	0.180855
H175	H	-0.382120	0.540545	-0.359695
H176	H	0.117880	1.040545	0.140305
H177	H	-0.187388	1.164937	-0.904482
H178	H	0.312612	1.664937	-0.404482
O179	O	-0.326091	0.626677	-0.462994
O180	O	0.173909	1.126677	0.037006
H181	H	-0.355911	0.660479	-0.433956
H182	H	0.144089	1.160479	0.066044
H183	H	-0.275386	0.619787	-0.232785
H184	H	0.224614	1.119787	0.267215
O185	O	-0.443722	1.171781	-0.259242
O186	O	0.056278	1.671781	0.240758
H187	H	-0.471873	1.204848	-0.226263
H188	H	0.028127	1.704848	0.273737
H189	H	-0.702107	1.206886	-0.224376
H190	H	-0.202107	1.706886	0.275624
O191	O	-0.150840	0.627027	-0.396619
O192	O	0.349160	1.127027	0.103381
H193	H	-0.121877	0.607265	-0.355433
H194	H	0.378123	1.107265	0.144567
O195	O	-0.224904	0.520276	-0.501684
O196	O	0.275096	1.020276	-0.001684
H197	H	-0.225001	0.458788	-0.501093
H198	H	0.274999	0.958788	-0.001093
H199	H	-0.549997	1.159288	-0.271798
H200	H	-0.049997	1.659288	0.228202
H201	H	-0.801155	1.206941	-0.224395
H202	H	-0.301155	1.706941	0.275605
O203	O	-0.325931	0.967979	-0.804843
O204	O	0.174069	1.467979	-0.304843
H205	H	-0.325336	0.968089	-0.743359
H206	H	0.174664	1.468089	-0.243359
O207	O	-0.694966	0.926825	-0.503988
O208	O	-0.194966	1.426825	-0.003988
H209	H	-0.705418	0.939524	-0.562289
H210	H	-0.205418	1.439524	-0.062289
O211	O	-0.278793	1.216962	-0.804981
O212	O	0.221207	1.716962	-0.304981
H213	H	-0.278619	1.216383	-0.743494
H214	H	0.221381	1.716383	-0.243494
H215	H	-1.052358	1.159534	-0.271878
H216	H	-0.552358	1.659534	0.228122
H217	H	-0.953348	0.987030	-0.444032
H218	H	-0.453348	1.487030	0.055968
H219	H	-0.450995	0.986769	-0.443944
H220	H	0.049005	1.486769	0.056056
O221	O	-0.224750	0.929595	-0.911683
O222	O	0.275250	1.429595	-0.411683
H223	H	-0.188697	0.933610	-0.945512
H224	H	0.311303	1.433610	-0.445512
O225	O	-0.150766	1.034784	-0.804774
O226	O	0.349234	1.534784	-0.304774
H227	H	-0.140248	0.978508	-0.824505
H228	H	0.359752	1.478508	-0.324505
H229	H	-0.801229	0.939438	-0.491468
H230	H	-0.301229	1.439438	0.008532
O231	O	-0.557287	0.974266	-0.456507
O232	O	-0.057287	1.474266	0.043493
H233	H	-0.529137	0.941207	-0.489496
H234	H	-0.029137	1.441207	0.010504
