data_functionalizedCrystal
_audit_creation_method	'MofGen! by Chris Wilmer'
_symmetry_space_group_name_H-M	'P1'
_symmetry_Int_Tables_number	1
_symmetry_cell_setting	triclinic
loop_
_symmetry_equiv_pos_as_xyz
  x,y,z
_cell_length_a	18.215407
_cell_length_b	29.839131
_cell_length_c	18.215399
_cell_angle_alpha	90.026703
_cell_angle_beta	90.019833
_cell_angle_gamma	90.042151
loop_
_atom_site_label
_atom_site_type_symbol
_atom_site_fract_x
_atom_site_fract_y
_atom_site_fract_z
Zn1	Zn	1.124986	-0.178853	0.416122
Zn2	Zn	1.458319	0.154481	0.749456
Zn3	Zn	1.791653	0.487814	1.082789
Zn4	Zn	1.124858	-0.253982	0.293059
Zn5	Zn	1.458192	0.079351	0.626392
Zn6	Zn	1.791525	0.412685	0.959725
Zn7	Zn	1.001919	-0.178867	0.293070
Zn8	Zn	1.335252	0.154466	0.626403
Zn9	Zn	1.668585	0.487799	0.959736
Zn10	Zn	1.001848	-0.253957	0.416083
Zn11	Zn	1.335182	0.079376	0.749417
Zn12	Zn	1.668515	0.412710	1.082750
O13	O	1.063403	-0.216415	0.354583
O14	O	1.396736	0.116919	0.687917
O15	O	1.730069	0.450252	1.021250
O16	O	1.227953	-0.188823	0.399809
O17	O	1.561287	0.144510	0.733142
O18	O	1.894620	0.477844	1.066476
O19	O	1.108526	-0.244034	0.190076
O20	O	1.441859	0.089299	0.523409
O21	O	1.775193	0.422632	0.856742
O22	O	1.018327	-0.115998	0.309414
O23	O	1.351660	0.217335	0.642747
O24	O	1.684993	0.550668	0.976080
O25	O	1.227859	-0.244020	0.309395
O26	O	1.561193	0.089313	0.642728
O27	O	1.894526	0.422647	0.976062
O28	O	1.108744	-0.115987	0.399820
O29	O	1.442077	0.217346	0.733153
O30	O	1.775410	0.550679	1.066486
O31	O	1.018203	-0.188848	0.190084
O32	O	1.351536	0.144485	0.523417
O33	O	1.684869	0.477819	0.856750
O34	O	0.898925	-0.188824	0.309376
O35	O	1.232258	0.144510	0.642709
O36	O	1.565592	0.477843	0.976043
O37	O	1.018207	-0.243978	0.519073
O38	O	1.351540	0.089356	0.852406
O39	O	1.684873	0.422689	1.185740
O40	O	0.898873	-0.243992	0.399754
O41	O	1.232207	0.089342	0.733087
O42	O	1.565540	0.422675	1.066420
O43	O	1.108676	-0.188799	0.519101
O44	O	1.442009	0.144535	0.852435
O45	O	1.775342	0.477868	1.185768
O46	O	1.108458	-0.316846	0.309357
O47	O	1.441791	0.016488	0.642691
O48	O	1.775125	0.349821	0.976024
O49	O	1.018083	-0.316827	0.399743
O50	O	1.351416	0.016506	0.733076
O51	O	1.684750	0.349839	1.066410
C52	C	0.872196	-0.216407	0.354562
C53	C	1.205530	0.116926	0.687896
C54	C	1.538863	0.450260	1.021229
C55	C	0.790398	-0.216414	0.354571
C56	C	1.123731	0.116919	0.687904
C57	C	1.457064	0.450252	1.021237
C58	C	1.063269	-0.333137	0.354561
C59	C	1.396602	0.000196	0.687894
C60	C	1.729936	0.333529	1.021228
C61	C	1.063279	-0.383072	0.354576
C62	C	1.396612	-0.049738	0.687909
C63	C	1.729946	0.283595	1.021242
C64	C	0.602196	-0.245186	0.401571
C65	C	0.935529	0.088148	0.734905
C66	C	1.268863	0.421481	1.068238
C67	C	0.525337	-0.245187	0.401581
C68	C	0.858671	0.088146	0.734914
C69	C	1.192004	0.421480	1.068247
C70	C	0.525361	-0.187652	0.307612
C71	C	0.858695	0.145682	0.640945
C72	C	1.192028	0.479015	0.974278
C73	C	0.602219	-0.187648	0.307607
C74	C	0.935552	0.145685	0.640940
C75	C	1.268885	0.479018	0.974273
C76	C	0.640634	-0.216418	0.354585
C77	C	0.973967	0.116915	0.687919
C78	C	1.307301	0.450249	1.021252
C79	C	0.486918	-0.216423	0.354600
C80	C	0.820251	0.116911	0.687933
C81	C	1.153585	0.450244	1.021266
C82	C	0.403584	-0.216424	0.354609
C83	C	0.736918	0.116909	0.687943
C84	C	1.070251	0.450243	1.021276
C85	C	0.723973	-0.216416	0.354577
C86	C	1.057306	0.116917	0.687910
C87	C	1.390640	0.450251	1.021244
C88	C	1.016375	-0.739665	0.401644
C89	C	1.349708	-0.406332	0.734978
C90	C	1.683041	-0.072998	1.068311
C91	C	1.016278	-0.551992	0.401621
C92	C	1.349611	-0.218659	0.734955
C93	C	1.682944	0.114675	1.068288
O94	O	0.976238	-0.527732	0.441627
O95	O	1.309571	-0.194399	0.774960
O96	O	1.642904	0.138934	1.108293
N97	N	1.063357	-0.528517	0.354598
N98	N	1.396690	-0.195183	0.687931
N99	N	1.730023	0.138150	1.021264
C100	C	1.110467	-0.551963	0.307580
C101	C	1.443800	-0.218630	0.640914
C102	C	1.777134	0.114704	0.974247
O103	O	1.150514	-0.527690	0.267589
O104	O	1.483847	-0.194356	0.600922
O105	O	1.817181	0.138977	0.934255
C106	C	1.110567	-0.739635	0.307608
C107	C	1.443901	-0.406302	0.640941
C108	C	1.777234	-0.072968	0.974274
C109	C	1.063480	-0.763108	0.354629
C110	C	1.396813	-0.429774	0.687962
C111	C	1.730147	-0.096441	1.021295
C112	C	0.969292	-0.763138	0.448662
C113	C	1.302625	-0.429804	0.781996
C114	C	1.635958	-0.096471	1.115329
C115	C	0.969314	-0.810053	0.448665
C116	C	1.302647	-0.476720	0.781998
C117	C	1.635980	-0.143386	1.115331
C118	C	1.016419	-0.833496	0.401649
C119	C	1.349752	-0.500162	0.734982
C120	C	1.683085	-0.166829	1.068316
C121	C	1.063502	-0.810023	0.354631
C122	C	1.396835	-0.476690	0.687965
C123	C	1.730169	-0.143356	1.021298
C124	C	1.157681	-0.763080	0.260594
C125	C	1.491014	-0.429747	0.593928
C126	C	1.824348	-0.096414	0.927261
C127	C	1.157703	-0.810001	0.260607
C128	C	1.491037	-0.476668	0.593940
C129	C	1.824370	-0.143335	0.927273
C130	C	1.110616	-0.833474	0.307628
C131	C	1.443949	-0.500141	0.640961
C132	C	1.777282	-0.166807	0.974294
C133	C	1.110629	-0.880381	0.307618
C134	C	1.443962	-0.547048	0.640951
C135	C	1.777296	-0.213715	0.974285
N136	N	1.063550	-0.903856	0.354642
N137	N	1.396883	-0.570523	0.687975
N138	N	1.730216	-0.237190	1.021308
C139	C	1.016445	-0.880414	0.401657
C140	C	1.349778	-0.547080	0.734990
C141	C	1.683111	-0.213747	1.068324
C142	C	1.110410	-0.453432	0.307568
C143	C	1.443743	-0.120099	0.640902
C144	C	1.777077	0.213234	0.974235
C145	C	1.110384	-0.406514	0.307560
C146	C	1.443717	-0.073181	0.640894
C147	C	1.777051	0.260152	0.974227
C148	C	1.016195	-0.406547	0.401602
C149	C	1.349529	-0.073213	0.734936
C150	C	1.682862	0.260120	1.068269
C151	C	1.016218	-0.453465	0.401606
C152	C	1.349551	-0.120132	0.734939
C153	C	1.682885	0.213201	1.068273
C154	C	1.063331	-0.476907	0.354592
C155	C	1.396664	-0.143574	0.687925
C156	C	1.729997	0.189759	1.021258
C157	C	1.016494	-0.978939	0.401658
C158	C	1.349827	-0.645606	0.734991
C159	C	1.683161	-0.312273	1.068325
C160	C	1.016518	-1.025859	0.401654
C161	C	1.349851	-0.692526	0.734988
C162	C	1.683185	-0.359192	1.068321
C163	C	1.110709	-1.025823	0.307615
C164	C	1.444042	-0.692489	0.640949
C165	C	1.777376	-0.359156	0.974282
C166	C	1.110683	-0.978907	0.307616
C167	C	1.444016	-0.645574	0.640949
C168	C	1.777349	-0.312241	0.974283
C169	C	1.063573	-0.955467	0.354643
C170	C	1.396906	-0.622133	0.687977
C171	C	1.730239	-0.288800	1.021310
O172	O	1.150654	-0.904670	0.267640
O173	O	1.483987	-0.571336	0.600973
O174	O	1.817320	-0.238003	0.934306
O175	O	0.976415	-0.904695	0.441654
O176	O	1.309749	-0.571362	0.774987
O177	O	1.643082	-0.238028	1.108321
C178	C	1.016353	-0.692749	0.401642
C179	C	1.349686	-0.359416	0.734975
C180	C	1.683020	-0.026083	1.068308
C181	C	1.063436	-0.669277	0.354624
C182	C	1.396769	-0.335943	0.687957
C183	C	1.730103	-0.002610	1.021291
C184	C	1.110541	-0.692720	0.307608
C185	C	1.443874	-0.359386	0.640942
C186	C	1.777208	-0.026053	0.974275
C187	C	1.063410	-0.622359	0.354616
C188	C	1.396743	-0.289026	0.687949
C189	C	1.730077	0.044308	1.021283
C190	C	1.016305	-0.598916	0.401631
C191	C	1.349638	-0.265583	0.734965
C192	C	1.682972	0.067751	1.068298
C193	C	0.969226	-0.622391	0.448655
C194	C	1.302559	-0.289058	0.781988
C195	C	1.635892	0.044275	1.115322
C196	C	0.969248	-0.669307	0.448657
C197	C	1.302581	-0.335973	0.781991
C198	C	1.635914	-0.002640	1.115324
C199	C	1.157620	-0.669244	0.260585
C200	C	1.490954	-0.335911	0.593918
C201	C	1.824287	-0.002578	0.927252
C202	C	1.157594	-0.622329	0.260586
C203	C	1.490927	-0.288996	0.593919
C204	C	1.824261	0.044338	0.927252
C205	C	1.110489	-0.598886	0.307601
C206	C	1.443822	-0.265553	0.640935
C207	C	1.777155	0.067780	0.974268
C208	C	1.255356	-0.216423	0.354605
C209	C	1.588689	0.116911	0.687938
C210	C	1.922022	0.450244	1.021272
C211	C	1.337155	-0.216426	0.354614
C212	C	1.670488	0.116907	0.687948
C213	C	2.003821	0.450241	1.021281
C214	C	1.063448	-0.216384	0.546536
C215	C	1.396781	0.116950	0.879870
C216	C	1.730114	0.450283	1.213203
C217	C	1.063467	-0.216370	0.628335
C218	C	1.396800	0.116963	0.961669
C219	C	1.730133	0.450296	1.295002
C220	C	1.063557	-0.099236	0.354622
C221	C	1.396890	0.234097	0.687956
C222	C	1.730224	0.567430	1.021289
C223	C	1.063623	-0.049302	0.354639
C224	C	1.396956	0.284032	0.687972
C225	C	1.730290	0.617365	1.021305
C226	C	1.063400	-0.216413	0.163377
C227	C	1.396734	0.116920	0.496711
C228	C	1.730067	0.450254	0.830044
C229	C	1.063524	-0.216300	0.081579
C230	C	1.396857	0.117034	0.414912
C231	C	1.730191	0.450367	0.748245
C232	C	1.110591	-0.187612	0.816545
C233	C	1.443924	0.145721	1.149879
C234	C	1.777257	0.479055	1.483212
C235	C	1.110600	-0.187599	0.893404
C236	C	1.443933	0.145734	1.226738
C237	C	1.777266	0.479068	1.560071
C238	C	1.016395	-0.245059	0.893363
C239	C	1.349728	0.088274	1.226697
C240	C	1.683061	0.421607	1.560030
C241	C	1.016383	-0.245070	0.816506
C242	C	1.349716	0.088263	1.149839
C243	C	1.683050	0.421597	1.483173
C244	C	1.063485	-0.216347	0.778099
C245	C	1.396818	0.116986	1.111432
C246	C	1.730152	0.450320	1.444766
C247	C	1.063506	-0.216323	0.931815
C248	C	1.396839	0.117010	1.265148
C249	C	1.730172	0.450343	1.598482
C250	C	1.063515	-0.216309	1.015149
C251	C	1.396848	0.117024	1.348482
C252	C	1.730182	0.450357	1.681816
C253	C	1.063475	-0.216360	0.694760
C254	C	1.396808	0.116973	1.028093
C255	C	1.730142	0.450307	1.361427
H256	H	0.633472	-0.268610	0.439826
H257	H	0.966805	0.064723	0.773160
H258	H	1.300138	0.398056	1.106493
C259	C	0.964584	-0.276652	0.935618
C260	C	1.297917	0.056681	1.268951
C261	C	1.631251	0.390014	1.602285
N262	N	0.925558	-0.300449	0.967444
N263	N	1.258892	0.032885	1.300777
N264	N	1.592225	0.366218	1.634110
C265	C	1.209530	-0.835784	0.208883
C266	C	1.542863	-0.502451	0.542216
C267	C	1.876197	-0.169118	0.875550
N268	N	1.248563	-0.855203	0.169923
N269	N	1.581897	-0.521870	0.503256
N270	N	1.915230	-0.188537	0.836589
H271	H	0.494044	-0.268612	0.439842
H272	H	0.827378	0.064721	0.773176
H273	H	1.160711	0.398055	1.106509
H274	H	1.149018	-0.959795	0.269320
H275	H	1.482351	-0.626462	0.602653
H276	H	1.815685	-0.293129	0.935986
C277	C	0.483097	-0.156010	0.255934
C278	C	0.816431	0.177324	0.589267
C279	C	1.149764	0.510657	0.922600
N280	N	0.451265	-0.132177	0.217007
N281	N	0.784598	0.201156	0.550340
N282	N	1.117932	0.534490	0.883674
H283	H	0.633516	-0.164220	0.269345
H284	H	0.966849	0.169114	0.602678
H285	H	1.300183	0.502447	0.936012
H286	H	1.148942	-0.164223	0.785277
H287	H	1.482276	0.169111	1.118610
H288	H	1.815609	0.502444	1.451943
C289	C	0.964717	-1.051676	0.453385
C290	C	1.298050	-0.718343	0.786718
C291	C	1.631384	-0.385009	1.120051
N292	N	0.925703	-1.071120	0.492348
N293	N	1.259036	-0.737787	0.825682
N294	N	1.592370	-0.404453	1.159015
H295	H	0.978134	-0.959859	0.439953
H296	H	1.311467	-0.626526	0.773286
H297	H	1.644800	-0.293193	1.106620
C298	C	1.162421	-0.155989	0.935692
C299	C	1.495755	0.177344	1.269025
C300	C	1.829088	0.510677	1.602358
N301	N	1.201456	-0.132179	0.967542
N302	N	1.534789	0.201154	1.300876
N303	N	1.868123	0.534487	1.634209
H304	H	0.977879	-0.472574	0.439899
H305	H	1.311213	-0.139240	0.773232
H306	H	1.644546	0.194093	1.106566
C307	C	1.162519	-1.051619	0.255898
C308	C	1.495852	-0.718285	0.589231
C309	C	1.829186	-0.384952	0.922564
N310	N	1.201545	-1.071050	0.216946
N311	N	1.534878	-0.737716	0.550279
N312	N	1.868212	-0.404383	0.883613
H313	H	0.978018	-0.268469	0.785202
H314	H	1.311352	0.064864	1.118535
H315	H	1.644685	0.398198	1.451869
H316	H	0.930868	-0.603296	0.486934
H317	H	1.264201	-0.269963	0.820268
H318	H	1.597535	0.063370	1.153601
C319	C	0.917518	-0.835867	0.500397
C320	C	1.250851	-0.502533	0.833731
C321	C	1.584185	-0.169200	1.167064
N322	N	0.878505	-0.855307	0.539367
N323	N	1.211838	-0.521973	0.872700
N324	N	1.545172	-0.188640	1.206034
H325	H	0.930933	-0.744055	0.486951
H326	H	1.264267	-0.410721	0.820285
H327	H	1.597600	-0.077388	1.153618
C328	C	0.964383	-0.380751	0.453324
C329	C	1.297717	-0.047418	0.786657
C330	C	1.631050	0.285916	1.119991
N331	N	0.925365	-0.361319	0.492283
N332	N	1.258699	-0.027986	0.825617
N333	N	1.592032	0.305347	1.158950
H334	H	1.148776	-0.472514	0.269281
H335	H	1.482110	-0.139181	0.602614
H336	H	1.815443	0.194152	0.935947
C337	C	1.162172	-0.380700	0.255821
C338	C	1.495505	-0.047367	0.589154
C339	C	1.828838	0.285967	0.922488
N340	N	1.201182	-0.361258	0.216850
N341	N	1.534515	-0.027925	0.550184
N342	N	1.867848	0.305409	0.883517
C343	C	1.209472	-0.737271	0.208857
C344	C	1.542806	-0.403937	0.542190
C345	C	1.876139	-0.070604	0.875523
N346	N	1.248482	-0.717832	0.169882
N347	N	1.581815	-0.384499	0.503215
N348	N	1.915149	-0.051165	0.836548
H349	H	0.930905	-0.688414	0.486948
H350	H	1.264238	-0.355081	0.820281
H351	H	1.597572	-0.021747	1.153614
H352	H	1.195937	-0.603221	0.222289
H353	H	1.529270	-0.269887	0.555622
H354	H	1.862603	0.063446	0.888956
H355	H	1.195980	-0.688327	0.222299
H356	H	1.529314	-0.354994	0.555632
H357	H	1.862647	-0.021660	0.888966
