data_functionalizedCrystal
_audit_creation_method	'MofGen! by Chris Wilmer'
_symmetry_space_group_name_H-M	'P1'
_symmetry_Int_Tables_number	1
_symmetry_cell_setting	triclinic
loop_
_symmetry_equiv_pos_as_xyz
  x,y,z
_cell_length_a	14.853566
_cell_length_b	14.853567
_cell_length_c	13.330367
_cell_angle_alpha	89.999156
_cell_angle_beta	89.995295
_cell_angle_gamma	83.634672
loop_
_atom_site_label
_atom_site_type_symbol
_atom_site_fract_x
_atom_site_fract_y
_atom_site_fract_z
O1	O	1.196370	0.117698	-0.083349
O2	O	0.933910	0.131721	-0.083364
O3	O	1.072150	-0.006520	-0.083359
O4	O	1.058129	0.255939	-0.083354
O5	O	1.072130	-0.006523	0.083488
O6	O	0.933890	0.131718	0.083483
O7	O	1.196349	0.117695	0.083499
Cu8	Cu	1.065118	0.124706	0.098725
Cu9	Cu	1.065142	0.124710	-0.098591
O10	O	1.058109	0.255936	0.083493
C11	C	0.900311	0.131084	0.000057
C12	C	0.800227	0.129181	0.000051
C13	C	0.377053	0.121132	-0.090880
C14	C	0.377053	0.121129	0.091023
C15	C	0.471087	0.122916	0.091020
C16	C	0.518108	0.123813	0.000066
C17	C	0.471096	0.122922	-0.090886
C18	C	0.518105	0.123816	0.181970
C19	C	0.612145	0.125605	0.181971
C20	C	0.659169	0.126495	0.091015
C21	C	0.612151	0.125603	0.000060
C22	C	0.659172	0.126500	-0.090895
C23	C	0.612157	0.125601	-0.181851
C24	C	0.518120	0.123812	-0.181841
C25	C	0.753206	0.128284	0.091006
C26	C	0.753215	0.128290	-0.090900
C27	C	1.071505	-0.040111	0.000062
C28	C	1.069601	-0.140194	0.000053
C29	C	0.979435	-0.552728	0.000067
C30	C	1.143668	-0.574009	0.000076
C31	C	1.145458	-0.479976	0.000070
C32	C	1.064236	-0.422313	0.000064
C33	C	0.981223	-0.458685	0.000064
C34	C	1.228470	-0.443597	0.000081
C35	C	1.230263	-0.349558	0.000076
C36	C	1.149040	-0.291894	0.000063
C37	C	1.066023	-0.328271	0.000061
C38	C	0.984801	-0.270608	0.000055
C39	C	0.901784	-0.306984	0.000047
C40	C	0.899999	-0.401021	0.000050
C41	C	1.150824	-0.197856	0.000059
C42	C	0.986588	-0.176566	0.000052
C43	C	1.229948	0.118332	0.000075
C44	C	1.330032	0.120235	0.000075
C45	C	1.058754	0.289526	0.000071
C46	C	1.060658	0.389610	0.000073
N47	N	1.065108	0.124703	0.237507
N48	N	1.065159	0.124706	-0.237372
C49	C	1.003926	0.185899	0.710127
C50	C	1.126381	0.063514	0.710100
C51	C	1.126371	0.063511	0.605082
C52	C	1.065138	0.124704	0.552581
C53	C	1.003916	0.185900	0.605099
C54	C	1.187599	0.002322	0.552556
C55	C	1.187592	0.002318	0.447531
C56	C	1.126354	0.063507	0.395029
C57	C	1.065128	0.124705	0.447553
C58	C	1.003895	0.185898	0.395053
C59	C	0.942664	0.247092	0.447575
C60	C	0.942678	0.247089	0.552597
C61	C	1.126340	0.063510	0.290007
C62	C	1.003885	0.185899	0.290025
H63	H	0.338770	0.120397	-0.164934
O64	O	0.472541	0.122829	0.270378
C65	C	0.453825	0.044214	0.425825
C66	C	0.505520	0.045232	0.325748
H67	H	0.480455	-0.018527	0.470610
H68	H	0.464155	0.107567	0.470745
H69	H	0.378540	0.042819	0.410171
H70	H	0.580821	0.046595	0.341311
H71	H	0.495115	-0.018117	0.280858
H72	H	0.954018	0.235727	0.247285
O73	O	1.185938	0.004032	0.760939
C74	C	1.307336	-0.117421	0.749836
C75	C	1.239955	-0.050083	0.692132
H76	H	1.351014	-0.161203	0.694231
H77	H	1.352492	-0.078474	0.798972
H78	H	1.268333	-0.162481	0.799037
H79	H	1.278884	-0.005006	0.642877
H80	H	1.194799	-0.089086	0.643059
H81	H	1.209796	-0.620963	0.000089
O82	O	0.883172	0.306408	0.603731
C83	C	0.760066	0.325371	0.722301
C84	C	0.827415	0.258094	0.664466
H85	H	0.714957	0.286336	0.771404
H86	H	0.799005	0.370465	0.771525
H87	H	0.716335	0.369128	0.666726
H88	H	0.871163	0.214277	0.719969
H89	H	0.788421	0.213063	0.615228
H90	H	0.954070	0.235720	0.752894
O91	O	0.657926	0.126349	0.270258
C92	C	0.774163	0.050280	0.375847
C93	C	0.722400	0.049343	0.275816
H94	H	0.826289	-0.011982	0.380383
H95	H	0.810090	0.114114	0.380415
H96	H	0.724377	0.049375	0.440835
H97	H	0.772126	0.050214	0.210771
H98	H	0.686460	-0.014486	0.271335
O99	O	0.898718	-0.587907	0.000013
C100	C	0.736008	-0.556860	0.000057
C101	C	0.827357	-0.516899	0.000096
H102	H	0.678289	-0.499470	0.000145
H103	H	0.731012	-0.600318	-0.069788
H104	H	0.731102	-0.600387	0.069863
H105	H	0.832326	-0.473331	-0.069663
H106	H	0.832314	-0.473493	0.069987
H107	H	0.479831	0.123080	-0.255893
H108	H	0.835653	-0.260023	0.000048
H109	H	1.237457	-0.047495	0.595305
H110	H	0.650453	0.126337	-0.255906
H111	H	0.832411	-0.430646	0.000044
O112	O	1.246861	-0.057209	0.396360
C113	C	1.300679	-0.111889	0.234560
C114	C	1.233638	-0.044300	0.292386
H115	H	1.289999	-0.101489	0.150487
H116	H	1.373023	-0.100261	0.254963
H117	H	1.288605	-0.184007	0.255431
H118	H	1.245629	0.027844	0.271546
H119	H	1.161317	-0.056007	0.271979
O120	O	0.798992	0.129039	0.179284
C121	C	0.915238	0.052991	0.284877
C122	C	0.863471	0.052037	0.184851
H123	H	0.967367	-0.009268	0.289420
H124	H	0.951161	0.116828	0.289431
H125	H	0.865455	0.052092	0.349869
H126	H	0.913193	0.052902	0.119802
H127	H	0.827533	-0.011795	0.180384
O128	O	0.907603	-0.120684	0.000089
C129	C	0.744515	-0.109500	0.000008
C130	C	0.833897	-0.172888	-0.000009
H131	H	0.684901	-0.151681	-0.000092
H132	H	0.741171	-0.064959	0.069850
H133	H	0.741308	-0.064923	-0.069800
H134	H	0.837164	-0.217522	0.069753
H135	H	0.837205	-0.217367	-0.069897
O136	O	0.883275	0.306659	0.396617
C137	C	0.830600	0.463323	0.364525
C138	C	0.897919	0.395966	0.422284
H139	H	0.842403	0.535542	0.385271
H140	H	0.841118	0.452890	0.280430
H141	H	0.758389	0.451395	0.385165
H142	H	0.970156	0.407854	0.401727
H143	H	0.887321	0.406416	0.506364
H144	H	0.338762	0.120405	0.165074
O145	O	1.307280	-0.499736	0.000050
C146	C	1.377304	-0.654043	0.000126
C147	C	1.287981	-0.590564	0.000136
H148	H	1.361733	-0.727490	0.000217
H149	H	1.418178	-0.640875	-0.069708
H150	H	1.418136	-0.640749	0.069942
H151	H	1.247077	-0.603821	-0.069633
H152	H	1.247176	-0.603745	0.070017
H153	H	1.297861	-0.319950	0.000082
H154	H	1.218415	-0.168244	0.000073
H155	H	1.176198	0.013691	0.247248
H156	H	0.791493	0.129017	-0.164968
