data_functionalizedCrystal
_audit_creation_method	'MofGen! by Chris Wilmer'
_symmetry_space_group_name_H-M	'P1'
_symmetry_Int_Tables_number	1
_symmetry_cell_setting	triclinic
loop_
_symmetry_equiv_pos_as_xyz
  x,y,z
_cell_length_a	10.540539
_cell_length_b	10.654550
_cell_length_c	9.730223
_cell_angle_alpha	90.000043
_cell_angle_beta	89.997733
_cell_angle_gamma	95.494789
loop_
_atom_site_label
_atom_site_type_symbol
_atom_site_fract_x
_atom_site_fract_y
_atom_site_fract_z
O1	O	0.178301	-1.667902	-0.114180
O2	O	0.195288	-1.302429	-0.114205
O3	O	0.002085	-1.493504	-0.114190
O4	O	0.371504	-1.476827	-0.114195
O5	O	0.002079	-1.493491	0.114390
O6	O	0.195282	-1.302417	0.114375
O7	O	0.178295	-1.667889	0.114400
Zn8	Zn	0.186788	-1.485151	0.150679
Zn9	Zn	0.186795	-1.485167	-0.150484
O10	O	0.371498	-1.476815	0.114385
C11	C	0.194038	-1.255625	0.000082
C12	C	0.190306	-1.116180	0.000072
C13	C	-0.045221	-1.492247	0.000097
C14	C	-0.186167	-1.488505	0.000090
N15	N	0.186782	-1.485149	0.356216
C16	C	-0.369543	-1.345134	-0.000433
C17	C	-0.222926	-1.348927	0.000082
C18	C	-0.247852	-1.555670	0.130624
C19	C	-0.394395	-1.550906	0.130734
C20	C	-0.394908	-1.553759	-0.129204
C21	C	-0.247927	-1.555044	-0.130930
C22	C	0.418804	-1.478072	0.000095
C23	C	0.559750	-1.481813	0.000093
C24	C	0.179545	-1.714694	0.000110
C25	C	0.183277	-1.854139	0.000110
C26	C	0.304061	-1.036735	0.000075
C27	C	0.300547	-0.905712	0.000099
C28	C	0.069513	-0.933594	0.000112
C29	C	0.073029	-1.064614	0.000098
N30	N	0.186791	-1.485179	-0.356021
C31	C	0.101269	-1.569786	0.428148
C32	C	0.101269	-1.569799	0.572031
C33	C	0.272309	-1.400533	0.572037
C34	C	0.272301	-1.400516	0.428156
H35	H	-0.398121	-1.290002	-0.094042
N36	N	0.416748	-0.824565	0.000129
N37	N	0.494482	-0.829884	0.096479
H38	H	0.576555	-0.772574	0.096506
H39	H	-0.025970	-0.891593	0.000141
N40	N	-0.043188	-1.145757	0.000109
N41	N	-0.147890	-1.099704	0.000125
H42	H	-0.229966	-1.157010	0.000139
H43	H	-0.207048	-1.505901	-0.227496
H44	H	-0.225535	-1.658172	0.135484
H45	H	-0.223742	-1.656808	-0.138805
H46	H	0.341937	-1.331588	0.369585
H47	H	-0.422579	-1.501258	0.228305
H48	H	0.399556	-1.078715	0.000064
N49	N	-0.170510	-1.282183	0.117671
N50	N	-0.109633	-1.337949	0.205155
H51	H	-0.072613	-1.290812	0.288210
H52	H	0.031632	-1.638698	0.369578
N53	N	-0.169427	-1.282637	-0.117297
N54	N	-0.107941	-1.338786	-0.203913
H55	H	-0.070162	-1.291963	-0.286815
N56	N	-0.407424	-1.276248	0.116332
N57	N	-0.486270	-1.327378	0.199934
H58	H	-0.513028	-1.278731	0.282402
H59	H	-0.442400	-1.651289	0.136663
H60	H	0.341938	-1.331628	0.630625
N61	N	-0.194408	-1.497104	0.252471
N62	N	-0.204558	-1.382917	0.274492
H63	H	-0.166816	-1.341546	0.360544
H64	H	0.031634	-1.638716	0.630595
H65	H	-0.426442	-1.508590	-0.228141
H66	H	-0.442170	-1.654576	-0.130075
