data_functionalizedCrystal
_audit_creation_method	'MofGen! by Chris Wilmer'
_symmetry_space_group_name_H-M	'P1'
_symmetry_Int_Tables_number	1
_symmetry_cell_setting	triclinic
loop_
_symmetry_equiv_pos_as_xyz
  x,y,z
_cell_length_a	15.995350
_cell_length_b	14.472311
_cell_length_c	15.995350
_cell_angle_alpha	89.992572
_cell_angle_beta	96.507625
_cell_angle_gamma	90.000483
loop_
_atom_site_label
_atom_site_type_symbol
_atom_site_fract_x
_atom_site_fract_y
_atom_site_fract_z
O1	O	1.110984	0.076758	-0.107933
O2	O	0.867209	0.076776	-0.121260
O3	O	0.995761	0.076766	0.007291
O4	O	0.982433	0.076769	-0.236484
O5	O	0.995752	-0.076916	0.007307
O6	O	0.867200	-0.076906	-0.121244
O7	O	1.110976	-0.076924	-0.107917
Cu8	Cu	0.989087	-0.090947	-0.114579
Cu9	Cu	0.989098	0.090800	-0.114598
O10	O	0.982424	-0.076913	-0.236468
C11	C	0.836010	-0.000062	-0.120701
C12	C	0.743060	-0.000055	-0.119049
N13	N	0.989086	-0.218778	-0.114565
C14	C	0.405312	-0.000074	-0.113117
C15	C	0.452746	-0.000418	-0.021565
C16	C	0.549436	-0.000065	-0.023217
C17	C	0.572873	-0.000065	-0.116060
C18	C	0.531791	0.087692	-0.161225
C19	C	0.435155	0.087759	-0.158925
C20	C	0.434806	-0.087007	-0.160799
C21	C	0.531751	-0.088160	-0.160777
C22	C	0.667570	-0.000057	-0.117727
C23	C	0.310614	-0.000076	-0.111452
C24	C	0.989098	-0.592869	-0.114592
C25	C	1.058107	-0.553680	-0.046036
C26	C	1.057927	-0.446592	-0.045784
C27	C	0.989093	-0.407278	-0.114578
C28	C	0.901736	-0.446163	-0.095498
C29	C	0.902144	-0.553284	-0.095013
C30	C	1.006660	-0.553375	-0.202430
C31	C	1.008643	-0.446246	-0.201842
C32	C	0.989084	-0.302390	-0.114572
C33	C	0.989101	-0.697757	-0.114596
C34	C	1.142175	-0.000083	-0.108476
C35	C	1.235125	-0.000084	-0.110127
C36	C	0.995205	-0.000073	0.038494
C37	C	0.993553	-0.000068	0.131444
N38	N	0.989105	0.218631	-0.114605
C39	C	0.982980	-0.000072	-0.267671
C40	C	0.984631	-0.000071	-0.360621
C41	C	0.987621	-0.000071	0.469192
C42	C	0.896069	0.000281	0.421758
C43	C	0.897721	-0.000066	0.325068
C44	C	0.990564	-0.000069	0.301631
C45	C	1.035715	-0.087831	0.342718
C46	C	1.033415	-0.087904	0.439354
C47	C	1.035317	0.086861	0.439694
C48	C	1.035295	0.088021	0.342748
C49	C	0.992231	-0.000071	0.206934
C50	C	0.985956	-0.000075	0.563890
H51	H	0.577862	-0.062973	0.012285
H52	H	0.859480	0.063217	0.440283
H53	H	1.100631	-0.091888	0.471602
Cl54	Cl	1.158705	-0.593443	-0.063295
H55	H	0.433156	0.062168	0.014855
Cl56	Cl	0.592427	0.097395	0.031703
H57	H	1.072906	-0.420833	-0.216321
Cl58	Cl	0.936070	-0.404930	-0.284299
H59	H	1.047050	-0.580610	0.018780
H60	H	1.004348	-0.153137	0.314343
H61	H	1.068999	-0.580388	-0.220769
H62	H	1.046707	-0.420975	0.019402
H63	H	0.416850	0.153359	-0.126002
Cl64	Cl	1.158180	-0.405997	-0.063338
Cl65	Cl	0.878249	-0.591878	0.003891
H66	H	0.849250	-0.579209	-0.143047
H67	H	0.885878	-0.419343	-0.032167
H68	H	0.956338	-0.578722	-0.253448
Cl69	Cl	0.820538	-0.406848	-0.170533
H70	H	1.103000	0.093317	0.327386
Cl71	Cl	0.842922	0.097064	0.281172
H72	H	0.859636	-0.062299	0.441358
H73	H	0.861983	-0.063079	0.297210
Cl74	Cl	0.424139	-0.097584	0.034948
Cl75	Cl	0.982566	-0.189183	0.467624
Cl76	Cl	1.141025	-0.092879	0.320912
H77	H	1.005388	0.153379	0.460226
H78	H	0.402907	0.091741	-0.226142
H79	H	1.102817	0.087449	0.471454
H80	H	0.545916	0.090955	-0.229435
Cl81	Cl	0.984746	0.188275	0.300178
Cl82	Cl	0.575599	0.188529	-0.112814
H83	H	0.414267	-0.153524	-0.130861
H84	H	0.559064	-0.153082	-0.127806
Cl85	Cl	0.385770	-0.087924	-0.265013
Cl86	Cl	0.555465	-0.096343	-0.265310
