data_functionalizedCrystal
_audit_creation_method	'MofGen! by Chris Wilmer'
_symmetry_space_group_name_H-M	'P1'
_symmetry_Int_Tables_number	1
_symmetry_cell_setting	triclinic
loop_
_symmetry_equiv_pos_as_xyz
  x,y,z
_cell_length_a	6.817900
_cell_length_b	14.858565
_cell_length_c	10.943624
_cell_angle_alpha	93.396226
_cell_angle_beta	108.838799
_cell_angle_gamma	104.523916
loop_
_atom_site_label
_atom_site_type_symbol
_atom_site_fract_x
_atom_site_fract_y
_atom_site_fract_z
V1	V	-4.093440	-0.128646	-0.402911
O2	O	-4.074268	0.006207	-0.394871
O3	O	-4.049710	-0.255107	-0.400512
O4	O	-4.071744	-0.126656	-0.578472
O5	O	-4.052082	-0.123133	-0.215679
V6	V	-4.573003	-0.112517	-0.380473
O7	O	-4.363386	-0.164025	-0.452130
O8	O	-4.753254	-0.077137	-0.331254
O9	O	-4.393526	0.013944	-0.382873
O10	O	-4.709572	-0.247370	-0.388514
O11	O	-4.731758	-0.118029	-0.567706
O12	O	-4.371493	-0.114507	-0.204912
C13	C	-3.894983	-0.285936	-0.394248
C14	C	-3.940693	-0.389319	-0.393456
C15	C	-4.108001	-0.767890	-0.390576
C16	C	-4.061442	-0.662560	-0.391376
C17	C	-4.024347	-0.578608	-0.392015
C18	C	-3.977788	-0.473271	-0.392818
C19	C	-3.923088	-0.122082	-0.621252
C20	C	-3.986663	-0.121292	-0.764776
C21	C	-3.832405	-0.115971	-0.841909
C22	C	-4.008224	-0.194950	-0.948120
C23	C	-3.924150	-0.040915	-0.914302
C24	C	-4.161680	-0.200345	-0.869111
C25	C	-4.077537	-0.046240	-0.835269
C26	C	-4.253489	-0.125241	-0.941451
C27	C	-4.211595	0.044768	-0.389133
C28	C	-4.145124	0.148151	-0.389933
C29	C	-4.183490	-0.119083	-0.162126
C30	C	-4.099153	-0.119869	-0.018600
H31	H	-3.979584	-0.257819	-0.997245
O32	O	-4.111954	0.028725	-0.776766
C33	C	-4.332589	0.024558	-0.829394
H34	H	-4.407944	-0.019640	-0.930627
H35	H	-4.419505	-0.008775	-0.762913
C36	C	-4.261848	0.179022	-0.715603
C37	C	-4.354395	0.124744	-0.839944
H38	H	-4.275302	0.240821	-0.722106
H39	H	-4.113202	0.181829	-0.680142
H40	H	-4.334288	0.151234	-0.660215
H41	H	-4.281937	0.152525	-0.895325
H42	H	-4.503030	0.121944	-0.875415
H43	H	-4.261498	-0.267798	-0.848755
O44	O	-4.466696	-0.130101	-0.993042
C45	C	-4.591782	-0.214196	-0.970459
H46	H	-4.495839	-0.267898	-0.954725
H47	H	-4.633491	-0.199363	-0.879877
C48	C	-4.919522	-0.187594	-1.108731
C49	C	-4.801689	-0.253554	-1.089417
H50	H	-5.049007	-0.211871	-1.182105
H51	H	-4.835251	-0.130936	-1.123942
H52	H	-4.954257	-0.175239	-1.033237
H53	H	-4.766933	-0.265900	-1.164902
H54	H	-4.885959	-0.310216	-1.074221
O55	O	-3.804974	0.039544	-0.938557
C56	C	-3.659566	0.094779	-0.819358
H57	H	-3.723047	0.074818	-0.737314
H58	H	-3.494613	0.081845	-0.797745
C59	C	-3.559835	0.224071	-0.929943
C60	C	-3.637814	0.199559	-0.829177
H61	H	-3.546407	0.288704	-0.935999
H62	H	-3.657793	0.186856	-1.010250
H63	H	-3.422382	0.213284	-0.911919
H64	H	-3.775275	0.210334	-0.847209
H65	H	-3.539878	0.236777	-0.748872
H66	H	-3.653858	-0.112158	-0.798450
