data_functionalizedCrystal
_audit_creation_method	'MofGen! by Chris Wilmer'
_symmetry_space_group_name_H-M	'P1'
_symmetry_Int_Tables_number	1
_symmetry_cell_setting	triclinic
loop_
_symmetry_equiv_pos_as_xyz
  x,y,z
_cell_length_a	16.959455
_cell_length_b	29.839131
_cell_length_c	16.959447
_cell_angle_alpha	89.958432
_cell_angle_beta	89.979626
_cell_angle_gamma	90.032247
loop_
_atom_site_label
_atom_site_type_symbol
_atom_site_fract_x
_atom_site_fract_y
_atom_site_fract_z
Zn1	Zn	1.208301	-0.178880	-0.446975
Zn2	Zn	1.208188	-0.254013	-0.314770
Zn3	Zn	1.076129	-0.178894	-0.314798
Zn4	Zn	1.076059	-0.253980	-0.446895
O5	O	1.142169	-0.216442	-0.380859
O6	O	1.318897	-0.188855	-0.429459
O7	O	1.190653	-0.244069	-0.204163
O8	O	1.093738	-0.116025	-0.332377
O9	O	1.318814	-0.244055	-0.332329
O10	O	1.190844	-0.116015	-0.429486
O11	O	1.093629	-0.188879	-0.204183
O12	O	0.965509	-0.188847	-0.332299
O13	O	1.093619	-0.243998	-0.557516
O14	O	0.965457	-0.244012	-0.429350
O15	O	1.190776	-0.188822	-0.557575
O16	O	1.190584	-0.316876	-0.332251
O17	O	1.093509	-0.316852	-0.429323
C18	C	0.936803	-0.216427	-0.380819
C19	C	0.848946	-0.216432	-0.380821
C20	C	0.477417	-0.245156	-0.330258
C21	C	0.477524	-0.187765	-0.431557
C22	C	0.560070	-0.187758	-0.431538
C23	C	0.601293	-0.216450	-0.380879
C24	C	0.559971	-0.245151	-0.330239
C25	C	0.601399	-0.159061	-0.482182
C26	C	0.683950	-0.159053	-0.482166
C27	C	0.725175	-0.187744	-0.431502
C28	C	0.683847	-0.216445	-0.380860
C29	C	0.725070	-0.245138	-0.330200
C30	C	0.683744	-0.273837	-0.279553
C31	C	0.601195	-0.273842	-0.279575
C32	C	0.807723	-0.187739	-0.431480
C33	C	0.807623	-0.245132	-0.330181
C34	C	1.142049	-0.333165	-0.380793
C35	C	1.142069	-0.383099	-0.380791
C36	C	1.192721	-0.692702	-0.431496
C37	C	1.192807	-0.880375	-0.431544
O38	O	1.235755	-0.904606	-0.474606
N39	N	1.142303	-0.903884	-0.380947
C40	C	1.091771	-0.880472	-0.330338
O41	O	1.048811	-0.904774	-0.287310
C42	C	1.091682	-0.692800	-0.330296
C43	C	1.142194	-0.669293	-0.380890
C44	C	1.243229	-0.669195	-0.482087
C45	C	1.243210	-0.622280	-0.482072
C46	C	1.192683	-0.598871	-0.431465
C47	C	1.142175	-0.622378	-0.380875
C48	C	1.041146	-0.669388	-0.279692
C49	C	1.041127	-0.622467	-0.279687
C50	C	1.091639	-0.598961	-0.330281
C51	C	1.091630	-0.552053	-0.330253
N52	N	1.142133	-0.528544	-0.380850
C53	C	1.192660	-0.551953	-0.431456
C54	C	1.091823	-0.979002	-0.330363
C55	C	1.091846	-1.025920	-0.330373
C56	C	1.192881	-1.025820	-0.431580
C57	C	1.192861	-0.978902	-0.431565
C58	C	1.142326	-0.955493	-0.380960
C59	C	1.192617	-0.453427	-0.431419
C60	C	1.192596	-0.406508	-0.431397
C61	C	1.091558	-0.406612	-0.330194
C62	C	1.091582	-0.453527	-0.330213
C63	C	1.142114	-0.476934	-0.380832
O64	O	1.048698	-0.527794	-0.287219
O65	O	1.235601	-0.527643	-0.474491
C66	C	1.192740	-0.739617	-0.431512
C67	C	1.142232	-0.763124	-0.380921
C68	C	1.091706	-0.739715	-0.330314
C69	C	1.142255	-0.810042	-0.380930
C70	C	1.192782	-0.833451	-0.431537
C71	C	1.243286	-0.809942	-0.482133
C72	C	1.243267	-0.763026	-0.482118
C73	C	1.041202	-0.763224	-0.279718
C74	C	1.041226	-0.810140	-0.279737
C75	C	1.091752	-0.833548	-0.330343
C76	C	1.348337	-0.216457	-0.380900
C77	C	1.436194	-0.216463	-0.380917
C78	C	1.142202	-0.216405	-0.587028
C79	C	1.142216	-0.216389	-0.674884
C80	C	1.142312	-0.099264	-0.380943
C81	C	1.142372	-0.049329	-0.380979
C82	C	1.091725	-0.245069	-1.046332
C83	C	1.192896	-0.187614	-1.046388
C84	C	1.192875	-0.187624	-0.963842
C85	C	1.142279	-0.216357	-0.922537
C86	C	1.091704	-0.245080	-0.963778
C87	C	1.243455	-0.158904	-0.922595
C88	C	1.243436	-0.158913	-0.840044
C89	C	1.192836	-0.187644	-0.798738
C90	C	1.142258	-0.216368	-0.839984
C91	C	1.091662	-0.245101	-0.798679
C92	C	1.041080	-0.273823	-0.839924
C93	C	1.041103	-0.273811	-0.922472
C94	C	1.192812	-0.187656	-0.716189
C95	C	1.091641	-0.245112	-0.716125
C96	C	1.142182	-0.216447	-0.175493
C97	C	1.142321	-0.216336	-0.087637
H98	H	0.567829	-0.135704	-0.523431
H99	H	1.233997	-0.164272	-0.682611
N100	N	1.040058	-0.274401	-1.088469
N101	N	1.040076	-0.274386	-1.162173
H102	H	1.003585	-0.295102	-1.191934
N103	N	0.435409	-0.158470	-0.483315
N104	N	0.389368	-0.174326	-0.533633
H105	H	0.359617	-0.153638	-0.570190
H106	H	1.284623	-0.135525	-0.806470
H107	H	1.050670	-0.959947	-0.289153
H108	H	1.284399	-0.743891	-0.523317
H109	H	0.841367	-0.164374	-0.472718
N110	N	0.849729	-0.274435	-0.278421
N111	N	0.840472	-0.271400	-0.205497
H112	H	0.870210	-0.292094	-0.168939
N113	N	0.725868	-0.303146	-0.227820
N114	N	0.799572	-0.303137	-0.227822
H115	H	0.829326	-0.323837	-0.191287
N116	N	1.294899	-0.833865	-0.533816
N117	N	1.294903	-0.875756	-0.533813
H118	H	1.331350	-0.892655	-0.570313
H119	H	0.999925	-0.297197	-0.956061
H120	H	1.233760	-0.472480	-0.472643
H121	H	1.050432	-0.268507	-0.682501
N122	N	0.558969	-0.303152	-0.227850
N123	N	0.485266	-0.303153	-0.227879
H124	H	0.455440	-0.323854	-0.191350
H125	H	1.233732	-0.387370	-0.472597
H126	H	1.234093	-0.164224	-1.080024
N127	N	1.294812	-0.598279	-0.533759
N128	N	1.339916	-0.619193	-0.578937
H129	H	1.376361	-0.602246	-0.615446
H130	H	1.050422	-0.387545	-0.288988
H131	H	1.000093	-0.829275	-0.238529
N132	N	1.294847	-0.693095	-0.533794
N133	N	1.339932	-0.672093	-0.578958
H134	H	1.376394	-0.688969	-0.615476
H135	H	0.717591	-0.135684	-0.523405
N136	N	0.989579	-0.739324	-0.228019
N137	N	0.944493	-0.760324	-0.182853
H138	H	0.908033	-0.743446	-0.146335
H139	H	1.233992	-0.959765	-0.472764
H140	H	1.234023	-1.044888	-0.472784
H141	H	0.443765	-0.268521	-0.289020
N142	N	1.295138	-0.129564	-0.964797
N143	N	1.295146	-0.129559	-1.038501
H144	H	1.331650	-0.108837	-1.068311
N145	N	1.040257	-1.049922	-0.278673
N146	N	0.995152	-1.029010	-0.233494
H147	H	0.958714	-1.045959	-0.196980
N148	N	0.989399	-0.303167	-0.797715
N149	N	0.939048	-0.287360	-0.751652
H150	H	0.902549	-0.308083	-0.721838
N151	N	0.989533	-0.693385	-0.228014
N152	N	0.944417	-0.672469	-0.182851
H153	H	0.907957	-0.689416	-0.146355
H154	H	0.999973	-0.603411	-0.238479
H155	H	1.050457	-0.472668	-0.289008
