data_functionalizedCrystal
_audit_creation_method	'MofGen! by Chris Wilmer'
_symmetry_space_group_name_H-M	'P1'
_symmetry_Int_Tables_number	1
_symmetry_cell_setting	triclinic
loop_
_symmetry_equiv_pos_as_xyz
  x,y,z
_cell_length_a	19.188905
_cell_length_b	18.266242
_cell_length_c	19.188930
_cell_angle_alpha	89.989745
_cell_angle_beta	96.860332
_cell_angle_gamma	90.016065
loop_
_atom_site_label
_atom_site_type_symbol
_atom_site_fract_x
_atom_site_fract_y
_atom_site_fract_z
O1	O	0.926160	0.061010	-0.087084
O2	O	0.722847	0.060986	-0.098837
O3	O	0.830371	0.060984	0.008696
O4	O	0.818636	0.061011	-0.194617
O5	O	0.830353	-0.060778	0.008699
O6	O	0.722828	-0.060776	-0.098834
O7	O	0.926142	-0.060752	-0.087081
Zn8	Zn	0.824482	-0.080097	-0.092957
Zn9	Zn	0.824506	0.080330	-0.092961
O10	O	0.818618	-0.060751	-0.194614
C11	C	0.696826	0.000102	-0.098458
C12	C	0.619321	0.000092	-0.097324
C13	C	0.582939	0.066466	-0.096781
C14	C	0.510115	0.066475	-0.095708
C15	C	0.473678	0.000106	-0.095164
C16	C	0.510068	-0.066277	-0.095711
C17	C	0.582890	-0.066284	-0.096791
N18	N	0.364651	-0.049292	-0.053734
N19	N	0.295474	-0.049280	-0.052706
C20	C	0.254272	0.000123	-0.091911
N21	N	0.284861	0.049526	-0.132173
N22	N	0.354045	0.049517	-0.133198
C23	C	0.394716	0.000106	-0.093993
C24	C	0.138926	0.066512	-0.090206
C25	C	0.066100	0.066518	-0.089137
C26	C	0.066056	-0.066236	-0.089133
C27	C	0.138879	-0.066240	-0.090209
C28	C	0.175310	0.000136	-0.090742
N29	N	0.824471	-0.189583	-0.092954
C30	C	0.866681	-0.227875	-0.135196
C31	C	0.866692	-0.304520	-0.135194
C32	C	0.824481	-0.342870	-0.092958
C33	C	0.782269	-0.304570	-0.050708
C34	C	0.782264	-0.227926	-0.050706
N35	N	0.763333	-0.463231	-0.091244
N36	N	0.763339	-0.536039	-0.091250
C37	C	0.824495	-0.573793	-0.092961
N38	N	0.885645	-0.535988	-0.094679
N39	N	0.885637	-0.463173	-0.094677
C40	C	0.824482	-0.425977	-0.092955
C41	C	0.866721	-0.695191	-0.135202
C42	C	0.866734	-0.771838	-0.135195
C43	C	0.782304	-0.771886	-0.050714
C44	C	0.782298	-0.695241	-0.050717
C45	C	0.824505	-0.656898	-0.092965
C46	C	0.952163	0.000134	-0.087460
C47	C	1.029668	0.000148	-0.088594
C48	C	0.829982	0.000101	0.034708
C49	C	0.828841	0.000095	0.112213
N50	N	0.824523	0.189817	-0.092959
C51	C	0.819007	0.000134	-0.220626
C52	C	0.820148	0.000145	-0.298131
C53	C	0.891933	0.000099	0.157142
C54	C	0.890861	0.000110	0.229966
C55	C	0.826694	0.000103	0.257857
C56	C	0.763594	0.000103	0.212917
C57	C	0.764668	0.000099	0.140095
N58	N	0.777640	-0.041341	0.365858
N59	N	0.776624	-0.041338	0.435037
C60	C	0.823456	0.000118	0.477265
N61	N	0.871352	0.041561	0.447703
N62	N	0.872369	0.041556	0.378518
C63	C	0.825523	0.000108	0.336819
C64	C	0.885390	0.000135	0.601159
C65	C	0.884315	0.000151	0.673984
C66	C	0.757047	0.000137	0.656933
C67	C	0.758123	0.000128	0.584110
C68	C	0.822296	0.000124	0.556228
H69	H	0.168502	-0.120290	-0.090646
H70	H	0.480487	0.120527	-0.095267
H71	H	0.168589	0.120559	-0.090647
H72	H	0.704801	0.000135	0.679641
H73	H	0.901111	-0.803013	-0.169592
F74	F	0.911620	-0.345281	-0.180154
H75	H	0.747901	-0.335800	-0.016319
F76	F	0.737333	-0.187172	-0.005747
F77	F	0.737386	-0.812696	-0.005756
H78	H	0.935694	0.000158	0.710565
F79	F	0.958014	0.000115	0.277792
H80	H	0.706747	0.000121	0.547527
H81	H	0.901052	-0.196661	-0.169595
H82	H	0.612597	0.120515	-0.097215
F83	F	0.911653	-0.654382	-0.180154
F84	F	0.471288	-0.136912	-0.095135
F85	F	0.737360	-0.654487	-0.005768
F86	F	0.027281	-0.136872	-0.088560
F87	F	0.027380	0.137167	-0.088565
F88	F	0.960232	0.000110	0.127472
H89	H	0.711349	0.000099	0.235631
H90	H	0.937644	0.000135	0.578456
F91	F	0.621611	-0.136932	-0.097369
F92	F	0.697514	0.000095	0.092276
