data_functionalizedCrystal
_audit_creation_method	'MofGen! by Chris Wilmer'
_symmetry_space_group_name_H-M	'P1'
_symmetry_Int_Tables_number	1
_symmetry_cell_setting	triclinic
loop_
_symmetry_equiv_pos_as_xyz
  x,y,z
_cell_length_a	10.723023
_cell_length_b	10.654551
_cell_length_c	9.198806
_cell_angle_alpha	89.999648
_cell_angle_beta	89.996191
_cell_angle_gamma	84.476455
loop_
_atom_site_label
_atom_site_type_symbol
_atom_site_fract_x
_atom_site_fract_y
_atom_site_fract_z
O1	O	1.657215	0.176142	-0.120879
O2	O	1.294065	0.193004	-0.120881
O3	O	1.483989	0.001832	-0.120881
O4	O	1.467291	0.367313	-0.120879
O5	O	1.483974	0.001832	0.120904
O6	O	1.294050	0.193003	0.120904
O7	O	1.657200	0.176141	0.120907
Cu8	Cu	1.475624	0.184572	0.142982
Cu9	Cu	1.475642	0.184573	-0.142957
O10	O	1.467276	0.367313	0.120906
C11	C	1.247558	0.191777	0.000011
C12	C	1.109003	0.188106	0.000009
C13	C	0.904026	0.182675	0.125256
C14	C	1.047230	0.186469	0.125260
C15	C	1.482755	-0.044966	0.000009
C16	C	1.479086	-0.184408	-0.000001
C17	C	1.477373	-0.249920	-0.131796
C18	C	1.473915	-0.380939	-0.131789
C19	C	1.473888	-0.380926	0.131818
C20	C	1.477338	-0.249907	0.131810
C21	C	1.479122	-0.184421	-0.263607
C22	C	1.477411	-0.249933	-0.395412
C23	C	1.473952	-0.380952	-0.395406
C24	C	1.472206	-0.446460	-0.263594
C25	C	1.703707	0.177369	0.000011
C26	C	1.842262	0.181039	0.000003
C27	C	1.468510	0.414111	0.000013
C28	C	1.472179	0.553553	0.000014
N29	N	1.475620	0.184571	0.344096
N30	N	1.475655	0.184564	-0.344071
C31	C	1.555364	0.103950	0.416293
C32	C	1.555383	0.103945	0.583706
H33	H	1.481941	-0.077738	-0.263627
H34	H	1.472467	-0.434273	0.239133
H35	H	1.407384	0.253596	0.593852
H36	H	1.478706	-0.196563	0.239129
O37	O	1.636674	0.021456	0.342221
C38	C	1.707371	-0.196331	0.295313
C39	C	1.615194	-0.103059	0.379279
H40	H	1.690055	-0.297020	0.325267
H41	H	1.692822	-0.181730	0.173490
H42	H	1.807551	-0.179279	0.325098
H43	H	1.514978	-0.120054	0.349616
H44	H	1.629853	-0.117681	0.501082
H45	H	1.623659	0.034927	0.645792
H46	H	1.407358	0.253587	0.406224
O47	O	1.472061	-0.444621	-0.523394
C48	C	1.360297	-0.579309	-0.676346
C49	C	1.362259	-0.507242	-0.531358
H50	H	1.271544	-0.629978	-0.682819
H51	H	1.362056	-0.510032	-0.770608
H52	H	1.445899	-0.651344	-0.682905
H53	H	1.276671	-0.435207	-0.524658
H54	H	1.360563	-0.576594	-0.437166
H55	H	1.100346	0.187871	0.232493
O56	O	0.840800	0.180831	0.253279
C57	C	0.813838	0.071112	0.478480
C58	C	0.885555	0.073061	0.333557
H59	H	0.849977	-0.016025	0.543412
H60	H	0.828731	0.159467	0.543618
H61	H	0.709636	0.068414	0.455644
H62	H	0.989778	0.075715	0.356260
H63	H	0.870557	-0.015289	0.268464
H64	H	1.055896	0.186696	-0.107230
O65	O	0.905762	0.182891	-0.127836
C66	C	1.039665	0.295446	-0.280633
C67	C	0.967838	0.293492	-0.135786
H68	H	1.089850	0.384870	-0.287121
H69	H	1.111360	0.209385	-0.287151
H70	H	0.970874	0.293561	-0.374916
H71	H	1.036533	0.295419	-0.041420
H72	H	0.896125	0.379545	-0.129395
H73	H	1.478821	-0.196586	-0.502728
H74	H	1.469372	-0.553144	-0.263599
