data_functionalizedCrystal
_audit_creation_method	'MofGen! by Chris Wilmer'
_symmetry_space_group_name_H-M	'P1'
_symmetry_Int_Tables_number	1
_symmetry_cell_setting	triclinic
loop_
_symmetry_equiv_pos_as_xyz
  x,y,z
_cell_length_a	6.817900
_cell_length_b	13.466098
_cell_length_c	16.305550
_cell_angle_alpha	93.526698
_cell_angle_beta	103.455250
_cell_angle_gamma	111.116846
loop_
_atom_site_label
_atom_site_type_symbol
_atom_site_fract_x
_atom_site_fract_y
_atom_site_fract_z
V1	V	-4.066653	-0.148338	-0.263802
O2	O	-4.012151	0.006203	-0.257992
O3	O	-4.057576	-0.293239	-0.262756
O4	O	-4.017548	-0.146462	-0.378509
O5	O	-4.052456	-0.141590	-0.141437
V6	V	-4.545277	-0.129805	-0.249074
O7	O	-4.338658	-0.188991	-0.296109
O8	O	-4.723470	-0.089152	-0.216767
O9	O	-4.331148	0.015096	-0.250120
O10	O	-4.717176	-0.284345	-0.254884
O11	O	-4.676871	-0.136553	-0.371439
O12	O	-4.371176	-0.131681	-0.134367
C13	C	-3.912165	-0.328550	-0.258789
C14	C	-3.986025	-0.447011	-0.258699
C15	C	-4.273699	-0.619419	-0.262814
C16	C	-4.204312	-0.508114	-0.262895
C17	C	-3.837115	-0.497220	-0.254418
C18	C	-3.906503	-0.608525	-0.254337
C19	C	-4.124800	-0.669621	-0.258536
C20	C	-4.194190	-0.780929	-0.258461
C21	C	-3.826992	-0.770032	-0.249978
C22	C	-3.757604	-0.658727	-0.250059
C23	C	-3.861105	-0.141320	-0.406444
C24	C	-3.902500	-0.140745	-0.500222
C25	C	-4.052980	-0.138518	-0.840956
C26	C	-3.815131	-0.131906	-0.799993
C27	C	-3.772221	-0.132945	-0.702504
C28	C	-3.978324	-0.139622	-0.671914
C29	C	-4.174025	-0.244865	-0.723087
C30	C	-4.215727	-0.244270	-0.820634
C31	C	-4.081098	-0.040729	-0.794605
C32	C	-4.032941	-0.039896	-0.696758
C33	C	-3.936145	-0.140250	-0.576379
C34	C	-4.095170	-0.137898	-0.936492
C35	C	-4.139902	0.050402	-0.254084
C36	C	-4.045281	0.168861	-0.254180
C37	C	-4.190962	-0.136826	-0.106428
C38	C	-4.128804	-0.137395	-0.012648
H39	H	-3.579863	-0.608967	-0.246636
C40	C	-3.708660	-0.228955	-0.680982
H41	H	-3.682173	-0.229915	-0.621256
H42	H	-3.824423	-0.294277	-0.710890
H43	H	-3.580140	-0.221897	-0.697511
C44	C	-3.663188	-0.825254	-0.245259
H45	H	-3.735768	-0.900292	-0.245804
H46	H	-3.604715	-0.814676	-0.293001
H47	H	-3.548040	-0.794869	-0.194045
C48	C	-3.573470	-0.030734	-0.654656
H49	H	-3.518280	0.011797	-0.694762
H50	H	-3.616555	0.009785	-0.617803
H51	H	-3.462922	-0.050731	-0.621895
C52	C	-4.368102	-0.452895	-0.267602
H53	H	-4.508046	-0.505227	-0.270096
H54	H	-4.320310	-0.399799	-0.218335
H55	H	-4.377028	-0.419605	-0.317291
H56	H	-3.688283	-0.055879	-0.811962
H57	H	-4.199748	-0.318300	-0.851400
C58	C	-3.780062	-0.226818	-0.843048
H59	H	-3.909745	-0.270459	-0.885877
H60	H	-3.663014	-0.199767	-0.868369
H61	H	-3.745833	-0.268797	-0.801457
H62	H	-3.890690	0.037948	-0.661976
C63	C	-4.453960	-0.256753	-0.858520
H64	H	-4.524855	-0.262172	-0.814282
H65	H	-4.455693	-0.195721	-0.884487
H66	H	-4.528324	-0.320097	-0.900154
C67	C	-4.314963	-0.045992	-0.830858
H68	H	-4.330963	0.013296	-0.802597
H69	H	-4.341292	-0.043025	-0.890306
H70	H	-4.416917	-0.111501	-0.822025
C71	C	-4.384125	-0.256632	-0.697594
H72	H	-4.500365	-0.320780	-0.729291
H73	H	-4.361163	-0.260129	-0.638286
H74	H	-4.420482	-0.196249	-0.709491
C75	C	-4.126396	-0.344902	-0.700904
H76	H	-3.987418	-0.322751	-0.660495
H77	H	-4.235846	-0.389242	-0.677300
H78	H	-4.126493	-0.384420	-0.751237
H79	H	-3.967974	0.039013	-0.807559
H80	H	-4.179872	-0.038586	-0.675404
H81	H	-4.451449	-0.669166	-0.266242
H82	H	-3.659373	-0.447454	-0.250988
H83	H	-4.371939	-0.830673	-0.261884
