data_functionalizedCrystal
_audit_creation_method	'MofGen! by Chris Wilmer'
_symmetry_space_group_name_H-M	'P1'
_symmetry_Int_Tables_number	1
_symmetry_cell_setting	triclinic
loop_
_symmetry_equiv_pos_as_xyz
  x,y,z
_cell_length_a	12.759400
_cell_length_b	21.395362
_cell_length_c	21.395356
_cell_angle_alpha	89.957023
_cell_angle_beta	89.976983
_cell_angle_gamma	90.030564
loop_
_atom_site_label
_atom_site_type_symbol
_atom_site_fract_x
_atom_site_fract_y
_atom_site_fract_z
Zn1	Zn	-0.417848	0.957923	-0.354606
Zn2	Zn	-0.593540	0.957857	-0.249837
Zn3	Zn	-0.417925	0.853140	-0.249807
Zn4	Zn	-0.593534	0.853137	-0.354542
O5	O	-0.505711	0.905514	-0.302198
O6	O	-0.441124	1.045592	-0.340747
O7	O	-0.570279	0.943939	-0.162155
O8	O	-0.270893	0.867069	-0.263723
O9	O	-0.570205	1.045544	-0.263774
O10	O	-0.270837	0.944053	-0.340719
O11	O	-0.441255	0.867004	-0.162133
O12	O	-0.441249	0.765462	-0.263661
O13	O	-0.570194	0.867063	-0.442228
O14	O	-0.570268	0.765459	-0.340609
O15	O	-0.441118	0.944050	-0.442275
O16	O	-0.740560	0.943936	-0.263712
O17	O	-0.740556	0.866999	-0.340638
C18	C	-0.505767	0.742727	-0.302125
C19	C	-0.505816	0.673085	-0.302109
C20	C	-0.778679	0.905477	-0.302185
C21	C	-0.895455	0.905518	-0.302200
C22	C	-0.573086	0.640387	-0.342116
C23	C	-0.573060	0.574952	-0.342144
C24	C	-0.505776	0.542217	-0.302154
C25	C	-0.438493	0.574923	-0.262144
C26	C	-0.438513	0.640357	-0.262122
C27	C	-0.497327	0.438492	-0.245748
C28	C	-0.497314	0.373059	-0.245769
C29	C	-0.505707	0.340396	-0.302223
C30	C	-0.514135	0.373175	-0.358657
C31	C	-0.514155	0.438609	-0.358635
C32	C	-0.505746	0.471265	-0.302174
C33	C	-0.572952	0.236746	-0.342263
C34	C	-0.572919	0.171309	-0.342292
C35	C	-0.438358	0.171281	-0.262287
C36	C	-0.438386	0.236717	-0.262264
C37	C	-0.505688	0.269445	-0.302251
C38	C	-0.950285	0.945624	-0.262189
C39	C	-1.060009	0.945663	-0.262209
C40	C	-1.060064	0.865484	-0.342252
C41	C	-0.950342	0.865449	-0.342235
C42	C	-0.895398	0.985693	-0.222154
C43	C	-0.950228	1.025802	-0.182139
C44	C	-1.059952	1.025840	-0.182159
C45	C	-1.114846	0.985770	-0.222193
C46	C	-0.231678	0.905569	-0.302225
C47	C	-0.114902	0.905592	-0.302236
C48	C	-0.505646	0.905563	-0.465621
C49	C	-0.505619	0.905584	-0.535263
C50	C	-0.505656	1.068938	-0.302271
C51	C	-0.505633	1.138579	-0.302303
C52	C	-0.438428	0.865535	-0.567955
C53	C	-0.438409	0.865533	-0.633390
C54	C	-0.505569	0.905591	-0.666131
C55	C	-0.572772	0.945644	-0.633431
C56	C	-0.572797	0.945640	-0.567997
C57	C	-0.513802	0.962045	-0.769837
C58	C	-0.513770	0.962049	-0.835270
C59	C	-0.505498	0.905602	-0.867952
C60	C	-0.497236	0.849148	-0.835193
C61	C	-0.497261	0.849144	-0.769759
C62	C	-0.505549	0.905599	-0.737083
C63	C	-0.438283	0.865547	-0.971596
C64	C	-0.438270	0.865543	-1.037033
C65	C	-0.572628	0.945660	-1.037073
C66	C	-0.572646	0.945657	-0.971638
C67	C	-0.505467	0.905602	-0.938903
C68	C	-0.505701	0.905501	-0.139410
C69	C	-0.505432	0.905602	-0.069770
H70	H	-0.627887	0.667031	-0.374678
C71	C	-1.120452	0.821404	-0.386280
N72	N	-1.165937	0.788200	-0.419441
H73	H	-0.383583	0.832931	-0.944943
H74	H	-0.490536	0.803178	-0.743089
C75	C	-0.774700	0.985663	-0.222138
N76	N	-0.683790	0.985643	-0.222130
H77	H	-0.383559	0.832926	-1.063650
H78	H	-0.383708	0.548266	-0.229585
H79	H	-0.905527	1.058429	-0.149548
C80	C	-0.488146	0.787050	-0.871138
N81	N	-0.481301	0.740279	-0.898215
H82	H	-0.490488	0.465080	-0.199774
C83	C	-0.646458	0.989753	-1.073084
N84	N	-0.702053	1.022975	-1.100211
C85	C	-1.120262	1.069961	-0.138143
N86	N	-1.165685	1.103191	-0.104986
C87	C	-0.646693	0.989712	-0.532035
N88	N	-0.702345	1.022914	-0.504947
H89	H	-0.627357	0.978271	-0.945020
C90	C	-0.364514	0.676326	-0.218106
N91	N	-0.308779	0.703418	-0.184951
C92	C	-1.235547	0.985817	-0.222214
N93	N	-1.326457	0.985851	-0.222227
C94	C	-0.488036	0.337009	-0.183692
N95	N	-0.481042	0.309858	-0.136933
H96	H	-0.521014	0.465294	-0.404585
H97	H	-0.905700	0.832792	-0.374817
H98	H	-0.627454	0.978259	-0.660093
C99	C	-0.646974	0.272749	-0.386257
N100	N	-0.702725	0.299865	-0.419395
C101	C	-0.364538	0.821468	-0.531950
N102	N	-0.308886	0.788274	-0.504831
H103	H	-0.383689	0.832921	-0.660013
H104	H	-0.520530	1.008015	-0.743233
C105	C	-0.647068	0.538977	-0.386154
N106	N	-0.702812	0.511882	-0.419302
C107	C	-0.523364	0.337251	-0.420761
N108	N	-0.530315	0.310190	-0.467537
H109	H	-0.520492	1.008017	-0.861937
H110	H	-0.383569	0.144629	-0.229729
C111	C	-0.364392	0.272686	-0.218247
N112	N	-0.308656	0.299778	-0.185091
C113	C	-0.646934	0.135342	-0.386300
N114	N	-0.702688	0.108250	-0.419445
