data_functionalizedCrystal
_audit_creation_method	'MofGen! by Chris Wilmer'
_symmetry_space_group_name_H-M	'P1'
_symmetry_Int_Tables_number	1
_symmetry_cell_setting	triclinic
loop_
_symmetry_equiv_pos_as_xyz
  x,y,z
_cell_length_a	17.699083
_cell_length_b	10.489741
_cell_length_c	16.776229
_cell_angle_alpha	89.993659
_cell_angle_beta	89.998886
_cell_angle_gamma	83.911094
loop_
_atom_site_label
_atom_site_type_symbol
_atom_site_fract_x
_atom_site_fract_y
_atom_site_fract_z
O1	O	1.005134	0.161296	-0.066176
O2	O	0.784893	0.182281	-0.066202
O3	O	0.900025	-0.013903	-0.066184
O4	O	0.890002	0.357479	-0.066194
O5	O	0.900009	-0.013915	0.066393
O6	O	0.784877	0.182269	0.066375
O7	O	1.005118	0.161284	0.066401
Zn8	Zn	0.894995	0.171774	0.087437
Zn9	Zn	0.895016	0.171790	-0.087238
O10	O	0.889986	0.357467	0.066382
C11	C	0.756683	0.181523	0.000083
C12	C	0.672650	0.179267	0.000073
C13	C	0.899260	-0.061427	0.000104
C14	C	0.896995	-0.203014	0.000102
C15	C	0.624782	0.294422	0.000070
C16	C	0.545825	0.292295	0.000080
C17	C	0.514737	0.175011	0.000088
C18	C	0.562611	0.059847	0.000094
C19	C	0.641567	0.061975	0.000089
C20	C	0.244192	0.051260	0.000114
C21	C	0.165230	0.049140	0.000116
C22	C	0.148450	0.281580	0.000105
C23	C	0.227406	0.283709	0.000100
C24	C	0.275273	0.168545	0.000110
C25	C	0.360887	0.170853	0.000100
C26	C	0.429124	0.172702	0.000092
C27	C	0.823740	-0.269793	0.000088
C28	C	0.858337	-0.362564	0.065459
C29	C	0.858370	-0.362527	-0.065251
C30	C	0.931623	-0.293920	0.065528
C31	C	0.931645	-0.293874	-0.065241
C32	C	0.966296	-0.386619	0.000146
C33	C	1.033328	0.162042	0.000114
C34	C	1.117361	0.164297	0.000119
C35	C	0.890751	0.404991	0.000093
C36	C	0.893016	0.546578	0.000089
N37	N	0.894987	0.171763	0.206648
N38	N	0.895030	0.171791	-0.206450
C39	C	0.945983	0.084928	0.248373
C40	C	0.945987	0.084927	0.331826
C41	C	0.894998	0.171767	0.373551
C42	C	0.843996	0.258606	0.331820
C43	C	0.843989	0.258600	0.248369
C44	C	0.844024	0.258631	0.668367
C45	C	0.844037	0.258633	0.751824
C46	C	0.946022	0.084958	0.751823
C47	C	0.946015	0.084952	0.668373
C48	C	0.895011	0.171786	0.626649
C49	C	0.895006	0.171784	0.536161
C50	C	0.895006	0.171776	0.464038
H51	H	0.650088	0.389929	0.000063
O52	O	0.101842	0.393337	0.000139
C53	C	0.025487	0.366319	0.000127
H54	H	0.021914	0.266146	0.025235
H55	H	-0.009876	0.439739	0.038615
H56	H	0.002679	0.371224	-0.063475
H57	H	0.802462	0.329308	0.214397
H58	H	0.802476	0.329309	0.365798
H59	H	0.763510	-0.219023	0.000147
H60	H	0.252713	0.379213	0.000090
O61	O	0.821502	-0.398755	-0.131268
C62	C	0.859492	-0.362012	-0.200074
H63	H	0.921159	-0.350625	-0.184719
H64	H	0.857601	-0.438720	-0.247953
H65	H	0.830436	-0.266982	-0.223188
O66	O	0.968499	-0.257329	-0.131187
C67	C	0.919193	-0.170465	-0.175990
H68	H	0.872766	-0.122854	-0.135477
H69	H	0.952704	-0.094069	-0.202971
H70	H	0.892239	-0.224228	-0.225750
H71	H	0.506854	0.386067	0.000077
O72	O	0.688146	-0.049802	-0.000017
C73	C	0.734305	-0.055536	-0.068691
H74	H	0.738845	0.045693	-0.091588
H75	H	0.793379	-0.103226	-0.053248
H76	H	0.708018	-0.113709	-0.116768
H77	H	0.139922	-0.046372	0.000123
H78	H	0.283156	-0.042514	0.000122
O79	O	1.038224	-0.446873	0.000335
C80	C	1.076549	-0.411877	0.069340
H81	H	1.033272	-0.378480	0.117288
H82	H	1.115133	-0.498087	0.092158
H83	H	1.112231	-0.330768	0.054373
H84	H	0.987507	0.014218	0.214406
O85	O	0.532502	-0.054163	-0.000006
C86	C	0.556886	-0.124326	-0.068677
H87	H	0.611827	-0.089733	-0.091570
H88	H	0.567264	-0.230578	-0.053232
H89	H	0.511285	-0.109405	-0.116757
H90	H	0.827335	-0.393005	0.120719
O91	O	0.995607	0.000542	0.372234
C92	C	1.040603	-0.076115	0.317511
H93	H	1.041725	-0.023827	0.258018
H94	H	1.100942	-0.095674	0.341614
H95	H	1.015529	-0.170829	0.308652
H96	H	0.962585	-0.263669	0.120856
H97	H	0.987537	0.014243	0.634402
O98	O	0.995667	0.000715	0.792318
C99	C	1.070695	0.021270	0.771900
H100	H	1.071617	0.123392	0.748957
H101	H	1.108603	0.006510	0.826776
H102	H	1.092534	-0.049468	0.723460
H103	H	0.802496	0.329336	0.634402
H104	H	0.802512	0.329351	0.785795
