data_functionalizedCrystal
_audit_creation_method	'MofGen! by Chris Wilmer'
_symmetry_space_group_name_H-M	'P1'
_symmetry_Int_Tables_number	1
_symmetry_cell_setting	triclinic
loop_
_symmetry_equiv_pos_as_xyz
  x,y,z
_cell_length_a	14.044220
_cell_length_b	14.044190
_cell_length_c	10.268362
_cell_angle_alpha	89.989939
_cell_angle_beta	90.000433
_cell_angle_gamma	93.190328
loop_
_atom_site_label
_atom_site_type_symbol
_atom_site_fract_x
_atom_site_fract_y
_atom_site_fract_z
O1	O	1.277174	0.230169	-0.108188
O2	O	1.610507	0.563502	0.225145
O3	O	1.943841	0.896836	0.558479
O4	O	1.000502	0.221863	-0.108220
O5	O	1.333836	0.555197	0.225113
O6	O	1.667169	0.888530	0.558447
O7	O	1.134682	0.087680	-0.108179
O8	O	1.468015	0.421013	0.225154
O9	O	1.801348	0.754347	0.558488
O10	O	1.142994	0.364352	-0.108229
O11	O	1.476328	0.697686	0.225104
O12	O	1.809661	1.031019	0.558437
O13	O	1.134668	0.087673	0.108422
O14	O	1.468002	0.421006	0.441755
O15	O	1.801335	0.754340	0.775088
O16	O	1.000489	0.221856	0.108380
O17	O	1.333822	0.555190	0.441714
O18	O	1.667156	0.888523	0.775047
O19	O	1.277161	0.230162	0.108412
O20	O	1.610494	0.563495	0.441746
O21	O	1.943827	0.896829	0.775079
Cu22	Cu	1.138824	0.226008	0.128174
Cu23	Cu	1.472157	0.559342	0.461507
Cu24	Cu	1.805490	0.892675	0.794841
Cu25	Cu	1.138839	0.226017	-0.127982
Cu26	Cu	1.472173	0.559350	0.205352
Cu27	Cu	1.805506	0.892684	0.538685
O28	O	1.142981	0.364345	0.108371
O29	O	1.476314	0.697679	0.441705
O30	O	1.809648	1.031012	0.775038
C31	C	0.964874	0.218224	0.000076
C32	C	1.298207	0.551557	0.333410
C33	C	1.631540	0.884891	0.666743
C34	C	0.858731	0.207380	0.000065
C35	C	1.192064	0.540713	0.333399
C36	C	1.525397	0.874046	0.666732
C37	C	0.664392	0.187553	0.000095
C38	C	0.997726	0.520887	0.333428
C39	C	1.331059	0.854220	0.666761
C40	C	0.613264	0.264468	0.000086
C41	C	0.946598	0.597801	0.333420
C42	C	1.279931	0.931135	0.666753
C43	C	0.505128	0.253436	0.000103
C44	C	0.838461	0.586770	0.333436
C45	C	1.171795	0.920103	0.666769
C46	C	0.772539	0.198583	0.000078
C47	C	1.105872	0.531917	0.333412
C48	C	1.439205	0.865250	0.666745
C49	C	1.131039	0.052054	0.000125
C50	C	1.464372	0.385388	0.333458
C51	C	1.797705	0.718721	0.666791
C52	C	1.120191	-0.054089	0.000135
C53	C	1.453525	0.279245	0.333468
C54	C	1.786858	0.612578	0.666801
C55	C	1.177292	-0.299547	0.000090
C56	C	1.510625	0.033786	0.333424
C57	C	1.843958	0.367120	0.666757
C58	C	1.100375	-0.248422	0.000091
C59	C	1.433709	0.084912	0.333424
C60	C	1.767042	0.418245	0.666757
C61	C	1.111404	-0.140285	0.000115
C62	C	1.444737	0.193049	0.333449
C63	C	1.778070	0.526382	0.666782
C64	C	1.166265	-0.407694	0.000066
C65	C	1.499598	-0.074361	0.333399
C66	C	1.832932	0.258973	0.666732
C67	C	1.312789	0.233801	0.000113
C68	C	1.646123	0.567135	0.333446
C69	C	1.979456	0.900468	0.666780
C70	C	1.418932	0.244646	0.000116
C71	C	1.752266	0.577979	0.333449
C72	C	2.085599	0.911312	0.666782
C73	C	1.146624	0.399971	0.000065
C74	C	1.479958	0.733304	0.333398
C75	C	1.813291	1.066638	0.666731
C76	C	1.157472	0.506114	0.000046
C77	C	1.490805	0.839447	0.333379
C78	C	1.824138	1.172781	0.666713
N79	N	1.138820	0.226003	0.308340
N80	N	1.472153	0.559336	0.641673
N81	N	1.805486	0.892669	0.975006
N82	N	1.138850	0.226016	-0.308147
N83	N	1.472184	0.559349	0.025186
N84	N	1.805517	0.892682	0.358519
C85	C	1.138834	0.226015	0.574010
C86	C	1.472168	0.559348	0.907344
C87	C	1.805501	0.892681	1.240677
C88	C	1.138823	0.226010	0.426172
C89	C	1.472157	0.559344	0.759506
C90	C	1.805490	0.892677	1.092839
H91	H	0.650706	0.338602	0.000066
H92	H	0.984039	0.671935	0.333400
H93	H	1.317372	1.005268	0.666733
H94	H	0.626954	0.113425	0.000115
H95	H	0.960287	0.446759	0.333449
H96	H	1.293620	0.780092	0.666782
H97	H	1.251418	-0.262106	0.000112
H98	H	1.584752	0.071227	0.333446
H99	H	1.918085	0.404561	0.666779
O100	O	1.002174	-0.298007	0.000088
O101	O	1.335507	0.035326	0.333421
O102	O	1.668840	0.368659	0.666755
H103	H	1.008806	-0.376393	0.000088
H104	H	1.342140	-0.043059	0.333422
H105	H	1.675473	0.290274	0.666755
