data_functionalizedCrystal
_audit_creation_method	'MofGen! by Chris Wilmer'
_symmetry_space_group_name_H-M	'P1'
_symmetry_Int_Tables_number	1
_symmetry_cell_setting	triclinic
loop_
_symmetry_equiv_pos_as_xyz
  x,y,z
_cell_length_a	11.792241
_cell_length_b	17.038272
_cell_length_c	10.868271
_cell_angle_alpha	89.994627
_cell_angle_beta	89.999893
_cell_angle_gamma	87.652486
loop_
_atom_site_label
_atom_site_type_symbol
_atom_site_fract_x
_atom_site_fract_y
_atom_site_fract_z
O1	O	1.516303	0.107207	-0.102203
O2	O	1.849636	0.440540	0.231130
O3	O	2.182969	0.773874	0.564463
O4	O	1.186930	0.118256	-0.102232
O5	O	1.520263	0.451589	0.231101
O6	O	1.853596	0.784922	0.564434
O7	O	1.349659	-0.001093	-0.102208
O8	O	1.682992	0.332241	0.231125
O9	O	2.016325	0.665574	0.564458
O10	O	1.353574	0.226555	-0.102227
O11	O	1.686907	0.559889	0.231106
O12	O	2.020240	0.893222	0.564439
O13	O	1.349644	-0.001097	0.102436
O14	O	1.682977	0.332236	0.435770
O15	O	2.016310	0.665569	0.769103
O16	O	1.186915	0.118251	0.102412
O17	O	1.520248	0.451584	0.435746
O18	O	1.853582	0.784918	0.769079
O19	O	1.516288	0.107202	0.102441
O20	O	1.849621	0.440536	0.435775
O21	O	2.182954	0.773869	0.769108
Zn22	Zn	1.351599	0.112726	0.134919
Zn23	Zn	1.684932	0.446059	0.468252
Zn24	Zn	2.018266	0.779393	0.801585
Zn25	Zn	1.351618	0.112732	-0.134710
Zn26	Zn	1.684952	0.446065	0.198624
Zn27	Zn	2.018285	0.779399	0.531957
O28	O	1.353559	0.226551	0.102417
O29	O	1.686892	0.559884	0.435751
O30	O	2.020226	0.893217	0.769084
C31	C	1.144571	0.117559	0.000086
C32	C	1.477904	0.450893	0.333420
C33	C	1.811237	0.784226	0.666753
C34	C	1.018375	0.115482	0.000076
C35	C	1.351708	0.448815	0.333409
C36	C	1.685041	0.782149	0.666742
C37	C	0.787328	0.111662	0.000111
C38	C	1.120661	0.444996	0.333445
C39	C	1.453995	0.778329	0.666778
C40	C	0.915899	0.113785	0.000092
C41	C	1.249232	0.447118	0.333425
C42	C	1.582566	0.780451	0.666758
C43	C	1.346090	-0.030239	0.000114
C44	C	1.679424	0.303094	0.333447
C45	C	2.012757	0.636428	0.666780
C46	C	1.335466	-0.117079	0.000112
C47	C	1.668800	0.216254	0.333446
C48	C	2.002133	0.549588	0.666779
C49	C	1.433006	-0.166762	0.000122
C50	C	1.766340	0.166571	0.333455
C51	C	2.099673	0.499905	0.666789
C52	C	1.423017	-0.248357	0.000110
C53	C	1.756350	0.084977	0.333443
C54	C	2.089684	0.418310	0.666776
C55	C	1.315487	-0.280267	0.000096
C56	C	1.648821	0.053067	0.333429
C57	C	1.982154	0.386400	0.666763
C58	C	1.217940	-0.230577	0.000083
C59	C	1.551274	0.102756	0.333416
C60	C	1.884607	0.436090	0.666749
C61	C	1.227930	-0.148984	0.000086
C62	C	1.561264	0.184349	0.333420
C63	C	1.894597	0.517683	0.666753
C64	C	1.280194	-0.526181	0.000076
C65	C	1.613527	-0.192847	0.333409
C66	C	1.946861	0.140486	0.666743
C67	C	1.270211	-0.607780	0.000076
C68	C	1.603545	-0.274447	0.333409
C69	C	1.936878	0.058887	0.666743
C70	C	1.475289	-0.625554	0.000101
C71	C	1.808623	-0.292221	0.333434
C72	C	2.141956	0.041113	0.666767
C73	C	1.485270	-0.543958	0.000112
C74	C	1.818603	-0.210625	0.333445
C75	C	2.151937	0.122708	0.666779
C76	C	1.387723	-0.494276	0.000092
C77	C	1.721056	-0.160943	0.333425
C78	C	2.054390	0.172391	0.666759
C79	C	1.305274	-0.363669	0.000087
C80	C	1.638608	-0.030336	0.333420
C81	C	1.971941	0.302997	0.666754
C82	C	1.397937	-0.410875	0.000092
C83	C	1.731270	-0.077542	0.333425
C84	C	2.064603	0.255792	0.666759
C85	C	1.558647	0.107899	0.000120
C86	C	1.891980	0.441232	0.333453
C87	C	2.225314	0.774565	0.666786
C88	C	1.684843	0.109976	0.000122
C89	C	2.018176	0.443309	0.333456
C90	C	2.351509	0.776643	0.666789
C91	C	1.357127	0.255697	0.000093
C92	C	1.690460	0.589030	0.333426
C93	C	2.023794	0.922364	0.666759
C94	C	1.367751	0.342537	0.000086
C95	C	1.701084	0.675870	0.333419
C96	C	2.034418	1.009204	0.666752
N97	N	1.351594	0.112721	0.318933
N98	N	1.684927	0.446055	0.652266
N99	N	2.018261	0.779388	0.985599
N100	N	1.351632	0.112731	-0.318724
N101	N	1.684965	0.446064	0.014610
N102	N	2.018299	0.779397	0.347943
C103	C	1.351612	0.112730	0.569939
C104	C	1.684946	0.446064	0.903272
C105	C	2.018279	0.779397	1.236605
C106	C	1.351599	0.112728	0.430261
C107	C	1.684932	0.446061	0.763594
C108	C	2.018265	0.779394	1.096928
H109	H	1.520568	-0.140788	0.000141
H110	H	1.853902	0.192546	0.333474
H111	H	2.187235	0.525879	0.666807
O112	O	1.517883	-0.296506	0.000182
O113	O	1.851217	0.036827	0.333516
O114	O	2.184550	0.370160	0.666849
C115	C	1.614933	-0.250846	0.000175
C116	C	1.948266	0.082488	0.333508
C117	C	2.281600	0.415821	0.666842
H118	H	1.591985	-0.190080	0.038916
H119	H	1.925319	0.143253	0.372250
H120	H	2.258652	0.476586	0.705583
H121	H	1.683751	-0.280641	0.059602
H122	H	2.017084	0.052693	0.392936
H123	H	2.350417	0.386026	0.726269
H124	H	1.647541	-0.244894	-0.097996
H125	H	1.980874	0.088440	0.235337
H126	H	2.314208	0.421773	0.568671
H127	H	1.130387	-0.256565	0.000064
H128	H	1.463720	0.076769	0.333397
H129	H	1.797053	0.410102	0.666730
O130	O	1.133262	-0.100640	0.000243
O131	O	1.466595	0.232693	0.333577
O132	O	1.799929	0.566026	0.666910
C133	C	1.132877	-0.052930	0.106245
C134	C	1.466210	0.280404	0.439578
C135	C	1.799544	0.613737	0.772911
H136	H	1.223395	-0.048426	0.141593
H137	H	1.556729	0.284908	0.474926
H138	H	1.890062	0.618241	0.808259
H139	H	1.096507	0.008210	0.082400
H140	H	1.429841	0.341543	0.415734
H141	H	1.763174	0.674877	0.749067
H142	H	1.078418	-0.079992	0.180454
H143	H	1.411751	0.253341	0.513787
H144	H	1.745085	0.586675	0.847121
H145	H	1.200764	-0.485738	0.000060
H146	H	1.534097	-0.152405	0.333394
H147	H	1.867430	0.180928	0.666727
H148	H	1.572832	-0.517984	0.000123
H149	H	1.906165	-0.184651	0.333456
H150	H	2.239499	0.148683	0.666790
H151	H	1.554706	-0.666014	0.000115
H152	H	1.888040	-0.332680	0.333448
H153	H	2.221373	0.000653	0.666781
H154	H	1.485487	-0.384890	0.000076
H155	H	1.818821	-0.051557	0.333409
H156	H	2.152154	0.281776	0.666743
O157	O	1.165664	-0.638649	-0.000005
O158	O	1.498997	-0.305315	0.333328
O159	O	1.832331	0.028018	0.666662
C160	C	1.081707	-0.577303	0.000003
C161	C	1.415040	-0.243969	0.333337
C162	C	1.748374	0.089364	0.666670
H163	H	1.118889	-0.521742	-0.038731
H164	H	1.452223	-0.188408	0.294603
H165	H	1.785556	0.144925	0.627936
H166	H	1.007123	-0.594661	-0.059430
H167	H	1.340456	-0.261328	0.273903
H168	H	1.673789	0.072005	0.607236
H169	H	1.051218	-0.565899	0.098174
H170	H	1.384552	-0.232565	0.431507
H171	H	1.717885	0.100768	0.764840
H172	H	1.217723	-0.389660	0.000079
H173	H	1.551056	-0.056326	0.333412
H174	H	1.884390	0.277007	0.666745
