data_functionalizedCrystal
_audit_creation_method	'MofGen! by Chris Wilmer'
_symmetry_space_group_name_H-M	'P1'
_symmetry_Int_Tables_number	1
_symmetry_cell_setting	triclinic
loop_
_symmetry_equiv_pos_as_xyz
  x,y,z
_cell_length_a	16.109295
_cell_length_b	9.798715
_cell_length_c	16.109301
_cell_angle_alpha	90.004570
_cell_angle_beta	96.539666
_cell_angle_gamma	89.999244
loop_
_atom_site_label
_atom_site_type_symbol
_atom_site_fract_x
_atom_site_fract_y
_atom_site_fract_z
O1	O	-1.103134	0.113402	0.106843
O2	O	-0.603134	0.613402	0.606843
O3	O	-0.861071	0.113426	0.120147
O4	O	-0.361071	0.613426	0.620147
O5	O	-0.988752	0.113400	-0.007536
O6	O	-0.488752	0.613400	0.492464
O7	O	-0.975453	0.113429	0.234526
O8	O	-0.475453	0.613429	0.734526
O9	O	-0.988743	-0.113582	-0.007536
O10	O	-0.488743	0.386418	0.492464
O11	O	-0.861062	-0.113556	0.120147
O12	O	-0.361062	0.386444	0.620147
O13	O	-1.103125	-0.113580	0.106843
O14	O	-0.603125	0.386420	0.606843
Zn15	Zn	-0.982092	-0.149606	0.113495
Zn16	Zn	-0.482092	0.350394	0.613495
Zn17	Zn	-0.982104	0.149453	0.113495
Zn18	Zn	-0.482104	0.649453	0.613495
O19	O	-0.975444	-0.113553	0.234526
O20	O	-0.475444	0.386447	0.734526
C21	C	-0.830092	-0.000062	0.119609
C22	C	-0.330092	0.499938	0.619609
C23	C	-0.737796	-0.000054	0.117996
C24	C	-0.237796	0.499946	0.617996
N25	N	-0.982089	-0.353706	0.113494
N26	N	-0.482089	0.146294	0.613494
C27	C	-0.515523	-0.000059	0.190008
C28	C	-0.015523	0.499941	0.690008
C29	C	-0.428803	-0.000068	0.188486
C30	C	0.071197	0.499932	0.688486
C31	C	-0.448677	-0.000080	0.036996
C32	C	0.051323	0.499920	0.536996
C33	C	-0.535396	-0.000082	0.038520
C34	C	-0.035396	0.499918	0.538520
C35	C	-0.568816	-0.000064	0.115028
C36	C	-0.068816	0.499936	0.615028
C37	C	-0.395377	-0.000071	0.111982
C38	C	0.104623	0.499929	0.611982
C39	C	-0.301351	-0.000080	0.110331
C40	C	0.198649	0.499920	0.610331
C41	C	-0.662849	-0.000058	0.116679
C42	C	-0.162849	0.499942	0.616679
C43	C	-1.035701	-0.421494	0.059649
C44	C	-0.535701	0.078506	0.559649
C45	C	-1.035714	-0.578657	0.059646
C46	C	-0.535714	-0.078657	0.559646
C47	C	-0.134104	-0.000087	0.107386
C48	C	0.365896	0.499913	0.607386
C49	C	-0.226397	-0.000082	0.109014
C50	C	0.273603	0.499918	0.609014
C51	C	-0.988209	-0.000092	-0.038511
C52	C	-0.488209	0.499908	0.461489
C53	C	-0.986594	-0.000094	-0.130806
C54	C	-0.486594	0.499906	0.369194
N55	N	-0.982113	0.353552	0.113489
N56	N	-0.482113	0.853552	0.613489
C57	C	-1.058602	-0.000079	-0.353080
C58	C	-0.558602	0.499921	0.146920
C59	C	-1.057078	-0.000068	-0.439800
C60	C	-0.557078	0.499932	0.060200
C61	C	-0.905588	-0.000058	-0.419923
C62	C	-0.405588	0.499942	0.080077
C63	C	-0.907113	-0.000060	-0.333204
C64	C	-0.407113	0.499940	0.166796
C65	C	-0.983622	-0.000077	-0.299785
C66	C	-0.483622	0.499923	0.200215
C67	C	-0.980573	-0.000064	-0.473225
C68	C	-0.480573	0.499936	0.026775
C69	C	-0.978920	-0.000052	-0.567251
C70	C	-0.478920	0.499948	-0.067251
C71	C	-0.985276	-0.000087	-0.205754
C72	C	-0.485276	0.499913	0.294246
C73	C	-0.975987	-0.000059	0.265501
C74	C	-0.475987	0.499941	0.765501
C75	C	-0.977602	-0.000048	0.357796
C76	C	-0.477602	0.499952	0.857796
H77	H	-0.385414	-0.000067	0.249542
H78	H	0.114586	0.499933	0.749542
H79	H	-0.936197	-0.412021	0.159588
H80	H	-0.436197	0.087979	0.659588
N81	N	-0.412630	-0.000106	-0.045520
N82	N	0.087370	0.499894	0.454480
H83	H	-0.349607	-0.000104	-0.035109
H84	H	0.150393	0.499896	0.464891
H85	H	-0.432128	0.084032	-0.078332
H86	H	0.067872	0.584032	0.421668
H87	H	-1.120900	-0.000090	-0.325874
H88	H	-0.620900	0.499910	0.174126
H89	H	-0.578790	-0.000090	-0.022542
H90	H	-0.078790	0.499910	0.477458
N91	N	-1.096470	-0.344265	-0.001435
N92	N	-0.596470	0.155735	0.498565
H93	H	-1.087838	-0.242940	0.007217
H94	H	-0.587838	0.257060	0.507217
H95	H	-1.155514	-0.369136	0.007985
H96	H	-0.655514	0.130864	0.507985
N97	N	-1.096523	-0.655861	-0.001416
N98	N	-0.596523	-0.155861	0.498584
H99	H	-1.087914	-0.757188	0.007239
H100	H	-0.587914	-0.257188	0.507239
H101	H	-1.086783	-0.630968	-0.060369
H102	H	-0.586783	-0.130968	0.439631
H103	H	-1.118133	-0.000066	-0.483190
H104	H	-0.618133	0.499934	0.016810
H105	H	-0.542731	-0.000055	0.252306
H106	H	-0.042731	0.499945	0.752306
H107	H	-0.936215	-0.588162	0.159594
H108	H	-0.436215	-0.088162	0.659594
H109	H	-0.843297	-0.000047	-0.447144
H110	H	-0.343297	0.499953	0.052856
H111	H	-0.846052	-0.000054	-0.289809
H112	H	-0.346052	0.499946	0.210191
