data_functionalizedCrystal
_audit_creation_method	'MofGen! by Chris Wilmer'
_symmetry_space_group_name_H-M	'P1'
_symmetry_Int_Tables_number	1
_symmetry_cell_setting	triclinic
loop_
_symmetry_equiv_pos_as_xyz
  x,y,z
_cell_length_a	25.639239
_cell_length_b	16.959455
_cell_length_c	16.959447
_cell_angle_alpha	90.020374
_cell_angle_beta	90.033076
_cell_angle_gamma	90.035706
loop_
_atom_site_label
_atom_site_type_symbol
_atom_site_fract_x
_atom_site_fract_y
_atom_site_fract_z
Zn1	Zn	-0.208182	1.208282	0.447021
Zn2	Zn	0.291818	1.708282	0.947021
Zn3	Zn	-0.295623	1.208161	0.314836
Zn4	Zn	0.204377	1.708161	0.814836
Zn5	Zn	-0.208199	1.076110	0.314845
Zn6	Zn	0.291801	1.576110	0.814845
Zn7	Zn	-0.295584	1.076032	0.446961
Zn8	Zn	0.204416	1.576032	0.946961
O9	O	-0.251897	1.142146	0.380916
O10	O	0.248103	1.642146	0.880916
O11	O	-0.219791	1.318876	0.429508
O12	O	0.280209	1.818876	0.929508
O13	O	-0.284049	1.190627	0.204226
O14	O	0.215951	1.690627	0.704226
O15	O	-0.135031	1.093726	0.332407
O16	O	0.364969	1.593726	0.832407
O17	O	-0.284033	1.318788	0.332393
O18	O	0.215967	1.818788	0.832393
O19	O	-0.135019	1.190832	0.429516
O20	O	0.364981	1.690832	0.929516
O21	O	-0.219819	1.093609	0.204233
O22	O	0.280181	1.593609	0.704233
O23	O	-0.219781	0.965489	0.332348
O24	O	0.280219	1.465489	0.832348
O25	O	-0.283966	1.093593	0.557580
O26	O	0.216034	1.593593	1.057580
O27	O	-0.283982	0.965431	0.429414
O28	O	0.216018	1.465431	0.929414
O29	O	-0.219753	1.190756	0.557624
O30	O	0.280247	1.690756	1.057624
O31	O	-0.368783	1.190551	0.332334
O32	O	0.131217	1.690551	0.832334
O33	O	-0.368754	1.093476	0.429405
O34	O	0.131246	1.593476	0.929405
C35	C	-0.251880	0.936780	0.380876
C36	C	0.248120	1.436780	0.880876
C37	C	-0.251885	0.848923	0.380878
C38	C	0.248115	1.348923	0.880878
C39	C	-0.285315	0.477391	0.330322
C40	C	0.214685	0.977391	0.830322
C41	C	-0.218522	0.477504	0.431606
C42	C	0.281478	0.977504	0.931606
C43	C	-0.218514	0.560050	0.431587
C44	C	0.281486	1.060050	0.931587
C45	C	-0.251907	0.601270	0.380935
C46	C	0.248093	1.101270	0.880935
C47	C	-0.285308	0.559945	0.330303
C48	C	0.214692	1.059945	0.830303
C49	C	-0.185117	0.601382	0.482224
C50	C	0.314883	1.101382	0.982224
C51	C	-0.185107	0.683933	0.482207
C52	C	0.314893	1.183933	0.982207
C53	C	-0.218498	0.725155	0.431551
C54	C	0.281502	1.225155	0.931551
C55	C	-0.251900	0.683824	0.380916
C56	C	0.248100	1.183824	0.880916
C57	C	-0.285293	0.725044	0.330264
C58	C	0.214707	1.225044	0.830264
C59	C	-0.318693	0.683714	0.279625
C60	C	0.181307	1.183714	0.779625
C61	C	-0.318699	0.601166	0.279646
C62	C	0.181301	1.101166	0.779646
C63	C	-0.218492	0.807703	0.431529
C64	C	0.281508	1.307703	0.931529
C65	C	-0.285286	0.807597	0.330245
C66	C	0.214714	1.307597	0.830245
C67	C	-0.387739	1.142013	0.380880
C68	C	0.112261	1.642013	0.880880
C69	C	-0.445853	1.142029	0.380890
C70	C	0.054147	1.642029	0.880890
C71	C	-0.806219	1.192825	0.330457
C72	C	-0.306219	1.692825	0.830457
C73	C	-0.860823	1.192856	0.330467
C74	C	-0.360823	1.692856	0.830467
O75	O	-0.889062	1.235906	0.287547
O76	O	-0.389062	1.735906	0.787547
N77	N	-0.888136	1.142285	0.380968
N78	N	-0.388136	1.642285	0.880968
C79	C	-0.860841	1.091686	0.431467
C80	C	-0.360841	1.591686	0.931467
O81	O	-0.889087	1.048676	0.474424
O82	O	-0.389087	1.548676	0.974424
C83	C	-0.806238	1.091660	0.431460
C84	C	-0.306238	1.591660	0.931460
C85	C	-0.778928	1.142228	0.380950
C86	C	-0.278928	1.642228	0.880950
C87	C	-0.778909	1.243390	0.279952
C88	C	-0.278909	1.743390	0.779952
C89	C	-0.724308	1.243358	0.279940
C90	C	-0.224308	1.743358	0.779940
C91	C	-0.697018	1.192761	0.330434
C92	C	-0.197018	1.692761	0.830434
C93	C	-0.724328	1.142197	0.380939
C94	C	-0.224328	1.642197	0.880939
C95	C	-0.778945	1.041066	0.481963
C96	C	-0.278945	1.541066	0.981963
C97	C	-0.724338	1.041045	0.481952
C98	C	-0.224338	1.541045	0.981952
C99	C	-0.697028	1.091613	0.431442
C100	C	-0.197028	1.591613	0.931442
C101	C	-0.642437	1.091568	0.431421
C102	C	-0.142437	1.591568	0.931421
N103	N	-0.615124	1.142139	0.380920
N104	N	-0.115124	1.642139	0.880920
C105	C	-0.642414	1.192735	0.330427
C106	C	-0.142414	1.692735	0.830427
C107	C	-0.975512	1.091746	0.431479
C108	C	-0.475512	1.591746	0.931479
C109	C	-1.030114	1.091767	0.431483
C110	C	-0.530114	1.591767	0.931483
C111	C	-1.030092	1.192938	0.330484
C112	C	-0.530092	1.692938	0.830484
C113	C	-0.975489	1.192912	0.330477
C114	C	-0.475489	1.692912	0.830477
C115	C	-0.948199	1.142316	0.380979
C116	C	-0.448199	1.642316	0.880979
C117	C	-0.527749	1.192664	0.330406
C118	C	-0.027749	1.692664	0.830406
C119	C	-0.473144	1.192625	0.330397
C120	C	0.026856	1.692625	0.830397
C121	C	-0.473171	1.091458	0.431399
C122	C	0.026829	1.591458	0.931399
C123	C	-0.527771	1.091493	0.431405
C124	C	-0.027771	1.591493	0.931405
C125	C	-0.555059	1.142103	0.380906
C126	C	-0.055059	1.642103	0.880906
O127	O	-0.614163	1.048541	0.474322
O128	O	-0.114163	1.548541	0.974322
O129	O	-0.614162	1.235746	0.287485
O130	O	-0.114162	1.735746	0.787485
C131	C	-0.115524	1.142301	0.380969
C132	C	0.384476	1.642301	0.880969
C133	C	-0.057410	1.142367	0.380992
C134	C	0.442590	1.642367	0.880992
C135	C	-0.251853	1.142179	0.587084
C136	C	0.248147	1.642179	1.087084
C137	C	-0.251835	1.142193	0.674941
C138	C	0.248165	1.642193	1.174941
C139	C	-0.251914	1.348314	0.380956
C140	C	0.248086	1.848314	0.880956
C141	C	-0.251922	1.436171	0.380973
C142	C	0.248078	1.936171	0.880973
C143	C	-0.251902	1.142159	0.175549
C144	C	0.248098	1.642159	0.675549
C145	C	-0.251773	1.142298	0.087693
C146	C	0.248227	1.642298	0.587693
C147	C	-0.285213	1.091699	1.046396
C148	C	0.214787	1.591699	1.546396
C149	C	-0.218347	1.192876	1.046437
C150	C	0.281653	1.692876	1.546437
C151	C	-0.218358	1.192855	0.963891
C152	C	0.281642	1.692855	1.463891
C153	C	-0.251798	1.142256	0.922594
C154	C	0.248202	1.642256	1.422594
C155	C	-0.285226	1.091678	0.963842
C156	C	0.214774	1.591678	1.463842
C157	C	-0.184934	1.243438	0.922636
C158	C	0.315066	1.743438	1.422636
C159	C	-0.184944	1.243419	0.840085
C160	C	0.315056	1.743419	1.340085
C161	C	-0.218381	1.192816	0.798787
C162	C	0.281619	1.692816	1.298787
C163	C	-0.251811	1.142235	0.840040
C164	C	0.248189	1.642235	1.340040
C165	C	-0.285250	1.091636	0.798743
C166	C	0.214750	1.591636	1.298743
C167	C	-0.318678	1.041051	0.839995
C168	C	0.181322	1.541051	1.339995
C169	C	-0.318664	1.041074	0.922543
C170	C	0.181336	1.541074	1.422543
C171	C	-0.218395	1.192792	0.716238
C172	C	0.281605	1.692792	1.216238
C173	C	-0.285264	1.091615	0.716189
C174	C	0.214736	1.591615	1.216189
H175	H	-0.312478	0.841153	0.288995
H176	H	0.187522	1.341153	0.788995
H177	H	-0.549961	1.233877	0.289287
H178	H	-0.049961	1.733877	0.789287
Br179	Br	-1.067140	1.261602	0.261953
Br180	Br	-0.567140	1.761602	0.761953
H181	H	-0.450942	1.050260	0.472508
H182	H	0.049058	1.550260	0.972508
H183	H	-1.052345	1.050582	0.472606
H184	H	-0.552345	1.550582	0.972606
H185	H	-0.345880	0.999893	0.956138
H186	H	0.154120	1.499893	1.456138
H187	H	-0.157712	1.284638	0.956267
H188	H	0.342288	1.784638	1.456267
H189	H	-0.345884	0.717287	0.238388
H190	H	0.154116	1.217287	0.738388
H191	H	-0.801123	1.284596	0.238834
H192	H	-0.301123	1.784596	0.738834
H193	H	-0.953256	1.234089	0.289348
H194	H	-0.453256	1.734089	0.789348
Br195	Br	-0.172972	1.261551	1.102484
Br196	Br	0.327028	1.761551	1.602484
H197	H	-0.953295	1.050538	0.472602
H198	H	-0.453295	1.550538	0.972602
Br199	Br	-0.815994	0.972442	0.550525
Br200	Br	-0.315994	1.472442	1.050525
Br201	Br	-0.436084	1.261256	0.261842
Br202	Br	0.063916	1.761256	0.761842
Br203	Br	-0.687305	0.972378	0.550497
Br204	Br	-0.187305	1.472378	1.050497
H205	H	-0.157910	0.717577	0.523441
H206	H	0.342090	1.217577	1.023441
H207	H	-0.191299	0.841350	0.472761
H208	H	0.308701	1.341350	0.972761
H209	H	-0.345907	0.999857	0.806360
H210	H	0.154093	1.499857	1.306360
Br211	Br	-0.687253	1.312001	0.211399
Br212	Br	-0.187253	1.812001	0.711399
H213	H	-0.312490	1.050404	0.682571
H214	H	0.187510	1.550404	1.182571
H215	H	-0.550008	1.050319	0.472537
H216	H	-0.050008	1.550319	0.972537
H217	H	-0.345891	0.567508	0.238418
H218	H	0.154109	1.067508	0.738418
H219	H	-0.312427	1.050512	1.079987
H220	H	0.187573	1.550512	1.579987
H221	H	-0.312507	0.443737	0.289090
H222	H	0.187493	0.943737	0.789090
Br223	Br	-0.173213	0.421563	0.500355
Br224	Br	0.326787	0.921563	1.000355
H225	H	-0.157725	1.284608	0.806505
H226	H	0.342275	1.784608	1.306505
H227	H	-0.157933	0.567815	0.523466
H228	H	0.342067	1.067815	1.023466
Br229	Br	-0.173039	1.261445	0.660256
Br230	Br	0.326961	1.761445	1.160256
