data_functionalizedCrystal
_audit_creation_method	'MofGen! by Chris Wilmer'
_symmetry_space_group_name_H-M	'P1'
_symmetry_Int_Tables_number	1
_symmetry_cell_setting	triclinic
loop_
_symmetry_equiv_pos_as_xyz
  x,y,z
_cell_length_a	10.686220
_cell_length_b	18.050590
_cell_length_c	18.050582
_cell_angle_alpha	89.976663
_cell_angle_beta	94.355462
_cell_angle_gamma	94.400502
loop_
_atom_site_label
_atom_site_type_symbol
_atom_site_fract_x
_atom_site_fract_y
_atom_site_fract_z
Zn1	Zn	1.929029	-0.208485	-0.332919
Zn2	Zn	2.262362	0.124848	0.000414
Zn3	Zn	2.595695	0.458181	0.333747
Zn4	Zn	1.928913	-0.332674	-0.208733
Zn5	Zn	2.262246	0.000659	0.124600
Zn6	Zn	2.595579	0.333993	0.457934
Zn7	Zn	1.718037	-0.218037	-0.218258
Zn8	Zn	2.051370	0.115296	0.115075
Zn9	Zn	2.384703	0.448630	0.448409
Zn10	Zn	1.717984	-0.342181	-0.342393
Zn11	Zn	2.051317	-0.008847	-0.009060
Zn12	Zn	2.384651	0.324486	0.324273
O13	O	1.823491	-0.275344	-0.275576
O14	O	2.156824	0.057989	0.057757
O15	O	2.490157	0.391322	0.391091
O16	O	2.105589	-0.216983	-0.308495
O17	O	2.438922	0.116350	0.024839
O18	O	2.772255	0.449683	0.358172
O19	O	1.900913	-0.317486	-0.106073
O20	O	2.234246	0.015847	0.227260
O21	O	2.567580	0.349181	0.560594
O22	O	1.746096	-0.112842	-0.233490
O23	O	2.079429	0.220491	0.099844
O24	O	2.412763	0.553824	0.433177
O25	O	2.105503	-0.308224	-0.217255
O26	O	2.438837	0.025109	0.116078
O27	O	2.772170	0.358442	0.449411
O28	O	1.901111	-0.105825	-0.317731
O29	O	2.234444	0.227509	0.015603
O30	O	2.567778	0.560842	0.348936
O31	O	1.745983	-0.233263	-0.113071
O32	O	2.079317	0.100070	0.220262
O33	O	2.412650	0.433404	0.553596
O34	O	1.541454	-0.242481	-0.242676
O35	O	1.874788	0.090852	0.090657
O36	O	2.208121	0.424186	0.423991
O37	O	1.746006	-0.324427	-0.445060
O38	O	2.079339	0.008907	-0.111727
O39	O	2.412673	0.342240	0.221607
O40	O	1.541416	-0.333689	-0.333878
O41	O	1.874749	-0.000355	-0.000544
O42	O	2.208082	0.332978	0.332789
O43	O	1.901060	-0.226202	-0.438100
O44	O	2.234393	0.107132	-0.104766
O45	O	2.567726	0.440465	0.228567
O46	O	1.900862	-0.437863	-0.226442
O47	O	2.234195	-0.104530	0.106892
O48	O	2.567529	0.228804	0.440225
O49	O	1.745893	-0.444847	-0.324641
O50	O	2.079227	-0.111514	0.008692
O51	O	2.412560	0.221819	0.342025
C52	C	1.495651	-0.290153	-0.290339
C53	C	1.828984	0.043180	0.042994
C54	C	2.162318	0.376513	0.376328
C55	C	1.355400	-0.296507	-0.296672
C56	C	1.688733	0.036827	0.036661
C57	C	2.022066	0.370160	0.369994
C58	C	1.823394	-0.468301	-0.275551
C59	C	2.156727	-0.134968	0.057783
C60	C	2.490060	0.198366	0.391116
C61	C	1.823467	-0.550843	-0.275560
C62	C	2.156801	-0.217510	0.057774
C63	C	2.490134	0.115823	0.391107
C64	C	1.907915	-0.746461	-0.222220
C65	C	2.241248	-0.413128	0.111113
C66	C	2.574581	-0.079794	0.444447
C67	C	1.938728	-0.794406	-0.288610
C68	C	2.272061	-0.461073	0.044723
C69	C	2.605395	-0.127740	0.378056
C70	C	1.823539	-0.701970	-0.275586
C71	C	2.156872	-0.368637	0.057747
C72	C	2.490206	-0.035304	0.391081
C73	C	1.792854	-0.801101	-0.209220
C74	C	2.126187	-0.467767	0.124113
C75	C	2.459521	-0.134434	0.457447
C76	C	1.823611	-0.847952	-0.275605
C77	C	2.156944	-0.514619	0.057728
C78	C	2.490277	-0.181286	0.391061
C79	C	1.854412	-0.748826	-0.342009
C80	C	2.187745	-0.415492	-0.008676
C81	C	2.521078	-0.082159	0.324657
C82	C	1.708484	-0.755519	-0.262576
C83	C	2.041817	-0.422185	0.070758
C84	C	2.375151	-0.088852	0.404091
C85	C	1.739254	-0.803444	-0.329015
C86	C	2.072587	-0.470110	0.004318
C87	C	2.405920	-0.136777	0.337652
C88	C	1.823501	-0.617874	-0.275574
C89	C	2.156834	-0.284540	0.057760
C90	C	2.490168	0.048793	0.391093
C91	C	1.823648	-0.932047	-0.275625
C92	C	2.156982	-0.598714	0.057708
C93	C	2.490315	-0.265380	0.391041
C94	C	2.152610	-0.260478	-0.260756
C95	C	2.485944	0.072855	0.072578
C96	C	2.819277	0.406189	0.405911
C97	C	2.292862	-0.254143	-0.254440
C98	C	2.626195	0.079191	0.078893
C99	C	2.959528	0.412524	0.412226
C100	C	1.823540	-0.275309	-0.469279
C101	C	2.156873	0.058024	-0.135946
C102	C	2.490207	0.391358	0.197387
C103	C	1.823561	-0.275294	-0.551824
C104	C	2.156894	0.058039	-0.218491
C105	C	2.490228	0.391373	0.114842
C106	C	1.823622	-0.081633	-0.275616
C107	C	2.156956	0.251701	0.057717
C108	C	2.490289	0.585034	0.391051
C109	C	1.823678	0.000916	-0.275633
C110	C	2.157012	0.334249	0.057700
C111	C	2.490345	0.667582	0.391034
C112	C	1.739307	-0.328638	-0.755057
C113	C	2.072641	0.004695	-0.421724
C114	C	2.405974	0.338028	-0.088391
C115	C	1.854434	-0.341586	-0.799257
C116	C	2.187767	-0.008253	-0.465923
C117	C	2.521100	0.325080	-0.132590
C118	C	1.823623	-0.275235	-0.702952
C119	C	2.156957	0.058099	-0.369619
C120	C	2.490290	0.391432	-0.036285
C121	C	1.708560	-0.262263	-0.805831
C122	C	2.041894	0.071070	-0.472498
C123	C	2.375227	0.404404	-0.139165
C124	C	1.823673	-0.275179	-0.848935
C125	C	2.157007	0.058154	-0.515601
C126	C	2.490340	0.391488	-0.182268
C127	C	1.938810	-0.288215	-0.746061
C128	C	2.272143	0.045118	-0.412728
C129	C	2.605477	0.378451	-0.079395
C130	C	1.792859	-0.208864	-0.752635
C131	C	2.126192	0.124469	-0.419302
C132	C	2.459526	0.457802	-0.085969
C133	C	1.908065	-0.221783	-0.796809
C134	C	2.241398	0.111550	-0.463476
C135	C	2.574731	0.444884	-0.130142
C136	C	1.823593	-0.275269	-0.618855
C137	C	2.156926	0.058065	-0.285522
C138	C	2.490259	0.391398	0.047812
C139	C	1.823717	-0.275144	-0.933029
C140	C	2.157050	0.058189	-0.599696
C141	C	2.490383	0.391522	-0.266363
C142	C	1.823514	-0.275322	-0.082623
C143	C	2.156847	0.058011	0.250711
C144	C	2.490181	0.391344	0.584044
C145	C	1.823737	-0.275117	-0.000067
C146	C	2.157071	0.058216	0.333266
C147	C	2.490404	0.391549	0.666599
H148	H	1.979292	-0.721561	-0.177132
H149	H	2.312626	-0.388228	0.156201
H150	H	2.645959	-0.054895	0.489535
F151	F	1.363120	-0.200383	-0.200845
F152	F	1.696454	0.132951	0.132488
F153	F	2.029787	0.466284	0.465822
H154	H	1.979472	-0.176594	-0.815126
H155	H	2.312805	0.156740	-0.481792
H156	H	2.646138	0.490073	-0.148459
F157	F	2.066060	-0.302616	-0.712090
F158	F	2.399394	0.030717	-0.378757
F159	F	2.732727	0.364051	-0.045423
F160	F	1.285135	-0.350277	-0.350263
F161	F	1.618469	-0.016944	-0.016929
F162	F	1.951802	0.316389	0.316404
F163	F	1.758765	-0.135555	-0.725788
F164	F	2.092099	0.197778	-0.392455
F165	F	2.425432	0.531111	-0.059122
H166	H	1.611182	-0.738246	-0.251536
H167	H	1.944515	-0.404912	0.081797
H168	H	2.277848	-0.071579	0.415130
H169	H	2.036058	-0.811662	-0.299628
H170	H	2.369392	-0.478329	0.033705
H171	H	2.702725	-0.144995	0.367038
H172	H	1.611232	-0.251314	-0.831914
H173	H	1.944565	0.082019	-0.498581
H174	H	2.277899	0.415352	-0.165248
H175	H	1.880298	-0.726008	-0.398196
H176	H	2.213631	-0.392675	-0.064863
H177	H	2.546965	-0.059342	0.268471
H178	H	1.667931	-0.828203	-0.374202
H179	H	2.001264	-0.494870	-0.040868
H180	H	2.334598	-0.161537	0.292465
F181	F	1.646196	-0.387733	-0.730925
F182	F	1.979529	-0.054400	-0.397592
F183	F	2.312863	0.278933	-0.064258
F184	F	1.758891	-0.831052	-0.135852
F185	F	2.092225	-0.497719	0.197482
F186	F	2.425558	-0.164385	0.530815
H187	H	1.880484	-0.397690	-0.819780
H188	H	2.213818	-0.064357	-0.486447
H189	H	2.547151	0.268976	-0.153113
