data_functionalizedCrystal
_audit_creation_method	'MofGen! by Chris Wilmer'
_symmetry_space_group_name_H-M	'P1'
_symmetry_Int_Tables_number	1
_symmetry_cell_setting	triclinic
loop_
_symmetry_equiv_pos_as_xyz
  x,y,z
_cell_length_a	6.817900
_cell_length_b	14.858565
_cell_length_c	19.453114
_cell_angle_alpha	95.586354
_cell_angle_beta	101.709288
_cell_angle_gamma	104.523916
loop_
_atom_site_label
_atom_site_type_symbol
_atom_site_fract_x
_atom_site_fract_y
_atom_site_fract_z
V1	V	-4.012078	-0.129639	-0.219196
O2	O	-3.994529	0.005233	-0.214822
O3	O	-3.968832	-0.256094	-0.217891
O4	O	-3.954929	-0.128082	-0.314707
O5	O	-4.008528	-0.123665	-0.117336
V6	V	-4.496171	-0.113455	-0.206989
O7	O	-4.272084	-0.165140	-0.245973
O8	O	-4.686362	-0.077954	-0.180213
O9	O	-4.316211	0.013000	-0.208295
O10	O	-4.631117	-0.248328	-0.211364
O11	O	-4.617118	-0.119429	-0.308850
O12	O	-4.330113	-0.115012	-0.111479
C13	C	-3.815370	-0.286908	-0.214483
C14	C	-3.861240	-0.390289	-0.214052
C15	C	-4.029129	-0.768853	-0.212486
C16	C	-3.982409	-0.663525	-0.212921
C17	C	-3.945185	-0.579575	-0.213268
C18	C	-3.898463	-0.474240	-0.213705
C19	C	-3.797635	-0.123614	-0.337981
C20	C	-3.832227	-0.123178	-0.416062
C21	C	-4.030451	-0.127641	-0.456326
C22	C	-4.062955	-0.127231	-0.529692
C23	C	-3.897233	-0.122377	-0.562794
C24	C	-3.698978	-0.117908	-0.522520
C25	C	-3.666475	-0.118309	-0.449154
N26	N	-3.839491	-0.171490	-0.681658
N27	N	-3.870381	-0.171112	-0.751353
C28	C	-3.995150	-0.121168	-0.783840
N29	N	-4.087898	-0.071629	-0.744002
N30	N	-4.057014	-0.072012	-0.674301
C31	C	-3.932456	-0.121942	-0.642346
C32	C	-4.228630	-0.125186	-0.903656
C33	C	-4.261124	-0.124770	-0.977023
C34	C	-3.897146	-0.115456	-0.969850
C35	C	-3.864653	-0.115863	-0.896484
C36	C	-4.030405	-0.120732	-0.863392
C37	C	-4.133015	0.043809	-0.211701
C38	C	-4.066383	0.147189	-0.212136
C39	C	-4.150751	-0.119483	-0.088201
C40	C	-4.095396	-0.119914	-0.010119
H41	H	-4.165421	-0.131603	-0.429387
C42	C	-3.649622	-0.111239	-0.852725
C43	C	-3.660760	-0.191638	-0.819999
C44	C	-3.462713	-0.187429	-0.779687
H45	H	-3.555456	-0.108354	-0.882887
H46	H	-3.601902	-0.056734	-0.817405
H47	H	-3.708453	-0.246130	-0.855314
H48	H	-3.754886	-0.194540	-0.789824
H49	H	-3.414992	-0.132924	-0.744367
H50	H	-3.368562	-0.184542	-0.809855
H51	H	-3.470247	-0.241974	-0.757473
C52	C	-4.278331	-0.132295	-0.573415
C53	C	-4.420489	-0.215649	-0.567330
C54	C	-4.618904	-0.220361	-0.607606
H55	H	-4.320786	-0.079842	-0.556424
H56	H	-4.274043	-0.131419	-0.621862
H57	H	-4.424783	-0.216517	-0.518893
H58	H	-4.378101	-0.268116	-0.584326
H59	H	-4.614616	-0.219484	-0.656053
H60	H	-4.661339	-0.167904	-0.590611
H61	H	-4.715378	-0.276919	-0.603489
H62	H	-4.363593	-0.129148	-0.876711
C63	C	-3.451435	-0.113657	-0.405383
C64	C	-3.462538	-0.194047	-0.372648
C65	C	-3.264490	-0.189807	-0.332321
H66	H	-3.357241	-0.110760	-0.435536
H67	H	-3.403766	-0.059147	-0.370068
H68	H	-3.510179	-0.248543	-0.407959
H69	H	-3.556692	-0.196959	-0.342484
H70	H	-3.216822	-0.135297	-0.297005
H71	H	-3.170312	-0.186909	-0.362479
H72	H	-3.272001	-0.244346	-0.310100
C73	C	-4.476495	-0.129807	-1.020726
C74	C	-4.618687	-0.213153	-1.014647
C75	C	-4.817103	-0.217829	-1.054904
H76	H	-4.518899	-0.077347	-1.003717
H77	H	-4.472234	-0.128918	-1.069175
H78	H	-4.622954	-0.214033	-0.966209
H79	H	-4.576351	-0.265627	-1.031661
H80	H	-4.812842	-0.216941	-1.103353
H81	H	-4.859486	-0.165365	-1.037892
H82	H	-4.913600	-0.274383	-1.050791
H83	H	-3.564046	-0.113953	-0.549475
H84	H	-3.762206	-0.111496	-0.996800
