data_functionalizedCrystal
_audit_creation_method	'MofGen! by Chris Wilmer'
_symmetry_space_group_name_H-M	'P1'
_symmetry_Int_Tables_number	1
_symmetry_cell_setting	triclinic
loop_
_symmetry_equiv_pos_as_xyz
  x,y,z
_cell_length_a	15.995343
_cell_length_b	15.995350
_cell_length_c	9.730223
_cell_angle_alpha	90.000899
_cell_angle_beta	90.004116
_cell_angle_gamma	83.490779
loop_
_atom_site_label
_atom_site_type_symbol
_atom_site_fract_x
_atom_site_fract_y
_atom_site_fract_z
O1	O	1.110985	0.107892	-0.114145
O2	O	0.867209	0.121226	-0.114177
O3	O	0.995761	-0.007329	-0.114159
O4	O	0.982433	0.236447	-0.114163
O5	O	0.995759	-0.007326	0.114421
O6	O	0.867207	0.121229	0.114403
O7	O	1.110983	0.107895	0.114435
Zn8	Zn	0.989095	0.114563	0.150711
Zn9	Zn	0.989097	0.114559	-0.150453
O10	O	0.982431	0.236450	0.114417
C11	C	0.836013	0.120678	0.000109
C12	C	0.743062	0.119028	0.000096
C13	C	0.572876	0.116035	0.000114
C14	C	0.549530	0.023238	0.000116
C15	C	0.452852	0.021492	0.000643
C16	C	0.405316	0.113086	0.000131
C17	C	0.434407	0.159748	0.130401
C18	C	0.531199	0.160849	0.130502
C19	C	0.531111	0.162204	-0.129445
C20	C	0.434616	0.158778	-0.131149
C21	C	0.310618	0.111425	0.000145
C22	C	0.667574	0.117699	0.000110
C23	C	0.995209	-0.038522	0.000128
C24	C	0.993557	-0.131472	0.000120
C25	C	0.987625	-0.469220	0.000124
C26	C	0.896072	-0.421783	-0.000401
C27	C	0.897725	-0.325093	0.000115
C28	C	0.990567	-0.301659	0.000121
C29	C	1.035723	-0.342736	0.130655
C30	C	1.033423	-0.439372	0.130764
C31	C	1.035316	-0.439734	-0.129174
C32	C	1.035295	-0.342788	-0.130899
C33	C	0.992235	-0.206962	0.000125
C34	C	0.985960	-0.563917	0.000130
C35	C	1.142179	0.108444	0.000146
C36	C	1.235130	0.110093	0.000150
C37	C	0.982983	0.267643	0.000126
C38	C	0.984635	0.360594	0.000125
N39	N	0.989100	0.114565	0.356247
N40	N	0.989099	0.114549	-0.355990
C41	C	1.046037	0.057660	0.428181
C42	C	1.046035	0.057650	0.572064
C43	C	0.932156	0.171457	0.572066
C44	C	0.932154	0.171463	0.428186
C45	C	1.111787	-0.008043	0.428181
C46	C	1.111785	-0.008053	0.572064
H47	H	0.559382	0.132925	-0.228216
Br48	Br	1.148141	-0.317183	-0.144041
Br49	Br	0.597835	-0.035739	0.155587
H50	H	1.100640	-0.471622	0.136692
H51	H	0.434415	-0.014860	0.094573
Br52	Br	1.147822	-0.492672	-0.130631
Br53	Br	1.212812	0.025078	0.353800
H54	H	0.577538	-0.012732	-0.093288
H55	H	0.862229	-0.296671	-0.093457
Br56	Br	0.854867	0.248678	0.330557
H57	H	0.557984	0.128914	0.228253
H58	H	0.545773	0.228899	0.136072
Br59	Br	1.078749	-0.109121	0.646438
H60	H	0.416060	0.124797	-0.227525
Br61	Br	0.983451	-0.295432	0.292558
H62	H	0.885792	0.217781	0.630654
Br63	Br	0.838158	-0.278637	0.156320
H64	H	1.176008	0.005731	0.611123
H65	H	1.103932	-0.328612	0.135514
Br66	Br	0.985420	-0.473956	-0.294077
H67	H	1.098051	-0.072280	0.389126
H68	H	0.433834	-0.015034	-0.092721
Br69	Br	0.400922	0.106394	0.292607
Br70	Br	0.381333	0.272106	0.137872
H71	H	0.545125	0.230508	-0.130702
Br72	Br	0.379695	0.270176	-0.144933
Br73	Br	0.835077	-0.452666	-0.156426
Br74	Br	0.835175	-0.454835	0.154260
H75	H	1.002280	-0.315540	-0.227464
Br76	Br	0.978537	-0.469876	0.293386
