data_functionalizedCrystal
_audit_creation_method	'MofGen! by Chris Wilmer'
_symmetry_space_group_name_H-M	'P1'
_symmetry_Int_Tables_number	1
_symmetry_cell_setting	triclinic
loop_
_symmetry_equiv_pos_as_xyz
  x,y,z
_cell_length_a	12.759401
_cell_length_b	21.295417
_cell_length_c	21.295420
_cell_angle_alpha	90.018953
_cell_angle_beta	90.003195
_cell_angle_gamma	90.030668
loop_
_atom_site_label
_atom_site_type_symbol
_atom_site_fract_x
_atom_site_fract_y
_atom_site_fract_z
Zn1	Zn	1.605981	-0.250695	0.355857
Zn2	Zn	2.105981	0.249305	0.855857
Zn3	Zn	1.605874	-0.355942	0.250583
Zn4	Zn	2.105874	0.144058	0.750583
Zn5	Zn	1.430330	-0.250691	0.250608
Zn6	Zn	1.930330	0.249309	0.750608
Zn7	Zn	1.430223	-0.355931	0.355820
Zn8	Zn	1.930223	0.144069	0.855820
O9	O	1.518102	-0.303315	0.303217
O10	O	2.018102	0.196685	0.803217
O11	O	1.752988	-0.264663	0.341897
O12	O	2.252988	0.235337	0.841897
O13	O	1.582588	-0.341983	0.162497
O14	O	2.082588	0.158017	0.662497
O15	O	1.453720	-0.162602	0.264596
O16	O	1.953720	0.337398	0.764596
O17	O	1.752909	-0.341987	0.264552
O18	O	2.252909	0.158013	0.764552
O19	O	1.582770	-0.162605	0.341922
O20	O	2.082770	0.337395	0.841922
O21	O	1.453616	-0.264656	0.162516
O22	O	1.953616	0.235344	0.662516
O23	O	1.283295	-0.264645	0.264560
O24	O	1.783295	0.235355	0.764560
O25	O	1.453538	-0.341968	0.443915
O26	O	1.953538	0.158032	0.943915
O27	O	1.283217	-0.341964	0.341859
O28	O	1.783217	0.158036	0.841859
O29	O	1.582667	-0.264652	0.443942
O30	O	2.082667	0.235348	0.943942
O31	O	1.582484	-0.444030	0.264517
O32	O	2.082484	0.055970	0.764517
O33	O	1.453434	-0.444021	0.341834
O34	O	1.953434	0.055979	0.841834
C35	C	1.245135	-0.303303	0.303209
C36	C	1.745135	0.196697	0.803209
C37	C	1.128358	-0.303313	0.303220
C38	C	1.628358	0.196687	0.803220
C39	C	1.073483	-0.343638	0.343403
C40	C	1.573483	0.156362	0.843403
C41	C	0.963759	-0.343646	0.343410
C42	C	1.463759	0.156354	0.843410
C43	C	0.963795	-0.263003	0.263045
C44	C	1.463795	0.236997	0.763045
C45	C	1.073517	-0.262992	0.263042
C46	C	1.573517	0.237008	0.763042
C47	C	1.128324	-0.383959	0.383581
C48	C	1.628324	0.116041	0.883581
C49	C	1.073448	-0.424287	0.423766
C50	C	1.573448	0.075713	0.923766
C51	C	0.963724	-0.424295	0.423773
C52	C	1.463724	0.075705	0.923773
C53	C	0.908876	-0.383975	0.383594
C54	C	1.408876	0.116025	0.883594
C55	C	1.517965	-0.466866	0.303182
C56	C	2.017965	0.033134	0.803182
C57	C	1.518002	-0.536834	0.303188
C58	C	2.018002	-0.036834	0.803188
C59	C	1.585258	-0.569684	0.262970
C60	C	2.085258	-0.069684	0.762970
C61	C	1.585307	-0.635427	0.262985
C62	C	2.085307	-0.135427	0.762985
C63	C	1.518081	-0.668317	0.303210
C64	C	2.018081	-0.168317	0.803210
C65	C	1.450821	-0.635459	0.343436
C66	C	1.950821	-0.135459	0.843436
C67	C	1.450781	-0.569718	0.343425
C68	C	1.950781	-0.069718	0.843425
N69	N	1.426172	-0.771584	0.308006
N70	N	1.926172	-0.271584	0.808006
N71	N	1.426213	-0.834035	0.308013
N72	N	1.926213	-0.334035	0.808013
C73	C	1.518199	-0.866391	0.303246
C74	C	2.018199	-0.366391	0.803246
N75	N	1.610145	-0.833937	0.298460
N76	N	2.110145	-0.333937	0.798460
N77	N	1.610103	-0.771480	0.298451
N78	N	2.110103	-0.271480	0.798451
C79	C	1.518118	-0.739602	0.303227
C80	C	2.018118	-0.239602	0.803227
C81	C	1.585514	-0.970527	0.263041
C82	C	2.085514	-0.470527	0.763041
C83	C	1.585565	-1.036271	0.263060
C84	C	2.085565	-0.536271	0.763060
C85	C	1.451070	-1.036301	0.343508
C86	C	1.951070	-0.536301	0.843508
C87	C	1.451028	-0.970559	0.343493
C88	C	1.951028	-0.470559	0.843493
C89	C	1.518249	-0.937676	0.303256
C90	C	2.018249	-0.437676	0.803256
C91	C	1.792135	-0.303327	0.303226
C92	C	2.292135	0.196673	0.803226
C93	C	1.908912	-0.303332	0.303230
C94	C	2.408912	0.196668	0.803230
C95	C	1.518103	-0.303309	0.467407
C96	C	2.018103	0.196691	0.967407
C97	C	1.518103	-0.303307	0.537376
C98	C	2.018103	0.196693	1.037376
C99	C	1.518269	-0.139124	0.303266
C100	C	2.018269	0.360876	0.803266
C101	C	1.518340	-0.069156	0.303287
C102	C	2.018340	0.430844	0.803287
C103	C	1.585293	-0.263055	1.036849
C104	C	2.085293	0.236945	1.536849
C105	C	1.585305	-0.263056	0.971106
C106	C	2.085305	0.236944	1.471106
C107	C	1.518077	-0.303309	0.938215
C108	C	2.018077	0.196691	1.438215
C109	C	1.450852	-0.343575	0.971072
C110	C	1.950852	0.156425	1.471072
C111	C	1.450850	-0.343577	1.036813
C112	C	1.950850	0.156423	1.536813
N113	N	1.426109	-0.308131	0.834989
N114	N	1.926109	0.191869	1.334989
N115	N	1.426114	-0.308125	0.772538
N116	N	1.926114	0.191875	1.272538
C117	C	1.518079	-0.303306	0.740140
C118	C	2.018079	0.196694	1.240140
N119	N	1.610042	-0.298481	0.772553
N120	N	2.110042	0.201519	1.272553
N121	N	1.610036	-0.298483	0.835010
N122	N	2.110036	0.201517	1.335010
C123	C	1.518071	-0.303312	0.866930
C124	C	2.018071	0.196688	1.366930
C125	C	1.585317	-0.263047	0.636006
C126	C	2.085317	0.236953	1.136006
C127	C	1.585330	-0.263053	0.570262
C128	C	2.085330	0.236947	1.070262
C129	C	1.450868	-0.343568	0.570229
C130	C	1.950868	0.156432	1.070229
C131	C	1.450864	-0.343566	0.635971
C132	C	1.950864	0.156434	1.135971
C133	C	1.518088	-0.303302	0.668856
C134	C	2.018088	0.196698	1.168856
C135	C	1.518089	-0.303328	1.139666
C136	C	2.018089	0.196672	1.639666
C137	C	1.518073	-0.303313	1.069697
C138	C	2.018073	0.196687	1.569697
H139	H	1.217667	-0.383958	0.383578
H140	H	1.717667	0.116042	0.883578
Br141	Br	1.147998	-0.208264	0.208509
Br142	Br	1.647998	0.291736	0.708509
H143	H	1.640339	-1.063016	0.230311
H144	H	2.140339	-0.563016	0.730311
Br145	Br	1.359632	-0.398205	0.680555
Br146	Br	1.859632	0.101795	1.180555
H147	H	0.919129	-0.230177	0.230333
H148	H	1.419129	0.269823	0.730333
H149	H	1.396338	-1.063080	0.376263
H150	H	1.896338	-0.563080	0.876263
Br151	Br	1.359499	-0.525132	0.398012
Br152	Br	1.859499	-0.025132	0.898012
H153	H	1.396257	-0.943811	0.376240
H154	H	1.896257	-0.443811	0.876240
Br155	Br	1.676500	-0.525060	0.208373
Br156	Br	2.176500	-0.025060	0.708373
H157	H	1.640078	-0.662179	0.230234
H158	H	2.140078	-0.162179	0.730234
Br159	Br	1.676568	-0.208438	1.081475
Br160	Br	2.176568	0.291562	1.581475
Br161	Br	1.359594	-0.680093	0.398033
Br162	Br	1.859594	-0.180093	0.898033
Br163	Br	1.676540	-0.208417	0.926515
Br164	Br	2.176540	0.291583	1.426515
Br165	Br	1.147882	-0.478999	0.478297
Br166	Br	1.647882	0.021001	0.978297
Br167	Br	1.359619	-0.398208	0.926436
Br168	Br	1.859619	0.101792	1.426436
H169	H	1.640253	-0.943752	0.230280
H170	H	2.140253	-0.443752	0.730280
Br171	Br	1.359643	-0.398208	0.525598
Br172	Br	1.859643	0.101792	1.025598
Br173	Br	1.359617	-0.398219	1.081397
Br174	Br	1.859617	0.101781	1.581397
Br175	Br	0.759963	-0.383980	0.383611
Br176	Br	1.259963	0.116020	0.883611
Br177	Br	0.889252	-0.479018	0.478316
Br178	Br	1.389252	0.020982	0.978316
Br179	Br	1.676523	-0.208391	0.680639
Br180	Br	2.176523	0.291609	1.180639
Br181	Br	1.676576	-0.208417	0.525680
Br182	Br	2.176576	0.291583	1.025680
