data_functionalizedCrystal
_audit_creation_method	'MofGen! by Chris Wilmer'
_symmetry_space_group_name_H-M	'P1'
_symmetry_Int_Tables_number	1
_symmetry_cell_setting	triclinic
loop_
_symmetry_equiv_pos_as_xyz
  x,y,z
_cell_length_a	8.497365
_cell_length_b	17.077404
_cell_length_c	17.077402
_cell_angle_alpha	89.979147
_cell_angle_beta	90.055217
_cell_angle_gamma	89.966843
loop_
_atom_site_label
_atom_site_type_symbol
_atom_site_fract_x
_atom_site_fract_y
_atom_site_fract_z
Zn1	Zn	-0.891941	1.200169	0.312354
Zn2	Zn	-0.628126	1.200042	0.443687
Zn3	Zn	-0.628166	1.068867	0.312434
Zn4	Zn	-0.891855	1.068869	0.443577
O5	O	-0.760022	1.134487	0.378013
O6	O	-0.856965	1.309999	0.329788
O7	O	-0.407369	1.182588	0.426356
O8	O	-0.663208	1.086337	0.202577
O9	O	-0.663141	1.309906	0.426277
O10	O	-0.857003	1.182804	0.202517
O11	O	-0.407398	1.086214	0.329925
O12	O	-0.663125	0.959021	0.329818
O13	O	-1.112629	1.086340	0.426090
O14	O	-0.856857	0.959022	0.426168
O15	O	-1.112693	1.182806	0.329681
O16	O	-0.663058	1.182590	0.553519
O17	O	-0.856819	1.086217	0.553438
C18	C	-0.759987	0.930539	0.377991
C19	C	-0.760009	0.843289	0.378000
C20	C	-0.861087	0.802348	0.327847
C21	C	-0.861094	0.720368	0.327852
C22	C	-0.760030	0.679330	0.378015
C23	C	-0.658941	0.720277	0.428170
C24	C	-0.658927	0.802256	0.428160
C25	C	-0.658980	0.549407	0.428188
C26	C	-0.658996	0.467422	0.428199
C27	C	-0.861148	0.467519	0.327879
C28	C	-0.861134	0.549498	0.327870
C29	C	-0.760046	0.590439	0.378026
C30	C	-0.759959	1.134411	0.581961
C31	C	-0.759985	1.134451	0.669211
C32	C	-0.350142	1.134430	0.378098
C33	C	-0.171499	1.134542	0.377937
C34	C	-0.760059	1.339231	0.378036
C35	C	-0.760074	1.426481	0.378046
C36	C	-0.760120	1.134584	0.173269
C37	C	-0.760162	1.134626	0.086019
C38	C	-0.659202	1.184683	0.710217
C39	C	-0.659242	1.184721	0.792197
C40	C	-0.760059	1.134523	0.833170
C41	C	-0.860853	1.084288	0.792158
C42	C	-0.860819	1.084254	0.710179
C43	C	-0.860913	1.084361	0.963028
C44	C	-0.860944	1.084394	1.045013
C45	C	-0.659336	1.184828	1.045046
C46	C	-0.659302	1.184794	0.963067
C47	C	-0.760095	1.134558	0.922061
H48	H	-0.943438	0.582909	0.287028
H49	H	-0.577272	1.225735	1.078437
H50	H	-0.576660	0.582738	0.469028
H51	H	-0.577099	1.225557	0.676862
O52	O	-0.970084	0.846606	0.273735
H53	H	-1.093855	0.830905	0.287241
H54	H	-0.942946	1.043419	0.825525
O55	O	-0.550575	1.238938	0.918870
H56	H	-0.480506	1.273882	0.961155
O57	O	-0.970171	0.423369	0.273773
H58	H	-0.953190	0.359469	0.282197
H59	H	-0.577174	1.225625	0.825581
O60	O	-0.969501	1.030067	0.665945
H61	H	-1.039597	0.995158	0.708206
O62	O	-0.969695	1.030262	1.089210
H63	H	-1.039798	0.995334	1.046925
H64	H	-0.943405	0.687038	0.287014
H65	H	-0.576645	0.686857	0.469009
O66	O	-0.549981	0.423154	0.482293
H67	H	-0.479666	0.465394	0.517159
O68	O	-0.549910	0.846420	0.482254
H69	H	-0.479645	0.804112	0.517142
H70	H	-0.942994	1.043456	0.929643
