data_functionalizedCrystal
_audit_creation_method	'MofGen! by Chris Wilmer'
_symmetry_space_group_name_H-M	'P1'
_symmetry_Int_Tables_number	1
_symmetry_cell_setting	triclinic
loop_
_symmetry_equiv_pos_as_xyz
  x,y,z
_cell_length_a	19.121324
_cell_length_b	19.077105
_cell_length_c	19.077068
_cell_angle_alpha	89.884684
_cell_angle_beta	89.730754
_cell_angle_gamma	89.971547
loop_
_atom_site_label
_atom_site_type_symbol
_atom_site_fract_x
_atom_site_fract_y
_atom_site_fract_z
Zn1	Zn	-0.451074	-1.044503	-0.302975
Zn2	Zn	-0.117741	-0.711169	0.030358
Zn3	Zn	0.215592	-0.377836	0.363692
Zn4	Zn	-0.338520	-1.044303	-0.425476
Zn5	Zn	-0.005187	-0.710969	-0.092142
Zn6	Zn	0.328146	-0.377636	0.241191
Zn7	Zn	-0.329161	-0.931991	-0.303676
Zn8	Zn	0.004172	-0.598658	0.029657
Zn9	Zn	0.337506	-0.265325	0.362990
Zn10	Zn	-0.450654	-0.922255	-0.415735
Zn11	Zn	-0.117320	-0.588922	-0.082402
Zn12	Zn	0.216013	-0.255588	0.250932
O13	O	-0.392352	-0.985763	-0.361965
O14	O	-0.059019	-0.652430	-0.028632
O15	O	0.274314	-0.319096	0.304701
O16	O	-0.440237	-1.142640	-0.323008
O17	O	-0.106903	-0.809306	0.010326
O18	O	0.226430	-0.475973	0.343659
O19	O	-0.239329	-1.033395	-0.413689
O20	O	0.094004	-0.700062	-0.080355
O21	O	0.427337	-0.366729	0.252978
O22	O	-0.341592	-0.951075	-0.205419
O23	O	-0.008259	-0.617742	0.127914
O24	O	0.325075	-0.284408	0.461247
O25	O	-0.357544	-1.142493	-0.413009
O26	O	-0.024210	-0.809159	-0.079675
O27	O	0.309123	-0.475826	0.253658
O28	O	-0.431161	-1.033736	-0.204904
O29	O	-0.097828	-0.700403	0.128429
O30	O	0.235506	-0.367070	0.461763
O31	O	-0.232453	-0.950881	-0.324203
O32	O	0.100880	-0.617548	0.009130
O33	O	0.434214	-0.284214	0.342463
O34	O	-0.341184	-0.832536	-0.314758
O35	O	-0.007851	-0.499203	0.018575
O36	O	0.325482	-0.165870	0.351908
O37	O	-0.548659	-0.934480	-0.396407
O38	O	-0.215326	-0.601147	-0.063074
O39	O	0.118008	-0.267814	0.270259
O40	O	-0.430444	-0.825383	-0.397087
O41	O	-0.097111	-0.492049	-0.063754
O42	O	0.236222	-0.158716	0.269579
O43	O	-0.548968	-1.024295	-0.313563
O44	O	-0.215635	-0.690962	0.019771
O45	O	0.117699	-0.357628	0.353104
O46	O	-0.357136	-1.023954	-0.522348
O47	O	-0.023803	-0.690621	-0.189014
O48	O	0.309531	-0.357287	0.144319
O49	O	-0.439520	-0.934286	-0.515191
O50	O	-0.106187	-0.600953	-0.181858
O51	O	0.227147	-0.267620	0.151475
C52	C	-0.384753	-0.803507	-0.354942
C53	C	-0.051420	-0.470173	-0.021609
C54	C	0.281913	-0.136840	0.311724
C55	C	-0.381520	-0.725535	-0.351954
C56	C	-0.048187	-0.392202	-0.018621
C57	C	0.285147	-0.058869	0.314713
C58	C	-0.399314	-0.978060	-0.544222
C59	C	-0.065981	-0.644727	-0.210889
C60	C	0.267353	-0.311394	0.122444
C61	C	-0.402318	-0.974828	-0.622194
C62	C	-0.068985	-0.641495	-0.288861
C63	C	0.264348	-0.308162	0.044473
C64	C	-0.574921	-0.978324	-0.353820
C65	C	-0.241587	-0.644991	-0.020487
C66	C	0.091746	-0.311657	0.312846
C67	C	-0.652720	-0.975154	-0.350349
C68	C	-0.319387	-0.641821	-0.017016
C69	C	0.013946	-0.308487	0.316318
C70	C	-0.692854	-1.016622	-0.395306
C71	C	-0.359520	-0.683289	-0.061973
C72	C	-0.026187	-0.349955	0.271360
C73	C	-0.765955	-1.013644	-0.392036
C74	C	-0.432621	-0.680310	-0.058703
C75	C	-0.099288	-0.346977	0.274630
C76	C	-0.798921	-0.969193	-0.343812
C77	C	-0.465587	-0.635860	-0.010479
C78	C	-0.132254	-0.302526	0.322855
C79	C	-0.758782	-0.927723	-0.298850
C80	C	-0.425449	-0.594390	0.034483
C81	C	-0.092115	-0.261057	0.367816
C82	C	-0.685683	-0.930706	-0.302117
C83	C	-0.352349	-0.597373	0.031216
C84	C	-0.019016	-0.264039	0.364549
C85	C	-1.019455	-0.958042	-0.331614
C86	C	-0.686121	-0.624709	0.001720
C87	C	-0.352788	-0.291376	0.335053
C88	C	-1.092559	-0.955061	-0.328352
C89	C	-0.759226	-0.621728	0.004982
C90	C	-0.425893	-0.288395	0.338315
C91	C	-1.099727	-1.040983	-0.421537
C92	C	-0.766393	-0.707650	-0.088204
C93	C	-0.433060	-0.374316	0.245130
C94	C	-1.026626	-1.043958	-0.424803
C95	C	-0.693292	-0.710625	-0.091469
C96	C	-0.359959	-0.377292	0.241864
C97	C	-0.986493	-1.002492	-0.379838
C98	C	-0.653160	-0.669158	-0.046505
C99	C	-0.319827	-0.335825	0.286828
C100	C	-0.873641	-0.966146	-0.340470
C101	C	-0.540308	-0.632813	-0.007137
C102	C	-0.206975	-0.299479	0.326197
C103	C	-0.911774	-1.005543	-0.383178
C104	C	-0.578441	-0.672209	-0.049844
C105	C	-0.245107	-0.338876	0.283489
C106	C	-0.210494	-0.993215	-0.370030
C107	C	0.122839	-0.659882	-0.036697
C108	C	0.456173	-0.326549	0.296637
C109	C	-0.132693	-0.996530	-0.373309
C110	C	0.200641	-0.663196	-0.039975
C111	C	0.533974	-0.329863	0.293358
C112	C	-0.399981	-1.168731	-0.369016
C113	C	-0.066648	-0.835397	-0.035683
C114	C	0.266685	-0.502064	0.297650
C115	C	-0.403232	-1.246701	-0.372021
C116	C	-0.069899	-0.913367	-0.038688
C117	C	0.263435	-0.580034	0.294646
C118	C	-0.426406	-0.685198	-0.393485
C119	C	-0.093073	-0.351865	-0.060152
C120	C	0.240261	-0.018532	0.273181
C121	C	-0.423371	-0.611936	-0.390668
C122	C	-0.090038	-0.278603	-0.057335
C123	C	0.243296	0.054731	0.275999
C124	C	-0.375446	-0.579012	-0.346323
C125	C	-0.042112	-0.245679	-0.012990
C126	C	0.291221	0.087654	0.320344
C127	C	-0.330557	-0.619355	-0.304787
C128	C	0.002776	-0.286022	0.028546
C129	C	0.336109	0.047312	0.361880
C130	C	-0.333597	-0.692616	-0.307601
C131	C	-0.000263	-0.359282	0.025732
C132	C	0.333070	-0.025949	0.359066
C133	C	-0.361383	-0.360304	-0.333299
C134	C	-0.028050	-0.026971	0.000034
C135	C	0.305283	0.306363	0.333367
C136	C	-0.358346	-0.287038	-0.330490
C137	C	-0.025013	0.046296	0.002843
C138	C	0.308321	0.379629	0.336177
C139	C	-0.451161	-0.279624	-0.416370
C140	C	-0.117827	0.053709	-0.083037
C141	C	0.215506	0.387043	0.250296
C142	C	-0.454193	-0.352886	-0.419184
C143	C	-0.120859	-0.019553	-0.085850
C144	C	0.212474	0.313780	0.247483
C145	C	-0.409307	-0.393223	-0.377645
C146	C	-0.075974	-0.059889	-0.044312
C147	C	0.257359	0.273444	0.289022
N148	N	-0.372340	-0.504127	-0.343444
N149	N	-0.039007	-0.170794	-0.010110
N150	N	0.294326	0.162540	0.323223
N151	N	-0.412416	-0.468107	-0.380521
N152	N	-0.079083	-0.134773	-0.047188
N153	N	0.254250	0.198560	0.286146
C154	C	-0.360876	-1.020028	-0.662527
C155	C	-0.027542	-0.686695	-0.329194
C156	C	0.305791	-0.353362	0.004139
C157	C	-0.363706	-1.016993	-0.735790
C158	C	-0.030372	-0.683659	-0.402456
C159	C	0.302961	-0.350326	-0.069123
C160	C	-0.407975	-0.968753	-0.768717
C161	C	-0.074642	-0.635419	-0.435384
C162	C	0.258691	-0.302086	-0.102051
C163	C	-0.449423	-0.923551	-0.728378
C164	C	-0.116090	-0.590217	-0.395045
C165	C	0.217244	-0.256884	-0.061712
C166	C	-0.446596	-0.926590	-0.655117
C167	C	-0.113263	-0.593257	-0.321784
C168	C	0.220071	-0.259924	0.011549
C169	C	-0.421029	-0.954655	-0.987427
C170	C	-0.087695	-0.621321	-0.654094
C171	C	0.245638	-0.287988	-0.320760
C172	C	-0.423851	-0.951617	-1.060693
C173	C	-0.090517	-0.618284	-0.727360
C174	C	0.242816	-0.284950	-0.394027
C175	C	-0.338134	-1.045060	-1.068100
C176	C	-0.004801	-0.711727	-0.734766
C177	C	0.328532	-0.378394	-0.401433
C178	C	-0.335308	-1.048093	-0.994837
C179	C	-0.001975	-0.714760	-0.661504
C180	C	0.331358	-0.381426	-0.328170
C181	C	-0.376758	-1.002893	-0.954504
C182	C	-0.043425	-0.669560	-0.621171
C183	C	0.289908	-0.336227	-0.287838
N184	N	-0.410868	-0.965647	-0.843603
N185	N	-0.077534	-0.632314	-0.510270
N186	N	0.255799	-0.298980	-0.176936
N187	N	-0.373869	-1.006003	-0.879620
N188	N	-0.040536	-0.672670	-0.546287
N189	N	0.292797	-0.339336	-0.212953
C190	C	-0.385379	-0.993514	-0.178997
C191	C	-0.052046	-0.660181	0.154336
C192	C	0.281287	-0.326847	0.487670
C193	C	-0.382408	-0.996817	-0.101027
C194	C	-0.049075	-0.663484	0.232306
C195	C	0.284259	-0.330150	0.565640
H196	H	-0.666018	-1.052821	-0.434573
H197	H	-0.332685	-0.719488	-0.101240
H198	H	0.000648	-0.386154	0.232093
H199	H	-0.465430	-0.711999	-0.429598
H200	H	-0.132097	-0.378666	-0.096265
H201	H	0.201237	-0.045332	0.237068
H202	H	-0.324823	-1.059308	-0.635723
H203	H	0.008510	-0.725974	-0.302390
H204	H	0.341843	-0.392641	0.030944
H205	H	-0.324829	-0.393137	-0.299481
H206	H	0.008504	-0.059804	0.033852
H207	H	0.341838	0.273530	0.367186
F208	F	-0.279556	-0.584313	-0.257587
F209	F	0.053778	-0.250980	0.075747
F210	F	0.387111	0.082353	0.409080
F211	F	-0.285824	-0.735545	-0.263396
F212	F	0.047509	-0.402212	0.069937
F213	F	0.380843	-0.068879	0.403270
H214	H	-0.900491	-0.929953	-0.301207
H215	H	-0.567157	-0.596619	0.032126
H216	H	-0.233824	-0.263286	0.365459
H217	H	-0.480344	-0.889784	-0.622278
H218	H	-0.147011	-0.556451	-0.288945
H219	H	0.186323	-0.223118	0.044389
F220	F	-1.127643	-0.907772	-0.277001
F221	F	-0.794309	-0.574438	0.056332
F222	F	-0.460976	-0.241105	0.389665
F223	F	-0.876688	-1.052852	-0.434496
F224	F	-0.543354	-0.719519	-0.101163
F225	F	-0.210021	-0.386186	0.232170
F226	F	-0.319598	-1.065103	-0.778713
F227	F	0.013735	-0.731770	-0.445379
F228	F	0.347068	-0.398436	-0.112046
F229	F	-0.471145	-0.569009	-0.434871
F230	F	-0.137812	-0.235676	-0.101538
F231	F	0.195521	0.097657	0.231795
F232	F	-0.288198	-1.099444	-0.959799
F233	F	0.045135	-0.766111	-0.626465
F234	F	0.378468	-0.432777	-0.293132
F235	F	-1.142443	-1.085113	-0.469387
F236	F	-0.809110	-0.751780	-0.136053
F237	F	-0.475777	-0.418447	0.197280
F238	F	-0.496542	-0.872213	-0.763424
F239	F	-0.163209	-0.538880	-0.430091
F240	F	0.170124	-0.205547	-0.096757
F241	F	-0.307331	-0.252000	-0.283294
F242	F	0.026002	0.081334	0.050039
F243	F	0.359336	0.414667	0.383373
F244	F	-0.498927	-0.236691	-0.460577
F245	F	-0.165593	0.096643	-0.127243
F246	F	0.167740	0.429976	0.206090
F247	F	-0.294026	-1.093164	-1.111029
F248	F	0.039307	-0.759831	-0.777696
F249	F	0.372640	-0.426498	-0.444363
H250	H	-0.493217	-0.379688	-0.455296
H251	H	-0.159884	-0.046354	-0.121962
H252	H	0.173450	0.286979	0.211371
H253	H	-0.986787	-0.924274	-0.295003
H254	H	-0.653454	-0.590941	0.038330
H255	H	-0.320121	-0.257607	0.371663
H256	H	-0.459913	-0.912342	-1.087500
H257	H	-0.126580	-0.579009	-0.754167
H258	H	0.206754	-0.245675	-0.420834
H259	H	-0.653007	-0.896940	-0.265507
H260	H	-0.319673	-0.563607	0.067827
H261	H	0.013660	-0.230273	0.401160
F262	F	-0.465143	-0.906548	-0.944511
F263	F	-0.131810	-0.573215	-0.611178
F264	F	0.201523	-0.239881	-0.277845
H265	H	-0.785629	-0.891534	-0.259582
H266	H	-0.452296	-0.558201	0.073751
H267	H	-0.118962	-0.224867	0.407084
F268	F	-0.808664	-1.057777	-0.439889
F269	F	-0.475331	-0.724443	-0.106556
F270	F	-0.141998	-0.391110	0.226777
H271	H	-0.999790	-1.080143	-0.464083
H272	H	-0.666456	-0.746810	-0.130749
H273	H	-0.333123	-0.413477	0.202584
