data_functionalizedCrystal
_audit_creation_method	'MofGen! by Chris Wilmer'
_symmetry_space_group_name_H-M	'P1'
_symmetry_Int_Tables_number	1
_symmetry_cell_setting	triclinic
loop_
_symmetry_equiv_pos_as_xyz
  x,y,z
_cell_length_a	6.817900
_cell_length_b	15.301126
_cell_length_c	12.200875
_cell_angle_alpha	94.042470
_cell_angle_beta	107.143593
_cell_angle_gamma	104.177575
loop_
_atom_site_label
_atom_site_type_symbol
_atom_site_fract_x
_atom_site_fract_y
_atom_site_fract_z
V1	V	-4.071837	-0.124964	-0.358010
O2	O	-4.054876	0.005794	-0.350836
O3	O	-4.026524	-0.247580	-0.355907
O4	O	-4.041509	-0.123134	-0.513993
O5	O	-4.039788	-0.119513	-0.191655
V6	V	-4.552723	-0.109313	-0.338071
O7	O	-4.338879	-0.159296	-0.401749
O8	O	-4.735879	-0.074981	-0.294332
O9	O	-4.374830	0.013303	-0.340174
O10	O	-4.687081	-0.240071	-0.345245
O11	O	-4.702170	-0.114764	-0.504426
O12	O	-4.359845	-0.111142	-0.182088
C13	C	-3.871691	-0.277468	-0.350348
C14	C	-3.916049	-0.377708	-0.349668
C15	C	-3.890804	-0.118724	-0.552002
C16	C	-3.947311	-0.118039	-0.679521
C17	C	-4.119790	-0.429397	-0.355083
C18	C	-4.161461	-0.523585	-0.354451
C19	C	-3.999384	-0.566080	-0.348395
C20	C	-3.795627	-0.514384	-0.342983
C21	C	-3.753964	-0.420200	-0.343623
C22	C	-3.882480	-0.710694	-0.341645
C23	C	-3.924144	-0.804885	-0.341002
C24	C	-4.289977	-0.814079	-0.352472
C25	C	-4.248314	-0.719895	-0.353113
C26	C	-4.044558	-0.668205	-0.347699
C27	C	-4.050728	-0.116787	-0.912992
C28	C	-3.993171	-0.117483	-0.783072
C29	C	-4.193005	0.043186	-0.345730
C30	C	-4.127886	0.143426	-0.346418
C31	C	-4.173891	-0.115555	-0.144073
C32	C	-4.096622	-0.116236	-0.016553
H33	H	-4.327365	-0.565666	-0.358862
H34	H	-3.792181	-0.839486	-0.336105
N35	N	-3.674337	-0.657887	-0.336085
N36	N	-3.569451	-0.594303	-0.253891
H37	H	-3.422450	-0.557005	-0.249956
N38	N	-4.498117	-0.866860	-0.357996
N39	N	-4.575078	-0.849415	-0.280639
H40	H	-4.722071	-0.886694	-0.284533
N41	N	-3.545824	-0.367407	-0.338070
N42	N	-3.387164	-0.364842	-0.252891
H43	H	-3.240159	-0.327557	-0.248969
N44	N	-4.285387	-0.386011	-0.361282
N45	N	-4.453356	-0.409621	-0.446317
H46	H	-4.570321	-0.378984	-0.450700
N47	N	-4.413909	-0.676507	-0.359313
N48	N	-4.581877	-0.700118	-0.444349
H49	H	-4.698840	-0.669479	-0.448733
H50	H	-3.663668	-0.548992	-0.338059
