data_functionalizedCrystal
_audit_creation_method	'MofGen! by Chris Wilmer'
_symmetry_space_group_name_H-M	'P1'
_symmetry_Int_Tables_number	1
_symmetry_cell_setting	triclinic
loop_
_symmetry_equiv_pos_as_xyz
  x,y,z
_cell_length_a	19.121102
_cell_length_b	18.215405
_cell_length_c	18.215399
_cell_angle_alpha	89.969449
_cell_angle_beta	87.541604
_cell_angle_gamma	87.579072
loop_
_atom_site_label
_atom_site_type_symbol
_atom_site_fract_x
_atom_site_fract_y
_atom_site_fract_z
Zn1	Zn	1.073728	-0.341065	-0.464034
Zn2	Zn	1.407061	-0.007732	-0.130701
Zn3	Zn	1.740394	0.325602	0.202633
Zn4	Zn	1.073640	-0.464132	-0.340958
Zn5	Zn	1.406974	-0.130799	-0.007625
Zn6	Zn	1.740307	0.202534	0.325709
Zn7	Zn	0.956277	-0.335830	-0.335738
Zn8	Zn	1.289610	-0.002496	-0.002405
Zn9	Zn	1.622943	0.330837	0.330928
Zn10	Zn	0.956244	-0.458834	-0.458742
Zn11	Zn	1.289577	-0.125501	-0.125409
Zn12	Zn	1.622911	0.207832	0.207924
O13	O	1.014972	-0.399965	-0.399868
O14	O	1.348306	-0.066632	-0.066535
O15	O	1.681639	0.266701	0.266798
O16	O	1.172001	-0.361798	-0.452107
O17	O	1.505334	-0.028465	-0.118773
O18	O	1.838667	0.304868	0.214560
O19	O	1.058049	-0.447139	-0.237280
O20	O	1.391382	-0.113805	0.096053
O21	O	1.724715	0.219528	0.429386
O22	O	0.971907	-0.233542	-0.352787
O23	O	1.305240	0.099791	-0.019454
O24	O	1.638574	0.433125	0.313880
O25	O	1.171936	-0.452215	-0.361683
O26	O	1.505270	-0.118882	-0.028350
O27	O	1.838603	0.214451	0.304983
O28	O	1.058198	-0.237388	-0.447045
O29	O	1.391531	0.095945	-0.113712
O30	O	1.724864	0.429278	0.219621
O31	O	0.971822	-0.352875	-0.233445
O32	O	1.305156	-0.019542	0.099888
O33	O	1.638489	0.313791	0.433221
O34	O	0.857988	-0.347738	-0.347656
O35	O	1.191321	-0.014405	-0.014323
O36	O	1.524655	0.318929	0.319011
O37	O	0.971852	-0.443186	-0.562430
O38	O	1.305185	-0.109852	-0.229096
O39	O	1.638518	0.223481	0.104237
O40	O	0.857964	-0.438109	-0.438027
O41	O	1.191297	-0.104776	-0.104693
O42	O	1.524631	0.228558	0.228640
O43	O	1.058166	-0.356661	-0.566317
O44	O	1.391500	-0.023328	-0.232984
O45	O	1.724833	0.310006	0.100349
O46	O	1.058017	-0.566412	-0.356553
O47	O	1.391351	-0.233078	-0.023219
O48	O	1.724684	0.100255	0.310114
O49	O	0.971767	-0.562519	-0.443088
O50	O	1.305100	-0.229186	-0.109755
O51	O	1.638433	0.104148	0.223579
C52	C	1.014898	-0.591168	-0.399829
C53	C	1.348231	-0.257835	-0.066496
C54	C	1.681565	0.075498	0.266837
C55	C	1.014931	-0.672969	-0.399840
C56	C	1.348264	-0.339635	-0.066507
C57	C	1.681597	-0.006302	0.266826
C58	C	0.832492	-0.391781	-0.391701
C59	C	1.165825	-0.058448	-0.058368
C60	C	1.499159	0.274886	0.274966
C61	C	0.754426	-0.388298	-0.388225
C62	C	1.087759	-0.054964	-0.054891
C63	C	1.421093	0.278369	0.278442
C64	C	1.059947	-0.863170	-0.354873
C65	C	1.393280	-0.529836	-0.021539
C66	C	1.726613	-0.196503	0.311794
C67	C	1.059978	-0.940030	-0.354892
C68	C	1.393311	-0.606696	-0.021559
C69	C	1.726645	-0.273363	0.311775
C70	C	0.970088	-0.936013	-0.444921
C71	C	1.303421	-0.602680	-0.111587
C72	C	1.636754	-0.269346	0.221746
C73	C	0.970060	-0.859154	-0.444905
C74	C	1.303394	-0.525821	-0.111571
C75	C	1.636727	-0.192488	0.221762
C76	C	1.014989	-0.822735	-0.399877
C77	C	1.348322	-0.489401	-0.066543
C78	C	1.681655	-0.156068	0.266790
C79	C	1.015048	-0.976453	-0.399912
C80	C	1.348381	-0.643120	-0.066578
C81	C	1.681714	-0.309787	0.266755
C82	C	1.015081	-1.059788	-0.399933
C83	C	1.348415	-0.726455	-0.066599
C84	C	1.681748	-0.393122	0.266734
C85	C	1.014956	-0.739394	-0.399856
C86	C	1.348289	-0.406061	-0.066523
C87	C	1.681623	-0.072728	0.266810
C88	C	0.717756	-0.433783	-0.433569
C89	C	1.051090	-0.100450	-0.100235
C90	C	1.384423	0.232883	0.233098
C91	C	0.644405	-0.430501	-0.430306
C92	C	0.977739	-0.097167	-0.096972
C93	C	1.311072	0.236166	0.236361
C94	C	0.607725	-0.381735	-0.381695
C95	C	0.941058	-0.048402	-0.048361
C96	C	1.274392	0.284931	0.284972
C97	C	0.644400	-0.336244	-0.336349
C98	C	0.977733	-0.002911	-0.003015
C99	C	1.311066	0.330422	0.330318
C100	C	0.717750	-0.339524	-0.339616
C101	C	1.051083	-0.006191	-0.006283
C102	C	1.384416	0.327143	0.327051
C103	C	0.386256	-0.369472	-0.369483
C104	C	0.719589	-0.036139	-0.036150
C105	C	1.052922	0.297195	0.297184
C106	C	0.312901	-0.366197	-0.366218
C107	C	0.646234	-0.032864	-0.032884
C108	C	0.979567	0.300469	0.300449
C109	C	0.312911	-0.460453	-0.460176
C110	C	0.646244	-0.127120	-0.126843
C111	C	0.979578	0.206214	0.206491
C112	C	0.386262	-0.463731	-0.463436
C113	C	0.719596	-0.130398	-0.130102
C114	C	1.052929	0.202935	0.203231
C115	C	0.422931	-0.418238	-0.418093
C116	C	0.756264	-0.084905	-0.084759
C117	C	1.089597	0.248429	0.248574
C118	C	0.532748	-0.378380	-0.378356
C119	C	0.866082	-0.045047	-0.045023
C120	C	1.199415	0.288286	0.288310
C121	C	0.497906	-0.421590	-0.421435
C122	C	0.831239	-0.088257	-0.088102
C123	C	1.164573	0.245077	0.245232
C124	C	1.198165	-0.408182	-0.408068
C125	C	1.531498	-0.074849	-0.074734
C126	C	1.864832	0.258485	0.258599
C127	C	1.276231	-0.411683	-0.411562
C128	C	1.609564	-0.078350	-0.078228
C129	C	1.942898	0.254983	0.255105
C130	C	1.015015	-0.399916	-0.591823
C131	C	1.348348	-0.066583	-0.258490
C132	C	1.681682	0.266750	0.074844
C133	C	1.015033	-0.399896	-0.673623
C134	C	1.348367	-0.066562	-0.340290
C135	C	1.681700	0.266771	-0.006956
C136	C	1.015066	-0.208016	-0.399924
C137	C	1.348399	0.125317	-0.066591
C138	C	1.681732	0.458650	0.266743
C139	C	1.015106	-0.126219	-0.399948
C140	C	1.348439	0.207114	-0.066614
C141	C	1.681772	0.540447	0.266719
C142	C	1.059993	-0.354799	-0.863843
C143	C	1.393327	-0.021466	-0.530510
C144	C	1.726660	0.311868	-0.197176
C145	C	1.060002	-0.354778	-0.940702
C146	C	1.393335	-0.021445	-0.607369
C147	C	1.726669	0.311889	-0.274036
C148	C	0.970123	-0.444881	-0.936643
C149	C	1.303456	-0.111547	-0.603309
C150	C	1.636789	0.221786	-0.269976
C151	C	0.970111	-0.444897	-0.859785
C152	C	1.303445	-0.111564	-0.526452
C153	C	1.636778	0.221769	-0.193118
C154	C	1.015051	-0.399858	-0.823387
C155	C	1.348384	-0.066524	-0.490054
C156	C	1.681717	0.266809	-0.156721
C157	C	1.015070	-0.399820	-0.977104
C158	C	1.348404	-0.066487	-0.643771
C159	C	1.681737	0.266847	-0.310438
C160	C	1.015079	-0.399798	-1.060438
C161	C	1.348413	-0.066464	-0.727105
C162	C	1.681746	0.266869	-0.393772
C163	C	1.015041	-0.399879	-0.740048
C164	C	1.348374	-0.066546	-0.406714
C165	C	1.681708	0.266788	-0.073381
C166	C	1.014970	-0.399963	-0.208662
C167	C	1.348303	-0.066629	0.124671
C168	C	1.681637	0.266704	0.458005
C169	C	1.015088	-0.399782	-0.126869
C170	C	1.348421	-0.066449	0.206465
C171	C	1.681755	0.266885	0.539798
H172	H	1.096531	-0.833519	-0.318209
H173	H	1.429864	-0.500185	0.015124
H174	H	1.763198	-0.166852	0.348458
H175	H	0.502875	-0.338677	-0.338776
H176	H	0.836208	-0.005343	-0.005442
H177	H	1.169542	0.327990	0.327891
O178	O	0.757309	-0.486376	-0.486011
O179	O	1.090642	-0.153043	-0.152678
O180	O	1.423975	0.180291	0.180655
H181	H	0.790752	-0.454973	-0.524998
H182	H	1.124086	-0.121639	-0.191665
H183	H	1.457419	0.211694	0.141669
H184	H	0.933536	-0.481552	-0.966287
H185	H	1.266870	-0.148219	-0.632954
H186	H	1.600203	0.185115	-0.299621
H187	H	0.614552	-0.467541	-0.467229
H188	H	0.947885	-0.134207	-0.133896
H189	H	1.281219	0.199126	0.199438
O190	O	0.273364	-0.509512	-0.509089
O191	O	0.606697	-0.176178	-0.175755
O192	O	0.940031	0.157155	0.157578
H193	H	0.216197	-0.499036	-0.498658
H194	H	0.549530	-0.165703	-0.165325
H195	H	0.882863	0.167631	0.168009
O196	O	0.921567	-0.815540	-0.493451
O197	O	1.254900	-0.482206	-0.160117
O198	O	1.588234	-0.148873	0.173216
H199	H	0.929103	-0.755977	-0.485880
H200	H	1.262437	-0.422644	-0.152547
H201	H	1.595770	-0.089311	0.180786
H202	H	0.933508	-0.481589	-0.826844
H203	H	1.266842	-0.148256	-0.493511
H204	H	1.600175	0.185078	-0.160178
H205	H	1.096588	-0.972949	-0.318246
H206	H	1.429922	-0.639615	0.015087
H207	H	1.763255	-0.306282	0.348420
O208	O	0.425816	-0.516327	-0.515875
O209	O	0.759150	-0.182993	-0.182541
O210	O	1.092483	0.150340	0.150792
H211	H	0.411704	-0.573437	-0.502522
H212	H	0.745037	-0.240103	-0.169188
H213	H	1.078370	0.093230	0.164145
O214	O	0.921617	-0.975292	-0.493471
O215	O	1.254950	-0.641959	-0.160138
O216	O	1.588283	-0.308626	0.173195
H217	H	0.929179	-1.035530	-0.485914
H218	H	1.262513	-0.702197	-0.152580
H219	H	1.595846	-0.368864	0.180753
H220	H	0.283038	-0.326478	-0.326637
H221	H	0.616371	0.006855	0.006696
H222	H	0.949704	0.340188	0.340030
H223	H	1.096598	-0.318085	-0.973638
H224	H	1.429931	0.015248	-0.640305
H225	H	1.763264	0.348581	-0.306971
H226	H	0.614529	-0.296535	-0.296772
H227	H	0.947862	0.036798	0.036562
H228	H	1.281196	0.370131	0.369895
O229	O	0.425790	-0.320421	-0.320554
O230	O	0.759123	0.012912	0.012779
O231	O	1.092457	0.346245	0.346112
H232	H	0.411731	-0.262048	-0.332638
H233	H	0.745065	0.071285	0.000696
H234	H	1.078398	0.404618	0.334029
O235	O	0.757306	-0.290474	-0.290701
O236	O	1.090639	0.042860	0.042632
O237	O	1.423973	0.376193	0.375965
H238	H	0.719479	-0.256020	-0.256343
H239	H	1.052812	0.077314	0.076991
H240	H	1.386145	0.410647	0.410324
H241	H	0.527774	-0.461291	-0.461017
H242	H	0.861108	-0.127958	-0.127684
H243	H	1.194441	0.205375	0.205650
H244	H	1.096584	-0.318123	-0.834210
H245	H	1.429917	0.015211	-0.500877
H246	H	1.763251	0.348544	-0.167544
