data_functionalizedCrystal
_audit_creation_method	'MofGen! by Chris Wilmer'
_symmetry_space_group_name_H-M	'P1'
_symmetry_Int_Tables_number	1
_symmetry_cell_setting	triclinic
loop_
_symmetry_equiv_pos_as_xyz
  x,y,z
_cell_length_a	19.121241
_cell_length_b	19.120786
_cell_length_c	12.759393
_cell_angle_alpha	87.522881
_cell_angle_beta	87.535027
_cell_angle_gamma	94.790376
loop_
_atom_site_label
_atom_site_type_symbol
_atom_site_fract_x
_atom_site_fract_y
_atom_site_fract_z
Zn1	Zn	1.063774	-0.234295	-0.647081
Zn2	Zn	1.563774	0.265705	-0.147081
Zn3	Zn	1.058660	-0.351989	-0.463546
Zn4	Zn	1.558660	0.148011	0.036454
Zn5	Zn	0.946100	-0.239342	-0.463566
Zn6	Zn	1.446100	0.260658	0.036434
Zn7	Zn	0.941054	-0.356943	-0.631343
Zn8	Zn	1.441054	0.143057	-0.131343
O9	O	1.002397	-0.295642	-0.551384
O10	O	1.502397	0.204358	-0.051384
O11	O	1.161562	-0.245722	-0.629313
O12	O	1.661562	0.254278	-0.129313
O13	O	1.043701	-0.337086	-0.316523
O14	O	1.543701	0.162914	0.183477
O15	O	0.965962	-0.140201	-0.494505
O16	O	1.465962	0.359799	0.005495
O17	O	1.157805	-0.332192	-0.494470
O18	O	1.657805	0.167808	0.005530
O19	O	1.052417	-0.136493	-0.629333
O20	O	1.552417	0.363507	-0.129333
O21	O	0.961004	-0.254324	-0.316538
O22	O	1.461004	0.245676	0.183462
O23	O	0.846965	-0.259127	-0.479244
O24	O	1.346965	0.240873	0.020756
O25	O	0.957361	-0.340634	-0.780456
O26	O	1.457361	0.159366	-0.280456
O27	O	0.843257	-0.345528	-0.602509
O28	O	1.343257	0.154472	-0.102509
O29	O	1.047523	-0.250525	-0.792019
O30	O	1.547523	0.249475	-0.292019
O31	O	1.038807	-0.451118	-0.479209
O32	O	1.538807	0.048882	0.020791
O33	O	0.952402	-0.454758	-0.602489
O34	O	1.452402	0.045242	-0.102489
C35	C	0.819580	-0.303413	-0.539172
C36	C	1.319580	0.196587	-0.039172
C37	C	0.741369	-0.306754	-0.533971
C38	C	1.241369	0.193246	-0.033971
C39	C	0.706580	-0.263376	-0.601831
C40	C	1.206580	0.236624	-0.101831
C41	C	0.633093	-0.266512	-0.596935
C42	C	1.133093	0.233488	-0.096935
C43	C	0.594396	-0.313031	-0.524184
C44	C	1.094396	0.186969	-0.024184
C45	C	0.629191	-0.356412	-0.456317
C46	C	1.129191	0.143588	0.043683
C47	C	0.702677	-0.353271	-0.461208
C48	C	1.202677	0.146729	0.038792
C49	C	0.372419	-0.324758	-0.505894
C50	C	0.872419	0.175242	-0.005894
C51	C	0.298928	-0.327896	-0.501010
C52	C	0.798928	0.172104	-0.001010
C53	C	0.302834	-0.237995	-0.641627
C54	C	0.802834	0.262005	-0.141627
C55	C	0.376321	-0.234862	-0.646516
C56	C	0.876321	0.265138	-0.146516
C57	C	0.411110	-0.278240	-0.578646
C58	C	0.911110	0.221760	-0.078646
C59	C	0.519281	-0.316239	-0.519181
C60	C	1.019281	0.183761	-0.019181
C61	C	0.486224	-0.275028	-0.583645
C62	C	0.986224	0.224972	-0.083645
C63	C	0.994521	-0.478470	-0.539164
C64	C	1.494521	0.021530	-0.039164
C65	C	0.991217	-0.556681	-0.533975
C66	C	1.491217	-0.056681	-0.033975
C67	C	1.034643	-0.591436	-0.601787
C68	C	1.534643	-0.091436	-0.101787
C69	C	1.031534	-0.664924	-0.596914
C70	C	1.531534	-0.164924	-0.096914
C71	C	0.985003	-0.703657	-0.524222
C72	C	1.485003	-0.203657	-0.024222
C73	C	0.941573	-0.668897	-0.456407
C74	C	1.441573	-0.168897	0.043593
C75	C	0.944678	-0.595410	-0.461286
C76	C	1.444678	-0.095410	0.038714
C77	C	0.973375	-0.925639	-0.505979
C78	C	1.473375	-0.425639	-0.005979
C79	C	0.970274	-0.999131	-0.501103
C80	C	1.470274	-0.499131	-0.001103
C81	C	1.060236	-0.995153	-0.641612
C82	C	1.560236	-0.495153	-0.141612
C83	C	1.063340	-0.921664	-0.646481
C84	C	1.563340	-0.421664	-0.146481
C85	C	1.019906	-0.886912	-0.578669
C86	C	1.519906	-0.386912	-0.078669
C87	C	0.981827	-0.778773	-0.519236
C88	C	1.481827	-0.278773	-0.019236
C89	C	1.023080	-0.811796	-0.583660
C90	C	1.523080	-0.311796	-0.083660
C91	C	1.185928	-0.287842	-0.563645
C92	C	1.685928	0.212158	-0.063645
C93	C	1.264138	-0.284517	-0.568870
C94	C	1.764138	0.215483	-0.068870
C95	C	1.002449	-0.295569	-0.825426
C96	C	1.502449	0.204431	-0.325426
C97	C	1.002472	-0.295538	-0.942206
C98	C	1.502472	0.204462	-0.442206
C99	C	1.010323	-0.112100	-0.563677
C100	C	1.510323	0.387900	-0.063677
C101	C	1.013700	-0.033885	-0.568915
C102	C	1.513700	0.466115	-0.068915
C103	C	1.049426	-0.248614	-1.003091
C104	C	1.549426	0.251386	-0.503091
C105	C	1.049443	-0.248588	-1.112818
C106	C	1.549443	0.251412	-0.612818
C107	C	0.955551	-0.342416	-1.100764
C108	C	1.455551	0.157584	-0.600764
C109	C	0.955531	-0.342438	-0.991039
C110	C	1.455531	0.157562	-0.491039
C111	C	1.103636	-0.194445	-1.010051
C112	C	1.603636	0.305555	-0.510051
C113	C	1.103653	-0.194419	-1.119778
C114	C	1.603653	0.305581	-0.619778
C115	C	1.002388	-0.295663	-0.278415
C116	C	1.502388	0.204337	0.221585
C117	C	1.002510	-0.295490	-0.161658
C118	C	1.502510	0.204510	0.338342
H119	H	0.731002	-0.388595	-0.405949
H120	H	1.231002	0.111405	0.094051
H121	H	0.917294	-0.380646	-0.941470
H122	H	1.417294	0.119354	-0.441470
C123	C	0.594827	-0.218793	-0.671590
C124	C	1.094827	0.281207	-0.171590
N125	N	0.566006	-0.182850	-0.727824
N126	N	1.066006	0.317150	-0.227824
C127	C	0.264561	-0.190270	-0.716263
C128	C	0.764561	0.309730	-0.216263
N129	N	0.235734	-0.154317	-0.772474
N130	N	0.735734	0.345683	-0.272474
C131	C	0.903918	-0.394003	-1.154492
C132	C	1.403918	0.105997	-0.654492
N133	N	0.865026	-0.432859	-1.194958
N134	N	1.365026	0.067141	-0.694958
C135	C	0.418882	-0.183681	-0.726539
C136	C	0.918882	0.316319	-0.226539
N137	N	0.450939	-0.145130	-0.786813
N138	N	0.950939	0.354870	-0.286813
C139	C	0.896906	-0.557181	-0.386686
C140	C	1.396906	-0.057181	0.113314
N141	N	0.860921	-0.528388	-0.330497
N142	N	1.360921	-0.028388	0.169503
H143	H	1.101229	-0.890130	-0.705672
H144	H	1.601229	-0.390130	-0.205672
C145	C	0.919081	-1.041735	-0.421137
C146	C	1.419081	-0.541735	0.078863
N147	N	0.880525	-1.073825	-0.360909
N148	N	1.380525	-0.573825	0.139091
C149	C	1.108004	-1.033387	-0.716206
C150	C	1.608004	-0.533387	-0.216206
N151	N	1.143983	-1.062185	-0.772397
N152	N	1.643983	-0.562185	-0.272397
H153	H	1.091391	-0.140570	-0.982958
H154	H	1.591391	0.359430	-0.482958
H155	H	1.066902	-0.693218	-0.652126
H156	H	1.566902	-0.193218	-0.152126
C157	C	1.176428	-0.211009	-1.163609
C158	C	1.676428	0.288991	-0.663609
N159	N	1.231239	-0.223507	-1.196621
N160	N	1.731239	0.276493	-0.696621
H161	H	0.938011	-0.897349	-0.450763
H162	H	1.438011	-0.397349	0.049237
H163	H	0.738081	-0.225496	-0.661075
H164	H	1.238081	0.274504	-0.161075
C165	C	1.080343	-0.125576	-1.168692
C166	C	1.580343	0.374424	-0.668692
N167	N	1.062794	-0.073722	-1.205536
N168	N	1.562794	0.426278	-0.705536
C169	C	0.256363	-0.379073	-0.420975
C170	C	0.756363	0.120927	0.079025
N171	N	0.224304	-0.417619	-0.360697
N172	N	0.724304	0.082381	0.139303
H173	H	1.060963	-0.780258	-0.642850
H174	H	1.560963	-0.280258	-0.142850
C175	C	0.410677	-0.372478	-0.431238
C176	C	0.910677	0.127522	0.068762
N177	N	0.439495	-0.408425	-0.375004
N178	N	0.939495	0.091575	0.124996
C179	C	0.890430	-0.711504	-0.376384
C180	C	1.390430	-0.211504	0.123616
N181	N	0.851927	-0.743593	-0.316084
N182	N	1.351927	-0.243593	0.183916
H183	H	0.597679	-0.394285	-0.397077
H184	H	1.097679	0.105715	0.102923
H185	H	0.517734	-0.237149	-0.642874
H186	H	1.017734	0.262851	-0.142874
H187	H	0.943943	-0.810317	-0.460048
H188	H	1.443943	-0.310317	0.039952
H189	H	1.154551	-0.211777	-0.978165
H190	H	1.654551	0.288223	-0.478165
H191	H	0.487766	-0.354115	-0.459946
H192	H	0.987766	0.145885	0.040054
H193	H	1.072536	-0.559905	-0.660976
H194	H	1.572536	-0.059905	-0.160976
