data_functionalizedCrystal
_audit_creation_method	'MofGen! by Chris Wilmer'
_symmetry_space_group_name_H-M	'P1'
_symmetry_Int_Tables_number	1
_symmetry_cell_setting	triclinic
loop_
_symmetry_equiv_pos_as_xyz
  x,y,z
_cell_length_a	21.395362
_cell_length_b	10.686285
_cell_length_c	21.395356
_cell_angle_alpha	85.612989
_cell_angle_beta	89.964230
_cell_angle_gamma	85.645931
loop_
_atom_site_label
_atom_site_type_symbol
_atom_site_fract_x
_atom_site_fract_y
_atom_site_fract_z
Zn1	Zn	0.977030	-0.501856	-0.335535
Zn2	Zn	1.477030	-0.001856	0.164465
Zn3	Zn	0.985028	-0.712853	-0.222748
Zn4	Zn	1.485028	-0.212853	0.277252
Zn5	Zn	0.872263	-0.501941	-0.230733
Zn6	Zn	1.372263	-0.001941	0.269267
Zn7	Zn	0.880295	-0.712853	-0.327453
Zn8	Zn	1.380295	-0.212853	0.172547
O9	O	0.928654	-0.607376	-0.279117
O10	O	1.428654	-0.107376	0.220883
O11	O	1.065767	-0.529810	-0.320614
O12	O	1.565767	-0.029810	0.179386
O13	O	0.970056	-0.684911	-0.136128
O14	O	1.470056	-0.184911	0.363872
O15	O	0.879452	-0.325359	-0.251360
O16	O	1.379452	0.174641	0.248640
O17	O	1.071644	-0.684828	-0.237750
O18	O	1.571644	-0.184828	0.262250
O19	O	0.956423	-0.325296	-0.328357
O20	O	1.456423	0.174704	0.171643
O21	O	0.887207	-0.529954	-0.141995
O22	O	1.387207	-0.029954	0.358005
O23	O	0.785652	-0.529954	-0.243523
O24	O	1.285652	-0.029954	0.256477
O25	O	0.893141	-0.684828	-0.416204
O26	O	1.393141	-0.184828	0.083796
O27	O	0.791553	-0.684910	-0.314582
O28	O	1.291553	-0.184910	0.185418
O29	O	0.964212	-0.529809	-0.422142
O30	O	1.464212	-0.029809	0.077858
O31	O	0.977844	-0.889423	-0.229913
O32	O	1.477844	-0.389423	0.270087
O33	O	0.900897	-0.889423	-0.306840
O34	O	1.400897	-0.389423	0.193160
C35	C	0.765869	-0.607442	-0.279042
C36	C	1.265869	-0.107442	0.220958
C37	C	0.696230	-0.607501	-0.279024
C38	C	1.196230	-0.107501	0.220976
C39	C	0.666610	-0.688294	-0.315960
C40	C	1.166610	-0.188294	0.184040
C41	C	0.601173	-0.688263	-0.315990
C42	C	1.101173	-0.188263	0.184010
C43	C	0.565360	-0.607453	-0.279070
C44	C	1.065360	-0.107453	0.220930
C45	C	0.594987	-0.526644	-0.242131
C46	C	1.094987	-0.026644	0.257869
C47	C	0.660422	-0.526669	-0.242108
C48	C	1.160422	-0.026669	0.257892
C49	C	0.461254	-0.597302	-0.223050
C50	C	0.961254	-0.097302	0.276950
C51	C	0.395821	-0.597286	-0.223072
C52	C	0.895821	-0.097286	0.276928
C53	C	0.363536	-0.607370	-0.279143
C54	C	0.863536	-0.107370	0.220857
C55	C	0.396694	-0.617496	-0.335192
C56	C	0.896694	-0.117496	0.164808
C57	C	0.462129	-0.617520	-0.335169
C58	C	0.962129	-0.117520	0.164831
C59	C	0.494406	-0.607417	-0.279092
C60	C	0.994406	-0.107417	0.220908
C61	C	0.262962	-0.688134	-0.316114
C62	C	0.762962	-0.188134	0.183886
C63	C	0.197524	-0.688094	-0.316144
C64	C	0.697524	-0.188094	0.183856
C65	C	0.191339	-0.526482	-0.242280
C66	C	0.691339	-0.026482	0.257720
C67	C	0.256776	-0.526515	-0.242256
C68	C	0.756776	-0.026515	0.257744
C69	C	0.292584	-0.607348	-0.279171
C70	C	0.792584	-0.107348	0.220829
C71	C	0.941127	-0.935206	-0.266647
C72	C	1.441127	-0.435206	0.233353
C73	C	0.946520	-1.075453	-0.261333
C74	C	1.446520	-0.575453	0.238667
C75	C	1.092075	-0.607309	-0.279193
C76	C	1.592075	-0.107309	0.220807
C77	C	1.161715	-0.607281	-0.279226
C78	C	1.661715	-0.107281	0.220774
C79	C	0.928680	-0.607309	-0.442543
C80	C	1.428680	-0.107309	0.057457
C81	C	0.928691	-0.607281	-0.512186
C82	C	1.428691	-0.107281	-0.012186
C83	C	0.916149	-0.278265	-0.291651
C84	C	1.416149	0.221735	0.208349
C85	C	0.910821	-0.138017	-0.296992
C86	C	1.410821	0.361983	0.203008
C87	C	0.971891	-0.687702	-1.010938
C88	C	1.471891	-0.187702	-0.510938
C89	C	0.971881	-0.687742	-0.945501
C90	C	1.471881	-0.187742	-0.445501
C91	C	0.928743	-0.607081	-0.915832
C92	C	1.428743	-0.107081	-0.415832
C93	C	0.885602	-0.526396	-0.951604
C94	C	1.385602	-0.026396	-0.451604
C95	C	0.885609	-0.526368	-1.017040
C96	C	1.385609	-0.026368	-0.517040
C97	C	0.919466	-0.493448	-0.816488
C98	C	1.419466	0.006552	-0.316488
C99	C	0.919463	-0.493474	-0.751054
C100	C	1.419463	0.006526	-0.251054
C101	C	0.928719	-0.607170	-0.714008
C102	C	1.428719	-0.107170	-0.214008
C103	C	0.937990	-0.720843	-0.742403
C104	C	1.437990	-0.220843	-0.242403
C105	C	0.937997	-0.720814	-0.807838
C106	C	1.437997	-0.220814	-0.307838
C107	C	0.928731	-0.607104	-0.844879
C108	C	1.428731	-0.107104	-0.344879
C109	C	0.971844	-0.687899	-0.607289
C110	C	1.471844	-0.187899	-0.107289
C111	C	0.971830	-0.687942	-0.541850
C112	C	1.471830	-0.187942	-0.041850
C113	C	0.885554	-0.526584	-0.547955
C114	C	1.385554	-0.026584	-0.047955
C115	C	0.885565	-0.526554	-0.613392
C116	C	1.385565	-0.026554	-0.113392
C117	C	0.928713	-0.607209	-0.643055
C118	C	1.428713	-0.107209	-0.143055
C119	C	0.928660	-0.607351	-0.116331
C120	C	1.428660	-0.107351	0.383669
C121	C	0.928757	-0.607023	-0.046702
C122	C	1.428757	-0.107023	0.453298
H123	H	0.292118	-0.753946	-0.346176
H124	H	0.792118	-0.253946	0.153824
Cl125	Cl	1.000076	-1.158409	-0.207908
Cl126	Cl	1.500076	-0.658409	0.292092
H127	H	0.945528	-0.813425	-0.712240
H128	H	1.445528	-0.313425	-0.212240
H129	H	0.489123	-0.625762	-0.380806
H130	H	0.989123	-0.125762	0.119194
Cl131	Cl	1.026128	-0.789112	-1.048224
Cl132	Cl	1.526128	-0.289112	-0.548224
Cl133	Cl	0.831376	-0.424941	-1.062003
Cl134	Cl	1.331376	0.075059	-0.562003
H135	H	0.280893	-0.460731	-0.212175
H136	H	0.780893	0.039269	0.287825
H137	H	1.006976	-0.753577	-0.631441
H138	H	1.506976	-0.253577	-0.131441
Cl139	Cl	0.697660	-0.425092	-0.195669
Cl140	Cl	1.197660	0.074908	0.304331
H141	H	0.876131	-1.084289	-0.331587
H142	H	1.376131	-0.584289	0.168413
Cl143	Cl	0.563929	-0.789839	-0.362428
Cl144	Cl	1.063929	-0.289839	0.137572
H145	H	0.911970	-0.400849	-0.846648
H146	H	1.411970	0.099151	-0.346648
H147	H	0.173409	-0.753883	-0.346227
H148	H	0.673409	-0.253883	0.153773
H149	H	1.007014	-0.753426	-0.916377
H150	H	1.507014	-0.253426	-0.416377
H151	H	0.850478	-0.460723	-0.927443
H152	H	1.350478	0.039277	-0.427443
Cl153	Cl	0.949646	-0.863710	-0.843533
Cl154	Cl	1.449646	-0.363710	-0.343533
Cl155	Cl	0.354143	-0.584556	-0.152612
Cl156	Cl	0.854143	-0.084556	0.347388
H157	H	0.487535	-0.589085	-0.177388
H158	H	0.987535	-0.089085	0.322612
H159	H	1.006952	-0.753652	-0.512731
H160	H	1.506952	-0.253652	-0.012731
H161	H	0.162180	-0.460679	-0.212223
H162	H	0.662180	0.039321	0.287777
H163	H	0.850429	-0.460911	-0.523799
H164	H	1.350429	0.039089	-0.023799
Cl165	Cl	0.549965	-0.425048	-0.195722
Cl166	Cl	1.049965	0.074952	0.304278
H167	H	0.911918	-0.400915	-0.727941
H168	H	1.411918	0.099085	-0.227941
Cl169	Cl	0.711622	-0.789906	-0.362372
Cl170	Cl	1.211622	-0.289906	0.137628
Cl171	Cl	0.356114	-0.630166	-0.405686
Cl172	Cl	0.856114	-0.130166	0.094314
H173	H	0.850443	-0.460851	-0.642512
H174	H	1.350443	0.039149	-0.142512
