data_functionalizedCrystal
_audit_creation_method	'MofGen! by Chris Wilmer'
_symmetry_space_group_name_H-M	'P1'
_symmetry_Int_Tables_number	1
_symmetry_cell_setting	triclinic
loop_
_symmetry_equiv_pos_as_xyz
  x,y,z
_cell_length_a	21.395362
_cell_length_b	21.395364
_cell_length_c	21.395356
_cell_angle_alpha	90.017542
_cell_angle_beta	90.027748
_cell_angle_gamma	90.025457
loop_
_atom_site_label
_atom_site_type_symbol
_atom_site_fract_x
_atom_site_fract_y
_atom_site_fract_z
Zn1	Zn	0.249493	-0.957821	-0.354281
Zn2	Zn	0.582826	-0.624488	-0.020947
Zn3	Zn	0.916160	-0.291155	0.312386
Zn4	Zn	0.354271	-0.957743	-0.249504
Zn5	Zn	0.687604	-0.624410	0.083829
Zn6	Zn	1.020937	-0.291077	0.417163
Zn7	Zn	0.249506	-0.853051	-0.249516
Zn8	Zn	0.582840	-0.519718	0.083818
Zn9	Zn	0.916173	-0.186384	0.417151
Zn10	Zn	0.354232	-0.853010	-0.354242
Zn11	Zn	0.687566	-0.519677	-0.020909
Zn12	Zn	1.020899	-0.186344	0.312424
O13	O	0.301876	-0.905406	-0.301886
O14	O	0.635209	-0.572073	0.031448
O15	O	0.968542	-0.238740	0.364781
O16	O	0.263403	-1.045489	-0.340393
O17	O	0.596736	-0.712155	-0.007060
O18	O	0.930069	-0.378822	0.326273
O19	O	0.340395	-0.943840	-0.161828
O20	O	0.673728	-0.610507	0.171506
O21	O	1.007062	-0.277174	0.504839
O22	O	0.161827	-0.866998	-0.263434
O23	O	0.495160	-0.533665	0.069899
O24	O	0.828493	-0.200332	0.403233
O25	O	0.340382	-1.045432	-0.263414
O26	O	0.673715	-0.712098	0.069919
O27	O	1.007049	-0.378765	0.403252
O28	O	0.161817	-0.943973	-0.340404
O29	O	0.495150	-0.610639	-0.007071
O30	O	0.828484	-0.277306	0.326262
O31	O	0.263425	-0.866923	-0.161836
O32	O	0.596758	-0.533590	0.171497
O33	O	0.930092	-0.200256	0.504830
O34	O	0.263388	-0.765368	-0.263397
O35	O	0.596721	-0.432034	0.069937
O36	O	0.930055	-0.098701	0.403270
O37	O	0.340317	-0.866929	-0.441925
O38	O	0.673650	-0.533596	-0.108592
O39	O	1.006983	-0.200263	0.224741
O40	O	0.340330	-0.765338	-0.340339
O41	O	0.673663	-0.432005	-0.007006
O42	O	1.006996	-0.098671	0.326328
O43	O	0.263365	-0.943933	-0.441954
O44	O	0.596699	-0.610600	-0.108620
O45	O	0.930032	-0.277267	0.224713
O46	O	0.441943	-0.943801	-0.263377
O47	O	0.775277	-0.610468	0.069956
O48	O	1.108610	-0.277134	0.403290
O49	O	0.441915	-0.866854	-0.340328
O50	O	0.775249	-0.533521	-0.006994
O51	O	1.108582	-0.200187	0.326339
C52	C	0.301856	-0.742619	-0.301865
C53	C	0.635190	-0.409286	0.031468
C54	C	0.968523	-0.075952	0.364801
C55	C	0.301863	-0.672978	-0.301871
C56	C	0.635197	-0.339644	0.031462
C57	C	0.968530	-0.006311	0.364795
C58	C	0.342002	-0.171182	-0.341900
C59	C	0.675335	0.162151	-0.008566
C60	C	1.008668	0.495484	0.324767
C61	C	0.342003	-0.236618	-0.341894
C62	C	0.675336	0.096716	-0.008561
C63	C	1.008670	0.430049	0.324773
C64	C	0.301880	-0.269339	-0.301896
C65	C	0.635213	0.063994	0.031437
C66	C	0.968547	0.397327	0.364771
C67	C	0.261764	-0.236620	-0.261889
C68	C	0.595098	0.096713	0.071444
C69	C	0.928431	0.430047	0.404778
C70	C	0.261769	-0.171186	-0.261891
C71	C	0.595102	0.162147	0.071442
C72	C	0.928436	0.495481	0.404775
C73	C	0.245417	-0.373026	-0.297046
C74	C	0.578750	-0.039693	0.036288
C75	C	0.912084	0.293641	0.369621
C76	C	0.245412	-0.438459	-0.297048
C77	C	0.578745	-0.105126	0.036285
C78	C	0.912078	0.228208	0.369619
C79	C	0.301866	-0.471160	-0.301885
C80	C	0.635200	-0.137827	0.031448
C81	C	0.968533	0.195507	0.364781
C82	C	0.358329	-0.438420	-0.306734
C83	C	0.691662	-0.105087	0.026600
C84	C	1.024995	0.228247	0.359933
C85	C	0.358333	-0.372986	-0.306736
C86	C	0.691666	-0.039653	0.026597
C87	C	1.025000	0.293681	0.359931
C88	C	0.301871	-0.340292	-0.301889
C89	C	0.635204	-0.006958	0.031445
C90	C	0.968538	0.326375	0.364778
C91	C	0.341984	-0.574824	-0.341881
C92	C	0.675317	-0.241491	-0.008547
C93	C	1.008650	0.091843	0.324786
C94	C	0.341986	-0.640261	-0.341871
C95	C	0.675319	-0.306927	-0.008537
C96	C	1.008653	0.026406	0.324796
C97	C	0.261742	-0.640262	-0.261869
C98	C	0.595075	-0.306928	0.071465
C99	C	0.928409	0.026405	0.404798
C100	C	0.261745	-0.574826	-0.261875
C101	C	0.595079	-0.241493	0.071458
C102	C	0.928412	0.091840	0.404791
C103	C	0.301865	-0.542111	-0.301885
C104	C	0.635199	-0.208778	0.031449
C105	C	0.968532	0.124555	0.364782
C106	C	0.464663	-0.905332	-0.301861
C107	C	0.797997	-0.571998	0.031473
C108	C	1.131330	-0.238665	0.364806
C109	C	0.534304	-0.905357	-0.301871
C110	C	0.867638	-0.572024	0.031462
C111	C	1.200971	-0.238690	0.364796
C112	C	1.036094	-0.945618	-0.261943
C113	C	1.369428	-0.612284	0.071391
C114	C	1.702761	-0.278951	0.404724
C115	C	0.970659	-0.945595	-0.261926
C116	C	1.303992	-0.612261	0.071407
C117	C	1.637326	-0.278928	0.404741
C118	C	0.937943	-0.905490	-0.301951
C119	C	1.271276	-0.572157	0.031382
C120	C	1.604609	-0.238824	0.364716
C121	C	0.970667	-0.865395	-0.341984
C122	C	1.304001	-0.532061	-0.008651
C123	C	1.637334	-0.198728	0.324682
C124	C	1.036101	-0.865415	-0.341995
C125	C	1.369435	-0.532081	-0.008662
C126	C	1.702768	-0.198748	0.324671
C127	C	0.834242	-0.900475	-0.358378
C128	C	1.167576	-0.567142	-0.025045
C129	C	1.500909	-0.233809	0.308289
C130	C	0.768809	-0.900460	-0.358368
C131	C	1.102143	-0.567126	-0.025034
C132	C	1.435476	-0.233793	0.308299
C133	C	0.736122	-0.905425	-0.301916
C134	C	1.069455	-0.572092	0.031417
C135	C	1.402789	-0.238759	0.364751
C136	C	0.768876	-0.910419	-0.245473
C137	C	1.102209	-0.577086	0.087860
C138	C	1.435542	-0.243753	0.421194
C139	C	0.834310	-0.910439	-0.245484
C140	C	1.167643	-0.577106	0.087849
C141	C	1.500976	-0.243773	0.421183
C142	C	0.866990	-0.905464	-0.301943
C143	C	1.200324	-0.572131	0.031390
C144	C	1.533657	-0.238797	0.364724
C145	C	0.632453	-0.945490	-0.261864
C146	C	0.965786	-0.612157	0.071469
C147	C	1.299119	-0.278823	0.404803
C148	C	0.567016	-0.945462	-0.261846
C149	C	0.900350	-0.612129	0.071487
C150	C	1.233683	-0.278796	0.404820
C151	C	0.567026	-0.865266	-0.341910
C152	C	0.900359	-0.531933	-0.008577
C153	C	1.233692	-0.198599	0.324757
C154	C	0.632461	-0.865290	-0.341922
C155	C	0.965794	-0.531957	-0.008589
C156	C	1.299128	-0.198624	0.324744
C157	C	0.665171	-0.905406	-0.301900
C158	C	0.998504	-0.572072	0.031433
C159	C	1.331837	-0.238739	0.364767
C160	C	1.138452	-0.905497	-0.301933
C161	C	1.471786	-0.572163	0.031401
C162	C	1.805119	-0.238830	0.364734
C163	C	1.068811	-0.905530	-0.301973
C164	C	1.402144	-0.572197	0.031360
C165	C	1.735478	-0.238863	0.364693
C166	C	0.301835	-0.905436	-0.465309
C167	C	0.635169	-0.572102	-0.131976
C168	C	0.968502	-0.238769	0.201358
C169	C	0.301818	-0.905448	-0.534950
C170	C	0.635151	-0.572115	-0.201617
C171	C	0.968485	-0.238781	0.131716
C172	C	0.301892	-0.068830	-0.301903
C173	C	0.635225	0.264504	0.031430
C174	C	0.968558	0.597837	0.364764
C175	C	0.301889	-0.138471	-0.301900
C176	C	0.635222	0.194862	0.031433
C177	C	0.968556	0.528196	0.364766
C178	C	0.261650	-0.945603	-1.036762
C179	C	0.594983	-0.612269	-0.703429
C180	C	0.928316	-0.278936	-0.370096
C181	C	0.261665	-0.945598	-0.971327
C182	C	0.594998	-0.612265	-0.637994
C183	C	0.928332	-0.278931	-0.304660
C184	C	0.301735	-0.905502	-0.938589
C185	C	0.635068	-0.572168	-0.605256
C186	C	0.968401	-0.238835	-0.271922
C187	C	0.341804	-0.865419	-0.971292
C188	C	0.675137	-0.532085	-0.637958
C189	C	1.008470	-0.198752	-0.304625
C190	C	0.341792	-0.865429	-1.036726
C191	C	0.675125	-0.532096	-0.703392
C192	C	1.008459	-0.198763	-0.370059
C193	C	0.306694	-0.849033	-0.834912
C194	C	0.640027	-0.515700	-0.501579
C195	C	0.973361	-0.182366	-0.168245
C196	C	0.306702	-0.849021	-0.769479
C197	C	0.640035	-0.515688	-0.436146
C198	C	0.973368	-0.182355	-0.102812
C199	C	0.301775	-0.905470	-0.736768
C200	C	0.635108	-0.572136	-0.403435
C201	C	0.968441	-0.238803	-0.070101
C202	C	0.296827	-0.961931	-0.769498
C203	C	0.630161	-0.628598	-0.436165
C204	C	0.963494	-0.295264	-0.102832
C205	C	0.296816	-0.961942	-0.834932
C206	C	0.630149	-0.628608	-0.501599
C207	C	0.963482	-0.295275	-0.168266
C208	C	0.301752	-0.905486	-0.867636
C209	C	0.635086	-0.572153	-0.534303
C210	C	0.968419	-0.238819	-0.200970
C211	C	0.261728	-0.945548	-0.633121
C212	C	0.595061	-0.612214	-0.299787
C213	C	0.928394	-0.278881	0.033546
C214	C	0.261747	-0.945544	-0.567684
C215	C	0.595080	-0.612211	-0.234351
C216	C	0.928414	-0.278877	0.098983
C217	C	0.341883	-0.865359	-0.567650
C218	C	0.675216	-0.532026	-0.234317
C219	C	1.008549	-0.198692	0.099017
C220	C	0.341867	-0.865368	-0.633085
C221	C	0.675200	-0.532035	-0.299752
C222	C	1.008533	-0.198702	0.033581
C223	C	0.301786	-0.905462	-0.665817
C224	C	0.635119	-0.572129	-0.332483
C225	C	0.968452	-0.238795	0.000850
C226	C	0.301870	-0.905414	-0.139098
C227	C	0.635204	-0.572080	0.194235
C228	C	0.968537	-0.238747	0.527568
C229	C	0.301711	-0.905523	-0.069457
C230	C	0.635044	-0.572189	0.263876
C231	C	0.968378	-0.238856	0.597209
H232	H	0.404307	-0.346332	-0.310682
H233	H	0.737640	-0.012998	0.022651
H234	H	1.070973	0.320335	0.355985
H235	H	0.229040	-0.978236	-0.944702
H236	H	0.562373	-0.644902	-0.611368
H237	H	0.895706	-0.311569	-0.278035
C238	C	0.385961	-0.821253	-0.531642
C239	C	0.719295	-0.487920	-0.198308
C240	C	1.052628	-0.154587	0.135025
N241	N	0.419163	-0.788033	-0.504517
N242	N	0.752497	-0.454699	-0.171184
N243	N	1.085830	-0.121366	0.162150
C244	C	0.312139	-0.786912	-0.733482
C245	C	0.645473	-0.453579	-0.400149
C246	C	0.978806	-0.120246	-0.066815
N247	N	0.316235	-0.740130	-0.706371
N248	N	0.649568	-0.406797	-0.373037
N249	N	0.982901	-0.073464	-0.039704
H250	H	0.742262	-0.914464	-0.199505
H251	H	1.075596	-0.581131	0.133828
H252	H	1.408929	-0.247797	0.467162
H253	H	0.310707	-0.803063	-0.861540
H254	H	0.644040	-0.469729	-0.528206
H255	H	0.977373	-0.136396	-0.194873
H256	H	0.199442	-0.346406	-0.293096
H257	H	0.532776	-0.013073	0.040237
H258	H	0.866109	0.320260	0.373571
C259	C	0.870192	-0.895024	-0.420484
C260	C	1.203525	-0.561691	-0.087151
C261	C	1.536858	-0.228358	0.246182
N262	N	0.897268	-0.890923	-0.467262
N263	N	1.230601	-0.557590	-0.133928
N264	N	1.563935	-0.224257	0.199405
H265	H	1.062723	-0.978281	-0.229351
H266	H	1.396056	-0.644947	0.103982
H267	H	1.729389	-0.311614	0.437315
C268	C	0.291411	-1.024030	-0.733521
C269	C	0.624744	-0.690696	-0.400188
C270	C	0.958078	-0.357363	-0.066855
N271	N	0.287331	-1.070801	-0.706421
N272	N	0.620665	-0.737467	-0.373087
N273	N	0.953998	-0.404134	-0.039754
C274	C	0.217625	-0.272615	-0.217895
C275	C	0.550959	0.060718	0.115439
C276	C	0.884292	0.394052	0.448772
N277	N	0.184378	-0.299726	-0.184757
N278	N	0.517712	0.033607	0.148577
N279	N	0.851045	0.366940	0.481910
H280	H	0.374655	-0.666893	-0.374441
H281	H	0.707988	-0.333560	-0.041108
H282	H	1.041322	-0.000227	0.292226
H283	H	0.404299	-0.465044	-0.310677
H284	H	0.737633	-0.131710	0.022656
H285	H	1.070966	0.201623	0.355989
C286	C	0.386121	-0.538835	-0.385887
C287	C	0.719454	-0.205502	-0.052553
C288	C	1.052787	0.127831	0.280780
N289	N	0.419365	-0.511731	-0.419032
N290	N	0.752699	-0.178397	-0.085699
N291	N	1.086032	0.154936	0.247635
H292	H	0.659086	-0.978153	-0.229275
H293	H	0.992420	-0.644820	0.104059
H294	H	1.325753	-0.311487	0.437392
C295	C	0.386127	-0.272608	-0.385902
C296	C	0.719461	0.060726	-0.052569
C297	C	1.052794	0.394059	0.280764
N298	N	0.419360	-0.299713	-0.419051
N299	N	0.752694	0.033620	-0.085718
N300	N	1.086027	0.366953	0.247615
C301	C	0.217564	-0.989712	-1.072763
C302	C	0.550897	-0.656378	-0.739430
C303	C	0.884231	-0.323045	-0.406097
N304	N	0.184360	-1.022936	-1.099880
N305	N	0.517693	-0.689603	-0.766547
N306	N	0.851026	-0.356270	-0.433213
C307	C	0.934678	-0.821281	-0.386013
C308	C	1.268011	-0.487948	-0.052680
C309	C	1.601345	-0.154615	0.280654
N310	N	0.907571	-0.788053	-0.419176
N311	N	1.240904	-0.454719	-0.085843
N312	N	1.574238	-0.121386	0.247491
H313	H	0.199436	-0.465111	-0.293107
H314	H	0.532770	-0.131778	0.040226
H315	H	0.866103	0.201556	0.373559
C316	C	0.217645	-0.989657	-0.669127
C317	C	0.550978	-0.656324	-0.335794
C318	C	0.884311	-0.322991	-0.002461
N319	N	0.184442	-1.022883	-0.696246
N320	N	0.517776	-0.689549	-0.362913
N321	N	0.851109	-0.356216	-0.029579
C322	C	0.217608	-0.676252	-0.217868
C323	C	0.550941	-0.342918	0.115465
C324	C	0.884274	-0.009585	0.448798
N325	N	0.184366	-0.703362	-0.184725
N326	N	0.517699	-0.370029	0.148609
N327	N	0.851033	-0.036696	0.481942
C328	C	0.217609	-0.538842	-0.217881
C329	C	0.550943	-0.205509	0.115453
C330	C	0.884276	0.127824	0.448786
N331	N	0.184364	-0.511739	-0.184742
N332	N	0.517697	-0.178406	0.148591
N333	N	0.851030	0.154927	0.481925
C334	C	0.217635	-0.135202	-0.217892
C335	C	0.550968	0.198131	0.115442
C336	C	0.884302	0.531464	0.448775
N337	N	0.184390	-0.108098	-0.184753
N338	N	0.517724	0.225235	0.148581
N339	N	0.851057	0.558568	0.481914
H340	H	0.944016	-0.978240	-0.229327
H341	H	1.277350	-0.644906	0.104006
H342	H	1.610683	-0.311573	0.437340
C343	C	0.385861	-0.821332	-1.072691
C344	C	0.719194	-0.487999	-0.739358
C345	C	1.052527	-0.154665	-0.406025
N346	N	0.419052	-0.788115	-1.099781
N347	N	0.752385	-0.454782	-0.766448
N348	N	1.085719	-0.121449	-0.433115
C349	C	0.732787	-0.894965	-0.420456
C350	C	1.066120	-0.561632	-0.087123
C351	C	1.399453	-0.228299	0.246211
N352	N	0.705656	-0.890825	-0.467223
N353	N	1.038989	-0.557492	-0.133889
N354	N	1.372322	-0.224158	0.199444
C355	C	0.668451	-0.821195	-0.385964
C356	C	1.001784	-0.487861	-0.052631
C357	C	1.335117	-0.154528	0.280702
N358	N	0.695558	-0.787979	-0.419138
N359	N	1.028891	-0.454646	-0.085805
N360	N	1.362225	-0.121312	0.247529
H361	H	0.540378	-0.978104	-0.229245
H362	H	0.873711	-0.644771	0.104088
H363	H	1.207044	-0.311438	0.437422
C364	C	0.385879	-0.821311	-0.935278
C365	C	0.719212	-0.487978	-0.601945
C366	C	1.052546	-0.154644	-0.268612
N367	N	0.419079	-0.788088	-0.908153
N368	N	0.752412	-0.454755	-0.574820
N369	N	1.085746	-0.121422	-0.241487
H370	H	0.374486	-0.832728	-0.659706
H371	H	0.707820	-0.499395	-0.326372
H372	H	1.041153	-0.166062	0.006961
C373	C	0.217673	-0.989636	-0.531720
C374	C	0.551006	-0.656303	-0.198386
C375	C	0.884339	-0.322970	0.134947
N376	N	0.184473	-1.022846	-0.504631
N377	N	0.517806	-0.689512	-0.171298
N378	N	0.851140	-0.356179	0.162036
H379	H	0.860975	-0.914504	-0.199526
H380	H	1.194308	-0.581171	0.133807
H381	H	1.527642	-0.247837	0.467141
H382	H	0.540389	-0.832610	-0.374497
H383	H	0.873722	-0.499276	-0.041163
H384	H	1.207055	-0.165943	0.292170
H385	H	1.062739	-0.832771	-0.374595
H386	H	1.396072	-0.499437	-0.041262
H387	H	1.729406	-0.166104	0.292071
H388	H	0.292789	-1.007915	-0.861579
H389	H	0.626122	-0.674581	-0.528245
H390	H	0.959456	-0.341248	-0.194912
H391	H	0.374673	-0.144550	-0.374476
H392	H	0.708006	0.188783	-0.041143
H393	H	1.041340	0.522117	0.292190
