data_functionalizedCrystal
_audit_creation_method	'MofGen! by Chris Wilmer'
_symmetry_space_group_name_H-M	'P1'
_symmetry_Int_Tables_number	1
_symmetry_cell_setting	triclinic
loop_
_symmetry_equiv_pos_as_xyz
  x,y,z
_cell_length_a	6.817900
_cell_length_b	15.301126
_cell_length_c	19.551833
_cell_angle_alpha	95.691344
_cell_angle_beta	101.663477
_cell_angle_gamma	104.177575
loop_
_atom_site_label
_atom_site_type_symbol
_atom_site_fract_x
_atom_site_fract_y
_atom_site_fract_z
V1	V	-4.009822	-0.125705	-0.218072
O2	O	-3.994104	0.005068	-0.213702
O3	O	-3.964873	-0.248316	-0.216791
O4	O	-3.952474	-0.124198	-0.313085
O5	O	-4.006589	-0.119909	-0.116741
V6	V	-4.494162	-0.110013	-0.205926
O7	O	-4.269288	-0.160128	-0.244714
O8	O	-4.684894	-0.075590	-0.179284
O9	O	-4.315905	0.012599	-0.207208
O10	O	-4.627277	-0.240786	-0.210296
O11	O	-4.614792	-0.115808	-0.307257
O12	O	-4.328304	-0.111519	-0.110914
C13	C	-3.811003	-0.278193	-0.213405
C14	C	-3.855479	-0.378432	-0.212990
C15	C	-4.058282	-0.430133	-0.216289
C16	C	-4.100063	-0.524318	-0.215904
C17	C	-3.939034	-0.566801	-0.212215
C18	C	-3.736215	-0.515094	-0.208918
C19	C	-3.694440	-0.420911	-0.209309
C20	C	-3.823299	-0.711402	-0.208104
C21	C	-3.865075	-0.805591	-0.207712
C22	C	-4.228922	-0.814809	-0.214699
C23	C	-4.187147	-0.720626	-0.215089
C24	C	-3.984329	-0.668925	-0.211791
C25	C	-3.795186	-0.119867	-0.336236
C26	C	-3.829604	-0.119446	-0.413911
C27	C	-4.027674	-0.123775	-0.453966
C28	C	-4.060014	-0.123380	-0.526950
C29	C	-3.894281	-0.118674	-0.559878
C30	C	-3.696180	-0.114340	-0.519814
C31	C	-3.663841	-0.114726	-0.446830
C32	C	-3.832858	-0.167703	-0.679274
C33	C	-3.865207	-0.167323	-0.752257
C34	C	-3.994014	-0.117479	-0.784983
C35	C	-4.090509	-0.068028	-0.744720
C36	C	-4.058170	-0.068414	-0.671736
C37	C	-3.929326	-0.118254	-0.639016
C38	C	-4.227163	-0.121378	-0.904175
C39	C	-4.259493	-0.120977	-0.977160
C40	C	-3.895657	-0.111946	-0.970023
C41	C	-3.863329	-0.112338	-0.897039
C42	C	-4.029091	-0.117058	-0.864120
C43	C	-4.133117	0.042471	-0.210592
C44	C	-4.067879	0.142709	-0.211011
C45	C	-4.148935	-0.115854	-0.087758
C46	C	-4.093755	-0.116270	-0.010083
H47	H	-4.265202	-0.566409	-0.218591
H48	H	-3.733960	-0.840182	-0.204729
H49	H	-3.760709	-0.108107	-0.996831
H50	H	-4.394059	-0.856906	-0.217374
H51	H	-3.502542	-0.111194	-0.414217
H52	H	-3.658150	-0.669310	-0.205424
C53	C	-3.691172	-0.222546	-0.643283
N54	N	-3.584463	-0.263855	-0.616177
H55	H	-3.702044	-0.108823	-0.864427
H56	H	-3.561239	-0.110505	-0.546628
C57	C	-4.364301	-0.673902	-0.219170
N58	N	-4.497743	-0.638712	-0.222256
C59	C	-4.210013	-0.128952	-0.417758
N60	N	-4.347349	-0.132845	-0.390484
C61	C	-4.235438	-0.383412	-0.220352
N62	N	-4.368882	-0.348225	-0.223417
C63	C	-4.277922	-0.128152	-0.571020
N64	N	-4.442053	-0.131750	-0.604212
H65	H	-3.605108	-0.549692	-0.205919
C66	C	-4.164288	-0.014008	-0.627448
N67	N	-4.244207	0.026977	-0.594089
C68	C	-4.477391	-0.125729	-1.021219
N69	N	-4.641516	-0.129307	-1.054405
H70	H	-4.195400	-0.027442	-0.771364
C71	C	-4.409496	-0.126559	-0.867961
N72	N	-4.546832	-0.130459	-0.840686
H73	H	-3.529301	-0.378818	-0.206626
C74	C	-3.759051	-0.221717	-0.796539
N75	N	-3.679084	-0.262686	-0.829890
