data_functionalizedCrystal
_audit_creation_method	'MofGen! by Chris Wilmer'
_symmetry_space_group_name_H-M	'P1'
_symmetry_Int_Tables_number	1
_symmetry_cell_setting	triclinic
loop_
_symmetry_equiv_pos_as_xyz
  x,y,z
_cell_length_a	10.723023
_cell_length_b	12.837942
_cell_length_c	9.198806
_cell_angle_alpha	90.002604
_cell_angle_beta	90.003487
_cell_angle_gamma	89.648244
loop_
_atom_site_label
_atom_site_type_symbol
_atom_site_fract_x
_atom_site_fract_y
_atom_site_fract_z
O1	O	1.672992	0.145509	0.120877
O2	O	1.311352	0.159438	0.120883
O3	O	1.484153	0.001514	0.120871
O4	O	1.500191	0.303433	0.120889
O5	O	1.484138	0.001513	-0.120914
O6	O	1.311337	0.159438	-0.120902
O7	O	1.672977	0.145508	-0.120908
Cu8	Cu	1.492156	0.152473	-0.142982
Cu9	Cu	1.492174	0.152474	0.142957
O10	O	1.500176	0.303433	-0.120896
C11	C	1.264735	0.158425	-0.000009
C12	C	1.125851	0.155392	-0.000007
C13	C	1.478728	-0.037146	-0.000021
C14	C	1.462569	-0.152338	-0.000018
C15	C	1.063925	0.154040	-0.125258
C16	C	0.920381	0.150906	-0.125258
C17	C	1.656825	-0.391915	0.000009
C18	C	1.641649	-0.500149	0.000012
C19	C	1.417040	-0.477041	0.000001
C20	C	1.432217	-0.368807	-0.000002
C21	C	1.552113	-0.326248	-0.000000
C22	C	1.567289	-0.218013	-0.000013
C23	C	1.342681	-0.194907	-0.000014
C24	C	1.327505	-0.303140	-0.000011
C25	C	1.719594	0.146522	-0.000013
C26	C	1.858478	0.149554	-0.000006
C27	C	1.505601	0.342092	-0.000002
C28	C	1.521760	0.457284	0.000005
N29	N	1.492152	0.152472	-0.344096
C30	C	1.564674	0.085872	-0.416298
C31	C	1.564693	0.085868	-0.583710
N32	N	1.492186	0.152466	0.344071
H33	H	0.867125	0.149749	-0.232490
H34	H	1.257417	-0.141429	-0.000033
H35	H	1.072600	0.154227	0.107224
H36	H	1.430098	0.209493	-0.593848
H37	H	1.319426	-0.511712	0.000014
H38	H	0.911725	0.150723	0.107231
O39	O	1.743460	-0.563831	0.000210
C40	C	1.815473	-0.544424	0.125455
H41	H	1.794559	-0.462552	0.167200
H42	H	1.918729	-0.551290	0.097297
H43	H	1.791366	-0.603734	0.213140
H44	H	1.430072	0.209485	-0.406220
O45	O	1.773221	-0.350442	0.000198
C46	C	1.788737	-0.288542	0.125438
H47	H	1.693507	-0.262300	0.167190
H48	H	1.846930	-0.217319	0.097271
H49	H	1.838318	-0.335950	0.213122
O50	O	1.683662	-0.176496	-0.000070
C51	C	1.674610	-0.066884	-0.000039
H52	H	1.580171	-0.042173	-0.045827
H53	H	1.752103	-0.033134	-0.070226
H54	H	1.684235	-0.036712	0.115958
O55	O	1.127586	0.155291	-0.253097
C56	C	1.206518	0.067227	-0.260892
H57	H	1.227099	0.037746	-0.146430
H58	H	1.297562	0.089404	-0.316532
H59	H	1.158721	0.003323	-0.326016
O60	O	1.211108	-0.344611	0.000177
C61	C	1.195595	-0.406497	0.125420
H62	H	1.290825	-0.432738	0.167182
H63	H	1.137396	-0.477720	0.097255
H64	H	1.146020	-0.359077	0.213097
H65	H	1.626745	0.028851	-0.354176
H66	H	1.626788	0.028853	-0.645801
