data_functionalizedCrystal
_audit_creation_method	'MofGen! by Chris Wilmer'
_symmetry_space_group_name_H-M	'P1'
_symmetry_Int_Tables_number	1
_symmetry_cell_setting	triclinic
loop_
_symmetry_equiv_pos_as_xyz
  x,y,z
_cell_length_a	8.559649
_cell_length_b	14.519731
_cell_length_c	12.996460
_cell_angle_alpha	89.998729
_cell_angle_beta	89.994340
_cell_angle_gamma	76.733759
loop_
_atom_site_label
_atom_site_type_symbol
_atom_site_fract_x
_atom_site_fract_y
_atom_site_fract_z
O1	O	2.120040	-0.031286	-0.085555
O2	O	2.370040	0.218714	0.164445
O3	O	2.620040	0.468714	0.414445
O4	O	2.870040	0.718714	0.664445
O5	O	1.654978	0.016331	-0.085560
O6	O	1.904978	0.266331	0.164440
O7	O	2.154978	0.516331	0.414440
O8	O	2.404978	0.766331	0.664440
O9	O	1.899822	-0.142598	-0.085548
O10	O	2.149822	0.107402	0.164452
O11	O	2.399822	0.357402	0.414452
O12	O	2.649822	0.607402	0.664452
O13	O	1.875196	0.127644	-0.085567
O14	O	2.125196	0.377644	0.164433
O15	O	2.375196	0.627644	0.414433
O16	O	2.625196	0.877644	0.664433
O17	O	1.899790	-0.142588	0.085586
O18	O	2.149790	0.107412	0.335586
O19	O	2.399790	0.357412	0.585586
O20	O	2.649790	0.607412	0.835586
O21	O	1.654947	0.016342	0.085573
O22	O	1.904947	0.266342	0.335573
O23	O	2.154947	0.516342	0.585573
O24	O	2.404947	0.766342	0.835573
O25	O	2.120008	-0.031275	0.085579
O26	O	2.370008	0.218725	0.335579
O27	O	2.620008	0.468725	0.585579
O28	O	2.870008	0.718725	0.835579
Cu29	Cu	1.887474	-0.007466	0.101202
Cu30	Cu	2.137474	0.242534	0.351202
Cu31	Cu	2.387474	0.492534	0.601202
Cu32	Cu	2.637474	0.742534	0.851202
Cu33	Cu	1.887512	-0.007478	-0.101184
Cu34	Cu	2.137512	0.242522	0.148816
Cu35	Cu	2.387512	0.492522	0.398816
Cu36	Cu	2.637512	0.742522	0.648816
O37	O	1.875165	0.127654	0.085567
O38	O	2.125165	0.377654	0.335567
O39	O	2.375165	0.627654	0.585567
O40	O	2.625165	0.877654	0.835567
C41	C	1.595443	0.019945	0.000006
C42	C	1.845443	0.269945	0.250006
C43	C	2.095443	0.519945	0.500006
C44	C	2.345443	0.769945	0.750006
C45	C	1.418095	0.030686	0.000004
C46	C	1.668095	0.280686	0.250004
C47	C	1.918095	0.530686	0.500004
C48	C	2.168095	0.780686	0.750004
C49	C	1.898652	-0.176870	0.000019
C50	C	2.148652	0.073130	0.250019
C51	C	2.398652	0.323130	0.500019
C52	C	2.648652	0.573130	0.750019
C53	C	1.895194	-0.279002	0.000019
C54	C	2.145194	-0.029002	0.250019
C55	C	2.395194	0.220998	0.500019
C56	C	2.645194	0.470998	0.750019
C57	C	1.892385	-0.361944	0.000017
C58	C	2.142385	-0.111944	0.250017
C59	C	2.392385	0.138056	0.500017
C60	C	2.642385	0.388056	0.750017
C61	C	1.888874	-0.466001	0.000009
C62	C	2.138874	-0.216001	0.250009
C63	C	2.388874	0.033999	0.500009
C64	C	2.638874	0.283999	0.750009
C65	C	1.886088	-0.548940	0.000002
C66	C	2.136088	-0.298940	0.250002
C67	C	2.386088	-0.048940	0.500002
C68	C	2.636088	0.201060	0.750002
C69	C	1.882578	-0.653003	-0.000003
C70	C	2.132578	-0.403003	0.249997
C71	C	2.382578	-0.153003	0.499997
C72	C	2.632578	0.096997	0.749997
C73	C	2.179543	-0.034889	0.000010
C74	C	2.429543	0.215111	0.250010
C75	C	2.679543	0.465111	0.500010
C76	C	2.929543	0.715111	0.750010
C77	C	2.356891	-0.045630	0.000005
C78	C	2.606891	0.204370	0.250005
C79	C	2.856891	0.454370	0.500005
C80	C	3.106891	0.704370	0.750005
C81	C	1.876334	0.161925	-0.000003
C82	C	2.126334	0.411925	0.249997
C83	C	2.376334	0.661925	0.499997
C84	C	2.626334	0.911925	0.749997
C85	C	1.879792	0.264057	-0.000010
C86	C	2.129792	0.514057	0.249990
C87	C	2.379792	0.764057	0.499990
C88	C	2.629792	1.014057	0.749990
N89	N	1.887460	-0.007459	0.243549
N90	N	2.137460	0.242541	0.493549
N91	N	2.387460	0.492541	0.743549
N92	N	2.637460	0.742541	0.993549
N93	N	1.887539	-0.007494	-0.243531
N94	N	2.137539	0.242506	0.006469
N95	N	2.387539	0.492506	0.256469
N96	N	2.637539	0.742506	0.506469
C97	C	1.887467	-0.007457	0.336655
C98	C	2.137467	0.242543	0.586655
C99	C	2.387467	0.492543	0.836655
C100	C	2.637467	0.742543	1.086655
C101	C	1.887482	-0.007464	0.453460
C102	C	2.137482	0.242536	0.703460
C103	C	2.387482	0.492536	0.953460
C104	C	2.637482	0.742536	1.203460
C105	C	1.887502	-0.007476	0.546558
C106	C	2.137502	0.242524	0.796558
C107	C	2.387502	0.492524	1.046558
C108	C	2.637502	0.742524	1.296558
C109	C	1.887519	-0.007482	0.663371
C110	C	2.137519	0.242518	0.913371
C111	C	2.387519	0.492518	1.163371
C112	C	2.637519	0.742518	1.413371
H113	H	2.440177	-0.119191	0.000008
H114	H	2.690177	0.130809	0.250008
H115	H	2.940177	0.380809	0.500008
H116	H	3.190177	0.630809	0.750008
H117	H	2.334818	0.104242	-0.000009
H118	H	2.584818	0.354242	0.249991
H119	H	2.834818	0.604242	0.499991
H120	H	3.084818	0.854242	0.749991
