data_functionalizedCrystal
_audit_creation_method	'MofGen! by Chris Wilmer'
_symmetry_space_group_name_H-M	'P1'
_symmetry_Int_Tables_number	1
_symmetry_cell_setting	triclinic
loop_
_symmetry_equiv_pos_as_xyz
  x,y,z
_cell_length_a	14.971482
_cell_length_b	14.971506
_cell_length_c	14.048226
_cell_angle_alpha	90.004853
_cell_angle_beta	90.005902
_cell_angle_gamma	83.617498
loop_
_atom_site_label
_atom_site_type_symbol
_atom_site_fract_x
_atom_site_fract_y
_atom_site_fract_z
O1	O	1.186958	0.116548	0.079145
O2	O	0.926558	0.130510	0.079149
O3	O	1.063728	-0.006670	0.079144
O4	O	1.049788	0.253728	0.079150
O5	O	1.063711	-0.006678	-0.079177
O6	O	0.926541	0.130502	-0.079172
O7	O	1.186941	0.116540	-0.079176
Zn8	Zn	1.056739	0.123519	-0.104311
Zn9	Zn	1.056760	0.123530	0.104284
O10	O	1.049771	0.253720	-0.079172
C11	C	0.893225	0.129882	-0.000011
C12	C	0.793927	0.128013	-0.000009
C13	C	0.747274	0.127128	-0.086311
C14	C	0.653975	0.125357	-0.086312
C15	C	0.607331	0.124477	-0.000010
C16	C	0.653992	0.125360	0.086298
C17	C	0.747289	0.127124	0.086298
C18	C	0.459530	0.121684	0.086292
C19	C	0.366225	0.119922	0.086292
C20	C	0.366215	0.119917	-0.086319
C21	C	0.459513	0.121682	-0.086319
C22	C	0.506167	0.122565	-0.000010
C23	C	1.063093	-0.039999	-0.000015
C24	C	1.061215	-0.139295	-0.000011
C25	C	1.220274	0.117167	-0.000014
C26	C	1.319571	0.119037	-0.000010
C27	C	1.134633	-0.577578	-0.000012
C28	C	1.136391	-0.484278	-0.000019
C29	C	1.055798	-0.427057	-0.000014
C30	C	0.973443	-0.463140	-0.000013
C31	C	0.971686	-0.556439	-0.000013
C32	C	0.977110	-0.268677	-0.000009
C33	C	0.978866	-0.175372	-0.000007
C34	C	1.141814	-0.196516	-0.000014
C35	C	1.140057	-0.289815	-0.000015
C36	C	1.057702	-0.325892	-0.000012
C37	C	1.050406	0.287048	-0.000010
C38	C	1.052284	0.386344	-0.000008
N39	N	1.056730	0.123512	-0.246672
C40	C	1.117488	0.062793	-0.296492
C41	C	1.117494	0.062793	-0.396150
C42	C	1.056746	0.123515	-0.445985
C43	C	0.995982	0.184237	-0.396158
C44	C	0.995972	0.184232	-0.296502
C45	C	0.996007	0.184243	-0.603873
C46	C	0.996018	0.184249	-0.703535
C47	C	1.117530	0.062804	-0.703520
C48	C	1.117520	0.062799	-0.603864
C49	C	1.056757	0.123522	-0.554044
N50	N	1.056776	0.123531	0.246645
H51	H	0.616008	0.124637	0.156567
H52	H	1.203447	-0.454909	-0.000023
C53	C	0.886520	-0.308361	0.000004
H54	H	0.838773	-0.260921	0.000020
H55	H	0.882432	-0.344324	-0.055202
H56	H	0.882465	-0.344310	0.055226
H57	H	0.946524	0.233687	-0.563312
C58	C	0.881103	-0.596125	-0.000000
H59	H	0.833355	-0.548685	0.000013
H60	H	0.877019	-0.632085	-0.055209
H61	H	0.877042	-0.632076	0.055218
C62	C	1.184361	-0.003997	-0.758317
H63	H	1.175660	0.004692	-0.824806
H64	H	1.244064	0.005814	-0.741974
H65	H	1.174575	-0.063711	-0.741991
C66	C	0.602659	0.124391	-0.181245
H67	H	0.643799	0.125180	-0.232642
H68	H	0.573028	0.071583	-0.184842
H69	H	0.559498	0.175829	-0.184825
C70	C	1.223284	-0.640517	-0.000014
H71	H	1.210446	-0.701251	-0.000004
H72	H	1.257041	-0.629574	-0.055225
H73	H	1.257052	-0.629563	0.055203
H74	H	0.785244	0.127851	-0.156589
C75	C	1.232403	-0.156836	-0.000031
H76	H	1.221910	-0.093076	-0.000044
H77	H	1.265602	-0.176461	0.055176
H78	H	1.265578	-0.176477	-0.055251
C79	C	0.314849	0.119342	-0.181256
H80	H	0.252590	0.118277	-0.168898
H81	H	0.323502	0.171875	-0.216437
H82	H	0.336741	0.067626	-0.216993
C83	C	0.798608	0.128104	0.181230
H84	H	0.757466	0.127336	0.232629
H85	H	0.841770	0.076673	0.184818
H86	H	0.828236	0.180919	0.184817
H87	H	1.166990	0.013359	-0.563288
H88	H	0.946549	0.233695	-0.744107
H89	H	0.497487	0.122403	-0.156593
H90	H	1.205683	-0.336403	-0.000013
H91	H	0.913240	-0.128785	-0.000009
C92	C	0.929131	0.251005	-0.450970
H93	H	0.892931	0.287153	-0.407024
H94	H	0.961322	0.288306	-0.489848
H95	H	0.891877	0.218737	-0.489844
C96	C	0.929142	0.251026	-0.241700
H97	H	0.892969	0.287197	-0.285652
H98	H	0.891872	0.218787	-0.202837
H99	H	0.961359	0.288314	-0.202813
C100	C	1.184311	-0.004004	-0.241681
H101	H	1.220490	-0.040171	-0.285629
H102	H	1.221575	0.028228	-0.202791
H103	H	1.152085	-0.041296	-0.202821
C104	C	0.314915	0.118975	0.181222
H105	H	0.356062	0.119749	0.232624
H106	H	0.271764	0.170415	0.184796
H107	H	0.285275	0.066169	0.184816
C108	C	0.510846	0.122663	0.181230
H109	H	0.469705	0.121898	0.232629
H110	H	0.554011	0.071235	0.184823
H111	H	0.540471	0.175480	0.184812
H112	H	0.907823	-0.416544	-0.000014
H113	H	1.166967	0.013351	-0.436713
