data_functionalizedCrystal
_audit_creation_method	'MofGen! by Chris Wilmer'
_symmetry_space_group_name_H-M	'P1'
_symmetry_Int_Tables_number	1
_symmetry_cell_setting	triclinic
loop_
_symmetry_equiv_pos_as_xyz
  x,y,z
_cell_length_a	17.077404
_cell_length_b	12.645330
_cell_length_c	17.077396
_cell_angle_alpha	89.975931
_cell_angle_beta	89.980499
_cell_angle_gamma	90.017917
loop_
_atom_site_label
_atom_site_type_symbol
_atom_site_fract_x
_atom_site_fract_y
_atom_site_fract_z
Zn1	Zn	1.200083	-0.422033	-0.443867
Zn2	Zn	1.200002	-0.599318	-0.312611
Zn3	Zn	1.068815	-0.422070	-0.312615
Zn4	Zn	1.068795	-0.599256	-0.443834
O5	O	1.134424	-0.510669	-0.378232
O6	O	1.309919	-0.445561	-0.426467
O7	O	1.182574	-0.575848	-0.202764
O8	O	1.086270	-0.273718	-0.330041
O9	O	1.309860	-0.575812	-0.330034
O10	O	1.182712	-0.273691	-0.426471
O11	O	1.086192	-0.445624	-0.202767
O12	O	0.958965	-0.445563	-0.330009
O13	O	1.086236	-0.575705	-0.553686
O14	O	0.958950	-0.575741	-0.426416
O15	O	1.182693	-0.445500	-0.553709
O16	O	1.182555	-0.747657	-0.330003
O17	O	1.086157	-0.747611	-0.426412
C18	C	0.930476	-0.510650	-0.378210
C19	C	0.843226	-0.510667	-0.378219
C20	C	0.802249	-0.578553	-0.428338
C21	C	0.720268	-0.578555	-0.428350
C22	C	0.679267	-0.510677	-0.378240
C23	C	0.720250	-0.442783	-0.328119
C24	C	0.802229	-0.442777	-0.328111
C25	C	0.549380	-0.442804	-0.328138
C26	C	0.467395	-0.442812	-0.328145
C27	C	0.467419	-0.578583	-0.428377
C28	C	0.549398	-0.578576	-0.428369
C29	C	0.590376	-0.510684	-0.378247
C30	C	1.134366	-0.786099	-0.378221
C31	C	1.134414	-0.903929	-0.378242
C32	C	1.074020	-1.071508	-0.439080
C33	C	1.073711	-0.948949	-0.438885
C34	C	1.112022	-0.948522	-0.295515
C35	C	1.111653	-1.071120	-0.295885
C36	C	1.217568	-1.071018	-0.399460
C37	C	1.217059	-0.948411	-0.401269
C38	C	1.339168	-0.510689	-0.378254
C39	C	1.426418	-0.510698	-0.378263
C40	C	1.134471	-0.510591	-0.582976
C41	C	1.134491	-0.510558	-0.670226
C42	C	1.134502	-0.234164	-0.378260
C43	C	1.134536	-0.116334	-0.378272
C44	C	1.184718	-0.442755	-0.711230
C45	C	1.184728	-0.442719	-0.793210
C46	C	1.134514	-0.510493	-0.834185
C47	C	1.084281	-0.578300	-0.793176
C48	C	1.084268	-0.578329	-0.711197
C49	C	1.084313	-0.578236	-0.964046
C50	C	1.084326	-0.578208	-1.046031
C51	C	1.184772	-0.442627	-1.046059
C52	C	1.184759	-0.442656	-0.964080
C53	C	1.134528	-0.510464	-0.923076
C54	C	1.134421	-0.510671	-0.174284
C55	C	1.134553	-0.510405	-0.087034
H56	H	0.582779	-0.633855	-0.469169
H57	H	1.233945	-0.919262	-0.462152
H58	H	1.225653	-0.387474	-0.930721
H59	H	1.012155	-0.919714	-0.424848
H60	H	1.043393	-0.633479	-0.826544
H61	H	1.043360	-0.633530	-0.677813
H62	H	0.686860	-0.387511	-0.287322
H63	H	1.225671	-0.387413	-1.079449
C64	C	1.278481	-1.110177	-0.339633
C65	C	1.253055	-1.182906	-0.271886
C66	C	1.313959	-1.222069	-0.212056
C67	C	1.400289	-1.188504	-0.219974
C68	C	1.425719	-1.115771	-0.287724
C69	C	1.364815	-1.076607	-0.347554
H70	H	1.189145	-1.207756	-0.266022
H71	H	1.295134	-1.275911	-0.161903
H72	H	1.445374	-1.217495	-0.175684
H73	H	1.489629	-1.090920	-0.293588
H74	H	1.383640	-1.022765	-0.397707
H75	H	1.043436	-0.633394	-1.079391
H76	H	0.434051	-0.633860	-0.469191
C77	C	1.239980	-0.368141	-0.838318
C78	C	1.206002	-0.284884	-0.894678
C79	C	1.261256	-0.210303	-0.939787
C80	C	1.350488	-0.218979	-0.928537
C81	C	1.384472	-0.302239	-0.872175
C82	C	1.329218	-0.376820	-0.827066
H83	H	1.139942	-0.278459	-0.903008
H84	H	1.236098	-0.148668	-0.981510
H85	H	1.391391	-0.163769	-0.961930
H86	H	1.450531	-0.308665	-0.863845
H87	H	1.354375	-0.438455	-0.785343
H88	H	1.043396	-0.633436	-0.930663
C89	C	1.092586	-0.908205	-0.521763
C90	C	1.108049	-0.987222	-0.588588
C91	C	1.126899	-0.946485	-0.671475
C92	C	1.130284	-0.826730	-0.687538
C93	C	1.114820	-0.747705	-0.620711
C94	C	1.095971	-0.788443	-0.537823
H95	H	1.105544	-1.075878	-0.576699
H96	H	1.138346	-1.004985	-0.720945
H97	H	1.144237	-0.796574	-0.748896
H98	H	1.117325	-0.659049	-0.632599
H99	H	1.084523	-0.729943	-0.488354
H100	H	1.237995	-1.101863	-0.458759
H101	H	0.582741	-0.387510	-0.287331
C102	C	0.847347	-0.653222	-0.483461
C103	C	0.836048	-0.773725	-0.476909
C104	C	0.881144	-0.848394	-0.532036
C105	C	0.937539	-0.802559	-0.593715
C106	C	0.948841	-0.682049	-0.600269
C107	C	0.903745	-0.607381	-0.545142
H108	H	0.794298	-0.807661	-0.431248
H109	H	0.872777	-0.937603	-0.527183
H110	H	0.970922	-0.857833	-0.634523
H111	H	0.990591	-0.648114	-0.645930
H112	H	0.912112	-0.518172	-0.549995
C113	C	0.675197	-0.653236	-0.483481
C114	C	0.686444	-0.773736	-0.476916
C115	C	0.641374	-0.848420	-0.532050
C116	C	0.585058	-0.802603	-0.593751
C117	C	0.573808	-0.682096	-0.600319
C118	C	0.618877	-0.607413	-0.545184
H119	H	0.728135	-0.807658	-0.431239
H120	H	0.649703	-0.937627	-0.527188
H121	H	0.551695	-0.857888	-0.634565
H122	H	0.532116	-0.648174	-0.645995
H123	H	0.610549	-0.518205	-0.550046
C124	C	1.030875	-0.907184	-0.270827
C125	C	1.016699	-0.787419	-0.262796
C126	C	0.935551	-0.746084	-0.238113
C127	C	0.868578	-0.824514	-0.221461
C128	C	0.882752	-0.944285	-0.229491
C129	C	0.963901	-0.985621	-0.254174
H130	H	1.066278	-0.729355	-0.275124
H131	H	0.925058	-0.657421	-0.232169
H132	H	0.808507	-0.793915	-0.203189
H133	H	0.833173	-1.002350	-0.217163
H134	H	0.974393	-1.074284	-0.260118
H135	H	0.434014	-0.387527	-0.287350
H136	H	1.087901	-1.100921	-0.500623
C137	C	0.847309	-0.368101	-0.272982
C138	C	0.836060	-0.247601	-0.279544
C139	C	0.881140	-0.172918	-0.224417
C140	C	0.937468	-0.218736	-0.162728
C141	C	0.948720	-0.339243	-0.156163
C142	C	0.903640	-0.413925	-0.211290
H143	H	0.794359	-0.213678	-0.325212
H144	H	0.872810	-0.083711	-0.229276
H145	H	0.970839	-0.163451	-0.121919
H146	H	0.990420	-0.373165	-0.110495
H147	H	0.911969	-0.503133	-0.206430
C148	C	1.239955	-0.368201	-0.666160
C149	C	1.233583	-0.247683	-0.677444
C150	C	1.288820	-0.173124	-0.632377
C151	C	1.350429	-0.219083	-0.576026
C152	C	1.356804	-0.339607	-0.564740
C153	C	1.301567	-0.414166	-0.609807
H154	H	1.187974	-0.213656	-0.719161
H155	H	1.284100	-0.083904	-0.640732
H156	H	1.391318	-0.163890	-0.542665
H157	H	1.402413	-0.373634	-0.523023
H158	H	1.306287	-0.503386	-0.601452
H159	H	1.012848	-1.102409	-0.425223
C160	C	1.281151	-0.907049	-0.345745
C161	C	1.296217	-0.787348	-0.338786
C162	C	1.360293	-0.746005	-0.283230
C163	C	1.409304	-0.824363	-0.234633
C164	C	1.394240	-0.944071	-0.241590
C165	C	1.330164	-0.985414	-0.297146
H166	H	1.259935	-0.729337	-0.374762
H167	H	1.371444	-0.657389	-0.278080
H168	H	1.456737	-0.793758	-0.193507
H169	H	1.430522	-1.002083	-0.205614
H170	H	1.319013	-1.074030	-0.302296
H171	H	1.050956	-1.099811	-0.277936
H172	H	1.153818	-1.100776	-0.249033
H173	H	1.154702	-0.919362	-0.248970
