data_functionalizedCrystal
_audit_creation_method	'MofGen! by Chris Wilmer'
_symmetry_space_group_name_H-M	'P1'
_symmetry_Int_Tables_number	1
_symmetry_cell_setting	triclinic
loop_
_symmetry_equiv_pos_as_xyz
  x,y,z
_cell_length_a	14.519709
_cell_length_b	11.792254
_cell_length_c	12.996460
_cell_angle_alpha	90.006814
_cell_angle_beta	89.994177
_cell_angle_gamma	83.939371
loop_
_atom_site_label
_atom_site_type_symbol
_atom_site_fract_x
_atom_site_fract_y
_atom_site_fract_z
O1	O	0.126461	1.506180	-0.085568
O2	O	0.626461	2.006180	0.414432
O3	O	0.139476	1.175769	-0.085571
O4	O	0.639476	1.675769	0.414429
O5	O	-0.001237	1.349735	-0.085560
O6	O	0.498763	1.849735	0.414440
O7	O	0.267175	1.332214	-0.085579
O8	O	0.767175	1.832214	0.414421
O9	O	-0.001245	1.349758	0.085574
O10	O	0.498755	1.849758	0.585574
O11	O	0.139468	1.175792	0.085563
O12	O	0.639468	1.675792	0.585563
O13	O	0.126453	1.506203	0.085565
O14	O	0.626453	2.006203	0.585565
Cu15	Cu	0.132960	1.340999	0.101190
Cu16	Cu	0.632960	1.840999	0.601190
Cu17	Cu	0.132970	1.340973	-0.101195
Cu18	Cu	0.632970	1.840973	0.398805
O19	O	0.267167	1.332237	0.085555
O20	O	0.767167	1.832237	0.585555
C21	C	0.138652	1.133494	-0.000004
C22	C	0.638652	1.633494	0.499996
C23	C	0.136199	1.007495	-0.000005
C24	C	0.636199	1.507495	0.499995
C25	C	-0.035604	1.348930	0.000007
C26	C	0.464396	1.848930	0.500007
C27	C	-0.137994	1.346483	0.000007
C28	C	0.362006	1.846483	0.500007
C29	C	0.134205	0.905169	-0.000009
C30	C	0.634205	1.405169	0.499991
C31	C	0.131711	0.776796	-0.000010
C32	C	0.631711	1.276796	0.499990
C33	C	-0.512923	1.337475	-0.000019
C34	C	-0.012923	1.837475	0.499981
C35	C	-0.408606	1.339976	-0.000012
C36	C	0.091394	1.839976	0.499988
C37	C	-0.325462	1.341979	-0.000005
C38	C	0.174538	1.841979	0.499995
C39	C	-0.221138	1.344481	0.000001
C40	C	0.278862	1.844481	0.500001
C41	C	0.301534	1.333042	-0.000014
C42	C	0.801534	1.833042	0.499986
C43	C	0.403924	1.335489	-0.000022
C44	C	0.903924	1.835489	0.499978
C45	C	0.127277	1.548478	-0.000003
C46	C	0.627277	2.048478	0.499997
C47	C	0.129731	1.674477	-0.000010
C48	C	0.629731	2.174477	0.499990
N49	N	0.132969	1.340955	-0.243543
N50	N	0.632969	1.840955	0.256457
C51	C	0.132970	1.340958	-0.336649
C52	C	0.632970	1.840958	0.163351
C53	C	0.132969	1.340974	-0.453454
C54	C	0.632969	1.840974	0.046546
C55	C	0.132962	1.340993	-0.546552
C56	C	0.632962	1.840993	-0.046552
C57	C	0.132959	1.341007	-0.663365
C58	C	0.632959	1.841007	-0.163365
N59	N	0.132953	1.341026	0.243537
N60	N	0.632953	1.841026	0.743537
