data_functionalizedCrystal
_audit_creation_method	'MofGen! by Chris Wilmer'
_symmetry_space_group_name_H-M	'P1'
_symmetry_Int_Tables_number	1
_symmetry_cell_setting	triclinic
loop_
_symmetry_equiv_pos_as_xyz
  x,y,z
_cell_length_a	6.817900
_cell_length_b	13.466098
_cell_length_c	14.125465
_cell_angle_alpha	94.420177
_cell_angle_beta	100.398878
_cell_angle_gamma	111.116846
loop_
_atom_site_label
_atom_site_type_symbol
_atom_site_fract_x
_atom_site_fract_y
_atom_site_fract_z
V1	V	-4.031061	-0.146518	-0.300844
O2	O	-3.977343	0.007983	-0.294219
O3	O	-4.022124	-0.291426	-0.299651
O4	O	-3.966479	-0.143851	-0.431659
O5	O	-4.033373	-0.140614	-0.161297
V6	V	-4.511672	-0.128086	-0.284048
O7	O	-4.298707	-0.186948	-0.337688
O8	O	-4.694223	-0.087656	-0.247205
O9	O	-4.297402	0.016822	-0.285242
O10	O	-4.682787	-0.282587	-0.290674
O11	O	-4.626756	-0.133990	-0.423595
O12	O	-4.353047	-0.130754	-0.153234
C13	C	-3.877249	-0.326764	-0.295128
C14	C	-3.951121	-0.445226	-0.295024
C15	C	-4.238240	-0.617606	-0.299718
C16	C	-4.168842	-0.506300	-0.299810
C17	C	-3.802789	-0.495464	-0.290143
C18	C	-3.872187	-0.606770	-0.290050
C19	C	-4.089918	-0.667837	-0.294839
C20	C	-4.159319	-0.779146	-0.294754
C21	C	-3.793264	-0.768308	-0.285079
C22	C	-3.723866	-0.657002	-0.285171
C23	C	-3.806267	-0.138516	-0.463516
C24	C	-3.835009	-0.137294	-0.570463
C25	C	-3.887692	-0.135054	-0.766272
C26	C	-4.074409	-0.139548	-0.818620
C27	C	-4.103724	-0.138302	-0.927576
C28	C	-3.858369	-0.136300	-0.657307
C29	C	-4.105621	0.052154	-0.289762
C30	C	-4.010986	0.170615	-0.289872
C31	C	-4.176602	-0.136092	-0.121372
C32	C	-4.127097	-0.137308	-0.014424
H33	H	-4.415528	-0.667329	-0.303627
C34	C	-3.523271	-0.124684	-0.746700
C35	C	-3.701622	-0.128598	-0.816228
H36	H	-3.408405	-0.120693	-0.777550
H37	H	-3.561820	-0.187747	-0.716866
H38	H	-3.478611	-0.062943	-0.698538
H39	H	-3.746292	-0.190343	-0.864387
H40	H	-3.663069	-0.065528	-0.846077
H41	H	-4.289624	-0.465405	-0.303779
C42	C	-4.460710	-0.808558	-0.219781
C43	C	-4.398641	-0.846275	-0.300011
H44	H	-4.608456	-0.850003	-0.223023
H45	H	-4.440605	-0.735089	-0.220541
H46	H	-4.375181	-0.815021	-0.161366
H47	H	-4.484160	-0.839804	-0.358426
H48	H	-4.418765	-0.919762	-0.299260
C49	C	-3.533893	-0.320025	-0.285995
C50	C	-3.563470	-0.428328	-0.284883
H51	H	-3.386148	-0.278581	-0.282756
H52	H	-3.576028	-0.294461	-0.231574
H53	H	-3.619421	-0.313583	-0.344420
H54	H	-3.477953	-0.434771	-0.226455
H55	H	-3.521309	-0.453899	-0.339309
H56	H	-3.546587	-0.607265	-0.281268
H57	H	-3.672495	-0.809218	-0.281111
H58	H	-4.212253	-0.144343	-0.781610
