data_functionalizedCrystal
_audit_creation_method	'MofGen! by Chris Wilmer'
_symmetry_space_group_name_H-M	'P1'
_symmetry_Int_Tables_number	1
_symmetry_cell_setting	triclinic
loop_
_symmetry_equiv_pos_as_xyz
  x,y,z
_cell_length_a	25.639242
_cell_length_b	25.639240
_cell_length_c	25.639233
_cell_angle_alpha	90.014416
_cell_angle_beta	90.023596
_cell_angle_gamma	90.032449
loop_
_atom_site_label
_atom_site_type_symbol
_atom_site_fract_x
_atom_site_fract_y
_atom_site_fract_z
Zn1	Zn	-0.799230	0.208284	-0.295778
Zn2	Zn	-0.299230	0.708284	0.204222
Zn3	Zn	-0.799155	0.295703	-0.208349
Zn4	Zn	-0.299155	0.795703	0.291651
Zn5	Zn	-0.711806	0.208275	-0.208340
Zn6	Zn	-0.211806	0.708275	0.291660
Zn7	Zn	-0.711753	0.295682	-0.295737
Zn8	Zn	-0.211753	0.795682	0.204263
O9	O	-0.755486	0.251986	-0.252051
O10	O	-0.255486	0.751986	0.247949
O11	O	-0.872385	0.219892	-0.284201
O12	O	-0.372385	0.719892	0.215799
O13	O	-0.787559	0.284110	-0.135182
O14	O	-0.287559	0.784110	0.364818
O15	O	-0.723456	0.135111	-0.219952
O16	O	-0.223456	0.635111	0.280048
O17	O	-0.872330	0.284118	-0.219968
O18	O	-0.372330	0.784118	0.280032
O19	O	-0.787686	0.135117	-0.284193
O20	O	-0.287686	0.635117	0.215807
O21	O	-0.723384	0.219878	-0.135176
O22	O	-0.223384	0.719878	0.364824
O23	O	-0.638634	0.219858	-0.219912
O24	O	-0.138634	0.719858	0.280088
O25	O	-0.723366	0.284084	-0.368907
O26	O	-0.223366	0.784084	0.131093
O27	O	-0.638595	0.284076	-0.284122
O28	O	-0.138595	0.784076	0.215878
O29	O	-0.787635	0.219872	-0.368938
O30	O	-0.287635	0.719872	0.131062
O31	O	-0.787508	0.368865	-0.219928
O32	O	-0.287508	0.868865	0.280072
O33	O	-0.723294	0.368850	-0.284131
O34	O	-0.223294	0.868850	0.215869
C35	C	-0.619643	0.251964	-0.252012
C36	C	-0.119643	0.751964	0.247988
C37	C	-0.561529	0.251967	-0.252008
C38	C	-0.061529	0.751967	0.247992
C39	C	-0.201155	0.285475	-0.285439
C40	C	0.298845	0.785475	0.214561
C41	C	-0.146551	0.285478	-0.285446
C42	C	0.353449	0.785478	0.214554
O43	O	-0.118304	0.313944	-0.313848
O44	O	0.381696	0.813944	0.186152
N45	N	-0.119247	0.251995	-0.252069
N46	N	0.380753	0.751995	0.247931
C47	C	-0.146550	0.218503	-0.218686
C48	C	0.353450	0.718503	0.281314
O49	O	-0.118312	0.190023	-0.190297
O50	O	0.381688	0.690023	0.309703
C51	C	-0.201154	0.218498	-0.218683
C52	C	0.298846	0.718498	0.281317
C53	C	-0.228454	0.251987	-0.252058
C54	C	0.271546	0.751987	0.247942
C55	C	-0.228456	0.318961	-0.318813
C56	C	0.271544	0.818961	0.181187
C57	C	-0.283056	0.318959	-0.318805
C58	C	0.216944	0.818959	0.181195
C59	C	-0.310356	0.285471	-0.285424
C60	C	0.189644	0.785471	0.214576
C61	C	-0.283055	0.251985	-0.252051
C62	C	0.216945	0.751985	0.247949
C63	C	-0.228456	0.185004	-0.185303
C64	C	0.271544	0.685004	0.314697
C65	C	-0.283063	0.185002	-0.185302
C66	C	0.216937	0.685002	0.314698
C67	C	-0.310364	0.218491	-0.218678
C68	C	0.189636	0.718491	0.281322
C69	C	-0.364955	0.218495	-0.218662
C70	C	0.135045	0.718495	0.281338
N71	N	-0.392259	0.251978	-0.252039
N72	N	0.107741	0.751978	0.247961
C73	C	-0.364959	0.285466	-0.285420
C74	C	0.135041	0.785466	0.214580
C75	C	-0.031880	0.218516	-0.218698
C76	C	0.468120	0.718516	0.281302
C77	C	0.022723	0.218523	-0.218699
C78	C	0.522723	0.718523	0.281301
C79	C	0.022719	0.285497	-0.285459
C80	C	0.522719	0.785497	0.214541
C81	C	-0.031885	0.285492	-0.285455
C82	C	0.468115	0.785492	0.214545
C83	C	-0.059183	0.251999	-0.252075
C84	C	0.440817	0.751999	0.247925
C85	C	-0.479624	0.285459	-0.285401
C86	C	0.020376	0.785459	0.214599
C87	C	-0.534230	0.285455	-0.285389
C88	C	-0.034230	0.785455	0.214611
C89	C	-0.534221	0.218480	-0.218630
C90	C	-0.034221	0.718480	0.281370
C91	C	-0.479620	0.218485	-0.218640
C92	C	0.020380	0.718485	0.281360
C93	C	-0.452323	0.251976	-0.252030
C94	C	0.047677	0.751976	0.247970
O95	O	-0.393236	0.190042	-0.190276
O96	O	0.106764	0.690042	0.309724
O97	O	-0.393204	0.313936	-0.313809
O98	O	0.106796	0.813936	0.186191
C99	C	-0.755401	0.387829	-0.252037
C100	C	-0.255401	0.887829	0.247963
C101	C	-0.755412	0.445943	-0.252049
C102	C	-0.255412	0.945943	0.247951
C103	C	-0.755503	0.251977	-0.388424
C104	C	-0.255503	0.751977	0.111576
C105	C	-0.755510	0.251973	-0.446538
C106	C	-0.255510	0.751973	0.053462
C107	C	0.108141	0.252006	-0.252084
C108	C	0.608141	0.752006	0.247916
C109	C	0.050027	0.252009	-0.252082
C110	C	0.550027	0.752009	0.247918
C111	C	-0.788886	0.697088	-0.285530
C112	C	-0.288886	1.197088	0.214470
C113	C	-0.788875	0.642484	-0.285526
C114	C	-0.288875	1.142484	0.214474
O115	O	-0.817298	0.614206	-0.313978
O116	O	-0.317298	1.114206	0.186022
N117	N	-0.755454	0.615216	-0.252053
N118	N	-0.255454	1.115216	0.247947
C119	C	-0.722045	0.642556	-0.218578
C120	C	-0.222045	1.142556	0.281422
O121	O	-0.693617	0.614350	-0.190106
O122	O	-0.193617	1.114350	0.309894
C123	C	-0.722058	0.697160	-0.218579
C124	C	-0.222058	1.197160	0.281421
C125	C	-0.755478	0.724424	-0.252058
C126	C	-0.255478	1.224424	0.247942
C127	C	-0.822303	0.724352	-0.319005
C128	C	-0.322303	1.224352	0.180995
C129	C	-0.822313	0.778953	-0.319009
C130	C	-0.322313	1.278953	0.180991
C131	C	-0.788905	0.806289	-0.285537
C132	C	-0.288905	1.306289	0.214463
C133	C	-0.755488	0.779025	-0.252061
C134	C	-0.255488	1.279025	0.247939
C135	C	-0.688652	0.724499	-0.185101
C136	C	-0.188652	1.224499	0.314899
C137	C	-0.688669	0.779106	-0.185104
C138	C	-0.188669	1.279106	0.314896
C139	C	-0.722089	0.806370	-0.218583
C140	C	-0.222089	1.306370	0.281417
C141	C	-0.722090	0.860961	-0.218593
C142	C	-0.222090	1.360961	0.281407
N143	N	-0.755511	0.888229	-0.252066
N144	N	-0.255511	1.388229	0.247934
C145	C	-0.788919	0.860892	-0.285538
C146	C	-0.288919	1.360892	0.214462
C147	C	-0.722019	0.527886	-0.218577
C148	C	-0.222019	1.027886	0.281423
C149	C	-0.722003	0.473283	-0.218578
C150	C	-0.222003	0.973283	0.281422
C151	C	-0.788834	0.473215	-0.285527
C152	C	-0.288834	0.973215	0.214473
C153	C	-0.788848	0.527818	-0.285528
C154	C	-0.288848	1.027818	0.214472
C155	C	-0.755441	0.555153	-0.252050
C156	C	-0.255441	1.055153	0.247950
C157	C	-0.788937	0.975557	-0.285544
C158	C	-0.288937	1.475557	0.214456
C159	C	-0.788942	1.030163	-0.285547
C160	C	-0.288942	1.530163	0.214453
C161	C	-0.722113	1.030227	-0.218597
C162	C	-0.222113	1.530227	0.281403
C163	C	-0.722105	0.975626	-0.218596
C164	C	-0.222105	1.475626	0.281404
C165	C	-0.755521	0.948293	-0.252072
C166	C	-0.255521	1.448293	0.247928
O167	O	-0.693683	0.889273	-0.190154
O168	O	-0.193683	1.389273	0.309846
O169	O	-0.817347	0.889106	-0.314001
O170	O	-0.317347	1.389106	0.185999
C171	C	-0.755562	1.115613	-0.252073
C172	C	-0.255562	1.615613	0.247927
C173	C	-0.755534	1.057499	-0.252075
C174	C	-0.255534	1.557499	0.247925
C175	C	-0.789017	0.218439	-0.806923
C176	C	-0.289017	0.718439	-0.306923
C177	C	-0.789024	0.218424	-0.861527
C178	C	-0.289024	0.718424	-0.361527
O179	O	-0.817470	0.189974	-0.889782
O180	O	-0.317470	0.689974	-0.389782
N181	N	-0.755568	0.251850	-0.888821
N182	N	-0.255568	0.751850	-0.388821
C183	C	-0.722099	0.285289	-0.861507
C184	C	-0.222099	0.785289	-0.361507
O185	O	-0.693643	0.313719	-0.889736
O186	O	-0.193643	0.813719	-0.389736
C187	C	-0.722091	0.285301	-0.806904
C188	C	-0.222091	0.785301	-0.306904
C189	C	-0.755552	0.251876	-0.779613
C190	C	-0.255552	0.751876	-0.279613
C191	C	-0.822476	0.185016	-0.779632
C192	C	-0.322476	0.685016	-0.279632
C193	C	-0.822470	0.185032	-0.725031
C194	C	-0.322470	0.685032	-0.225031
C195	C	-0.789005	0.218469	-0.697721
C196	C	-0.289005	0.718469	-0.197721
C197	C	-0.755547	0.251891	-0.725012
C198	C	-0.255547	0.751891	-0.225012
C199	C	-0.688620	0.318737	-0.779591
C200	C	-0.188620	0.818737	-0.279591
C201	C	-0.688614	0.318745	-0.724984
C202	C	-0.188614	0.818745	-0.224984
C203	C	-0.722076	0.285320	-0.697693
C204	C	-0.222076	0.785320	-0.197693
C205	C	-0.722076	0.285344	-0.643102
C206	C	-0.222076	0.785344	-0.143102
N207	N	-0.755532	0.251918	-0.615808
N208	N	-0.255532	0.751918	-0.115808
C209	C	-0.788997	0.218481	-0.643118
C210	C	-0.288997	0.718481	-0.143118
C211	C	-0.722119	0.285262	-0.976178
C212	C	-0.222119	0.785262	-0.476178
C213	C	-0.722130	0.285254	-1.030780
C214	C	-0.222130	0.785254	-0.530780
C215	C	-0.789054	0.218388	-1.030796
C216	C	-0.289054	0.718388	-0.530796
C217	C	-0.789045	0.218399	-0.976193
C218	C	-0.289045	0.718399	-0.476193
C219	C	-0.755575	0.251836	-0.948884
C220	C	-0.255575	0.751836	-0.448884
C221	C	-0.788982	0.218516	-0.528453
C222	C	-0.288982	0.718516	-0.028453
C223	C	-0.788975	0.218535	-0.473848
C224	C	-0.288975	0.718535	0.026152
C225	C	-0.722049	0.285399	-0.473836
C226	C	-0.222049	0.785399	0.026164
C227	C	-0.722058	0.285382	-0.528437
C228	C	-0.222058	0.785382	-0.028437
C229	C	-0.755526	0.251936	-0.555744
C230	C	-0.255526	0.751936	-0.055744
O231	O	-0.693642	0.313779	-0.614812
O232	O	-0.193642	0.813779	-0.114812
O233	O	-0.817444	0.190051	-0.614882
O234	O	-0.317444	0.690051	-0.114882
C235	C	-0.755499	0.251957	-0.116208
C236	C	-0.255499	0.751957	0.383792
C237	C	-0.755593	0.251814	-0.058095
C238	C	-0.255593	0.751814	0.441905
H239	H	-0.305287	0.157724	-0.158122
H240	H	0.194713	0.657724	0.341878
H241	H	-0.694887	0.953427	-0.191340
H242	H	-0.194887	1.453427	0.308660
H243	H	-0.661465	0.801359	-0.157842
H244	H	-0.161465	1.301359	0.342158
C245	C	-0.825586	0.443138	-0.322341
C246	C	-0.325586	0.943138	0.177659
H247	H	-0.820793	0.406714	-0.317539
H248	H	-0.320793	0.906714	0.182461
H249	H	-0.817917	0.452078	-0.357465
H250	H	-0.317917	0.952078	0.142535
H251	H	-0.860725	0.452060	-0.314723
H252	H	-0.360725	0.952060	0.185277
C253	C	-0.685371	1.060304	-0.181777
C254	C	-0.185371	1.560304	0.318223
H255	H	-0.690171	1.096727	-0.186572
H256	H	-0.190171	1.596727	0.313428
H257	H	-0.650231	1.051385	-0.189383
H258	H	-0.150231	1.551385	0.310617
H259	H	-0.693053	1.051360	-0.146655
H260	H	-0.193053	1.551360	0.353345
C261	C	-0.825781	0.181764	-0.443831
C262	C	-0.325781	0.681764	0.056169
H263	H	-0.845707	0.161844	-0.467919
H264	H	-0.345707	0.661844	0.032081
H265	H	-0.848547	0.201770	-0.422536
H266	H	-0.348547	0.701770	0.077464
H267	H	-0.805791	0.158983	-0.422525
H268	H	-0.305791	0.658983	0.077475
H269	H	-0.054103	0.191242	-0.191512
H270	H	0.445897	0.691242	0.308488
H271	H	-0.206234	0.346231	-0.345999
H272	H	0.293766	0.846231	0.154001
C273	C	-0.859271	0.148259	-0.695016
C274	C	-0.359271	0.648259	-0.195016
H275	H	-0.854481	0.153053	-0.658583
H276	H	-0.354481	0.653053	-0.158583
H277	H	-0.851643	0.113129	-0.703968
H278	H	-0.351643	0.613129	-0.203968
H279	H	-0.894399	0.155916	-0.703975
H280	H	-0.394399	0.655916	-0.203975
C281	C	-0.825800	0.181730	-0.558483
C282	C	-0.325800	0.681730	-0.058483
H283	H	-0.845727	0.161833	-0.534403
H284	H	-0.345727	0.661833	-0.034403
H285	H	-0.805826	0.158936	-0.579779
H286	H	-0.305826	0.658936	-0.079779
H287	H	-0.848572	0.201733	-0.579788
H288	H	-0.348572	0.701733	-0.079788
H289	H	-0.816292	0.191181	-0.953976
H290	H	-0.316292	0.691181	-0.453976
H291	H	-0.556458	0.191216	-0.191451
H292	H	-0.056458	0.691216	0.308549
H293	H	-0.661352	0.345968	-0.702752
H294	H	-0.161352	0.845968	-0.202752
H295	H	-0.305280	0.346228	-0.345984
H296	H	0.194720	0.846228	0.154016
H297	H	-0.849727	0.157785	-0.801861
H298	H	-0.349727	0.657785	-0.301861
H299	H	-0.816302	0.191160	-1.053042
H300	H	-0.316302	0.691160	-0.553042
H301	H	-0.457391	0.191217	-0.191462
H302	H	0.042609	0.691217	0.308538
C303	C	-0.651815	0.355506	-0.809602
C304	C	-0.151815	0.855506	-0.309602
H305	H	-0.656610	0.350719	-0.846035
H306	H	-0.156610	0.850719	-0.346035
H307	H	-0.616690	0.347850	-0.800641
H308	H	-0.116690	0.847850	-0.300641
H309	H	-0.659445	0.390639	-0.800649
H310	H	-0.159445	0.890639	-0.300649
H311	H	-0.694888	0.312477	-1.052996
H312	H	-0.194888	0.812477	-0.552996
C313	C	-0.825708	1.060151	-0.322372
C314	C	-0.325708	1.560151	0.177628
H315	H	-0.845606	1.036047	-0.342301
H316	H	-0.345606	1.536047	0.157699
H317	H	-0.805699	1.081460	-0.345134
H318	H	-0.305699	1.581460	0.154866
H319	H	-0.848509	1.081439	-0.302394
H320	H	-0.348509	1.581439	0.197606
C321	C	-0.685262	0.557950	-0.181757
C322	C	-0.185262	1.057950	0.318243
H323	H	-0.665354	0.533887	-0.161828
H324	H	-0.165354	1.033887	0.338172
H325	H	-0.705277	0.579243	-0.158996
H326	H	-0.205277	1.079243	0.341004
H327	H	-0.662469	0.579261	-0.201738
H328	H	-0.162469	1.079261	0.298262
H329	H	-0.694805	0.312625	-0.451591
H330	H	-0.194805	0.812625	0.048409
C331	C	-0.685312	0.322057	-0.946143
C332	C	-0.185312	0.822057	-0.446143
H333	H	-0.665395	0.341965	-0.970222
H334	H	-0.165395	0.841965	-0.470222
H335	H	-0.662537	0.302067	-0.924833
H336	H	-0.162537	0.802067	-0.424833
H337	H	-0.705300	0.344847	-0.924851
H338	H	-0.205300	0.844847	-0.424851
H339	H	-0.694816	0.312603	-0.550658
H340	H	-0.194816	0.812603	-0.050658
H341	H	-0.054109	0.312761	-0.312634
H342	H	0.445891	0.812761	0.187366
C343	C	-0.859080	0.808937	-0.355831
C344	C	-0.359080	1.308937	0.144169
H345	H	-0.878976	0.784830	-0.375758
H346	H	-0.378976	1.284830	0.124242
H347	H	-0.839076	0.830249	-0.378594
H348	H	-0.339076	1.330249	0.121406
H349	H	-0.881883	0.830223	-0.335852
H350	H	-0.381883	1.330223	0.164148
C351	C	0.052750	0.181686	-0.181986
C352	C	0.552750	0.681686	0.318014
H353	H	0.089181	0.186482	-0.186766
H354	H	0.589181	0.686482	0.313234
H355	H	0.043775	0.146570	-0.189701
H356	H	0.543775	0.646570	0.310299
H357	H	0.043824	0.189287	-0.146840
H358	H	0.543824	0.689287	0.353160
C359	C	-0.564258	0.322292	-0.322106
C360	C	-0.064258	0.822292	0.177894
H361	H	-0.540176	0.342232	-0.341991
H362	H	-0.040176	0.842232	0.158009
H363	H	-0.585537	0.345044	-0.302066
H364	H	-0.085537	0.845044	0.197934
H365	H	-0.585580	0.302321	-0.344921
H366	H	-0.085580	0.802321	0.155079
C367	C	-0.859051	0.694291	-0.355832
C368	C	-0.359051	1.194291	0.144168
H369	H	-0.878949	0.718356	-0.375768
H370	H	-0.378949	1.218356	0.124232
H371	H	-0.881845	0.672974	-0.335865
H372	H	-0.381845	1.172974	0.164135
H373	H	-0.839025	0.673004	-0.378594
H374	H	-0.339025	1.173004	0.121406
C375	C	-0.449605	0.322283	-0.322145
C376	C	0.050395	0.822283	0.177855
H377	H	-0.473691	0.342220	-0.342019
H378	H	0.026309	0.842220	0.157981
H379	H	-0.428336	0.302305	-0.344960
H380	H	0.071664	0.802305	0.155040
H381	H	-0.428274	0.345045	-0.302122
H382	H	0.071726	0.845045	0.197878
C383	C	0.052755	0.322329	-0.322183
C384	C	0.552755	0.822329	0.177817
H385	H	0.089184	0.317529	-0.317407
H386	H	0.589184	0.817529	0.182593
H387	H	0.043832	0.357448	-0.314474
H388	H	0.543832	0.857448	0.185526
H389	H	0.043786	0.314722	-0.357326
H390	H	0.543786	0.814722	0.142674
H391	H	-0.816148	0.953309	-0.312802
H392	H	-0.316148	1.453309	0.187198
C393	C	-0.825614	0.557804	-0.322349
C394	C	-0.325614	1.057804	0.177651
H395	H	-0.845509	0.533698	-0.342279
H396	H	-0.345509	1.033698	0.157721
H397	H	-0.805608	0.579117	-0.345110
H398	H	-0.305608	1.079117	0.154890
H399	H	-0.848418	0.579088	-0.302370
H400	H	-0.348418	1.079088	0.197630
H401	H	-0.694784	0.451089	-0.191323
H402	H	-0.194784	0.951089	0.308677
C403	C	-0.198437	0.148162	-0.148593
C404	C	0.301563	0.648162	0.351407
H405	H	-0.222523	0.128215	-0.128721
H406	H	0.277477	0.628215	0.371279
H407	H	-0.177112	0.168120	-0.125774
H408	H	0.322888	0.668120	0.374226
H409	H	-0.177161	0.125409	-0.168641
H410	H	0.322839	0.625409	0.331359
H411	H	-0.661439	0.702308	-0.157839
H412	H	-0.161439	1.202308	0.342161
