data_functionalizedCrystal
_audit_creation_method	'MofGen! by Chris Wilmer'
_symmetry_space_group_name_H-M	'P1'
_symmetry_Int_Tables_number	1
_symmetry_cell_setting	triclinic
loop_
_symmetry_equiv_pos_as_xyz
  x,y,z
_cell_length_a	27.732064
_cell_length_b	27.732048
_cell_length_c	9.798715
_cell_angle_alpha	89.991917
_cell_angle_beta	90.003961
_cell_angle_gamma	82.646040
loop_
_atom_site_label
_atom_site_type_symbol
_atom_site_fract_x
_atom_site_fract_y
_atom_site_fract_z
O1	O	0.640921	0.057554	-0.113262
O2	O	0.500129	0.066291	-0.113320
O3	O	0.574898	-0.008474	-0.113263
O4	O	0.566153	0.132319	-0.113319
O5	O	0.574892	-0.008474	0.113719
O6	O	0.500124	0.066291	0.113662
O7	O	0.640916	0.057554	0.113720
Zn8	Zn	0.570519	0.061923	0.149729
Zn9	Zn	0.570526	0.061923	-0.149329
O10	O	0.566147	0.132319	0.113663
C11	C	0.482120	0.066106	0.000164
C12	C	0.428465	0.065551	0.000143
C13	C	0.574712	-0.026481	0.000231
C14	C	0.574159	-0.080136	0.000242
C15	C	0.051392	0.017583	0.000239
C16	C	0.253053	0.019630	0.000203
O17	O	0.284305	-0.017591	0.000269
N18	N	0.272180	0.063964	0.000179
C19	C	0.240889	0.107790	0.000174
O20	O	0.261785	0.145546	0.000167
C21	C	0.039230	0.105743	0.000220
C22	C	0.020105	0.061406	0.000230
C23	C	0.032267	-0.026750	0.000251
C24	C	-0.018145	-0.027261	0.000252
C25	C	-0.049432	0.016561	0.000243
C26	C	-0.030307	0.060895	0.000231
C27	C	0.007940	0.149568	0.000224
C28	C	-0.042478	0.149053	0.000239
C29	C	-0.061602	0.104716	0.000249
C30	C	-0.112006	0.104206	0.000223
N31	N	-0.131134	0.059872	0.000247
C32	C	-0.099846	0.016049	0.000257
C33	C	0.346763	0.108861	0.000147
C34	C	0.397178	0.109373	0.000133
C35	C	0.409338	0.021213	0.000165
C36	C	0.358923	0.020701	0.000169
C37	C	0.327636	0.064527	0.000171
C38	C	-0.205716	0.014979	0.000259
C39	C	-0.256133	0.014472	0.000255
C40	C	-0.268289	0.102632	0.000230
C41	C	-0.217876	0.103140	0.000227
C42	C	-0.186590	0.059309	0.000246
O43	O	-0.143287	0.141407	0.000173
O44	O	-0.120752	-0.021701	0.000294
C45	C	0.101805	0.018094	0.000238
C46	C	0.120930	0.062428	0.000226
C47	C	0.089642	0.106250	0.000217
C48	C	0.171344	0.062940	0.000212
C49	C	0.202631	0.019117	0.000222
C50	C	0.183504	-0.025217	0.000246
C51	C	0.133092	-0.025728	0.000247
C52	C	0.108770	0.150585	0.000193
C53	C	0.159183	0.151092	0.000190
C54	C	0.190470	0.107270	0.000200
C55	C	0.614862	-0.418948	0.000189
C56	C	0.612811	-0.620608	0.000169
O57	O	0.650032	-0.651862	0.000125
N58	N	0.568476	-0.639735	0.000152
C59	C	0.524651	-0.608442	0.000131
O60	O	0.486895	-0.629338	0.000102
C61	C	0.526703	-0.406784	0.000141
C62	C	0.571040	-0.387660	0.000172
C63	C	0.659196	-0.399824	0.000219
C64	C	0.659709	-0.349412	0.000231
C65	C	0.615887	-0.318124	0.000214
C66	C	0.571553	-0.337248	0.000185
C67	C	0.482878	-0.375493	0.000110
C68	C	0.483395	-0.325075	0.000110
C69	C	0.527733	-0.305952	0.000140
C70	C	0.528243	-0.255548	0.000180
N71	N	0.572578	-0.236422	0.000197
C72	C	0.616400	-0.267710	0.000214
C73	C	0.523577	-0.714317	0.000129
C74	C	0.523064	-0.764731	0.000129
C75	C	0.611225	-0.776893	0.000164
C76	C	0.611737	-0.726478	0.000174
C77	C	0.567912	-0.695190	0.000146
C78	C	0.617472	-0.161841	0.000241
C79	C	0.617981	-0.111424	0.000259
C80	C	0.529821	-0.099266	0.000217
C81	C	0.529312	-0.149679	0.000206
C82	C	0.573142	-0.180965	0.000213
O83	O	0.491043	-0.224267	0.000209
O84	O	0.654151	-0.246805	0.000213
C85	C	0.614350	-0.469360	0.000177
C86	C	0.570016	-0.488484	0.000147
C87	C	0.526194	-0.457196	0.000130
C88	C	0.569503	-0.538899	0.000147
C89	C	0.613325	-0.570187	0.000164
C90	C	0.657660	-0.551060	0.000181
C91	C	0.658172	-0.500648	0.000194
C92	C	0.481859	-0.476323	0.000113
C93	C	0.481351	-0.526735	0.000103
C94	C	0.525172	-0.558023	0.000119
C95	C	0.658925	0.057739	0.000233
C96	C	0.712580	0.058295	0.000245
C97	C	0.566333	0.150326	0.000165
C98	C	0.566886	0.203981	0.000145
N99	N	0.570517	0.061922	0.353829
N100	N	0.570531	0.061919	-0.353429
C101	C	0.601913	0.030394	0.421630
C102	C	0.601921	0.030392	0.578793
H103	H	-0.271701	-0.021634	0.000259
O104	O	0.700273	-0.581390	0.000254
C105	C	0.739520	-0.553706	0.000237
H106	H	0.726969	-0.515988	0.043217
H107	H	0.770198	-0.572537	0.066137
H108	H	0.753128	-0.550208	-0.108654
O109	O	0.213950	-0.067755	0.000074
C110	C	0.243464	-0.070098	-0.117499
H111	H	0.245728	-0.031749	-0.156710
H112	H	0.281492	-0.088388	-0.091053
H113	H	0.227037	-0.092052	-0.199805
H114	H	-0.180248	-0.020712	0.000274
H115	H	-0.033711	-0.063365	0.000266
O116	O	0.538509	0.094191	0.577094
C117	C	0.546125	0.141962	0.611921
H118	H	0.584825	0.141839	0.651284
H119	H	0.540477	0.166237	0.517884
H120	H	0.519234	0.156440	0.694756
H121	H	-0.293772	0.138311	0.000216
O122	O	0.660016	-0.192277	0.000437
C123	C	0.662363	-0.221802	0.118007
H124	H	0.624014	-0.224083	0.157174
H125	H	0.680666	-0.259823	0.091575
H126	H	0.684305	-0.205374	0.200341
H127	H	0.646906	-0.802377	0.000179
H128	H	-0.202304	0.139243	0.000218
H129	H	0.543642	0.088911	0.412133
H130	H	0.321293	0.144551	0.000147
O131	O	0.062587	-0.069367	0.000195
C132	C	0.034885	-0.108601	0.000244
H133	H	-0.002837	-0.096033	-0.042714
H134	H	0.053693	-0.139282	-0.065659
H135	H	0.031399	-0.122212	0.109142
H136	H	0.117526	-0.061832	0.000256
O137	O	0.634034	-0.001831	0.648129
C138	C	0.663208	-0.031154	0.554583
H139	H	0.663693	-0.011381	0.452684
H140	H	0.701845	-0.038887	0.595972
H141	H	0.647679	-0.066904	0.539451
O142	O	0.487241	-0.068889	0.000434
C143	C	0.460283	-0.077517	0.117948
H144	H	0.485925	-0.094940	0.200138
H145	H	0.440626	-0.041603	0.157388
H146	H	0.432500	-0.102984	0.091346
H147	H	0.343355	-0.015402	0.000178
H148	H	0.446774	-0.391054	0.000077
H149	H	0.447706	-0.299603	0.000085
H150	H	0.174748	0.187200	0.000172
H151	H	0.434821	-0.014469	0.000168
H152	H	0.412744	0.145477	0.000106
O153	O	0.479952	-0.783224	0.000053
C154	C	0.441387	-0.744792	0.000069
H155	H	0.454681	-0.710637	-0.042893
H156	H	0.410411	-0.755096	-0.065847
H157	H	0.427885	-0.737564	0.108958
H158	H	0.493209	-0.165249	0.000219
H159	H	0.694276	-0.485083	0.000218
O160	O	0.026428	0.192681	0.000286
C161	C	-0.012006	0.231243	0.000257
H162	H	-0.046155	0.217945	0.043228
H163	H	-0.001698	0.262218	0.066161
H164	H	-0.019244	0.244749	-0.108636
H165	H	-0.067950	0.184742	0.000247
H166	H	0.446173	-0.450852	0.000097
O167	O	0.438235	-0.545227	0.000014
C168	C	0.399670	-0.506795	0.000033
H169	H	0.412965	-0.472639	-0.042915
H170	H	0.368695	-0.517097	-0.065895
H171	H	0.386165	-0.499572	0.108920
H172	H	0.083300	0.186271	0.000187
O173	O	0.481035	-0.683877	0.000291
C174	C	0.478682	-0.654366	0.117864
H175	H	0.517029	-0.652090	0.157069
H176	H	0.460382	-0.616340	0.091419
H177	H	0.456734	-0.670801	0.200174
O178	O	0.654818	-0.707926	-0.000051
C179	C	0.681514	-0.723955	-0.117578
H180	H	0.655582	-0.734250	-0.199751
H181	H	0.701850	-0.693561	-0.157036
H182	H	0.708698	-0.757014	-0.090985
O183	O	0.633918	-0.001808	0.351905
C184	C	0.608149	-0.031353	0.269252
H185	H	0.570204	-0.011753	0.248016
H186	H	0.628328	-0.039126	0.168702
H187	H	0.605077	-0.067070	0.324200
H188	H	0.654087	-0.095857	0.000288
O189	O	0.702821	-0.330920	0.000189
C190	C	0.741384	-0.369354	0.000234
H191	H	0.728090	-0.403503	-0.042744
H192	H	0.772364	-0.359044	-0.065655
H193	H	0.754881	-0.376594	0.109133
H194	H	0.694884	-0.425295	0.000227
