data_functionalizedCrystal
_audit_creation_method	'MofGen! by Chris Wilmer'
_symmetry_space_group_name_H-M	'P1'
_symmetry_Int_Tables_number	1
_symmetry_cell_setting	triclinic
loop_
_symmetry_equiv_pos_as_xyz
  x,y,z
_cell_length_a	18.215407
_cell_length_b	19.805405
_cell_length_c	19.805399
_cell_angle_alpha	89.969291
_cell_angle_beta	89.983915
_cell_angle_gamma	90.026858
loop_
_atom_site_label
_atom_site_type_symbol
_atom_site_fract_x
_atom_site_fract_y
_atom_site_fract_z
Zn1	Zn	1.125037	-0.269461	-0.382697
Zn2	Zn	1.124950	-0.382653	-0.269505
Zn3	Zn	1.001978	-0.269484	-0.269523
Zn4	Zn	1.001932	-0.382615	-0.382654
O5	O	1.063474	-0.326053	-0.326095
O6	O	1.228010	-0.284483	-0.367693
O7	O	1.108620	-0.367666	-0.174791
O8	O	1.018357	-0.174764	-0.284562
O9	O	1.227946	-0.367644	-0.284531
O10	O	1.108768	-0.174748	-0.367710
O11	O	1.018273	-0.284521	-0.174804
O12	O	0.898987	-0.284484	-0.284520
O13	O	1.018280	-0.367579	-0.477376
O14	O	0.898954	-0.367601	-0.367636
O15	O	1.108724	-0.284446	-0.477408
O16	O	1.108576	-0.477364	-0.284489
O17	O	1.018195	-0.477336	-0.367619
C18	C	0.872268	-0.326042	-0.326075
C19	C	0.790469	-0.326053	-0.326083
C20	C	0.602277	-0.369400	-0.369308
C21	C	0.525418	-0.369402	-0.369316
C22	C	0.525423	-0.282719	-0.282897
C23	C	0.602281	-0.282714	-0.282892
C24	C	0.640706	-0.326058	-0.326097
C25	C	0.486989	-0.326065	-0.326110
C26	C	0.403656	-0.326067	-0.326119
C27	C	0.724044	-0.326055	-0.326089
C28	C	1.063391	-0.501909	-0.326062
C29	C	1.063423	-0.577141	-0.326071
C30	C	1.110530	-0.612477	-0.282831
C31	C	1.110562	-0.683166	-0.282845
C32	C	1.063482	-0.718517	-0.326098
C33	C	1.016372	-0.683176	-0.369343
C34	C	1.016345	-0.612488	-0.369331
C35	C	1.016481	-0.968249	-0.369393
C36	C	1.016510	-1.038941	-0.369400
C37	C	1.110697	-1.038926	-0.282908
C38	C	1.110670	-0.968239	-0.282896
C39	C	1.063564	-0.932904	-0.326143
C40	C	1.063532	-0.856256	-0.326127
C41	C	1.063510	-0.795164	-0.326111
C42	C	1.255427	-0.326065	-0.326115
C43	C	1.337226	-0.326070	-0.326123
C44	C	1.063506	-0.326006	-0.502638
C45	C	1.063520	-0.325986	-0.577870
C46	C	1.063577	-0.149510	-0.326143
C47	C	1.063621	-0.074278	-0.326163
C48	C	1.016490	-0.282689	-0.613220
C49	C	1.016500	-0.282675	-0.683909
C50	C	1.063545	-0.325957	-0.719245
C51	C	1.110577	-0.369259	-0.683890
C52	C	1.110563	-0.369275	-0.613203
C53	C	1.110636	-0.369196	-0.968963
C54	C	1.110648	-0.369175	-1.039656
C55	C	1.016573	-0.282596	-1.039669
C56	C	1.016558	-0.282612	-0.968982
C57	C	1.063588	-0.325917	-0.933633
C58	C	1.063575	-0.325931	-0.856984
C59	C	1.063562	-0.325939	-0.795893
C60	C	1.063484	-0.326051	-0.150239
C61	C	1.063613	-0.325880	-0.075007
H62	H	1.148920	-0.711933	-0.247634
O63	O	0.970794	-0.240550	-0.718143
C64	C	0.929259	-0.202361	-0.671796
H65	H	0.959396	-0.200033	-0.621412
H66	H	0.921448	-0.149026	-0.692236
H67	H	0.873348	-0.227140	-0.664264
H68	H	0.978173	-1.067722	-0.404627
O69	O	0.970857	-0.240471	-1.073904
C70	C	0.929321	-0.202284	-1.027556
H71	H	0.959460	-0.199955	-0.977173
H72	H	0.921506	-0.148950	-1.047994
H73	H	0.873412	-0.227067	-1.020022
O74	O	1.156370	-0.411288	-1.073878
C75	C	1.197889	-0.449503	-1.027521
H76	H	1.167735	-0.451858	-0.977129
H77	H	1.205705	-0.502827	-1.047934
H78	H	1.253797	-0.424728	-1.020016
H79	H	0.494133	-0.404694	-0.404504
O80	O	1.156300	-0.578066	-0.240907
C81	C	1.203803	-0.537127	-0.279476
H82	H	1.177807	-0.526518	-0.330745
H83	H	1.213667	-0.487433	-0.251904
H84	H	1.258345	-0.564324	-0.286965
H85	H	0.978252	-0.247366	-0.940214
H86	H	1.148866	-0.404527	-0.584421
O87	O	0.970718	-0.717484	-0.411456
C88	C	0.986737	-0.700141	-0.478926
H89	H	1.045520	-0.680662	-0.482389
H90	H	0.980393	-0.746609	-0.512366
H91	H	0.947254	-0.659127	-0.496580
H92	H	1.148922	-0.404464	-0.940191
H93	H	1.148878	-0.404503	-0.712667
H94	H	0.633560	-0.404692	-0.404489
O95	O	0.487982	-0.240681	-0.240951
C96	C	0.411905	-0.249966	-0.250232
H97	H	0.401393	-0.302230	-0.272303
H98	H	0.382678	-0.245309	-0.199543
H99	H	0.390127	-0.209867	-0.286352
H100	H	0.633570	-0.247415	-0.247705
O101	O	0.970684	-0.933853	-0.411301
C102	C	0.923154	-0.893039	-0.372715
H103	H	0.949144	-0.882467	-0.321443
H104	H	0.913252	-0.843320	-0.400268
H105	H	0.868632	-0.920327	-0.365234
H106	H	1.149004	-0.939458	-0.247673
H107	H	1.149056	-1.067704	-0.247696
H108	H	0.977987	-0.583718	-0.404542
H109	H	0.978184	-0.247440	-0.584454
