data_functionalizedCrystal
_audit_creation_method	'MofGen! by Chris Wilmer'
_symmetry_space_group_name_H-M	'P1'
_symmetry_Int_Tables_number	1
_symmetry_cell_setting	triclinic
loop_
_symmetry_equiv_pos_as_xyz
  x,y,z
_cell_length_a	14.519709
_cell_length_b	15.944493
_cell_length_c	15.021413
_cell_angle_alpha	89.997322
_cell_angle_beta	90.000611
_cell_angle_gamma	83.577594
loop_
_atom_site_label
_atom_site_type_symbol
_atom_site_fract_x
_atom_site_fract_y
_atom_site_fract_z
O1	O	1.223650	0.110115	-0.073904
O2	O	1.723650	0.610115	0.426096
O3	O	0.955147	0.123082	-0.073930
O4	O	1.455147	0.623082	0.426070
O5	O	1.096759	-0.005669	-0.073924
O6	O	1.596759	0.494331	0.426076
O7	O	1.082039	0.238866	-0.073910
O8	O	1.582039	0.738866	0.426090
O9	O	1.096746	-0.005682	0.074140
O10	O	1.596746	0.494318	0.574140
O11	O	0.955135	0.123069	0.074134
O12	O	1.455135	0.623069	0.574134
O13	O	1.223637	0.110102	0.074160
O14	O	1.723637	0.610102	0.574160
Zn15	Zn	1.089384	0.116583	0.097656
Zn16	Zn	1.589384	0.616583	0.597656
Zn17	Zn	1.089401	0.116601	-0.097425
Zn18	Zn	1.589401	0.616601	0.402575
O19	O	1.082026	0.238853	0.074154
O20	O	1.582026	0.738853	0.574154
C21	C	0.920783	0.122471	0.000099
C22	C	1.420783	0.622471	0.500099
C23	C	0.818405	0.120660	0.000088
C24	C	1.318405	0.620660	0.500088
C25	C	1.096151	-0.036971	0.000104
C26	C	1.596151	0.463029	0.500104
C27	C	1.094347	-0.130222	0.000093
C28	C	1.594347	0.369778	0.500093
C29	C	0.443522	0.113993	0.000128
C30	C	0.943522	0.613993	0.500128
C31	C	0.547826	0.115845	0.000117
C32	C	1.047826	0.615845	0.500117
C33	C	0.630960	0.117327	0.000107
C34	C	1.130960	0.617327	0.500107
C35	C	0.735271	0.119178	0.000098
C36	C	1.235271	0.619178	0.500098
C37	C	1.177703	-0.365861	0.000118
C38	C	1.677703	0.134139	0.500118
C39	C	1.132758	-0.416488	-0.072889
C40	C	1.632758	0.083512	0.427111
C41	C	1.091005	-0.300948	0.000104
C42	C	1.591005	0.199052	0.500104
C43	C	1.132726	-0.416477	0.073090
C44	C	1.632726	0.083523	0.573090
C45	C	1.087783	-0.465863	0.000118
C46	C	1.587783	0.034137	0.500118
C47	C	1.046084	-0.350347	-0.072964
C48	C	1.546084	0.149653	0.427036
C49	C	1.046064	-0.350333	0.073081
C50	C	1.546064	0.149667	0.573081
C51	C	1.001056	-0.400926	0.000056
C52	C	1.501056	0.099074	0.500056
C53	C	1.092863	-0.205946	0.000095
C54	C	1.592863	0.294054	0.500095
C55	C	1.085918	-0.560862	0.000120
C56	C	1.585918	-0.060862	0.500120
C57	C	1.258002	0.110713	0.000129
C58	C	1.758002	0.610713	0.500129
C59	C	1.360380	0.112524	0.000134
C60	C	1.860380	0.612524	0.500134
C61	C	1.082634	0.270155	0.000124
C62	C	1.582634	0.770155	0.500124
C63	C	1.084438	0.363406	0.000129
C64	C	1.584438	0.863406	0.500129
N65	N	1.089380	0.116571	0.230793
N66	N	1.589380	0.616571	0.730793
N67	N	1.089412	0.116606	-0.230563
N68	N	1.589412	0.616606	0.269437
C69	C	1.154371	0.056562	0.529787
C70	C	1.654371	0.556562	1.029787
C71	C	1.173004	0.132262	0.470427
C72	C	1.673004	0.632262	0.970427
C73	C	1.089402	0.116596	0.587830
C74	C	1.589402	0.616596	1.087830
C75	C	1.070801	0.040886	0.470449
C76	C	1.570801	0.540886	0.970449
C77	C	1.089393	0.116580	0.412406
C78	C	1.589393	0.616580	0.912406
C79	C	1.108077	0.192334	0.529776
C80	C	1.608077	0.692334	1.029776
C81	C	1.005837	0.100909	0.529803
C82	C	1.505837	0.600909	1.029803
C83	C	1.024435	0.176663	0.470470
C84	C	1.524435	0.676663	0.970470
C85	C	1.089409	0.116605	0.688887
C86	C	1.589409	0.616605	1.188887
C87	C	1.089386	0.116580	0.311351
C88	C	1.589386	0.616580	0.811351
H89	H	1.252382	-0.350125	0.000052
H90	H	1.752382	0.149875	0.500052
H91	H	1.169352	-0.445361	0.134808
H92	H	1.669352	0.054639	0.634808
H93	H	1.169377	-0.445375	-0.134605
H94	H	1.669377	0.054625	0.365395
Cl95	Cl	0.989599	-0.305931	-0.168363
Cl96	Cl	1.489599	0.194069	0.331637
H97	H	1.123882	0.256369	0.555727
H98	H	1.623882	0.756369	1.055727
Cl99	Cl	0.939600	0.255117	0.430504
Cl100	Cl	1.439600	0.755117	0.930504
H101	H	0.926319	-0.416501	0.000009
H102	H	1.426319	0.083499	0.500009
Cl103	Cl	0.989595	-0.305686	0.168371
Cl104	Cl	1.489595	0.194314	0.668371
H105	H	1.055071	-0.023133	0.444387
H106	H	1.555071	0.476867	0.944387
H107	H	1.209353	0.005857	0.555831
H108	H	1.709353	0.505857	1.055831
Cl109	Cl	0.896768	0.080388	0.570105
Cl110	Cl	1.396768	0.580388	1.070105
Cl111	Cl	1.282099	0.152733	0.430134
Cl112	Cl	1.782099	0.652733	0.930134
