data_functionalizedCrystal
_audit_creation_method	'MofGen! by Chris Wilmer'
_symmetry_space_group_name_H-M	'P1'
_symmetry_Int_Tables_number	1
_symmetry_cell_setting	triclinic
loop_
_symmetry_equiv_pos_as_xyz
  x,y,z
_cell_length_a	15.944493
_cell_length_b	19.188924
_cell_length_c	14.421503
_cell_angle_alpha	90.002214
_cell_angle_beta	89.992936
_cell_angle_gamma	83.308504
loop_
_atom_site_label
_atom_site_type_symbol
_atom_site_fract_x
_atom_site_fract_y
_atom_site_fract_z
O1	O	1.114221	0.089846	-0.077104
O2	O	0.869622	0.100990	-0.077109
O3	O	0.998983	-0.006221	-0.077095
O4	O	0.984860	0.197057	-0.077117
O5	O	0.998962	-0.006205	0.077128
O6	O	0.869601	0.101006	0.077115
O7	O	1.114199	0.089862	0.077120
Cu8	Cu	0.991898	0.095435	0.091199
Cu9	Cu	0.991924	0.095416	-0.091188
O10	O	0.984839	0.197073	0.077106
C11	C	0.838319	0.100543	0.000002
C12	C	0.745075	0.099177	0.000001
C13	C	0.509077	0.162284	-0.000007
C14	C	0.458637	0.128261	0.076041
C15	C	0.574364	0.096647	0.000003
C16	C	0.458662	0.128229	-0.076011
C17	C	0.409463	0.094207	0.000001
C18	C	0.525151	0.062641	0.076114
C19	C	0.525180	0.062620	-0.076007
C20	C	0.474773	0.028548	0.000060
C21	C	0.669358	0.098054	0.000005
C22	C	0.314472	0.092795	0.000006
C23	C	0.998516	-0.032225	0.000017
C24	C	0.997146	-0.109733	0.000020
C25	C	0.996518	-0.146142	-0.084048
C26	C	0.995219	-0.218968	-0.084055
C27	C	0.994565	-0.255384	0.000011
C28	C	0.995188	-0.218966	0.084089
C29	C	0.996478	-0.146140	0.084094
N30	N	1.040330	-0.374930	0.062579
N31	N	1.039106	-0.444112	0.062569
C32	C	0.990674	-0.474803	0.000002
N33	N	0.943523	-0.433700	-0.062570
N34	N	0.944751	-0.364513	-0.062562
C35	C	0.993164	-0.334351	0.000015
C36	C	0.988636	-0.590178	-0.084079
C37	C	0.987332	-0.663004	-0.084083
C38	C	0.987309	-0.663001	0.084063
C39	C	0.988605	-0.590175	0.084064
C40	C	0.989272	-0.553768	-0.000010
C41	C	1.145503	0.090309	0.000007
C42	C	1.238747	0.091675	0.000002
C43	C	0.985306	0.223077	-0.000008
C44	C	0.986676	0.300585	-0.000017
N45	N	0.991887	0.095448	0.219480
N46	N	0.991942	0.095398	-0.219469
C47	C	0.932060	0.145000	0.469128
C48	C	1.007911	0.158542	0.530930
C49	C	0.991907	0.095432	0.408642
C50	C	0.916076	0.081906	0.530933
C51	C	0.991920	0.095417	0.591363
C52	C	1.067796	0.109005	0.469083
C53	C	0.975911	0.032341	0.469081
C54	C	1.051817	0.045856	0.530856
C55	C	0.991898	0.095442	0.303381
C56	C	0.991937	0.095406	0.696622
H57	H	0.429586	0.155987	0.140327
N58	N	1.118928	-0.009682	0.566546
H59	H	1.149593	-0.034511	0.512459
H60	H	1.160423	0.013098	0.605999
H61	H	0.459520	-0.028034	0.000110
N62	N	0.986675	-0.702298	-0.174747
H63	H	1.038204	-0.738179	-0.178452
H64	H	0.934052	-0.726807	-0.178446
H65	H	0.554075	0.034945	0.140470
H66	H	0.554240	0.034914	-0.140296
H67	H	0.986769	-0.692649	0.152511
H68	H	0.851941	0.070473	0.558103
N69	N	0.529494	0.237174	0.000069
H70	H	0.505148	0.261893	0.057561
H71	H	0.592782	0.237532	-0.000560
N72	N	0.420108	0.164973	-0.161102
H73	H	0.432259	0.215467	-0.161015
H74	H	0.445199	0.140687	-0.218548
N75	N	1.025841	0.229206	0.566924
H76	H	1.026257	0.228534	0.636951
H77	H	1.082672	0.239766	0.543393
H78	H	0.997060	-0.116504	-0.152507
N79	N	0.994536	-0.258250	-0.174730
H80	H	0.995152	-0.224135	-0.227989
H81	H	1.046062	-0.294134	-0.178387
H82	H	0.996986	-0.116496	0.152554
N83	N	0.994487	-0.258238	0.174761
H84	H	0.993580	-0.309899	0.162002
H85	H	1.046770	-0.251171	0.211469
N86	N	0.865087	0.200560	0.433207
H87	H	0.807908	0.190836	0.456673
H88	H	0.877360	0.248173	0.455711
H89	H	0.989175	-0.560533	-0.152537
H90	H	0.989123	-0.560531	0.152521
N91	N	1.152772	0.124231	0.433259
H92	H	1.152236	0.124163	0.363228
H93	H	1.164949	0.171709	0.456371
H94	H	0.962346	-0.020990	0.441893
