data_functionalizedCrystal
_audit_creation_method	'MofGen! by Chris Wilmer'
_symmetry_space_group_name_H-M	'P1'
_symmetry_Int_Tables_number	1
_symmetry_cell_setting	triclinic
loop_
_symmetry_equiv_pos_as_xyz
  x,y,z
_cell_length_a	12.759401
_cell_length_b	18.101389
_cell_length_c	12.759400
_cell_angle_alpha	89.985079
_cell_angle_beta	90.014999
_cell_angle_gamma	89.984066
loop_
_atom_site_label
_atom_site_type_symbol
_atom_site_fract_x
_atom_site_fract_y
_atom_site_fract_z
Zn1	Zn	1.606228	-0.418691	-0.418365
Zn2	Zn	1.606131	-0.294857	-0.594032
Zn3	Zn	1.430539	-0.294870	-0.418369
Zn4	Zn	1.430519	-0.418664	-0.594003
O5	O	1.518354	-0.356770	-0.506192
O6	O	1.753237	-0.402270	-0.441677
O7	O	1.582806	-0.191226	-0.570745
O8	O	1.453893	-0.311312	-0.271348
O9	O	1.753165	-0.311290	-0.570740
O10	O	1.582971	-0.402283	-0.271344
O11	O	1.453799	-0.191236	-0.441686
O12	O	1.283515	-0.311286	-0.441658
O13	O	1.453860	-0.522300	-0.570690
O14	O	1.283501	-0.402236	-0.570695
O15	O	1.582953	-0.522320	-0.441649
O16	O	1.582787	-0.311263	-0.741050
O17	O	1.453766	-0.402224	-0.741028
C18	C	1.245387	-0.356760	-0.506174
C19	C	1.128610	-0.356773	-0.506192
C20	C	1.073786	-0.404220	-0.439111
C21	C	0.964062	-0.404224	-0.439121
C22	C	0.963996	-0.309334	-0.573304
C23	C	1.073718	-0.309326	-0.573287
C24	C	1.518415	-0.549932	-0.506166
C25	C	1.518441	-0.632247	-0.506155
C26	C	1.518502	-0.931338	-0.505958
C27	C	1.437001	-0.900000	-0.586889
C28	C	1.437221	-0.814382	-0.587264
C29	C	1.518471	-0.782955	-0.506055
C30	C	1.629172	-0.814051	-0.536108
C31	C	1.628718	-0.899696	-0.536639
C32	C	1.490265	-0.899760	-0.394794
C33	C	1.487802	-0.814109	-0.395436
C34	C	1.518460	-0.699096	-0.506109
C35	C	1.518520	-1.015197	-0.505907
C36	C	1.792388	-0.356781	-0.506211
C37	C	1.909164	-0.356786	-0.506219
C38	C	1.518293	-0.356755	-0.779160
C39	C	1.518362	-0.356773	-0.895936
C40	C	1.518354	-0.164360	-0.506143
C41	C	1.518532	-0.082046	-0.505858
C42	C	1.585682	-0.309486	-1.060506
C43	C	1.585619	-0.309463	-0.950782
C44	C	1.451156	-0.404105	-0.950821
C45	C	1.451215	-0.404124	-1.060543
C46	C	1.518445	-0.356802	-0.232159
C47	C	1.518484	-0.356816	-0.115382
H48	H	0.919429	-0.442859	-0.384495
Cl49	Cl	1.142790	-0.463863	-0.354758
H50	H	1.640337	-0.270923	-0.906104
H51	H	1.396389	-0.442623	-0.906160
H52	H	1.396489	-0.442666	-1.105225
H53	H	0.919290	-0.270706	-0.627931
Cl54	Cl	1.465438	-0.933289	-0.713315
Cl55	Cl	1.142646	-0.249667	-0.657614
H56	H	1.355133	-0.793357	-0.568458
H57	H	1.354666	-0.920593	-0.568275
H58	H	1.640457	-0.270965	-1.105153
Cl59	Cl	1.466068	-0.782755	-0.714467
H60	H	1.406336	-0.793785	-0.372774
H61	H	1.652652	-0.919680	-0.617901
Cl62	Cl	1.725596	-0.931707	-0.449523
H63	H	1.653519	-0.792609	-0.616506
Cl64	Cl	1.725451	-0.782628	-0.447961
H65	H	1.410943	-0.921353	-0.367414
H66	H	1.542830	-0.792717	-0.331938
H67	H	1.549627	-0.920027	-0.334497
