data_functionalizedCrystal
_audit_creation_method	'MofGen! by Chris Wilmer'
_symmetry_space_group_name_H-M	'P1'
_symmetry_Int_Tables_number	1
_symmetry_cell_setting	triclinic
loop_
_symmetry_equiv_pos_as_xyz
  x,y,z
_cell_length_a	12.645331
_cell_length_b	21.295417
_cell_length_c	12.645323
_cell_angle_alpha	89.966008
_cell_angle_beta	89.977324
_cell_angle_gamma	90.029485
loop_
_atom_site_label
_atom_site_type_symbol
_atom_site_fract_x
_atom_site_fract_y
_atom_site_fract_z
Zn1	Zn	1.620637	-0.250621	-0.599379
Zn2	Zn	1.953970	0.082712	-0.266046
Zn3	Zn	2.287303	0.416045	0.067288
Zn4	Zn	1.620479	-0.355896	-0.422091
Zn5	Zn	1.953812	-0.022563	-0.088758
Zn6	Zn	2.287146	0.310771	0.244576
Zn7	Zn	1.443351	-0.250643	-0.422123
Zn8	Zn	1.776685	0.082691	-0.088790
Zn9	Zn	2.110018	0.416024	0.244543
Zn10	Zn	1.443294	-0.355855	-0.599306
Zn11	Zn	1.776627	-0.022521	-0.265973
Zn12	Zn	2.109960	0.310812	0.067360
O13	O	1.531940	-0.303254	-0.510725
O14	O	1.865273	0.030080	-0.177392
O15	O	2.198607	0.363413	0.155942
O16	O	1.768963	-0.264595	-0.575878
O17	O	2.102296	0.068739	-0.242545
O18	O	2.435630	0.402072	0.090788
O19	O	1.596941	-0.341960	-0.273748
O20	O	1.930274	-0.008627	0.059586
O21	O	2.263607	0.324707	0.392919
O22	O	1.466959	-0.162550	-0.445681
O23	O	1.800292	0.170783	-0.112347
O24	O	2.133626	0.504116	0.220986
O25	O	1.768847	-0.341939	-0.445625
O26	O	2.102180	-0.008606	-0.112292
O27	O	2.435514	0.324727	0.221041
O28	O	1.597210	-0.162535	-0.575910
O29	O	1.930543	0.170799	-0.242576
O30	O	2.263877	0.504132	0.090757
O31	O	1.466806	-0.264631	-0.273772
O32	O	1.800139	0.068702	0.059562
O33	O	2.133473	0.402036	0.392895
O34	O	1.294996	-0.264591	-0.445610
O35	O	1.628330	0.068742	-0.112277
O36	O	1.961663	0.402076	0.221056
O37	O	1.466860	-0.341869	-0.747663
O38	O	1.800194	-0.008536	-0.414330
O39	O	2.133527	0.324797	-0.080997
O40	O	1.294954	-0.341890	-0.575786
O41	O	1.628287	-0.008557	-0.242452
O42	O	1.961621	0.324777	0.090881
O43	O	1.597154	-0.264555	-0.747717
O44	O	1.930487	0.068779	-0.414383
O45	O	2.263820	0.402112	-0.081050
O46	O	1.596884	-0.443980	-0.445555
O47	O	1.930218	-0.110647	-0.112221
O48	O	2.263551	0.222687	0.221112
O49	O	1.466707	-0.443950	-0.575754
O50	O	1.800041	-0.110616	-0.242421
O51	O	2.133374	0.222717	0.090912
C52	C	1.256510	-0.303239	-0.510694
C53	C	1.589844	0.030095	-0.177361
C54	C	1.923177	0.363428	0.155972
C55	C	1.138680	-0.303247	-0.510706
C56	C	1.472014	0.030086	-0.177373
C57	C	1.805347	0.363419	0.155960
C58	C	0.971108	-0.254395	-0.429265
C59	C	1.304441	0.078938	-0.095931
C60	C	1.637774	0.412272	0.237402
C61	C	1.093667	-0.254521	-0.428906
C62	C	1.427001	0.078812	-0.095573
C63	C	1.760334	0.412145	0.237761
C64	C	1.094135	-0.369560	-0.480174
C65	C	1.427468	-0.036227	-0.146840
C66	C	1.760802	0.297107	0.186493
C67	C	0.971537	-0.369293	-0.479618
C68	C	1.304870	-0.035960	-0.146285
C69	C	1.638203	0.297373	0.187049
C70	C	0.971537	-0.286418	-0.622995
C71	C	1.304871	0.046915	-0.289661
C72	C	1.638204	0.380248	0.043672
C73	C	1.094144	-0.284937	-0.622372
C74	C	1.427477	0.048396	-0.289038
C75	C	1.760810	0.381730	0.044295
C76	C	1.531801	-0.466805	-0.510666
C77	C	1.865135	-0.133472	-0.177333
C78	C	2.198468	0.199861	0.156000
C79	C	1.531839	-0.536773	-0.510677
C80	C	1.865172	-0.203440	-0.177343
C81	C	2.198505	0.129893	0.155990
C82	C	1.599682	-0.569635	-0.442951
C83	C	1.933016	-0.236302	-0.109618
C84	C	2.266349	0.097032	0.223715
C85	C	1.599732	-0.635377	-0.442975
C86	C	1.933065	-0.302044	-0.109642
C87	C	2.266399	0.031289	0.223692
C88	C	1.531919	-0.668256	-0.510713
C89	C	1.865252	-0.334923	-0.177380
C90	C	2.198586	-0.001589	0.155954
C91	C	1.464071	-0.635386	-0.578452
C92	C	1.797404	-0.302053	-0.245118
C93	C	2.130738	0.031280	0.088215
C94	C	1.464031	-0.569645	-0.578433
C95	C	1.797364	-0.236312	-0.245100
C96	C	2.130697	0.097021	0.088233
N97	N	1.439183	-0.771521	-0.518784
N98	N	1.772516	-0.438187	-0.185451
N99	N	2.105850	-0.104854	0.147882
N100	N	1.439224	-0.833972	-0.518796
N101	N	1.772558	-0.500639	-0.185462
N102	N	2.105891	-0.167305	0.147871
C103	C	1.532038	-0.866331	-0.510774
C104	C	1.865371	-0.532997	-0.177441
C105	C	2.198705	-0.199664	0.155893
N106	N	1.624811	-0.833879	-0.502720
N107	N	1.958144	-0.500545	-0.169386
N108	N	2.291477	-0.167212	0.163947
N109	N	1.624768	-0.771421	-0.502703
N110	N	1.958102	-0.438088	-0.169370
N111	N	2.291435	-0.104755	0.163964
C112	C	1.531956	-0.739541	-0.510741
C113	C	1.865289	-0.406208	-0.177408
C114	C	2.198622	-0.072875	0.155926
C115	C	1.599941	-0.970478	-0.443071
C116	C	1.933274	-0.637144	-0.109737
C117	C	2.266608	-0.303811	0.223596
C118	C	1.599993	-1.036221	-0.443102
C119	C	1.933326	-0.702888	-0.109769
C120	C	2.266659	-0.369555	0.223565
C121	C	1.464322	-1.036229	-0.578573
C122	C	1.797655	-0.702896	-0.245240
C123	C	2.130989	-0.369562	0.088094
C124	C	1.464280	-0.970487	-0.578547
C125	C	1.797613	-0.637153	-0.245214
C126	C	2.130947	-0.303820	0.088119
C127	C	1.532088	-0.937615	-0.510791
C128	C	1.865421	-0.604282	-0.177457
C129	C	2.198755	-0.270948	0.155876
C130	C	1.808445	-0.303269	-0.510756
C131	C	2.141779	0.030064	-0.177423
C132	C	2.475112	0.363398	0.155910
C133	C	1.926275	-0.303276	-0.510770
C134	C	2.259609	0.030058	-0.177436
C135	C	2.592942	0.363391	0.155897
C136	C	1.532018	-0.303205	-0.787230
C137	C	1.865352	0.030128	-0.453897
C138	C	2.198685	0.363462	-0.120564
C139	C	1.532052	-0.303184	-0.905061
C140	C	1.865385	0.030149	-0.571727
C141	C	2.198718	0.363482	-0.238394
C142	C	1.532109	-0.139063	-0.510807
C143	C	1.865442	0.194270	-0.177474
C144	C	2.198775	0.527603	0.155860
C145	C	1.532180	-0.069095	-0.510842
C146	C	1.865514	0.264238	-0.177509
C147	C	2.198847	0.597571	0.155825
C148	C	1.449831	-0.351594	-1.072591
C149	C	1.783165	-0.018260	-0.739258
C150	C	2.116498	0.315073	-0.405924
C151	C	1.450046	-0.351833	-0.950031
C152	C	1.783380	-0.018500	-0.616698
C153	C	2.116713	0.314833	-0.283364
C154	C	1.643744	-0.321189	-0.949576
C155	C	1.977078	0.012145	-0.616242
C156	C	2.310411	0.345478	-0.282909
C157	C	1.643293	-0.321492	-1.072174
C158	C	1.976627	0.011841	-0.738840
C159	C	2.309960	0.345174	-0.405507
C160	C	1.503635	-0.236500	-1.072276
C161	C	1.836969	0.096834	-0.738943
C162	C	2.170302	0.430167	-0.405610
C163	C	1.501143	-0.236899	-0.949670
C164	C	1.834476	0.096434	-0.616336
C165	C	2.167810	0.429767	-0.283003
C166	C	1.531923	-0.303257	-0.235295
C167	C	1.865257	0.030077	0.098038
C168	C	2.198590	0.363410	0.431372
C169	C	1.532096	-0.303100	-0.117466
C170	C	1.865429	0.030233	0.215868
C171	C	2.198762	0.363567	0.549201
H172	H	0.940256	-0.265413	-0.346591
H173	H	1.273589	0.067920	-0.013258
H174	H	1.606922	0.401253	0.320076
H175	H	1.706680	-0.286986	-0.920449
H176	H	2.040013	0.046348	-0.587116
H177	H	2.373346	0.379681	-0.253783
H178	H	0.941878	-0.406946	-0.536393
H179	H	1.275211	-0.073613	-0.203060
H180	H	1.608545	0.259721	0.130274
F181	F	1.341247	-0.337006	-1.111109
F182	F	1.674580	-0.003673	-0.777775
F183	F	2.007914	0.329660	-0.444442
H184	H	1.122941	-0.265663	-0.345743
H185	H	1.456275	0.067670	-0.012409
H186	H	1.789608	0.401003	0.320924
H187	H	1.408859	-0.662160	-0.633606
H188	H	1.742192	-0.328827	-0.300273
H189	H	2.075526	0.004506	0.033060
F190	F	0.932622	-0.189927	-0.454011
F191	F	1.265955	0.143407	-0.120677
F192	F	1.599289	0.476740	0.212656
F193	F	1.392066	-0.935512	-0.650627
F194	F	1.725400	-0.602178	-0.317293
F195	F	2.058733	-0.268845	0.016040
H196	H	1.123787	-0.205348	-0.448045
H197	H	1.457120	0.127985	-0.114712
H198	H	1.790453	0.461319	0.218621
H199	H	1.123266	-0.236138	-0.645395
H200	H	1.456599	0.097195	-0.312061
H201	H	1.789933	0.430528	0.021272
H202	H	1.667420	-0.370178	-1.100771
H203	H	2.000753	-0.036845	-0.767438
H204	H	2.334087	0.296488	-0.434105
H205	H	1.563553	-0.200370	-1.101300
H206	H	1.896886	0.132963	-0.767966
H207	H	2.230220	0.466296	-0.434633
H208	H	1.654898	-0.542873	-0.387782
H209	H	1.988231	-0.209539	-0.054449
H210	H	2.321565	0.123794	0.278884
H211	H	1.123290	-0.406953	-0.537674
H212	H	1.456624	-0.073620	-0.204341
H213	H	1.789957	0.259713	0.128993
F214	F	1.671942	-0.670358	-0.370889
F215	F	2.005276	-0.337025	-0.037555
F216	F	2.338609	-0.003691	0.295778
H217	H	0.942886	-0.383589	-0.397575
H218	H	1.276219	-0.050255	-0.064242
H219	H	1.609552	0.283078	0.269091
F220	F	1.392156	-1.071216	-0.650672
F221	F	1.725489	-0.737883	-0.317339
F222	F	2.058823	-0.404550	0.015995
H223	H	1.408783	-0.542889	-0.633585
H224	H	1.742117	-0.209556	-0.300251
H225	H	2.075450	0.123778	0.033082
F226	F	1.672107	-0.935491	-0.370959
F227	F	2.005440	-0.602157	-0.037625
F228	F	2.338773	-0.268824	0.295708
F229	F	1.675824	-0.384158	-0.909448
F230	F	2.009157	-0.050825	-0.576115
F231	F	2.342490	0.282508	-0.242782
F232	F	0.933643	-0.332953	-0.702372
F233	F	1.266976	0.000381	-0.369039
F234	F	1.600309	0.333714	-0.035706
F235	F	1.134192	-0.388568	-0.374088
F236	F	1.467526	-0.055234	-0.040754
F237	F	1.800859	0.278099	0.292579
H238	H	1.655246	-1.062976	-0.387954
H239	H	1.988579	-0.729643	-0.054621
H240	H	2.321912	-0.396309	0.278713
F241	F	1.341790	-0.337104	-0.910686
F242	F	1.675123	-0.003770	-0.577353
F243	F	2.008456	0.329563	-0.244020
F244	F	1.474096	-0.415719	-1.112918
F245	F	1.807429	-0.082385	-0.779584
F246	F	2.140763	0.250948	-0.446251
F247	F	1.474651	-0.416362	-0.911693
F248	F	1.807984	-0.083028	-0.578360
F249	F	2.141317	0.250305	-0.245027
H250	H	1.706664	-0.287705	-1.101861
H251	H	2.039997	0.045628	-0.768528
H252	H	2.373330	0.378961	-0.435195
H253	H	1.423608	-0.220088	-1.103185
H254	H	1.756942	0.113245	-0.769851
H255	H	2.090275	0.446578	-0.436518
H256	H	1.418947	-0.223321	-0.920574
H257	H	1.752281	0.110012	-0.587241
H258	H	2.085614	0.443345	-0.253907
F259	F	1.573748	-0.187177	-0.909671
F260	F	1.907082	0.146157	-0.576338
F261	F	2.240415	0.479490	-0.243005
H262	H	1.124789	-0.317942	-0.686348
H263	H	1.458122	0.015391	-0.353015
H264	H	1.791456	0.348724	-0.019681
H265	H	0.940659	-0.238907	-0.650759
H266	H	1.273992	0.094426	-0.317426
H267	H	1.607325	0.427759	0.015907
