data_functionalizedCrystal
_audit_creation_method	'MofGen! by Chris Wilmer'
_symmetry_space_group_name_H-M	'P1'
_symmetry_Int_Tables_number	1
_symmetry_cell_setting	triclinic
loop_
_symmetry_equiv_pos_as_xyz
  x,y,z
_cell_length_a	14.853567
_cell_length_b	10.654545
_cell_length_c	9.730223
_cell_angle_alpha	89.997167
_cell_angle_beta	90.006399
_cell_angle_gamma	95.940995
loop_
_atom_site_label
_atom_site_type_symbol
_atom_site_fract_x
_atom_site_fract_y
_atom_site_fract_z
O1	O	-0.126607	1.666527	-0.114283
O2	O	-0.138675	1.300922	-0.114289
O3	O	-0.001463	1.493491	-0.114270
O4	O	-0.263818	1.473959	-0.114302
O5	O	-0.001459	1.493478	0.114310
O6	O	-0.138671	1.300910	0.114291
O7	O	-0.126603	1.666515	0.114297
Zn8	Zn	-0.132636	1.483710	0.150586
Zn9	Zn	-0.132641	1.483727	-0.150578
O10	O	-0.263814	1.473947	0.114278
C11	C	-0.137788	1.254127	-0.000000
C12	C	-0.135139	1.114711	-0.000002
C13	C	-0.133890	1.049213	0.124598
C14	C	-0.131387	0.918220	0.124598
C15	C	-0.131385	0.918234	-0.124612
C16	C	-0.133882	1.049226	-0.124611
C17	C	-0.297410	1.474838	-0.000017
C18	C	-0.397508	1.477490	-0.000029
C19	C	-0.810712	1.603090	0.000023
C20	C	-0.830771	1.374315	0.000017
C21	C	-0.736724	1.371821	0.000004
C22	C	-0.679667	1.484964	0.000002
C23	C	-0.716656	1.600600	0.000014
C24	C	-0.699727	1.256187	0.000007
C25	C	-0.605675	1.253689	-0.000005
C26	C	-0.548616	1.366833	-0.000017
C27	C	-0.585611	1.482473	-0.000007
C28	C	-0.528553	1.595616	-0.000009
C29	C	-0.565546	1.711258	-0.000009
C30	C	-0.659597	1.713744	0.000002
C31	C	-0.454565	1.364347	-0.000027
C32	C	-0.434497	1.593126	-0.000018
C33	C	0.032132	1.492599	0.000021
C34	C	0.132230	1.489947	0.000025
C35	C	-0.127490	1.713310	0.000005
C36	C	-0.130138	1.852726	-0.000003
N37	N	-0.132632	1.483709	0.356122
N38	N	-0.132638	1.483739	-0.356115
C39	C	-0.071901	1.569007	0.428057
C40	C	-0.071901	1.569019	0.571940
C41	C	-0.193372	1.398431	0.571941
C42	C	-0.193367	1.398414	0.428060
H43	H	-0.130370	0.864897	0.226060
H44	H	-0.840837	1.697243	0.000017
C45	C	-0.260186	1.304620	0.651074
C46	C	-0.260252	1.304704	0.809336
C47	C	-0.327069	1.210892	0.888464
C48	C	-0.393821	1.116996	0.809330
C49	C	-0.393758	1.116908	0.651058
C50	C	-0.326940	1.210720	0.571930
H51	H	-0.210836	1.374215	0.867925
H52	H	-0.327116	1.210958	1.005628
H53	H	-0.443284	1.047551	0.867905
H54	H	-0.443174	1.047397	0.592470
H55	H	-0.326893	1.210654	0.454767
H56	H	-0.130362	0.864899	-0.226064
H57	H	-0.689726	1.807894	0.000038
C58	C	-0.893533	1.249865	0.000022
C59	C	-0.960967	1.220132	-0.118665
C60	C	-1.023734	1.095677	-0.118662
C61	C	-1.019069	1.000956	0.000027
C62	C	-0.951632	1.030687	0.118723
C63	C	-0.888865	1.155142	0.118721
H64	H	-0.964423	1.290252	-0.206534
H65	H	-1.073655	1.073669	-0.206529
H66	H	-1.065533	0.908828	0.000029
H67	H	-0.948176	0.960567	0.206592
H68	H	-0.838944	1.177150	0.206588
C69	C	-0.762493	1.131741	0.000012
C70	C	-0.829920	1.102006	-0.118683
C71	C	-0.892693	0.977557	-0.118681
C72	C	-0.888040	0.882842	0.000018
C73	C	-0.820610	0.912574	0.118722
C74	C	-0.757837	1.037024	0.118719
H75	H	-0.833367	1.172122	-0.206559
H76	H	-0.942608	0.955548	-0.206554
H77	H	-0.934508	0.790717	0.000020
H78	H	-0.817163	0.842459	0.206598
H79	H	-0.707922	1.059033	0.206593
H80	H	-0.134914	1.102527	0.226063
C81	C	-0.135256	1.121282	-0.261681
C82	C	-0.056766	1.117409	-0.364465
C83	C	-0.058136	1.189466	-0.501529
C84	C	-0.137996	1.265396	-0.535808
C85	C	-0.216493	1.269272	-0.433022
C86	C	-0.215123	1.197215	-0.295959
H87	H	0.002357	1.061199	-0.339091
H88	H	-0.000027	1.186596	-0.577617
H89	H	-0.139011	1.318737	-0.637271
H90	H	-0.275616	1.325483	-0.458396
H91	H	-0.273232	1.200085	-0.219870
C92	C	-0.371737	1.717588	-0.000020
C93	C	-0.376383	1.812295	0.118676
C94	C	-0.313623	1.936756	0.118674
C95	C	-0.246217	1.966511	-0.000024
C96	C	-0.241568	1.871801	-0.118729
C97	C	-0.304328	1.747340	-0.118727
H98	H	-0.426284	1.790271	0.206551
H99	H	-0.317065	2.006866	0.206547
H100	H	-0.199758	2.058644	-0.000026
H101	H	-0.191667	1.893825	-0.206604
H102	H	-0.300886	1.677230	-0.206600
H103	H	-0.519078	1.803379	-0.000002
H104	H	-0.575564	1.159526	-0.000009
H105	H	-0.424449	1.270193	-0.000007
H106	H	-0.022446	1.638457	0.369488
H107	H	-0.022447	1.638475	0.630505
H108	H	-0.242822	1.328948	0.369487
