data_functionalizedCrystal
_audit_creation_method	'MofGen! by Chris Wilmer'
_symmetry_space_group_name_H-M	'P1'
_symmetry_Int_Tables_number	1
_symmetry_cell_setting	triclinic
loop_
_symmetry_equiv_pos_as_xyz
  x,y,z
_cell_length_a	16.109301
_cell_length_b	17.038272
_cell_length_c	14.586319
_cell_angle_alpha	89.995924
_cell_angle_beta	89.999213
_cell_angle_gamma	87.286518
loop_
_atom_site_label
_atom_site_type_symbol
_atom_site_fract_x
_atom_site_fract_y
_atom_site_fract_z
O1	O	1.110268	0.100495	-0.076183
O2	O	1.610268	0.600495	0.423817
O3	O	0.869094	0.113001	-0.076198
O4	O	1.369094	0.613001	0.423802
O5	O	0.988248	-0.007067	-0.076183
O6	O	1.488248	0.492933	0.423817
O7	O	0.991114	0.220564	-0.076198
O8	O	1.491114	0.720564	0.423802
O9	O	0.988239	-0.007069	0.076298
O10	O	1.488239	0.492931	0.576298
O11	O	0.869085	0.113000	0.076283
O12	O	1.369085	0.613000	0.576283
O13	O	1.110259	0.100493	0.076298
O14	O	1.610259	0.600493	0.576298
Cu15	Cu	0.989671	0.106746	0.090213
Cu16	Cu	1.489671	0.606746	0.590213
Cu17	Cu	0.989682	0.106748	-0.090113
Cu18	Cu	1.489682	0.606748	0.409887
O19	O	0.991105	0.220562	0.076283
O20	O	1.491105	0.720562	0.576283
C21	C	0.838079	0.112494	0.000041
C22	C	1.338079	0.612494	0.500041
C23	C	0.745676	0.110975	0.000035
C24	C	1.245676	0.610975	0.500035
C25	C	0.528212	0.178690	0.000042
C26	C	1.028212	0.678690	0.500042
C27	C	0.441390	0.177257	0.000048
C28	C	0.941390	0.677257	0.500048
C29	C	0.451147	0.034799	0.000053
C30	C	0.951147	0.534799	0.500053
C31	C	0.537968	0.036233	0.000054
C32	C	1.037968	0.536233	0.500054
C33	C	0.576498	0.108181	0.000043
C34	C	1.076498	0.608181	0.500043
C35	C	0.402855	0.105314	0.000049
C36	C	0.902855	0.605314	0.500049
C37	C	0.308719	0.103759	0.000055
C38	C	0.808719	0.603759	0.500055
C39	C	0.670640	0.109736	0.000039
C40	C	1.170640	0.609736	0.500039
C41	C	0.985636	-0.036196	0.000057
C42	C	1.485636	0.463804	0.500057
C43	C	0.977857	-0.122989	0.000056
C44	C	1.477857	0.377011	0.500056
C45	C	1.049277	-0.173104	0.000062
C46	C	1.549277	0.326896	0.500062
C47	C	1.041963	-0.254654	0.000052
C48	C	1.541963	0.245346	0.500052
C49	C	0.963228	-0.286089	0.000044
C50	C	1.463228	0.213911	0.500044
C51	C	0.891802	-0.235967	0.000036
C52	C	1.391802	0.264033	0.500036
C53	C	0.899116	-0.154418	0.000039
C54	C	1.399116	0.345582	0.500039
C55	C	0.937385	-0.531846	0.000030
C56	C	1.437385	-0.031846	0.500030
C57	C	0.930076	-0.613402	0.000031
C58	C	1.430076	-0.113402	0.500031
C59	C	1.080238	-0.632083	0.000045
C60	C	1.580238	-0.132083	0.500045
C61	C	1.087546	-0.550532	0.000053
C62	C	1.587546	-0.050532	0.500053
C63	C	1.016120	-0.500418	0.000040
C64	C	1.516120	-0.000418	0.500040
C65	C	0.955749	-0.369446	0.000038
C66	C	1.455749	0.130554	0.500038
C67	C	1.023599	-0.417062	0.000040
C68	C	1.523599	0.082938	0.500040
C69	C	1.141274	0.101001	0.000057
C70	C	1.641274	0.601001	0.500057
C71	C	1.233677	0.102519	0.000057
C72	C	1.733677	0.602519	0.500057
C73	C	0.993717	0.249691	0.000041
C74	C	1.493717	0.749691	0.500041
C75	C	1.001496	0.336484	0.000036
C76	C	1.501496	0.836484	0.500036
N77	N	0.989670	0.106744	0.217045
N78	N	1.489670	0.606744	0.717045
N79	N	0.989689	0.106744	-0.216945
N80	N	1.489689	0.606744	0.283055
C81	C	1.042451	0.053596	0.452058
C82	C	1.542451	0.553596	0.952058
C83	C	1.042453	0.053594	0.548039
C84	C	1.542453	0.553594	1.048039
C85	C	0.936902	0.159895	0.548036
C86	C	1.436902	0.659895	1.048036
C87	C	0.936896	0.159893	0.452056
C88	C	1.436896	0.659893	0.952056
C89	C	0.989675	0.106744	0.404070
C90	C	1.489675	0.606744	0.904070
C91	C	0.989684	0.106744	0.596030
C92	C	1.489684	0.606744	1.096030
C93	C	0.989686	0.106743	0.700098
C94	C	1.489686	0.606743	1.200098
C95	C	0.989672	0.106744	0.299996
C96	C	1.489672	0.606744	0.799996
H97	H	0.419765	-0.023778	0.000067
H98	H	0.919765	0.476222	0.500067
H99	H	0.893916	0.203173	0.412982
H100	H	1.393916	0.703173	0.912982
C101	C	0.570592	0.257834	0.000042
C102	C	1.070592	0.757834	0.500042
N103	N	0.602510	0.317448	0.000047
N104	N	1.102510	0.817448	0.500047
C105	C	0.388279	0.254822	0.000051
C106	C	0.888279	0.754822	0.500051
N107	N	0.348277	0.313248	0.000055
N108	N	0.848277	0.813248	0.500055
H109	H	1.085425	0.010318	0.412989
H110	H	1.585425	0.510318	0.912989
H111	H	0.879224	-0.491053	0.000020
H112	H	1.379224	0.008947	0.500020
C113	C	1.100503	-0.004880	0.600822
C114	C	1.600503	0.495120	1.100822
N115	N	1.144226	-0.048928	0.640577
N116	N	1.644226	0.451072	1.140577
C117	C	0.591085	-0.041336	0.000056
C118	C	1.091085	0.458664	0.500056
N119	N	0.631094	-0.099759	0.000059
N120	N	1.131094	0.400241	0.500059
H121	H	1.100122	-0.295455	0.000059
H122	H	1.600122	0.204545	0.500059
C123	C	1.135893	-0.138535	0.000070
C124	C	1.635893	0.361465	0.500070
N125	N	1.201135	-0.112500	0.000073
N126	N	1.701135	0.387500	0.500073
H127	H	1.151661	-0.524945	0.000059
H128	H	1.651661	-0.024945	0.500059
H129	H	0.893932	0.203169	0.587116
H130	H	1.393932	0.703169	1.087116
C131	C	1.158801	-0.687214	0.000050
C132	C	1.658801	-0.187214	0.500050
N133	N	1.217978	-0.728740	0.000050
N134	N	1.717978	-0.228740	0.500050
H135	H	0.865956	-0.638991	0.000039
H136	H	1.365956	-0.138991	0.500039
H137	H	0.827693	-0.261567	0.000024
H138	H	1.327693	0.238433	0.500024
C139	C	0.820548	-0.099292	0.000035
C140	C	1.320548	0.400708	0.500035
N141	N	0.761367	-0.057771	0.000030
N142	N	1.261367	0.442229	0.500030
C143	C	1.110206	-0.382481	0.000053
C144	C	1.610206	0.117519	0.500053
N145	N	1.175439	-0.356429	0.000069
N146	N	1.675439	0.143571	0.500069
C147	C	0.869142	-0.404032	0.000049
C148	C	1.369142	0.095968	0.500049
N149	N	0.803909	-0.430085	0.000060
N150	N	1.303909	0.069915	0.500060
