data_functionalizedCrystal
_audit_creation_method	'MofGen! by Chris Wilmer'
_symmetry_space_group_name_H-M	'P1'
_symmetry_Int_Tables_number	1
_symmetry_cell_setting	triclinic
loop_
_symmetry_equiv_pos_as_xyz
  x,y,z
_cell_length_a	19.188930
_cell_length_b	19.188930
_cell_length_c	18.266242
_cell_angle_alpha	89.988525
_cell_angle_beta	89.977082
_cell_angle_gamma	83.144779
loop_
_atom_site_label
_atom_site_type_symbol
_atom_site_fract_x
_atom_site_fract_y
_atom_site_fract_z
O1	O	0.926149	0.087169	-0.061124
O2	O	0.722838	0.098903	-0.061075
O3	O	0.830361	-0.008620	-0.061087
O4	O	0.818627	0.194691	-0.061113
O5	O	0.830343	-0.008625	0.060675
O6	O	0.722820	0.098897	0.060687
O7	O	0.926131	0.087163	0.060638
Zn8	Zn	0.824473	0.093029	0.079994
Zn9	Zn	0.824497	0.093037	-0.080432
O10	O	0.818608	0.194686	0.060649
C11	C	0.696818	0.098520	-0.000188
C12	C	0.619313	0.097380	-0.000169
C13	C	0.574389	0.160470	-0.000188
C14	C	0.501566	0.159399	-0.000196
C15	C	0.473669	0.095233	-0.000199
C16	C	0.518603	0.032133	-0.000175
C17	C	0.591425	0.033207	-0.000160
N18	N	0.365695	0.046188	-0.041663
N19	N	0.296516	0.045172	-0.041679
C20	C	0.254260	0.091994	-0.000243
N21	N	0.283795	0.139881	0.041200
N22	N	0.352980	0.140899	0.041213
C23	C	0.394707	0.094062	-0.000215
C24	C	0.130372	0.153928	-0.000270
C25	C	0.057547	0.152853	-0.000274
C26	C	0.074586	0.025586	-0.000261
C27	C	0.147409	0.026662	-0.000250
C28	C	0.175298	0.090835	-0.000258
C29	C	0.829972	-0.034634	-0.000204
C30	C	0.828831	-0.112138	-0.000197
C31	C	0.891922	-0.157062	-0.000209
C32	C	0.890850	-0.229886	-0.000220
C33	C	0.826684	-0.257782	-0.000206
C34	C	0.763585	-0.212849	-0.000198
C35	C	0.764658	-0.140026	-0.000194
N36	N	0.777631	-0.365789	0.041244
N37	N	0.776615	-0.434968	0.041242
C38	C	0.823446	-0.477191	-0.000220
N39	N	0.871341	-0.447624	-0.041669
N40	N	0.872359	-0.378439	-0.041664
C41	C	0.825513	-0.336745	-0.000210
C42	C	0.885379	-0.601079	-0.000245
C43	C	0.884305	-0.673904	-0.000261
C44	C	0.757038	-0.656865	-0.000231
C45	C	0.758114	-0.584042	-0.000222
C46	C	0.822287	-0.556154	-0.000226
C47	C	0.952151	0.087546	-0.000252
C48	C	1.029656	0.088687	-0.000276
C49	C	0.818997	0.220700	-0.000236
C50	C	0.820138	0.298204	-0.000247
N51	N	0.824461	0.093024	0.189481
N52	N	0.824513	0.093037	-0.189919
C53	C	0.872088	0.045436	0.227785
C54	C	0.872092	0.045433	0.304430
C55	C	0.824477	0.093030	0.342768
C56	C	0.776841	0.140621	0.304455
C57	C	0.776834	0.140618	0.227812
N58	N	0.815401	0.154837	0.463094
N59	N	0.815413	0.154838	0.535902
C60	C	0.824496	0.093040	0.573691
N61	N	0.833582	0.031239	0.535920
N62	N	0.833574	0.031240	0.463106
C63	C	0.824480	0.093038	0.425875
C64	C	0.872131	0.045444	0.695101
C65	C	0.872130	0.045440	0.771748
C66	C	0.776882	0.140634	0.771772
C67	C	0.776879	0.140632	0.695127
C68	C	0.824507	0.093038	0.656796
H69	H	0.495885	-0.020111	-0.000188
O70	O	0.730531	0.186802	0.808971
C71	C	0.609008	0.228043	0.832437
C72	C	0.661428	0.175710	0.790273
H73	H	0.553127	0.219103	0.817324
H74	H	0.617131	0.219872	0.893805
H75	H	0.617967	0.283937	0.817357
H76	H	0.652500	0.119795	0.805291
H77	H	0.653293	0.183942	0.728915
H78	H	0.704792	-0.679578	-0.000222
O79	O	0.013935	0.214163	-0.000422
C80	C	-0.022841	0.322623	-0.063508
C81	C	0.026578	0.253208	-0.063439
H82	H	-0.012627	0.354218	-0.114444
H83	H	-0.079695	0.310879	-0.063560
H84	H	-0.012753	0.354186	-0.012532
H85	H	0.016553	0.221612	-0.114406
H86	H	0.083415	0.265002	-0.063348
H87	H	0.942228	-0.266470	-0.000233
H88	H	0.738100	0.179386	0.663938
H89	H	0.628003	-0.018171	-0.000145
O90	O	0.947668	-0.573898	-0.000355
C91	C	1.022760	-0.501580	-0.063471
C92	C	0.952188	-0.532301	-0.063427
H93	H	1.026443	-0.467954	-0.114467
H94	H	1.026448	-0.467881	-0.012546
H95	H	1.067660	-0.546211	-0.063453
H96	H	0.907247	-0.487715	-0.063471
H97	H	0.948560	-0.566019	-0.114348
O98	O	0.730520	0.186882	0.341580
C99	C	0.636070	0.281322	0.333517
C100	C	0.688486	0.228960	0.291383
H101	H	0.602082	0.315365	0.292951
H102	H	0.601244	0.251298	0.369406
H103	H	0.666119	0.316100	0.369393
H104	H	0.658494	0.194169	0.255467
H105	H	0.723312	0.259028	0.255540
H106	H	0.910911	0.006685	0.802935
H107	H	0.153080	0.206181	-0.000267
H108	H	0.051874	-0.026659	-0.000309
H109	H	0.935683	-0.710481	-0.000274
O110	O	0.918313	-0.000779	0.657757
C111	C	0.933538	-0.096131	0.571193
C112	C	0.881147	-0.043839	0.613440
H113	H	0.903510	-0.130968	0.535364
H114	H	0.968277	-0.066049	0.535262
H115	H	0.967621	-0.130122	0.611724
H116	H	0.847018	-0.009834	0.572961
H117	H	0.846457	-0.073963	0.649382
H118	H	0.183988	-0.024713	-0.000238
H119	H	0.464982	0.210776	-0.000210
O120	O	0.601363	0.222867	-0.000156
C121	C	0.576774	0.348982	-0.000215
C122	C	0.546132	0.278369	-0.000238
H123	H	0.532135	0.393874	-0.000297
H124	H	0.610385	0.352713	0.050762
H125	H	0.610497	0.352632	-0.051152
H126	H	0.512378	0.274671	0.050665
H127	H	0.512561	0.274668	-0.051249
H128	H	0.944176	-0.134360	-0.000214
H129	H	0.706738	-0.547464	-0.000208
H130	H	0.711340	-0.235567	-0.000187
O131	O	0.703305	-0.096483	-0.000146
C132	C	0.576962	-0.087268	-0.000165
C133	C	0.646393	-0.136662	-0.000204
H134	H	0.530931	-0.119732	-0.000227
H135	H	0.574227	-0.052775	0.050809
H136	H	0.574332	-0.052720	-0.051105
H137	H	0.649070	-0.171253	0.050703
H138	H	0.649100	-0.171106	-0.051211
O139	O	0.918373	-0.000868	0.190666
C140	C	1.012874	-0.095256	0.198734
C141	C	0.960485	-0.042864	0.240865
H142	H	1.046945	-0.129214	0.239301
H143	H	0.982873	-0.130113	0.162899
H144	H	1.047622	-0.065186	0.162803
H145	H	0.925724	-0.072877	0.276835
H146	H	0.990530	-0.008007	0.276653
O147	O	0.918263	-0.000862	0.341685
C148	C	0.933434	-0.096211	0.428282
C149	C	0.881070	-0.043835	0.386125
H150	H	0.903383	-0.130959	0.464233
H151	H	0.967465	-0.130282	0.387758
H152	H	0.968226	-0.066128	0.464104
H153	H	0.846232	-0.073862	0.350301
H154	H	0.847088	-0.009765	0.426688
H155	H	0.738049	0.179371	0.196624
