data_functionalizedCrystal
_audit_creation_method	'MofGen! by Chris Wilmer'
_symmetry_space_group_name_H-M	'P1'
_symmetry_Int_Tables_number	1
_symmetry_cell_setting	triclinic
loop_
_symmetry_equiv_pos_as_xyz
  x,y,z
_cell_length_a	13.897449
_cell_length_b	13.897447
_cell_length_c	12.759393
_cell_angle_alpha	90.031000
_cell_angle_beta	90.024249
_cell_angle_gamma	90.020357
loop_
_atom_site_label
_atom_site_type_symbol
_atom_site_fract_x
_atom_site_fract_y
_atom_site_fract_z
Zn1	Zn	1.474698	-0.383947	0.594109
Zn2	Zn	1.474585	-0.545273	0.418428
Zn3	Zn	1.313385	-0.383996	0.418434
Zn4	Zn	1.313364	-0.545204	0.594055
O5	O	1.394008	-0.464605	0.506257
O6	O	1.609665	-0.405356	0.570825
O7	O	1.453163	-0.523929	0.271408
O8	O	1.334840	-0.249008	0.441763
O9	O	1.609582	-0.523881	0.441752
O10	O	1.453356	-0.248972	0.570831
O11	O	1.334730	-0.405440	0.271412
O12	O	1.178401	-0.405372	0.441711
O13	O	1.334804	-0.523763	0.741083
O14	O	1.178385	-0.523811	0.570738
O15	O	1.453336	-0.405288	0.741123
O16	O	1.453142	-0.680246	0.441700
O17	O	1.334694	-0.680195	0.570732
C18	C	1.143394	-0.464590	0.506220
C19	C	1.036180	-0.464607	0.506229
C20	C	1.393930	-0.715219	0.506232
C21	C	1.393984	-0.822433	0.506257
C22	C	0.949110	-0.464610	0.506247
C23	C	0.839878	-0.464617	0.506279
C24	C	1.394031	-0.909503	0.506281
C25	C	1.394099	-1.018736	0.506308
C26	C	1.645601	-0.464621	0.506294
C27	C	1.752815	-0.464627	0.506310
C28	C	1.394080	-0.464513	0.780290
C29	C	1.394111	-0.464473	0.897067
C30	C	1.394113	-0.213012	0.506304
C31	C	1.394158	-0.105798	0.506324
C32	C	1.393992	-0.464628	0.233289
C33	C	1.394148	-0.464395	0.116513
C34	C	1.455835	-0.402773	0.951951
C35	C	1.455851	-0.402732	1.061675
C36	C	1.332417	-0.526098	1.061621
C37	C	1.332397	-0.526134	0.951899
C38	C	1.490393	-0.288926	1.211657
C39	C	1.552132	-0.227235	1.266545
C40	C	1.646252	-0.212445	1.230960
C41	C	1.678651	-0.259360	1.140488
C42	C	1.616917	-0.321058	1.085605
C43	C	1.522784	-0.335830	1.121189
C44	C	1.297865	-0.639941	0.801915
C45	C	1.236135	-0.701645	0.747031
C46	C	1.142014	-0.716445	0.782614
C47	C	1.109618	-0.669546	0.873089
C48	C	1.171348	-0.607842	0.927974
C49	C	1.265468	-0.593041	0.892383
H50	H	1.643298	-0.359259	1.011948
H51	H	1.525744	-0.189037	1.340207
O52	O	1.398898	-0.303188	1.246075
C53	C	1.229730	-0.290513	1.206977
C54	C	1.333297	-0.274289	1.167872
H55	H	1.176663	-0.267176	1.143761
H56	H	1.217111	-0.246365	1.281035
H57	H	1.218747	-0.370085	1.225067
H58	H	1.344352	-0.194743	1.149722
H59	H	1.345867	-0.318500	1.093849
H60	H	1.282173	-0.576302	1.106279
H61	H	1.144963	-0.569656	1.001644
H62	H	1.032978	-0.681601	0.902065
O63	O	1.082162	-0.776389	0.729152
C64	C	1.063013	-0.882610	0.581272
C65	C	1.130889	-0.814737	0.641696
H66	H	1.102388	-0.913649	0.510564
H67	H	0.997178	-0.840792	0.553617
H68	H	1.039236	-0.943694	0.634956
H69	H	1.154739	-0.753640	0.588075
H70	H	1.196674	-0.856623	0.669365
O71	O	1.389352	-0.625732	0.767432
C72	C	1.542413	-0.698063	0.726757
C73	C	1.438834	-0.714274	0.765832
H74	H	1.582444	-0.769639	0.725430
H75	H	1.581023	-0.645959	0.781539
H76	H	1.540430	-0.666588	0.644294
H77	H	1.440730	-0.745781	0.848278
H78	H	1.400266	-0.766343	0.710977
O79	O	1.515639	-0.342821	0.898573
C80	C	1.528638	-0.212585	0.774781
C81	C	1.460804	-0.280442	0.835142
H82	H	1.484330	-0.162120	0.723499
H83	H	1.579036	-0.256831	0.723342
H84	H	1.572773	-0.168523	0.832883
H85	H	1.416606	-0.324518	0.777115
H86	H	1.410470	-0.236140	0.886596
H87	H	1.755296	-0.247319	1.111527
H88	H	1.262524	-0.739840	0.673368
H89	H	1.696520	-0.162214	1.275657
