data_functionalizedCrystal
_audit_creation_method	'MofGen! by Chris Wilmer'
_symmetry_space_group_name_H-M	'P1'
_symmetry_Int_Tables_number	1
_symmetry_cell_setting	triclinic
loop_
_symmetry_equiv_pos_as_xyz
  x,y,z
_cell_length_a	12.645331
_cell_length_b	16.625546
_cell_length_c	16.625539
_cell_angle_alpha	89.969603
_cell_angle_beta	89.979221
_cell_angle_gamma	90.021447
loop_
_atom_site_label
_atom_site_type_symbol
_atom_site_fract_x
_atom_site_fract_y
_atom_site_fract_z
Zn1	Zn	1.620676	-0.321022	-0.455902
Zn2	Zn	1.620549	-0.455865	-0.321064
Zn3	Zn	1.443397	-0.321048	-0.321082
Zn4	Zn	1.443358	-0.455814	-0.455854
O5	O	1.531995	-0.388437	-0.388476
O6	O	1.769007	-0.338920	-0.438028
O7	O	1.597012	-0.438014	-0.208234
O8	O	1.466983	-0.208212	-0.338994
O9	O	1.768913	-0.437989	-0.338964
O10	O	1.597229	-0.208193	-0.438046
O11	O	1.466859	-0.338964	-0.208247
O12	O	1.295044	-0.338914	-0.338947
O13	O	1.466916	-0.437901	-0.568693
O14	O	1.295016	-0.437926	-0.437963
O15	O	1.597192	-0.338870	-0.568728
O16	O	1.596975	-0.568691	-0.338917
O17	O	1.466793	-0.568653	-0.437946
C18	C	1.531895	-0.597928	-0.388442
C19	C	1.531949	-0.687549	-0.388454
C20	C	1.256565	-0.388418	-0.388452
C21	C	1.138735	-0.388429	-0.388461
C22	C	1.532134	-1.015725	-0.388538
C23	C	1.532079	-0.924416	-0.388517
C24	C	1.532040	-0.851640	-0.388496
C25	C	1.531987	-0.760326	-0.388476
C26	C	0.971154	-0.325854	-0.326514
C27	C	1.093713	-0.326016	-0.326241
C28	C	1.094207	-0.473368	-0.365243
C29	C	0.971608	-0.473026	-0.364820
C30	C	0.971584	-0.366874	-0.473867
C31	C	1.094190	-0.364977	-0.473392
C32	C	1.808500	-0.388457	-0.388499
C33	C	1.926330	-0.388466	-0.388510
C34	C	1.532064	-0.388377	-0.598785
C35	C	1.532093	-0.388352	-0.688406
C36	C	1.532124	-0.178128	-0.388527
C37	C	1.532180	-0.088507	-0.388549
C38	C	1.532142	-0.388261	-1.016582
C39	C	1.532126	-0.388289	-0.925273
C40	C	1.532118	-0.388307	-0.852497
C41	C	1.532101	-0.388334	-0.761182
C42	C	1.531987	-0.388439	-0.178985
C43	C	1.532163	-0.388237	-0.089364
H44	H	1.123820	-0.263031	-0.340795
Cl45	Cl	1.139152	-0.268481	-0.500435
Cl46	Cl	0.926832	-0.437280	-0.545185
Cl47	Cl	1.138926	-0.348045	-0.228582
H48	H	0.940693	-0.306018	-0.494981
Cl49	Cl	0.923509	-0.347626	-0.229433
Cl50	Cl	1.139215	-0.547319	-0.432774
Cl51	Cl	0.925823	-0.547492	-0.431487
H52	H	0.942963	-0.491337	-0.302420
H53	H	1.124841	-0.407253	-0.522055
Cl54	Cl	1.141530	-0.502126	-0.269934
H55	H	0.941696	-0.262680	-0.340912
