data_functionalizedCrystal
_audit_creation_method	'MofGen! by Chris Wilmer'
_symmetry_space_group_name_H-M	'P1'
_symmetry_Int_Tables_number	1
_symmetry_cell_setting	triclinic
loop_
_symmetry_equiv_pos_as_xyz
  x,y,z
_cell_length_a	11.026607
_cell_length_b	9.130313
_cell_length_c	11.026607
_cell_angle_alpha	89.999963
_cell_angle_beta	108.586017
_cell_angle_gamma	90.000251
loop_
_atom_site_label
_atom_site_type_symbol
_atom_site_fract_x
_atom_site_fract_y
_atom_site_fract_z
O1	O	1.726725	0.121796	0.533616
O2	O	1.360145	0.121798	0.472853
O3	O	1.513053	0.121792	0.319945
O4	O	1.573817	0.121802	0.686525
O5	O	1.513052	-0.121807	0.319949
O6	O	1.360144	-0.121801	0.472857
O7	O	1.726724	-0.121803	0.533621
Cu8	Cu	1.543434	-0.144044	0.503240
Cu9	Cu	1.543435	0.144039	0.503234
O10	O	1.573815	-0.121797	0.686529
C11	C	1.312485	-0.000001	0.461645
C12	C	1.170471	-0.000000	0.428228
N13	N	1.543442	-0.346667	0.503245
C14	C	1.116821	0.000003	0.520498
C15	C	0.970043	0.000004	0.485962
C16	C	1.611178	-0.423322	0.435571
C17	C	1.611171	-0.576659	0.435555
C18	C	1.475690	-0.576672	0.570897
C19	C	1.475690	-0.423338	0.570905
C20	C	1.678929	-0.346650	0.367911
C21	C	1.746672	-0.423305	0.300233
C22	C	1.746665	-0.576642	0.300217
C23	C	1.678915	-0.653324	0.367879
C24	C	1.774384	-0.000001	0.544828
C25	C	1.916398	0.000008	0.578245
C26	C	1.501843	-0.000006	0.272287
C27	C	1.468426	-0.000000	0.130273
N28	N	1.543435	0.346662	0.503221
C29	C	1.560695	0.000001	0.076624
C30	C	1.526160	0.000007	-0.070155
C31	C	1.585026	0.000004	0.734187
C32	C	1.618443	0.000008	0.876200
H33	H	1.179555	-0.000002	0.625061
H34	H	0.907314	0.000039	0.381393
H35	H	1.420533	-0.639117	0.625986
C36	C	1.773339	-0.623818	0.096000
C37	C	1.821121	-0.660901	0.225823
H38	H	1.819318	-0.675828	0.050078
H39	H	1.685275	-0.648954	0.063535
H40	H	1.783041	-0.521521	0.086344
H41	H	1.811411	-0.763197	0.235480
H42	H	1.909207	-0.635775	0.258299
C43	C	1.130082	0.000062	0.726308
C44	C	1.001066	0.000046	0.719415
H45	H	1.182350	0.000104	0.813459
H46	H	1.147712	-0.084894	0.685107
H47	H	1.147684	0.085003	0.685049
H48	H	0.983462	-0.084901	0.760666
H49	H	0.983429	0.085011	0.760633
C50	C	0.956781	0.000009	0.280178
C51	C	1.085796	0.000004	0.287067
H52	H	0.904511	0.000022	0.193028
H53	H	0.939162	-0.084935	0.321401
H54	H	0.939171	0.084962	0.321417
H55	H	1.103408	-0.084955	0.245836
H56	H	1.103422	0.084957	0.245826
C57	C	1.804631	-0.127012	0.419941
C58	C	1.678940	-0.178102	0.367922
H59	H	1.804638	-0.022958	0.419941
H60	H	1.839834	-0.161706	0.505197
H61	H	1.854658	-0.161708	0.369945
H62	H	1.628916	-0.143415	0.417923
H63	H	1.643720	-0.143393	0.282652
H64	H	1.678905	-0.778181	0.367850
H65	H	1.421590	0.000017	-0.132884
H66	H	1.723013	0.000118	-0.061072
C67	C	1.341791	-0.438742	0.704702
C68	C	1.401244	-0.339068	0.645301
H69	H	1.295835	-0.386713	0.750635
H70	H	1.284364	-0.498540	0.641616
H71	H	1.404862	-0.498555	0.762156
H72	H	1.338172	-0.279262	0.587839
H73	H	1.458676	-0.279245	0.708394
H74	H	1.801823	-0.360863	0.245136
C75	C	1.726696	0.125219	0.238652
C76	C	1.701855	-0.000002	0.161305
H77	H	1.813842	0.125210	0.290934
H78	H	1.709834	0.210152	0.186175
H79	H	1.673271	0.125203	0.291320
H80	H	1.755274	0.000020	0.108629
H81	H	1.718730	-0.084956	0.213787
C82	C	1.302425	0.125232	-0.031744
C83	C	1.327265	0.000005	0.045596
H84	H	1.215278	0.125228	-0.084023
H85	H	1.319292	0.210160	0.020738
H86	H	1.355848	0.125219	-0.084415
H87	H	1.273849	0.000023	0.098274
H88	H	1.310385	-0.084946	-0.006892
