data_functionalizedCrystal
_audit_creation_method	'MofGen! by Chris Wilmer'
_symmetry_space_group_name_H-M	'P1'
_symmetry_Int_Tables_number	1
_symmetry_cell_setting	triclinic
loop_
_symmetry_equiv_pos_as_xyz
  x,y,z
_cell_length_a	15.537862
_cell_length_b	14.044190
_cell_length_c	14.750779
_cell_angle_alpha	76.178157
_cell_angle_beta	97.573514
_cell_angle_gamma	70.228106
loop_
_atom_site_label
_atom_site_type_symbol
_atom_site_fract_x
_atom_site_fract_y
_atom_site_fract_z
O1	O	1.206641	-0.272502	-0.079750
O2	O	0.941306	-0.166102	-0.079773
O3	O	1.069991	-0.355921	-0.079743
O4	O	1.077955	-0.082683	-0.079780
O5	O	1.106370	-0.409577	0.079916
O6	O	0.977684	-0.219757	0.079886
O7	O	1.243019	-0.326158	0.079909
Zn8	Zn	1.116127	-0.281476	0.105247
Zn9	Zn	1.068197	-0.210783	-0.105110
O10	O	1.114333	-0.136338	0.079879
C11	C	0.925332	-0.181797	0.000054
C12	C	0.823539	-0.148636	0.000046
C13	C	0.676203	-0.014222	0.000024
C14	C	0.771854	-0.045393	0.000031
C15	C	0.779587	-0.220751	0.000059
C16	C	0.683935	-0.189597	0.000057
C17	C	0.632251	-0.086331	0.000038
C18	C	0.639983	-0.261706	0.000071
C19	C	0.544339	-0.230553	0.000064
C20	C	0.492647	-0.127291	0.000042
C21	C	0.536607	-0.055178	0.000031
C22	C	0.691668	-0.364970	0.000083
C23	C	0.647716	-0.437079	0.000097
C24	C	0.552072	-0.405928	0.000097
C25	C	0.500380	-0.302666	0.000075
C26	C	0.508113	-0.478041	0.000108
C27	C	0.412469	-0.446887	0.000101
C28	C	0.404736	-0.271512	0.000068
C29	C	1.084694	-0.416864	0.000089
C30	C	1.074293	-0.518513	0.000097
C31	C	1.129045	-0.787632	0.000064
C32	C	1.055282	-0.704620	0.000064
C33	C	1.065862	-0.601061	0.000082
C34	C	1.118466	-0.891202	0.000046
C35	C	1.258992	-0.310462	0.000080
C36	C	1.360784	-0.343621	0.000082
C37	C	1.099630	-0.075394	0.000045
C38	C	1.110030	0.026256	0.000031
N39	N	1.148845	-0.329726	0.248810
N40	N	1.035486	-0.162544	-0.248674
C41	C	0.944107	-0.027832	0.600581
C42	C	0.967041	-0.061638	0.701085
C43	C	1.081022	-0.229686	0.701074
C44	C	1.058094	-0.195896	0.600568
C45	C	0.989637	-0.094967	0.550329
C46	C	1.103625	-0.263031	0.550316
C47	C	1.080702	-0.229241	0.449818
C48	C	1.012250	-0.128316	0.399572
C49	C	0.966715	-0.061177	0.449831
C50	C	1.172086	-0.363956	0.600557
C51	C	1.217616	-0.431092	0.550305
C52	C	1.194689	-0.397305	0.449806
C53	C	1.126237	-0.296380	0.399560
C54	C	1.240224	-0.464444	0.399547
C55	C	1.217302	-0.430654	0.299049
C56	C	1.103315	-0.262590	0.299062
H57	H	0.769543	-0.390325	0.000071
C58	C	0.891368	0.049825	0.394563
N59	N	0.834608	0.133421	0.352934
H60	H	0.993591	-0.100804	0.317741
C61	C	0.364119	-0.526211	0.000118
N62	N	0.327701	-0.585960	0.000128
H63	H	0.634121	0.069863	0.000022
H64	H	1.190750	-0.391462	0.682389
H65	H	1.136763	-0.311861	0.741991
H66	H	1.200136	-0.780927	0.000080
H67	H	0.984186	-0.711327	0.000053
C68	C	0.704582	-0.550672	0.000127
N69	N	0.747414	-0.636234	0.000156
C70	C	0.564978	-0.591630	0.000128
N71	N	0.607810	-0.677187	0.000146
C72	C	1.027968	-0.151587	0.243793
N73	N	0.971208	-0.067991	0.202165
H74	H	0.888356	0.054350	0.559674
H75	H	0.821680	-0.304830	0.000071
C76	C	0.916946	0.012224	0.756359
N77	N	0.879216	0.067856	0.797990
H78	H	1.273357	-0.513268	0.591221
H79	H	0.362654	-0.187427	0.000066
C80	C	1.315529	-0.575460	0.454823
N81	N	1.372248	-0.659080	0.496458
C82	C	1.267385	-0.504508	0.243769
N83	N	1.305110	-0.560136	0.202132
H84	H	0.414767	-0.101926	0.000033
H85	H	0.494525	0.028907	0.000029
C86	C	0.820198	0.033942	0.000017
N87	N	0.856610	0.093695	0.000004
