data_functionalizedCrystal
_audit_creation_method	'MofGen! by Chris Wilmer'
_symmetry_space_group_name_H-M	'P1'
_symmetry_Int_Tables_number	1
_symmetry_cell_setting	triclinic
loop_
_symmetry_equiv_pos_as_xyz
  x,y,z
_cell_length_a	15.995343
_cell_length_b	15.995350
_cell_length_c	15.072220
_cell_angle_alpha	90.008851
_cell_angle_beta	89.994148
_cell_angle_gamma	96.509220
loop_
_atom_site_label
_atom_site_type_symbol
_atom_site_fract_x
_atom_site_fract_y
_atom_site_fract_z
O1	O	0.107921	-1.110993	-0.073717
O2	O	0.441255	-0.777660	0.259617
O3	O	0.774588	-0.444326	0.592950
O4	O	0.121249	-0.867217	-0.073736
O5	O	0.454582	-0.533884	0.259597
O6	O	0.787916	-0.200551	0.592930
O7	O	-0.007303	-0.995772	-0.073709
O8	O	0.326030	-0.662439	0.259624
O9	O	0.659364	-0.329106	0.592957
O10	O	0.236473	-0.982438	-0.073743
O11	O	0.569807	-0.649105	0.259590
O12	O	0.903140	-0.315771	0.592923
O13	O	-0.007296	-0.995740	0.073856
O14	O	0.326038	-0.662407	0.407189
O15	O	0.659371	-0.329074	0.740522
O16	O	0.121256	-0.867185	0.073829
O17	O	0.454589	-0.533852	0.407162
O18	O	0.787923	-0.200519	0.740496
O19	O	0.107929	-1.110961	0.073848
O20	O	0.441262	-0.777628	0.407182
O21	O	0.774595	-0.444294	0.740515
Zn22	Zn	0.114593	-0.989068	0.097268
Zn23	Zn	0.447927	-0.655735	0.430601
Zn24	Zn	0.781260	-0.322402	0.763934
Zn25	Zn	0.114584	-0.989110	-0.097156
Zn26	Zn	0.447917	-0.655777	0.236178
Zn27	Zn	0.781251	-0.322443	0.569511
O28	O	0.236480	-0.982406	0.073822
O29	O	0.569814	-0.649073	0.407155
O30	O	0.903147	-0.315739	0.740488
C31	C	0.120702	-0.836007	0.000044
C32	C	0.454035	-0.502673	0.333377
C33	C	0.787368	-0.169340	0.666711
C34	C	0.119050	-0.743056	0.000037
C35	C	0.452383	-0.409723	0.333371
C36	C	0.785716	-0.076390	0.666704
C37	C	-0.038494	-0.995206	0.000075
C38	C	0.294839	-0.661873	0.333409
C39	C	0.628173	-0.328540	0.666742
C40	C	-0.131445	-0.993557	0.000082
C41	C	0.201888	-0.660224	0.333416
C42	C	0.535222	-0.326890	0.666749
N43	N	0.114599	-0.989046	0.229957
N44	N	0.447933	-0.655712	0.563290
N45	N	0.781266	-0.322379	0.896623
C46	C	-0.301631	-0.990563	0.000062
C47	C	0.031702	-0.657230	0.333395
C48	C	0.365035	-0.323897	0.666728
C49	C	-0.324977	-0.897766	0.000052
C50	C	0.008356	-0.564433	0.333386
C51	C	0.341690	-0.231100	0.666719
C52	C	-0.421655	-0.896021	-0.000293
C53	C	-0.088322	-0.562687	0.333041
C54	C	0.245012	-0.229354	0.666374
C55	C	-0.469191	-0.987615	0.000043
C56	C	-0.135858	-0.654282	0.333376
C57	C	0.197476	-0.320948	0.666709
C58	C	-0.440096	-1.034293	-0.084051
C59	C	-0.106763	-0.700960	0.249282
C60	C	0.226570	-0.367626	0.582616
C61	C	-0.343304	-1.035394	-0.084112
C62	C	-0.009970	-0.702060	0.249222
C63	C	0.323363	-0.368727	0.582555
C64	C	-0.343400	-1.036716	0.083703
C65	C	-0.010067	-0.703383	0.417037
C66	C	0.323267	-0.370049	0.750370
C67	C	-0.439895	-1.033290	0.084799
C68	C	-0.106562	-0.699957	0.418132
C69	C	0.226772	-0.366623	0.751465
C70	C	-0.563889	-0.985953	0.000029
C71	C	-0.230556	-0.652620	0.333362
C72	C	0.102777	-0.319287	0.666695
C73	C	-0.206933	-0.992228	0.000070
C74	C	0.126400	-0.658894	0.333403
C75	C	0.459733	-0.325561	0.666736
C76	C	0.267672	-0.982972	0.000035
C77	C	0.601005	-0.649639	0.333368
C78	C	0.934338	-0.316305	0.666701
C79	C	0.360622	-0.984621	0.000022
C80	C	0.693956	-0.651288	0.333355
C81	C	1.027289	-0.317955	0.666689
C82	C	0.108476	-1.142172	0.000066
C83	C	0.441809	-0.808838	0.333399
C84	C	0.775143	-0.475505	0.666733
C85	C	0.110128	-1.235122	0.000067
C86	C	0.443461	-0.901789	0.333400
C87	C	0.776794	-0.568455	0.666734
C88	C	0.113118	-0.405309	0.000057
C89	C	0.446451	-0.071976	0.333390
C90	C	0.779784	0.261358	0.666723
C91	C	0.021565	-0.452745	0.000399
C92	C	0.354899	-0.119412	0.333732
C93	C	0.688232	0.213921	0.667065
C94	C	0.023217	-0.549436	0.000060
C95	C	0.356551	-0.216102	0.333393
C96	C	0.689884	0.117231	0.666726
C97	C	0.116060	-0.572869	0.000048
C98	C	0.449393	-0.239536	0.333381
C99	C	0.782727	0.093797	0.666714
C100	C	0.161213	-0.531799	-0.084222
C101	C	0.494546	-0.198466	0.249111
C102	C	0.827879	0.134868	0.582445
C103	C	0.158913	-0.435163	-0.084286
C104	C	0.492246	-0.101830	0.249047
C105	C	0.825579	0.231503	0.582381
C106	C	0.160812	-0.434788	0.083523
C107	C	0.494146	-0.101455	0.416856
C108	C	0.827479	0.231878	0.750189
C109	C	0.160791	-0.531734	0.084630
C110	C	0.494124	-0.198400	0.417964
C111	C	0.827457	0.134933	0.751297
C112	C	0.117728	-0.667567	0.000040
C113	C	0.451061	-0.334233	0.333373
C114	C	0.784395	-0.000900	0.666706
C115	C	0.111452	-0.310611	0.000059
C116	C	0.444786	0.022722	0.333392
C117	C	0.778119	0.356056	0.666725
N118	N	0.114572	-0.989139	-0.229844
N119	N	0.447905	-0.655806	0.103489
N120	N	0.781238	-0.322473	0.436822
C121	C	0.114581	-0.989108	0.589158
C122	C	0.447914	-0.655775	0.922491
C123	C	0.781247	-0.322442	1.255825
C124	C	0.183136	-0.920090	0.551537
C125	C	0.516469	-0.586757	0.884870
C126	C	0.849802	-0.253423	1.218204
C127	C	0.183386	-0.920248	0.448711
C128	C	0.516719	-0.586915	0.782044
C129	C	0.850053	-0.253582	1.115378
C130	C	0.114590	-0.989077	0.410954
C131	C	0.447923	-0.655743	0.744287
C132	C	0.781257	-0.322410	1.077621
C133	C	0.133672	-1.076441	0.448249
C134	C	0.467005	-0.743108	0.781582
C135	C	0.800338	-0.409774	1.114916
C136	C	0.134159	-1.076054	0.551107
C137	C	0.467492	-0.742721	0.884440
C138	C	0.800826	-0.409387	1.217774
C139	C	0.026741	-0.971541	0.551269
C140	C	0.360074	-0.638208	0.884602
C141	C	0.693408	-0.304875	1.217936
C142	C	0.027327	-0.969537	0.448405
C143	C	0.360660	-0.636203	0.781739
C144	C	0.693994	-0.302870	1.115072
C145	C	0.114594	-0.989064	0.310241
C146	C	0.447927	-0.655731	0.643574
C147	C	0.781260	-0.322397	0.976907
C148	C	0.114579	-0.989127	0.689871
C149	C	0.447912	-0.655793	1.023205
C150	C	0.781246	-0.322460	1.356538
H151	H	-0.440676	-0.859475	0.059972
H152	H	-0.107342	-0.526141	0.393305
H153	H	0.225991	-0.192808	0.726638
H154	H	-0.012275	-0.577853	0.060468
H155	H	0.321058	-0.244519	0.393802
H156	H	0.654391	0.088814	0.727135
F157	F	0.121693	-0.407934	0.167011
F158	F	0.455026	-0.074601	0.500345
F159	F	0.788360	0.258732	0.833678
F160	F	-0.026264	-0.428516	0.079390
F161	F	0.307069	-0.095183	0.412724
F162	F	0.640403	0.238150	0.746057
F163	F	-0.042479	-1.030980	0.414826
F164	F	0.290854	-0.697647	0.748160
F165	F	0.624187	-0.364314	1.081493
F166	F	0.216449	-1.097161	0.414559
F167	F	0.549783	-0.763828	0.747892
F168	F	0.883116	-0.430495	1.081225
H169	H	-0.024275	-1.021873	0.575598
H170	H	0.309058	-0.688540	0.908931
H171	H	0.642391	-0.355206	1.242265
H172	H	0.008392	-0.909219	0.577257
H173	H	0.341726	-0.575886	0.910591
H174	H	0.675059	-0.242552	1.243924
H175	H	-0.315132	-1.007425	0.147467
H176	H	0.018201	-0.674091	0.480800
H177	H	0.351534	-0.340758	0.814133
H178	H	0.127830	-0.559038	0.146973
H179	H	0.461163	-0.225704	0.480306
H180	H	0.794496	0.107629	0.813639
H181	H	0.226129	-0.402914	-0.088119
H182	H	0.559462	-0.069581	0.245214
H183	H	0.892795	0.263753	0.578548
H184	H	0.171954	-0.854941	0.576295
H185	H	0.505287	-0.521607	0.909628
H186	H	0.838620	-0.188274	1.242962
F187	F	0.115866	-0.411249	-0.166611
F188	F	0.449200	-0.077916	0.166722
F189	F	0.782533	0.255417	0.500055
H190	H	0.248570	-0.931466	0.424089
H191	H	0.581904	-0.598132	0.757422
H192	H	0.915237	-0.264799	1.090756
H193	H	0.172017	-0.855309	0.423497
H194	H	0.505350	-0.521976	0.756830
H195	H	0.838684	-0.188642	1.090164
F196	F	0.250360	-0.550279	-0.088346
F197	F	0.583694	-0.216945	0.244987
F198	F	0.917027	0.116388	0.578321
H199	H	0.129846	-0.560188	-0.146929
H200	H	0.463179	-0.226854	0.186405
H201	H	0.796512	0.106479	0.519738
F202	F	0.249288	-0.551808	0.091271
F203	F	0.582621	-0.218474	0.424604
F204	F	0.915954	0.114859	0.757938
H205	H	0.228313	-0.403025	0.084084
H206	H	0.561647	-0.069692	0.417417
H207	H	0.894980	0.263642	0.750751
H208	H	0.086196	-1.129016	0.575992
H209	H	0.419529	-0.795683	0.909325
H210	H	0.752862	-0.462350	1.242659
F211	F	0.267860	-0.934557	0.585284
F212	F	0.601194	-0.601223	0.918617
F213	F	0.934527	-0.267890	1.251950
F214	F	0.217891	-1.096288	0.582445
F215	F	0.551224	-0.762954	0.915779
F216	F	0.884558	-0.429621	1.249112
H217	H	-0.460184	-1.002291	-0.146879
H218	H	-0.126851	-0.668958	0.186454
H219	H	0.206482	-0.335624	0.519787
H220	H	0.085068	-1.129026	0.423790
H221	H	0.418402	-0.795693	0.757124
H222	H	0.751735	-0.462360	1.090457
F223	F	-0.464154	-0.988861	0.166119
F224	F	-0.130820	-0.655527	0.499452
F225	F	0.202513	-0.322194	0.832785
H226	H	0.012846	-0.905271	0.424030
H227	H	0.346179	-0.571937	0.757364
H228	H	0.679512	-0.238604	1.090697
H229	H	-0.328730	-1.103445	-0.087691
H230	H	0.004603	-0.770112	0.245643
H231	H	0.337937	-0.436779	0.578976
H232	H	-0.296971	-0.861784	0.060349
H233	H	0.036362	-0.528451	0.393683
H234	H	0.369695	-0.195118	0.727016
H235	H	-0.440090	-0.859683	-0.060937
H236	H	-0.106756	-0.526350	0.272396
H237	H	0.226577	-0.193016	0.605729
F238	F	-0.287092	-0.851533	-0.078660
F239	F	0.046242	-0.518200	0.254673
F240	F	0.379575	-0.184866	0.588007
F241	F	-0.325082	-1.125993	0.084775
F242	F	0.008251	-0.792660	0.418108
F243	F	0.341585	-0.459326	0.751442
F244	F	-0.481719	-1.122405	-0.087827
F245	F	-0.148385	-0.789072	0.245506
F246	F	0.184948	-0.455739	0.578840
F247	F	-0.308287	-0.993669	-0.166596
F248	F	0.025046	-0.660336	0.166738
F249	F	0.358380	-0.327002	0.500071
H250	H	-0.472843	-1.100125	0.090135
H251	H	-0.139510	-0.766792	0.423468
H252	H	0.193823	-0.433459	0.756802
H253	H	-0.014865	-0.433166	-0.059692
H254	H	0.318469	-0.099832	0.273642
H255	H	0.651802	0.233501	0.606975
F256	F	-0.023306	-0.585845	-0.079149
F257	F	0.310028	-0.252512	0.254185
F258	F	0.643361	0.080822	0.587518
