data_functionalizedCrystal
_audit_creation_method	'MofGen! by Chris Wilmer'
_symmetry_space_group_name_H-M	'P1'
_symmetry_Int_Tables_number	1
_symmetry_cell_setting	triclinic
loop_
_symmetry_equiv_pos_as_xyz
  x,y,z
_cell_length_a	16.109301
_cell_length_b	16.109301
_cell_length_c	7.540329
_cell_angle_alpha	89.994987
_cell_angle_beta	89.999760
_cell_angle_gamma	83.461481
loop_
_atom_site_label
_atom_site_type_symbol
_atom_site_fract_x
_atom_site_fract_y
_atom_site_fract_z
O1	O	1.103130	0.106866	-0.147376
O2	O	1.603130	0.606866	0.352624
O3	O	0.861068	0.120165	-0.147405
O4	O	1.361068	0.620165	0.352595
O5	O	0.988749	-0.007515	-0.147372
O6	O	1.488749	0.492485	0.352628
O7	O	0.975450	0.234547	-0.147409
O8	O	1.475450	0.734547	0.352591
O9	O	0.988741	-0.007517	0.147594
O10	O	1.488741	0.492483	0.647594
O11	O	0.861061	0.120164	0.147560
O12	O	1.361061	0.620164	0.647560
O13	O	1.103123	0.106864	0.147589
O14	O	1.603123	0.606864	0.647589
Cu15	Cu	0.982091	0.113514	0.174507
Cu16	Cu	1.482091	0.613514	0.674507
Cu17	Cu	0.982100	0.113516	-0.174323
Cu18	Cu	1.482100	0.613516	0.325677
O19	O	0.975442	0.234545	0.147556
O20	O	1.475442	0.734545	0.647556
C21	C	0.830090	0.119626	0.000074
C22	C	1.330090	0.619626	0.500074
C23	C	0.737794	0.118011	0.000064
C24	C	1.237794	0.618011	0.500064
C25	C	0.515522	0.190018	0.000073
C26	C	1.015522	0.690018	0.500073
C27	C	0.428801	0.188494	0.000085
C28	C	0.928801	0.688494	0.500085
C29	C	0.448676	0.037006	0.000101
C30	C	0.948676	0.537006	0.500101
C31	C	0.535394	0.038530	0.000102
C32	C	1.035394	0.538530	0.500102
C33	C	0.568815	0.115039	0.000079
C34	C	1.068815	0.615039	0.500079
C35	C	0.395376	0.111990	0.000090
C36	C	0.895376	0.611990	0.500090
C37	C	0.301350	0.110337	0.000102
C38	C	0.801350	0.610337	0.500102
C39	C	0.662847	0.116693	0.000070
C40	C	1.162847	0.616693	0.500070
C41	C	0.988206	-0.038491	0.000112
C42	C	1.488206	0.461509	0.500112
C43	C	0.986591	-0.130786	0.000114
C44	C	1.486591	0.369214	0.500114
C45	C	1.058599	-0.353059	0.000095
C46	C	1.558599	0.146941	0.500095
C47	C	1.057075	-0.439779	0.000080
C48	C	1.557075	0.060221	0.500080
C49	C	0.905586	-0.419905	0.000069
C50	C	1.405586	0.080095	0.500069
C51	C	0.907111	-0.333186	0.000071
C52	C	1.407111	0.166814	0.500071
C53	C	0.983620	-0.299766	0.000093
C54	C	1.483620	0.200234	0.500093
C55	C	0.980571	-0.473205	0.000076
C56	C	1.480571	0.026795	0.500076
C57	C	0.978918	-0.567231	0.000060
C58	C	1.478918	-0.067231	0.500060
C59	C	0.985273	-0.205734	0.000105
C60	C	1.485273	0.294266	0.500105
C61	C	1.134101	0.107404	0.000106
C62	C	1.634101	0.607404	0.500106
C63	C	1.226397	0.109019	0.000105
C64	C	1.726397	0.609019	0.500105
C65	C	0.975984	0.265521	0.000069
C66	C	1.475984	0.765521	0.500069
C67	C	0.977600	0.357816	0.000055
C68	C	1.477600	0.857816	0.500055
N69	N	0.982091	0.113512	0.419856
N70	N	1.482091	0.613512	0.919856
N71	N	0.982107	0.113511	-0.419672
N72	N	1.482107	0.613511	0.080328
H73	H	0.385413	0.249550	0.000083
H74	H	0.885413	0.749550	0.500083
H75	H	1.118130	-0.483168	0.000078
H76	H	1.618130	0.016832	0.500078
O77	O	0.416071	-0.037239	0.000030
O78	O	0.916071	0.462761	0.500030
C79	C	0.328102	-0.022509	0.000067
C80	C	0.828102	0.477491	0.500067
H81	H	0.307719	0.042379	-0.055781
H82	H	0.807719	0.542379	0.444219
H83	H	0.301492	-0.071460	-0.085567
H84	H	0.801492	0.428540	0.414433
H85	H	0.303963	-0.026536	0.141576
H86	H	0.803963	0.473464	0.641576
O87	O	0.831342	-0.452510	0.000143
O88	O	1.331342	0.047490	0.500143
C89	C	0.846072	-0.540478	0.000103
C90	C	1.346072	-0.040478	0.500103
H91	H	0.910958	-0.560864	0.055947
H92	H	1.410958	-0.060864	0.555947
H93	H	0.797119	-0.567092	0.085741
H94	H	1.297119	-0.067092	0.585741
H95	H	0.842048	-0.564612	-0.141405
H96	H	1.342048	-0.064612	0.358595
H97	H	0.578788	-0.022530	0.000112
H98	H	1.078788	0.477470	0.500112
H99	H	0.846050	-0.289792	0.000064
H100	H	1.346050	0.210208	0.500064
O101	O	0.547849	0.264408	0.000145
O102	O	1.047849	0.764408	0.500145
C103	C	0.482211	0.330259	0.000100
C104	C	0.982211	0.830259	0.500100
H105	H	0.423309	0.306963	0.055944
H106	H	0.923309	0.806963	0.555944
H107	H	0.500316	0.383671	0.085735
H108	H	1.000316	0.883671	0.585735
H109	H	0.469932	0.353391	-0.141410
H110	H	0.969932	0.853391	0.358590
O111	O	1.132989	-0.320731	0.000016
O112	O	1.632989	0.179269	0.500016
C113	C	1.198839	-0.386369	0.000052
C114	C	1.698839	0.113631	0.500052
H115	H	1.175544	-0.445270	-0.055787
H116	H	1.675544	0.054730	0.444213
H117	H	1.252252	-0.368262	-0.085591
H118	H	1.752252	0.131738	0.414409
H119	H	1.221971	-0.398654	0.141559
H120	H	1.721971	0.101346	0.641559
