data_functionalizedCrystal
_audit_creation_method	'MofGen! by Chris Wilmer'
_symmetry_space_group_name_H-M	'P1'
_symmetry_Int_Tables_number	1
_symmetry_cell_setting	triclinic
loop_
_symmetry_equiv_pos_as_xyz
  x,y,z
_cell_length_a	12.827893
_cell_length_b	12.827892
_cell_length_c	17.077396
_cell_angle_alpha	90.025067
_cell_angle_beta	90.017613
_cell_angle_gamma	90.015362
loop_
_atom_site_label
_atom_site_type_symbol
_atom_site_fract_x
_atom_site_fract_y
_atom_site_fract_z
Zn1	Zn	1.597652	-0.416034	0.443822
Zn2	Zn	1.597552	-0.590796	0.312564
Zn3	Zn	1.422899	-0.416070	0.312574
Zn4	Zn	1.422879	-0.590733	0.443792
O5	O	1.510246	-0.503408	0.378188
O6	O	1.743875	-0.439228	0.426418
O7	O	1.574350	-0.567660	0.202718
O8	O	1.446131	-0.269829	0.330001
O9	O	1.743801	-0.567625	0.329984
O10	O	1.574522	-0.269803	0.426429
O11	O	1.446033	-0.439289	0.202726
O12	O	1.276660	-0.439228	0.329972
O13	O	1.446097	-0.567518	0.553643
O14	O	1.276646	-0.567553	0.426377
O15	O	1.574502	-0.439167	0.553665
O16	O	1.574330	-0.737024	0.329954
O17	O	1.445999	-0.736978	0.426367
C18	C	1.238736	-0.503388	0.378173
C19	C	1.122583	-0.503405	0.378185
C20	C	0.950733	-0.439840	0.330579
C21	C	1.070783	-0.439821	0.330565
C22	C	1.510180	-0.774918	0.378173
C23	C	1.510248	-0.891071	0.378193
C24	C	1.573751	-0.942760	0.425951
C25	C	1.573823	-1.062810	0.425973
C26	C	1.782816	-0.503429	0.378203
C27	C	1.898969	-0.503438	0.378210
C28	C	1.510309	-0.503331	0.582932
C29	C	1.510336	-0.503299	0.670182
C30	C	1.510340	-0.230838	0.378220
C31	C	1.510380	-0.114685	0.378233
C32	C	1.510243	-0.503410	0.174240
C33	C	1.510418	-0.503148	0.086991
C34	C	1.577199	-0.436461	0.711185
C35	C	1.577211	-0.436426	0.793165
C36	C	1.510365	-0.503235	0.834141
C37	C	1.443495	-0.570076	0.793133
C38	C	1.443478	-0.570105	0.711154
C39	C	1.443537	-0.570013	0.964003
C40	C	1.443555	-0.569986	1.045988
C41	C	1.577270	-0.436334	1.046015
C42	C	1.577253	-0.436363	0.964036
C43	C	1.510384	-0.503206	0.923033
H44	H	1.115300	-0.385376	0.289784
H45	H	1.456013	-1.070242	0.337340
H46	H	0.943528	-0.557868	0.418982
H47	H	1.455928	-0.935696	0.337326
O48	O	1.638780	-1.115669	0.474784
C49	C	1.697731	-1.044118	0.519185
H50	H	1.701405	-0.966314	0.487073
H51	H	1.780048	-1.075659	0.527606
H52	H	1.659411	-1.032525	0.578779
H53	H	1.389121	-0.624386	1.079348
H54	H	1.078073	-0.557859	0.418963
H55	H	1.631660	-0.382002	0.826547
H56	H	1.631716	-0.381907	1.079403
O57	O	1.642168	-0.371463	0.671506
C58	C	1.701202	-0.312480	0.725280
H59	H	1.658411	-0.308840	0.783713
H60	H	1.712372	-0.230153	0.701607
H61	H	1.780558	-0.350751	0.734003
O62	O	1.642221	-0.371369	0.924351
C63	C	1.701263	-0.312383	0.978119
H64	H	1.658478	-0.308735	1.036554
H65	H	1.712434	-0.230059	0.954440
H66	H	1.780618	-0.350655	0.986839
O67	O	1.378565	-0.635059	0.924293
C68	C	1.319561	-0.694015	0.978036
H69	H	1.362366	-0.697592	1.036483
H70	H	1.308412	-0.776366	0.954345
H71	H	1.240195	-0.655763	0.986739
O72	O	1.378612	-0.635120	0.832849
C73	C	1.401425	-0.739282	0.812819
H74	H	1.441581	-0.741472	0.753300
H75	H	1.325989	-0.786135	0.810001
H76	H	1.455152	-0.774469	0.858958
O77	O	1.638519	-0.889372	0.474639
C78	C	1.624016	-0.781393	0.463788
H79	H	1.589814	-0.766675	0.403174
H80	H	1.702224	-0.739764	0.469129
H81	H	1.568283	-0.750424	0.510286
O82	O	1.378419	-0.634890	0.671290
C83	C	1.310946	-0.575413	0.623856
H84	H	1.304524	-0.493096	0.648566
H85	H	1.230511	-0.613205	0.622917
H86	H	1.343239	-0.571843	0.561728
O87	O	0.897423	-0.374988	0.281970
C88	C	0.789426	-0.389427	0.292819
H89	H	0.774628	-0.470135	0.318430
H90	H	0.747832	-0.382273	0.234065
H91	H	0.758490	-0.327549	0.334731
