data_functionalizedCrystal
_audit_creation_method	'MofGen! by Chris Wilmer'
_symmetry_space_group_name_H-M	'P1'
_symmetry_Int_Tables_number	1
_symmetry_cell_setting	triclinic
loop_
_symmetry_equiv_pos_as_xyz
  x,y,z
_cell_length_a	31.640171
_cell_length_b	31.640172
_cell_length_c	14.560438
_cell_angle_alpha	90.003589
_cell_angle_beta	59.993279
_cell_angle_gamma	59.979319
loop_
_atom_site_label
_atom_site_type_symbol
_atom_site_fract_x
_atom_site_fract_y
_atom_site_fract_z
Zr1	Zr	0.462743	0.406964	-0.120686
O2	O	0.550959	0.339432	-0.267407
O3	O	0.374534	0.427694	-0.075671
O4	O	0.462742	0.427653	-0.267329
O5	O	0.462750	0.339474	0.075391
O6	O	0.462733	0.497210	-0.267309
O7	O	0.462751	0.339474	-0.075750
O8	O	0.304945	0.497284	0.075531
O9	O	0.620538	0.339399	-0.267449
O10	O	0.410807	0.488411	-0.056503
O11	O	0.410812	0.436501	0.056277
O12	O	0.514666	0.436452	-0.169375
O13	O	0.514671	0.384542	-0.056595
Zr14	Zr	0.462727	0.517899	0.120398
Zr15	Zr	0.462729	0.517899	-0.120654
Zr16	Zr	0.462741	0.406964	0.120366
Zr17	Zr	0.573713	0.406911	-0.120753
Zr18	Zr	0.351757	0.517952	0.120465
O19	O	0.550937	0.497168	0.075384
O20	O	0.550939	0.497168	-0.267362
O21	O	0.550957	0.339432	0.075338
O22	O	0.374511	0.585431	0.267119
O23	O	0.374514	0.585430	-0.075626
O24	O	0.374531	0.427695	0.267074
O25	O	0.462720	0.585389	-0.075679
O26	O	0.462729	0.497210	0.267041
O27	O	0.462738	0.427653	0.267021
O28	O	0.462719	0.585389	0.075462
O29	O	0.620527	0.427578	-0.267424
O30	O	0.304944	0.497284	0.267136
O31	O	0.304933	0.585463	0.267161
O32	O	0.304934	0.585463	0.075557
O33	O	0.620536	0.339400	-0.075845
O34	O	0.620525	0.427578	-0.075819
O35	O	0.410805	0.488411	0.169087
O36	O	0.410799	0.540320	0.056307
O37	O	0.514658	0.488362	-0.056565
O38	O	0.514664	0.436452	0.056215
C39	C	0.323929	0.462497	-0.000061
C40	C	0.276819	0.462519	-0.000032
C41	C	-0.097752	0.500773	0.083148
C42	C	0.079201	0.500819	0.083210
O43	O	0.069463	0.533442	0.154034
N44	N	0.139681	0.462486	-0.000083
C45	C	0.155924	0.424141	-0.083402
O46	O	0.211426	0.391540	-0.154253
C47	C	-0.021029	0.424098	-0.083468
C48	C	-0.081510	0.462430	-0.000162
C49	C	-0.158230	0.539103	0.166446
C50	C	-0.202465	0.539090	0.166433
C51	C	-0.186223	0.500747	0.083122
C52	C	-0.125745	0.462417	-0.000175
C53	C	-0.004786	0.385755	-0.166790
C54	C	-0.049031	0.385748	-0.166801
C55	C	-0.109512	0.424081	-0.083496
C56	C	-0.153738	0.424060	-0.083499
N57	N	-0.214218	0.462393	-0.000205
C58	C	-0.230461	0.500736	0.083105
C59	C	0.248824	0.424166	-0.083360
C60	C	0.293062	0.424176	-0.083343
C61	C	0.216335	0.500855	0.083268
C62	C	0.172097	0.500842	0.083255
C63	C	0.188343	0.462499	-0.000067
C64	C	-0.323355	0.500705	0.083072
C65	C	-0.367591	0.500687	0.083055
C66	C	-0.290861	0.424010	-0.083559
C67	C	-0.246629	0.424026	-0.083539
C68	C	-0.262881	0.462378	-0.000218
O69	O	-0.144045	0.391458	-0.154293
O70	O	-0.285967	0.533339	0.153931
C71	C	-0.053517	0.500787	0.083161
C72	C	0.006961	0.462457	-0.000137
C73	C	0.023203	0.424114	-0.083447
C74	C	0.051199	0.462467	-0.000119
C75	C	0.034956	0.500811	0.083191
C76	C	-0.025525	0.539144	0.166484
C77	C	-0.069760	0.539130	0.166471
C78	C	0.083684	0.385781	-0.166740
C79	C	0.127916	0.385797	-0.166720
C80	C	0.111673	0.424140	-0.083410
C81	C	0.462753	0.323668	-0.000184
C82	C	0.462759	0.276573	-0.000198
C83	C	0.408516	0.011689	0.058797
C84	C	0.408506	-0.165296	0.058819
O85	O	0.362399	-0.165116	0.108968
N86	N	0.462719	-0.214548	-0.000100
C87	C	0.516938	-0.219552	-0.059024
O88	O	0.563050	-0.265505	-0.109128
C89	C	0.516948	-0.042568	-0.059039
C90	C	0.462732	0.006683	-0.000125
C91	C	0.354304	0.060938	0.117707
C92	C	0.354307	0.105181	0.117696
C93	C	0.408523	0.100176	0.058775
C94	C	0.462735	0.050927	-0.000136
C95	C	0.571167	-0.047573	-0.117955
C96	C	0.571164	-0.003321	-0.117951
C97	C	0.516948	0.045930	-0.059037
C98	C	0.516953	0.090164	-0.059068
N99	N	0.462740	0.139416	-0.000149
C100	C	0.408525	0.144422	0.058773
C101	C	0.516929	-0.312470	-0.059014
C102	C	0.516927	-0.356716	-0.059012
C103	C	0.408495	-0.302457	0.058833
C104	C	0.408497	-0.258210	0.058824
C105	C	0.462716	-0.263218	-0.000094
C106	C	0.408536	0.237334	0.058744
C107	C	0.408544	0.281579	0.058724
C108	C	0.516976	0.227316	-0.059116
C109	C	0.516968	0.183074	-0.059101
C110	C	0.462743	0.188087	-0.000163
O111	O	0.563036	0.090023	-0.109181
O112	O	0.362421	0.190378	0.108890
C113	C	0.408513	-0.032554	0.058808
C114	C	0.462725	-0.081803	-0.000102
C115	C	0.516941	-0.086809	-0.059024
C116	C	0.462723	-0.126049	-0.000100
C117	C	0.408508	-0.121044	0.058821
C118	C	0.354295	-0.071792	0.117741
C119	C	0.354298	-0.027549	0.117730
C120	C	0.571153	-0.136061	-0.117943
C121	C	0.571146	-0.180302	-0.117928
C122	C	0.516931	-0.175296	-0.059007
C123	C	0.601542	0.462366	-0.000227
C124	C	0.648652	0.462344	-0.000256
C125	C	0.462738	0.462431	-0.301663
C126	C	0.462739	0.462431	-0.403996
C127	C	0.462718	0.601195	-0.000104
C128	C	0.462712	0.648290	-0.000090
C129	C	0.516951	0.435307	-0.510991
C130	C	0.516948	0.435309	-0.607140
C131	C	0.408516	0.489559	-0.489286
C132	C	0.408519	0.489560	-0.393140
C133	C	0.571170	0.408178	-0.521848
C134	C	0.625387	0.381052	-0.628847
C135	C	0.625384	0.381053	-0.724996
C136	C	0.571165	0.408181	-0.714145
C137	C	0.462733	0.462432	0.301376
C138	C	0.462732	0.462432	0.403709
C139	C	0.323911	0.601260	-0.000020
C140	C	0.276796	0.648377	0.000022
C141	C	0.323926	0.462497	0.301459
C142	C	0.276816	0.462519	0.403820
C143	C	0.323909	0.601260	0.301499
C144	C	0.276793	0.648378	0.403874
C145	C	0.601562	0.323602	-0.301787
C146	C	0.648678	0.276485	-0.404162
C147	C	0.601559	0.323603	-0.000267
C148	C	0.648675	0.276485	-0.000309
C149	C	0.601544	0.462366	-0.301747
C150	C	0.648655	0.462343	-0.404108
C151	C	0.254674	0.643408	-0.058854
C152	C	0.210410	0.687675	-0.058838
C153	C	0.188266	0.736912	0.000063
C154	C	0.210392	0.741880	0.058940
C155	C	0.254658	0.697613	0.058916
C156	C	0.254689	0.489626	0.510786
C157	C	0.210430	0.489645	0.606974
C158	C	0.188296	0.462560	0.596195
C159	C	0.210427	0.435450	0.489218
C160	C	0.254689	0.435428	0.393032
C161	C	0.254663	0.697605	0.393081
C162	C	0.210399	0.741881	0.489263
C163	C	0.188261	0.736928	0.596239
C164	C	0.210395	0.687695	0.607030
C165	C	0.254662	0.643421	0.510848
C166	C	0.670813	0.227257	-0.393368
C167	C	0.715091	0.182982	-0.489551
C168	C	0.737231	0.187934	-0.596527
C169	C	0.715095	0.237167	-0.607318
C170	C	0.670820	0.281442	-0.511136
C171	C	0.670802	0.281455	0.058556
C172	C	0.715078	0.237188	0.058513
C173	C	0.737224	0.187951	-0.000390
C174	C	0.715095	0.182982	-0.059264
C175	C	0.670823	0.227249	-0.059226
C176	C	0.670775	0.489434	-0.393292
C177	C	0.715034	0.489423	-0.489463
C178	C	0.737176	0.462319	-0.596447
C179	C	0.715052	0.435227	-0.607260
C180	C	0.670790	0.435241	-0.511092
H181	H	-0.336596	0.531935	0.150920
H182	H	0.152255	0.462582	0.674525
H183	H	0.669530	0.358969	-0.812115
F184	F	0.647242	0.333852	0.121251
H185	H	0.192364	0.683670	0.694142
H186	H	0.652754	0.511506	-0.306189
F187	F	0.350816	0.518427	-0.477746
F188	F	0.738619	0.242486	0.121180
F189	F	0.784342	0.140842	-0.000419
H190	H	0.571179	0.408173	-0.443565
F191	F	0.186882	0.518502	0.720816
F192	F	-0.266831	0.579890	0.255097
H193	H	0.272705	0.511682	0.519584
H194	H	0.272703	0.603321	-0.106832
F195	F	0.278195	0.702910	0.121591
F196	F	0.186867	0.682376	-0.121502
H197	H	0.733107	0.142898	-0.480743
H198	H	0.192399	0.413398	0.480458
F199	F	0.296595	-0.066473	0.180445
H200	H	0.733086	0.413160	-0.694380
H201	H	0.272674	0.603339	0.519652
H202	H	0.571167	0.408186	-0.792441
F203	F	0.784285	0.462307	-0.698790
F204	F	0.738669	0.130577	-0.121946
F205	F	0.647257	0.406402	-0.522620
H206	H	0.652808	0.223196	-0.107159
F207	F	0.738575	0.518256	-0.477930
F208	F	0.266124	0.383351	-0.172045
F209	F	0.278231	0.406578	0.279194
F210	F	-0.134125	0.579929	0.255137
F211	F	0.628860	-0.141397	-0.180659
H212	H	0.669530	0.358968	-0.637673
H213	H	0.310153	0.065023	0.165694
H214	H	0.272681	0.701648	0.305984
F215	F	0.350820	0.518438	-0.279263
H216	H	0.652789	0.223215	-0.306272
F217	F	0.350794	-0.297136	0.121541
H218	H	0.203117	0.532074	0.151106
F219	F	0.141152	0.784020	0.000079
H220	H	0.177163	0.354577	-0.234556
H221	H	0.733127	0.241194	-0.694429
F222	F	-0.431961	0.541486	0.171726
F223	F	0.186848	0.794273	0.477755
H224	H	0.192356	0.781975	0.106894
F225	F	0.141147	0.784055	0.698595
F226	F	0.647264	0.333833	-0.522641
F227	F	-0.175529	0.579917	0.255124
F228	F	0.107731	0.541641	0.171917
H229	H	0.773282	0.151879	-0.674835
H230	H	0.561084	-0.316556	-0.106999
H231	H	0.342305	0.392956	-0.151166
H232	H	0.044454	0.354544	-0.234634
H233	H	-0.035796	0.354525	-0.234656
H234	H	-0.038743	0.570362	0.234323
F235	F	-0.182259	0.383225	-0.172193
F236	F	0.100981	0.344968	-0.255414
F237	F	0.350837	0.333996	0.121428
F238	F	0.350823	0.242676	0.121471
F239	F	-0.273585	0.383202	-0.172216
H240	H	0.310159	0.145280	0.165665
H241	H	0.561076	-0.396815	-0.107000
F242	F	0.350794	-0.205796	0.121529
H243	H	0.615316	-0.087668	-0.165928
H244	H	0.615317	-0.007405	-0.165916
H245	H	0.561116	0.142971	-0.107088
F246	F	0.296593	0.024864	0.180436
F247	F	0.628855	-0.232717	-0.180642
F248	F	0.574673	0.221998	-0.121808
