data_functionalizedCrystal
_audit_creation_method	'MofGen! by Chris Wilmer'
_symmetry_space_group_name_H-M	'P1'
_symmetry_Int_Tables_number	1
_symmetry_cell_setting	triclinic
loop_
_symmetry_equiv_pos_as_xyz
  x,y,z
_cell_length_a	12.759395
_cell_length_b	18.050590
_cell_length_c	12.759387
_cell_angle_alpha	90.035119
_cell_angle_beta	90.021028
_cell_angle_gamma	90.019314
loop_
_atom_site_label
_atom_site_type_symbol
_atom_site_fract_x
_atom_site_fract_y
_atom_site_fract_z
Zn1	Zn	1.606241	-0.295605	0.593988
Zn2	Zn	1.606119	-0.419814	0.418295
Zn3	Zn	1.430539	-0.295644	0.418323
Zn4	Zn	1.430519	-0.419760	0.593933
O5	O	1.518354	-0.357706	0.506135
O6	O	1.753246	-0.312088	0.570693
O7	O	1.582786	-0.403382	0.271278
O8	O	1.453905	-0.191714	0.441661
O9	O	1.753157	-0.403344	0.441613
O10	O	1.582992	-0.191686	0.570721
O11	O	1.453787	-0.312154	0.271298
O12	O	1.283515	-0.312102	0.441607
O13	O	1.453872	-0.403251	0.740961
O14	O	1.283501	-0.403289	0.570626
O15	O	1.582973	-0.312035	0.741002
O16	O	1.582767	-0.523731	0.441559
O17	O	1.453754	-0.523691	0.570599
C18	C	1.245387	-0.357694	0.506114
C19	C	1.128610	-0.357707	0.506130
C20	C	0.909268	-0.262852	0.640794
C21	C	0.964181	-0.215409	0.708096
C22	C	1.073902	-0.215396	0.708078
C23	C	1.128714	-0.262833	0.640753
C24	C	1.073801	-0.310277	0.573451
C25	C	0.964077	-0.310283	0.573474
C26	C	1.073698	-0.405150	0.438829
C27	C	0.963976	-0.405160	0.438840
C28	C	1.128509	-0.452587	0.371503
C29	C	1.073597	-0.500028	0.304194
C30	C	0.963868	-0.500038	0.304215
C31	C	0.909064	-0.452603	0.371538
C32	C	1.518274	-0.550658	0.506093
C33	C	1.518335	-0.633204	0.506110
C34	C	1.588638	-0.832649	0.436036
C35	C	1.614308	-0.881973	0.531923
C36	C	1.518395	-0.784334	0.506152
C37	C	1.492832	-0.882091	0.410308
C38	C	1.518455	-0.930319	0.506184
C39	C	1.544114	-0.832571	0.602090
C40	C	1.422594	-0.832684	0.480410
C41	C	1.448227	-0.881987	0.576363
C42	C	1.518363	-0.700236	0.506132
C43	C	1.518486	-1.014416	0.506215
C44	C	1.792388	-0.357718	0.506156
C45	C	1.909165	-0.357723	0.506165
C46	C	1.518434	-0.357633	0.780168
C47	C	1.518468	-0.357602	0.896945
C48	C	1.518464	-0.164000	0.506200
C49	C	1.518511	-0.081454	0.506228
C50	C	1.518336	-0.357725	0.233167
C51	C	1.518506	-0.357546	0.116391
C52	C	1.652910	-0.262625	0.897007
C53	C	1.720146	-0.215126	0.951899
C54	C	1.720172	-0.215099	1.061621
C55	C	1.652952	-0.262575	1.116453
C56	C	1.585716	-0.310074	1.061561
C57	C	1.585700	-0.310098	0.951837
C58	C	1.451270	-0.405046	1.061499
C59	C	1.451248	-0.405078	0.951778
C60	C	1.384050	-0.452522	1.116332
C61	C	1.316817	-0.500026	1.061440
C62	C	1.316796	-0.500052	0.951711
C63	C	1.384012	-0.452577	0.896886
H64	H	1.118612	-0.176765	0.762883
C65	C	1.384075	-0.452497	1.237022
H66	H	1.334409	-0.487570	1.261814
H67	H	1.451868	-0.465343	1.261848
H68	H	1.365941	-0.404562	1.261863
C69	C	1.794079	-0.162901	0.891588
H70	H	1.834117	-0.134604	0.939995
H71	H	1.839829	-0.191321	0.848777
H72	H	1.753892	-0.130546	0.848797
H73	H	1.652970	-0.262542	1.205794
H74	H	1.774915	-0.176416	1.106314
C75	C	1.313144	-0.803408	0.450939
H76	H	1.286217	-0.774441	0.506981
H77	H	1.318169	-0.773735	0.389685
H78	H	1.267512	-0.843993	0.437982
H79	H	1.217850	-0.452578	0.371499
C80	C	1.463641	-0.911538	0.300817
H81	H	1.401678	-0.940542	0.305527
H82	H	1.452009	-0.871043	0.254751
H83	H	1.519253	-0.941229	0.274638
C84	C	1.573489	-0.803321	0.711636
H85	H	1.585736	-0.843921	0.757373
H86	H	1.635137	-0.774001	0.706840
H87	H	1.517704	-0.774005	0.738285
H88	H	0.919541	-0.176788	0.762913
H89	H	1.262087	-0.538673	1.106093
C90	C	1.242853	-0.552315	0.891338
H91	H	1.202838	-0.580590	0.939712
H92	H	1.197083	-0.523926	0.848526
H93	H	1.283034	-0.584690	0.848544
C94	C	0.903468	-0.552228	0.230186
H95	H	0.830270	-0.545447	0.239841
H96	H	0.921416	-0.541302	0.159620
H97	H	0.921445	-0.602139	0.245445
H98	H	1.384005	-0.452597	0.807545
H99	H	1.388850	-0.903513	0.635740
C100	C	1.723783	-0.911230	0.561365
H101	H	1.773593	-0.894342	0.511468
H102	H	1.742448	-0.893546	0.628980
H103	H	1.722851	-0.963855	0.561784
C104	C	1.652890	-0.262656	0.776317
H105	H	1.702546	-0.227577	0.751523
H106	H	1.671014	-0.310589	0.751480
H107	H	1.585093	-0.249804	0.751489
H108	H	1.218055	-0.262826	0.640754
C109	C	1.133889	-0.552200	0.230146
H110	H	1.207099	-0.545397	0.239774
H111	H	1.115898	-0.602114	0.245389
H112	H	1.115879	-0.541265	0.159582
C113	C	0.788578	-0.262863	0.640816
H114	H	0.763799	-0.227822	0.690554
H115	H	0.763720	-0.249969	0.573055
H116	H	0.763756	-0.310808	0.658876
H117	H	1.648061	-0.810985	0.376803
C118	C	0.788373	-0.452615	0.371560
H119	H	0.763516	-0.487661	0.321832
H120	H	0.763587	-0.465514	0.439331
H121	H	0.763558	-0.404674	0.353511
