data_functionalizedCrystal
_audit_creation_method	'MofGen! by Chris Wilmer'
_symmetry_space_group_name_H-M	'P1'
_symmetry_Int_Tables_number	1
_symmetry_cell_setting	triclinic
loop_
_symmetry_equiv_pos_as_xyz
  x,y,z
_cell_length_a	18.215407
_cell_length_b	18.215405
_cell_length_c	11.169409
_cell_angle_alpha	89.961391
_cell_angle_beta	89.978878
_cell_angle_gamma	90.021279
loop_
_atom_site_label
_atom_site_type_symbol
_atom_site_fract_x
_atom_site_fract_y
_atom_site_fract_z
Zn1	Zn	1.125108	-0.292975	-0.678508
Zn2	Zn	1.125010	-0.416066	-0.477802
Zn3	Zn	1.002032	-0.293012	-0.477840
Zn4	Zn	1.002009	-0.415999	-0.678445
O5	O	1.063540	-0.354513	-0.578149
O6	O	1.228079	-0.309316	-0.651894
O7	O	1.108665	-0.399786	-0.309858
O8	O	1.018409	-0.190023	-0.504501
O9	O	1.228007	-0.399750	-0.504437
O10	O	1.108832	-0.189996	-0.651931
O11	O	1.018313	-0.309379	-0.309885
O12	O	0.899044	-0.309314	-0.504441
O13	O	1.018370	-0.399636	-0.846404
O14	O	0.899028	-0.399672	-0.651824
O15	O	1.108810	-0.309251	-0.846449
O16	O	1.108643	-0.519041	-0.504376
O17	O	1.018274	-0.518992	-0.651788
C18	C	0.872333	-0.354491	-0.578130
C19	C	0.790534	-0.354499	-0.578151
C20	C	1.063465	-0.545719	-0.578097
C21	C	1.063501	-0.627518	-0.578115
C22	C	0.525487	-0.401640	-0.654786
C23	C	0.602346	-0.401633	-0.654781
C24	C	0.602333	-0.307403	-0.501533
C25	C	0.525476	-0.307414	-0.501533
C26	C	0.487055	-0.354531	-0.578167
C27	C	0.640771	-0.354514	-0.578160
C28	C	0.724105	-0.354507	-0.578154
C29	C	0.403716	-0.354539	-0.578173
C30	C	1.110694	-0.892577	-0.501520
C31	C	1.110663	-0.815718	-0.501493
C32	C	1.016477	-0.815708	-0.654859
C33	C	1.016504	-0.892565	-0.654879
C34	C	1.063616	-0.930998	-0.578212
C35	C	1.063559	-0.777282	-0.578164
C36	C	1.063526	-0.693948	-0.578135
C37	C	1.063649	-1.014337	-0.578239
C38	C	1.255492	-0.354536	-0.578168
C39	C	1.337291	-0.354546	-0.578176
C40	C	1.063599	-0.354432	-0.891192
C41	C	1.063624	-0.354397	-1.024592
C42	C	1.063634	-0.162560	-0.578227
C43	C	1.063674	-0.080761	-0.578260
C44	C	1.063523	-0.354541	-0.266324
C45	C	1.063641	-0.354369	-0.132925
H46	H	0.494207	-0.440006	-0.717186
F47	F	0.966344	-0.774799	-0.736457
F48	F	0.643245	-0.451775	-0.736327
F49	F	1.160833	-0.933477	-0.419921
H50	H	0.633625	-0.269041	-0.439142
H51	H	1.148997	-0.784438	-0.439042
F52	F	0.966394	-0.933458	-0.736507
H53	H	0.494183	-0.269051	-0.439135
