data_functionalizedCrystal
_audit_creation_method	'MofGen! by Chris Wilmer'
_symmetry_space_group_name_H-M	'P1'
_symmetry_Int_Tables_number	1
_symmetry_cell_setting	triclinic
loop_
_symmetry_equiv_pos_as_xyz
  x,y,z
_cell_length_a	16.109318
_cell_length_b	16.109304
_cell_length_c	14.048226
_cell_angle_alpha	89.996377
_cell_angle_beta	89.997121
_cell_angle_gamma	83.465600
loop_
_atom_site_label
_atom_site_type_symbol
_atom_site_fract_x
_atom_site_fract_y
_atom_site_fract_z
O1	O	1.103126	0.106937	-0.079075
O2	O	1.603126	0.606937	0.420925
O3	O	0.861066	0.120222	-0.079094
O4	O	1.361066	0.620222	0.420906
O5	O	0.988745	-0.007451	-0.079085
O6	O	1.488745	0.492549	0.420915
O7	O	0.975448	0.234610	-0.079085
O8	O	1.475448	0.734610	0.420915
O9	O	0.988729	-0.007458	0.079237
O10	O	1.488729	0.492542	0.579237
O11	O	0.861051	0.120214	0.079227
O12	O	1.361051	0.620214	0.579227
O13	O	1.103111	0.106930	0.079246
O14	O	1.603111	0.606930	0.579246
Zn15	Zn	0.982078	0.113571	0.104374
Zn16	Zn	1.482078	0.613571	0.604374
Zn17	Zn	0.982099	0.113581	-0.104222
Zn18	Zn	1.482099	0.613581	0.395778
O19	O	0.975432	0.234602	0.079237
O20	O	1.475432	0.734602	0.579237
C21	C	0.830084	0.119677	0.000064
C22	C	1.330084	0.619677	0.500064
C23	C	0.737789	0.118056	0.000057
C24	C	1.237789	0.618056	0.500057
C25	C	0.988198	-0.038430	0.000074
C26	C	1.488198	0.461570	0.500074
C27	C	0.986582	-0.130725	0.000067
C28	C	1.486582	0.369275	0.500067
C29	C	0.438724	0.112826	-0.086227
C30	C	0.938724	0.612826	0.413773
C31	C	0.525445	0.114343	-0.086233
C32	C	1.025445	0.614343	0.413767
C33	C	0.525447	0.114323	0.086378
C34	C	1.025447	0.614323	0.586378
C35	C	0.438728	0.112800	0.086382
C36	C	0.938728	0.612800	0.586382
C37	C	0.395368	0.112055	0.000077
C38	C	0.895368	0.612055	0.500077
C39	C	0.568809	0.115096	0.000066
C40	C	1.068809	0.615096	0.500066
C41	C	0.662836	0.116741	0.000061
C42	C	1.162836	0.616741	0.500061
C43	C	0.301336	0.110408	0.000082
C44	C	0.801336	0.610408	0.500082
C45	C	0.982857	-0.343058	-0.086231
C46	C	1.482857	0.156942	0.413769
C47	C	0.981331	-0.429779	-0.086230
C48	C	1.481331	0.070221	0.413770
C49	C	0.981318	-0.429784	0.086381
C50	C	1.481318	0.070216	0.586381
C51	C	0.982838	-0.343064	0.086379
C52	C	1.482838	0.156936	0.586379
C53	C	0.983612	-0.299704	0.000071
C54	C	1.483612	0.200296	0.500071
C55	C	0.980565	-0.473144	0.000073
C56	C	1.480565	0.026856	0.500073
C57	C	0.978911	-0.567170	0.000075
C58	C	1.478911	-0.067170	0.500075
C59	C	0.985265	-0.205672	0.000069
C60	C	1.485265	0.294328	0.500069
C61	C	1.134093	0.107474	0.000086
C62	C	1.634093	0.607474	0.500086
C63	C	1.226388	0.109095	0.000087
C64	C	1.726388	0.609095	0.500087
C65	C	0.975979	0.265581	0.000076
C66	C	1.475979	0.765581	0.500076
C67	C	0.977595	0.357876	0.000076
C68	C	1.477595	0.857876	0.500076
N69	N	0.982071	0.113564	0.246734
N70	N	1.482071	0.613564	0.746734
N71	N	0.982113	0.113581	-0.246582
N72	N	1.482113	0.613581	0.253418
C73	C	1.038624	0.057053	0.296556
C74	C	1.538624	0.557053	0.796556
C75	C	1.038630	0.057053	0.396214
C76	C	1.538630	0.557053	0.896214
C77	C	0.982085	0.113567	0.446048
C78	C	1.482085	0.613567	0.946048
C79	C	0.925526	0.170080	0.396219
C80	C	1.425526	0.670080	0.896219
C81	C	0.925517	0.170076	0.296563
C82	C	1.425517	0.670076	0.796563
C83	C	0.925550	0.170086	0.603933
C84	C	1.425550	0.670086	1.103933
C85	C	0.925559	0.170091	0.703596
C86	C	1.425559	0.670091	1.203596
C87	C	1.038663	0.057063	0.703584
C88	C	1.538663	0.557063	1.203584
C89	C	1.038654	0.057059	0.603928
C90	C	1.538654	0.557059	1.103928
C91	C	0.982095	0.113573	0.554106
C92	C	1.482095	0.613573	1.054106
H93	H	0.403423	0.112218	-0.156503
H94	H	0.903423	0.612218	0.343497
H95	H	1.084673	0.011037	0.255988
H96	H	1.584673	0.511037	0.755988
H97	H	0.879514	0.216110	0.744165
H98	H	1.379514	0.716110	1.244165
C99	C	0.980470	-0.477488	0.181315
C100	C	1.480470	0.022512	0.681315
N101	N	0.979834	-0.513419	0.252822
N102	N	1.479834	-0.013419	0.752822
C103	C	0.983668	-0.295372	0.181322
C104	C	1.483668	0.204628	0.681322
N105	N	0.984290	-0.259450	0.252830
N106	N	1.484290	0.240550	0.752830
H107	H	0.560742	0.114969	-0.156511
H108	H	1.060742	0.614969	0.343489
H109	H	0.403427	0.112172	0.156666
H110	H	0.903427	0.612172	0.656666
H111	H	0.980714	-0.465073	-0.156505
H112	H	1.480714	0.034927	0.343495
C113	C	0.573146	0.115187	0.181308
C114	C	1.073146	0.615187	0.681308
N115	N	0.609069	0.115854	0.252812
N116	N	1.109069	0.615854	0.752812
H117	H	0.879490	0.216103	0.563371
H118	H	1.379490	0.716103	1.063371
H119	H	1.084680	0.011038	0.436779
H120	H	1.584680	0.511038	0.936779
C121	C	0.983698	-0.295364	-0.181172
C122	C	1.483698	0.204636	0.318828
N123	N	0.984328	-0.259443	-0.252685
N124	N	1.484328	0.240557	0.247315
C125	C	1.100856	-0.005109	0.549113
C126	C	1.600856	0.494891	1.049113
N127	N	1.147705	-0.051938	0.507827
N128	N	1.647705	0.448062	1.007827
C129	C	1.100875	-0.005106	0.758390
C130	C	1.600875	0.494894	1.258390
N131	N	1.147733	-0.051929	0.799675
N132	N	1.647733	0.448071	1.299675
C133	C	0.863318	0.232239	0.451039
C134	C	1.363318	0.732239	0.951039
N135	N	0.816461	0.279058	0.492329
N136	N	1.316461	0.779058	0.992329
H137	H	0.879464	0.216091	0.255998
H138	H	1.379464	0.716091	0.755998
