data_functionalizedCrystal
_audit_creation_method	'MofGen! by Chris Wilmer'
_symmetry_space_group_name_H-M	'P1'
_symmetry_Int_Tables_number	1
_symmetry_cell_setting	triclinic
loop_
_symmetry_equiv_pos_as_xyz
  x,y,z
_cell_length_a	10.654549
_cell_length_b	15.944545
_cell_length_c	9.730223
_cell_angle_alpha	89.993498
_cell_angle_beta	89.997731
_cell_angle_gamma	83.990475
loop_
_atom_site_label
_atom_site_type_symbol
_atom_site_fract_x
_atom_site_fract_y
_atom_site_fract_z
O1	O	1.666309	0.117975	-0.114265
O2	O	1.300685	0.129216	-0.114276
O3	O	1.493485	0.001378	-0.114254
O4	O	1.473508	0.245813	-0.114287
O5	O	1.493473	0.001374	0.114326
O6	O	1.300672	0.129212	0.114304
O7	O	1.666297	0.117972	0.114315
Zn8	Zn	1.483482	0.123591	0.150601
Zn9	Zn	1.483499	0.123596	-0.150563
O10	O	1.473496	0.245809	0.114293
C11	C	1.253891	0.128389	0.000013
C12	C	1.114480	0.125919	0.000010
C13	C	0.903019	0.198862	0.000005
C14	C	1.034009	0.201188	-0.000003
C15	C	1.063954	0.048319	0.000017
C16	C	0.932966	0.045994	0.000016
C17	C	1.492651	-0.029923	0.000037
C18	C	1.490169	-0.123183	0.000041
C19	C	1.363245	-0.394551	0.000010
C20	C	1.424444	-0.343609	-0.112691
C21	C	1.481317	-0.458878	0.000002
C22	C	1.424463	-0.343640	0.112671
C23	C	1.485660	-0.293940	0.000023
C24	C	1.542484	-0.409165	-0.112792
C25	C	1.542486	-0.409199	0.112671
C26	C	1.603771	-0.358290	-0.000057
C27	C	1.478812	-0.553895	-0.000012
C28	C	1.488174	-0.198926	0.000027
C29	C	1.713090	0.118799	0.000023
C30	C	1.852501	0.121268	0.000017
C31	C	1.474330	0.277110	-0.000002
C32	C	1.476812	0.370371	-0.000014
N33	N	1.483480	0.123588	0.356138
N34	N	1.483511	0.123593	-0.356099
C35	C	1.568881	0.067005	0.428073
C36	C	1.568894	0.067006	0.571956
C37	C	1.398100	0.180178	0.571955
C38	C	1.398083	0.180173	0.428075
H39	H	1.129484	-0.012966	0.000020
Cl40	Cl	1.676233	-0.004134	0.337644
Cl41	Cl	0.801868	0.293492	-0.000000
H42	H	1.328573	0.226250	0.630541
Cl43	Cl	0.869453	-0.051561	0.000012
H44	H	1.374584	-0.314962	-0.207974
Cl45	Cl	1.676257	-0.004131	0.662386
H46	H	1.261560	-0.410791	-0.000103
Cl47	Cl	1.619422	-0.453187	-0.260062
H48	H	1.075133	0.264373	-0.000014
Cl49	Cl	1.760882	-0.333457	-0.000148
Cl50	Cl	1.619398	-0.453457	0.259788
H51	H	1.328533	0.226250	0.369501
Cl52	Cl	1.347440	-0.299445	0.259770
