data_functionalizedCrystal
_audit_creation_method	'MofGen! by Chris Wilmer'
_symmetry_space_group_name_H-M	'P1'
_symmetry_Int_Tables_number	1
_symmetry_cell_setting	triclinic
loop_
_symmetry_equiv_pos_as_xyz
  x,y,z
_cell_length_a	16.109295
_cell_length_b	14.586319
_cell_length_c	16.109301
_cell_angle_alpha	90.005214
_cell_angle_beta	96.539666
_cell_angle_gamma	89.999424
loop_
_atom_site_label
_atom_site_type_symbol
_atom_site_fract_x
_atom_site_fract_y
_atom_site_fract_z
O1	O	-1.103134	0.076181	0.106844
O2	O	-0.769800	0.409514	0.440177
O3	O	-0.436467	0.742847	0.773511
O4	O	-0.861071	0.076197	0.120148
O5	O	-0.527738	0.409530	0.453481
O6	O	-0.194404	0.742863	0.786815
O7	O	-0.988752	0.076179	-0.007535
O8	O	-0.655419	0.409512	0.325798
O9	O	-0.322085	0.742846	0.659132
O10	O	-0.975453	0.076199	0.234527
O11	O	-0.642119	0.409532	0.567860
O12	O	-0.308786	0.742865	0.901194
O13	O	-0.988743	-0.076302	-0.007537
O14	O	-0.655410	0.257032	0.325796
O15	O	-0.322077	0.590365	0.659130
O16	O	-0.861062	-0.076284	0.120146
O17	O	-0.527729	0.257049	0.453480
O18	O	-0.194396	0.590383	0.786813
O19	O	-1.103125	-0.076300	0.106842
O20	O	-0.769792	0.257033	0.440175
O21	O	-0.436458	0.590367	0.773509
Cu22	Cu	-0.982093	-0.090215	0.113494
Cu23	Cu	-0.648759	0.243119	0.446827
Cu24	Cu	-0.315426	0.576452	0.780161
Cu25	Cu	-0.982103	0.090111	0.113496
Cu26	Cu	-0.648770	0.423445	0.446829
Cu27	Cu	-0.315437	0.756778	0.780163
O28	O	-0.975444	-0.076282	0.234525
O29	O	-0.642111	0.257051	0.567859
O30	O	-0.308777	0.590384	0.901192
C31	C	-0.830092	-0.000042	0.119609
C32	C	-0.496758	0.333292	0.452942
C33	C	-0.163425	0.666625	0.786276
C34	C	-0.737796	-0.000036	0.117996
C35	C	-0.404463	0.333297	0.451329
C36	C	-0.071129	0.666631	0.784662
C37	C	-0.515523	-0.000040	0.190008
C38	C	-0.182190	0.333293	0.523341
C39	C	0.151143	0.666627	0.856675
C40	C	-0.428803	-0.000046	0.188486
C41	C	-0.095469	0.333288	0.521819
C42	C	0.237864	0.666621	0.855152
C43	C	-0.448677	-0.000054	0.036996
C44	C	-0.115344	0.333279	0.370330
C45	C	0.217990	0.666613	0.703663
C46	C	-0.535396	-0.000055	0.038520
C47	C	-0.202063	0.333278	0.371853
C48	C	0.131271	0.666612	0.705186
C49	C	-0.568816	-0.000043	0.115028
C50	C	-0.235483	0.333290	0.448361
C51	C	0.097850	0.666623	0.781695
C52	C	-0.395377	-0.000048	0.111982
C53	C	-0.062044	0.333285	0.445316
C54	C	0.271290	0.666619	0.778649
C55	C	-0.301351	-0.000054	0.110331
C56	C	0.031983	0.333279	0.443665
C57	C	0.365316	0.666613	0.776998
C58	C	-0.662849	-0.000039	0.116679
C59	C	-0.329515	0.333295	0.450013
C60	C	0.003818	0.666628	0.783346
N61	N	-0.982091	-0.217046	0.113492
N62	N	-0.648758	0.116287	0.446825
N63	N	-0.315425	0.449620	0.780158
C64	C	-1.038647	-0.452061	0.056973
C65	C	-0.705314	-0.118727	0.390306
C66	C	-0.371981	0.214606	0.723639
C67	C	-1.038650	-0.548042	0.056971
C68	C	-0.705316	-0.214709	0.390304
C69	C	-0.371983	0.118625	0.723637
C70	C	-0.925549	-0.548036	0.170014
C71	C	-0.592216	-0.214702	0.503347
C72	C	-0.258883	0.118631	0.836680
C73	C	-0.925544	-0.452056	0.170011
C74	C	-0.592210	-0.118723	0.503344
C75	C	-0.258877	0.214610	0.836678
C76	C	-0.982097	-0.404071	0.113491
C77	C	-0.648764	-0.070738	0.446825
C78	C	-0.315431	0.262595	0.780158
C79	C	-0.982105	-0.596032	0.113492
C80	C	-0.648772	-0.262699	0.446825
C81	C	-0.315439	0.070635	0.780159
C82	C	-0.982108	-0.700099	0.113490
C83	C	-0.648774	-0.366766	0.446824
C84	C	-0.315441	-0.033432	0.780157
C85	C	-0.982094	-0.299997	0.113492
C86	C	-0.648761	0.033336	0.446825
C87	C	-0.315428	0.366669	0.780159
C88	C	-0.134104	-0.000058	0.107386
C89	C	0.199230	0.333275	0.440719
C90	C	0.532563	0.666608	0.774053
C91	C	-0.226397	-0.000055	0.109014
C92	C	0.106936	0.333278	0.442348
C93	C	0.440270	0.666612	0.775681
C94	C	-0.988209	-0.000062	-0.038511
C95	C	-0.654876	0.333272	0.294822
C96	C	-0.321542	0.666605	0.628156
C97	C	-0.986594	-0.000063	-0.130806
C98	C	-0.653260	0.333270	0.202527
C99	C	-0.319927	0.666604	0.535860
N100	N	-0.982111	0.216943	0.113492
N101	N	-0.648778	0.550277	0.446825
N102	N	-0.315444	0.883610	0.780158
C103	C	-1.058602	-0.000053	-0.353080
C104	C	-0.725268	0.333280	-0.019747
C105	C	-0.391935	0.666613	0.313587
C106	C	-1.057078	-0.000046	-0.439800
C107	C	-0.723744	0.333288	-0.106467
C108	C	-0.390411	0.666621	0.226866
C109	C	-0.905588	-0.000039	-0.419923
C110	C	-0.572255	0.333294	-0.086590
C111	C	-0.238922	0.666627	0.246744
C112	C	-0.907113	-0.000040	-0.333204
C113	C	-0.573780	0.333293	0.000129
C114	C	-0.240447	0.666626	0.333462
C115	C	-0.983622	-0.000052	-0.299785
C116	C	-0.650289	0.333281	0.033548
C117	C	-0.316956	0.666615	0.366881
C118	C	-0.980573	-0.000043	-0.473225
C119	C	-0.647240	0.333290	-0.139891
C120	C	-0.313907	0.666623	0.193442
C121	C	-0.978920	-0.000035	-0.567251
C122	C	-0.645587	0.333298	-0.233917
C123	C	-0.312254	0.666632	0.099416
C124	C	-0.985276	-0.000058	-0.205754
C125	C	-0.651943	0.333275	0.127580
C126	C	-0.318609	0.666608	0.460913
C127	C	-0.975987	-0.000039	0.265501
C128	C	-0.642654	0.333294	0.598834
C129	C	-0.309320	0.666627	0.932168
C130	C	-0.977602	-0.000032	0.357796
C131	C	-0.644269	0.333301	0.691130
C132	C	-0.310935	0.666635	1.024463
H133	H	-0.421455	-0.000069	-0.025294
H134	H	-0.088122	0.333264	0.308039
H135	H	0.245212	0.666598	0.641373
H136	H	-0.578790	-0.000060	-0.022542
H137	H	-0.245457	0.333273	0.310791
H138	H	0.087877	0.666606	0.644125
H139	H	-0.846052	-0.000037	-0.289809
H140	H	-0.512719	0.333297	0.043524
H141	H	-0.179386	0.666630	0.376857
O142	O	-1.099643	-0.599806	-0.003988
O143	O	-0.766309	-0.266473	0.329346
O144	O	-0.432976	0.066860	0.662679
H145	H	-1.140032	-0.643534	0.031026
H146	H	-0.806699	-0.310201	0.364359
H147	H	-0.473365	0.023133	0.697693
H148	H	-1.118133	-0.000045	-0.483190
H149	H	-0.784800	0.333289	-0.149857
H150	H	-0.451467	0.666622	0.183477
O151	O	-0.551573	-0.000035	0.272524
O152	O	-0.218239	0.333298	0.605857
O153	O	0.115094	0.666632	0.939190
H154	H	-0.590611	-0.062181	0.276832
H155	H	-0.257278	0.271153	0.610165
H156	H	0.076056	0.604486	0.943498
O157	O	-1.099632	-0.400301	-0.003993
O158	O	-0.766298	-0.066967	0.329340
O159	O	-0.432965	0.266366	0.662673
H160	H	-1.138948	-0.449800	-0.043301
H161	H	-0.805614	-0.116467	0.290033
H162	H	-0.472281	0.216867	0.623366
H163	H	-1.120900	-0.000061	-0.325874
H164	H	-0.787567	0.333273	0.007460
H165	H	-0.454234	0.666606	0.340793
H166	H	-0.879506	-0.587115	0.216032
H167	H	-0.546172	-0.253781	0.549365
H168	H	-0.212839	0.079552	0.882698
H169	H	-0.385414	-0.000045	0.249542
H170	H	-0.052081	0.333289	0.582875
H171	H	0.281253	0.666622	0.916209
H172	H	-0.879490	-0.412981	0.216036
H173	H	-0.546156	-0.079647	0.549369
H174	H	-0.212823	0.253686	0.882702
H175	H	-0.843297	-0.000032	-0.447144
H176	H	-0.509964	0.333302	-0.113810
H177	H	-0.176631	0.666635	0.219523
