data_functionalizedCrystal
_audit_creation_method	'MofGen! by Chris Wilmer'
_symmetry_space_group_name_H-M	'P1'
_symmetry_Int_Tables_number	1
_symmetry_cell_setting	triclinic
loop_
_symmetry_equiv_pos_as_xyz
  x,y,z
_cell_length_a	15.298068
_cell_length_b	17.640280
_cell_length_c	15.296720
_cell_angle_alpha	89.704419
_cell_angle_beta	91.645182
_cell_angle_gamma	86.559969
loop_
_atom_site_label
_atom_site_type_symbol
_atom_site_fract_x
_atom_site_fract_y
_atom_site_fract_z
Zn1	Zn	1.311286	-0.220188	0.686657
Zn2	Zn	1.362691	-0.319595	0.521810
Zn3	Zn	1.188274	-0.212996	0.516154
Zn4	Zn	1.201833	-0.361089	0.635163
O5	O	1.266021	-0.278467	0.589946
O6	O	1.436905	-0.219019	0.688708
O7	O	1.355393	-0.285079	0.402265
O8	O	1.177405	-0.110370	0.557954
O9	O	1.474673	-0.292053	0.567596
O10	O	1.267781	-0.115654	0.683223
O11	O	1.227250	-0.206761	0.398109
O12	O	1.071273	-0.246996	0.508022
O13	O	1.200513	-0.362774	0.760788
O14	O	1.081234	-0.355800	0.595458
O15	O	1.280928	-0.259254	0.798621
O16	O	1.368541	-0.428679	0.517664
O17	O	1.250359	-0.459165	0.600943
C18	C	1.045450	-0.305121	0.545539
C19	C	0.951090	-0.316545	0.526558
C20	C	0.606488	-0.197004	0.725572
C21	C	0.695143	-0.186273	0.743409
C22	C	0.759134	-0.218840	0.689198
C23	C	0.734462	-0.262140	0.617146
C24	C	0.645798	-0.272876	0.599310
C25	C	0.798444	-0.294712	0.562937
C26	C	0.773772	-0.338012	0.490885
C27	C	0.685116	-0.348746	0.473052
C28	C	0.621125	-0.316179	0.527263
C29	C	0.887108	-0.283976	0.580772
C30	C	0.926418	-0.359848	0.454511
C31	C	0.837762	-0.370579	0.436673
C32	C	1.316520	-0.470779	0.554353
C33	C	1.338197	-0.553047	0.539170
C34	C	1.101648	-0.903086	0.705668
C35	C	1.122022	-0.980384	0.691375
C36	C	1.245138	-0.948585	0.604779
C37	C	1.224776	-0.871283	0.619069
C38	C	1.153029	-0.848540	0.669513
C39	C	1.276158	-0.816737	0.582914
C40	C	1.255795	-0.739441	0.597199
C41	C	1.184050	-0.716692	0.647639
C42	C	1.132666	-0.771245	0.683798
C43	C	1.347900	-0.839480	0.532465
C44	C	1.399282	-0.784934	0.496310
C45	C	1.378923	-0.707637	0.510600
C46	C	1.307178	-0.684888	0.561040
C47	C	1.430307	-0.653085	0.474440
C48	C	1.409944	-0.575789	0.488725
C49	C	1.286815	-0.607593	0.575324
C50	C	1.487454	-0.251709	0.634527
C51	C	1.581815	-0.240307	0.653525
C52	C	1.236499	-0.316445	0.811368
C53	C	1.223918	-0.332629	0.905725
C54	C	1.215346	-0.085404	0.625702
C55	C	1.193751	-0.003132	0.640938
C56	C	1.295463	-0.240578	0.369405
C57	C	1.308154	-0.224165	0.275120
C58	C	1.355934	-0.162665	1.250492
C59	C	1.367760	-0.147460	1.161840
C60	C	1.331801	-0.193750	1.097807
C61	C	1.284013	-0.255249	1.122435
C62	C	1.272192	-0.270459	1.211096
C63	C	1.248058	-0.301545	1.058411
C64	C	1.200271	-0.363044	1.083038
C65	C	1.188452	-0.378251	1.171691
C66	C	1.224411	-0.331960	1.235724
C67	C	1.259880	-0.286335	0.969750
C68	C	1.176137	-0.394129	0.930353
C69	C	1.164312	-0.409334	1.019005
H70	H	0.665033	-0.384010	0.414388
H71	H	1.364479	-0.902420	0.520838
Br72	Br	0.804267	-0.429339	0.338890
H73	H	0.978521	-0.386371	0.410371
Br74	Br	1.404744	-0.099857	1.337394
H75	H	0.907187	-0.248720	0.639437
H76	H	1.214786	-0.344337	1.307913
Br77	Br	0.879454	-0.204276	0.713407
H78	H	1.341432	-0.181367	1.025623
Br79	Br	1.004285	-0.872214	0.774142
H80	H	1.146858	-0.431824	0.878217
Br81	Br	0.500801	-0.330736	0.503053
Br82	Br	0.728623	-0.127518	0.841195
H83	H	1.451783	-0.531376	0.459283
H84	H	1.149549	-0.428332	1.191739
H85	H	1.298788	-0.236262	0.949707
H86	H	1.457696	-0.803462	0.455235
Br87	Br	1.052270	-1.054411	0.740432
Br88	Br	0.519645	-0.152826	0.799147
Br89	Br	1.527666	-0.683959	0.405973
H90	H	1.228397	-0.589076	0.616409
H91	H	1.406671	-0.097389	1.141795
H92	H	1.167467	-0.653752	0.659261
Br93	Br	1.342505	-0.979457	0.536322
H94	H	1.074248	-0.752728	0.724883
H95	H	1.125402	-0.459407	1.039070
