data_functionalizedCrystal
_audit_creation_method	'MofGen! by Chris Wilmer'
_symmetry_space_group_name_H-M	'P1'
_symmetry_Int_Tables_number	1
_symmetry_cell_setting	triclinic
loop_
_symmetry_equiv_pos_as_xyz
  x,y,z
_cell_length_a	12.594517
_cell_length_b	16.120847
_cell_length_c	16.120297
_cell_angle_alpha	89.836070
_cell_angle_beta	87.122039
_cell_angle_gamma	87.100418
loop_
_atom_site_label
_atom_site_type_symbol
_atom_site_fract_x
_atom_site_fract_y
_atom_site_fract_z
Zn1	Zn	1.575039	0.354925	0.453441
Zn2	Zn	1.575886	0.486935	0.307354
Zn3	Zn	1.406500	0.347897	0.314399
Zn4	Zn	1.388528	0.493939	0.446364
O5	O	1.486488	0.420924	0.380389
O6	O	1.724096	0.372446	0.434075
O7	O	1.561292	0.462618	0.191922
O8	O	1.436023	0.232463	0.338754
O9	O	1.724718	0.469433	0.326745
O10	O	1.559849	0.237627	0.440907
O11	O	1.436845	0.360468	0.197099
O12	O	1.255171	0.367259	0.331892
O13	O	1.405393	0.481371	0.563669
O14	O	1.241968	0.474556	0.428846
O15	O	1.542422	0.379238	0.568868
O16	O	1.543866	0.604230	0.319883
O17	O	1.406215	0.609376	0.422014
C18	C	1.209950	0.420906	0.380366
C19	C	1.091643	0.420919	0.380374
C20	C	1.499846	0.204029	0.391406
C21	C	1.505539	0.111601	0.396100
C22	C	1.515950	-0.057626	0.404669
C23	C	1.457216	-0.101373	0.356209
C24	C	1.463009	-0.195536	0.360977
C25	C	1.510158	0.036546	0.399902
C26	C	1.029538	0.362490	0.327751
C27	C	0.955481	0.437303	0.303457
C28	C	0.954898	0.346144	0.404680
C29	C	1.019144	0.495771	0.356039
C30	C	1.018569	0.404562	0.457300
C31	C	0.944538	0.479429	0.433033
C32	C	1.764106	0.420942	0.380414
C33	C	1.882410	0.420950	0.380424
C34	C	1.473210	0.636976	0.369434
C35	C	1.467625	0.729406	0.364775
C36	C	1.471809	0.431870	0.597284
C37	C	1.465553	0.436535	0.689712
C38	C	1.501175	0.409960	0.164341
C39	C	1.507651	0.405061	0.071926
C40	C	1.454094	0.445033	0.858939
C41	C	1.519107	0.396566	0.902704
C42	C	1.512731	0.401294	0.996868
C43	C	1.460469	0.440306	0.764767
H44	H	1.570583	-0.090889	0.449734
C45	C	0.916635	0.260702	0.432431
H46	H	0.945935	0.219246	0.394965
H47	H	0.841148	0.261471	0.432742
H48	H	0.939240	0.248671	0.486702
C49	C	1.057227	0.581235	0.328189
H50	H	0.997434	0.616921	0.316612
H51	H	1.102731	0.574857	0.279583
H52	H	1.095000	0.604659	0.371203
C53	C	1.079652	0.295801	0.267556
H54	H	1.058137	0.307576	0.212934
H55	H	1.056727	0.242780	0.284269
H56	H	1.155018	0.295921	0.268319
H57	H	1.402579	-0.068106	0.311142
C58	C	1.600774	0.335719	0.857789
H59	H	1.594408	0.340489	0.799475
H60	H	1.587708	0.280542	0.874799
H61	H	1.670597	0.348605	0.871374
C62	C	0.917861	0.456020	0.215607
H63	H	0.947139	0.414444	0.178265
H64	H	0.940863	0.508748	0.197994
H65	H	0.842366	0.456393	0.216364
C66	C	0.894682	0.546266	0.493172
H67	H	0.916739	0.599339	0.475790
H68	H	0.917240	0.535087	0.547614
H69	H	0.819297	0.545616	0.493198
C70	C	1.056226	0.385813	0.545128
H71	H	1.034366	0.332623	0.562301
H72	H	1.025914	0.426785	0.582697
H73	H	1.131644	0.386442	0.544563
H74	H	1.393652	0.490075	0.892189
