data_functionalizedCrystal
_audit_creation_method	'MofGen! by Chris Wilmer'
_symmetry_space_group_name_H-M	'P1'
_symmetry_Int_Tables_number	1
_symmetry_cell_setting	triclinic
loop_
_symmetry_equiv_pos_as_xyz
  x,y,z
_cell_length_a	27.732025
_cell_length_b	27.732048
_cell_length_c	26.809956
_cell_angle_alpha	89.996742
_cell_angle_beta	89.981157
_cell_angle_gamma	97.361939
loop_
_atom_site_label
_atom_site_type_symbol
_atom_site_fract_x
_atom_site_fract_y
_atom_site_fract_z
O1	O	0.057511	-0.640926	0.041400
O2	O	0.066256	-0.500132	0.041413
O3	O	-0.008514	-0.574908	0.041422
O4	O	0.132281	-0.566151	0.041392
O5	O	-0.008503	-0.574894	-0.041538
O6	O	0.066268	-0.500118	-0.041546
O7	O	0.057522	-0.640912	-0.041559
Zn8	Zn	0.061897	-0.570513	-0.054724
Zn9	Zn	0.061882	-0.570531	0.054578
O10	O	0.132293	-0.566137	-0.041567
C11	C	0.066079	-0.482118	-0.000064
C12	C	0.065526	-0.428463	-0.000059
C13	C	-0.026515	-0.574719	-0.000053
C14	C	-0.080171	-0.574170	-0.000038
C15	C	0.057700	-0.658926	-0.000080
C16	C	0.058253	-0.712581	-0.000083
C17	C	-0.463343	-0.570281	0.045154
C18	C	-0.261683	-0.572334	0.045170
O19	O	-0.235621	-0.572625	0.083630
N20	N	-0.236456	-0.572582	-0.000050
C21	C	-0.261647	-0.572321	-0.045277
O22	O	-0.235563	-0.572585	-0.083739
C23	C	-0.463306	-0.570272	-0.045292
C24	C	-0.488530	-0.570019	-0.000069
C25	C	-0.488567	-0.570028	0.090373
C26	C	-0.538978	-0.569512	0.090369
C27	C	-0.564165	-0.569250	0.045145
C28	C	-0.538941	-0.569503	-0.000074
C29	C	-0.488496	-0.570015	-0.090518
C30	C	-0.538914	-0.569504	-0.090518
C31	C	-0.564138	-0.569250	-0.045296
C32	C	-0.614540	-0.568725	-0.045302
N33	N	-0.639767	-0.568476	-0.000082
C34	C	-0.614580	-0.568738	0.045142
C35	C	-0.155773	-0.573396	-0.045265
C36	C	-0.105358	-0.573908	-0.045262
C37	C	-0.105398	-0.573921	0.045185
C38	C	-0.155813	-0.573406	0.045181
C39	C	-0.181000	-0.573147	-0.000046
C40	C	-0.720448	-0.567655	0.045129
C41	C	-0.770863	-0.567137	0.045120
C42	C	-0.770819	-0.567126	-0.045326
C43	C	-0.720408	-0.567642	-0.045318
C44	C	-0.695223	-0.567907	-0.000086
O45	O	-0.640634	-0.568438	-0.083741
O46	O	-0.640674	-0.568485	0.083598
C47	C	-0.412931	-0.570797	0.045159
C48	C	-0.387707	-0.571050	-0.000060
C49	C	-0.412894	-0.570788	-0.045284
C50	C	-0.337292	-0.571561	-0.000057
C51	C	-0.312105	-0.571824	0.045167
C52	C	-0.337332	-0.571575	0.090386
C53	C	-0.387744	-0.571059	0.090382
C54	C	-0.387667	-0.571036	-0.090504
C55	C	-0.337255	-0.571552	-0.090496
C56	C	-0.312068	-0.571814	-0.045272
C57	C	0.150294	-0.566326	-0.000091
C58	C	0.203949	-0.566874	-0.000103
C59	C	0.106230	-0.089645	-0.000089
C60	C	0.104179	0.112014	-0.000093
O61	O	0.141400	0.143273	-0.000122
N62	N	0.059843	0.131135	-0.000083
C63	C	0.016017	0.099836	-0.000075
O64	O	-0.021740	0.120726	-0.000071
C65	C	0.018069	-0.101822	-0.000074
C66	C	0.062407	-0.120939	-0.000079
C67	C	0.150565	-0.108763	-0.000095
C68	C	0.151077	-0.159175	-0.000091
C69	C	0.107255	-0.190469	-0.000081
C70	C	0.062920	-0.171351	-0.000076
C71	C	-0.025757	-0.133119	-0.000070
C72	C	-0.025240	-0.183537	-0.000071
C73	C	0.019099	-0.202654	-0.000076
C74	C	0.019609	-0.253057	-0.000063
N75	N	0.063945	-0.272177	-0.000073
C76	C	0.107768	-0.240883	-0.000082
C77	C	0.014943	0.205710	-0.000074
C78	C	0.014430	0.256125	-0.000073
C79	C	0.102592	0.268299	-0.000092
C80	C	0.103105	0.217884	-0.000089
C81	C	0.059279	0.186590	-0.000084
C82	C	0.108840	-0.346752	-0.000074
C83	C	0.109348	-0.397169	-0.000068
C84	C	0.021187	-0.409339	-0.000052
C85	C	0.020678	-0.358927	-0.000055
C86	C	0.064509	-0.327634	-0.000068
O87	O	-0.017592	-0.284344	-0.000039
O88	O	0.145519	-0.261783	-0.000097
C89	C	0.105718	-0.039233	-0.000093
C90	C	0.061383	-0.020115	-0.000087
C91	C	0.017560	-0.051410	-0.000077
C92	C	0.060870	0.030299	-0.000086
C93	C	0.104692	0.061593	-0.000095
C94	C	0.149028	0.042473	-0.000106
C95	C	0.149540	-0.007939	-0.000102
C96	C	-0.026776	-0.032289	-0.000067
C97	C	-0.027284	0.018123	-0.000070
C98	C	0.016538	0.049417	-0.000080
N99	N	0.061907	-0.570504	-0.129320
C100	C	0.028782	-0.603638	-0.473942
C101	C	0.028774	-0.603649	-0.682820
O102	O	0.000613	-0.631801	-0.709821
N103	N	0.061871	-0.570534	-0.708947
C104	C	0.094970	-0.537412	-0.682852
O105	O	0.123118	-0.509242	-0.709867
C106	C	0.094975	-0.537398	-0.473975
C107	C	0.061879	-0.570519	-0.447850
C108	C	-0.004312	-0.636755	-0.447818
C109	C	-0.004308	-0.636754	-0.395602
C110	C	0.028790	-0.603635	-0.369510
C111	C	0.061883	-0.570517	-0.395634
C112	C	0.128071	-0.504274	-0.447880
C113	C	0.128069	-0.504273	-0.395658
C114	C	0.094973	-0.537393	-0.369533
C115	C	0.094984	-0.537397	-0.317326
N116	N	0.061887	-0.570512	-0.291199
C117	C	0.028790	-0.603631	-0.317291
C118	C	0.094966	-0.537422	-0.792515
C119	C	0.094965	-0.537426	-0.844734
C120	C	0.028769	-0.603663	-0.844699
C121	C	0.028772	-0.603661	-0.792479
C122	C	0.061869	-0.570537	-0.766388
C123	C	0.028801	-0.603626	-0.207633
C124	C	0.028809	-0.603623	-0.155412
C125	C	0.095004	-0.537384	-0.155452
C126	C	0.094998	-0.537389	-0.207668
C127	C	0.061892	-0.570511	-0.233757
O128	O	0.123127	-0.509256	-0.290293
O129	O	0.000640	-0.631789	-0.290266
C130	C	0.028778	-0.603639	-0.526159
C131	C	0.061871	-0.570522	-0.552283
C132	C	0.094969	-0.537403	-0.526191
C133	C	0.061871	-0.570526	-0.604502
C134	C	0.028773	-0.603645	-0.630594
C135	C	-0.004324	-0.636760	-0.604467
C136	C	-0.004320	-0.636758	-0.552251
C137	C	0.128066	-0.504288	-0.552318
C138	C	0.128059	-0.504292	-0.604535
C139	C	0.094962	-0.537411	-0.630626
N140	N	0.061868	-0.570544	0.129174
H141	H	-0.791398	-0.566928	0.081948
N142	N	-0.694728	-0.567934	0.091331
N143	N	-0.705085	-0.601966	0.121608
H144	H	-0.686920	-0.602162	0.154238
N145	N	-0.564733	-0.569253	0.136568
N146	N	-0.542230	-0.569489	0.176939
H147	H	-0.560416	-0.569308	0.209570
N148	N	-0.029827	0.173748	-0.000054
N149	N	-0.039383	0.144257	0.034919
H150	H	-0.071002	0.121685	0.034936
N151	N	-0.005051	-0.637480	-0.871359
N152	N	-0.034947	-0.622357	-0.900483
H153	H	-0.058836	-0.646235	-0.919313
N154	N	0.161877	-0.470450	-0.525678
N155	N	0.191421	-0.440887	-0.549017
H156	H	0.215304	-0.416988	-0.530205
H157	H	-0.176275	-0.573186	-0.082096
H158	H	0.184710	0.067962	-0.000111
N159	N	-0.071053	-0.113608	-0.000062
N160	N	-0.110172	-0.141564	-0.000057
H161	H	-0.142166	-0.127786	-0.000052
N162	N	-0.070009	-0.215501	-0.000054
N163	N	-0.079567	-0.244990	0.034921
H164	H	-0.111186	-0.267564	0.034935
N165	N	-0.071542	-0.064252	-0.000045
N166	N	-0.081097	-0.093739	0.034932
H167	H	-0.112716	-0.116311	0.034951
N168	N	-0.462852	-0.570299	0.136577
N169	N	-0.485389	-0.570074	0.176943
H170	H	-0.467231	-0.570263	0.209578
N171	N	0.128775	-0.503603	-0.871424
N172	N	0.158677	-0.518710	-0.900571
H173	H	0.182554	-0.494821	-0.919421
H174	H	-0.015426	-0.343361	-0.000043
H175	H	-0.084882	-0.574131	0.082008
N176	N	-0.311591	-0.571839	0.136577
N177	N	-0.266579	-0.572299	0.136568
H178	H	-0.248396	-0.572487	0.169188
N179	N	-0.462746	-0.570274	-0.136718
N180	N	-0.485251	-0.570044	-0.177088
H181	H	-0.467066	-0.570228	-0.209720
H182	H	-0.031270	-0.663728	-0.530984
N183	N	-0.181569	-0.573145	0.091379
N184	N	-0.159068	-0.573377	0.131751
H185	H	-0.177256	-0.573193	0.164381
N186	N	0.194836	-0.027454	-0.000116
N187	N	0.224296	-0.017737	-0.035093
H188	H	0.256289	-0.031515	-0.035104
N189	N	-0.030861	0.275648	-0.000074
N190	N	-0.040979	0.302420	-0.035045
H191	H	-0.072968	0.316206	-0.035050
N192	N	-0.311484	-0.571805	-0.136689
N193	N	-0.278638	-0.538008	-0.146781
H194	H	-0.260438	-0.538190	-0.179404
N195	N	0.153607	-0.314786	-0.000089
N196	N	0.163167	-0.285295	-0.035062
H197	H	0.194783	-0.262717	-0.035071
N198	N	-0.079601	-0.574156	-0.091460
N199	N	-0.102102	-0.573921	-0.131833
H200	H	-0.083913	-0.574098	-0.164462
N201	N	-0.038120	-0.670588	-0.474470
N202	N	-0.022996	-0.700480	-0.503611
H203	H	-0.046874	-0.724375	-0.522434
H204	H	-0.408169	-0.570824	-0.127331
H205	H	0.145456	-0.412731	-0.000072
H206	H	-0.014493	-0.434828	-0.000042
N207	N	-0.564634	-0.569241	-0.136722
N208	N	-0.542102	-0.569468	-0.177092
H209	H	-0.560265	-0.569281	-0.209724
N210	N	-0.694642	-0.567907	-0.091512
N211	N	-0.671223	-0.602284	-0.101602
H212	H	-0.653029	-0.602477	-0.134228
N213	N	-0.005010	-0.637448	-0.128731
N214	N	-0.049686	-0.637116	-0.134549
H215	H	-0.073573	-0.661002	-0.115707
H216	H	0.121953	-0.510420	-0.134199
H217	H	0.187182	-0.174735	-0.000095
N218	N	-0.005044	-0.637470	-0.765781
N219	N	-0.034936	-0.622339	-0.736639
H220	H	-0.058822	-0.646213	-0.717780
H221	H	0.121919	-0.510447	-0.771275
H222	H	-0.031271	-0.663728	-0.625719
N223	N	-0.072579	0.037646	-0.000077
N224	N	-0.082695	0.064413	-0.035052
H225	H	-0.114684	0.078200	-0.035062
H226	H	0.001843	-0.630597	-0.228869
N227	N	-0.796553	-0.566849	-0.091518
N228	N	-0.819972	-0.532475	-0.101607
H229	H	-0.838149	-0.532281	-0.134230
N230	N	-0.413498	-0.570798	0.136581
N231	N	-0.390995	-0.571032	0.176952
H232	H	-0.409181	-0.570848	0.209583
N233	N	0.195337	-0.076808	-0.000107
N234	N	0.234915	-0.093894	-0.000114
H235	H	0.266539	-0.071329	-0.000120
H236	H	0.139209	0.202323	-0.000096
H237	H	-0.031259	-0.663722	-0.374334
N238	N	0.161885	-0.470441	-0.474549
N239	N	0.191430	-0.440876	-0.451237
H240	H	0.215314	-0.416980	-0.470070
N241	N	0.147352	0.300278	-0.000105
N242	N	0.146882	0.345288	-0.000108
H243	H	0.178492	0.367875	-0.000122
N244	N	0.161879	-0.470431	-0.369015
N245	N	0.191423	-0.440864	-0.392351
H246	H	0.215303	-0.416964	-0.373536
N247	N	0.128809	-0.503556	-0.234349
N248	N	0.158357	-0.473988	-0.211043
H249	H	0.182233	-0.450089	-0.229883
H250	H	0.155014	-0.477322	-0.625801
