data_functionalizedCrystal
_audit_creation_method	'MofGen! by Chris Wilmer'
_symmetry_space_group_name_H-M	'P1'
_symmetry_Int_Tables_number	1
_symmetry_cell_setting	triclinic
loop_
_symmetry_equiv_pos_as_xyz
  x,y,z
_cell_length_a	10.654550
_cell_length_b	16.109304
_cell_length_c	9.730223
_cell_angle_alpha	89.998411
_cell_angle_beta	89.999957
_cell_angle_gamma	83.973784
loop_
_atom_site_label
_atom_site_type_symbol
_atom_site_fract_x
_atom_site_fract_y
_atom_site_fract_z
O1	O	1.666257	0.116774	-0.114178
O2	O	1.300627	0.127899	-0.114202
O3	O	1.493484	0.001365	-0.114190
O4	O	1.473400	0.243308	-0.114190
O5	O	1.493472	0.001362	0.114390
O6	O	1.300615	0.127896	0.114378
O7	O	1.666244	0.116770	0.114402
Zn8	Zn	1.483428	0.122332	0.150682
Zn9	Zn	1.483444	0.122337	-0.150482
O10	O	1.473387	0.243304	0.114390
C11	C	1.253834	0.127080	0.000084
C12	C	1.114424	0.124636	0.000075
C13	C	1.492664	-0.029616	0.000097
C14	C	1.490223	-0.121926	0.000087
C15	C	1.033929	0.199138	0.000079
C16	C	0.902939	0.196836	0.000103
C17	C	0.932953	0.045526	0.000113
C18	C	1.063940	0.047828	0.000099
C19	C	1.484590	-0.334295	-0.124507
C20	C	1.482285	-0.421029	-0.124506
C21	C	1.482278	-0.421029	0.124704
C22	C	1.484574	-0.334296	0.124702
C23	C	1.485736	-0.290932	0.000092
C24	C	1.481135	-0.464399	0.000096
C25	C	1.478636	-0.558439	0.000098
C26	C	1.488234	-0.196885	0.000089
C27	C	1.713037	0.117589	0.000112
C28	C	1.852447	0.120033	0.000113
C29	C	1.474208	0.274285	0.000100
C30	C	1.476649	0.366595	0.000101
N31	N	1.483426	0.122329	0.356218
N32	N	1.483456	0.122334	-0.356019
C33	C	1.568852	0.066323	0.428149
C34	C	1.568864	0.066324	0.572032
C35	C	1.398021	0.178342	0.572040
C36	C	1.398003	0.178337	0.428160
H37	H	1.075028	0.261680	0.000070
F38	F	1.485782	-0.288143	0.257324
F39	F	1.659783	0.006714	0.648582
F40	F	1.481040	-0.467188	0.257315
F41	F	1.659763	0.006712	0.351589
F42	F	1.307116	0.237949	0.648615
H43	H	0.837404	0.257503	0.000109
H44	H	1.129483	-0.012843	0.000100
F45	F	1.307072	0.237945	0.351599
H46	H	0.891832	-0.017009	0.000141
F47	F	1.481062	-0.467175	-0.257122
F48	F	1.485823	-0.288146	-0.257128
