data_functionalizedCrystal
_audit_creation_method	'MofGen! by Chris Wilmer'
_symmetry_space_group_name_H-M	'P1'
_symmetry_Int_Tables_number	1
_symmetry_cell_setting	triclinic
loop_
_symmetry_equiv_pos_as_xyz
  x,y,z
_cell_length_a	31.640172
_cell_length_b	31.640172
_cell_length_c	27.440280
_cell_angle_alpha	59.991654
_cell_angle_beta	90.008872
_cell_angle_gamma	59.998920
loop_
_atom_site_label
_atom_site_type_symbol
_atom_site_fract_x
_atom_site_fract_y
_atom_site_fract_z
Zr1	Zr	0.407155	0.462624	-0.063985
O2	O	0.339653	0.550822	-0.141832
O3	O	0.427851	0.374437	-0.040109
O4	O	0.427835	0.462628	-0.141801
O5	O	0.339678	0.462624	0.040062
O6	O	0.497392	0.462620	-0.141790
O7	O	0.339668	0.462631	-0.040140
O8	O	0.497420	0.304861	0.040117
O9	O	0.339650	0.620382	-0.141845
O10	O	0.488584	0.410699	-0.029933
O11	O	0.436681	0.410700	0.029913
O12	O	0.436663	0.514535	-0.089816
O13	O	0.384760	0.514536	-0.029970
Zr14	Zr	0.518106	0.462599	0.063945
Zr15	Zr	0.518091	0.462610	-0.063968
Zr16	Zr	0.407170	0.462613	0.063928
Zr17	Zr	0.407151	0.573564	-0.064007
Zr18	Zr	0.518110	0.351659	0.063967
O19	O	0.497410	0.550786	0.040069
O20	O	0.497389	0.550802	-0.141807
O21	O	0.339674	0.550806	0.040044
O22	O	0.585608	0.374401	0.141791
O23	O	0.585587	0.374417	-0.040085
O24	O	0.427872	0.374421	0.141767
O25	O	0.585583	0.462600	-0.040103
O26	O	0.497426	0.462595	0.141760
O27	O	0.427868	0.462604	0.141749
O28	O	0.585592	0.462593	0.040100
O29	O	0.427829	0.620371	-0.141832
O30	O	0.497432	0.304852	0.141791
O31	O	0.585611	0.304841	0.141805
O32	O	0.585599	0.304850	0.040131
O33	O	0.339662	0.620373	-0.040171
O34	O	0.427841	0.620362	-0.040158
O35	O	0.488598	0.410689	0.089775
O36	O	0.540501	0.410687	0.029929
O37	O	0.488580	0.514523	-0.029954
O38	O	0.436677	0.514524	0.029892
C39	C	0.462636	0.323842	0.000007
C40	C	0.462638	0.276745	0.000016
C41	C	0.323867	0.462629	-0.000042
C42	C	0.276772	0.462635	-0.000049
C43	C	0.424305	0.023079	-0.044229
C44	C	0.424301	-0.153902	-0.044245
O45	O	0.391719	-0.144188	-0.081850
N46	N	0.462627	-0.214362	-0.000047
C47	C	0.500958	-0.230578	0.044156
O48	O	0.533560	-0.286064	0.081745
C49	C	0.500964	-0.053597	0.044169
C50	C	0.462633	0.006864	-0.000028
C51	C	0.385977	0.083537	-0.088423
C52	C	0.385977	0.127780	-0.088416
C53	C	0.424305	0.111564	-0.044216
C54	C	0.462632	0.051106	-0.000022
C55	C	0.539297	-0.069813	0.088369
C56	C	0.539296	-0.025562	0.088368
C57	C	0.500965	0.034899	0.044170
C58	C	0.500960	0.079133	0.044185
N59	N	0.462634	0.139593	-0.000013
C60	C	0.424306	0.155809	-0.044213
C61	C	0.500952	-0.323493	0.044146
C62	C	0.500950	-0.367738	0.044143
C63	C	0.424293	-0.291058	-0.044258
C64	C	0.424294	-0.246813	-0.044253
C65	C	0.462626	-0.263032	-0.000052
C66	C	0.424309	0.248718	-0.044196
C67	C	0.424311	0.292961	-0.044184
C68	C	0.500969	0.216278	0.044215
C69	C	0.500965	0.172039	0.044206
C70	C	0.462633	0.188263	-0.000005
O71	O	0.533529	0.069463	0.081766
O72	O	0.391717	0.211298	-0.081804
C73	C	0.424305	-0.021163	-0.044235
C74	C	0.462633	-0.081621	-0.000041
C75	C	0.500961	-0.097836	0.044159
C76	C	0.462631	-0.125866	-0.000044
C77	C	0.424304	-0.109650	-0.044244
C78	C	0.385978	-0.049189	-0.088442
C79	C	0.385978	-0.004947	-0.088436
C80	C	0.539287	-0.158297	0.088357
C81	C	0.539283	-0.202536	0.088348
C82	C	0.500956	-0.186321	0.044147
C83	C	0.011868	0.408405	0.031250
C84	C	-0.165117	0.408394	0.031262
O85	O	-0.164953	0.362298	0.057867
N86	N	-0.214349	0.462595	0.000003
C87	C	-0.219334	0.516802	-0.031258
O88	O	-0.265269	0.562903	-0.057840
C89	C	-0.042349	0.516812	-0.031266
C90	C	0.006882	0.462608	-0.000010
C91	C	0.061097	0.354205	0.062504
C92	C	0.105341	0.354208	0.062498
C93	C	0.100355	0.408411	0.031238
C94	C	0.051126	0.462611	-0.000016
C95	C	-0.047334	0.571019	-0.062523
C96	C	-0.003083	0.571016	-0.062521
C97	C	0.046148	0.516812	-0.031265
C98	C	0.090383	0.516817	-0.031282
N99	N	0.139615	0.462616	-0.000023
C100	C	0.144601	0.408413	0.031237
C101	C	-0.312251	0.516793	-0.031253
C102	C	-0.356497	0.516791	-0.031252
C103	C	-0.302277	0.408383	0.031269
C104	C	-0.258031	0.408386	0.031264
C105	C	-0.263019	0.462593	0.000006
C106	C	0.237513	0.408424	0.031222
C107	C	0.281758	0.408432	0.031211
C108	C	0.227534	0.516840	-0.031307
C109	C	0.183293	0.516832	-0.031299
C110	C	0.188286	0.462619	-0.000030
O111	O	0.090259	0.562889	-0.057868
O112	O	0.190541	0.362319	0.057826
C113	C	-0.032375	0.408402	0.031256
C114	C	-0.081604	0.462601	0.000002
C115	C	-0.086590	0.516804	-0.031258
C116	C	-0.125850	0.462599	0.000003
C117	C	-0.120864	0.408396	0.031263
C118	C	-0.071633	0.354196	0.062521
C119	C	-0.027389	0.354199	0.062515
C120	C	-0.135822	0.571005	-0.062517
C121	C	-0.180063	0.570998	-0.062509
C122	C	-0.175077	0.516795	-0.031249
C123	C	0.601394	0.462594	0.000001
C124	C	0.648489	0.462588	0.000008
C125	C	0.462612	0.462625	-0.160020
C126	C	0.462605	0.462630	-0.214323
C127	C	0.462625	0.601381	-0.000048
C128	C	0.462623	0.648478	-0.000057
C129	C	0.500964	0.462593	-0.551014
C130	C	0.500969	0.462589	-0.602032
O131	O	0.533570	0.462562	-0.628402
N132	N	0.462649	0.462595	-0.627556
C133	C	0.424325	0.462599	-0.602055
O134	O	0.391731	0.462603	-0.628449
C135	C	0.424323	0.462599	-0.551036
C136	C	0.462642	0.462599	-0.525518
C137	C	0.539281	0.462593	-0.525496
C138	C	0.539275	0.462598	-0.474482
C139	C	0.500953	0.462604	-0.448987
C140	C	0.462637	0.462605	-0.474505
C141	C	0.386001	0.462599	-0.525534
C142	C	0.386003	0.462599	-0.474511
C143	C	0.424322	0.462599	-0.448993
C144	C	0.424309	0.462616	-0.397995
N145	N	0.462630	0.462610	-0.372472
C146	C	0.500952	0.462604	-0.397967
C147	C	0.424332	0.462598	-0.709199
C148	C	0.424332	0.462602	-0.760220
C149	C	0.500976	0.462591	-0.760192
C150	C	0.500974	0.462591	-0.709173
C151	C	0.462652	0.462592	-0.683675
C152	C	0.500937	0.462616	-0.290835
C153	C	0.500927	0.462624	-0.239818
C154	C	0.424284	0.462632	-0.239848
C155	C	0.424292	0.462627	-0.290863
C156	C	0.462623	0.462617	-0.316354
O157	O	0.391726	0.462640	-0.371592
O158	O	0.533543	0.462592	-0.371562
C159	C	0.462649	0.462598	0.159979
C160	C	0.462655	0.462593	0.214282
C161	C	0.601400	0.323825	0.000028
C162	C	0.648496	0.276722	0.000045
C163	C	0.462655	0.323828	0.160007
C164	C	0.462663	0.276726	0.214319
C165	C	0.601418	0.323811	0.160028
C166	C	0.648522	0.276703	0.214347
C167	C	0.323843	0.601412	-0.160069
C168	C	0.276739	0.648520	-0.214388
C169	C	0.323861	0.601398	-0.000069
C170	C	0.276764	0.648501	-0.000086
C171	C	0.462606	0.601395	-0.160048
C172	C	0.462598	0.648497	-0.214359
C173	C	0.643514	0.254608	-0.031200
C174	C	0.687762	0.210356	-0.031196
C175	C	0.736993	0.188215	0.000056
C176	C	0.741974	0.210333	0.031302
C177	C	0.697727	0.254588	0.031294
C178	C	0.489767	0.254601	0.271077
C179	C	0.489773	0.210350	0.322113
C180	C	0.462678	0.188222	0.316391
C181	C	0.435570	0.210352	0.259626
C182	C	0.435562	0.254605	0.208591
C183	C	0.697739	0.254580	0.208617
C184	C	0.742002	0.210323	0.259651
C185	C	0.737046	0.188188	0.316414
C186	C	0.687823	0.210315	0.322143
C187	C	0.643562	0.254574	0.271110
C188	C	0.227522	0.670648	-0.208658
C189	C	0.183259	0.714919	-0.259691
C190	C	0.188215	0.737057	-0.316455
C191	C	0.237437	0.714927	-0.322184
C192	C	0.281699	0.670660	-0.271151
C193	C	0.281747	0.670620	0.031154
C194	C	0.237499	0.714884	0.031136
C195	C	0.188268	0.737026	-0.000118
C196	C	0.183286	0.714906	-0.031361
C197	C	0.227534	0.670645	-0.031347
C198	C	0.489698	0.670610	-0.208617
C199	C	0.489700	0.714861	-0.259644
C200	C	0.462599	0.737001	-0.316412
C201	C	0.435497	0.714884	-0.322153
C202	C	0.435498	0.670630	-0.271127
H203	H	0.393093	0.342192	-0.080174
H204	H	0.462689	0.152189	0.357952
F205	F	0.383539	0.462605	-0.682070
H206	H	0.413510	0.192329	0.254976
H207	H	0.603432	0.272634	-0.056657
H208	H	0.511767	0.652591	-0.162399
F209	F	0.130896	0.574522	-0.064576
F210	F	0.518544	0.738395	-0.253522
F211	F	0.703038	0.278115	0.064555
F212	F	0.141102	0.784169	-0.370764
H213	H	0.413428	0.652630	-0.275810
F214	F	-0.408890	0.574483	-0.064527
F215	F	0.682449	0.186822	-0.064452
H216	H	-0.067580	0.310062	0.087971
F217	F	0.383511	0.265993	-0.091250
H218	H	-0.220149	0.615141	-0.087967
F219	F	0.784081	0.141115	0.000059
F220	F	0.242834	0.350725	0.064501
F221	F	0.157733	0.296516	0.095769
F222	F	0.141180	0.784132	-0.000127
H223	H	0.143197	0.732941	-0.056808
H224	H	0.701784	0.272596	0.162402
H225	H	0.413492	0.272614	0.162378
F226	F	0.242704	0.738493	-0.382600
H227	H	0.782064	0.192300	0.056746
F228	F	0.242811	0.738417	0.064393
F229	F	0.541733	0.462606	-0.317957
H230	H	0.782077	0.192312	0.254975
H231	H	0.143184	0.732930	-0.255015
H232	H	-0.139890	0.615145	-0.087974
F233	F	0.462601	0.784102	-0.370714
H234	H	0.393078	-0.197585	-0.080239
F235	F	0.784158	0.141082	0.370723
H236	H	0.321773	0.652644	-0.275823
H237	H	0.223470	0.652638	-0.056784
F238	F	0.345180	0.192124	-0.135458
F239	F	0.541752	-0.340765	0.091196
F240	F	0.406652	0.738456	-0.382575
H241	H	0.683796	0.192285	0.368366
H242	H	0.321829	0.652595	0.056609
H243	H	0.603488	0.272581	0.275784
H244	H	0.223477	0.652626	-0.162443
H245	H	0.393086	-0.277861	-0.080248
F246	F	0.345180	0.100808	-0.135471
F247	F	0.541742	-0.432082	0.091191
H248	H	0.532173	0.122807	0.080200
F249	F	0.580095	-0.134154	0.135411
H250	H	0.012694	0.310060	0.087969
F251	F	0.580098	-0.042830	0.135412
F252	F	0.345180	0.059397	-0.135477
F253	F	0.345185	-0.031939	-0.135482
H254	H	0.532173	0.203084	0.080203
H255	H	0.511849	0.192337	0.368328
F256	F	0.580081	-0.266884	0.135395
F257	F	0.334154	0.350738	0.064478
F258	F	0.066415	0.296510	0.095780
F259	F	0.580082	-0.175566	0.135405
H260	H	0.570480	0.462596	-0.453708
F261	F	-0.296978	0.350696	0.064538
F262	F	-0.205638	0.350695	0.064531
H263	H	0.511831	0.272612	0.275748
F264	F	0.383503	0.462637	-0.318025
F265	F	-0.317569	0.574492	-0.064525
H266	H	-0.087414	0.615158	-0.087974
H267	H	-0.007151	0.615159	-0.087968
H268	H	0.532132	0.462626	-0.219044
F269	F	0.222237	0.574523	-0.064567
F270	F	0.580072	0.462585	-0.552623
H271	H	0.532178	0.462591	-0.688399
H272	H	0.532181	0.462585	-0.780959
H273	H	0.393124	0.462611	-0.780998
F274	F	0.345217	0.462598	-0.552682
H275	H	0.354796	0.462598	-0.453752
H276	H	0.393082	0.462640	-0.219083
