data_functionalizedCrystal
_audit_creation_method	'MofGen! by Chris Wilmer'
_symmetry_space_group_name_H-M	'P1'
_symmetry_Int_Tables_number	1
_symmetry_cell_setting	triclinic
loop_
_symmetry_equiv_pos_as_xyz
  x,y,z
_cell_length_a	17.038272
_cell_length_b	17.038272
_cell_length_c	15.500227
_cell_angle_alpha	93.033254
_cell_angle_beta	86.956295
_cell_angle_gamma	91.111556
loop_
_atom_site_label
_atom_site_type_symbol
_atom_site_fract_x
_atom_site_fract_y
_atom_site_fract_z
O1	O	1.052160	0.167139	-0.071836
O2	O	0.824350	0.164430	-0.071862
O3	O	0.936901	0.051879	-0.071842
O4	O	0.939609	0.279690	-0.071856
O5	O	0.930069	0.058680	0.072045
O6	O	0.817518	0.171231	0.072026
O7	O	1.045328	0.173940	0.072051
Cu8	Cu	0.930799	0.173207	0.085177
Cu9	Cu	0.938879	0.165164	-0.084987
O10	O	0.932777	0.286491	0.072032
C11	C	0.791641	0.165368	0.000079
C12	C	0.704358	0.158019	0.000069
C13	C	0.658749	0.225482	0.000066
C14	C	0.576737	0.218574	0.000078
C15	C	0.540335	0.144201	0.000088
C16	C	0.585950	0.076733	0.000094
C17	C	0.667961	0.083642	0.000088
C18	C	0.292946	0.119792	0.000112
C19	C	0.210929	0.112887	0.000116
C20	C	0.201721	0.254729	0.000102
C21	C	0.283734	0.261632	0.000091
C22	C	0.329342	0.194164	0.000101
C23	C	0.456505	0.137138	0.000098
C24	C	0.413170	0.201228	0.000098
C25	C	0.931022	0.025987	0.000101
C26	C	0.923674	-0.061297	0.000100
C27	C	0.991137	-0.106906	0.000108
C28	C	0.984229	-0.188918	0.000100
C29	C	0.909856	-0.225320	0.000088
C30	C	0.842388	-0.179705	0.000077
C31	C	0.849297	-0.097694	0.000080
C32	C	0.885446	-0.472708	0.000074
C33	C	0.878541	-0.554725	0.000074
C34	C	1.020383	-0.563932	0.000094
C35	C	1.027286	-0.481919	0.000102
C36	C	0.959818	-0.436312	0.000087
C37	C	0.902792	-0.309149	0.000082
C38	C	0.966882	-0.352484	0.000087
C39	C	1.078037	0.173003	0.000109
C40	C	1.165320	0.180351	0.000113
C41	C	0.938656	0.312383	0.000087
C42	C	0.946004	0.399667	0.000082
N43	N	0.925122	0.178864	0.204861
N44	N	0.944561	0.159501	-0.204671
C45	C	0.972833	0.131192	0.250145
C46	C	0.968547	0.135478	0.340718
C47	C	0.916555	0.187440	0.386003
C48	C	0.868839	0.235114	0.340712
C49	C	0.873121	0.230823	0.250142
C50	C	0.901128	0.202884	0.659467
C51	C	0.896851	0.207172	0.750044
C52	C	0.996559	0.107535	0.750044
C53	C	1.000840	0.103252	0.659471
C54	C	0.953121	0.150923	0.614188
C55	C	0.912174	0.191824	0.478582
C56	C	0.957498	0.146534	0.521610
H57	H	0.330070	0.064854	0.000122
O58	O	0.822579	-0.348419	0.000082
H59	H	0.792678	-0.333249	-0.058569
H60	H	0.164579	0.309658	0.000096
H61	H	0.781832	-0.209350	0.000063
H62	H	0.539605	0.273510	0.000075
O63	O	0.417243	0.056922	0.000108
H64	H	0.382876	0.047609	-0.058536
O65	O	0.798322	-0.593992	0.000052
H66	H	0.752568	-0.548502	0.000031
H67	H	1.015175	0.088882	0.213280
H68	H	0.556305	0.016177	0.000114
H69	H	0.181294	0.052321	0.000123
O70	O	1.107505	-0.442664	0.000116
H71	H	1.100975	-0.377973	0.000126
O72	O	1.071354	-0.067645	0.000112
H73	H	1.117105	-0.113142	0.000105
O74	O	1.020021	0.084076	0.389564
H75	H	1.056907	0.047236	0.342858
H76	H	0.794361	-0.060560	0.000073
H77	H	1.075311	-0.601074	0.000105
H78	H	0.705095	0.028706	0.000090
H79	H	0.830508	-0.435584	0.000061
O80	O	1.056931	0.047216	0.610634
H81	H	1.051903	0.052252	0.540046
H82	H	1.035409	0.068723	0.786921
O83	O	0.840760	0.263210	0.798894
H84	H	0.808290	0.295631	0.752190
H85	H	1.039164	-0.226049	0.000108
H86	H	0.442811	0.261782	0.000095
O87	O	0.698003	0.305703	0.000055
H88	H	0.762694	0.299176	0.000043
H89	H	1.027437	-0.322844	0.000077
H90	H	0.834269	0.269642	0.213271
O91	O	0.849670	0.254305	0.610630
H92	H	0.812806	0.291164	0.657339
O93	O	0.812762	0.291165	0.389549
H94	H	0.817806	0.286148	0.460137
H95	H	0.999827	0.104223	0.484736
H96	H	0.313367	0.322194	0.000073
H97	H	0.869842	0.234135	0.515461
