data_functionalizedCrystal
_audit_creation_method	'MofGen! by Chris Wilmer'
_symmetry_space_group_name_H-M	'P1'
_symmetry_Int_Tables_number	1
_symmetry_cell_setting	triclinic
loop_
_symmetry_equiv_pos_as_xyz
  x,y,z
_cell_length_a	16.959455
_cell_length_b	25.639240
_cell_length_c	16.959447
_cell_angle_alpha	89.971942
_cell_angle_beta	89.985299
_cell_angle_gamma	90.031487
loop_
_atom_site_label
_atom_site_type_symbol
_atom_site_fract_x
_atom_site_fract_y
_atom_site_fract_z
Zn1	Zn	1.208318	-0.208148	-0.446929
Zn2	Zn	1.708318	0.291852	0.053071
Zn3	Zn	1.208213	-0.295589	-0.314756
Zn4	Zn	1.708213	0.204411	0.185244
Zn5	Zn	1.076146	-0.208169	-0.314766
Zn6	Zn	1.576146	0.291831	0.185234
Zn7	Zn	1.076083	-0.295554	-0.446893
Zn8	Zn	1.576083	0.204446	0.053107
O9	O	1.142190	-0.251865	-0.380836
O10	O	1.642190	0.248135	0.119164
O11	O	1.318915	-0.219754	-0.429407
O12	O	1.818915	0.280246	0.070593
O13	O	1.190676	-0.284016	-0.204146
O14	O	1.690676	0.215984	0.295854
O15	O	1.093750	-0.135001	-0.332317
O16	O	1.593750	0.364999	0.167683
O17	O	1.318838	-0.283996	-0.332300
O18	O	1.818838	0.216004	0.167700
O19	O	1.190855	-0.134986	-0.429416
O20	O	1.690855	0.365014	0.070584
O21	O	1.093648	-0.219788	-0.204153
O22	O	1.593648	0.280212	0.295847
O23	O	0.965527	-0.219754	-0.332282
O24	O	1.465527	0.280246	0.167718
O25	O	1.093642	-0.283936	-0.557509
O26	O	1.593642	0.216064	-0.057509
O27	O	0.965481	-0.283956	-0.429356
O28	O	1.465481	0.216044	0.070644
O29	O	1.190794	-0.219720	-0.557535
O30	O	1.690794	0.280280	-0.057535
O31	O	1.190615	-0.368750	-0.332265
O32	O	1.690615	0.131250	0.167735
O33	O	1.093540	-0.368724	-0.429346
O34	O	1.593540	0.131276	0.070654
C35	C	0.936824	-0.251854	-0.380817
C36	C	1.436824	0.248146	0.119183
C37	C	0.848967	-0.251861	-0.380827
C38	C	1.348967	0.248139	0.119173
C39	C	0.807651	-0.285262	-0.330196
C40	C	1.307651	0.214738	0.169804
C41	C	0.807730	-0.218465	-0.431464
C42	C	1.307730	0.281535	0.068536
C43	C	0.725184	-0.218469	-0.431474
C44	C	1.225184	0.281531	0.068526
C45	C	0.683868	-0.251870	-0.380843
C46	C	1.183868	0.248130	0.119157
C47	C	0.725098	-0.285266	-0.330202
C48	C	1.225098	0.214734	0.169798
C49	C	0.683948	-0.185070	-0.482108
C50	C	1.183948	0.314930	0.017892
C51	C	0.601397	-0.185072	-0.482119
C52	C	1.101397	0.314928	0.017881
C53	C	0.560079	-0.218476	-0.431491
C54	C	1.060079	0.281524	0.068509
C55	C	0.601314	-0.251874	-0.380849
C56	C	1.101314	0.248126	0.119151
C57	C	0.559998	-0.285274	-0.330218
C58	C	1.059998	0.214726	0.169782
C59	C	0.601232	-0.318675	-0.279579
C60	C	1.101232	0.181325	0.220421
C61	C	0.683780	-0.318669	-0.279574
C62	C	1.183780	0.181331	0.220426
C63	C	0.477531	-0.218481	-0.431496
C64	C	0.977531	0.281519	0.068504
C65	C	0.477445	-0.285278	-0.330224
C66	C	0.977445	0.214722	0.169776
C67	C	1.142081	-0.387708	-0.380818
C68	C	1.642081	0.112292	0.119182
C69	C	1.142107	-0.445822	-0.380836
C70	C	1.642107	0.054178	0.119164
C71	C	1.192749	-0.696956	-0.431448
C72	C	1.692749	-0.196956	0.068552
C73	C	1.192725	-0.642352	-0.431442
C74	C	1.692725	-0.142352	0.068558
O75	O	1.235692	-0.614065	-0.474447
O76	O	1.735692	-0.114065	0.025553
N77	N	1.142193	-0.615095	-0.380846
N78	N	1.642193	-0.115095	0.119154
C79	C	1.091687	-0.642446	-0.330248
C80	C	1.591687	-0.142446	0.169752
O81	O	1.048704	-0.614249	-0.287212
O82	O	1.548704	-0.114249	0.212788
C83	C	1.091716	-0.697050	-0.330251
C84	C	1.591716	-0.197050	0.169749
C85	C	1.142245	-0.724303	-0.380855
C86	C	1.642245	-0.224303	0.119145
C87	C	1.243275	-0.724210	-0.482047
C88	C	1.743275	-0.224210	0.017953
C89	C	1.243297	-0.778810	-0.482054
C90	C	1.743297	-0.278810	0.017946
C91	C	1.192794	-0.806157	-0.431461
C92	C	1.692794	-0.306157	0.068539
C93	C	1.142268	-0.778904	-0.380862
C94	C	1.642268	-0.278904	0.119138
C95	C	1.041215	-0.724399	-0.279649
C96	C	1.541215	-0.224399	0.220351
C97	C	1.041248	-0.779007	-0.279656
C98	C	1.541248	-0.279007	0.220344
C99	C	1.091777	-0.806260	-0.330260
C100	C	1.591777	-0.306260	0.169740
C101	C	1.091787	-0.860851	-0.330276
C102	C	1.591787	-0.360851	0.169724
N103	N	1.142319	-0.888107	-0.380871
N104	N	1.642319	-0.388107	0.119129
C105	C	1.192822	-0.860760	-0.431464
C106	C	1.692822	-0.360760	0.068536
C107	C	1.091633	-0.527776	-0.330246
C108	C	1.591633	-0.027776	0.169754
C109	C	1.091600	-0.473173	-0.330246
C110	C	1.591600	0.026827	0.169754
C111	C	1.192639	-0.473083	-0.431439
C112	C	1.692639	0.026917	0.068561
C113	C	1.192667	-0.527686	-0.431442
C114	C	1.692667	-0.027686	0.068558
C115	C	1.142165	-0.555032	-0.380841
C116	C	1.642165	-0.055032	0.119159
C117	C	1.192865	-0.975425	-0.431475
C118	C	1.692865	-0.475425	0.068525
C119	C	1.192881	-1.030031	-0.431479
C120	C	1.692881	-0.530031	0.068521
C121	C	1.091845	-1.030117	-0.330284
C122	C	1.591845	-0.530117	0.169716
C123	C	1.091826	-0.975516	-0.330282
C124	C	1.591826	-0.475516	0.169718
C125	C	1.142342	-0.948172	-0.380880
C126	C	1.642342	-0.448172	0.119120
O127	O	1.048844	-0.889173	-0.287291
O128	O	1.548844	-0.389173	0.212709
O129	O	1.235805	-0.888965	-0.474486
O130	O	1.735805	-0.388965	0.025514
C131	C	1.348358	-0.251877	-0.380856
C132	C	1.848358	0.248123	0.119144
C133	C	1.436215	-0.251882	-0.380865
C134	C	1.936215	0.248118	0.119135
C135	C	1.142223	-0.251822	-0.587004
C136	C	1.642223	0.248178	-0.087004
C137	C	1.142237	-0.251803	-0.674861
C138	C	1.642237	0.248197	-0.174861
C139	C	1.142321	-0.115492	-0.380872
C140	C	1.642321	0.384508	0.119128
C141	C	1.142377	-0.057378	-0.380887
C142	C	1.642377	0.442622	0.119113
C143	C	1.091749	-0.285183	-1.046326
C144	C	1.591749	0.214817	-0.546326
C145	C	1.192914	-0.218314	-1.046348
C146	C	1.692914	0.281686	-0.546348
C147	C	1.192893	-0.218325	-0.963802
C148	C	1.692893	0.281675	-0.463802
C149	C	1.142300	-0.251766	-0.922514
C150	C	1.642300	0.248234	-0.422514
C151	C	1.091728	-0.285196	-0.963772
C152	C	1.591728	0.214804	-0.463772
C153	C	1.243470	-0.184899	-0.922538
C154	C	1.743470	0.315101	-0.422538
C155	C	1.243452	-0.184909	-0.839987
C156	C	1.743452	0.315091	-0.339987
C157	C	1.192854	-0.218348	-0.798697
C158	C	1.692854	0.281652	-0.298697
C159	C	1.142279	-0.251779	-0.839960
C160	C	1.642279	0.248221	-0.339960
C161	C	1.091686	-0.285220	-0.798673
C162	C	1.591686	0.214780	-0.298673
C163	C	1.041107	-0.318649	-0.839934
C164	C	1.541107	0.181351	-0.339934
C165	C	1.041130	-0.318635	-0.922483
C166	C	1.541130	0.181365	-0.422483
C167	C	1.192830	-0.218362	-0.716149
C168	C	1.692830	0.281638	-0.216149
C169	C	1.091665	-0.285233	-0.716119
C170	C	1.591665	0.214767	-0.216119
C171	C	1.142203	-0.251870	-0.175470
C172	C	1.642203	0.248130	0.324530
C173	C	1.142342	-0.251742	-0.087614
C174	C	1.642342	0.248258	0.412386
H175	H	0.841227	-0.312457	-0.288969
H176	H	1.341227	0.187543	0.211031
Br177	Br	0.545150	-0.363997	-0.210860
Br178	Br	1.045150	0.136003	0.289140
Br179	Br	0.739744	-0.363994	-0.210855
Br180	Br	1.239744	0.136006	0.289145
Br181	Br	0.863802	-0.173135	-0.500170
Br182	Br	1.363802	0.326865	-0.000170
Br183	Br	1.261475	-0.173004	-0.660154
Br184	Br	1.761475	0.326996	-0.160154
H185	H	0.717594	-0.157875	-0.523326
H186	H	1.217594	0.342125	-0.023326
H187	H	1.284404	-0.701948	-0.523245
H188	H	1.784404	-0.201948	-0.023245
Br189	Br	1.261424	-0.938324	-0.500143
Br190	Br	1.761424	-0.438324	-0.000143
Br191	Br	0.545444	-0.139745	-0.550843
Br192	Br	1.045444	0.360255	-0.050843
Br193	Br	1.023006	-0.436193	-0.261582
Br194	Br	1.523006	0.063807	0.238418
Br195	Br	1.022992	-0.330616	-0.660092
Br196	Br	1.522992	0.169384	-0.160092
Br197	Br	1.023104	-0.330545	-1.102319
Br198	Br	1.523104	0.169455	-0.602319
H199	H	0.443962	-0.191283	-0.472719
H200	H	0.943962	0.308717	0.027281
Br201	Br	1.261456	-1.067014	-0.500166
Br202	Br	1.761456	-0.567014	-0.000166
Br203	Br	1.311873	-0.815788	-0.550738
Br204	Br	1.811873	-0.315788	-0.050738
H205	H	1.233762	-0.450807	-0.472633
H206	H	1.733762	0.049193	0.027367
H207	H	1.233809	-0.549872	-0.472652
H208	H	1.733809	-0.049872	0.027348
H209	H	0.999954	-0.345852	-0.956085
H210	H	1.499954	0.154148	-0.456085
H211	H	1.000122	-0.801269	-0.238448
H212	H	1.500122	-0.301269	0.261552
Br213	Br	1.023082	-0.564883	-0.261572
Br214	Br	1.523082	-0.064883	0.238428
H215	H	1.000069	-0.702217	-0.238442
H216	H	1.500069	-0.202217	0.261558
H217	H	0.443811	-0.312479	-0.288997
H218	H	0.943811	0.187521	0.211003
Br219	Br	1.023247	-0.938528	-0.261608
Br220	Br	1.523247	-0.438528	0.238392
H221	H	1.050725	-1.052393	-0.289095
H222	H	1.550725	-0.552393	0.210905
H223	H	0.999917	-0.345879	-0.806307
H224	H	1.499917	0.154121	-0.306307
Br225	Br	1.261581	-0.172937	-1.102382
Br226	Br	1.761581	0.327063	-0.602382
H227	H	1.284665	-0.157676	-0.956161
H228	H	1.784665	0.342324	-0.456161
H229	H	1.284636	-0.157689	-0.806399
H230	H	1.784636	0.342311	-0.306399
