data_functionalizedCrystal
_audit_creation_method	'MofGen! by Chris Wilmer'
_symmetry_space_group_name_H-M	'P1'
_symmetry_Int_Tables_number	1
_symmetry_cell_setting	triclinic
loop_
_symmetry_equiv_pos_as_xyz
  x,y,z
_cell_length_a	16.704494
_cell_length_b	12.970454
_cell_length_c	12.970454
_cell_angle_alpha	59.999776
_cell_angle_beta	90.000252
_cell_angle_gamma	56.632329
loop_
_atom_site_label
_atom_site_type_symbol
_atom_site_fract_x
_atom_site_fract_y
_atom_site_fract_z
Zr1	Zr	0.815199	1.020729	-0.081400
O2	O	0.680082	1.253685	-0.254960
O3	O	0.856620	0.800162	-0.028194
O4	O	0.856621	1.015251	-0.243285
O5	O	0.680080	1.038597	0.129798
O6	O	0.995877	0.996838	-0.234077
O7	O	0.680081	1.038596	-0.039869
O8	O	0.995875	0.612082	0.150681
O9	O	0.680082	1.423352	-0.254960
O10	O	0.978211	0.872554	0.001369
O11	O	0.874284	0.886297	0.121117
O12	O	0.874286	1.139537	-0.132125
O13	O	0.770359	1.153279	-0.012377
Zr14	Zr	1.037296	0.991363	0.203884
Zr15	Zr	1.037297	0.991362	-0.066714
Zr16	Zr	0.815198	1.020731	0.189198
Zr17	Zr	0.815199	1.291329	-0.081402
Zr18	Zr	1.037296	0.720764	0.203886
O19	O	0.995875	1.211931	0.150678
O20	O	0.995877	1.211929	-0.234078
O21	O	0.680080	1.253687	0.129797
O22	O	1.172412	0.758407	0.377444
O23	O	1.172415	0.758405	-0.007312
O24	O	0.856617	0.800164	0.356562
O25	O	1.172415	0.973496	-0.007313
O26	O	0.995874	0.996841	0.365769
O27	O	0.856617	1.015255	0.356561
O28	O	1.172414	0.973497	0.162353
O29	O	0.856621	1.400009	-0.243287
O30	O	0.995874	0.612083	0.365771
O31	O	1.172412	0.588740	0.377445
O32	O	1.172414	0.588739	0.162355
O33	O	0.680081	1.423354	-0.039871
O34	O	0.856620	1.400011	-0.028197
O35	O	0.978209	0.872556	0.254609
O36	O	1.082135	0.858813	0.134861
O37	O	0.978211	1.125796	0.001367
O38	O	0.874284	1.139538	0.121116
C39	C	0.926247	0.667567	0.061244
C40	C	0.926247	0.552690	0.061244
C41	C	0.648436	1.042780	0.042872
C42	C	0.554150	1.055247	0.036637
C43	C	0.485481	0.799920	0.164320
C44	C	0.396894	0.811627	0.158465
C45	C	0.288386	1.090367	0.019082
C46	C	0.376974	1.078660	0.024936
C47	C	0.475520	0.933431	0.097556
C48	C	0.564109	0.921726	0.103403
C49	C	0.455600	1.200464	-0.035973
C50	C	0.367012	1.212171	-0.041827
C51	C	1.204058	0.969312	0.079612
C52	C	1.298345	0.956845	0.085847
C53	C	0.926249	1.006044	-0.277235
C54	C	0.926250	1.006044	-0.392111
C55	C	0.926247	1.344525	0.061240
C56	C	0.926247	1.459402	0.061240
C57	C	0.926245	1.006048	0.399719
C58	C	0.926245	1.006049	0.514596
C59	C	1.204058	0.630833	0.079614
C60	C	1.298345	0.503489	0.085849
C61	C	0.926245	0.667569	0.399721
C62	C	0.926245	0.552693	0.514598
C63	C	1.204056	0.630835	0.418091
C64	C	1.298342	0.503492	0.539203
C65	C	0.648438	1.381257	-0.295607
C66	C	0.554153	1.508601	-0.416719
C67	C	0.648437	1.381260	0.042870
C68	C	0.554150	1.508603	0.036635
C69	C	0.926249	1.344523	-0.277237
C70	C	0.926250	1.459399	-0.392114
C71	C	1.288375	0.450860	0.019085
C72	C	1.376959	0.331223	0.024917
C73	C	1.475511	0.264210	0.097523
C74	C	1.485479	0.316850	0.164290
C75	C	1.396896	0.436492	0.158449
C76	C	1.396878	0.436515	0.533571
C77	C	1.485478	0.316877	0.647358
C78	C	1.475540	0.264210	0.766776
C79	C	1.376994	0.331198	0.772404
C80	C	1.288396	0.450842	0.658618
C81	C	0.455617	1.575590	-0.411087
C82	C	0.367017	1.695262	-0.524874
C83	C	0.376955	1.747935	-0.644292
C84	C	0.475501	1.680940	-0.649920
C85	C	0.564098	1.561277	-0.536134
C86	C	0.564120	1.561244	0.103388
C87	C	0.475536	1.680911	0.097526
C88	C	0.376984	1.747928	0.024916
C89	C	0.367016	1.695282	-0.041845
C90	C	0.455599	1.575625	-0.035989
H91	H	0.565721	0.681669	0.223458
C92	C	0.513050	0.534932	0.296819
C93	C	0.407844	0.664867	0.231848
H94	H	0.519808	0.444327	0.342118
H95	H	0.545340	0.536169	0.355995
H96	H	0.545345	0.536170	0.236399
H97	H	0.375549	0.663635	0.292269
H98	H	0.375540	0.663629	0.172665
C99	C	1.190030	0.453037	-0.118105
C100	C	1.180052	0.524510	-0.060737
H101	H	1.123157	0.498513	-0.167394
H102	H	1.226837	0.346279	-0.053132
H103	H	1.226850	0.465874	-0.172712
H104	H	1.143239	0.511664	-0.006121
H105	H	1.143230	0.631294	-0.125718
C106	C	0.339440	1.477171	-0.174349
C107	C	0.444646	1.347236	-0.109371
H108	H	0.332681	1.567776	-0.219669
H109	H	0.307146	1.475950	-0.113941
H110	H	0.307148	1.475916	-0.233520
H111	H	0.476936	1.348484	-0.050193
H112	H	0.476954	1.348457	-0.169785
C113	C	0.726660	1.506594	-0.480761
C114	C	0.672402	1.487675	-0.542357
H115	H	0.793516	1.461178	-0.484624
H116	H	0.733445	1.458070	-0.393359
H117	H	0.689821	1.613372	-0.522545
H118	H	0.709237	1.380896	-0.500567
H119	H	0.665621	1.536194	-0.629775
H120	H	0.483580	1.723842	-0.747163
C121	C	1.669448	0.127031	0.235133
C122	C	1.593814	0.243165	0.244108
H123	H	1.736330	0.081530	0.284422
H124	H	1.661671	0.170187	0.147669
H125	H	1.661647	0.050602	0.267244
H126	H	1.601610	0.319601	0.211988
H127	H	1.601595	0.200010	0.331590
H128	H	0.644358	1.506688	0.162523
H129	H	0.304862	1.845359	0.020159
H130	H	1.405028	0.479327	0.212825
C131	C	0.183046	1.885076	-0.112663
C132	C	0.258681	1.768947	-0.121643
H133	H	0.116165	1.930541	-0.161916
H134	H	0.190825	1.961519	-0.144799
H135	H	0.190846	1.841914	-0.025182
H136	H	0.250885	1.812111	-0.209124
H137	H	0.250898	1.692490	-0.089513
C138	C	1.125815	0.681829	0.603225
C139	C	1.180087	0.524442	0.664825
H140	H	1.058954	0.727257	0.607073
H141	H	1.119042	0.730318	0.515827
H142	H	1.162637	0.694646	0.645017
H143	H	1.143269	0.511625	0.623028
H144	H	1.186856	0.475940	0.752240
C145	C	1.462010	0.372886	0.392007
C146	C	1.407765	0.494354	0.402285
H147	H	1.468725	0.408581	0.310952
H148	H	1.425210	0.335621	0.399146
H149	H	1.528890	0.292088	0.458943
H150	H	1.340881	0.575148	0.335354
H151	H	1.444564	0.531641	0.395133
H152	H	0.208137	1.208604	-0.040024
H153	H	1.565710	0.262346	0.642753
C154	C	0.390436	1.639142	-0.269493
C155	C	0.444682	1.517720	-0.279828
H156	H	0.383687	1.603421	-0.188458
H157	H	0.323581	1.719975	-0.336453
H158	H	0.427265	1.676358	-0.276539
H159	H	0.407849	1.480511	-0.272792
H160	H	0.511549	1.436860	-0.212850
C161	C	0.204451	1.926255	-0.580239
C162	C	0.258705	1.768878	-0.518664
H163	H	0.137589	1.971693	-0.576394
H164	H	0.197680	1.974756	-0.667637
H165	H	0.241284	1.939045	-0.538429
H166	H	0.221875	1.756088	-0.560480
H167	H	0.265472	1.720363	-0.431250
H168	H	1.547632	0.166789	0.102269
H169	H	0.644348	0.803474	0.162541
H170	H	0.483672	1.723754	0.151897
H171	H	0.286766	1.330411	-0.100948
H172	H	1.368822	0.288379	-0.029453
H173	H	1.547690	0.166787	0.859418
H174	H	1.368918	0.288298	0.869649
H175	H	0.304804	1.845373	-0.736934
H176	H	0.447467	1.532770	-0.090345
