data_functionalizedCrystal
_audit_creation_method	'MofGen! by Chris Wilmer'
_symmetry_space_group_name_H-M	'P1'
_symmetry_Int_Tables_number	1
_symmetry_cell_setting	triclinic
loop_
_symmetry_equiv_pos_as_xyz
  x,y,z
_cell_length_a	10.723023
_cell_length_b	8.140239
_cell_length_c	9.065218
_cell_angle_alpha	89.998314
_cell_angle_beta	95.258283
_cell_angle_gamma	90.002262
loop_
_atom_site_label
_atom_site_type_symbol
_atom_site_fract_x
_atom_site_fract_y
_atom_site_fract_z
O1	O	1.658027	0.136589	-0.206934
O2	O	2.158027	0.636589	0.293066
O3	O	1.294955	0.136596	-0.226743
O4	O	1.794955	0.636596	0.273257
O5	O	1.483995	0.136589	-0.002154
O6	O	1.983995	0.636589	0.497846
O7	O	1.468986	0.136596	-0.431524
O8	O	1.968986	0.636596	0.068476
O9	O	1.483985	-0.136638	-0.002151
O10	O	1.983985	0.363362	0.497849
O11	O	1.294944	-0.136631	-0.226741
O12	O	1.794944	0.363369	0.273259
O13	O	1.658016	-0.136638	-0.206932
O14	O	2.158016	0.363362	0.293068
Zn15	Zn	1.476478	-0.180015	-0.216836
Zn16	Zn	1.976478	0.319985	0.283164
Zn17	Zn	1.476492	0.179973	-0.216839
Zn18	Zn	1.976492	0.679973	0.283161
O19	O	1.468975	-0.136631	-0.431521
O20	O	1.968975	0.363369	0.068479
C21	C	1.248444	-0.000017	-0.225301
C22	C	1.748444	0.499983	0.274699
C23	C	1.109872	-0.000014	-0.220989
C24	C	1.609872	0.499986	0.279011
N25	N	1.476478	-0.425698	-0.216833
N26	N	1.976478	0.074302	0.283167
C27	C	1.048087	-0.141553	-0.219065
C28	C	1.548087	0.358447	0.280935
C29	C	0.904865	-0.141553	-0.214607
C30	C	1.404865	0.358447	0.285393
C31	C	1.704527	-0.000021	-0.208374
C32	C	2.204527	0.499979	0.291626
C33	C	1.843099	-0.000013	-0.212687
C34	C	2.343099	0.499987	0.287313
C35	C	1.482547	-0.000022	0.052826
C36	C	1.982547	0.499978	0.552826
C37	C	1.478234	-0.000014	0.216644
C38	C	1.978234	0.499986	0.716644
N39	N	1.476502	0.425656	-0.216831
N40	N	1.976502	0.925656	0.283169
C41	C	1.470423	-0.000016	-0.486501
C42	C	1.970423	0.499984	0.013499
C43	C	1.474736	-0.000014	-0.650319
C44	C	1.974736	0.499986	-0.150319
H45	H	1.101222	-0.262729	-0.220709
H46	H	1.601222	0.237271	0.279291
O47	O	0.841460	-0.286083	-0.212366
O48	O	1.341460	0.213917	0.287634
C49	C	0.778803	-0.294850	-0.082479
C50	C	1.278803	0.205150	0.417521
H51	H	0.826991	-0.210392	0.005452
H52	H	1.326991	0.289608	0.505452
H53	H	0.781456	-0.426576	-0.039605
H54	H	1.281456	0.073424	0.460395
H55	H	0.677296	-0.254672	-0.108251
H56	H	1.177296	0.245328	0.391749
O57	O	0.906586	0.144459	-0.214863
O58	O	1.406586	0.644459	0.285137
C59	C	0.969190	0.153265	-0.344788
C60	C	1.469190	0.653265	0.155212
H61	H	0.984334	0.023916	-0.387919
H62	H	1.484334	0.523916	0.112081
H63	H	1.063665	0.216145	-0.318954
H64	H	1.563665	0.716145	0.181046
H65	H	0.910198	0.226852	-0.432551
H66	H	1.410198	0.726852	0.067449
H67	H	1.056738	0.121161	-0.219332
H68	H	1.556738	0.621161	0.280668
