data_functionalizedCrystal
_audit_creation_method	'MofGen! by Chris Wilmer'
_symmetry_space_group_name_H-M	'P1'
_symmetry_Int_Tables_number	1
_symmetry_cell_setting	triclinic
loop_
_symmetry_equiv_pos_as_xyz
  x,y,z
_cell_length_a	6.817900
_cell_length_b	16.015009
_cell_length_c	16.015572
_cell_angle_alpha	60.346181
_cell_angle_beta	104.485554
_cell_angle_gamma	104.487874
loop_
_atom_site_label
_atom_site_type_symbol
_atom_site_fract_x
_atom_site_fract_y
_atom_site_fract_z
V1	V	-3.988169	-0.038676	-0.257230
O2	O	-3.988559	0.098579	-0.295267
O3	O	-3.928272	-0.169710	-0.214178
O4	O	-3.928265	0.004358	-0.388255
O5	O	-3.988567	-0.076695	-0.119985
V6	V	-4.474777	-0.027273	-0.245830
O7	O	-4.242659	-0.063689	-0.282235
O8	O	-4.670484	-0.002260	-0.220825
O9	O	-4.311468	0.103761	-0.288882
O10	O	-4.591784	-0.164529	-0.207793
O11	O	-4.591777	0.010745	-0.383075
O12	O	-4.311475	-0.070308	-0.114805
C13	C	-3.770849	-0.202980	-0.199466
C14	C	-3.803086	-0.309829	-0.165140
C15	C	-3.817370	-0.474343	-0.033264
C16	C	-3.787080	-0.373940	-0.065529
C17	C	-3.849401	-0.346103	-0.232526
C18	C	-3.879706	-0.446506	-0.200276
C19	C	-3.863685	-0.510618	-0.100644
C20	C	-3.926021	-0.482781	-0.267655
C21	C	-3.956313	-0.583175	-0.235407
C22	C	-3.940290	-0.647293	-0.135779
C23	C	-3.893976	-0.611012	-0.068396
C24	C	-3.942028	-0.418667	-0.367287
C25	C	-3.988343	-0.454943	-0.434666
C26	C	-4.018650	-0.555338	-0.402419
C27	C	-4.002627	-0.619456	-0.302791
C28	C	-4.064963	-0.591620	-0.469802
C29	C	-4.095255	-0.692013	-0.437554
C30	C	-4.032918	-0.719850	-0.270543
C31	C	-3.770838	0.019063	-0.421517
C32	C	-3.803067	0.053381	-0.528360
C33	C	-4.064975	-0.251227	-0.810197
C34	C	-4.095267	-0.218949	-0.910597
C35	C	-4.032931	-0.051951	-0.938409
C36	C	-4.002623	-0.084216	-0.838009
C37	C	-4.018652	-0.183855	-0.773910
C38	C	-3.956300	-0.016843	-0.801722
C39	C	-3.926006	-0.049106	-0.701331
C40	C	-3.942036	-0.148740	-0.637226
C41	C	-3.988358	-0.216117	-0.673518
C42	C	-3.940287	0.082795	-0.865823
C43	C	-3.893963	0.150167	-0.829536
C44	C	-3.863654	0.117906	-0.729143
C45	C	-3.879684	0.018271	-0.665038
C46	C	-3.817332	0.185282	-0.692850
C47	C	-3.787039	0.153020	-0.592459
C48	C	-3.849390	-0.013991	-0.564647
C49	C	-4.132233	0.137025	-0.303590
C50	C	-4.079233	0.243875	-0.337922
C51	C	-4.132244	-0.085017	-0.081537
C52	C	-4.079254	-0.119331	0.025305
H53	H	-3.964944	-0.729039	-0.109524
H54	H	-4.019893	0.029175	-0.990612
H55	H	-3.749350	-0.344410	-0.010652
H56	H	-3.880944	-0.663216	0.012734
H57	H	-3.804308	0.266408	-0.745054
H58	H	-3.964924	0.109060	-0.947567
H59	H	-4.001375	-0.402729	-0.515787
O60	O	-3.876643	0.257632	-0.898674
H61	H	-3.991394	0.289062	-0.888603
O62	O	-3.866945	-0.276894	-0.339972
H63	H	-3.719222	-0.227884	-0.356312
H64	H	-3.749319	0.207882	-0.562914
O65	O	-3.800097	-0.543505	0.074197
H66	H	-3.762795	-0.501417	0.115638
O67	O	-3.909351	-0.310383	-0.402078
H68	H	-4.023452	-0.292441	-0.376975
H69	H	-4.132979	-0.273819	-0.940136
O70	O	-4.015634	-0.789014	-0.163082
H71	H	-4.130391	-0.778951	-0.131648
H72	H	-4.077982	-0.539405	-0.550923
H73	H	-4.132962	-0.721548	-0.492421
O74	O	-3.866651	-0.121459	-0.495495
H75	H	-4.022935	-0.157748	-0.510602
O76	O	-3.909334	-0.183543	-0.528944
H77	H	-4.050321	-0.230527	-0.498984
O78	O	-4.005635	-0.323586	-0.604370
H79	H	-4.042943	-0.365020	-0.646465
O80	O	-4.082252	-0.358696	-0.741048
H81	H	-4.119560	-0.400130	-0.783143
