data_functionalizedCrystal
_audit_creation_method	'MofGen! by Chris Wilmer'
_symmetry_space_group_name_H-M	'P1'
_symmetry_Int_Tables_number	1
_symmetry_cell_setting	triclinic
loop_
_symmetry_equiv_pos_as_xyz
  x,y,z
_cell_length_a	11.169417
_cell_length_b	11.169416
_cell_length_c	17.077396
_cell_angle_alpha	89.977334
_cell_angle_beta	89.983750
_cell_angle_gamma	90.011219
loop_
_atom_site_label
_atom_site_type_symbol
_atom_site_fract_x
_atom_site_fract_y
_atom_site_fract_z
Zn1	Zn	1.834920	-0.477779	-0.443806
Zn2	Zn	2.334920	0.022221	0.056194
Zn3	Zn	1.834822	-0.678491	-0.312554
Zn4	Zn	2.334822	-0.178491	0.187446
Zn5	Zn	1.634218	-0.477823	-0.312562
Zn6	Zn	2.134218	0.022177	0.187438
Zn7	Zn	1.634213	-0.678422	-0.443785
Zn8	Zn	2.134213	-0.178422	0.056215
O9	O	1.734543	-0.578129	-0.378177
O10	O	2.234543	-0.078129	0.121823
O11	O	2.002857	-0.504414	-0.426401
O12	O	2.502857	-0.004414	0.073599
O13	O	1.808172	-0.651919	-0.202708
O14	O	2.308172	-0.151919	0.297292
O15	O	1.660885	-0.309868	-0.329984
O16	O	2.160885	0.190132	0.170016
O17	O	2.002785	-0.651876	-0.329970
O18	O	2.502785	-0.151876	0.170030
O19	O	1.808340	-0.309835	-0.426409
O20	O	2.308340	0.190165	0.073591
O21	O	1.660790	-0.504490	-0.202714
O22	O	2.160790	-0.004490	0.297286
O23	O	1.466268	-0.504423	-0.329963
O24	O	1.966268	-0.004423	0.170037
O25	O	1.660876	-0.651759	-0.553635
O26	O	2.160876	-0.151759	-0.053635
O27	O	1.466264	-0.651802	-0.426372
O28	O	1.966264	-0.151802	0.073628
O29	O	1.808335	-0.504347	-0.553650
O30	O	2.308335	-0.004347	-0.053650
O31	O	1.808168	-0.846431	-0.329949
O32	O	2.308168	-0.346431	0.170051
O33	O	1.660781	-0.846381	-0.426364
O34	O	2.160781	-0.346381	0.073636
C35	C	1.422719	-0.578111	-0.378167
C36	C	1.922719	-0.078111	0.121833
C37	C	1.289319	-0.578132	-0.378181
C38	C	1.789319	-0.078132	0.121819
C39	C	1.734496	-0.889953	-0.378171
C40	C	2.234496	-0.389953	0.121829
C41	C	1.734585	-1.023353	-0.378194
C42	C	2.234585	-0.523353	0.121806
C43	C	2.047586	-0.578148	-0.378187
C44	C	2.547586	-0.078148	0.121813
C45	C	2.180986	-0.578156	-0.378192
C46	C	2.680986	-0.078156	0.121808
C47	C	1.734616	-0.578040	-0.582921
C48	C	2.234616	-0.078040	-0.082921
C49	C	1.734647	-0.578003	-0.670171
C50	C	2.234647	-0.078003	-0.170171
C51	C	1.734624	-0.265086	-0.378200
C52	C	2.234624	0.234914	0.121800
C53	C	1.734658	-0.131686	-0.378210
C54	C	2.234658	0.368314	0.121790
C55	C	1.811431	-0.501239	-0.711171
C56	C	2.311431	-0.001239	-0.211171
C57	C	1.811446	-0.501199	-0.793151
C58	C	2.311446	-0.001199	-0.293151
C59	C	1.734681	-0.577930	-0.834130
C60	C	2.234681	-0.077930	-0.334130
C61	C	1.657888	-0.654697	-0.793125
C62	C	2.157888	-0.154697	-0.293125
C63	C	1.657869	-0.654730	-0.711146
C64	C	2.157869	-0.154730	-0.211146
C65	C	1.657936	-0.654624	-0.963995
C66	C	2.157936	-0.154624	-0.463995
C67	C	1.657957	-0.654593	-1.045980
C68	C	2.157957	-0.154593	-0.545980
C69	C	1.811514	-0.501094	-1.046000
C70	C	2.311514	-0.001094	-0.546000
C71	C	1.811494	-0.501127	-0.964021
C72	C	2.311494	-0.001127	-0.464021
C73	C	1.734702	-0.577896	-0.923021
C74	C	2.234702	-0.077896	-0.423021
C75	C	1.734540	-0.578130	-0.174229
C76	C	2.234540	-0.078130	0.325771
C77	C	1.734742	-0.577830	-0.086979
C78	C	2.234742	-0.077830	0.413021
H79	H	1.873974	-0.438694	-0.826529
H80	H	2.373974	0.061306	-0.326529
H81	H	1.595446	-0.717071	-1.079343
H82	H	2.095446	-0.217071	-0.579343
H83	H	1.874009	-0.438653	-0.930658
H84	H	2.374009	0.061347	-0.430658
H85	H	1.595381	-0.717168	-0.826497
H86	H	2.095381	-0.217168	-0.326497
O87	O	1.575111	-0.737424	-0.919772
O88	O	2.075111	-0.237424	-0.419772
H89	H	1.514050	-0.683714	-0.882428
H90	H	2.014050	-0.183714	-0.382428
O91	O	1.894332	-0.418278	-1.090214
O92	O	2.394332	0.081722	-0.590214
H93	H	1.881439	-0.431130	-1.154103
H94	H	2.381439	0.068870	-0.654103
H95	H	1.595331	-0.717226	-0.677765
H96	H	2.095331	-0.217226	-0.177765
H97	H	1.873946	-0.438760	-0.677811
H98	H	2.373946	0.061240	-0.177811
