data_functionalizedCrystal
_audit_creation_method	'MofGen! by Chris Wilmer'
_symmetry_space_group_name_H-M	'P1'
_symmetry_Int_Tables_number	1
_symmetry_cell_setting	triclinic
loop_
_symmetry_equiv_pos_as_xyz
  x,y,z
_cell_length_a	14.044191
_cell_length_b	23.532407
_cell_length_c	13.101039
_cell_angle_alpha	93.332685
_cell_angle_beta	86.337551
_cell_angle_gamma	88.020262
loop_
_atom_site_label
_atom_site_type_symbol
_atom_site_fract_x
_atom_site_fract_y
_atom_site_fract_z
O1	O	1.261657	0.134377	-0.085200
O2	O	0.985735	0.129420	-0.085212
O3	O	1.132014	0.049419	-0.085177
O4	O	1.115377	0.214378	-0.085235
O5	O	1.121519	0.055169	0.085250
O6	O	0.975239	0.135170	0.085215
O7	O	1.251161	0.140127	0.085227
Zn8	Zn	1.111534	0.138562	0.112280
Zn9	Zn	1.125362	0.130985	-0.112265
O10	O	1.104882	0.220128	0.085192
C11	C	0.945193	0.130127	0.000000
C12	C	0.840028	0.123659	-0.000003
C13	C	0.589421	0.157704	-0.000004
C14	C	0.647481	0.111845	0.000010
C15	C	0.754624	0.118420	0.000003
C16	C	0.482268	0.151130	0.000003
C17	C	1.126343	0.031055	0.000042
C18	C	1.125067	-0.032231	0.000057
C19	C	1.033251	-0.303378	-0.000011
C20	C	1.034434	-0.243914	-0.000003
O21	O	0.961596	-0.211120	-0.000038
N22	N	1.121398	-0.216572	0.000013
C23	C	1.207184	-0.248699	0.000010
O24	O	1.281262	-0.219982	0.000023
C25	C	1.206001	-0.308163	-0.000005
C26	C	1.119031	-0.335501	-0.000011
C27	C	0.946288	-0.330717	-0.000017
C28	C	0.945106	-0.390177	-0.000023
C29	C	1.030886	-0.422299	-0.000023
C30	C	1.117848	-0.394961	-0.000017
C31	C	1.291787	-0.340288	-0.000016
C32	C	1.290596	-0.399756	-0.000032
C33	C	1.203626	-0.427094	-0.000037
C34	C	1.202446	-0.486544	-0.000022
N35	N	1.115482	-0.513885	-0.000038
C36	C	1.029702	-0.481763	-0.000038
C37	C	1.209664	-0.123821	0.000040
C38	C	1.210848	-0.064358	0.000063
C39	C	1.038097	-0.059577	0.000048
C40	C	1.036913	-0.119041	0.000033
C41	C	1.122700	-0.151162	0.000025
C42	C	1.027225	-0.606635	-0.000050
C43	C	1.026049	-0.666101	-0.000052
C44	C	1.198800	-0.670876	-0.000042
C45	C	1.199975	-0.611416	-0.000035
C46	C	1.114180	-0.579296	-0.000042
O47	O	1.275246	-0.519375	0.000009
O48	O	0.955637	-0.510488	-0.000064
C49	C	1.291703	0.139420	0.000012
C50	C	1.396869	0.145887	0.000008
C51	C	1.110554	0.238492	-0.000029
C52	C	1.111829	0.301777	-0.000051
N53	N	1.102103	0.143732	0.265526
N54	N	1.134800	0.125811	-0.265512
C55	C	1.089273	0.150772	0.474566
C56	C	1.147628	0.118772	0.525455
C57	C	1.140489	0.122689	0.641772
C58	C	1.096411	0.146856	0.358239
H59	H	0.955225	-0.688356	-0.000051
H60	H	1.033956	0.181109	0.518350
H61	H	1.202949	0.088434	0.481666
H62	H	1.268639	-0.697041	-0.000037
Cl63	Cl	1.398450	-0.440134	-0.000046
H64	H	0.620180	0.201901	-0.000023
Cl65	Cl	0.919366	-0.566265	-0.000055
H66	H	0.874286	-0.412431	-0.000036
H67	H	0.876432	-0.304569	-0.000020
Cl68	Cl	0.599994	0.043603	0.000033
H69	H	0.966095	-0.141295	0.000033
H70	H	0.968250	-0.033412	0.000049
H71	H	1.281666	-0.042104	0.000083
Cl72	Cl	1.317520	-0.164196	0.000043
H73	H	1.362607	-0.318040	-0.000012
H74	H	1.270792	-0.589155	-0.000016
