data_functionalizedCrystal
_audit_creation_method	'MofGen! by Chris Wilmer'
_symmetry_space_group_name_H-M	'P1'
_symmetry_Int_Tables_number	1
_symmetry_cell_setting	triclinic
loop_
_symmetry_equiv_pos_as_xyz
  x,y,z
_cell_length_a	18.050590
_cell_length_b	29.839131
_cell_length_c	18.050583
_cell_angle_alpha	89.964638
_cell_angle_beta	89.997453
_cell_angle_gamma	90.030587
loop_
_atom_site_label
_atom_site_type_symbol
_atom_site_fract_x
_atom_site_fract_y
_atom_site_fract_z
Zn1	Zn	1.135249	-0.178968	-0.419587
Zn2	Zn	1.635249	0.321032	0.080413
Zn3	Zn	1.135123	-0.254103	-0.295390
Zn4	Zn	1.635123	0.245897	0.204610
Zn5	Zn	1.011061	-0.178974	-0.295445
Zn6	Zn	1.511061	0.321026	0.204555
Zn7	Zn	1.010987	-0.254057	-0.419573
Zn8	Zn	1.510987	0.245943	0.080427
O9	O	1.073105	-0.216526	-0.357499
O10	O	1.573105	0.283474	0.142501
O11	O	1.239157	-0.188952	-0.403095
O12	O	1.739157	0.311048	0.096905
O13	O	1.118645	-0.244159	-0.191473
O14	O	1.618645	0.255841	0.308527
O15	O	1.027617	-0.116106	-0.311941
O16	O	1.527617	0.383894	0.188059
O17	O	1.239065	-0.244153	-0.311848
O18	O	1.739065	0.255847	0.188152
O19	O	1.118858	-0.116102	-0.403147
O20	O	1.618858	0.383898	0.096853
O21	O	1.027496	-0.188961	-0.191513
O22	O	1.527496	0.311039	0.308487
O23	O	0.907126	-0.188917	-0.311928
O24	O	1.407126	0.311083	0.188072
O25	O	1.027492	-0.244075	-0.523499
O26	O	1.527492	0.255925	-0.023499
O27	O	0.907072	-0.244081	-0.403124
O28	O	1.407072	0.255919	0.096876
O29	O	1.118787	-0.188907	-0.523509
O30	O	1.618787	0.311093	-0.023509
O31	O	1.118573	-0.316964	-0.311835
O32	O	1.618573	0.183036	0.188165
O33	O	1.027371	-0.316931	-0.403071
O34	O	1.527371	0.183069	0.096929
C35	C	0.880153	-0.216495	-0.357531
C36	C	1.380153	0.283505	0.142469
C37	C	0.797607	-0.216493	-0.357562
C38	C	1.297607	0.283507	0.142438
C39	C	0.598149	-0.246577	-0.407037
C40	C	1.098149	0.253423	0.092963
C41	C	0.548772	-0.205612	-0.425315
C42	C	1.048772	0.294388	0.074685
C43	C	0.646477	-0.216518	-0.357526
C44	C	1.146477	0.283482	0.142474
C45	C	0.548771	-0.257506	-0.339246
C46	C	1.048771	0.242494	0.160754
C47	C	0.500492	-0.216546	-0.357492
C48	C	1.000492	0.283454	0.142508
C49	C	0.598187	-0.175531	-0.375840
C50	C	1.098187	0.324469	0.124160
C51	C	0.598191	-0.227453	-0.289739
C52	C	1.098191	0.272547	0.210261
C53	C	0.548837	-0.186460	-0.307992
C54	C	1.048837	0.313540	0.192008
C55	C	0.730575	-0.216502	-0.357547
C56	C	1.230575	0.283498	0.142453
C57	C	0.416395	-0.216556	-0.357471
C58	C	0.916395	0.283444	0.142529
C59	C	1.072971	-0.333248	-0.357462
C60	C	1.572971	0.166752	0.142538
C61	C	1.072981	-0.383183	-0.357471
C62	C	1.572981	0.116817	0.142529
C63	C	1.120680	-0.692831	-0.310061
C64	C	1.620680	-0.192831	0.189939
C65	C	1.120772	-0.880504	-0.310090
C66	C	1.620772	-0.380504	0.189910
O67	O	1.161221	-0.904773	-0.269752
O68	O	1.661221	-0.404773	0.230248
N69	N	1.073259	-0.903968	-0.357555
N70	N	1.573259	-0.403968	0.142445
C71	C	1.025723	-0.880510	-0.405019
C72	C	1.525723	-0.380510	0.094981
O73	O	0.985318	-0.904774	-0.445396
O74	O	1.485318	-0.404774	0.054604
C75	C	1.025636	-0.692838	-0.404993
C76	C	1.525636	-0.192838	0.095007
C77	C	1.073146	-0.669377	-0.357520
C78	C	1.573146	-0.169377	0.142480
C79	C	1.168188	-0.669369	-0.262593
C80	C	1.668188	-0.169369	0.237407
C81	C	1.168162	-0.622454	-0.262583
C82	C	1.668162	-0.122454	0.237417
C83	C	1.120628	-0.599000	-0.310042
C84	C	1.620628	-0.099000	0.189958
C85	C	1.073120	-0.622461	-0.357511
C86	C	1.573120	-0.122461	0.142489
C87	C	0.978104	-0.669382	-0.452461
C88	C	1.478104	-0.169382	0.047539
C89	C	0.978088	-0.622461	-0.452451
C90	C	1.478088	-0.122461	0.047549
C91	C	1.025599	-0.598999	-0.404978
C92	C	1.525599	-0.098999	0.095022
C93	C	1.025560	-0.552092	-0.404960
C94	C	1.525560	-0.052092	0.095040
N95	N	1.073073	-0.528628	-0.357495
N96	N	1.573073	-0.028628	0.142505
C97	C	1.120607	-0.552082	-0.310036
C98	C	1.620607	-0.052082	0.189964
C99	C	1.025771	-0.979041	-0.405028
C100	C	1.525771	-0.479041	0.094972
C101	C	1.025792	-1.025959	-0.405033
C102	C	1.525792	-0.525959	0.094967
C103	C	1.120842	-1.025949	-0.310105
C104	C	1.620842	-0.525949	0.189895
C105	C	1.120817	-0.979030	-0.310097
C106	C	1.620817	-0.479030	0.189903
C107	C	1.073284	-0.955577	-0.357563
C108	C	1.573284	-0.455577	0.142437
C109	C	1.120548	-0.453556	-0.310019
C110	C	1.620548	0.046444	0.189981
C111	C	1.120515	-0.406637	-0.310012
C112	C	1.620515	0.093363	0.189988
C113	C	1.025468	-0.406650	-0.404942
C114	C	1.525468	0.093350	0.095058
C115	C	1.025498	-0.453566	-0.404947
C116	C	1.525498	0.046434	0.095053
C117	C	1.073044	-0.477018	-0.357484
C118	C	1.573044	0.022982	0.142516
O119	O	0.985138	-0.527794	-0.445282
O120	O	1.485138	-0.027794	0.054718
O121	O	1.161018	-0.527810	-0.269677
O122	O	1.661018	-0.027810	0.230323
C123	C	1.120707	-0.739746	-0.310071
C124	C	1.620707	-0.239746	0.189929
C125	C	1.073199	-0.763208	-0.357539
C126	C	1.573199	-0.263208	0.142461
C127	C	1.025665	-0.739754	-0.404998
C128	C	1.525665	-0.239754	0.095002
C129	C	1.073220	-0.810126	-0.357545
C130	C	1.573220	-0.310126	0.142455
C131	C	1.120754	-0.833580	-0.310086
C132	C	1.620754	-0.333580	0.189914
C133	C	1.168267	-0.810116	-0.262621
C134	C	1.668267	-0.310116	0.237379
C135	C	1.168240	-0.763200	-0.262612
C136	C	1.668240	-0.263200	0.237388
C137	C	0.978152	-0.763217	-0.452463
C138	C	1.478152	-0.263217	0.047537
C139	C	0.978182	-0.810133	-0.452468
C140	C	1.478182	-0.310133	0.047532
C141	C	1.025715	-0.833587	-0.405009
C142	C	1.525715	-0.333587	0.094991
C143	C	1.266810	-0.216557	-0.357467
C144	C	1.766810	0.283443	0.142533
C145	C	1.349356	-0.216570	-0.357453
C146	C	1.849356	0.283430	0.142547
C147	C	1.073145	-0.216485	-0.551204
C148	C	1.573145	0.283515	-0.051204
C149	C	1.073162	-0.216468	-0.633750
C150	C	1.573162	0.283532	-0.133750
C151	C	1.073260	-0.099347	-0.357552
C152	C	1.573260	0.400653	0.142448
C153	C	1.073326	-0.049413	-0.357574
C154	C	1.573326	0.450587	0.142426
C155	C	1.122855	-0.186438	-0.882581
C156	C	1.622855	0.313562	-0.382581
C157	C	1.140961	-0.227432	-0.833159
C158	C	1.640961	0.272568	-0.333159
C159	C	1.073210	-0.216440	-0.930871
C160	C	1.573210	0.283560	-0.430871
C161	C	1.055115	-0.175462	-0.833211
C162	C	1.555115	0.324538	-0.333211
C163	C	1.073189	-0.216452	-0.784885
C164	C	1.573189	0.283548	-0.284885
C165	C	1.091352	-0.257456	-0.882535
C166	C	1.591352	0.242544	-0.382535
C167	C	1.005475	-0.205458	-0.882592
C168	C	1.505475	0.294542	-0.382592
C169	C	1.023555	-0.246481	-0.833192
C170	C	1.523555	0.253519	-0.333192
C171	C	1.073225	-0.216432	-1.014969
C172	C	1.573225	0.283568	-0.514969
C173	C	1.073174	-0.216464	-0.700789
C174	C	1.573174	0.283536	-0.200789
C175	C	1.073108	-0.216533	-0.164547
C176	C	1.573108	0.283467	0.335453
C177	C	1.073234	-0.216424	-0.082001
C178	C	1.573234	0.283576	0.417999
H179	H	0.527065	-0.196372	-0.482627
H180	H	1.027065	0.303628	0.017373
O181	O	0.931950	-0.599727	-0.498665
O182	O	1.431950	-0.099727	0.001335
C183	C	0.948162	-0.611144	-0.572694
C184	C	1.448162	-0.111144	-0.072694
H185	H	0.976728	-0.645194	-0.574253
H186	H	1.476728	-0.145194	-0.074253
H187	H	0.894548	-0.612763	-0.605965
H188	H	1.394548	-0.112763	-0.105965
H189	H	0.986317	-0.584708	-0.597725
H190	H	1.486317	-0.084708	-0.097725
H191	H	1.206968	-0.829220	-0.223977
H192	H	1.706968	-0.329220	0.276023
O193	O	1.173085	-0.156252	-0.908424
O194	O	1.673085	0.343748	-0.408424
C195	C	1.244413	-0.168002	-0.883218
C196	C	1.744413	0.331998	-0.383218
H197	H	1.245764	-0.205267	-0.869334
H198	H	1.745764	0.294733	-0.369334
H199	H	1.286795	-0.160512	-0.928391
H200	H	1.786795	0.339488	-0.428391
H201	H	1.258357	-0.147728	-0.831550
H202	H	1.758357	0.352272	-0.331550
H203	H	1.206928	-0.744101	-0.223955
H204	H	1.706928	-0.244101	0.276045
O205	O	1.214356	-0.599616	-0.216577
O206	O	1.714356	-0.099616	0.283423
C207	C	1.262298	-0.572445	-0.258887
C208	C	1.762298	-0.072445	0.241113
H209	H	1.236065	-0.565401	-0.315147
H210	H	1.736065	-0.065401	0.184853
H211	H	1.272262	-0.539463	-0.228635
H212	H	1.772262	-0.039463	0.271365
H213	H	1.317333	-0.590500	-0.267092
H214	H	1.817333	-0.090500	0.232908
H215	H	0.939486	-0.829231	-0.491126
H216	H	1.439486	-0.329231	0.008874
O217	O	0.973544	-0.276849	-0.807512
O218	O	1.473544	0.223151	-0.307512
C219	C	0.992875	-0.319984	-0.832795
C220	C	1.492875	0.180016	-0.332795
H221	H	1.054491	-0.320846	-0.846578
H222	H	1.554491	0.179154	-0.346578
H223	H	0.980372	-0.345668	-0.787709
H224	H	1.480372	0.154332	-0.287709
H225	H	0.959395	-0.328319	-0.884541
H226	H	1.459395	0.171681	-0.384541
H227	H	1.039821	-0.140803	-0.811542
H228	H	1.539821	0.359197	-0.311542
H229	H	0.948219	-0.196149	-0.904323
H230	H	1.448219	0.303851	-0.404323
O231	O	0.979321	-0.476290	-0.451129
O232	O	1.479321	0.023710	0.048871
C233	C	0.937346	-0.445525	-0.492999
C234	C	1.437346	0.054475	0.007001
H235	H	0.967741	-0.412062	-0.495575
H236	H	1.467741	0.087938	0.004425
H237	H	0.929401	-0.459055	-0.551513
H238	H	1.429401	0.040945	-0.051513
H239	H	0.880954	-0.440581	-0.465769
H240	H	1.380954	0.059419	0.034231
O241	O	0.931901	-0.740507	-0.498587
O242	O	1.431901	-0.240507	0.001413
C243	C	0.889989	-0.771283	-0.540489
C244	C	1.389989	-0.271283	-0.040489
H245	H	0.887467	-0.804742	-0.510072
H246	H	1.387467	-0.304742	-0.010072
H247	H	0.831459	-0.757760	-0.548365
H248	H	1.331459	-0.257760	-0.048365
H249	H	0.917148	-0.776233	-0.596914
H250	H	1.417148	-0.276233	-0.096914
H251	H	0.619803	-0.271952	-0.448954
H252	H	1.119803	0.228048	0.051046
O253	O	0.522833	-0.298855	-0.320942
O254	O	1.022833	0.201145	0.179058
C255	C	0.478746	-0.315534	-0.379221
C256	C	0.978746	0.184466	0.120779
H257	H	0.494828	-0.298177	-0.433157
H258	H	0.994828	0.201823	0.066843
H259	H	0.487891	-0.353174	-0.384903
H260	H	0.987891	0.146826	0.115097
H261	H	0.417870	-0.308737	-0.366728
H262	H	0.917870	0.191263	0.133272
O263	O	0.979406	-0.383841	-0.451123
O264	O	1.479406	0.116159	0.048877
C265	C	1.021660	-0.356652	-0.499088
C266	C	1.521660	0.143348	0.000912
H267	H	1.080151	-0.370766	-0.503710
H268	H	1.580151	0.129234	-0.003710
H269	H	0.994774	-0.356101	-0.556227
H270	H	1.494774	0.143899	-0.056227
H271	H	1.024221	-0.321104	-0.476115
H272	H	1.524221	0.178896	0.023885
O273	O	1.209338	-0.238510	-0.807376
O274	O	1.709338	0.261490	-0.307376
C275	C	1.257470	-0.245898	-0.867659
C276	C	1.757470	0.254102	-0.367659
H277	H	1.235634	-0.227519	-0.918549
H278	H	1.735634	0.272481	-0.418549
H279	H	1.315064	-0.232813	-0.853357
H280	H	1.815064	0.267187	-0.353357
H281	H	1.260632	-0.283335	-0.879818
H282	H	1.760632	0.216665	-0.379818
H283	H	0.527321	-0.161023	-0.266108
H284	H	1.027321	0.338977	0.233892
O285	O	0.624092	-0.134212	-0.394371
O286	O	1.124092	0.365788	0.105629
C287	C	0.702197	-0.134698	-0.394177
C288	C	1.202197	0.365302	0.105823
H289	H	0.722627	-0.170500	-0.402333
H290	H	1.222627	0.329500	0.097667
H291	H	0.723764	-0.112676	-0.441096
H292	H	1.223764	0.387324	0.058904
H293	H	0.723358	-0.121310	-0.338948
H294	H	1.223358	0.378690	0.161052
H295	H	0.619915	-0.236705	-0.232444
H296	H	1.119915	0.263295	0.267556
H297	H	1.106730	-0.292122	-0.904112
H298	H	1.606730	0.207878	-0.404112
H299	H	1.206900	-0.688461	-0.223946
H300	H	1.706900	-0.188461	0.276054
H301	H	1.159266	-0.472645	-0.271372
H302	H	1.659266	0.027355	0.228628
O303	O	1.166635	-0.383896	-0.263793
O304	O	1.666635	0.116104	0.236207
C305	C	1.150444	-0.395396	-0.189767
C306	C	1.650444	0.104604	0.310233
H307	H	1.121912	-0.429477	-0.188218
H308	H	1.621912	0.070523	0.311782
H309	H	1.204063	-0.396991	-0.156502
H310	H	1.704063	0.103009	0.343498
H311	H	1.112265	-0.369021	-0.164720
H312	H	1.612265	0.130979	0.335280
O313	O	1.167041	-0.956311	-0.263961
O314	O	1.667041	-0.456311	0.236039
C315	C	1.208980	-0.987079	-0.222061
C316	C	1.708980	-0.487079	0.277939
H317	H	1.211544	-1.020509	-0.252489
H318	H	1.711544	-0.520509	0.247511
H319	H	1.267494	-0.973502	-0.214171
H320	H	1.767494	-0.473502	0.285829
H321	H	1.181818	-0.992106	-0.165642
H322	H	1.681818	-0.492106	0.334358
H323	H	1.159546	-1.045053	-0.271463
H324	H	1.659546	-0.545053	0.228537
H325	H	0.987097	-1.045057	-0.443684
H326	H	1.487097	-0.545057	0.056316
O327	O	0.979519	-0.956331	-0.451158
O328	O	1.479519	-0.456331	0.048842
C329	C	0.937604	-0.987107	-0.493057
C330	C	1.437604	-0.487107	0.006943
H331	H	0.935078	-1.020564	-0.462635
H332	H	1.435078	-0.520564	0.037365
H333	H	0.879075	-0.973583	-0.500935
H334	H	1.379075	-0.473583	-0.000935
H335	H	0.964762	-0.992061	-0.549481
H336	H	1.464762	-0.492061	-0.049481
H337	H	0.939412	-0.688476	-0.491115
H338	H	1.439412	-0.188476	0.008885
