data_functionalizedCrystal
_audit_creation_method	'MofGen! by Chris Wilmer'
_symmetry_space_group_name_H-M	'P1'
_symmetry_Int_Tables_number	1
_symmetry_cell_setting	triclinic
loop_
_symmetry_equiv_pos_as_xyz
  x,y,z
_cell_length_a	17.699077
_cell_length_b	6.394989
_cell_length_c	16.176319
_cell_angle_alpha	90.003737
_cell_angle_beta	89.993140
_cell_angle_gamma	95.110856
loop_
_atom_site_label
_atom_site_type_symbol
_atom_site_fract_x
_atom_site_fract_y
_atom_site_fract_z
O1	O	1.006776	-0.264072	-0.068730
O2	O	0.786748	-0.298449	-0.068734
O3	O	0.899885	0.022820	-0.068733
O4	O	0.893639	-0.585341	-0.068731
O5	O	0.899869	0.022840	0.068761
O6	O	0.786732	-0.298429	0.068760
O7	O	1.006760	-0.264052	0.068763
Cu8	Cu	0.896745	-0.281238	0.081315
Cu9	Cu	0.896764	-0.281262	-0.081286
O10	O	0.893623	-0.585321	0.068762
C11	C	0.758531	-0.297209	0.000012
C12	C	0.674475	-0.293520	0.000011
C13	C	0.634981	-0.291771	0.074959
C14	C	0.556002	-0.288271	0.074960
C15	C	0.516519	-0.286536	0.000012
C16	C	0.556019	-0.288279	-0.074942
C17	C	0.634996	-0.291764	-0.074942
C18	C	0.237512	-0.274224	-0.074944
C19	C	0.158529	-0.270745	-0.074938
C20	C	0.158518	-0.270731	0.074959
C21	C	0.237496	-0.274215	0.074959
C22	C	0.276989	-0.275947	0.000005
C23	C	0.362626	-0.279738	0.000005
C24	C	0.430883	-0.282760	0.000011
C25	C	1.034978	-0.265292	0.000015
C26	C	1.119034	-0.268981	0.000011
C27	C	0.898642	0.100645	0.000011
C28	C	0.894868	0.336860	0.000010
N29	N	0.896737	-0.281220	0.195681
N30	N	0.896778	-0.281264	-0.195651
C31	C	0.946850	-0.139020	0.238945
C32	C	0.946854	-0.139018	0.325492
C33	C	0.896748	-0.281227	0.368773
C34	C	0.846629	-0.423434	0.325502
C35	C	0.846622	-0.423424	0.238957
C36	C	0.846655	-0.423473	0.674531
C37	C	0.846668	-0.423476	0.761082
C38	C	0.946887	-0.139067	0.761066
C39	C	0.946880	-0.139057	0.674521
C40	C	0.896759	-0.281255	0.631257
C41	C	0.896755	-0.281253	0.537413
C42	C	0.896755	-0.281241	0.462616
H43	H	0.667151	-0.293192	-0.135973
Br44	Br	0.688557	-0.294147	0.176681
Br45	Br	0.778638	-0.616454	0.615821
Br46	Br	0.502405	-0.285932	0.176680
Br47	Br	0.778603	-0.616405	0.180240
Br48	Br	0.502438	-0.285832	-0.176660
Br49	Br	1.014909	0.053925	0.819784
Br50	Br	0.291076	-0.276590	0.176678
H51	H	0.126384	-0.269330	-0.135974
Br52	Br	1.014863	0.053977	0.384212
H53	H	0.805862	-0.539284	0.796320
H54	H	0.987684	-0.023264	0.639284
Br55	Br	0.104916	-0.268377	0.176684
Br56	Br	0.291100	-0.276571	-0.176667
H57	H	0.987655	-0.023226	0.203712
H58	H	0.805828	-0.539217	0.360747
