data_functionalizedCrystal
_audit_creation_method	'MofGen! by Chris Wilmer'
_symmetry_space_group_name_H-M	'P1'
_symmetry_Int_Tables_number	1
_symmetry_cell_setting	triclinic
loop_
_symmetry_equiv_pos_as_xyz
  x,y,z
_cell_length_a	17.038272
_cell_length_b	17.038272
_cell_length_c	15.500227
_cell_angle_alpha	86.966746
_cell_angle_beta	86.956295
_cell_angle_gamma	88.888444
loop_
_atom_site_label
_atom_site_type_symbol
_atom_site_fract_x
_atom_site_fract_y
_atom_site_fract_z
O1	O	1.052160	-0.167139	-0.071836
O2	O	1.385493	0.166194	0.261497
O3	O	1.718827	0.499528	0.594830
O4	O	0.824350	-0.164430	-0.071862
O5	O	1.157683	0.168903	0.261472
O6	O	1.491016	0.502237	0.594805
O7	O	0.936901	-0.051879	-0.071842
O8	O	1.270234	0.281454	0.261491
O9	O	1.603567	0.614788	0.594824
O10	O	0.939609	-0.279690	-0.071856
O11	O	1.272942	0.053643	0.261478
O12	O	1.606276	0.386977	0.594811
O13	O	0.930069	-0.058680	0.072045
O14	O	1.263402	0.274653	0.405379
O15	O	1.596735	0.607986	0.738712
O16	O	0.817518	-0.171231	0.072026
O17	O	1.150851	0.162102	0.405359
O18	O	1.484185	0.495436	0.738693
O19	O	1.045328	-0.173940	0.072051
O20	O	1.378662	0.159393	0.405385
O21	O	1.711995	0.492726	0.738718
Cu22	Cu	0.930799	-0.173207	0.085177
Cu23	Cu	1.264133	0.160127	0.418510
Cu24	Cu	1.597466	0.493460	0.751843
Cu25	Cu	0.938879	-0.165164	-0.084987
Cu26	Cu	1.272212	0.168170	0.248346
Cu27	Cu	1.605545	0.501503	0.581680
O28	O	0.932777	-0.286491	0.072032
O29	O	1.266111	0.046842	0.405365
O30	O	1.599444	0.380176	0.738699
C31	C	0.791641	-0.165368	0.000079
C32	C	1.124975	0.167966	0.333412
C33	C	1.458308	0.501299	0.666746
C34	C	0.704358	-0.158019	0.000069
C35	C	1.037691	0.175314	0.333403
C36	C	1.371025	0.508648	0.666736
C37	C	0.658749	-0.225482	0.000066
C38	C	0.992082	0.107851	0.333399
C39	C	1.325416	0.441184	0.666733
C40	C	0.576737	-0.218574	0.000078
C41	C	0.910070	0.114759	0.333412
C42	C	1.243403	0.448093	0.666745
C43	C	0.540335	-0.144201	0.000088
C44	C	0.873668	0.189132	0.333421
C45	C	1.207002	0.522465	0.666755
C46	C	0.585950	-0.076733	0.000094
C47	C	0.919283	0.256600	0.333427
C48	C	1.252617	0.589934	0.666760
C49	C	0.667961	-0.083642	0.000088
C50	C	1.001294	0.249691	0.333421
C51	C	1.334627	0.583024	0.666754
C52	C	0.292946	-0.119792	0.000112
C53	C	0.626279	0.213541	0.333446
C54	C	0.959613	0.546875	0.666779
C55	C	0.210929	-0.112887	0.000116
C56	C	0.544263	0.220446	0.333449
C57	C	0.877596	0.553779	0.666783
C58	C	0.201721	-0.254729	0.000102
C59	C	0.535055	0.078604	0.333436
C60	C	0.868388	0.411937	0.666769
C61	C	0.283734	-0.261632	0.000091
C62	C	0.617068	0.071701	0.333424
C63	C	0.950401	0.405035	0.666758
C64	C	0.329342	-0.194164	0.000101
C65	C	0.662675	0.139170	0.333435
C66	C	0.996009	0.472503	0.666768
C67	C	0.456505	-0.137138	0.000098
C68	C	0.789839	0.196195	0.333431
C69	C	1.123172	0.529529	0.666764
C70	C	0.413170	-0.201228	0.000098
C71	C	0.746503	0.132105	0.333431
C72	C	1.079836	0.465439	0.666764
C73	C	0.931022	-0.025987	0.000101
C74	C	1.264355	0.307346	0.333434
C75	C	1.597688	0.640680	0.666768
C76	C	0.923674	0.061297	0.000100
C77	C	1.257007	0.394630	0.333433
C78	C	1.590340	0.727963	0.666767
C79	C	1.078037	-0.173003	0.000109
C80	C	1.411370	0.160331	0.333442
C81	C	1.744703	0.493664	0.666775
C82	C	1.165320	-0.180351	0.000113
C83	C	1.498654	0.152982	0.333446
C84	C	1.831987	0.486316	0.666779
C85	C	0.938656	-0.312383	0.000087
C86	C	1.271990	0.020950	0.333420
C87	C	1.605323	0.354283	0.666753
C88	C	0.946004	-0.399667	0.000082
C89	C	1.279338	-0.066333	0.333415
C90	C	1.612671	0.267000	0.666749
N91	N	0.925122	-0.178864	0.204861
N92	N	1.258456	0.154470	0.538194
N93	N	1.591789	0.487803	0.871527
C94	C	0.991137	0.106906	0.000108
C95	C	1.324470	0.440239	0.333442
C96	C	1.657804	0.773572	0.666775
C97	C	0.984229	0.188918	0.000100
C98	C	1.317562	0.522251	0.333433
C99	C	1.650895	0.855585	0.666766
C100	C	0.909856	0.225320	0.000088
C101	C	1.243189	0.558653	0.333422
C102	C	1.576522	0.891986	0.666755
C103	C	0.842388	0.179705	0.000077
C104	C	1.175721	0.513038	0.333411
C105	C	1.509054	0.846371	0.666744
C106	C	0.849297	0.097694	0.000080
C107	C	1.182631	0.431028	0.333413
C108	C	1.515964	0.764361	0.666747
C109	C	0.885446	0.472708	0.000074
C110	C	1.218779	0.806041	0.333407
C111	C	1.552113	1.139375	0.666740
C112	C	0.878541	0.554725	0.000074
C113	C	1.211875	0.888058	0.333407
C114	C	1.545208	1.221391	0.666740
C115	C	1.020383	0.563932	0.000094
C116	C	1.353716	0.897266	0.333427
C117	C	1.687050	1.230599	0.666761
C118	C	1.027286	0.481919	0.000102
C119	C	1.360619	0.815253	0.333435
C120	C	1.693952	1.148586	0.666769
C121	C	0.959818	0.436312	0.000087
C122	C	1.293151	0.769645	0.333420
C123	C	1.626484	1.102979	0.666753
C124	C	0.902792	0.309149	0.000082
C125	C	1.236126	0.642482	0.333415
C126	C	1.569459	0.975816	0.666749
C127	C	0.966882	0.352484	0.000087
C128	C	1.300216	0.685818	0.333420
C129	C	1.633549	1.019151	0.666754
N130	N	0.944561	-0.159501	-0.204671
N131	N	1.277895	0.173833	0.128662
N132	N	1.611228	0.507166	0.461996
C133	C	0.972833	-0.131192	0.250145
C134	C	1.306166	0.202141	0.583479
C135	C	1.639500	0.535475	0.916812
C136	C	0.968547	-0.135478	0.340718
C137	C	1.301881	0.197855	0.674051
C138	C	1.635214	0.531189	1.007384
C139	C	0.916555	-0.187440	0.386003
C140	C	1.249888	0.145893	0.719336
C141	C	1.583221	0.479226	1.052670
C142	C	0.868839	-0.235114	0.340712
C143	C	1.202172	0.098219	0.674045
C144	C	1.535505	0.431553	1.007379
C145	C	0.873121	-0.230823	0.250142
C146	C	1.206454	0.102510	0.583475
C147	C	1.539787	0.435843	0.916808
C148	C	0.901128	-0.202884	0.659467
C149	C	1.234461	0.130450	0.992801
C150	C	1.567794	0.463783	1.326134
C151	C	0.896851	-0.207172	0.750044
C152	C	1.230184	0.126161	1.083378
C153	C	1.563517	0.459494	1.416711
C154	C	0.996559	-0.107535	0.750044
C155	C	1.329892	0.225798	1.083377
C156	C	1.663226	0.559132	1.416710
C157	C	1.000840	-0.103252	0.659471
C158	C	1.334173	0.230081	0.992805
C159	C	1.667507	0.563414	1.326138
C160	C	0.953121	-0.150923	0.614188
C161	C	1.286454	0.182410	0.947521
C162	C	1.619788	0.515744	1.280855
C163	C	0.912174	-0.191824	0.478582
C164	C	1.245508	0.141509	0.811916
C165	C	1.578841	0.474842	1.145249
C166	C	0.957498	-0.146534	0.521610
C167	C	1.290831	0.186799	0.854944
C168	C	1.624164	0.520132	1.188277
H169	H	0.313367	-0.322194	0.000073
H170	H	0.646700	0.011140	0.333407
H171	H	0.980033	0.344473	0.666740
F172	F	0.451912	-0.280379	0.000091
F173	F	0.785246	0.052955	0.333424
F174	F	1.118579	0.386288	0.666758
F175	F	0.716501	-0.011838	0.000094
F176	F	1.049834	0.321495	0.333427
F177	F	1.383168	0.654828	0.666761
H178	H	0.999827	-0.104223	0.484736
H179	H	1.333161	0.229110	0.818070
H180	H	1.666494	0.562443	1.151403
F181	F	1.047340	-0.056802	0.798243
F182	F	1.380673	0.276532	1.131576
F183	F	1.714006	0.609865	1.464909
H184	H	0.826501	-0.277420	0.377589
H185	H	1.159834	0.055913	0.710922
H186	H	1.493167	0.389247	1.044255
H187	H	0.794361	0.060560	0.000073
H188	H	1.127695	0.393893	0.333406
H189	H	1.461028	0.727227	0.666740
H190	H	1.039164	0.226049	0.000108
H191	H	1.372498	0.559383	0.333442
H192	H	1.705831	0.892716	0.666775
F193	F	1.028176	-0.075890	0.201958
F194	F	1.361509	0.257444	0.535291
F195	F	1.694842	0.590777	0.868624
F196	F	0.697483	-0.304641	0.000050
F197	F	1.030816	0.028693	0.333384
F198	F	1.364150	0.362026	0.666717
F199	F	1.056177	-0.047949	0.611276
F200	F	1.389510	0.285384	0.944610
F201	F	1.722844	0.618717	1.277943
F202	F	0.763235	0.218449	0.000056
F203	F	1.096568	0.551782	0.333389
F204	F	1.429901	0.885115	0.666722
H205	H	0.556305	-0.016177	0.000114
H206	H	0.889638	0.317156	0.333447
H207	H	1.222972	0.650489	0.666780
F208	F	0.417757	-0.057987	0.000105
F209	F	0.751090	0.275347	0.333438
F210	F	1.084424	0.608680	0.666771
F211	F	1.070295	0.068171	0.000129
F212	F	1.403628	0.401505	0.333462
F213	F	1.736962	0.734838	0.666795
F214	F	0.153177	-0.326529	0.000093
F215	F	0.486510	0.006805	0.333426
F216	F	0.819844	0.340138	0.666760
F217	F	1.019325	-0.084740	0.388913
F218	F	1.352659	0.248594	0.722247
F219	F	1.685992	0.581927	1.055580
F220	F	1.046033	0.313742	0.000094
F221	F	1.379366	0.647075	0.333427
F222	F	1.712700	0.980408	0.666760
H223	H	0.181294	-0.052321	0.000123
H224	H	0.514628	0.281012	0.333456
H225	H	0.847961	0.614346	0.666789
H226	H	0.854510	-0.249490	0.786912
H227	H	1.187843	0.083844	1.120245
H228	H	1.521176	0.417177	1.453578
F229	F	0.341475	-0.047985	0.000123
F230	F	0.674808	0.285348	0.333457
F231	F	1.008141	0.618682	0.666790
F232	F	0.813639	0.424180	0.000055
F233	F	1.146973	0.757513	0.333388
F234	F	1.480306	1.090846	0.666722
H235	H	0.842237	0.338796	0.000075
H236	H	1.175571	0.672130	0.333408
H237	H	1.508904	1.005463	0.666741
F238	F	0.856842	-0.247128	0.526784
F239	F	1.190175	0.086206	0.860117
F240	F	1.523508	0.419539	1.193450
H241	H	0.862274	-0.241701	0.622605
H242	H	1.195608	0.091633	0.955938
H243	H	1.528941	0.424966	1.289271
H244	H	0.539605	-0.273510	0.000075
H245	H	0.872938	0.059823	0.333408
H246	H	1.206272	0.393156	0.666741
F247	F	1.092182	0.612476	0.000110
F248	F	1.425515	0.945810	0.333443
F249	F	1.758849	1.279143	0.666776
F250	F	1.106444	0.443185	0.000092
F251	F	1.439778	0.776519	0.333425
F252	F	1.773111	1.109852	0.666759
F253	F	0.799380	0.593464	0.000066
F254	F	1.132713	0.926797	0.333399
F255	F	1.466046	1.260130	0.666733
F256	F	0.822338	-0.281560	0.201947
F257	F	1.155671	0.051773	0.535281
F258	F	1.489004	0.385106	0.868614
