data_functionalizedCrystal
_audit_creation_method	'MofGen! by Chris Wilmer'
_symmetry_space_group_name_H-M	'P1'
_symmetry_Int_Tables_number	1
_symmetry_cell_setting	triclinic
loop_
_symmetry_equiv_pos_as_xyz
  x,y,z
_cell_length_a	15.995343
_cell_length_b	15.072220
_cell_length_c	14.044209
_cell_angle_alpha	89.987916
_cell_angle_beta	91.661431
_cell_angle_gamma	89.999635
loop_
_atom_site_label
_atom_site_type_symbol
_atom_site_fract_x
_atom_site_fract_y
_atom_site_fract_z
O1	O	1.120111	0.073699	-0.122151
O2	O	0.877462	0.073721	-0.137246
O3	O	0.995145	0.073697	0.008286
O4	O	1.002428	0.073722	-0.267683
O5	O	0.995135	-0.073868	0.008304
O6	O	0.877452	-0.073844	-0.137229
O7	O	1.120101	-0.073866	-0.122133
Zn8	Zn	0.998775	-0.097285	-0.129678
Zn9	Zn	0.998788	0.097139	-0.129701
O10	O	1.002418	-0.073843	-0.267666
C11	C	0.846216	-0.000059	-0.136615
C12	C	0.753126	-0.000051	-0.134748
C13	C	0.582686	-0.000064	-0.131359
C14	C	0.551495	-0.000073	-0.026307
C15	C	0.454669	-0.000413	-0.024330
C16	C	0.414877	-0.000074	-0.128021
C17	C	0.447908	-0.084169	-0.180833
C18	C	0.544793	-0.084234	-0.182079
C19	C	0.544830	0.083581	-0.183637
C20	C	0.448045	0.084681	-0.179759
C21	C	0.320038	-0.000084	-0.126140
C22	C	0.677525	-0.000060	-0.133243
N23	N	0.998772	-0.229973	-0.129662
C24	C	0.998788	-0.589175	-0.129694
C25	C	1.062000	-0.551553	-0.052083
C26	C	1.061799	-0.448727	-0.051796
C27	C	0.998781	-0.410971	-0.129678
C28	C	0.909811	-0.448308	-0.108080
C29	C	0.910178	-0.551166	-0.107532
C30	C	1.023776	-0.551245	-0.229132
C31	C	1.025709	-0.448381	-0.228466
C32	C	0.998772	-0.310257	-0.129671
C33	C	0.998791	-0.689888	-0.129699
C34	C	1.151347	-0.000085	-0.122765
C35	C	1.244437	-0.000087	-0.124632
C36	C	0.991952	-0.000086	0.043609
C37	C	0.982442	-0.000089	0.148835
N38	N	0.998797	0.229828	-0.129710
C39	C	0.965055	-0.000080	0.341496
C40	C	1.032511	-0.000085	0.399131
C41	C	1.022837	-0.000080	0.506334
C42	C	0.974728	-0.000085	0.234283
C43	C	1.005613	-0.000065	0.697011
C44	C	1.015128	-0.000076	0.591787
H45	H	0.577484	-0.060295	0.013756
C46	C	1.120347	-0.000105	0.357025
N47	N	1.186502	-0.000124	0.325307
H48	H	0.432566	0.059857	0.017011
H49	H	0.900043	-0.000073	0.372663
C50	C	0.881156	-0.413537	-0.011219
N51	N	0.859580	-0.387351	0.061741
H52	H	1.127696	-0.423483	-0.064656
C53	C	0.585244	0.081374	0.028703
N54	N	0.610674	0.142719	0.070139
C55	C	0.844203	-0.584791	-0.180988
N56	N	0.794506	-0.610113	-0.236308
H57	H	0.433155	-0.061055	0.016832
H58	H	0.568875	-0.147342	-0.145917
C59	C	0.571571	0.084692	-0.288096
N60	N	0.591718	0.085523	-0.366770
H61	H	0.421761	-0.087054	-0.257145
C62	C	0.572256	-0.089074	-0.286151
N63	N	0.592937	-0.092726	-0.364536
H64	H	0.977767	-0.575578	-0.286889
H65	H	0.425105	-0.146997	-0.144583
C66	C	0.579677	0.169720	-0.138865
N67	N	0.605923	0.234597	-0.105132
C68	C	0.419093	0.168732	-0.127809
N69	N	0.397279	0.232038	-0.088679
C70	C	1.151300	-0.584970	-0.069171
N71	N	1.218562	-0.610149	-0.082041
C72	C	0.411180	0.091886	-0.281985
N73	N	0.383416	0.097306	-0.358987
C74	C	1.039656	-0.586483	0.047048
N75	N	1.022823	-0.612793	0.121712
H76	H	1.045067	-0.424135	0.021998
H77	H	0.861331	-0.423852	-0.163104
C78	C	0.881953	-0.583598	-0.009561
N79	N	0.860695	-0.608021	0.064234
C80	C	1.110092	-0.586277	-0.257172
N81	N	1.175109	-0.612664	-0.278281
H82	H	1.091196	-0.423978	-0.244854
C83	C	0.968308	-0.413655	-0.310147
N84	N	0.925067	-0.387499	-0.371668
