data_functionalizedCrystal
_audit_creation_method	'MofGen! by Chris Wilmer'
_symmetry_space_group_name_H-M	'P1'
_symmetry_Int_Tables_number	1
_symmetry_cell_setting	triclinic
loop_
_symmetry_equiv_pos_as_xyz
  x,y,z
_cell_length_a	12.759401
_cell_length_b	11.169416
_cell_length_c	12.759393
_cell_angle_alpha	89.971939
_cell_angle_beta	89.979062
_cell_angle_gamma	90.011674
loop_
_atom_site_label
_atom_site_type_symbol
_atom_site_fract_x
_atom_site_fract_y
_atom_site_fract_z
Zn1	Zn	1.606300	-0.477700	-0.594038
Zn2	Zn	1.606205	-0.678429	-0.418365
Zn3	Zn	1.430598	-0.477764	-0.418373
Zn4	Zn	1.430604	-0.678345	-0.594003
O5	O	1.518427	-0.578060	-0.506195
O6	O	1.753308	-0.504336	-0.570746
O7	O	1.582868	-0.651872	-0.271345
O8	O	1.453943	-0.309806	-0.441693
O9	O	1.753238	-0.651810	-0.441680
O10	O	1.583030	-0.309759	-0.570753
O11	O	1.453851	-0.504445	-0.271351
O12	O	1.283578	-0.504363	-0.441659
O13	O	1.453953	-0.651667	-0.741029
O14	O	1.283582	-0.651729	-0.570693
O15	O	1.583035	-0.504254	-0.741054
O16	O	1.582874	-0.846368	-0.441646
O17	O	1.453861	-0.846306	-0.570686
C18	C	1.245459	-0.578045	-0.506174
C19	C	1.128683	-0.578068	-0.506190
C20	C	1.073850	-0.654918	-0.573272
C21	C	0.964126	-0.654923	-0.573293
C22	C	0.964076	-0.501223	-0.439140
C23	C	1.073798	-0.501213	-0.439125
C24	C	1.518386	-0.889884	-0.506184
C25	C	1.518465	-1.023284	-0.506215
C26	C	1.792460	-0.578075	-0.506216
C27	C	1.909237	-0.578082	-0.506226
C28	C	1.518505	-0.577944	-0.780228
C29	C	1.518539	-0.577895	-0.897005
C30	C	1.518496	-0.265017	-0.506228
C31	C	1.518526	-0.131617	-0.506242
C32	C	1.585757	-0.501125	-0.951882
C33	C	1.585775	-0.501073	-1.061606
C34	C	1.451353	-0.654573	-1.061566
C35	C	1.451331	-0.654617	-0.951844
C36	C	1.518409	-0.578088	-0.233227
C37	C	1.518579	-0.577799	-0.116451
H38	H	0.919376	-0.438653	-0.384537
O39	O	1.385927	-0.728977	-1.114791
C40	C	1.281217	-0.702772	-1.087948
H41	H	1.275926	-0.606903	-1.057800
H42	H	1.229324	-0.713082	-1.160096
H43	H	1.253727	-0.767139	-1.024245
O44	O	1.651022	-0.426333	-1.114795
C45	C	1.628070	-0.306724	-1.088004
H46	H	1.587666	-0.304273	-1.008333
H47	H	1.703908	-0.252919	-1.084263
H48	H	1.574079	-0.266263	-1.149751
O49	O	0.910816	-0.729407	-0.638567
C50	C	0.847374	-0.661180	-0.706523
H51	H	0.880455	-0.566660	-0.713150
H52	H	0.846169	-0.704703	-0.787310
H53	H	0.764201	-0.657006	-0.674061
H54	H	1.396586	-0.717132	-0.907162
O55	O	1.127119	-0.729434	-0.638574
C56	C	1.100341	-0.703364	-0.743326
H57	H	1.070193	-0.607493	-0.748771
H58	H	1.172523	-0.713765	-0.795208
H59	H	1.036658	-0.767750	-0.770703
H60	H	1.118444	-0.438625	-0.384499
H61	H	1.640479	-0.438650	-0.907235
