data_functionalizedCrystal
_audit_creation_method	'MofGen! by Chris Wilmer'
_symmetry_space_group_name_H-M	'P1'
_symmetry_Int_Tables_number	1
_symmetry_cell_setting	triclinic
loop_
_symmetry_equiv_pos_as_xyz
  x,y,z
_cell_length_a	6.394989
_cell_length_b	16.992695
_cell_length_c	15.455313
_cell_angle_alpha	87.152573
_cell_angle_beta	92.758373
_cell_angle_gamma	88.582967
loop_
_atom_site_label
_atom_site_type_symbol
_atom_site_fract_x
_atom_site_fract_y
_atom_site_fract_z
O1	O	-2.801569	-0.125324	-0.072123
O2	O	-2.194523	-0.131806	-0.072127
O3	O	-2.495611	-0.014398	-0.072118
O4	O	-2.500480	-0.242731	-0.072132
O5	O	-2.478389	-0.021084	0.072143
O6	O	-2.177300	-0.138491	0.072135
O7	O	-2.784346	-0.132009	0.072138
Cu8	Cu	-2.479251	-0.135861	0.085309
Cu9	Cu	-2.499618	-0.127954	-0.085297
O10	O	-2.483258	-0.249416	0.072130
C11	C	-2.480739	0.011533	0.000012
C12	C	-2.462058	0.098762	0.000012
C13	C	-2.498130	-0.275348	-0.000003
C14	C	-2.516812	-0.362577	-0.000008
N15	N	-2.464941	-0.141421	0.205304
C16	C	-2.107876	-0.133867	0.000008
C17	C	-1.870987	-0.129950	0.000012
N18	N	-2.513944	-0.122388	-0.205292
C19	C	-2.642306	0.147221	0.000014
C20	C	-2.624741	0.229182	0.000006
C21	C	-2.426927	0.262682	0.000002
C22	C	-2.246666	0.214216	-0.000003
C23	C	-2.264233	0.132257	-0.000001
C24	C	-2.354118	0.506999	-0.000011
C25	C	-2.336564	0.588964	-0.000010
C26	C	-2.714642	0.603925	-0.000003
C27	C	-2.732191	0.521963	0.000004
C28	C	-2.551931	0.473505	-0.000005
N29	N	-2.408968	0.346458	-0.000004
N30	N	-2.569892	0.389731	-0.000005
C31	C	-2.592904	-0.091562	0.250702
C32	C	-2.582103	-0.095774	0.341509
C33	C	-2.443347	-0.149851	0.386917
C34	C	-2.315369	-0.199712	0.341513
C35	C	-2.326161	-0.195495	0.250707
C36	C	-2.396759	-0.168032	0.658497
C37	C	-2.385980	-0.172247	0.749310
C38	C	-2.652713	-0.068307	0.749300
C39	C	-2.663502	-0.064098	0.658492
C40	C	-2.535516	-0.113957	0.613096
N41	N	-2.432307	-0.154160	0.479737
N42	N	-2.546547	-0.109644	0.520277
H43	H	-2.771519	0.268635	0.000009
H44	H	-2.272983	-0.216286	0.786277
O45	O	-2.855673	0.111097	0.000019
H46	H	-2.837614	0.045964	0.000028
H47	H	-2.292552	-0.208631	0.621543
O48	O	-2.742519	-0.033221	0.201724
H49	H	-2.854657	-0.065375	0.160332
O50	O	-2.123189	0.625093	-0.000008
H51	H	-2.141264	0.690225	0.000007
O52	O	-2.165714	-0.258043	0.390482
H53	H	-2.179723	-0.252607	0.461253
O54	O	-2.033299	0.250341	0.000002
H55	H	-2.051359	0.315473	0.000013
H56	H	-2.221957	-0.236095	0.213745
H57	H	-2.893273	0.494694	0.000008
O58	O	-2.909062	0.656187	0.000001
H59	H	-2.863625	0.718807	-0.000007
O60	O	-2.159689	0.454745	0.000001
H61	H	-2.072669	0.469616	-0.058791
H62	H	-2.117455	0.092802	-0.000003
H63	H	-2.686299	-0.055174	0.378472
O64	O	-2.790745	-0.014529	0.798258
H65	H	-2.691395	0.022619	0.839639
H66	H	-2.776488	-0.020065	0.621522
