data_functionalizedCrystal
_audit_creation_method	'MofGen! by Chris Wilmer'
_symmetry_space_group_name_H-M	'P1'
_symmetry_Int_Tables_number	1
_symmetry_cell_setting	triclinic
loop_
_symmetry_equiv_pos_as_xyz
  x,y,z
_cell_length_a	14.044220
_cell_length_b	12.811457
_cell_length_c	11.892095
_cell_angle_alpha	91.498327
_cell_angle_beta	94.243827
_cell_angle_gamma	88.595730
loop_
_atom_site_label
_atom_site_type_symbol
_atom_site_fract_x
_atom_site_fract_y
_atom_site_fract_z
O1	O	0.130897	1.401369	0.049656
O2	O	0.630897	1.901369	0.549656
O3	O	0.142797	1.099114	0.018668
O4	O	0.642797	1.599114	0.518668
O5	O	-0.001185	1.245704	0.033708
O6	O	0.498815	1.745704	0.533708
O7	O	0.274879	1.254779	0.034616
O8	O	0.774879	1.754779	0.534616
O9	O	0.010802	1.233480	0.220461
O10	O	0.510802	1.733480	0.720461
O11	O	0.154783	1.086890	0.205421
O12	O	0.654783	1.586890	0.705421
O13	O	0.142883	1.389144	0.236410
O14	O	0.642883	1.889144	0.736410
Zn15	Zn	0.150736	1.236077	0.250566
Zn16	Zn	0.650736	1.736077	0.750566
Zn17	Zn	0.134944	1.252182	0.004511
Zn18	Zn	0.634944	1.752182	0.504511
O19	O	0.286865	1.242555	0.221369
O20	O	0.786865	1.742555	0.721369
C21	C	0.147756	1.054087	0.108055
C22	C	0.647756	1.554087	0.608055
C23	C	0.144663	0.938129	0.096167
C24	C	0.644663	1.438129	0.596167
C25	C	0.151903	0.706904	0.277449
C26	C	0.651903	1.206904	0.777449
C27	C	0.148997	0.597952	0.266284
C28	C	0.648997	1.097952	0.766284
C29	C	0.135939	0.611270	0.062675
C30	C	0.635939	1.111270	0.562675
C31	C	0.138845	0.720222	0.073839
C32	C	0.638845	1.220222	0.573839
C33	C	0.146828	0.768035	0.181229
C34	C	0.646828	1.268035	0.681229
C35	C	0.149741	0.876990	0.192393
C36	C	0.649741	1.376990	0.692393
C37	C	0.136676	0.890306	-0.011216
C38	C	0.636676	1.390306	0.488784
C39	C	0.133770	0.781354	-0.022380
C40	C	0.633770	1.281354	0.477620
C41	C	-0.030548	1.235620	0.126678
C42	C	0.469452	1.735620	0.626678
C43	C	-0.135899	1.223773	0.125465
C44	C	0.364101	1.723773	0.625465
C45	C	-0.328789	1.202114	0.123228
C46	C	0.171211	1.702114	0.623228
C47	C	-0.385537	1.286141	0.131839
C48	C	0.114463	1.786141	0.631839
C49	C	-0.492868	1.274090	0.130595
C50	C	0.007132	1.774090	0.630595
C51	C	-0.221448	1.214164	0.124472
C52	C	0.278552	1.714164	0.624472
C53	C	0.316228	1.252639	0.128397
C54	C	0.816228	1.752639	0.628397
C55	C	0.421578	1.264487	0.129603
C56	C	0.921578	1.764487	0.629603
C57	C	0.137924	1.434172	0.147020
C58	C	0.637924	1.934172	0.647020
C59	C	0.141016	1.550130	0.158901
C60	C	0.641016	2.050130	0.658901
N61	N	0.161514	1.225092	0.418493
N62	N	0.661514	1.725092	0.918493
N63	N	0.124159	1.263174	-0.163415
N64	N	0.624159	1.763174	0.336585
C65	C	0.049111	1.339602	0.666890
C66	C	0.549111	1.839602	1.166890
C67	C	0.056651	1.331932	0.784445
C68	C	0.556651	1.831932	1.284445
C69	C	0.184129	1.202079	0.771160
C70	C	0.684129	1.702079	1.271160
C71	C	0.176589	1.209748	0.653605
C72	C	0.676589	1.709748	1.153605
C73	C	0.109079	1.278513	0.601475
C74	C	0.609079	1.778513	1.101475
C75	C	0.101544	1.286188	0.483918
C76	C	0.601544	1.786188	0.983918
C77	C	0.229017	1.156329	0.470635
C78	C	0.729017	1.656329	0.970635
C79	C	0.236557	1.148659	0.588190
C80	C	0.736557	1.648659	1.088190
H81	H	0.158416	0.745833	0.364890
H82	H	0.658416	1.245833	0.864890
H83	H	0.132550	0.940091	-0.089565
H84	H	0.632550	1.440091	0.410435
H85	H	-0.353516	1.367134	0.140067
H86	H	0.146484	1.867134	0.640067
H87	H	0.291520	1.092669	0.630648
H88	H	0.791520	1.592669	1.130648
H89	H	0.277849	1.106590	0.417360
H90	H	0.777849	1.606590	0.917360
H91	H	-0.360813	1.121132	0.114922
H92	H	0.139187	1.621132	0.614922
H93	H	0.046576	1.342183	0.441475
H94	H	0.546576	1.842183	0.941475
H95	H	-0.005853	1.395601	0.624446
H96	H	0.494147	1.895601	1.124446
H97	H	0.129423	0.572322	-0.024757
H98	H	0.629423	1.072322	0.475243
H99	H	0.156247	0.915917	0.279835
H100	H	0.656247	1.415917	0.779835
H101	H	0.239088	1.146084	0.813619
H102	H	0.739088	1.646084	1.313619
H103	H	0.153134	0.548182	0.344636
H104	H	0.653134	1.048182	0.844636
H105	H	0.127266	0.742409	-0.109814
H106	H	0.627266	1.242409	0.390186
H107	H	0.007818	1.381676	0.837704
H108	H	0.507818	1.881676	1.337704
