data_functionalizedCrystal
_audit_creation_method	'MofGen! by Chris Wilmer'
_symmetry_space_group_name_H-M	'P1'
_symmetry_Int_Tables_number	1
_symmetry_cell_setting	triclinic
loop_
_symmetry_equiv_pos_as_xyz
  x,y,z
_cell_length_a	21.606444
_cell_length_b	14.560438
_cell_length_c	14.560438
_cell_angle_alpha	60.000069
_cell_angle_beta	89.998731
_cell_angle_gamma	60.000721
loop_
_atom_site_label
_atom_site_type_symbol
_atom_site_fract_x
_atom_site_fract_y
_atom_site_fract_z
Zr1	Zr	0.596222	1.005315	-0.120539
O2	O	0.497400	1.196912	-0.267179
O3	O	0.626517	0.813715	-0.075589
O4	O	0.626517	1.005319	-0.267190
O5	O	0.497400	1.005305	0.075563
O6	O	0.728366	1.005326	-0.267195
O7	O	0.497400	1.005308	-0.075578
O8	O	0.728366	0.662581	0.075544
O9	O	0.497400	1.348050	-0.267176
O10	O	0.715446	0.892529	-0.056419
O11	O	0.639437	0.892522	0.056380
O12	O	0.639437	1.118111	-0.169205
O13	O	0.563428	1.118104	-0.056407
Zr14	Zr	0.758661	1.005321	0.120504
Zr15	Zr	0.758661	1.005325	-0.120548
Zr16	Zr	0.596223	1.005311	0.120513
Zr17	Zr	0.596223	1.246363	-0.120535
Zr18	Zr	0.758661	0.764273	0.120500
O19	O	0.728367	1.196921	0.075554
O20	O	0.728367	1.196927	-0.267191
O21	O	0.497400	1.196906	0.075566
O22	O	0.857484	0.813724	0.267144
O23	O	0.857483	0.813730	-0.075601
O24	O	0.626517	0.813709	0.267156
O25	O	0.857484	1.005331	-0.075598
O26	O	0.728367	1.005317	0.267155
O27	O	0.626517	1.005310	0.267160
O28	O	0.857484	1.005328	0.075543
O29	O	0.626517	1.348058	-0.267183
O30	O	0.728366	0.662578	0.267148
O31	O	0.857483	0.662586	0.267141
O32	O	0.857483	0.662589	0.075537
O33	O	0.497400	1.348047	-0.075572
O34	O	0.626517	1.348055	-0.075579
O35	O	0.715446	0.892525	0.169170
O36	O	0.791456	0.892532	0.056372
O37	O	0.715446	1.118114	-0.056415
O38	O	0.639437	1.118107	0.056384
C39	C	0.677441	0.703804	-0.000023
C40	C	0.677441	0.601473	-0.000025
C41	C	0.717116	0.553401	-0.058905
C42	C	0.717119	0.457241	-0.058895
C43	C	0.637767	0.457239	0.058877
C44	C	0.637769	0.553390	0.058873
C45	C	0.474256	1.005305	-0.000007
C46	C	0.405296	1.005301	-0.000003
C47	C	0.412573	0.887550	0.058866
C48	C	0.347776	0.887554	0.058867
C49	C	0.275703	1.005309	-0.000008
C50	C	0.268427	1.123069	-0.058879
C51	C	0.333224	1.123064	-0.058873
C52	C	0.007109	1.123092	-0.058904
C53	C	-0.057689	1.123087	-0.058909
C54	C	0.021661	0.887581	0.058836
C55	C	0.086458	0.887576	0.058842
C56	C	0.079177	1.005335	-0.000023
C57	C	0.149438	1.005330	-0.000022
C58	C	0.205442	1.005316	-0.000017
C59	C	0.880628	1.005331	-0.000028
C60	C	0.949587	1.005335	-0.000032
C61	C	0.677441	1.005323	-0.301537
C62	C	0.677441	1.005325	-0.403870
C63	C	0.677442	1.306832	-0.000012
C64	C	0.677442	1.409163	-0.000010
C65	C	0.733551	1.005330	-0.451949
C66	C	0.733553	1.005318	-0.548095
C67	C	0.621329	1.005302	-0.548077
C68	C	0.621331	1.005305	-0.451928
C69	C	0.677442	1.005313	0.301502
C70	C	0.677442	1.005311	0.403835
C71	C	0.880627	0.703817	-0.000034
C72	C	0.949587	0.601491	-0.000040
C73	C	0.677442	0.703799	0.301496
C74	C	0.677442	0.601466	0.403827
C75	C	0.880628	0.703812	0.301485
C76	C	0.949587	0.601483	0.403813
C77	C	0.474256	1.306824	-0.301521
C78	C	0.405297	1.409153	-0.403848
C79	C	0.474256	1.306819	-0.000001
C80	C	0.405297	1.409145	0.000005
C81	C	0.677442	1.306837	-0.301531
C82	C	0.677442	1.409170	-0.403863
C83	C	0.942294	0.553435	-0.058928
C84	C	1.007083	0.457302	-0.058956
C85	C	1.079163	0.409219	-0.000088
C86	C	1.086453	0.457284	0.058802
C87	C	1.021666	0.553422	0.058823
C88	C	1.021654	0.553432	0.392987
C89	C	1.086455	0.457297	0.489125
C90	C	1.079187	0.409208	0.596088
C91	C	1.007113	0.457269	0.606912
C92	C	0.942313	0.553409	0.510775
C93	C	0.333230	1.457215	-0.393022
C94	C	0.268429	1.553380	-0.489160
C95	C	0.275696	1.601474	-0.596123
C96	C	0.347771	1.553408	-0.606947
C97	C	0.412570	1.457251	-0.510810
C98	C	0.412589	1.457211	0.058883
C99	C	0.347801	1.553371	0.058884
C100	C	0.275721	1.601457	0.000013
C101	C	0.268430	1.553388	-0.058872
C102	C	0.333218	1.457236	-0.058880
C103	C	0.717117	0.553389	0.510778
C104	C	0.717108	0.457246	0.606925
C105	C	0.637748	0.457260	0.489157
C106	C	0.637753	0.553409	0.393012
H107	H	0.749426	0.418102	-0.106838
C108	C	0.594122	0.404350	0.123651
N109	N	0.561245	0.364518	0.172436
H110	H	0.222927	1.679771	-0.674395
H111	H	0.605460	0.592530	0.106825
H112	H	0.471255	0.791659	0.106815
C113	C	0.863041	0.606251	0.522702
N114	N	0.803334	0.646050	0.531694
H115	H	0.353707	0.791669	0.106807
C116	C	0.189154	1.606233	-0.477229
N117	N	0.129446	1.646040	-0.468239
C118	C	0.355753	1.606313	-0.724617
N119	N	0.361762	1.646156	-0.813249
H120	H	0.001171	1.218978	-0.106857
C121	C	0.795279	1.005337	-0.399081
N122	N	0.841777	1.005336	-0.359259
C123	C	0.165738	0.758036	0.123610
N124	N	0.225451	0.660463	0.172400
H125	H	0.209739	1.218948	-0.106810
H126	H	0.575639	1.005297	-0.412778
H127	H	0.749431	0.592519	0.519591
H128	H	1.027586	0.592572	0.305901
H129	H	0.027583	0.791696	0.106770
H130	H	0.471249	1.418119	-0.519638
C131	C	-0.136973	1.252634	-0.123673
N132	N	-0.196689	1.350204	-0.172450
H133	H	0.779244	1.005320	-0.587237
C134	C	0.325184	1.404360	-0.123640
N135	N	0.319127	1.364537	-0.172418
H136	H	0.471274	1.418066	0.106830
C137	C	0.204459	1.707221	0.000038
N138	N	0.150788	1.786879	0.000065
H139	H	0.605440	0.592556	0.305922
C140	C	0.559613	1.005276	-0.600949
N141	N	0.513126	1.005256	-0.640770
H142	H	0.327294	1.218949	-0.106797
C143	C	0.189135	1.606279	-0.123608
N144	N	0.129408	1.646109	-0.172356
H145	H	0.749415	0.418108	0.694007
H146	H	1.145135	0.418176	0.480292
C147	C	0.863012	0.606316	-0.123699
N148	N	0.803299	0.646146	-0.172495
H149	H	0.749421	0.592546	-0.106861
C150	C	0.999046	0.404437	-0.123730
N151	N	0.992991	0.364619	-0.172516
C152	C	0.594098	0.404380	0.477273
N153	N	0.561222	0.364548	0.468319
H154	H	1.131911	0.330936	-0.000113
H155	H	1.145149	0.418120	0.106730
H156	H	0.353752	1.592492	0.106840
H157	H	1.027613	0.592536	0.106783
C158	C	1.150476	0.303442	0.701832
N159	N	1.204174	0.223773	0.781474
H160	H	1.001206	0.418101	0.694014
H161	H	0.327298	1.418062	-0.305936
