data_functionalizedCrystal
_audit_creation_method	'MofGen! by Chris Wilmer'
_symmetry_space_group_name_H-M	'P1'
_symmetry_Int_Tables_number	1
_symmetry_cell_setting	triclinic
loop_
_symmetry_equiv_pos_as_xyz
  x,y,z
_cell_length_a	16.109301
_cell_length_b	22.610064
_cell_length_c	16.109301
_cell_angle_alpha	89.994133
_cell_angle_beta	96.538519
_cell_angle_gamma	90.012563
loop_
_atom_site_label
_atom_site_type_symbol
_atom_site_fract_x
_atom_site_fract_y
_atom_site_fract_z
O1	O	1.103145	0.049149	-0.106865
O2	O	0.861083	0.049159	-0.120165
O3	O	0.988764	0.049148	0.007516
O4	O	0.975464	0.049160	-0.234546
O5	O	0.988726	-0.049222	0.007516
O6	O	0.861046	-0.049211	-0.120164
O7	O	1.103108	-0.049220	-0.106865
Zn8	Zn	0.982071	-0.064834	-0.113515
Zn9	Zn	0.982120	0.064772	-0.113515
O10	O	0.975427	-0.049209	-0.234546
C11	C	0.830090	-0.000025	-0.119626
C12	C	0.737794	-0.000021	-0.118011
C13	C	0.515522	-0.000024	-0.190018
C14	C	0.428801	-0.000028	-0.188494
C15	C	0.448676	-0.000034	-0.037006
C16	C	0.535394	-0.000034	-0.038530
C17	C	0.568815	-0.000026	-0.115039
C18	C	0.395376	-0.000030	-0.111990
C19	C	0.301350	-0.000034	-0.110337
C20	C	0.662847	-0.000023	-0.116693
N21	N	0.982043	-0.153286	-0.113514
C22	C	1.032529	-0.561927	-0.163947
C23	C	1.032540	-0.623847	-0.163945
O24	O	1.075432	-0.655865	-0.206820
N25	N	0.982136	-0.654823	-0.113505
C26	C	0.931725	-0.623876	-0.063058
O27	O	0.888854	-0.655910	-0.020155
C28	C	0.931719	-0.561958	-0.063056
C29	C	0.982120	-0.530984	-0.113506
C30	C	1.082927	-0.530954	-0.214392
C31	C	1.082915	-0.469038	-0.214395
C32	C	1.032506	-0.438096	-0.163953
C33	C	0.982108	-0.469069	-0.113509
C34	C	0.881313	-0.531012	-0.012605
C35	C	0.881313	-0.469089	-0.012607
C36	C	0.931713	-0.438116	-0.063057
C37	C	0.931687	-0.376211	-0.063070
N38	N	0.982091	-0.345234	-0.113510
C39	C	1.032500	-0.376177	-0.163951
C40	C	0.931741	-0.753910	-0.063065
C41	C	0.931741	-0.815828	-0.063070
C42	C	1.032558	-0.815794	-0.163956
C43	C	1.032552	-0.753875	-0.163955
C44	C	0.982145	-0.722934	-0.113504
C45	C	1.032471	-0.246149	-0.163954
C46	C	1.032452	-0.184228	-0.163955
C47	C	0.931640	-0.184268	-0.063067
C48	C	0.931655	-0.246183	-0.063068
C49	C	0.982077	-0.277123	-0.113515
O50	O	0.888820	-0.344153	-0.020215
O51	O	1.075372	-0.344136	-0.206840
C52	C	1.134101	-0.000035	-0.107404
C53	C	1.226397	-0.000035	-0.109019
C54	C	0.988206	-0.000037	0.038491
C55	C	0.986591	-0.000038	0.130786
N56	N	0.982154	0.153225	-0.113509
C57	C	0.975984	-0.000023	-0.265521
C58	C	0.977600	-0.000018	-0.357816
C59	C	1.058599	-0.000032	0.353059
C60	C	1.057075	-0.000027	0.439779
C61	C	0.905586	-0.000023	0.419905
C62	C	0.907111	-0.000024	0.333186
C63	C	0.983620	-0.000031	0.299766
C64	C	0.980571	-0.000025	0.473205
C65	C	0.978918	-0.000020	0.567231
C66	C	0.985273	-0.000035	0.205734
H67	H	0.421454	-0.000043	0.025285
Br68	Br	0.607728	-0.000044	0.063234
Br69	Br	0.560876	-0.000016	-0.293851
H70	H	1.073494	-0.159013	-0.205041
H71	H	1.073530	-0.271333	-0.205032
H72	H	1.123960	-0.443825	-0.255472
H73	H	1.120897	-0.000036	0.325851
H74	H	1.123980	-0.556140	-0.255467
Br75	Br	0.805346	-0.000015	0.260853
H76	H	0.385413	-0.000028	-0.249550
H77	H	0.840273	-0.556220	0.028477
H78	H	1.118130	-0.000026	0.483168
H79	H	0.843295	-0.000018	0.447127
Br80	Br	1.100958	-0.711846	-0.232421
Br81	Br	1.100974	-0.857799	-0.232411
Br82	Br	0.863322	-0.857855	0.005383
H83	H	0.890685	-0.728721	-0.021985
H84	H	0.890604	-0.271403	-0.021999
Br85	Br	0.863228	-0.142263	0.005384
Br86	Br	0.812908	-0.427101	0.055874
