data_functionalizedCrystal
_audit_creation_method	'MofGen! by Chris Wilmer'
_symmetry_space_group_name_H-M	'P1'
_symmetry_Int_Tables_number	1
_symmetry_cell_setting	triclinic
loop_
_symmetry_equiv_pos_as_xyz
  x,y,z
_cell_length_a	10.654550
_cell_length_b	19.288865
_cell_length_c	18.366186
_cell_angle_alpha	90.011479
_cell_angle_beta	90.012556
_cell_angle_gamma	83.810575
loop_
_atom_site_label
_atom_site_type_symbol
_atom_site_fract_x
_atom_site_fract_y
_atom_site_fract_z
O1	O	-1.665761	-0.097556	-0.060619
O2	O	-1.165761	0.402444	0.439381
O3	O	-1.300084	-0.106850	-0.060608
O4	O	-0.800084	0.393150	0.439392
O5	O	-1.493489	-0.001142	-0.060599
O6	O	-0.993489	0.498858	0.439401
O7	O	-1.472356	-0.203264	-0.060628
O8	O	-0.972356	0.296736	0.439372
O9	O	-1.493456	-0.001136	0.060500
O10	O	-0.993456	0.498864	0.560500
O11	O	-1.300051	-0.106845	0.060491
O12	O	-0.800051	0.393155	0.560491
O13	O	-1.665728	-0.097550	0.060481
O14	O	-1.165728	0.402450	0.560481
Zn15	Zn	-1.482884	-0.102196	0.079713
Zn16	Zn	-0.982884	0.397804	0.579713
Zn17	Zn	-1.482928	-0.102204	-0.079841
Zn18	Zn	-0.982928	0.397796	0.420159
O19	O	-1.472323	-0.203258	0.060472
O20	O	-0.972323	0.296742	0.560472
C21	C	-1.253284	-0.106165	-0.000057
C22	C	-0.753284	0.393835	0.499943
C23	C	-1.113884	-0.104123	-0.000052
C24	C	-0.613884	0.395877	0.499948
C25	C	-1.492792	0.024742	-0.000047
C26	C	-0.992792	0.524742	0.499953
C27	C	-1.490751	0.101859	-0.000041
C28	C	-0.990751	0.601859	0.499959
C29	C	-1.712528	-0.098235	-0.000072
C30	C	-1.212528	0.401765	0.499928
C31	C	-1.851928	-0.100277	-0.000082
C32	C	-1.351928	0.399723	0.499918
C33	C	-1.033066	-0.166362	-0.000071
C34	C	-0.533066	0.333638	0.499929
C35	C	-0.902087	-0.164440	-0.000084
C36	C	-0.402087	0.335560	0.499916
C37	C	-0.932756	-0.038033	-0.000060
C38	C	-0.432756	0.461967	0.499940
C39	C	-1.063733	-0.039956	-0.000043
C40	C	-0.563733	0.460044	0.499957
C41	C	-1.083218	-0.230529	-0.000080
C42	C	-0.583218	0.269471	0.499920
C43	C	-1.002398	-0.292774	-0.000101
C44	C	-0.502398	0.207226	0.499899
C45	C	-0.871419	-0.290851	-0.000113
C46	C	-0.371419	0.209149	0.499887
C47	C	-0.821258	-0.226684	-0.000105
C48	C	-0.321258	0.273316	0.499895
C49	C	-1.473020	-0.229142	-0.000082
C50	C	-0.973020	0.270858	0.499918
C51	C	-1.475061	-0.306259	-0.000093
C52	C	-0.975061	0.193741	0.499907
N53	N	-1.482864	-0.102191	0.188604
N54	N	-0.982864	0.397809	0.688604
C55	C	-1.604232	0.145812	-0.000041
C56	C	-1.104232	0.645812	0.499959
C57	C	-1.602315	0.218272	-0.000052
C58	C	-1.102315	0.718272	0.499948
C59	C	-1.486909	0.246775	-0.000049
C60	C	-0.986909	0.746775	0.499951
C61	C	-1.373413	0.202812	-0.000054
C62	C	-0.873413	0.702812	0.499946
C63	C	-1.375334	0.130354	-0.000049
C64	C	-0.875334	0.630354	0.499951
C65	C	-1.396176	0.355658	0.042372
C66	C	-0.896176	0.855658	0.542372
C67	C	-1.394260	0.428115	0.042372
C68	C	-0.894260	0.928115	0.542372
C69	C	-1.480980	0.470259	-0.000065
C70	C	-0.980980	0.970259	0.499935
C71	C	-1.569638	0.439939	-0.042494
C72	C	-1.069638	0.939939	0.457506
C73	C	-1.571559	0.367481	-0.042490
C74	C	-1.071559	0.867481	0.457510
C75	C	-1.484814	0.325343	-0.000054
C76	C	-0.984814	0.825343	0.499946
C77	C	-1.592390	0.592782	-0.000079
C78	C	-1.092390	1.092782	0.499921
C79	C	-1.590467	0.665243	-0.000095
C80	C	-1.090467	1.165243	0.499905
C81	C	-1.361562	0.649781	-0.000089
C82	C	-0.861562	1.149781	0.499911
C83	C	-1.363488	0.577322	-0.000080
C84	C	-0.863488	1.077322	0.499920
C85	C	-1.478905	0.548827	-0.000072
C86	C	-0.978905	1.048827	0.499928
N87	N	-1.482958	-0.102203	-0.188732
N88	N	-0.982958	0.397797	0.311268
C89	C	-1.568532	-0.055407	0.226708
C90	C	-1.068532	0.444593	0.726708
C91	C	-1.568540	-0.055404	0.302936
C92	C	-1.068540	0.444596	0.802936
C93	C	-1.482892	-0.102197	0.341057
C94	C	-0.982892	0.397803	0.841057
C95	C	-1.397208	-0.148985	0.302944
C96	C	-0.897208	0.351015	0.802944
C97	C	-1.397194	-0.148982	0.226717
C98	C	-0.897194	0.351018	0.726717
C99	C	-1.466081	-0.165375	0.461809
C100	C	-0.966081	0.334625	0.961809
C101	C	-1.466104	-0.165379	0.538034
C102	C	-0.966104	0.334621	1.038034
C103	C	-1.482928	-0.102206	0.576164
C104	C	-0.982928	0.397794	1.076164
C105	C	-1.499755	-0.039027	0.538061
C106	C	-0.999755	0.460973	1.038061
C107	C	-1.499741	-0.039024	0.461835
C108	C	-0.999741	0.460976	0.961835
C109	C	-1.482897	-0.102205	0.423712
C110	C	-0.982897	0.397795	0.923712
C111	C	-1.568609	-0.055415	0.696924
C112	C	-1.068609	0.444585	1.196924
C113	C	-1.568608	-0.055411	0.773153
C114	C	-1.068608	0.444589	1.273153
C115	C	-1.397282	-0.148998	0.773159
C116	C	-0.897282	0.351002	1.273159
C117	C	-1.397277	-0.148996	0.696931
C118	C	-0.897277	0.351004	1.196931
C119	C	-1.482947	-0.102205	0.658818
C120	C	-0.982947	0.397795	1.158818
H121	H	-1.043248	-0.345016	-0.000101
H122	H	-0.543248	0.154984	0.499899
H123	H	-1.325554	0.321350	0.076934
H124	H	-0.825554	0.821350	0.576934
H125	H	-1.129538	0.010725	-0.000029
H126	H	-0.629538	0.510725	0.499971
O127	O	-1.517773	0.029077	0.420666
O128	O	-1.017773	0.529077	0.920666
H129	H	-1.610473	0.057569	0.435217
H130	H	-1.110473	0.557569	0.935217
O131	O	-1.304875	-0.199459	0.655831
O132	O	-0.804875	0.300541	1.155831
H133	H	-1.319245	-0.191591	0.596422
H134	H	-0.819245	0.308409	1.096422
H135	H	-1.327470	-0.187084	0.333985
H136	H	-0.827470	0.312916	0.833985
O137	O	-1.224488	-0.232603	-0.000058
O138	O	-0.724488	0.267397	0.499942
H139	H	-1.252445	-0.260395	-0.049415
H140	H	-0.752445	0.239605	0.450585
H141	H	-1.638363	-0.017312	0.665891
H142	H	-1.138363	0.482688	1.165891
O143	O	-0.878657	0.031172	-0.000052
O144	O	-0.378657	0.531172	0.499948
H145	H	-0.911195	0.061112	-0.049398
H146	H	-0.411195	0.561112	0.450602
H147	H	-1.327542	-0.187095	0.804196
H148	H	-0.827542	0.312905	1.304196
O149	O	-1.304802	-0.199449	0.185611
O150	O	-0.804802	0.300551	0.685611
H151	H	-1.245248	-0.231991	0.224922
H152	H	-0.745248	0.268009	0.724922
O153	O	-1.517892	0.029118	0.579174
O154	O	-1.017892	0.529118	1.079174
H155	H	-1.515057	0.018506	0.638580
H156	H	-1.015057	0.518506	1.138580
O157	O	-1.728712	0.115076	-0.000052
O158	O	-1.228712	0.615076	0.499948
H159	H	-1.807301	0.157818	-0.000064
H160	H	-1.307301	0.657818	0.499936
H161	H	-0.714605	-0.225123	-0.000104
H162	H	-0.214605	0.274877	0.499896
O163	O	-0.784243	-0.357981	-0.000131
O164	O	-0.284243	0.142019	0.499869
H165	H	-0.841126	-0.402920	-0.000139
H166	H	-0.341126	0.097080	0.499861
O167	O	-1.661024	-0.004955	0.814257
O168	O	-1.161024	0.495045	1.314257
H169	H	-1.720601	0.027572	0.774945
H170	H	-1.220601	0.527572	1.274945
O171	O	-1.724715	0.265693	-0.000042
O172	O	-1.224715	0.765693	0.499958
H173	H	-1.805293	0.233705	-0.000030
H174	H	-1.305293	0.733705	0.499970
O175	O	-1.667155	0.334773	-0.088259
O176	O	-1.167155	0.834773	0.411741
H177	H	-1.727131	0.376245	-0.117778
H178	H	-1.227131	0.876245	0.382222
O179	O	-1.663177	0.485381	-0.088276
O180	O	-1.163177	0.985381	0.411724
H181	H	-1.646939	0.540859	-0.081162
H182	H	-1.146939	1.040859	0.418838
O183	O	-1.716869	0.562042	-0.000086
O184	O	-1.216869	1.062042	0.499914
H185	H	-1.771380	0.579673	0.049263
H186	H	-1.271380	1.079673	0.549263
O187	O	-1.712875	0.712652	-0.000087
O188	O	-1.212875	1.212652	0.499913
H189	H	-1.768156	0.702434	-0.049437
H190	H	-1.268156	1.202434	0.450563
O191	O	-1.237089	0.680517	-0.000081
O192	O	-0.737089	1.180517	0.499919
H193	H	-1.182592	0.662897	-0.049439
H194	H	-0.682592	1.162897	0.450561
H195	H	-1.271079	0.541534	-0.000076
H196	H	-0.771079	1.041534	0.499924
O197	O	-1.298645	0.460818	0.088133
O198	O	-0.798645	0.960818	0.588133
H199	H	-1.238650	0.419340	0.117632
H200	H	-0.738650	0.919340	0.617632
O201	O	-1.248936	0.233548	-0.000042
O202	O	-0.748936	0.733548	0.499958
H203	H	-1.266664	0.291317	-0.000035
H204	H	-0.766664	0.791317	0.499965
H205	H	-1.282921	0.094566	-0.000049
H206	H	-0.782921	0.594566	0.499951
O207	O	-1.660912	-0.004933	0.185599
O208	O	-1.160912	0.495067	0.685599
H209	H	-1.720475	0.027605	0.224907
H210	H	-1.220475	0.527605	0.724907
O211	O	-1.660954	-0.004949	0.344049
O212	O	-1.160954	0.495051	0.844049
H213	H	-1.720529	0.027583	0.304740
H214	H	-1.220529	0.527583	0.804740
H215	H	-1.452410	-0.216823	0.569052
H216	H	-0.952410	0.283177	1.069052
H217	H	-1.452360	-0.216821	0.430769
H218	H	-0.952360	0.283179	0.930769
