data_functionalizedCrystal
_audit_creation_method	'MofGen! by Chris Wilmer'
_symmetry_space_group_name_H-M	'P1'
_symmetry_Int_Tables_number	1
_symmetry_cell_setting	triclinic
loop_
_symmetry_equiv_pos_as_xyz
  x,y,z
_cell_length_a	14.519731
_cell_length_b	12.996460
_cell_length_c	10.654541
_cell_angle_alpha	90.005903
_cell_angle_beta	84.086391
_cell_angle_gamma	90.005673
loop_
_atom_site_label
_atom_site_type_symbol
_atom_site_fract_x
_atom_site_fract_y
_atom_site_fract_z
O1	O	1.224710	0.085569	0.164753
O2	O	1.724710	0.585569	0.664753
O3	O	0.956336	0.085570	0.184112
O4	O	1.456336	0.585570	0.684112
O5	O	1.096694	0.085563	-0.008366
O6	O	1.596694	0.585563	0.491634
O7	O	1.084351	0.085576	0.357231
O8	O	1.584351	0.585576	0.857231
O9	O	1.096680	-0.085571	-0.008376
O10	O	1.596680	0.414429	0.491624
O11	O	0.956321	-0.085564	0.184101
O12	O	1.456321	0.414436	0.684101
O13	O	1.224695	-0.085565	0.164742
O14	O	1.724695	0.414435	0.664742
Cu15	Cu	1.090507	-0.101190	0.174421
Cu16	Cu	1.590507	0.398810	0.674421
Cu17	Cu	1.090524	0.101195	0.174433
Cu18	Cu	1.590524	0.601195	0.674433
O19	O	1.084336	-0.085558	0.357220
O20	O	1.584336	0.414442	0.857220
C21	C	0.921964	0.000003	0.183199
C22	C	1.421964	0.500003	0.683199
C23	C	0.819570	0.000004	0.180481
C24	C	1.319570	0.500004	0.680481
C25	C	0.736414	0.000008	0.178273
C26	C	1.236414	0.500008	0.678273
C27	C	0.632091	0.000008	0.175513
C28	C	1.132091	0.500008	0.675513
C29	C	0.548941	0.000008	0.173323
C30	C	1.048941	0.500008	0.673323
C31	C	0.444611	0.000010	0.170563
C32	C	0.944611	0.500010	0.670563
N33	N	1.090501	-0.243537	0.174411
N34	N	1.590501	0.256463	0.674411
C35	C	1.090523	-0.663352	0.174435
C36	C	1.590523	-0.163352	0.674435
C37	C	1.090514	-0.546547	0.174432
C38	C	1.590514	-0.046547	0.674432
C39	C	1.090512	-0.453448	0.174424
C40	C	1.590512	0.046552	0.674424
C41	C	1.090503	-0.336636	0.174420
C42	C	1.590503	0.163364	0.674420
C43	C	1.259067	0.000004	0.165655
C44	C	1.759067	0.500004	0.665655
C45	C	1.361461	0.000010	0.168373
C46	C	1.861461	0.500010	0.668373
C47	C	1.095781	-0.000003	-0.055161
C48	C	1.595781	0.499997	0.444839
C49	C	1.093071	-0.000002	-0.194578
C50	C	1.593071	0.499998	0.305422
N51	N	1.090537	0.243542	0.174433
N52	N	1.590537	0.743542	0.674433
C53	C	1.260908	-0.000016	-0.224145
C54	C	1.760908	0.499984	0.275855
C55	C	1.343549	-0.000025	-0.304426
C56	C	1.843549	0.499975	0.195574
C57	C	1.340997	-0.000021	-0.435419
C58	C	1.840997	0.499979	0.064581
C59	C	1.255795	-0.000006	-0.486134
C60	C	1.755795	0.499994	0.013866
C61	C	1.173153	0.000003	-0.405854
C62	C	1.673153	0.500003	0.094146
C63	C	1.175714	-0.000003	-0.274859
C64	C	1.675714	0.499997	0.225141
C65	C	1.005318	0.000024	-0.376287
C66	C	1.505318	0.500024	0.123713
C67	C	1.007868	0.000014	-0.245293
C68	C	1.507868	0.500014	0.254707
C69	C	0.920116	0.000040	-0.427002
C70	C	1.420116	0.500040	0.072998
C71	C	0.837472	0.000042	-0.346721
C72	C	1.337472	0.500042	0.153279
C73	C	0.840028	0.000037	-0.215720
C74	C	1.340028	0.500037	0.284280
C75	C	0.925227	0.000023	-0.165013
C76	C	1.425227	0.500023	0.334987
C77	C	1.085250	0.000010	0.404015
C78	C	1.585250	0.500010	0.904015
C79	C	1.087960	0.000015	0.543433
C80	C	1.587960	0.500015	1.043433
H81	H	1.262994	-0.000032	-0.117485
H82	H	1.762994	0.499968	0.382515
H83	H	0.768107	0.000061	-0.388025
H84	H	1.268107	0.500061	0.111975
H85	H	0.772731	0.000049	-0.150362
H86	H	1.272731	0.500049	0.349638
H87	H	1.412920	-0.000046	-0.263119
H88	H	1.912920	0.499954	0.236881
O89	O	1.430127	-0.000038	-0.522020
O90	O	1.930127	0.499962	-0.022020
H91	H	1.489803	-0.000057	-0.464754
H92	H	1.989803	0.499943	0.035246
H93	H	0.918044	0.000049	-0.533665
H94	H	1.418044	0.500049	-0.033665
O95	O	0.927982	0.000008	-0.023727
O96	O	1.427982	0.500008	0.476273
H97	H	0.892439	0.069758	0.017210
H98	H	1.392439	0.569758	0.517210
H99	H	1.253724	0.000009	-0.592798
H100	H	1.753724	0.500009	-0.092798
