data_functionalizedCrystal
_audit_creation_method	'MofGen! by Chris Wilmer'
_symmetry_space_group_name_H-M	'P1'
_symmetry_Int_Tables_number	1
_symmetry_cell_setting	triclinic
loop_
_symmetry_equiv_pos_as_xyz
  x,y,z
_cell_length_a	23.096457
_cell_length_b	16.704495
_cell_length_c	16.704494
_cell_angle_alpha	94.152720
_cell_angle_beta	63.427183
_cell_angle_gamma	62.460439
loop_
_atom_site_label
_atom_site_type_symbol
_atom_site_fract_x
_atom_site_fract_y
_atom_site_fract_z
Zr1	Zr	0.630294	0.775648	-0.046473
O2	O	0.741405	0.654195	-0.176768
O3	O	0.512473	0.812877	-0.006533
O4	O	0.621477	0.821047	-0.165220
O5	O	0.641696	0.639584	0.107097
O6	O	0.622155	0.952667	-0.156110
O7	O	0.632401	0.646025	-0.018080
O8	O	0.427166	0.938052	0.127753
O9	O	0.836685	0.654198	-0.176765
O10	O	0.563925	0.926985	0.017303
O11	O	0.570356	0.823951	0.103922
O12	O	0.698695	0.833571	-0.082912
O13	O	0.705125	0.730537	0.003707
Zr14	Zr	0.646199	0.975293	0.167701
Zr15	Zr	0.631375	0.985566	-0.031943
Zr16	Zr	0.645118	0.765375	0.153170
Zr17	Zr	0.782254	0.775653	-0.046470
Zr18	Zr	0.494239	0.975288	0.167697
O19	O	0.764020	0.938063	0.127761
O20	O	0.742942	0.952671	-0.156107
O21	O	0.762484	0.639588	0.107100
O22	O	0.535088	1.096746	0.297995
O23	O	0.514009	1.111353	0.014128
O24	O	0.533551	0.798270	0.277334
O25	O	0.634797	1.111357	0.014130
O26	O	0.655016	0.929894	0.286448
O27	O	0.654338	0.798274	0.277337
O28	O	0.644092	1.104916	0.139308
O29	O	0.837544	0.821055	-0.165216
O30	O	0.438949	0.929886	0.286443
O31	O	0.439808	1.096743	0.297993
O32	O	0.428025	1.104909	0.139303
O33	O	0.848468	0.646032	-0.018075
O34	O	0.849327	0.812889	-0.006526
O35	O	0.577798	0.917370	0.204140
O36	O	0.571368	1.020404	0.117520
O37	O	0.706137	0.926989	0.017306
O38	O	0.712568	0.823956	0.103925
C39	C	0.448168	0.875464	0.060609
C40	C	0.383657	0.875462	0.060608
C41	C	0.636895	0.612895	0.042438
C42	C	0.636436	0.523780	0.036269
C43	C	0.645830	0.349213	0.162606
C44	C	0.645399	0.265481	0.156814
C45	C	0.635149	0.272578	0.018888
C46	C	0.635579	0.356310	0.024681
C47	C	0.640919	0.394625	0.096543
C48	C	0.641344	0.478363	0.102339
C49	C	0.631100	0.485455	-0.035590
C50	C	0.630669	0.401723	-0.041382
C51	C	-0.029867	0.806526	-0.013366
C52	C	0.030752	0.806518	-0.013366
C53	C	0.014068	0.875478	0.060614
C54	C	-0.063243	0.944437	0.134611
C55	C	-0.123859	0.944437	0.134614
N56	N	0.072163	0.960391	0.087445
N57	N	0.129748	0.960387	0.087436
C58	C	0.196697	0.875479	0.060610
N59	N	0.203893	0.790571	0.033775
N60	N	0.146303	0.790575	0.033779
C61	C	0.079790	0.875485	0.060619
C62	C	0.339728	0.806511	-0.013379
C63	C	0.400346	0.806502	-0.013373
C64	C	0.306349	0.944429	0.134601
C65	C	0.245733	0.944430	0.134598
C66	C	0.262428	0.875472	0.060603
C67	C	0.828325	0.875477	0.060618
C68	C	0.892836	0.875479	0.060619
C69	C	0.619704	0.888321	-0.189110
C70	C	0.613410	0.892682	-0.273864
C71	C	0.639599	1.138045	0.078789
C72	C	0.640057	1.227161	0.084958
C73	C	0.742297	0.803359	-0.537759
C74	C	0.736387	0.807455	-0.617396
C75	C	0.595683	0.904974	-0.512775
C76	C	0.601592	0.900878	-0.433139
C77	C	0.674902	0.850068	-0.445636
C78	C	0.680810	0.845967	-0.365997
C79	C	0.540107	0.943492	-0.261378
C80	C	0.534197	0.947587	-0.341015
C81	C	0.656789	0.862620	0.310337
C82	C	0.663083	0.858259	0.395091
C83	C	0.449520	1.138039	0.078785
C84	C	0.385468	1.227152	0.084952
C85	C	0.466711	0.862614	0.310333
C86	C	0.408493	0.858250	0.395086
C87	C	0.468063	1.125189	0.328509
C88	C	0.410304	1.209941	0.419430
C89	C	0.808430	0.625752	-0.207281
C90	C	0.866189	0.541000	-0.298202
C91	C	0.826973	0.612902	0.042442
C92	C	0.891025	0.523788	0.036275
C93	C	0.809782	0.888327	-0.189106
C94	C	0.868000	0.892691	-0.273858
C95	C	0.351503	1.220238	0.035527
C96	C	0.291326	1.303962	0.041303
C97	C	0.265112	1.394600	0.096509
C98	C	0.299083	1.401513	0.145936
C99	C	0.359262	1.317790	0.140154
C100	C	0.385039	0.904964	0.487207
C101	C	0.330347	0.900860	0.566849
C102	C	0.299105	0.850048	0.554367
C103	C	0.322564	0.803328	0.462235
C104	C	0.377260	0.807426	0.382595
C105	C	0.379823	1.303532	0.416914
C106	C	0.325561	1.383175	0.502337
C107	C	0.301776	1.369223	0.590275
C108	C	0.332263	1.275622	0.592789
C109	C	0.386528	1.195982	0.507367
C110	C	0.896677	0.447408	-0.295686
C111	C	0.950958	0.367766	-0.381109
C112	C	0.974746	0.381718	-0.469047
C113	C	0.944256	0.475319	-0.471561
C114	C	0.889980	0.554959	-0.386139
C115	C	0.924996	0.530704	0.085692
C116	C	0.985187	0.446980	0.079894
C117	C	1.011404	0.356343	0.024685
C118	C	0.977430	0.349430	-0.024737
C119	C	0.917243	0.433152	-0.018945
C120	C	0.899224	0.943512	-0.261346
C121	C	0.953918	0.947631	-0.340970
C122	C	0.977391	0.900922	-0.433108
C123	C	0.946161	0.850098	-0.445619
C124	C	0.891463	0.845986	-0.365994
H125	H	0.645689	0.509560	0.160855
N126	N	0.272305	1.494101	0.202318
N127	N	0.276216	1.554451	0.163895
H128	H	0.257299	1.619845	0.203719
N129	N	0.479306	0.736074	-0.088963
N130	N	0.521016	0.762284	-0.140431
H131	H	0.576783	0.712543	-0.193819
H132	H	0.297120	0.761956	0.452086
H133	H	0.399180	1.314911	0.345318
H134	H	0.263674	1.298315	0.001053
H135	H	0.535998	0.946352	-0.502617
N136	N	0.203623	1.480097	0.102412
N137	N	0.215071	1.542021	0.075024
H138	H	0.171636	1.602391	0.079189
N139	N	0.651271	0.388353	0.236023
N140	N	0.655646	0.347802	0.295010
H141	H	0.659488	0.375443	0.346864
H142	H	0.903656	0.604497	0.130655
H143	H	0.889585	0.427508	-0.059184
H144	H	0.963631	0.486668	-0.543171
H145	H	0.396348	0.769389	0.307589
N146	N	-0.080274	1.014866	0.210177
N147	N	-0.026148	1.014858	0.210164
H148	H	-0.038177	1.064598	0.263537
N149	N	0.755695	0.794085	-0.378768
N150	N	0.802414	0.817987	-0.418799
H151	H	0.855303	0.781350	-0.427820
N152	N	0.289285	1.014871	0.210183
N153	N	0.253644	1.019452	0.294683
H154	H	0.241593	1.069202	0.348068
H155	H	0.311253	0.938910	0.641859
H156	H	0.410471	0.946342	0.497389
H157	H	0.254569	0.846718	0.619222
H158	H	0.880122	0.981549	-0.186330
H159	H	1.018942	0.316862	-0.538596
N160	N	0.858846	0.650553	-0.388734
N161	N	0.880096	0.662985	-0.467262
H162	H	0.858111	0.730498	-0.469102
N163	N	0.970140	0.802432	-0.539751
N164	N	0.959490	0.849959	-0.591943
H165	H	0.976431	0.816304	-0.658432
H166	H	0.649399	0.228507	0.210607
H167	H	0.386910	1.323433	0.180408
N168	N	0.459312	0.999476	-0.328240
N169	N	0.399143	1.041169	-0.245979
H170	H	0.346253	1.077814	-0.236952
H171	H	0.626324	0.370515	-0.099893
N172	N	1.019875	0.454072	0.130386
N173	N	0.996450	0.535008	0.179682
H174	H	1.020946	0.540020	0.215343
H175	H	0.866046	0.804598	-0.376196
N176	N	1.072887	0.270836	0.018780
N177	N	1.103206	0.277035	0.062913
H178	H	1.146628	0.216649	0.058748
H179	H	0.998785	0.275621	-0.069688
H180	H	0.182792	1.000583	0.194842
H181	H	0.979341	0.989014	-0.330765
N182	N	0.417652	1.100388	0.509962
N183	N	0.396403	1.087956	0.588489
H184	H	0.418382	1.020443	0.590330
N185	N	0.294434	1.478771	0.499738
N186	N	0.315674	1.491206	0.421212
H187	H	0.293693	1.558719	0.419373
N188	N	0.246333	1.450589	0.677518
N189	N	0.180027	1.510140	0.695437
H190	H	0.140867	1.567609	0.757050
N191	N	0.629723	0.233400	-0.054526
N192	N	0.629358	0.158626	-0.059697
H193	H	0.625534	0.130950	-0.111551
N194	N	0.626074	0.531862	-0.103062
N195	N	0.626452	0.606627	-0.097877
H196	H	0.622899	0.639406	-0.145525
N197	N	0.307952	1.261396	0.682627
N198	N	0.259493	1.332519	0.758882
H199	H	0.242317	1.322476	0.822334
H200	H	1.021930	0.904277	-0.497935
H201	H	-0.016267	0.750372	-0.073616
H202	H	0.093699	0.750354	-0.073605
H203	H	0.877312	0.436030	-0.224091
H204	H	0.975775	0.291560	-0.379044
H205	H	0.353322	0.750360	-0.073629
N206	N	-0.202817	1.014879	0.210201
N207	N	-0.217707	1.076442	0.276256
H208	H	-0.273473	1.126194	0.329640
N209	N	0.817181	0.751463	-0.550532
N210	N	0.877351	0.709766	-0.632793
H211	H	0.930241	0.673119	-0.641817
H212	H	0.791267	0.769420	-0.692405
H213	H	0.372845	1.146444	-0.009439
N214	N	0.471267	0.991193	-0.167266
N215	N	0.476551	0.987524	-0.096169
H216	H	0.427934	1.021208	-0.029701
