data_functionalizedCrystal
_audit_creation_method	'MofGen! by Chris Wilmer'
_symmetry_space_group_name_H-M	'P1'
_symmetry_Int_Tables_number	1
_symmetry_cell_setting	triclinic
loop_
_symmetry_equiv_pos_as_xyz
  x,y,z
_cell_length_a	6.817900
_cell_length_b	10.773890
_cell_length_c	10.773894
_cell_angle_alpha	96.485539
_cell_angle_beta	96.645922
_cell_angle_gamma	96.645716
loop_
_atom_site_label
_atom_site_type_symbol
_atom_site_fract_x
_atom_site_fract_y
_atom_site_fract_z
V1	V	-3.915798	-0.168034	-0.386966
O2	O	-3.940463	0.012792	-0.381691
O3	O	-3.834375	-0.337720	-0.382308
O4	O	-3.834377	-0.163379	-0.556653
O5	O	-3.940461	-0.162756	-0.206139
V6	V	-4.407984	-0.146649	-0.365582
O7	O	-4.158054	-0.214942	-0.433873
O8	O	-4.615925	-0.099741	-0.318674
O9	O	-4.266200	0.023037	-0.370240
O10	O	-4.500717	-0.327476	-0.370857
O11	O	-4.500718	-0.151928	-0.546408
O12	O	-4.266199	-0.151304	-0.195895
C13	C	-3.672411	-0.379151	-0.375684
C14	C	-3.686905	-0.517858	-0.373007
C15	C	-3.864075	-0.585666	-0.377659
C16	C	-3.879059	-0.729028	-0.374892
C17	C	-3.672413	-0.156760	-0.598077
C18	C	-3.686907	-0.154077	-0.736783
C19	C	-3.864077	-0.158727	-0.804591
C20	C	-3.879061	-0.155954	-0.947951
C21	C	-4.091506	0.064461	-0.376860
C22	C	-4.056249	0.203167	-0.379545
C23	C	-4.091506	-0.157928	-0.154464
C24	C	-4.056251	-0.160604	-0.015757
H25	H	-3.738458	-0.777105	-0.368867
H26	H	-4.004664	-0.164752	-0.756508
H27	H	-4.004664	-0.537585	-0.383698
C28	C	-3.691714	-0.147712	-1.012180
C29	C	-3.675873	-0.038288	-1.071124
C30	C	-3.503336	-0.030662	-1.130318
H31	H	-3.578456	-0.145082	-0.951177
H32	H	-3.698699	-0.219395	-1.073376
H33	H	-3.668872	0.033376	-1.009934
H34	H	-3.789089	-0.040894	-1.132145
H35	H	-3.510320	-0.102345	-1.191515
H36	H	-3.390091	-0.028036	-1.069307
H37	H	-3.492574	0.043575	-1.170328
C38	C	-4.243709	-0.168914	-0.951641
C39	C	-4.259604	-0.278370	-0.892751
C40	C	-4.432275	-0.286078	-0.833692
H41	H	-4.236917	-0.097286	-0.890429
H42	H	-4.356864	-0.171545	-1.012750
H43	H	-4.146478	-0.275729	-0.831647
H44	H	-4.266429	-0.350017	-0.953935
H45	H	-4.545429	-0.288709	-0.894801
H46	H	-4.425467	-0.214445	-0.772486
H47	H	-4.443091	-0.360349	-0.793738
C48	C	-4.243879	-0.732882	-0.387396
C49	C	-4.342302	-0.752770	-0.282878
C50	C	-4.515164	-0.693892	-0.290077
H51	H	-4.209171	-0.645027	-0.388134
H52	H	-4.329108	-0.767328	-0.462438
H53	H	-4.257091	-0.718318	-0.207856
H54	H	-4.377059	-0.840612	-0.282120
H55	H	-4.600392	-0.728339	-0.365119
H56	H	-4.480436	-0.606040	-0.290818
H57	H	-4.581974	-0.707388	-0.219171
H58	H	-3.546318	-0.565941	-0.366982
H59	H	-3.546318	-0.148034	-0.784864
