data_functionalizedCrystal
_audit_creation_method	'MofGen! by Chris Wilmer'
_symmetry_space_group_name_H-M	'P1'
_symmetry_Int_Tables_number	1
_symmetry_cell_setting	triclinic
loop_
_symmetry_equiv_pos_as_xyz
  x,y,z
_cell_length_a	17.699083
_cell_length_b	26.210047
_cell_length_c	17.699083
_cell_angle_alpha	89.994492
_cell_angle_beta	96.716985
_cell_angle_gamma	90.010404
loop_
_atom_site_label
_atom_site_type_symbol
_atom_site_fract_x
_atom_site_fract_y
_atom_site_fract_z
O1	O	1.004089	0.042358	-0.095710
O2	O	0.783711	0.042375	-0.108162
O3	O	0.900126	0.042362	0.008253
O4	O	0.887674	0.042372	-0.212125
O5	O	0.900090	-0.042496	0.008254
O6	O	0.783674	-0.042483	-0.108162
O7	O	1.004052	-0.042500	-0.095709
Cu8	Cu	0.893860	-0.050239	-0.101936
Cu9	Cu	0.893903	0.050115	-0.101936
O10	O	0.887637	-0.042486	-0.212125
C11	C	0.755495	-0.000052	-0.107716
C12	C	0.671477	-0.000045	-0.106377
N13	N	0.893835	-0.120823	-0.101935
C14	C	0.622856	-0.000042	-0.174710
C15	C	0.543913	-0.000049	-0.173448
C16	C	0.513592	-0.000055	-0.103852
C17	C	0.562219	-0.000059	-0.035513
C18	C	0.641161	-0.000056	-0.036776
C19	C	0.243856	-0.000072	-0.030418
C20	C	0.164908	-0.000074	-0.029160
C21	C	0.146608	-0.000065	-0.167090
C22	C	0.225550	-0.000062	-0.168353
C23	C	0.274170	-0.000069	-0.100015
C24	C	0.359769	-0.000063	-0.101384
C25	C	0.427995	-0.000058	-0.102481
C26	C	0.939712	-0.473339	-0.147774
C27	C	0.939735	-0.686998	-0.147774
O28	O	0.978724	-0.714621	-0.186739
N29	N	0.893921	-0.713717	-0.101928
C30	C	0.848103	-0.687019	-0.056076
O31	O	0.809142	-0.714648	-0.017076
C32	C	0.848085	-0.473361	-0.056073
C33	C	0.893895	-0.446644	-0.101927
C34	C	0.985520	-0.446622	-0.193624
C35	C	0.985511	-0.393211	-0.193627
C36	C	0.939694	-0.366516	-0.147780
C37	C	0.893886	-0.393233	-0.101930
C38	C	0.802271	-0.446664	-0.010217
C39	C	0.802272	-0.393246	-0.010219
C40	C	0.848082	-0.366529	-0.056073
C41	C	0.848060	-0.313127	-0.056086
N42	N	0.893874	-0.286407	-0.101931
C43	C	0.939691	-0.313102	-0.147778
C44	C	0.848114	-0.799192	-0.056082
C45	C	0.848117	-0.852606	-0.056083
C46	C	0.939751	-0.852581	-0.147780
C47	C	0.939743	-0.799166	-0.147782
C48	C	0.893928	-0.772473	-0.101927
C49	C	0.939667	-0.200934	-0.147781
C50	C	0.939652	-0.147518	-0.147782
C51	C	0.848022	-0.147548	-0.056082
C52	C	0.848034	-0.200959	-0.056084
C53	C	0.893863	-0.227651	-0.101935
O54	O	0.809098	-0.285471	-0.017134
O55	O	0.978658	-0.285463	-0.186760
C56	C	0.939721	-0.526750	-0.147771
C57	C	0.893914	-0.553467	-0.101921
C58	C	0.848097	-0.526773	-0.056074
C59	C	0.893917	-0.606881	-0.101923
C60	C	0.939734	-0.633576	-0.147770
C61	C	0.985547	-0.606856	-0.193616
C62	C	0.985538	-0.553445	-0.193618
C63	C	0.802284	-0.553493	-0.010229
C64	C	0.802296	-0.606904	-0.010231
C65	C	0.848113	-0.633599	-0.056078
C66	C	1.032268	-0.000072	-0.096156
C67	C	1.116286	-0.000074	-0.097494
C68	C	0.899662	-0.000067	0.036451
C69	C	0.898323	-0.000067	0.120469
N70	N	0.893934	0.120699	-0.101930
C71	C	0.888102	-0.000056	-0.240322
C72	C	0.889440	-0.000053	-0.324340
C73	C	0.966656	-0.000073	0.169090
C74	C	0.965394	-0.000069	0.248033
C75	C	0.895798	-0.000062	0.278354
C76	C	0.827459	-0.000054	0.229727
C77	C	0.828722	-0.000055	0.150785
C78	C	0.822364	-0.000050	0.548090
C79	C	0.821106	-0.000050	0.627038
C80	C	0.959036	-0.000063	0.645338
C81	C	0.960299	-0.000064	0.566396
C82	C	0.891961	-0.000054	0.517776
C83	C	0.893330	-0.000058	0.432177
C84	C	0.894427	-0.000061	0.363951
H85	H	0.647537	-0.000037	-0.231384
H86	H	0.250232	-0.000055	-0.225025
O87	O	0.496575	-0.000062	-0.239757
C88	C	0.420397	-0.000054	-0.223723
H89	H	0.417475	-0.016130	-0.164284
H90	H	0.384544	-0.024683	-0.267296
H91	H	0.397572	0.040657	-0.226622
H92	H	1.022842	-0.531697	-0.230958
H93	H	1.016971	-0.000072	0.541714
O94	O	0.762392	-0.000118	0.103476
C95	C	0.758965	-0.044073	0.057280
H96	H	0.819025	-0.058731	0.053401
H97	H	0.730668	-0.034184	-0.002106
H98	H	0.724429	-0.074844	0.083189
O99	O	0.099269	-0.000085	-0.233406
C100	C	0.023090	-0.000079	-0.217374
H101	H	0.020168	-0.016150	-0.157933
H102	H	-0.012759	-0.024712	-0.260943
H103	H	0.000261	0.040631	-0.220282
H104	H	0.140225	-0.000079	0.027517
O105	O	0.290971	-0.000054	0.036033
C106	C	0.247278	-0.000072	0.097728
H107	H	0.188328	0.015996	0.078406
H108	H	0.276492	0.024561	0.145601
H109	H	0.241683	-0.040784	0.119065
O110	O	0.759918	-0.000070	0.259304
C111	C	0.773455	-0.000059	0.339406
H112	H	0.832546	-0.016130	0.358055
H113	H	0.728918	-0.024693	0.363564
H114	H	0.769845	0.040651	0.361371
O115	O	1.025472	0.000001	0.692492
C116	C	1.067748	0.043951	0.678774
H117	H	1.049060	0.058603	0.618852
H118	H	1.130879	0.034060	0.684445
H119	H	1.057494	0.074729	0.721930
H120	H	0.537526	-0.000072	0.021154
O121	O	1.034330	-0.000056	0.139765
C122	C	1.094371	-0.000071	0.199612
H123	H	1.073257	0.015995	0.253199
H124	H	1.142980	0.024563	0.183203
H125	H	1.115428	-0.040783	0.210826
O126	O	1.031755	0.000016	0.295291
C127	C	1.035168	0.043961	0.341505
H128	H	0.996424	0.074681	0.312518
H129	H	1.096158	0.058708	0.350487
H130	H	1.015684	0.034030	0.398880
H131	H	0.764429	-0.000046	0.651721
H132	H	0.680748	-0.000059	0.018868
O133	O	0.984227	-0.121645	-0.192346
C134	C	1.024653	-0.156664	-0.232821
H135	H	1.029133	-0.194740	-0.201479
H136	H	1.084156	-0.141222	-0.237443
H137	H	0.993364	-0.162349	-0.292270
O138	O	0.984074	-0.226914	-0.192367
C139	C	0.937834	-0.257805	-0.244085
H140	H	0.881728	-0.265826	-0.220597
H141	H	0.968252	-0.295357	-0.252486
H142	H	0.926130	-0.237214	-0.300989
O143	O	1.030048	-0.472469	-0.238236
C144	C	1.070487	-0.437423	-0.278682
H145	H	1.039140	-0.399355	-0.283123
H146	H	1.075066	-0.452842	-0.338199
H147	H	1.129953	-0.431735	-0.247431
O148	O	1.030057	-0.367203	-0.238058
C149	C	1.081798	-0.336310	-0.191845
H150	H	1.058352	-0.328312	-0.135716
H151	H	1.090170	-0.298748	-0.222265
H152	H	1.138711	-0.356889	-0.180185
H153	H	0.977046	-0.777417	-0.185121
O154	O	0.755931	0.000022	0.500946
C155	C	0.713693	0.043979	0.514656
H156	H	0.732400	0.058631	0.574572
H157	H	0.650555	0.034097	0.508995
H158	H	0.723968	0.074753	0.471490
O159	O	0.984370	-0.878460	-0.192270
C160	C	1.061229	-0.865409	-0.171180
H161	H	1.064529	-0.826626	-0.141827
H162	H	1.092134	-0.863579	-0.224128
H163	H	1.089174	-0.895468	-0.130532
O164	O	0.803591	-0.878478	-0.011477
C165	C	0.763140	-0.843458	0.028973
H166	H	0.794478	-0.805378	0.033426
H167	H	0.758560	-0.858893	0.088486
H168	H	0.703674	-0.837783	-0.002281
H169	H	0.810804	-0.777463	-0.018739
O170	O	0.757755	-0.472532	0.034400
C171	C	0.717309	-0.437509	0.074852
H172	H	0.748647	-0.399429	0.079296
H173	H	0.712738	-0.452941	0.134369
H174	H	0.657840	-0.431837	0.043605
O175	O	0.757876	-0.367294	0.034410
C176	C	0.804113	-0.336380	0.086100
H177	H	0.864355	-0.352464	0.094302
H178	H	0.780035	-0.335784	0.143084
H179	H	0.805336	-0.295897	0.062713
O180	O	0.803509	-0.226835	-0.011477
C181	C	0.763051	-0.191815	0.028968
H182	H	0.794382	-0.153733	0.033415
H183	H	0.758473	-0.207248	0.088483
H184	H	0.703585	-0.186147	-0.002288
O185	O	1.030144	-0.632815	-0.238037
C186	C	1.081857	-0.663714	-0.191812
H187	H	1.090093	-0.647614	-0.131579
H188	H	1.138824	-0.664315	-0.215924
H189	H	1.058473	-0.704198	-0.190556
O190	O	0.757878	-0.632832	0.034428
C191	C	0.778986	-0.619764	0.111274
H192	H	0.840031	-0.605070	0.118658
H193	H	0.774656	-0.654891	0.148512
H194	H	0.739342	-0.588766	0.128790
O195	O	0.757717	-0.527514	0.034192
C196	C	0.705967	-0.496642	-0.012037
H197	H	0.729426	-0.488623	-0.068157
H198	H	0.697560	-0.459089	0.018377
H199	H	0.649070	-0.517250	-0.023713
H200	H	0.810717	-0.125803	-0.018757
