data_functionalizedCrystal
_audit_creation_method	'MofGen! by Chris Wilmer'
_symmetry_space_group_name_H-M	'P1'
_symmetry_Int_Tables_number	1
_symmetry_cell_setting	triclinic
loop_
_symmetry_equiv_pos_as_xyz
  x,y,z
_cell_length_a	21.395364
_cell_length_b	16.120484
_cell_length_c	21.395355
_cell_angle_alpha	92.880721
_cell_angle_beta	89.975448
_cell_angle_gamma	92.940493
loop_
_atom_site_label
_atom_site_type_symbol
_atom_site_fract_x
_atom_site_fract_y
_atom_site_fract_z
Zn1	Zn	0.945243	-0.331679	-0.366896
Zn2	Zn	1.445243	0.168321	0.133104
Zn3	Zn	0.939844	-0.471078	-0.267429
Zn4	Zn	1.439844	0.028922	0.232571
Zn5	Zn	0.840457	-0.331716	-0.262134
Zn6	Zn	1.340457	0.168284	0.237866
Zn7	Zn	0.835125	-0.471093	-0.372169
Zn8	Zn	1.335125	0.028907	0.127831
O9	O	0.890167	-0.401391	-0.317157
O10	O	1.390167	0.098609	0.182843
O11	O	1.032206	-0.350149	-0.353710
O12	O	1.532206	0.149851	0.146290
O13	O	0.926632	-0.452600	-0.179049
O14	O	1.426632	0.047400	0.320951
O15	O	0.858848	-0.215042	-0.271608
O16	O	1.358848	0.284958	0.228392
O17	O	1.028239	-0.452565	-0.280632
O18	O	1.528239	0.047435	0.219368
O19	O	0.935835	-0.215016	-0.348577
O20	O	1.435835	0.284984	0.151423
O21	O	0.853613	-0.350212	-0.175159
O22	O	1.353613	0.149788	0.324841
O23	O	0.752071	-0.350226	-0.276722
O24	O	1.252071	0.149774	0.223278
O25	O	0.849761	-0.452590	-0.459148
O26	O	1.349761	0.047410	0.040852
O27	O	0.748153	-0.452626	-0.357564
O28	O	1.248153	0.047374	0.142436
O29	O	0.930664	-0.350164	-0.455273
O30	O	1.430664	0.149836	0.044727
O31	O	0.921461	-0.587748	-0.285746
O32	O	1.421461	-0.087748	0.214254
O33	O	0.844525	-0.587759	-0.362698
O34	O	1.344525	-0.087759	0.137302
C35	C	0.727378	-0.401432	-0.317141
C36	C	1.227378	0.098568	0.182859
C37	C	0.657735	-0.401469	-0.317150
C38	C	1.157735	0.098531	0.182850
C39	C	0.881845	-0.618005	-0.325382
C40	C	1.381845	-0.118005	0.174618
C41	C	0.878343	-0.710673	-0.328922
C42	C	1.378343	-0.210673	0.171078
C43	C	0.627107	-0.348229	-0.355267
C44	C	1.127107	0.151771	0.144733
C45	C	0.561672	-0.348207	-0.355269
C46	C	1.061672	0.151793	0.144731
C47	C	0.526868	-0.401440	-0.317160
C48	C	1.026868	0.098560	0.182840
C49	C	0.557504	-0.454684	-0.279035
C50	C	1.057504	0.045316	0.220965
C51	C	0.622938	-0.454699	-0.279030
C52	C	1.122938	0.045301	0.220970
C53	C	0.420288	-0.476521	-0.314983
C54	C	0.920288	0.023479	0.185017
C55	C	0.354856	-0.476508	-0.314992
C56	C	0.854856	0.023492	0.185008
C57	C	0.325049	-0.401394	-0.317172
C58	C	0.825049	0.098606	0.182828
C59	C	0.360683	-0.326291	-0.319356
C60	C	0.860683	0.173709	0.180644
C61	C	0.426117	-0.326306	-0.319351
C62	C	0.926117	0.173694	0.180649
C63	C	0.455916	-0.401430	-0.317161
C64	C	0.955916	0.098570	0.182839
C65	C	0.223469	-0.348125	-0.355293
C66	C	0.723469	0.151875	0.144707
C67	C	0.158034	-0.348101	-0.355290
C68	C	0.658034	0.151899	0.144710
C69	C	0.153867	-0.454586	-0.279061
C70	C	0.653867	0.045414	0.220939
C71	C	0.219301	-0.454602	-0.279060
C72	C	0.719301	0.045398	0.220940
C73	C	0.254099	-0.401373	-0.317180
C74	C	0.754099	0.098627	0.182820
C75	C	0.871951	-0.880338	-0.335397
C76	C	1.371951	-0.380338	0.164603
C77	C	0.908496	-0.921604	-0.298927
C78	C	1.408496	-0.421604	0.201073
C79	C	0.904939	-1.016012	-0.302530
C80	C	1.404939	-0.516012	0.197470
C81	C	0.875506	-0.785922	-0.331795
C82	C	1.375506	-0.285922	0.168205
C83	C	1.053592	-0.401351	-0.317174
C84	C	1.553592	0.098649	0.182826
C85	C	1.123234	-0.401334	-0.317181
C86	C	1.623234	0.098666	0.182819
C87	C	0.890220	-0.401375	-0.480580
C88	C	1.390220	0.098625	0.019420
C89	C	0.890242	-0.401367	-0.550221
C90	C	1.390242	0.098633	-0.050221
C91	C	0.898539	-0.183932	-0.308914
C92	C	1.398539	0.316068	0.191086
C93	C	0.902106	-0.091264	-0.305401
C94	C	1.402106	0.408736	0.194599
C95	C	0.932367	-0.348032	-0.580918
C96	C	1.432367	0.151968	-0.080918
C97	C	0.932368	-0.347996	-0.646352
C98	C	1.432368	0.152004	-0.146352
C99	C	0.890249	-0.401311	-0.681087
C100	C	1.390249	0.098689	-0.181087
C101	C	0.848117	-0.454650	-0.650383
C102	C	1.348117	0.045350	-0.150383
C103	C	0.848113	-0.454678	-0.584950
C104	C	1.348113	0.045322	-0.084950
C105	C	0.882418	-0.476381	-0.787612
C106	C	1.382418	0.023619	-0.287612
C107	C	0.882426	-0.476354	-0.853044
C108	C	1.382426	0.023646	-0.353044
C109	C	0.890257	-0.401222	-0.882905
C110	C	1.390257	0.098778	-0.382905
C111	C	0.898093	-0.326115	-0.847325
C112	C	1.398093	0.173885	-0.347325
C113	C	0.898089	-0.326144	-0.781892
C114	C	1.398089	0.173856	-0.281892
C115	C	0.890248	-0.401285	-0.752039
C116	C	1.390248	0.098715	-0.252039
C117	C	0.932384	-0.347843	-0.984552
C118	C	1.432384	0.152157	-0.484552
C119	C	0.932381	-0.347806	-1.049987
C120	C	1.432381	0.152194	-0.549987
C121	C	0.848132	-0.454468	-1.054017
C122	C	1.348132	0.045532	-0.554017
C123	C	0.848133	-0.454498	-0.988583
C124	C	1.348133	0.045502	-0.488583
C125	C	0.890262	-0.401186	-0.953855
C126	C	1.390262	0.098814	-0.453855
C127	C	0.890153	-0.401348	-0.154368
C128	C	1.390153	0.098652	0.345632
C129	C	0.890261	-0.401120	-0.084718
C130	C	1.390261	0.098880	0.415282
H131	H	0.655435	-0.304885	-0.386306
H132	H	1.155435	0.195115	0.113694
H133	H	0.133098	-0.304742	-0.386329
H134	H	0.633098	0.195258	0.113671
H135	H	0.444550	-0.537693	-0.313207
H136	H	0.944550	-0.037693	0.186793
C137	C	0.801784	-0.513293	-0.688593
C138	C	1.301784	-0.013293	-0.188593
N139	N	0.766882	-0.557461	-0.717373
N140	N	1.266882	-0.057461	-0.217373
C141	C	0.954367	-0.873547	-0.253086
C142	C	1.454367	-0.373547	0.246914
N143	N	0.988913	-0.837346	-0.218557
N144	N	1.488913	-0.337346	0.281443
C145	C	0.327902	-0.243658	-0.321748
C146	C	0.827902	0.256342	0.178252
N147	N	0.303208	-0.181421	-0.323549
N148	N	0.803208	0.318579	0.176451
H149	H	0.813834	-0.497934	-0.963590
H150	H	1.313834	0.002066	-0.463590
H151	H	0.966672	-0.304620	-0.552645
H152	H	1.466672	0.195380	-0.052645
H153	H	0.244239	-0.497960	-0.248024
H154	H	0.744239	0.002040	0.251976
H155	H	0.813807	-0.498110	-0.559957
H156	H	1.313807	0.001890	-0.059957
H157	H	0.325847	-0.537661	-0.313217
H158	H	0.825847	-0.037661	0.186783
C159	C	0.826072	-0.928395	-0.381225
C160	C	1.326072	-0.428395	0.118775
N161	N	0.791513	-0.964602	-0.415738
N162	N	1.291513	-0.464602	0.084262
H163	H	0.251803	-0.304777	-0.386328
H164	H	0.751803	0.195223	0.113672
C165	C	0.906700	-0.243527	-0.742757
C166	C	1.406700	0.256473	-0.242757
N167	N	0.913182	-0.181298	-0.713280
N168	N	1.413182	0.318702	-0.213280
C169	C	0.527974	-0.289641	-0.397206
C170	C	1.027974	0.210359	0.102794
N171	N	0.502594	-0.245531	-0.428795
N172	N	1.002594	0.254469	0.071205
H173	H	0.529163	-0.498026	-0.248007
H174	H	1.029163	0.001974	0.251993
H175	H	0.647875	-0.498055	-0.247990
H176	H	1.147875	0.001945	0.252010
C177	C	0.978714	-0.289325	-0.680125
C178	C	1.478714	0.210675	-0.180125
N179	N	1.013623	-0.245136	-0.705562
N180	N	1.513623	0.254864	-0.205562
C181	C	0.906706	-0.243463	-0.880166
C182	C	1.406706	0.256537	-0.380166
N183	N	0.913194	-0.181212	-0.904905
N184	N	1.413194	0.318788	-0.404905
C185	C	0.978722	-0.289193	-0.946348
C186	C	1.478722	0.210807	-0.446348
N187	N	1.013622	-0.245016	-0.917575
N188	N	1.513622	0.254984	-0.417575
C189	C	0.978723	-0.289128	-1.083753
C190	C	1.478723	0.210872	-0.583753
N191	N	1.013629	-0.244931	-1.109186
N192	N	1.513629	0.255069	-0.609186
H193	H	0.813833	-0.497869	-1.082298
H194	H	1.313833	0.002131	-0.582298
H195	H	0.876049	-0.537511	-0.882008
H196	H	1.376049	-0.037511	-0.382008
H197	H	0.455128	-0.265154	-0.321127
H198	H	0.955128	0.234846	0.178873
C199	C	0.115586	-0.513143	-0.237140
C200	C	0.615586	-0.013143	0.262860
N201	N	0.086749	-0.557249	-0.205564
N202	N	0.586749	-0.057249	0.294436
H203	H	0.875874	-0.537547	-0.763305
H204	H	1.375874	-0.037547	-0.263305
