data_functionalizedCrystal
_audit_creation_method	'MofGen! by Chris Wilmer'
_symmetry_space_group_name_H-M	'P1'
_symmetry_Int_Tables_number	1
_symmetry_cell_setting	triclinic
loop_
_symmetry_equiv_pos_as_xyz
  x,y,z
_cell_length_a	19.077105
_cell_length_b	25.639239
_cell_length_c	25.639233
_cell_angle_alpha	90.018747
_cell_angle_beta	92.310062
_cell_angle_gamma	87.734929
loop_
_atom_site_label
_atom_site_type_symbol
_atom_site_fract_x
_atom_site_fract_y
_atom_site_fract_z
Zn1	Zn	1.075857	-0.240381	0.327689
Zn2	Zn	1.409190	0.092952	0.661022
Zn3	Zn	1.742524	0.426285	0.994355
Zn4	Zn	1.075754	-0.327797	0.240250
Zn5	Zn	1.409087	0.005536	0.573583
Zn6	Zn	1.742421	0.338869	0.906916
Zn7	Zn	0.958174	-0.236862	0.236758
Zn8	Zn	1.291507	0.096471	0.570091
Zn9	Zn	1.624840	0.429805	0.903425
Zn10	Zn	0.958100	-0.324267	0.324146
Zn11	Zn	1.291433	0.009066	0.657479
Zn12	Zn	1.624767	0.342400	0.990813
O13	O	1.016971	-0.282327	0.282211
O14	O	1.350304	0.051006	0.615544
O15	O	1.683638	0.384340	0.948877
O16	O	1.174333	-0.254928	0.319033
O17	O	1.507666	0.078406	0.652367
O18	O	1.841000	0.411739	0.985700
O19	O	1.060145	-0.315739	0.166621
O20	O	1.393478	0.017594	0.499954
O21	O	1.726811	0.350928	0.833288
O22	O	0.973859	-0.164166	0.248842
O23	O	1.307192	0.169167	0.582175
O24	O	1.640525	0.502501	0.915508
O25	O	1.174257	-0.319152	0.254793
O26	O	1.507590	0.014182	0.588126
O27	O	1.840924	0.347515	0.921459
O28	O	1.060320	-0.166752	0.315648
O29	O	1.393653	0.166582	0.648981
O30	O	1.726987	0.499915	0.982314
O31	O	0.973759	-0.248929	0.164056
O32	O	1.307092	0.084404	0.497389
O33	O	1.640426	0.417737	0.830722
O34	O	0.859674	-0.245506	0.245407
O35	O	1.193008	0.087827	0.578740
O36	O	1.526341	0.421161	0.912073
O37	O	0.973733	-0.313135	0.397782
O38	O	1.307066	0.020199	0.731115
O39	O	1.640399	0.353532	1.064448
O40	O	0.859620	-0.309722	0.309610
O41	O	1.192954	0.023611	0.642943
O42	O	1.526287	0.356945	0.976277
O43	O	1.060248	-0.251505	0.400384
O44	O	1.393582	0.081829	0.733718
O45	O	1.726915	0.415162	1.067051
O46	O	1.060073	-0.400492	0.251358
O47	O	1.393406	-0.067159	0.584691
O48	O	1.726740	0.266175	0.918024
O49	O	0.973633	-0.397898	0.312996
O50	O	1.306966	-0.064565	0.646329
O51	O	1.640300	0.268768	0.979663
C52	C	0.834110	-0.276850	0.276745
C53	C	1.167443	0.056484	0.610079
C54	C	1.500777	0.389817	0.943412
C55	C	0.755881	-0.274519	0.274420
C56	C	1.089215	0.058814	0.607753
C57	C	1.422548	0.392148	0.941086
C58	C	0.719119	-0.306908	0.306702
C59	C	1.052453	0.026425	0.640035
C60	C	1.385786	0.359759	0.973369
C61	C	0.645615	-0.304711	0.304519
C62	C	0.978948	0.028622	0.637853
C63	C	1.312282	0.361955	0.971186
C64	C	0.608874	-0.270128	0.270051
C65	C	0.942207	0.063206	0.603385
C66	C	1.275541	0.396539	0.936718
C67	C	0.645641	-0.237735	0.237768
C68	C	0.978975	0.095599	0.571101
C69	C	1.312308	0.428932	0.904434
C70	C	0.719144	-0.239929	0.239954
C71	C	1.052477	0.093404	0.573287
C72	C	1.385811	0.426737	0.906620
C73	C	0.389045	-0.259971	0.259938
C74	C	0.722378	0.073362	0.593271
C75	C	1.055712	0.406696	0.926605
C76	C	0.315537	-0.257780	0.257754
C77	C	0.648870	0.075553	0.591087
C78	C	0.982204	0.408886	0.924420
C79	C	0.315516	-0.324756	0.324506
C80	C	0.648849	0.008577	0.657839
C81	C	0.982183	0.341910	0.991173
C82	C	0.389020	-0.326950	0.326686
C83	C	0.722354	0.006383	0.660020
C84	C	1.055687	0.339717	0.993353
C85	C	0.425781	-0.294555	0.294405
C86	C	0.759114	0.038778	0.627738
C87	C	1.092448	0.372111	0.961072
N88	N	0.533741	-0.267882	0.267818
N89	N	0.867074	0.065451	0.601152
N90	N	1.200408	0.398784	0.934485
N91	N	0.500913	-0.296798	0.296641
N92	N	0.834246	0.036535	0.629974
N93	N	1.167579	0.369869	0.963308
C94	C	1.016853	-0.418166	0.282183
C95	C	1.350186	-0.084833	0.615517
C96	C	1.683519	0.248501	0.948850
C97	C	1.016867	-0.476280	0.282191
C98	C	1.350200	-0.142947	0.615524
C99	C	1.683533	0.190386	0.948858
C100	C	1.062098	-0.837988	0.250176
C101	C	1.395431	-0.504655	0.583509
C102	C	1.728765	-0.171321	0.916843
C103	C	1.062125	-0.892593	0.250184
C104	C	1.395458	-0.559260	0.583517
C105	C	1.728792	-0.225926	0.916851
O106	O	1.100460	-0.921969	0.222934
O107	O	1.433793	-0.588636	0.556267
O108	O	1.767126	-0.255303	0.889601
N109	N	1.017095	-0.918570	0.282249
N110	N	1.350428	-0.585236	0.615582
N111	N	1.683762	-0.251903	0.948916
C112	C	0.972039	-0.889938	0.314312
C113	C	1.305373	-0.556605	0.647646
C114	C	1.638706	-0.223272	0.980979
O115	O	0.933741	-0.917047	0.341587
O116	O	1.267074	-0.583714	0.674921
O117	O	1.600407	-0.250381	1.008254
C118	C	0.972016	-0.835334	0.314307
C119	C	1.305350	-0.502001	0.647640
C120	C	1.638683	-0.168668	0.980974
C121	C	1.017044	-0.809361	0.282236
C122	C	1.350378	-0.476027	0.615569
C123	C	1.683711	-0.142694	0.948902
C124	C	1.107123	-0.812014	0.218108
C125	C	1.440456	-0.478681	0.551441
C126	C	1.773790	-0.145347	0.884775
C127	C	1.107095	-0.757413	0.218100
C128	C	1.440428	-0.424079	0.551433
C129	C	1.773761	-0.090746	0.884766
C130	C	1.062041	-0.728785	0.250159
C131	C	1.395374	-0.395452	0.583493
C132	C	1.728708	-0.062119	0.916826
C133	C	1.017016	-0.754759	0.282227
C134	C	1.350349	-0.421426	0.615561
C135	C	1.683683	-0.088092	0.948894
C136	C	0.926965	-0.806704	0.346372
C137	C	1.260298	-0.473371	0.679706
C138	C	1.593631	-0.140037	1.013039
C139	C	0.926946	-0.752096	0.346365
C140	C	1.260279	-0.418763	0.679698
C141	C	1.593612	-0.085430	1.013031
C142	C	0.971974	-0.726123	0.314293
C143	C	1.305307	-0.392789	0.647627
C144	C	1.638641	-0.059456	0.980960
C145	C	0.971934	-0.671530	0.314279
C146	C	1.305267	-0.338197	0.647612
C147	C	1.638601	-0.004864	0.980945
N148	N	1.016964	-0.645554	0.282214
N149	N	1.350298	-0.312220	0.615547
N150	N	1.683631	0.021113	0.948880
C151	C	1.062018	-0.674181	0.250154
C152	C	1.395351	-0.340848	0.583487
C153	C	1.728685	-0.007515	0.916821
C154	C	0.972092	-1.004610	0.314322
C155	C	1.305426	-0.671277	0.647655
C156	C	1.638759	-0.337944	0.980989
C157	C	0.972112	-1.059213	0.314325
C158	C	1.305445	-0.725880	0.647658
C159	C	1.638778	-0.392547	0.980992
C160	C	1.062198	-1.061864	0.250197
C161	C	1.395532	-0.728531	0.583531
C162	C	1.728865	-0.395198	0.916864
C163	C	1.062175	-1.007260	0.250192
C164	C	1.395509	-0.673927	0.583525
C165	C	1.728842	-0.340594	0.916858
C166	C	1.017123	-0.978634	0.282257
C167	C	1.350456	-0.645301	0.615590
C168	C	1.683789	-0.311967	0.948923
C169	C	1.061954	-0.559514	0.250138
C170	C	1.395288	-0.226181	0.583472
C171	C	1.728621	0.107152	0.916805
C172	C	1.061920	-0.504908	0.250131
C173	C	1.395253	-0.171575	0.583465
C174	C	1.728587	0.161759	0.916798
C175	C	0.971836	-0.502262	0.314261
C176	C	1.305169	-0.168928	0.647594
C177	C	1.638503	0.164405	0.980927
C178	C	0.971868	-0.556863	0.314266
C179	C	1.305201	-0.223530	0.647599
C180	C	1.638534	0.109804	0.980933
C181	C	1.016932	-0.585488	0.282203
C182	C	1.350266	-0.252155	0.615537
C183	C	1.683599	0.081178	0.948870
O184	O	0.933621	-0.642120	0.341516
O185	O	1.266955	-0.308787	0.674850
O186	O	1.600288	0.024547	1.008183
O187	O	1.100317	-0.647066	0.222889
O188	O	1.433650	-0.313732	0.556222
O189	O	1.766983	0.019601	0.889555
C190	C	1.200546	-0.287826	0.287698
C191	C	1.533880	0.045507	0.621031
C192	C	1.867213	0.378841	0.954364
C193	C	1.278775	-0.290169	0.290036
C194	C	1.612108	0.043164	0.623369
C195	C	1.945442	0.376497	0.956702
C196	C	1.016994	-0.282318	0.418584
C197	C	1.350327	0.051015	0.751918
C198	C	1.683661	0.384348	1.085251
C199	C	1.017004	-0.282315	0.476699
C200	C	1.350337	0.051019	0.810032
C201	C	1.683670	0.384352	1.143365
C202	C	1.017109	-0.145958	0.282250
C203	C	1.350442	0.187375	0.615584
C204	C	1.683776	0.520709	0.948917
C205	C	1.017168	-0.087846	0.282267
C206	C	1.350501	0.245488	0.615600
C207	C	1.683835	0.578821	0.948934
C208	C	1.016989	-0.282299	0.146369
C209	C	1.350322	0.051034	0.479702
C210	C	1.683656	0.384368	0.813035
C211	C	1.017116	-0.282159	0.088259
C212	C	1.350449	0.051174	0.421592
C213	C	1.683782	0.384507	0.754925
C214	C	1.062109	-0.250126	0.838424
C215	C	1.395443	0.083207	1.171758
C216	C	1.728776	0.416540	1.505091
C217	C	1.062118	-0.250112	0.893029
C218	C	1.395451	0.083221	1.226362
C219	C	1.728785	0.416555	1.559696
O220	O	1.100412	-0.222804	0.922423
O221	O	1.433745	0.110529	1.255756
O222	O	1.767078	0.443862	1.589089
N223	N	1.017081	-0.282195	0.918984
N224	N	1.350414	0.051139	1.252317
N225	N	1.683748	0.384472	1.585650
C226	C	0.972028	-0.314289	0.890331
C227	C	1.305361	0.019044	1.223664
C228	C	1.638694	0.352377	1.556997
O229	O	0.933720	-0.341576	0.917421
O230	O	1.267054	-0.008243	1.250755
O231	O	1.600387	0.325090	1.584088
C232	C	0.972016	-0.314300	0.835727
C233	C	1.305349	0.019033	1.169060
C234	C	1.638682	0.352366	1.502394
C235	C	1.017061	-0.282220	0.809775
C236	C	1.350394	0.051114	1.143109
C237	C	1.683727	0.384447	1.476442
C238	C	1.107150	-0.218048	0.812473
C239	C	1.440483	0.115286	1.145806
C240	C	1.773817	0.448619	1.479139
C241	C	1.107142	-0.218063	0.757872
C242	C	1.440475	0.115270	1.091205
C243	C	1.773809	0.448604	1.424539
C244	C	1.062093	-0.250156	0.729223
C245	C	1.395427	0.083177	1.062556
C246	C	1.728760	0.416510	1.395890
C247	C	1.017053	-0.282235	0.755175
C248	C	1.350386	0.051098	1.088508
C249	C	1.683719	0.384432	1.421841
C250	C	0.926959	-0.346392	0.807075
C251	C	1.260293	-0.013059	1.140408
C252	C	1.593626	0.320274	1.473742
C253	C	0.926951	-0.346400	0.752468
C254	C	1.260284	-0.013067	1.085801
C255	C	1.593618	0.320266	1.419134
C256	C	0.971996	-0.314320	0.726516
C257	C	1.305329	0.019014	1.059849
C258	C	1.638663	0.352347	1.393183
C259	C	0.971996	-0.314343	0.671925
C260	C	1.305330	0.018990	1.005258
C261	C	1.638663	0.352323	1.338591
N262	N	1.017033	-0.282261	0.645970
N263	N	1.350366	0.051072	0.979303
N264	N	1.683700	0.384406	1.312637
C265	C	1.062082	-0.250167	0.674619
C266	C	1.395415	0.083166	1.007953
C267	C	1.728748	0.416499	1.341286
C268	C	0.972055	-0.314263	1.005002
C269	C	1.305388	0.019070	1.338336
C270	C	1.638721	0.352404	1.671669
C271	C	0.972069	-0.314255	1.059605
C272	C	1.305403	0.019078	1.392938
C273	C	1.638736	0.352412	1.726272
C274	C	1.062159	-0.250077	1.062300
C275	C	1.395493	0.083256	1.395633
C276	C	1.728826	0.416590	1.728966
C277	C	1.062148	-0.250088	1.007696
C278	C	1.395481	0.083245	1.341029
C279	C	1.728814	0.416579	1.674363
C280	C	1.017092	-0.282181	0.979048
C281	C	1.350425	0.051153	1.312381
C282	C	1.683758	0.384486	1.645714
C283	C	1.062062	-0.250202	0.559953
C284	C	1.395395	0.083132	0.893287
C285	C	1.728729	0.416465	1.226620
C286	C	1.062052	-0.250221	0.505348
C287	C	1.395386	0.083112	0.838681
C288	C	1.728719	0.416445	1.172014
C289	C	0.971960	-0.314397	0.502658
C290	C	1.305293	0.018936	0.835991
C291	C	1.638627	0.352269	1.169325
C292	C	0.971972	-0.314380	0.557259
C293	C	1.305306	0.018953	0.890592
C294	C	1.638639	0.352287	1.223926
C295	C	1.017026	-0.282278	0.585905
C296	C	1.350359	0.051055	0.919239
C297	C	1.683692	0.384389	1.252572
O298	O	0.933720	-0.341636	0.642497
O299	O	1.267053	-0.008302	0.975830
O300	O	1.600387	0.325031	1.309164
O301	O	1.100376	-0.222880	0.647522
O302	O	1.433709	0.110453	0.980855
O303	O	1.767043	0.443787	1.314188
H304	H	1.098587	-0.483762	0.224013
H305	H	1.431921	-0.150429	0.557347
H306	H	1.765254	0.182905	0.890680
C307	C	0.877413	-0.381683	0.835612
C308	C	1.210747	-0.048350	1.168946
C309	C	1.544080	0.284984	1.502279
H310	H	0.883869	-0.377089	0.872237
H311	H	1.217202	-0.043756	1.205570
H312	H	1.550535	0.289578	1.538904
H313	H	0.830132	-0.372617	0.825249
H314	H	1.163466	-0.039284	1.158582
H315	H	1.496799	0.294050	1.491916
H316	H	0.887684	-0.417122	0.826962
H317	H	1.221017	-0.083789	1.160295
H318	H	1.554350	0.249544	1.493629
H319	H	1.098652	-0.582815	0.224031
H320	H	1.431985	-0.249481	0.557364
H321	H	1.765319	0.083852	0.890698
C322	C	1.156716	-0.182750	0.843981
C323	C	1.490049	0.150584	1.177314
C324	C	1.823382	0.483917	1.510648
H325	H	1.150280	-0.187331	0.880220
H326	H	1.483613	0.146002	1.213553
H327	H	1.816947	0.479336	1.546887
H328	H	1.203989	-0.191828	0.836435
H329	H	1.537322	0.141506	1.169768
H330	H	1.870656	0.474839	1.503102
H331	H	1.146452	-0.147312	0.834730
H332	H	1.479786	0.186022	1.168063
H333	H	1.813119	0.519355	1.501396
H334	H	0.285624	-0.229612	0.229689
H335	H	0.618958	0.103721	0.563022
H336	H	0.952291	0.437055	0.896356
C337	C	1.111599	-0.214928	0.476804
C338	C	1.444933	0.118405	0.810137
C339	C	1.778266	0.451739	1.143470
H340	H	1.138423	-0.195809	0.501690
H341	H	1.471756	0.137525	0.835023
H342	H	1.805089	0.470858	1.168356
H343	H	1.142244	-0.235849	0.456417
H344	H	1.475577	0.097485	0.789750
H345	H	1.808911	0.430818	1.123084
H346	H	1.084691	-0.191344	0.454702
H347	H	1.418024	0.141989	0.788035
H348	H	1.751357	0.475322	1.121368
C349	C	0.605177	-0.340340	0.340027
C350	C	0.938510	-0.007006	0.673361
C351	C	1.271843	0.326327	1.006694
H352	H	0.556139	-0.334076	0.333795
H353	H	0.889472	-0.000743	0.667128
H354	H	1.222806	0.332590	1.000462
H355	H	0.617189	-0.375816	0.332668
H356	H	0.950522	-0.042483	0.666001
H357	H	1.283855	0.290851	0.999335
H358	H	0.617247	-0.333099	0.375532
H359	H	0.950581	0.000235	0.708865
H360	H	1.283914	0.333568	1.042198
C361	C	1.111755	-1.093362	0.214930
C362	C	1.445088	-0.760028	0.548264
C363	C	1.778422	-0.426695	0.881597
H364	H	1.105320	-1.129601	0.219532
H365	H	1.438653	-0.796268	0.552865
H366	H	1.771986	-0.462934	0.886198
H367	H	1.101482	-1.084130	0.179487
H368	H	1.434816	-0.750797	0.512820
H369	H	1.768149	-0.417463	0.846153
H370	H	1.159037	-1.085792	0.224023
H371	H	1.492371	-0.752458	0.557357
H372	H	1.825704	-0.419125	0.890690
C373	C	0.429430	-0.364989	0.364604
C374	C	0.762764	-0.031656	0.697938
C375	C	1.096097	0.301678	1.031271
H376	H	0.397008	-0.383961	0.383522
H377	H	0.730342	-0.050628	0.716855
H378	H	1.063675	0.282705	1.050189
H379	H	0.458078	-0.388595	0.345416
H380	H	0.791411	-0.055262	0.678749
H381	H	1.124744	0.278072	1.012083
H382	H	0.458128	-0.345874	0.388276
H383	H	0.791462	-0.012541	0.721610
H384	H	1.124795	0.320793	1.054943
C385	C	1.111714	-0.214776	1.093821
C386	C	1.445048	0.118558	1.427154
C387	C	1.778381	0.451891	1.760487
H388	H	1.105263	-0.219364	1.130056
H389	H	1.438596	0.113970	1.463390
H390	H	1.771930	0.447303	1.796723
H391	H	1.158994	-0.223846	1.086285
H392	H	1.492327	0.109487	1.419618
H393	H	1.825660	0.442820	1.752952
H394	H	1.101447	-0.179337	1.084572
H395	H	1.434781	0.153996	1.417906
H396	H	1.768114	0.487330	1.751239
H397	H	0.285578	-0.351130	0.350788
H398	H	0.618911	-0.017796	0.684122
H399	H	0.952244	0.315537	1.017455
H400	H	0.418967	-0.233597	0.233648
H401	H	0.752300	0.099736	0.566981
H402	H	1.085633	0.433070	0.900315
H403	H	0.615721	-0.209574	0.209706
H404	H	0.949054	0.123760	0.543039
H405	H	1.282388	0.457093	0.876372
H406	H	0.935300	-0.340508	0.578390
H407	H	1.268633	-0.007174	0.911723
H408	H	1.601966	0.326159	1.245057
H409	H	1.143762	-0.736268	0.191986
H410	H	1.477096	-0.402935	0.525320
H411	H	1.810429	-0.069602	0.858653
C412	C	0.922284	-0.470765	0.349526
C413	C	1.255618	-0.137431	0.682859
C414	C	1.588951	0.195902	1.016193
H415	H	0.928727	-0.434525	0.344930
H416	H	1.262060	-0.101192	0.678263
H417	H	1.595394	0.232141	1.011597
H418	H	0.875004	-0.478335	0.340440
H419	H	1.208337	-0.145002	0.673774
H420	H	1.541671	0.188332	1.007107
H421	H	0.932567	-0.479996	0.384972
H422	H	1.265900	-0.146663	0.718305
H423	H	1.599233	0.186671	1.051638
H424	H	1.143815	-0.835317	0.192001
H425	H	1.477148	-0.501984	0.525335
H426	H	1.810481	-0.168650	0.858668
H427	H	0.935399	-0.981305	0.340431
H428	H	1.268733	-0.647972	0.673765
H429	H	1.602066	-0.314638	1.007098
H430	H	0.749075	-0.213552	0.213669
H431	H	1.082408	0.119782	0.547002
H432	H	1.415741	0.453115	0.880335
H433	H	0.935397	-0.340384	1.080730
H434	H	1.268730	-0.007051	1.414064
H435	H	1.602064	0.326282	1.747397
H436	H	0.935285	-0.340529	0.479322
H437	H	1.268618	-0.007195	0.812655
H438	H	1.601952	0.326138	1.145989
C439	C	0.877391	-0.381703	0.720955
C440	C	1.210724	-0.048369	1.054289
C441	C	1.544057	0.284964	1.387622
H442	H	0.883829	-0.377116	0.684718
H443	H	1.217162	-0.043783	1.018051
H444	H	1.550496	0.289551	1.351384
H445	H	0.887653	-0.417137	0.730210
H446	H	1.220986	-0.083804	1.063543
H447	H	1.554319	0.249529	1.396876
H448	H	0.830110	-0.372626	0.728493
H449	H	1.163443	-0.039292	1.061826
H450	H	1.496777	0.294041	1.395159
C451	C	1.156685	-0.182769	0.729332
C452	C	1.490018	0.150565	1.062665
C453	C	1.823352	0.483898	1.395998
H454	H	1.183507	-0.163652	0.754221
H455	H	1.516840	0.169682	1.087554
H456	H	1.850173	0.503015	1.420887
H457	H	1.187332	-0.203686	0.708943
H458	H	1.520665	0.129647	1.042277
H459	H	1.853998	0.462981	1.375610
H460	H	1.129777	-0.159183	0.707232
H461	H	1.463110	0.174150	1.040565
H462	H	1.796443	0.507484	1.373899
H463	H	1.098841	-0.986116	0.224077
H464	H	1.432175	-0.652783	0.557410
H465	H	1.765508	-0.319449	0.890744
C466	C	0.922576	-1.087778	0.349600
C467	C	1.255910	-0.754445	0.682933
C468	C	1.589243	-0.421112	1.016266
H469	H	0.895746	-1.062904	0.368693
H470	H	1.229080	-0.729571	0.702026
H471	H	1.562413	-0.396237	1.035360
H472	H	0.891937	-1.108197	0.328671
H473	H	1.225271	-0.774864	0.662005
H474	H	1.558604	-0.441531	0.995338
H475	H	0.949492	-1.109850	0.373208
H476	H	1.282826	-0.776517	0.706542
H477	H	1.616159	-0.443184	1.039875
H478	H	0.749029	-0.335072	0.334768
H479	H	1.082362	-0.001738	0.668101
H480	H	1.415695	0.331595	1.001434
C481	C	1.111689	-0.214794	0.979154
C482	C	1.445022	0.118539	1.312487
C483	C	1.778355	0.451873	1.645820
H484	H	1.138514	-0.195678	1.004041
H485	H	1.471847	0.137656	1.337374
H486	H	1.805180	0.470989	1.670708
H487	H	1.142332	-0.235711	0.958763
H488	H	1.475665	0.097622	1.292096
H489	H	1.808999	0.430955	1.625429
H490	H	1.084778	-0.191207	0.957056
H491	H	1.418111	0.142126	1.290389
H492	H	1.751445	0.475459	1.623723
H493	H	0.890295	-0.827842	0.372486
H494	H	1.223628	-0.494509	0.705819
H495	H	1.556961	-0.161176	1.039152
H496	H	0.890259	-0.728791	0.372478
H497	H	1.223593	-0.395458	0.705811
H498	H	1.556926	-0.062124	1.039144
H499	H	0.935204	-0.578012	0.340383
H500	H	1.268537	-0.244679	0.673716
H501	H	1.601871	0.088655	1.007049
C502	C	1.111625	-0.214895	0.591457
C503	C	1.444958	0.118438	0.924790
C504	C	1.778291	0.451772	1.258124
H505	H	1.138450	-0.195799	0.568175
H506	H	1.471783	0.137535	0.901508
H507	H	1.805116	0.470868	1.234841
H508	H	1.084737	-0.191299	0.611957
H509	H	1.418071	0.142035	0.945291
H510	H	1.751404	0.475368	1.278624
H511	H	1.142278	-0.235812	0.613670
H512	H	1.475611	0.097521	0.947003
H513	H	1.808945	0.430855	1.280337
H514	H	0.935364	-0.340399	0.981680
H515	H	1.268697	-0.007066	1.315013
H516	H	1.602031	0.326267	1.648347
