data_functionalizedCrystal
_audit_creation_method	'MofGen! by Chris Wilmer'
_symmetry_space_group_name_H-M	'P1'
_symmetry_Int_Tables_number	1
_symmetry_cell_setting	triclinic
loop_
_symmetry_equiv_pos_as_xyz
  x,y,z
_cell_length_a	18.101398
_cell_length_b	11.169416
_cell_length_c	11.169409
_cell_angle_alpha	89.971970
_cell_angle_beta	90.028971
_cell_angle_gamma	89.989180
loop_
_atom_site_label
_atom_site_type_symbol
_atom_site_fract_x
_atom_site_fract_y
_atom_site_fract_z
Zn1	Zn	1.132244	0.477782	0.678872
Zn2	Zn	1.132170	0.678523	0.478204
Zn3	Zn	1.008394	0.477845	0.478174
Zn4	Zn	1.008393	0.678414	0.678816
O5	O	1.070300	0.578141	0.578516
O6	O	1.235867	0.504431	0.652288
O7	O	1.115720	0.651974	0.310250
O8	O	1.024855	0.309887	0.504808
O9	O	1.235813	0.651914	0.504858
O10	O	1.115847	0.309841	0.652259
O11	O	1.024783	0.504537	0.310228
O12	O	0.904761	0.504431	0.504754
O13	O	1.024853	0.651729	0.846774
O14	O	0.904760	0.651789	0.652165
O15	O	1.115846	0.504325	0.846814
O16	O	1.115719	0.846458	0.504805
O17	O	1.024781	0.846378	0.652194
C18	C	0.877890	0.578106	0.578451
C19	C	0.795576	0.578120	0.578452
C20	C	1.070262	0.889966	0.578523
C21	C	1.070313	1.023366	0.578566
C22	C	0.644867	0.578144	0.578506
C23	C	0.613489	0.485298	0.485913
C24	C	0.527871	0.484948	0.486217
C25	C	0.496485	0.578168	0.578557
C26	C	0.527624	0.544387	0.705179
C27	C	0.613269	0.543699	0.704614
C28	C	0.613287	0.705012	0.545593
C29	C	0.527635	0.704344	0.542833
C30	C	0.412625	0.578184	0.578593
C31	C	0.728727	0.578126	0.578478
C32	C	1.263462	0.578177	0.578582
C33	C	1.345776	0.578193	0.578611
C34	C	1.070357	0.578008	0.891559
C35	C	1.070381	0.577951	1.024959
C36	C	1.070352	1.265099	0.578549
C37	C	1.070355	1.131699	0.578594
C38	C	1.070286	0.578187	0.266692
C39	C	1.070406	0.577906	0.133292
H40	H	0.506814	0.506027	0.392343
C41	C	0.498656	0.420518	0.743440
N42	N	0.476834	0.327219	0.772255
H43	H	0.633256	0.450977	0.732436
H44	H	0.635020	0.391823	0.507482
C45	C	0.500162	0.632954	0.800964
N46	N	0.479476	0.699663	0.873109
C47	C	0.641320	0.513349	0.358693
N48	N	0.662310	0.534453	0.262875
C49	C	0.641319	0.631112	0.801047
N50	N	0.662443	0.696941	0.873687
C51	C	0.500201	0.357959	0.515747
N52	N	0.479361	0.262306	0.537998
C53	C	0.642410	0.746677	0.422932
N54	N	0.664345	0.778044	0.330538
C55	C	0.500130	0.738778	0.416944
N56	N	0.479407	0.764711	0.322125
C57	C	0.498772	0.802756	0.627250
N58	N	0.477032	0.876878	0.690841
C59	C	0.640709	0.798460	0.636687
N60	N	0.661369	0.868837	0.705303
