data_functionalizedCrystal
_audit_creation_method	'MofGen! by Chris Wilmer'
_symmetry_space_group_name_H-M	'P1'
_symmetry_Int_Tables_number	1
_symmetry_cell_setting	triclinic
loop_
_symmetry_equiv_pos_as_xyz
  x,y,z
_cell_length_a	13.897448
_cell_length_b	12.759401
_cell_length_c	12.759393
_cell_angle_alpha	89.980404
_cell_angle_beta	89.967728
_cell_angle_gamma	90.017969
loop_
_atom_site_label
_atom_site_type_symbol
_atom_site_fract_x
_atom_site_fract_y
_atom_site_fract_z
Zn1	Zn	-0.383961	1.606244	-0.593970
Zn2	Zn	0.116039	2.106244	-0.093970
Zn3	Zn	-0.545288	1.606126	-0.418284
Zn4	Zn	-0.045288	2.106126	0.081716
Zn5	Zn	-0.384009	1.430543	-0.418309
Zn6	Zn	0.115991	1.930543	0.081691
Zn7	Zn	-0.545217	1.430526	-0.593926
Zn8	Zn	-0.045217	1.930526	-0.093926
O9	O	-0.464619	1.518360	-0.506122
O10	O	0.035381	2.018360	-0.006122
O11	O	-0.405371	1.753250	-0.570673
O12	O	0.094629	2.253250	-0.070673
O13	O	-0.523943	1.582793	-0.271266
O14	O	-0.023943	2.082793	0.228734
O15	O	-0.249021	1.453907	-0.441639
O16	O	0.250979	1.953907	0.058361
O17	O	-0.523897	1.753163	-0.441597
O18	O	-0.023897	2.253163	0.058403
O19	O	-0.248986	1.582994	-0.570696
O20	O	0.251014	2.082994	-0.070696
O21	O	-0.405453	1.453793	-0.271284
O22	O	0.094547	1.953793	0.228716
O23	O	-0.405384	1.283520	-0.441597
O24	O	0.094616	1.783520	0.058403
O25	O	-0.523776	1.453878	-0.740952
O26	O	-0.023776	1.953878	-0.240952
O27	O	-0.523822	1.283507	-0.570621
O28	O	-0.023822	1.783507	-0.070621
O29	O	-0.405302	1.582977	-0.740985
O30	O	0.094698	2.082977	-0.240985
O31	O	-0.680260	1.582776	-0.441555
O32	O	-0.180260	2.082776	0.058445
O33	O	-0.680208	1.453763	-0.570598
O34	O	-0.180208	1.953763	-0.070598
C35	C	-0.464601	1.245393	-0.506108
C36	C	0.035399	1.745393	-0.006108
C37	C	-0.464617	1.128616	-0.506126
C38	C	0.035383	1.628616	-0.006126
C39	C	-0.526397	0.964044	-0.573211
C40	C	-0.026397	1.464044	-0.073211
C41	C	-0.526386	1.073768	-0.573200
C42	C	-0.026386	1.573768	-0.073200
C43	C	-0.402862	1.073734	-0.439051
C44	C	0.097138	1.573734	0.060949
C45	C	-0.402878	0.964012	-0.439058
C46	C	0.097122	1.464012	0.060942
C47	C	-0.715233	1.518283	-0.506092
C48	C	-0.215233	2.018283	-0.006092
C49	C	-0.822447	1.518347	-0.506114
C50	C	-0.322447	2.018347	-0.006114
C51	C	-1.018742	1.518457	-0.506180
C52	C	-0.518742	2.018457	-0.006180
C53	C	-0.909509	1.518393	-0.506146
C54	C	-0.409509	2.018393	-0.006146
C55	C	-0.213026	1.518466	-0.506176
C56	C	0.286974	2.018466	-0.006176
C57	C	-0.105812	1.518511	-0.506198
C58	C	0.394188	2.018511	-0.006198
C59	C	-0.464526	1.518439	-0.780155
C60	C	0.035474	2.018439	-0.280155
C61	C	-0.464486	1.518472	-0.896932
C62	C	0.035514	2.018472	-0.396932
C63	C	-0.464637	1.792393	-0.506137
C64	C	0.035363	2.292393	-0.006137
C65	C	-0.464644	1.909170	-0.506144
C66	C	0.035356	2.409170	-0.006144
C67	C	-0.402787	1.585699	-0.951813
C68	C	0.097213	2.085699	-0.451813
C69	C	-0.402746	1.585717	-1.061537
C70	C	0.097254	2.085717	-0.561537
C71	C	-0.526111	1.451278	-1.061490
C72	C	-0.026111	1.951278	-0.561490
C73	C	-0.526147	1.451255	-0.951768
C74	C	-0.026147	1.951255	-0.451768
C75	C	-0.464641	1.518342	-0.233155
C76	C	0.035359	2.018342	0.266845
C77	C	-0.464409	1.518512	-0.116379
C78	C	0.035591	2.018512	0.383621
H79	H	-0.352573	1.118401	-0.384434
H80	H	0.147427	1.618401	0.115566
F81	F	-0.592136	0.905680	-0.644607
F82	F	-0.092136	1.405680	-0.144607
F83	F	-0.592113	1.132164	-0.644580
F84	F	-0.092113	1.632164	-0.144580
F85	F	-0.337083	1.657277	-1.119940
F86	F	0.162917	2.157277	-0.619940
F87	F	-0.337152	0.905608	-0.367668
F88	F	0.162848	1.405608	0.132332
F89	F	-0.337161	1.657235	-0.893456
F90	F	0.162839	2.157235	-0.393456
H91	H	-0.576314	1.396554	-1.106151
H92	H	-0.076314	1.896554	-0.606151
F93	F	-0.591814	1.379694	-0.893357
F94	F	-0.091814	1.879694	-0.393357
