data_functionalizedCrystal
_audit_creation_method	'MofGen! by Chris Wilmer'
_symmetry_space_group_name_H-M	'P1'
_symmetry_Int_Tables_number	1
_symmetry_cell_setting	triclinic
loop_
_symmetry_equiv_pos_as_xyz
  x,y,z
_cell_length_a	10.654545
_cell_length_b	19.188940
_cell_length_c	9.730223
_cell_angle_alpha	89.995167
_cell_angle_beta	89.997167
_cell_angle_gamma	83.815897
loop_
_atom_site_label
_atom_site_type_symbol
_atom_site_fract_x
_atom_site_fract_y
_atom_site_fract_z
O1	O	1.665774	0.098046	-0.114278
O2	O	1.300097	0.107392	-0.114284
O3	O	1.493482	0.001133	-0.114270
O4	O	1.472389	0.204306	-0.114291
O5	O	1.493470	0.001130	0.114310
O6	O	1.300085	0.107389	0.114296
O7	O	1.665761	0.098043	0.114302
Zn8	Zn	1.482921	0.102716	0.150591
Zn9	Zn	1.482938	0.102720	-0.150573
O10	O	1.472377	0.204303	0.114289
C11	C	1.253308	0.106705	0.000006
C12	C	1.113907	0.104654	0.000004
C13	C	1.492791	-0.024884	0.000020
C14	C	1.490734	-0.102401	0.000019
C15	C	1.048416	0.103687	0.124604
C16	C	0.917438	0.101748	0.124604
C17	C	0.917452	0.101747	-0.124607
C18	C	1.048429	0.103681	-0.124605
C19	C	1.476096	-0.655758	0.124585
C20	C	1.478015	-0.582921	0.124593
C21	C	1.478987	-0.546493	-0.000004
C22	C	1.478008	-0.582907	-0.124619
C23	C	1.476077	-0.655741	-0.124623
N24	N	1.553484	-0.436982	-0.092744
N25	N	1.555321	-0.367792	-0.092731
C26	C	1.484803	-0.327046	0.000000
N27	N	1.412394	-0.358105	0.092740
N28	N	1.410563	-0.427302	0.092732
C29	C	1.481080	-0.467516	-0.000014
C30	C	1.487854	-0.211663	0.124615
C31	C	1.489764	-0.138824	0.124618
C32	C	1.489770	-0.138812	-0.124598
C33	C	1.487846	-0.211649	-0.124596
C34	C	1.486894	-0.248070	0.000014
C35	C	1.712551	0.098730	0.000010
C36	C	1.851951	0.100782	0.000003
C37	C	1.473068	0.230320	-0.000004
C38	C	1.475125	0.307837	-0.000013
N39	N	1.482919	0.102713	0.356128
N40	N	1.482949	0.102717	-0.356109
C41	C	1.568579	0.055681	0.428060
C42	C	1.568591	0.055682	0.571943
C43	C	1.397281	0.149751	0.571949
C44	C	1.397263	0.149747	0.428069
H45	H	1.101725	0.104480	0.226068
H46	H	1.638341	0.017383	0.630506
C47	C	1.303062	0.201485	0.651097
N48	N	1.232094	0.240451	0.710711
C49	C	0.845402	0.100693	0.261674
N50	N	0.791145	0.099900	0.364921
C51	C	1.303084	0.201520	0.348939
N52	N	1.232169	0.240525	0.289338
C53	C	0.845413	0.100681	-0.261669
N54	N	0.791153	0.099881	-0.364908
H55	H	1.101754	0.104466	-0.226076
H56	H	1.475320	-0.685408	0.226053
H57	H	1.478783	-0.553272	0.226059
H58	H	1.638323	0.017382	0.369489
C59	C	1.490827	-0.098778	0.261693
N60	N	1.491629	-0.068615	0.364940
H61	H	1.478795	-0.553242	-0.226067
C62	C	1.486789	-0.251728	0.261687
N63	N	1.485985	-0.281902	0.364932
C64	C	1.475054	-0.695791	-0.261696
N65	N	1.474301	-0.725959	-0.364942
H66	H	1.490546	-0.109153	-0.226047
C67	C	1.486855	-0.251701	-0.261666
N68	N	1.486128	-0.281870	-0.364913
