data_functionalizedCrystal
_audit_creation_method	'MofGen! by Chris Wilmer'
_symmetry_space_group_name_H-M	'P1'
_symmetry_Int_Tables_number	1
_symmetry_cell_setting	triclinic
loop_
_symmetry_equiv_pos_as_xyz
  x,y,z
_cell_length_a	9.565339
_cell_length_b	19.288864
_cell_length_c	19.288865
_cell_angle_alpha	96.863755
_cell_angle_beta	90.012751
_cell_angle_gamma	89.983156
loop_
_atom_site_label
_atom_site_type_symbol
_atom_site_fract_x
_atom_site_fract_y
_atom_site_fract_z
O1	O	0.116724	-0.921346	0.086651
O2	O	0.116631	-0.719086	0.098339
O3	O	0.116652	-0.826060	-0.008635
O4	O	0.116702	-0.814372	0.193625
O5	O	-0.115868	-0.826055	-0.008645
O6	O	-0.115889	-0.719080	0.098330
O7	O	-0.115796	-0.921341	0.086641
Zn8	Zn	-0.152760	-0.820210	0.092484
Zn9	Zn	0.153595	-0.820217	0.092497
O10	O	-0.115818	-0.814366	0.193616
C11	C	0.000358	-0.693207	0.097959
C12	C	0.000321	-0.616103	0.096830
N13	N	-0.361840	-0.820210	0.092475
C14	C	0.000388	-0.825682	-0.034516
C15	C	0.000375	-0.824553	-0.111620
C16	C	-0.546165	-0.869304	0.042623
C17	C	-0.452903	-0.883145	0.105151
C18	C	-0.453032	-0.806400	0.029953
C19	C	-0.546115	-0.834094	0.155059
C20	C	-0.546252	-0.757322	0.079820
C21	C	-0.453032	-0.771136	0.142393
N22	N	0.362674	-0.820222	0.092500
C23	C	0.000480	-0.947220	0.087022
C24	C	0.000526	-1.024324	0.088151
C25	C	0.000359	-0.571407	0.159598
C26	C	0.000374	-0.498960	0.158537
C27	C	0.000380	-0.471212	0.094705
C28	C	0.000335	-0.515918	0.031929
C29	C	0.000305	-0.588364	0.032991
C30	C	0.081877	-0.362952	0.044529
C31	C	0.081914	-0.290508	0.043469
C32	C	0.000464	-0.247767	0.091425
C33	C	-0.081007	-0.277477	0.140453
C34	C	-0.081036	-0.349923	0.141515
C35	C	0.000411	-0.392658	0.093546
C36	C	0.000516	-0.124514	0.153047
C37	C	0.000522	-0.052066	0.151984
C38	C	0.000497	-0.069026	0.025374
C39	C	0.000476	-0.141473	0.026439
C40	C	0.000492	-0.169212	0.090278
C41	C	0.000397	-0.887321	-0.156316
C42	C	0.000419	-0.886260	-0.228763
C43	C	0.000390	-0.822428	-0.256511
C44	C	0.000376	-0.759652	-0.211805
C45	C	0.000369	-0.760714	-0.139359
C46	C	-0.081080	-0.772246	-0.364801
C47	C	-0.081081	-0.771186	-0.437246
C48	C	0.000420	-0.819148	-0.479956
C49	C	0.081904	-0.868181	-0.450215
C50	C	0.081896	-0.869244	-0.377770
C51	C	0.000400	-0.821269	-0.335065
C52	C	0.000468	-0.880770	-0.603209
C53	C	0.000498	-0.879707	-0.675657
C54	C	0.000441	-0.753097	-0.658697
C55	C	0.000425	-0.754162	-0.586250
C56	C	0.000432	-0.818000	-0.558511
C57	C	0.000450	-0.814745	0.219497
C58	C	0.000472	-0.815874	0.296601
H59	H	-0.587057	-0.910844	0.000501
O60	O	0.000387	-0.686462	-0.538035
H61	H	-0.094385	-0.683921	-0.504633
O62	O	-0.168995	-0.720513	-0.318740
H63	H	-0.245474	-0.749103	-0.289507
O64	O	-0.398573	-0.953596	0.119345
H65	H	-0.282547	-0.952780	0.119702
O66	O	-0.600030	-0.849666	0.225125
H67	H	-0.716063	-0.849578	0.224576
O68	O	-0.399188	-0.716144	0.198304
H69	H	-0.436669	-0.727781	0.250127
O70	O	0.000415	-0.956175	-0.126401
H71	H	0.000396	-0.946371	-0.068516
O72	O	0.000503	-0.039111	-0.043477
H73	H	0.000537	0.018774	-0.033672
H74	H	0.000508	-0.147101	0.205028
O75	O	-0.398881	-0.790908	-0.040097
H76	H	-0.333411	-0.835158	-0.063484
O77	O	-0.168961	-0.381960	0.194374
H78	H	-0.135455	-0.360875	0.247856
O79	O	-0.168877	-0.231391	0.192180
H80	H	-0.155189	-0.176025	0.183201
O81	O	0.169783	-0.258474	-0.009413
H82	H	0.246323	-0.221729	0.018201
H83	H	-0.587285	-0.704150	0.069081
O84	O	-0.168964	-0.718306	-0.469324
H85	H	-0.225617	-0.685125	-0.427455
H86	H	0.000453	-0.177866	-0.024674
O87	O	0.000329	-0.690801	-0.241726
H88	H	0.000319	-0.700607	-0.299611
H89	H	0.000375	-0.593987	0.211580
H90	H	0.148212	-0.397747	0.005476
O91	O	0.000430	-0.450737	0.226238
H92	H	0.000446	-0.482198	0.270807
O93	O	0.000507	-0.949621	-0.573284
H94	H	-0.094237	-0.979777	-0.591274
H95	H	0.000358	-0.493322	-0.020044
H96	H	0.000350	-0.709599	-0.102967
H97	H	0.148270	-0.907236	-0.484989
O98	O	0.000272	-0.636579	-0.034711
H99	H	0.000282	-0.605117	-0.079278
O100	O	0.000557	-0.003852	0.219686
H101	H	0.000575	-0.035315	0.264252
H102	H	0.000443	-0.937375	-0.265162
H103	H	0.148246	-0.909167	-0.353557
H104	H	0.000524	-0.930822	-0.712049
O105	O	0.000404	-0.684246	-0.688612
H106	H	0.000404	-0.694051	-0.746497
