data_functionalizedCrystal
_audit_creation_method	'MofGen! by Chris Wilmer'
_symmetry_space_group_name_H-M	'P1'
_symmetry_Int_Tables_number	1
_symmetry_cell_setting	triclinic
loop_
_symmetry_equiv_pos_as_xyz
  x,y,z
_cell_length_a	23.532407
_cell_length_b	23.532407
_cell_length_c	22.610064
_cell_angle_alpha	90.000603
_cell_angle_beta	89.997161
_cell_angle_gamma	97.151322
loop_
_atom_site_label
_atom_site_type_symbol
_atom_site_fract_x
_atom_site_fract_y
_atom_site_fract_z
O1	O	0.755263	-0.069127	-0.049117
O2	O	0.589400	-0.079130	-0.049135
O3	O	0.677333	0.008803	-0.049114
O4	O	0.667330	-0.157060	-0.049137
O5	O	0.677318	0.008790	0.049255
O6	O	0.589385	-0.079143	0.049234
O7	O	0.755248	-0.069140	0.049252
Zn8	Zn	0.672314	-0.074144	0.064862
Zn9	Zn	0.672334	-0.074127	-0.064744
O10	O	0.667315	-0.157073	0.049232
C11	C	0.568176	-0.078882	0.000048
C12	C	0.504959	-0.078116	0.000041
C13	C	0.105856	-0.125350	0.000061
C14	C	0.046456	-0.124638	0.000065
O15	O	0.009711	-0.168424	0.000081
N16	N	0.023830	-0.072362	0.000071
C17	C	0.060607	-0.020794	0.000080
O18	O	0.035908	0.023737	0.000086
C19	C	0.120006	-0.021506	0.000080
C20	C	0.142629	-0.073785	0.000068
C21	C	0.128479	-0.177625	0.000050
C22	C	0.187876	-0.178336	0.000045
C23	C	0.224649	-0.126772	0.000052
C24	C	0.202025	-0.074497	0.000063
C25	C	0.156783	0.030062	0.000093
C26	C	0.216185	0.029345	0.000094
C27	C	0.238808	-0.022934	0.000082
C28	C	0.298194	-0.023643	0.000065
N29	N	0.320820	-0.075920	0.000059
C30	C	0.284048	-0.127484	0.000052
C31	C	-0.064135	-0.019302	0.000080
C32	C	-0.123533	-0.018589	0.000075
C33	C	-0.137680	-0.122434	0.000061
C34	C	-0.078281	-0.123146	0.000062
C35	C	-0.041509	-0.071578	0.000074
C36	C	0.408784	-0.128974	0.000042
C37	C	0.468186	-0.129680	0.000034
C38	C	0.482329	-0.025836	0.000051
C39	C	0.422932	-0.025129	0.000055
C40	C	0.386160	-0.076702	0.000052
O41	O	0.334974	0.020119	0.000052
O42	O	0.308755	-0.172007	0.000054
C43	C	0.677071	0.030013	0.000072
C44	C	0.676305	0.093230	0.000076
C45	C	0.776472	-0.069388	0.000069
C46	C	0.839689	-0.070154	0.000071
C47	C	0.667577	-0.178283	0.000045
C48	C	0.668343	-0.241500	0.000036
N49	N	0.672304	-0.074155	0.153314
C50	C	0.723539	0.492333	0.000049
C51	C	0.722827	0.551733	0.000044
O52	O	0.766613	0.588478	0.000027
N53	N	0.670551	0.574359	0.000039
C54	C	0.618983	0.537582	0.000032
O55	O	0.574452	0.562281	0.000027
C56	C	0.619695	0.478182	0.000033
C57	C	0.671974	0.455560	0.000044
C58	C	0.775814	0.469710	0.000060
C59	C	0.776525	0.410313	0.000065
C60	C	0.724961	0.373540	0.000060
C61	C	0.672685	0.396164	0.000050
C62	C	0.568127	0.441406	0.000022
C63	C	0.568844	0.382004	0.000021
C64	C	0.621123	0.359381	0.000033
C65	C	0.621832	0.299995	0.000050
N66	N	0.674109	0.277368	0.000056
C67	C	0.725673	0.314141	0.000061
C68	C	0.617491	0.662324	0.000031
C69	C	0.616778	0.721722	0.000034
C70	C	0.720623	0.735869	0.000045
C71	C	0.721335	0.676470	0.000046
C72	C	0.669767	0.639698	0.000036
C73	C	0.727163	0.189405	0.000073
C74	C	0.727869	0.130003	0.000081
C75	C	0.624025	0.115860	0.000067
C76	C	0.623318	0.175257	0.000062
C77	C	0.674891	0.212029	0.000063
O78	O	0.578070	0.263215	0.000065
O79	O	0.770196	0.289433	0.000058
N80	N	0.672349	-0.074111	-0.153196
C81	C	0.711273	-0.035196	0.561965
C82	C	0.711276	-0.035192	0.623884
O83	O	0.744384	-0.002076	0.655911
N84	N	0.672334	-0.074115	0.654851
C85	C	0.633383	-0.113041	0.623895
O86	O	0.600259	-0.146147	0.655920
C87	C	0.633377	-0.113042	0.561976
C88	C	0.672326	-0.074120	0.531013
C89	C	0.750218	0.003724	0.531001
C90	C	0.750215	0.003719	0.469085
C91	C	0.711268	-0.035206	0.438133
C92	C	0.672323	-0.074125	0.469097
C93	C	0.594424	-0.151965	0.531021
C94	C	0.594422	-0.151962	0.469098
C95	C	0.633370	-0.113040	0.438134
C96	C	0.633374	-0.113054	0.376229
N97	N	0.672316	-0.074131	0.345262
C98	C	0.711263	-0.035207	0.376214
C99	C	0.633396	-0.113035	0.753928
C100	C	0.633403	-0.113037	0.815846
C101	C	0.711296	-0.035187	0.815831
C102	C	0.711291	-0.035188	0.753913
C103	C	0.672338	-0.074112	0.722962
C104	C	0.711255	-0.035220	0.246187
C105	C	0.711251	-0.035230	0.184266
C106	C	0.633357	-0.113078	0.184286
C107	C	0.633363	-0.113071	0.246202
C108	C	0.672314	-0.074137	0.277151
O109	O	0.600281	-0.146152	0.344163
O110	O	0.744376	-0.002101	0.344182
H111	H	0.486602	-0.172255	0.000024
O112	O	0.772105	0.654470	0.000156
C113	C	0.833163	0.595598	0.051102
C114	C	0.775650	0.620481	0.051060
H115	H	0.836042	0.568103	0.092247
H116	H	0.869914	0.632068	0.051145
H117	H	0.836094	0.568170	0.009915
H118	H	0.772663	0.647902	0.092241
H119	H	0.738926	0.583984	0.050987
O120	O	0.825870	0.505484	0.000144
C121	C	0.885352	0.580723	0.051137
C122	C	0.828632	0.540256	0.051103
H123	H	0.887609	0.608838	0.092340
H124	H	0.887637	0.608928	0.009999
H125	H	0.922822	0.554329	0.051115
H126	H	0.791130	0.566604	0.051146
H127	H	0.826397	0.512049	0.092238
H128	H	0.781933	0.035423	0.556197
O129	O	0.518033	0.024266	-0.000047
C130	C	0.548296	0.112826	-0.050971
C131	C	0.507835	0.056102	-0.050946
H132	H	0.540057	0.138587	-0.092112
H133	H	0.594645	0.103364	-0.051012
H134	H	0.540112	0.138539	-0.009779
H135	H	0.515968	0.030361	-0.092131
H136	H	0.461499	0.065604	-0.050874
O137	O	0.251824	0.079493	0.000076
C138	C	0.259582	0.182567	0.000128
C139	C	0.219158	0.125819	0.000138
H140	H	0.233188	0.220037	0.000191
H141	H	0.287734	0.184878	-0.041051
H142	H	0.287757	0.184794	0.041284
H143	H	0.190947	0.123554	-0.040990
H144	H	0.191045	0.123532	0.041344
O145	O	0.400923	0.025639	-0.000042
C146	C	0.342039	0.086702	-0.050963
C147	C	0.366931	0.029194	-0.050941
H148	H	0.314540	0.089590	-0.092104
H149	H	0.378503	0.123458	-0.050999
H150	H	0.314611	0.089616	-0.009771
H151	H	0.394351	0.026224	-0.092126
H152	H	0.330439	-0.007535	-0.050874
O153	O	0.572571	0.197306	-0.000023
C154	C	0.511496	0.256121	-0.051023
C155	C	0.568992	0.231205	-0.050987
H156	H	0.508578	0.283525	-0.092230
H157	H	0.508551	0.283621	-0.009889
H158	H	0.474773	0.219625	-0.050994
H159	H	0.605748	0.267665	-0.051037
H160	H	0.571887	0.203691	-0.092117
H161	H	0.574207	0.740136	0.000035
H162	H	0.770443	0.111587	0.000092
H163	H	0.601677	-0.144736	0.728731
H164	H	0.743005	-0.003494	0.728706
H165	H	0.582043	0.085909	0.000065
H166	H	-0.167632	-0.164421	0.000059
O167	O	0.567357	0.626663	-0.000049
C168	C	0.478837	0.596381	-0.051034
C169	C	0.535585	0.636804	-0.051009
H170	H	0.453139	0.604558	-0.092237
H171	H	0.453051	0.604582	-0.009896
H172	H	0.488331	0.550043	-0.051003
H173	H	0.526143	0.683157	-0.051061
H174	H	0.561355	0.628554	-0.092143
O175	O	0.595581	-0.150965	0.154239
C176	C	0.561611	-0.250160	0.135311
C177	C	0.604436	-0.207321	0.169368
H178	H	0.568747	-0.295733	0.147540
H179	H	0.568301	-0.243520	0.085731
H180	H	0.516047	-0.242935	0.147480
H181	H	0.650017	-0.214519	0.157248
H182	H	0.597696	-0.213971	0.218939
H183	H	0.743008	-0.003492	0.841044
O184	O	0.518712	0.346341	-0.000066
C185	C	0.430200	0.316051	-0.051061
C186	C	0.486945	0.356479	-0.051031
H187	H	0.404506	0.324225	-0.092268
H188	H	0.404408	0.324250	-0.009928
H189	H	0.439698	0.269714	-0.051028
H190	H	0.477499	0.402830	-0.051085
H191	H	0.512720	0.348230	-0.092161
H192	H	-0.059867	-0.165717	0.000055
H193	H	0.762610	0.765821	0.000047
O194	O	0.373151	-0.179124	0.000009
C195	C	0.365404	-0.282197	0.000018
C196	C	0.405823	-0.225446	0.000048
H197	H	0.391803	-0.319664	0.000062
H198	H	0.337254	-0.284496	-0.041159
H199	H	0.337227	-0.284443	0.041176
H200	H	0.434035	-0.223162	-0.041082
H201	H	0.433934	-0.223172	0.041252
O202	O	0.092682	-0.227667	0.000065
C203	C	-0.005089	-0.272614	0.000006
C204	C	0.035380	-0.215896	0.000011
H205	H	-0.051426	-0.263117	-0.000050
H206	H	0.003056	-0.298375	0.041176
H207	H	0.003148	-0.298344	-0.041158
H208	H	0.027167	-0.190120	0.041148
H209	H	0.027226	-0.190179	-0.041186
O210	O	0.595518	-0.150872	0.845829
C211	C	0.518281	-0.228110	0.839291
C212	C	0.561151	-0.185287	0.805265
H213	H	0.490493	-0.255954	0.806510
H214	H	0.489931	-0.203695	0.868264
H215	H	0.542716	-0.256412	0.868296
H216	H	0.536764	-0.156974	0.776229
H217	H	0.589501	-0.209737	0.776330
O218	O	0.749117	0.002520	0.276309
C219	C	0.827000	0.015049	0.346167
C220	C	0.784142	-0.027751	0.312103
H221	H	0.855337	-0.009409	0.375105
H222	H	0.802615	0.043377	0.375196
H223	H	0.854805	0.042871	0.313379
H224	H	0.756327	-0.055611	0.344848
H225	H	0.808563	-0.056039	0.283065
O226	O	-0.145410	0.032245	0.000106
C227	C	-0.125092	0.135169	0.000083
C228	C	-0.100244	0.077637	0.000058
H229	H	-0.088588	0.171883	0.000032
H230	H	-0.152526	0.138136	0.041262
H231	H	-0.152567	0.138075	-0.041072
H232	H	-0.072744	0.074692	0.041185
H233	H	-0.072843	0.074695	-0.041149
H234	H	0.819097	0.391900	0.000072
H235	H	0.781929	0.035414	0.443878
H236	H	0.525555	0.459814	0.000009
O237	O	0.556639	-0.189854	0.439060
C238	C	0.522675	-0.289055	0.420158
C239	C	0.565501	-0.246205	0.454200
H240	H	0.529817	-0.334624	0.432396
H241	H	0.529358	-0.282426	0.370576
H242	H	0.477111	-0.281832	0.432330
H243	H	0.611082	-0.253403	0.442077
H244	H	0.558768	-0.252845	0.503774
H245	H	-0.034198	0.022693	0.000084
H246	H	0.206289	-0.220908	0.000035
O247	O	0.134791	0.080834	0.000003
C248	C	0.075932	0.141920	-0.050921
C249	C	0.100807	0.084402	-0.050900
H250	H	0.048441	0.144819	-0.092065
H251	H	0.112406	0.178667	-0.050951
H252	H	0.048502	0.144838	-0.009733
H253	H	0.128231	0.081428	-0.092082
H254	H	0.064306	0.047683	-0.050840
H255	H	0.769159	0.219337	0.000071
H256	H	0.742969	-0.003535	0.159057
O257	O	0.556508	-0.189717	0.561061
C258	C	0.457289	-0.223605	0.579966
C259	C	0.500170	-0.180808	0.545922
H260	H	0.411731	-0.216425	0.567728
H261	H	0.463922	-0.216928	0.629547
H262	H	0.464475	-0.269179	0.567793
H263	H	0.493010	-0.135217	0.558045
H264	H	0.493527	-0.187535	0.496348
H265	H	0.601653	-0.144770	0.271413
