data_functionalizedCrystal
_audit_creation_method	'MofGen! by Chris Wilmer'
_symmetry_space_group_name_H-M	'P1'
_symmetry_Int_Tables_number	1
_symmetry_cell_setting	triclinic
loop_
_symmetry_equiv_pos_as_xyz
  x,y,z
_cell_length_a	29.839135
_cell_length_b	18.215405
_cell_length_c	18.215399
_cell_angle_alpha	90.030551
_cell_angle_beta	90.022923
_cell_angle_gamma	90.027415
loop_
_atom_site_label
_atom_site_type_symbol
_atom_site_fract_x
_atom_site_fract_y
_atom_site_fract_z
Zn1	Zn	0.686804	-0.292942	0.416163
Zn2	Zn	1.020138	0.040391	0.749497
Zn3	Zn	1.353471	0.373725	1.082830
Zn4	Zn	0.686748	-0.416013	0.293091
Zn5	Zn	1.020082	-0.082680	0.626425
Zn6	Zn	1.353415	0.250653	0.959758
Zn7	Zn	0.611677	-0.292971	0.293104
Zn8	Zn	0.945011	0.040363	0.626437
Zn9	Zn	1.278344	0.373696	0.959771
Zn10	Zn	0.611656	-0.415977	0.416110
Zn11	Zn	0.944990	-0.082644	0.749443
Zn12	Zn	1.278323	0.250690	1.082776
O13	O	0.649222	-0.354476	0.354617
O14	O	0.982555	-0.021142	0.687950
O15	O	1.315888	0.312191	1.021284
O16	O	0.749664	-0.309271	0.399855
O17	O	1.082997	0.024062	0.733188
O18	O	1.416331	0.357396	1.066521
O19	O	0.676775	-0.399719	0.190109
O20	O	1.010109	-0.066385	0.523442
O21	O	1.343442	0.266948	0.856775
O22	O	0.621675	-0.189983	0.309456
O23	O	0.955008	0.143351	0.642789
O24	O	1.288342	0.476684	0.976122
O25	O	0.749623	-0.399691	0.309434
O26	O	1.082956	-0.066358	0.642768
O27	O	1.416290	0.266976	0.976101
O28	O	0.676871	-0.189962	0.399867
O29	O	1.010204	0.143372	0.733200
O30	O	1.343537	0.476705	1.066534
O31	O	0.621621	-0.309320	0.190118
O32	O	0.954954	0.024014	0.523451
O33	O	1.288288	0.357347	0.856785
O34	O	0.548807	-0.309284	0.309404
O35	O	0.882141	0.024049	0.642737
O36	O	1.215474	0.357382	0.976070
O37	O	0.621640	-0.399629	0.519101
O38	O	0.954973	-0.066296	0.852434
O39	O	1.288306	0.267038	1.185768
O40	O	0.548792	-0.399657	0.399776
O41	O	0.882125	-0.066323	0.733109
O42	O	1.215459	0.267010	1.066442
O43	O	0.676850	-0.309236	0.519140
O44	O	1.010184	0.024098	0.852474
O45	O	1.343517	0.357431	1.185807
O46	O	0.676755	-0.518993	0.309382
O47	O	1.010088	-0.185659	0.642716
O48	O	1.343422	0.147674	0.976049
O49	O	0.621585	-0.518966	0.399763
O50	O	0.954919	-0.185633	0.733097
O51	O	1.288252	0.147701	1.066430
C52	C	0.649174	-0.545682	0.354582
C53	C	0.982507	-0.212349	0.687915
C54	C	1.315841	0.120985	1.021248
C55	C	0.649195	-0.627481	0.354591
C56	C	0.982528	-0.294148	0.687924
C57	C	1.315862	0.039186	1.021258
C58	C	0.532499	-0.354470	0.354586
C59	C	0.865832	-0.021137	0.687919
C60	C	1.199166	0.312197	1.021252
C61	C	0.482565	-0.354485	0.354590
C62	C	0.815898	-0.021152	0.687923
C63	C	1.149231	0.312181	1.021256
C64	C	0.677989	-0.815664	0.307616
C65	C	1.011323	-0.482331	0.640950
C66	C	1.344656	-0.148998	0.974283
C67	C	0.678009	-0.892523	0.307634
C68	C	1.011343	-0.559190	0.640968
C69	C	1.344676	-0.225856	0.974301
C70	C	0.620511	-0.892535	0.401671
C71	C	0.953845	-0.559202	0.735004
C72	C	1.287178	-0.225868	1.068337
C73	C	0.620494	-0.815678	0.401656
C74	C	0.953827	-0.482344	0.734989
C75	C	1.287161	-0.149011	1.068323
C76	C	0.649232	-0.777244	0.354625
C77	C	0.982565	-0.443911	0.687958
C78	C	1.315899	-0.110578	1.021291
C79	C	0.649270	-0.930960	0.354657
C80	C	0.982603	-0.597627	0.687990
C81	C	1.315936	-0.264294	1.021324
C82	C	0.649291	-1.014294	0.354677
C83	C	0.982625	-0.680961	0.688010
C84	C	1.315958	-0.347627	1.021343
C85	C	0.649211	-0.693905	0.354606
C86	C	0.982545	-0.360572	0.687939
C87	C	1.315878	-0.027239	1.021272
C88	C	0.172940	-0.307465	0.401768
C89	C	0.506273	0.025868	0.735102
C90	C	0.839606	0.359201	1.068435
C91	C	-0.014733	-0.307470	0.401789
C92	C	0.318600	0.025863	0.735123
C93	C	0.651933	0.359196	1.068456
O94	O	-0.038983	-0.267476	0.441867
O95	O	0.294351	0.065858	0.775201
O96	O	0.627684	0.399191	1.108534
N97	N	-0.038221	-0.354477	0.354644
N98	N	0.295113	-0.021143	0.687977
N99	N	0.628446	0.312190	1.021311
C100	C	-0.014786	-0.401481	0.307487
C101	C	0.318547	-0.068148	0.640820
C102	C	0.651880	0.265185	0.974154
O103	O	-0.039070	-0.441458	0.267382
O104	O	0.294263	-0.108124	0.600715
O105	O	0.627597	0.225209	0.934049
C106	C	0.172886	-0.401472	0.307463
C107	C	0.506219	-0.068139	0.640796
C108	C	0.839552	0.265195	0.974129
C109	C	0.196370	-0.354468	0.354616
C110	C	0.529704	-0.021135	0.687950
C111	C	0.863037	0.312199	1.021283
C112	C	0.196424	-0.260465	0.448917
C113	C	0.529758	0.072869	0.782251
C114	C	0.863091	0.406202	1.115584
C115	C	0.243340	-0.260467	0.448915
C116	C	0.576673	0.072866	0.782248
C117	C	0.910006	0.406200	1.115581
C118	C	0.266771	-0.307470	0.401763
C119	C	0.600104	0.025864	0.735096
C120	C	0.933437	0.359197	1.068429
C121	C	0.243286	-0.354470	0.354613
C122	C	0.576619	-0.021137	0.687947
C123	C	0.909953	0.312197	1.021280
C124	C	0.196319	-0.448472	0.260302
C125	C	0.529652	-0.115139	0.593636
C126	C	0.862986	0.218194	0.926969
C127	C	0.243240	-0.448465	0.260299
C128	C	0.576573	-0.115131	0.593633
C129	C	0.909907	0.218202	0.926966
C130	C	0.266725	-0.401461	0.307453
C131	C	0.600058	-0.068127	0.640786
C132	C	0.933391	0.265206	0.974119
C133	C	0.313632	-0.401475	0.307459
C134	C	0.646965	-0.068141	0.640792
C135	C	0.980299	0.265192	0.974125
N136	N	0.337119	-0.354469	0.354604
N137	N	0.670452	-0.021135	0.687937
N138	N	1.003786	0.312198	1.021270
C139	C	0.313688	-0.307466	0.401756
C140	C	0.647022	0.025867	0.735089
C141	C	0.980355	0.359201	1.068422
C142	C	-0.113317	-0.401484	0.307504
C143	C	0.220016	-0.068151	0.640837
C144	C	0.553350	0.265183	0.974171
C145	C	-0.160235	-0.401487	0.307511
C146	C	0.173098	-0.068154	0.640844
C147	C	0.506432	0.265179	0.974177
C148	C	-0.160179	-0.307475	0.401812
C149	C	0.173155	0.025858	0.735146
C150	C	0.506488	0.359191	1.068479
C151	C	-0.113260	-0.307476	0.401809
C152	C	0.220073	0.025857	0.735142
C153	C	0.553407	0.359190	1.068475
C154	C	-0.089830	-0.354478	0.354649
C155	C	0.243503	-0.021144	0.687982
C156	C	0.576837	0.312189	1.021316
C157	C	0.412214	-0.307474	0.401747
C158	C	0.745548	0.025859	0.735080
C159	C	1.078881	0.359192	1.068413
C160	C	0.459134	-0.307483	0.401742
C161	C	0.792467	0.025851	0.735075
C162	C	1.125800	0.359184	1.068408
C163	C	0.459073	-0.401492	0.307438
C164	C	0.792407	-0.068158	0.640771
C165	C	1.125740	0.265175	0.974104
C166	C	0.412158	-0.401486	0.307445
C167	C	0.745491	-0.068153	0.640778
C168	C	1.078825	0.265180	0.974112
C169	C	0.388729	-0.354472	0.354602
C170	C	0.722063	-0.021138	0.687935
C171	C	1.055396	0.312195	1.021269
O172	O	0.337910	-0.441443	0.267396
O173	O	0.671243	-0.108109	0.600729
O174	O	1.004577	0.225224	0.934062
O175	O	0.337980	-0.267484	0.441843
O176	O	0.671313	0.065849	0.775176
O177	O	1.004647	0.399182	1.108510
C178	C	0.126024	-0.307463	0.401771
C179	C	0.459357	0.025870	0.735105
C180	C	0.792691	0.359203	1.068438
C181	C	0.102539	-0.354464	0.354622
C182	C	0.435873	-0.021131	0.687955
C183	C	0.769206	0.312203	1.021289
C184	C	0.125970	-0.401467	0.307470
C185	C	0.459304	-0.068133	0.640803
C186	C	0.792637	0.265200	0.974137
C187	C	0.055622	-0.354467	0.354629
C188	C	0.388955	-0.021134	0.687962
C189	C	0.722288	0.312199	1.021296
C190	C	0.032191	-0.307465	0.401781
C191	C	0.365524	0.025869	0.735114
C192	C	0.698858	0.359202	1.068448
C193	C	0.055678	-0.260459	0.448926
C194	C	0.389011	0.072875	0.782259
C195	C	0.722345	0.406208	1.115593
C196	C	0.102593	-0.260461	0.448923
C197	C	0.435927	0.072873	0.782257
C198	C	0.769260	0.406206	1.115590
C199	C	0.102483	-0.448473	0.260325
C200	C	0.435817	-0.115139	0.593658
C201	C	0.769150	0.218194	0.926992
C202	C	0.055568	-0.448467	0.260332
C203	C	0.388901	-0.115134	0.593666
C204	C	0.722234	0.218199	0.926999
C205	C	0.032137	-0.401465	0.307484
C206	C	0.365470	-0.068131	0.640818
C207	C	0.698804	0.265202	0.974151
C208	C	0.766400	-0.354482	0.354649
C209	C	1.099733	-0.021149	0.687982
C210	C	1.433067	0.312185	1.021316
C211	C	0.816334	-0.354485	0.354663
C212	C	1.149668	-0.021151	0.687996
C213	C	1.483001	0.312182	1.021329
C214	C	0.649249	-0.354425	0.546570
C215	C	0.982582	-0.021092	0.879903
C216	C	1.315916	0.312242	1.213237
C217	C	0.649261	-0.354403	0.628369
C218	C	0.982594	-0.021070	0.961702
C219	C	1.315927	0.312263	1.295036
C220	C	0.649281	-0.162523	0.354669
C221	C	0.982615	0.170811	0.688002
C222	C	1.315948	0.504144	1.021335
C223	C	0.649307	-0.080724	0.354691
C224	C	0.982640	0.252609	0.688024
C225	C	1.315974	0.585943	1.021357
C226	C	0.649220	-0.354473	0.163411
C227	C	0.982553	-0.021140	0.496744
C228	C	1.315887	0.312193	0.830077
C229	C	0.649296	-0.354288	0.081612
C230	C	0.982629	-0.020954	0.414946
C231	C	1.315962	0.312379	0.748279
C232	C	0.678019	-0.307292	0.816585
C233	C	1.011353	0.026042	1.149918
C234	C	1.344686	0.359375	1.483251
C235	C	0.678025	-0.307270	0.893444
C236	C	1.011358	0.026063	1.226777
C237	C	1.344691	0.359396	1.560110
C238	C	0.620534	-0.401401	0.893391
C239	C	0.953867	-0.068068	1.226725
C240	C	1.287200	0.265265	1.560058
C241	C	0.620527	-0.401418	0.816534
C242	C	0.953860	-0.068085	1.149867
C243	C	1.287193	0.265248	1.483201
C244	C	0.649272	-0.354365	0.778133
C245	C	0.982605	-0.021031	1.111466
C246	C	1.315938	0.312302	1.444799
C247	C	0.649284	-0.354326	0.931849
C248	C	0.982618	-0.020993	1.265182
C249	C	1.315951	0.312341	1.598515
C250	C	0.649290	-0.354303	1.015182
C251	C	0.982623	-0.020970	1.348516
C252	C	1.315957	0.312363	1.681849
C253	C	0.649266	-0.354386	0.694794
C254	C	0.982599	-0.021053	1.028127
C255	C	1.315932	0.312280	1.361460
H256	H	0.701390	-0.784374	0.269322
H257	H	1.034724	-0.451040	0.602655
H258	H	1.368057	-0.117707	0.935988
H259	H	0.177352	-0.222186	0.487314
H260	H	0.510685	0.111148	0.820648
H261	H	0.844019	0.444481	1.153981
H262	H	-0.179264	-0.269204	0.440206
H263	H	0.154069	0.064129	0.773539
H264	H	0.487403	0.397462	1.106872
H265	H	0.597076	-0.784394	0.439939
H266	H	0.930410	-0.451061	0.773273
H267	H	1.263743	-0.117727	1.106606
C268	C	0.484851	-0.453196	0.255577
C269	C	0.818185	-0.119862	0.588910
C270	C	1.151518	0.213471	0.922244
H271	H	0.464147	-0.481197	0.227498
H272	H	0.797481	-0.147863	0.560832
H273	H	1.130814	0.185470	0.894165
H274	H	0.503155	-0.425002	0.223565
H275	H	0.836488	-0.091669	0.556898
H276	H	1.169822	0.241665	0.890232
H277	H	0.503151	-0.485298	0.283678
H278	H	0.836484	-0.151965	0.617011
H279	H	1.169817	0.181369	0.950344
C280	C	0.128251	-0.500183	0.208459
C281	C	0.461584	-0.166849	0.541792
C282	C	0.794918	0.166484	0.875126
H283	H	0.107540	-0.528178	0.180389
H284	H	0.440873	-0.194844	0.513723
H285	H	0.774206	0.138489	0.847056
H286	H	0.146555	-0.471999	0.176439
H287	H	0.479888	-0.138666	0.509772
H288	H	0.813222	0.194668	0.843106
H289	H	0.146549	-0.532290	0.236557
H290	H	0.479882	-0.198956	0.569890
H291	H	0.813215	0.134377	0.903224
H292	H	0.701427	-0.923801	0.269356
H293	H	1.034760	-0.590468	0.602690
H294	H	1.368094	-0.257135	0.936023
H295	H	0.597113	-0.923837	0.439961
H296	H	0.930446	-0.590504	0.773294
H297	H	1.263780	-0.257170	1.106627
H298	H	0.262457	-0.222190	0.487311
H299	H	0.595790	0.111143	0.820644
H300	H	0.929123	0.444476	1.153977
H301	H	0.478253	-0.269206	0.440142
H302	H	0.811586	0.064128	0.773476
H303	H	1.144920	0.397461	1.106809
C304	C	0.588921	-0.453163	0.935635
C305	C	0.922254	-0.119829	1.268968
C306	C	1.255587	0.213504	1.602302
H307	H	0.593045	-0.446417	0.986916
H308	H	0.926379	-0.113083	1.320249
H309	H	1.259712	0.220250	1.653583
H310	H	0.558737	-0.442398	0.923032
H311	H	0.892071	-0.109065	1.256366
H312	H	1.225404	0.224268	1.589699
H313	H	0.595484	-0.502614	0.923024
H314	H	0.928818	-0.169281	1.256358
H315	H	1.262151	0.164053	1.589691
H316	H	0.393144	-0.269188	0.440144
H317	H	0.726478	0.064145	0.773477
H318	H	1.059811	0.397478	1.106811
H319	H	-0.094142	-0.269200	0.440204
H320	H	0.239191	0.064133	0.773537
H321	H	0.572525	0.397467	1.106870
H322	H	0.597114	-0.439750	0.785225
H323	H	0.930447	-0.106417	1.118559
H324	H	1.263780	0.226916	1.451892
H325	H	-0.179352	-0.439771	0.269122
H326	H	0.153981	-0.106437	0.602455
H327	H	0.487315	0.226896	0.935788
H328	H	-0.094245	-0.439761	0.269099
H329	H	0.239089	-0.106427	0.602432
H330	H	0.572422	0.226906	0.935766
C331	C	0.269010	-0.500174	0.208429
C332	C	0.602344	-0.166841	0.541762
C333	C	0.935677	0.166492	0.875096
H334	H	0.248301	-0.528170	0.180356
H335	H	0.581635	-0.194837	0.513689
H336	H	0.914968	0.138497	0.847022
H337	H	0.287315	-0.471987	0.176412
H338	H	0.620648	-0.138654	0.509745
H339	H	0.953981	0.194679	0.843079
H340	H	0.287308	-0.532281	0.236527
H341	H	0.620642	-0.198948	0.569860
H342	H	0.953975	0.134386	0.903194
H343	H	0.177206	-0.486747	0.221904
H344	H	0.510539	-0.153414	0.555237
H345	H	0.843872	0.179919	0.888571
C346	C	0.709649	-0.255493	0.935738
C347	C	1.042982	0.077840	1.269071
C348	C	1.376315	0.411173	1.602405
H349	H	0.726768	-0.227478	0.901857
H350	H	1.060102	0.105855	1.235191
H351	H	1.393435	0.439188	1.568524
H352	H	0.692478	-0.223419	0.965723
H353	H	1.025811	0.109915	1.299056
H354	H	1.359144	0.443248	1.632389
H355	H	0.729219	-0.283644	0.965719
H356	H	1.062552	0.049689	1.299052
H357	H	1.395885	0.383022	1.632385
C358	C	0.128421	-0.208751	0.500787
C359	C	0.461754	0.124583	0.834120
C360	C	0.795087	0.457916	1.167454
H361	H	0.107741	-0.180757	0.528861
H362	H	0.441074	0.152577	0.862194
H363	H	0.774408	0.485910	1.195528
H364	H	0.146725	-0.236936	0.532804
H365	H	0.480059	0.096397	0.866137
H366	H	0.813392	0.429730	1.199470
H367	H	0.146722	-0.176643	0.472689
H368	H	0.480056	0.156691	0.806022
H369	H	0.813389	0.490024	1.139355
C370	C	0.386324	-0.453194	0.255583
C371	C	0.719657	-0.119861	0.588917
C372	C	1.052991	0.213472	0.922250
H373	H	0.407000	-0.481186	0.227500
H374	H	0.740333	-0.147852	0.560833
H375	H	1.073667	0.185481	0.894167
H376	H	0.368016	-0.485294	0.283674
H377	H	0.701350	-0.151960	0.617008
H378	H	1.034683	0.181373	0.950341
H379	H	0.368024	-0.424995	0.223565
H380	H	0.701358	-0.091662	0.556898
H381	H	1.034691	0.241672	0.890231
C382	C	0.029898	-0.208755	0.500790
C383	C	0.363231	0.124578	0.834123
C384	C	0.696565	0.457911	1.167457
H385	H	-0.001407	-0.215488	0.494029
H386	H	0.331926	0.117846	0.827363
H387	H	0.665260	0.451179	1.160696
H388	H	0.037594	-0.219583	0.550219
H389	H	0.370927	0.113751	0.883552
H390	H	0.704261	0.447084	1.216886
H391	H	0.037597	-0.159292	0.490102
H392	H	0.370930	0.174042	0.823435
H393	H	0.704263	0.507375	1.156768
H394	H	0.036450	-0.486751	0.221935
H395	H	0.369784	-0.153417	0.555269
H396	H	0.703117	0.179916	0.888602
H397	H	0.701424	-0.268975	0.785321
H398	H	1.034758	0.064358	1.118654
H399	H	1.368091	0.397691	1.451987
