data_functionalizedCrystal
_audit_creation_method	'MofGen! by Chris Wilmer'
_symmetry_space_group_name_H-M	'P1'
_symmetry_Int_Tables_number	1
_symmetry_cell_setting	triclinic
loop_
_symmetry_equiv_pos_as_xyz
  x,y,z
_cell_length_a	10.654550
_cell_length_b	14.971494
_cell_length_c	9.130313
_cell_angle_alpha	89.997198
_cell_angle_beta	89.999724
_cell_angle_gamma	84.051244
loop_
_atom_site_label
_atom_site_type_symbol
_atom_site_fract_x
_atom_site_fract_y
_atom_site_fract_z
O1	O	1.666497	0.125631	-0.121684
O2	O	1.300891	0.137600	-0.121710
O3	O	1.493488	0.001469	-0.121693
O4	O	1.473900	0.261762	-0.121701
O5	O	1.493474	0.001465	0.121906
O6	O	1.300877	0.137596	0.121889
O7	O	1.666484	0.125627	0.121915
Cu8	Cu	1.483679	0.131611	0.144144
Cu9	Cu	1.483695	0.131616	-0.143940
O10	O	1.473887	0.261758	0.121898
C11	C	1.254095	0.136719	0.000086
C12	C	1.114680	0.134090	0.000076
C13	C	1.034338	0.214241	0.000077
C14	C	0.903344	0.211765	0.000103
C15	C	0.933047	0.048979	0.000119
C16	C	1.064038	0.051456	0.000104
C17	C	1.492603	-0.031862	0.000104
C18	C	1.489972	-0.131173	0.000097
C19	C	1.488747	-0.177823	-0.132691
C20	C	1.486267	-0.271135	-0.132693
C21	C	1.485022	-0.317798	0.000095
C22	C	1.486244	-0.271141	0.132892
C23	C	1.488715	-0.177830	0.132893
C24	C	1.481097	-0.465633	0.132882
C25	C	1.478628	-0.558951	0.132882
C26	C	1.478649	-0.558938	-0.132703
C27	C	1.481120	-0.465626	-0.132703
C28	C	1.482344	-0.418977	0.000096
C29	C	1.713279	0.126507	0.000116
C30	C	1.852694	0.129137	0.000116
C31	C	1.474771	0.295089	0.000097
C32	C	1.477402	0.394400	0.000095
N33	N	1.483678	0.131607	0.346767
N34	N	1.483707	0.131612	-0.346562
C35	C	1.568988	0.071354	0.423426
C36	C	1.569000	0.071354	0.576763
C37	C	1.398387	0.191868	0.576768
C38	C	1.398370	0.191863	0.423434
H39	H	1.075566	0.281527	0.000065
O40	O	1.484868	-0.316552	0.261788
C41	C	1.374748	-0.361060	0.269747
H42	H	1.338148	-0.371883	0.154453
H43	H	1.299595	-0.318484	0.335278
C44	C	1.450375	-0.439279	0.487268
C45	C	1.405428	-0.452579	0.345661
H46	H	1.469296	-0.495730	0.534101
H47	H	1.524563	-0.409290	0.481911
H48	H	1.387740	-0.403796	0.541859
H49	H	1.468068	-0.488051	0.291068
H50	H	1.331251	-0.482575	0.351011
H51	H	1.638449	0.022288	0.361008
O52	O	1.482453	-0.420238	0.261794
C53	C	1.592575	-0.375735	0.269779
H54	H	1.629186	-0.364896	0.154492
H55	H	1.667720	-0.418323	0.335309
C56	C	1.516934	-0.297547	0.487310
C57	C	1.561895	-0.284228	0.345712
H58	H	1.498012	-0.241103	0.534155
H59	H	1.442744	-0.327532	0.481935
H60	H	1.579563	-0.333040	0.541900
H61	H	1.499260	-0.248745	0.291120
H62	H	1.636073	-0.254235	0.351080
H63	H	0.837934	0.277033	0.000107
O64	O	0.883641	-0.031211	0.000069
C65	C	0.750796	-0.016212	0.000116
H66	H	0.720138	0.053399	-0.046006
H67	H	0.714334	-0.020773	0.116986
C68	C	0.734004	-0.173197	-0.038757
C69	C	0.696350	-0.087703	-0.095416
H70	H	0.700417	-0.217298	-0.097679
H71	H	0.823504	-0.183304	-0.038783
H72	H	0.703616	-0.176986	0.058634
H73	H	0.726751	-0.083912	-0.192798
H74	H	0.606853	-0.077597	-0.095409
O75	O	1.141913	-0.026492	0.000035
C76	C	1.069129	-0.099958	0.000087
H77	H	0.971395	-0.077868	-0.046025
H78	H	1.059773	-0.125247	0.116958
C79	C	1.254322	-0.203020	-0.038803
C80	C	1.134287	-0.175890	-0.095451
H81	H	1.294516	-0.249860	-0.097729
H82	H	1.303359	-0.153525	-0.038832
H83	H	1.246509	-0.224087	0.058589
H84	H	1.142103	-0.154812	-0.192833
H85	H	1.085252	-0.225382	-0.095440
H86	H	1.328933	0.240929	0.639205
O87	O	1.489897	-0.132632	-0.261813
C88	C	1.488313	-0.193823	-0.379014
H89	H	1.446822	-0.256883	-0.340085
H90	H	1.588724	-0.212505	-0.419838
C91	C	1.457950	-0.072793	-0.552291
C92	C	1.406980	-0.150242	-0.504481
H93	H	1.407785	-0.045910	-0.629689
H94	H	1.459022	-0.031567	-0.473332
H95	H	1.541625	-0.088372	-0.586301
H96	H	1.323313	-0.134660	-0.470455
H97	H	1.405892	-0.191464	-0.583437
H98	H	1.328894	0.240929	0.361013
H99	H	1.485274	-0.309113	-0.240821
O100	O	1.477235	-0.604261	-0.261675
C101	C	1.367142	-0.648799	-0.269646
H102	H	1.291913	-0.614079	-0.194301
H103	H	1.389834	-0.721660	-0.233986
C104	C	1.410251	-0.688569	-0.520845
C105	C	1.317849	-0.645921	-0.428314
H106	H	1.379846	-0.686798	-0.618719
H107	H	1.484425	-0.658567	-0.515474
H108	H	1.429152	-0.749283	-0.491110
H109	H	1.298961	-0.585206	-0.458039
H110	H	1.243670	-0.675913	-0.433694
H111	H	1.482143	-0.427637	-0.240830
H112	H	1.477604	-0.596940	0.241009
H113	H	1.489695	-0.139848	0.241022
H114	H	1.638466	0.022289	0.639175
