data_functionalizedCrystal
_audit_creation_method	'MofGen! by Chris Wilmer'
_symmetry_space_group_name_H-M	'P1'
_symmetry_Int_Tables_number	1
_symmetry_cell_setting	triclinic
loop_
_symmetry_equiv_pos_as_xyz
  x,y,z
_cell_length_a	19.288856
_cell_length_b	13.101039
_cell_length_c	19.288865
_cell_angle_alpha	93.345409
_cell_angle_beta	83.134504
_cell_angle_gamma	86.652199
loop_
_atom_site_label
_atom_site_type_symbol
_atom_site_fract_x
_atom_site_fract_y
_atom_site_fract_z
O1	O	-0.925188	0.085273	-0.082771
O2	O	-0.425188	0.585273	0.417229
O3	O	-0.722926	0.085266	-0.094466
O4	O	-0.222926	0.585266	0.405534
O5	O	-0.829900	0.085249	0.012511
O6	O	-0.329900	0.585249	0.512511
O7	O	-0.818213	0.085290	-0.189748
O8	O	-0.318213	0.585290	0.310252
O9	O	-0.822225	-0.085179	0.004823
O10	O	-0.322225	0.414821	0.504823
O11	O	-0.715251	-0.085163	-0.102154
O12	O	-0.215251	0.414837	0.397846
O13	O	-0.917512	-0.085156	-0.090459
O14	O	-0.417512	0.414844	0.409541
Zn15	Zn	-0.815163	-0.112218	-0.097528
Zn16	Zn	-0.315163	0.387782	0.402472
Zn17	Zn	-0.825275	0.112329	-0.087398
Zn18	Zn	-0.325275	0.612329	0.412602
O19	O	-0.810538	-0.085139	-0.197436
O20	O	-0.310538	0.414861	0.302564
C21	C	-0.693212	0.000051	-0.097935
C22	C	-0.193212	0.500051	0.402065
C23	C	-0.616108	0.000047	-0.096809
C24	C	-0.116108	0.500047	0.403191
N25	N	-0.808266	-0.265466	-0.104440
N26	N	-0.308266	0.234534	0.395560
C27	C	-0.052066	0.000043	-0.151957
C28	C	0.447934	0.500043	0.348043
C29	C	-0.124513	0.000051	-0.153021
C30	C	0.375487	0.500051	0.346979
C31	C	-0.169219	0.000038	-0.090252
C32	C	0.330781	0.500038	0.409748
C33	C	-0.141474	0.000043	-0.026413
C34	C	0.358526	0.500043	0.473587
C35	C	-0.069029	0.000046	-0.025350
C36	C	0.430971	0.500046	0.474650
C37	C	-0.287800	-0.059680	-0.046132
C38	C	0.212200	0.440320	0.453868
C39	C	-0.360244	-0.059689	-0.047198
C40	C	0.139756	0.440311	0.452802
C41	C	-0.392665	0.000035	-0.093528
C42	C	0.107335	0.500035	0.406472
C43	C	-0.352632	0.059754	-0.138804
C44	C	0.147368	0.559754	0.361196
C45	C	-0.280187	0.059757	-0.137741
C46	C	0.219813	0.559757	0.362259
C47	C	-0.247775	0.000036	-0.091398
C48	C	0.252225	0.500036	0.408602
C49	C	-0.498957	0.000045	-0.158517
C50	C	0.001043	0.500045	0.341483
C51	C	-0.571406	0.000059	-0.159578
C52	C	-0.071406	0.500059	0.340422
C53	C	-0.588366	0.000041	-0.032969
C54	C	-0.088366	0.500041	0.467031
C55	C	-0.515919	0.000037	-0.031909
C56	C	-0.015919	0.500037	0.468091
C57	C	-0.471218	0.000034	-0.094685
C58	C	0.028782	0.500034	0.405315
C59	C	-0.798883	-0.474507	-0.113851
C60	C	-0.298883	0.025493	0.386149
C61	C	-0.841558	-0.525389	-0.071071
C62	C	-0.341558	-0.025389	0.428929
C63	C	-0.836337	-0.641707	-0.076307
C64	C	-0.336337	-0.141707	0.423693
C65	C	-0.804103	-0.358179	-0.108616
C66	C	-0.304103	0.141821	0.391384
C67	C	0.052774	0.000055	-0.086993
C68	C	0.552774	0.500055	0.413007
C69	C	-0.024329	0.000043	-0.088126
C70	C	0.475671	0.500043	0.411874
C71	C	-0.825686	0.000032	0.034543
C72	C	-0.325686	0.500032	0.534543
C73	C	-0.824557	0.000023	0.111646
C74	C	-0.324557	0.500023	0.611646
N75	N	-0.832177	0.265576	-0.080480
N76	N	-0.332177	0.765576	0.419520
C77	C	-0.814752	0.000081	-0.219469
C78	C	-0.314752	0.500081	0.280531
C79	C	-0.815882	0.000096	-0.296571
C80	C	-0.315882	0.500096	0.203429
C81	C	-0.887325	0.000020	0.156344
C82	C	-0.387325	0.500020	0.656344
C83	C	-0.886265	0.000036	0.228792
C84	C	-0.386265	0.500036	0.728792
C85	C	-0.822433	0.000035	0.256538
C86	C	-0.322433	0.500035	0.756538
C87	C	-0.759657	0.000043	0.211830
C88	C	-0.259657	0.500043	0.711830
C89	C	-0.760719	0.000038	0.139384
C90	C	-0.260719	0.500038	0.639384
C91	C	-0.769564	-0.059664	0.362130
C92	C	-0.269564	0.440336	0.862130
C93	C	-0.768504	-0.059665	0.434575
C94	C	-0.268504	0.440335	0.934575
C95	C	-0.819154	0.000057	0.479984
C96	C	-0.319154	0.500057	0.979984
C97	C	-0.870875	0.059767	0.452941
C98	C	-0.370875	0.559767	0.952941
C99	C	-0.871937	0.059761	0.380495
C100	C	-0.371937	0.559761	0.880495
C101	C	-0.821274	0.000042	0.335092
C102	C	-0.321274	0.500042	0.835092
C103	C	-0.880777	0.000074	0.603239
C104	C	-0.380777	0.500074	1.103239
C105	C	-0.879715	0.000096	0.675688
C106	C	-0.379715	0.500096	1.175688
C107	C	-0.753104	0.000093	0.658724
C108	C	-0.253104	0.500093	1.158724
C109	C	-0.754169	0.000081	0.586277
C110	C	-0.254169	0.500081	1.086277
C111	C	-0.818007	0.000066	0.558539
C112	C	-0.318007	0.500066	1.058539
H113	H	-0.147101	0.000042	-0.205002
H114	H	0.352899	0.500042	0.294998
H115	H	-0.932758	0.000066	0.580654
H116	H	-0.432758	0.500066	1.080654
H117	H	-0.046447	0.000046	0.026630
H118	H	0.453553	0.500046	0.526630
H119	H	-0.247596	0.108384	-0.174606
H120	H	0.252404	0.608384	0.325394
N121	N	-0.895157	-0.467392	-0.017351
N122	N	-0.395157	0.032608	0.482649
H123	H	-0.886412	-0.486005	0.031080
H124	H	-0.386412	0.013995	0.531080
H125	H	-0.891316	-0.391334	-0.021239
H126	H	-0.391316	0.108666	0.478761
N127	N	-0.450739	0.000063	-0.226219
N128	N	0.049261	0.500063	0.273781
H129	H	-0.417457	-0.063115	-0.231453
H130	H	0.082543	0.436885	0.268547
H131	H	-0.479357	0.000114	-0.266778
H132	H	0.020643	0.500114	0.233222
H133	H	-0.758431	-0.518298	-0.154408
H134	H	-0.258431	-0.018298	0.345592
H135	H	-0.728317	-0.108303	0.325163
H136	H	-0.228317	0.391697	0.825163
N137	N	-0.956176	0.000006	0.126427
N138	N	-0.456176	0.500006	0.626427
H139	H	-0.995779	0.000007	0.165741
H140	H	-0.495779	0.500007	0.665741
H141	H	-0.962223	0.063184	0.099581
H142	H	-0.462223	0.563184	0.599581
H143	H	-0.379028	0.108384	-0.176532
H144	H	0.120972	0.608384	0.323468
H145	H	-0.937380	0.000038	0.265192
H146	H	-0.437380	0.500038	0.765192
H147	H	-0.930830	0.000099	0.712082
H148	H	-0.430830	0.500099	1.212082
H149	H	-0.914048	0.108381	0.358480
H150	H	-0.414048	0.608381	0.858480
N151	N	-0.712718	-0.124054	0.463738
N152	N	-0.212718	0.375946	0.963738
H153	H	-0.719732	-0.114993	0.516521
H154	H	-0.219732	0.385007	1.016521
H155	H	-0.716035	-0.198533	0.448593
H156	H	-0.216035	0.301467	0.948593
H157	H	-0.912118	0.108399	0.489913
H158	H	-0.412118	0.608399	0.989913
H159	H	-0.701131	0.000097	0.681314
H160	H	-0.201131	0.500097	1.181314
N161	N	-0.686468	0.000078	0.538061
N162	N	-0.186468	0.500078	1.038061
H163	H	-0.645868	0.000079	0.566628
H164	H	-0.145868	0.500079	1.066628
H165	H	-0.681306	-0.063105	0.504792
H166	H	-0.181306	0.436895	1.004792
N167	N	-0.601327	0.000078	-0.228427
N168	N	-0.101327	0.500078	0.271573
H169	H	-0.562014	0.000078	-0.268031
H170	H	-0.062014	0.500078	0.231969
H171	H	-0.628174	-0.063097	-0.234475
H172	H	-0.128174	0.436903	0.265525
H173	H	-0.624766	0.000038	0.018139
H174	H	-0.124766	0.500038	0.518139
N175	N	-0.252825	-0.124113	0.003828
N176	N	0.247175	0.375887	0.503828
H177	H	-0.228821	-0.078389	0.036164
H178	H	0.271179	0.421611	0.536164
H179	H	-0.289206	-0.161952	0.032296
H180	H	0.210794	0.338048	0.532296
H181	H	-0.707684	0.000044	0.234425
H182	H	-0.207684	0.500044	0.734425
N183	N	-0.693017	0.000041	0.091169
N184	N	-0.193017	0.500041	0.591169
H185	H	-0.652416	0.000046	0.119735
H186	H	-0.152416	0.500046	0.619735
H187	H	-0.687854	-0.063143	0.057901
H188	H	-0.187854	0.436857	0.557901
H189	H	-0.015675	0.000046	-0.203074
H190	H	0.484325	0.500046	0.296926
N191	N	-0.403410	-0.124110	0.001630
N192	N	0.096590	0.375890	0.501630
H193	H	-0.398356	-0.101819	0.051690
H194	H	0.101644	0.398181	0.551690
H195	H	-0.454204	-0.115037	-0.006133
H196	H	0.045796	0.384963	0.493867
N197	N	-0.189688	0.000033	0.041289
N198	N	0.310312	0.500033	0.541289
H199	H	-0.239792	0.000028	0.030931
H200	H	0.260208	0.500028	0.530931
H201	H	-0.177879	-0.063149	0.066271
H202	H	0.322121	0.436851	0.566271
H203	H	-0.493335	0.000030	0.020069
H204	H	0.006665	0.500030	0.520069
