data_functionalizedCrystal
_audit_creation_method	'MofGen! by Chris Wilmer'
_symmetry_space_group_name_H-M	'P1'
_symmetry_Int_Tables_number	1
_symmetry_cell_setting	triclinic
loop_
_symmetry_equiv_pos_as_xyz
  x,y,z
_cell_length_a	21.295420
_cell_length_b	21.295417
_cell_length_c	19.120904
_cell_angle_alpha	92.408338
_cell_angle_beta	92.422904
_cell_angle_gamma	90.026289
loop_
_atom_site_label
_atom_site_type_symbol
_atom_site_fract_x
_atom_site_fract_y
_atom_site_fract_z
Zn1	Zn	0.947123	-0.265876	-0.397094
Zn2	Zn	1.280456	0.067458	-0.063761
Zn3	Zn	1.613789	0.400791	0.269573
Zn4	Zn	0.951531	-0.366654	-0.279638
Zn5	Zn	1.284864	-0.033321	0.053695
Zn6	Zn	1.618197	0.300013	0.387028
Zn7	Zn	0.846351	-0.261396	-0.279660
Zn8	Zn	1.179684	0.071938	0.053673
Zn9	Zn	1.513017	0.405271	0.387007
Zn10	Zn	0.841817	-0.371101	-0.397046
Zn11	Zn	1.175150	-0.037768	-0.063713
Zn12	Zn	1.508484	0.295565	0.269621
O13	O	0.896705	-0.316257	-0.338360
O14	O	1.230039	0.017077	-0.005026
O15	O	1.563372	0.350410	0.328307
O16	O	1.035796	-0.279258	-0.381524
O17	O	1.369130	0.054076	-0.048191
O18	O	1.702463	0.387409	0.285143
O19	O	0.941320	-0.348955	-0.181359
O20	O	1.274654	-0.015622	0.151974
O21	O	1.607987	0.317711	0.485308
O22	O	0.859771	-0.173902	-0.295267
O23	O	1.193104	0.159432	0.038066
O24	O	1.526437	0.492765	0.371400
O25	O	1.039035	-0.353299	-0.295230
O26	O	1.372368	-0.019966	0.038103
O27	O	1.705702	0.313367	0.371437
O28	O	0.933808	-0.177193	-0.381545
O29	O	1.267141	0.156140	-0.048212
O30	O	1.600474	0.489474	0.285121
O31	O	0.864045	-0.271622	-0.181375
O32	O	1.197378	0.061711	0.151958
O33	O	1.530712	0.395044	0.485292
O34	O	0.757660	-0.275935	-0.295221
O35	O	1.090994	0.057399	0.038113
O36	O	1.424327	0.390732	0.371446
O37	O	0.852044	-0.360879	-0.495335
O38	O	1.185377	-0.027546	-0.162001
O39	O	1.518711	0.305788	0.171332
O40	O	0.754330	-0.356535	-0.381464
O41	O	1.087663	-0.023202	-0.048130
O42	O	1.420996	0.310132	0.285203
O43	O	0.929411	-0.283570	-0.495370
O44	O	1.262745	0.049763	-0.162036
O45	O	1.596078	0.383097	0.171297
O46	O	0.936924	-0.455332	-0.295183
O47	O	1.270258	-0.121999	0.038150
O48	O	1.603591	0.211334	0.371483
O49	O	0.856318	-0.458600	-0.381442
O50	O	1.189652	-0.125266	-0.048109
O51	O	1.522985	0.208067	0.285224
C52	C	0.733154	-0.316232	-0.338340
C53	C	1.066488	0.017101	-0.005006
C54	C	1.399821	0.350435	0.328327
C55	C	0.663186	-0.316237	-0.338348
C56	C	0.996519	0.017096	-0.005015
C57	C	1.329853	0.350430	0.328319
C58	C	0.162037	-0.277801	-0.383377
C59	C	0.495371	0.055532	-0.050043
C60	C	0.828704	0.388865	0.283290
C61	C	0.227780	-0.277797	-0.383376
C62	C	0.561113	0.055537	-0.050043
C63	C	0.894447	0.388870	0.283290
C64	C	0.262345	-0.316276	-0.338376
C65	C	0.595679	0.017057	-0.005043
C66	C	0.929012	0.350390	0.328291
C67	C	0.231163	-0.354776	-0.293385
C68	C	0.564496	-0.021442	0.039949
C69	C	0.897829	0.311891	0.373282
C70	C	0.165421	-0.354784	-0.293391
C71	C	0.498755	-0.021451	0.039942
C72	C	0.832088	0.311883	0.373276
N73	N	0.367894	-0.318670	-0.276878
N74	N	0.701228	0.014663	0.056455
N75	N	1.034561	0.347997	0.389788
N76	N	0.430346	-0.318658	-0.276874
N77	N	0.763679	0.014675	0.056459
N78	N	1.097013	0.348008	0.389792
C79	C	0.460421	-0.316255	-0.338355
C80	C	0.793754	0.017078	-0.005022
C81	C	1.127088	0.350412	0.328311
N82	N	0.425685	-0.313851	-0.399842
N83	N	0.759018	0.019482	-0.066508
N84	N	1.092352	0.352816	0.266825
N85	N	0.363228	-0.313859	-0.399845
N86	N	0.696561	0.019474	-0.066511
N87	N	1.029894	0.352807	0.266822
C88	C	0.333631	-0.316272	-0.338364
C89	C	0.666965	0.017061	-0.005031
C90	C	1.000298	0.350395	0.328302
C91	C	0.562881	-0.277756	-0.383347
C92	C	0.896215	0.055577	-0.050014
C93	C	1.229548	0.388910	0.283320
C94	C	0.628625	-0.277756	-0.383348
C95	C	0.961958	0.055577	-0.050015
C96	C	1.295292	0.388911	0.283319
C97	C	0.632007	-0.354731	-0.293350
C98	C	0.965340	-0.021398	0.039983
C99	C	1.298673	0.311935	0.373317
C100	C	0.566264	-0.354735	-0.293355
C101	C	0.899597	-0.021402	0.039978
C102	C	1.232931	0.311931	0.373311
C103	C	0.531705	-0.316244	-0.338353
C104	C	0.865039	0.017089	-0.005019
C105	C	1.198372	0.350422	0.328314
C106	C	0.896624	-0.479807	-0.338321
C107	C	1.229958	-0.146474	-0.004987
C108	C	1.563291	0.186860	0.328346
C109	C	0.896646	-0.549775	-0.338328
C110	C	1.229980	-0.216442	-0.004994
C111	C	1.563313	0.116891	0.328339
C112	C	0.938652	-0.580921	-0.293458
C113	C	1.271985	-0.247588	0.039875
C114	C	1.605319	0.085745	0.373208
C115	C	0.938681	-0.646664	-0.293474
C116	C	1.272014	-0.313331	0.039859
C117	C	1.605347	0.020002	0.373192
C118	C	0.896693	-0.681259	-0.338352
C119	C	1.230026	-0.347925	-0.005018
C120	C	1.563360	-0.014592	0.328315
C121	C	0.854684	-0.650105	-0.383230
C122	C	1.188018	-0.316772	-0.049896
C123	C	1.521351	0.016562	0.283437
C124	C	0.854661	-0.584363	-0.383217
C125	C	1.187994	-0.251030	-0.049884
C126	C	1.521328	0.082304	0.283449
N127	N	0.841421	-0.784725	-0.343699
N128	N	1.174754	-0.451392	-0.010366
N129	N	1.508088	-0.118058	0.322967
N130	N	0.841445	-0.847177	-0.343707
N131	N	1.174778	-0.513843	-0.010373
N132	N	1.508112	-0.180510	0.322960
C133	C	0.896762	-0.879335	-0.338392
C134	C	1.230095	-0.546001	-0.005059
C135	C	1.563429	-0.212668	0.328275
N136	N	0.952056	-0.846682	-0.333056
N137	N	1.285389	-0.513348	0.000277
N138	N	1.618722	-0.180015	0.333611
N139	N	0.952031	-0.784224	-0.333045
N140	N	1.285364	-0.450891	0.000288
N141	N	1.618697	-0.117557	0.333622
C142	C	0.896714	-0.752545	-0.338370
C143	C	1.230047	-0.419211	-0.005037
C144	C	1.563381	-0.085878	0.328296
C145	C	0.938802	-0.981767	-0.293538
C146	C	1.272136	-0.648434	0.039796
C147	C	1.605469	-0.315100	0.373129
C148	C	0.938832	-1.047512	-0.293558
C149	C	1.272166	-0.714178	0.039775
C150	C	1.605499	-0.380845	0.373108
C151	C	0.854830	-1.050951	-0.383310
C152	C	1.188164	-0.717617	-0.049977
C153	C	1.521497	-0.384284	0.283357
C154	C	0.854806	-0.985207	-0.383293
C155	C	1.188139	-0.651874	-0.049960
C156	C	1.521473	-0.318541	0.283374
C157	C	0.896791	-0.950620	-0.338403
C158	C	1.230125	-0.617286	-0.005070
C159	C	1.563458	-0.283953	0.328264
C160	C	1.060895	-0.316282	-0.338380
C161	C	1.394228	0.017051	-0.005047
C162	C	1.727561	0.350385	0.328287
C163	C	1.130862	-0.316293	-0.338389
C164	C	1.464196	0.017040	-0.005055
C165	C	1.797529	0.350374	0.328278
C166	C	0.889730	-0.323220	-0.521548
C167	C	1.223064	0.010113	-0.188215
C168	C	1.556397	0.343446	0.145119
C169	C	0.886758	-0.326188	-0.599612
C170	C	1.220091	0.007145	-0.266279
C171	C	1.553425	0.340479	0.067055
C172	C	0.896803	-0.152068	-0.338414
C173	C	1.230136	0.181265	-0.005081
C174	C	1.563470	0.514598	0.328253
C175	C	0.896845	-0.082101	-0.338437
C176	C	1.230178	0.251232	-0.005104
C177	C	1.563512	0.584565	0.328229
C178	C	0.925641	-0.287333	-0.636306
C179	C	1.258974	0.046000	-0.302973
C180	C	1.592307	0.379333	0.030360
C181	C	0.922840	-0.290119	-0.709656
C182	C	1.256174	0.043214	-0.376322
C183	C	1.589507	0.376547	-0.042989
C184	C	0.881160	-0.331763	-0.746310
C185	C	1.214493	0.001570	-0.412976
C186	C	1.547826	0.334903	-0.079643
C187	C	0.842273	-0.370619	-0.709610
C188	C	1.175606	-0.037286	-0.376277
C189	C	1.508940	0.296047	-0.042944
C190	C	0.845071	-0.367830	-0.636262
C191	C	1.178404	-0.034497	-0.302929
C192	C	1.511737	0.298837	0.030404
C193	C	0.870694	-0.342197	-0.967773
C194	C	1.204028	-0.008863	-0.634439
C195	C	1.537361	0.324470	-0.301106
C196	C	0.867901	-0.344984	-1.041126
C197	C	1.201234	-0.011651	-0.707793
C198	C	1.534568	0.321682	-0.374459
C199	C	0.948468	-0.264483	-1.041166
C200	C	1.281801	0.068850	-0.707833
C201	C	1.615134	0.402184	-0.374499
C202	C	0.951264	-0.261700	-0.967817
C203	C	1.284598	0.071634	-0.634483
C204	C	1.617931	0.404967	-0.301150
C205	C	0.912375	-0.300554	-0.931124
C206	C	1.245709	0.032780	-0.597790
C207	C	1.579042	0.366113	-0.264457
C208	C	0.878298	-0.334613	-0.821285
C209	C	1.211631	-0.001280	-0.487951
C210	C	1.544964	0.332053	-0.154618
C211	C	0.915235	-0.297700	-0.856150
C212	C	1.248568	0.035633	-0.522817
C213	C	1.581901	0.368967	-0.189484
C214	C	0.903689	-0.309275	-0.155884
C215	C	1.237023	0.024059	0.177450
C216	C	1.570356	0.357392	0.510783
C217	C	0.906784	-0.306130	-0.077820
C218	C	1.240117	0.027203	0.255513
C219	C	1.573450	0.360537	0.588847
H220	H	0.534742	-0.246415	-0.419986
H221	H	0.868075	0.086919	-0.086653
H222	H	1.201409	0.420252	0.246680
H223	H	0.954504	-0.258481	-0.739529
H224	H	1.287837	0.074852	-0.406196
H225	H	1.621171	0.408186	-0.072862
H226	H	0.808334	-0.404525	-0.739460
H227	H	1.141667	-0.071191	-0.406127
H228	H	1.475000	0.262142	-0.072793
Cl229	Cl	0.825904	-0.386967	-0.867370
Cl230	Cl	1.159237	-0.053634	-0.534037
Cl231	Cl	1.492570	0.279699	-0.200703
Cl232	Cl	0.991442	-0.537443	-0.237036
Cl233	Cl	1.324776	-0.204110	0.096298
Cl234	Cl	1.658109	0.129224	0.429631
H235	H	0.813402	-0.399463	-0.606387
H236	H	1.146735	-0.066130	-0.273054
H237	H	1.480068	0.267203	0.060280
H238	H	0.253168	-0.246449	-0.420010
H239	H	0.586501	0.086884	-0.086677
H240	H	0.919834	0.420217	0.246656
H241	H	0.973042	-1.072870	-0.257022
H242	H	1.306375	-0.739536	0.076311
H243	H	1.639709	-0.406203	0.409645
Cl244	Cl	0.274615	-0.403153	-0.236816
Cl245	Cl	0.607949	-0.069820	0.096518
Cl246	Cl	0.941282	0.263514	0.429851
Cl247	Cl	0.821805	-0.391042	-0.921654
Cl248	Cl	1.155138	-0.057709	-0.588321
Cl249	Cl	1.488472	0.275624	-0.254987
Cl250	Cl	0.802049	-1.094434	-0.439733
Cl251	Cl	1.135383	-0.761101	-0.106400
Cl252	Cl	1.468716	-0.427768	0.226934
H253	H	0.820599	-0.959847	-0.419827
H254	H	1.153932	-0.626513	-0.086493
H255	H	1.487265	-0.293180	0.246840
H256	H	0.654006	-0.246414	-0.419988
H257	H	0.987339	0.086920	-0.086654
H258	H	1.320673	0.420253	0.246679
H259	H	0.820454	-0.559004	-0.419756
H260	H	1.153788	-0.225670	-0.086423
H261	H	1.487121	0.107663	0.246911
H262	H	0.660149	-0.386068	-0.256715
H263	H	0.993483	-0.052734	0.076618
H264	H	1.326816	0.280599	0.409951
Cl265	Cl	0.978045	-0.234981	-0.590234
Cl266	Cl	1.311378	0.098352	-0.256901
Cl267	Cl	1.644712	0.431686	0.076432
H268	H	0.972889	-0.672029	-0.256937
H269	H	1.306222	-0.338695	0.076397
H270	H	1.639556	-0.005362	0.409730
H271	H	0.540881	-0.386076	-0.256718
H272	H	0.874215	-0.052743	0.076615
H273	H	1.207548	0.280590	0.409949
H274	H	0.972992	-0.953604	-0.256988
H275	H	1.306325	-0.620271	0.076346
H276	H	1.639658	-0.286938	0.409679
Cl277	Cl	0.801903	-0.693594	-0.439650
Cl278	Cl	1.135236	-0.360260	-0.106317
Cl279	Cl	1.468569	-0.026927	0.227016
Cl280	Cl	0.126228	-0.403174	-0.236827
Cl281	Cl	0.459561	-0.069841	0.096507
Cl282	Cl	0.792895	0.263493	0.429840
Cl283	Cl	1.003665	-0.209345	-0.921743
Cl284	Cl	1.336998	0.123988	-0.588409
Cl285	Cl	1.670332	0.457321	-0.255076
H286	H	0.949168	-0.263791	-0.826303
H287	H	1.282501	0.069542	-0.492970
H288	H	1.615835	0.402876	-0.159637
Cl289	Cl	0.997351	-0.215639	-1.087298
Cl290	Cl	1.330685	0.117694	-0.753965
Cl291	Cl	1.664018	0.451028	-0.420632
H292	H	0.133903	-0.246462	-0.420020
H293	H	0.467237	0.086872	-0.086687
H294	H	0.800570	0.420205	0.246647
Cl295	Cl	0.815495	-0.397338	-1.087205
Cl296	Cl	1.148829	-0.064004	-0.753871
Cl297	Cl	1.482162	0.269329	-0.420538
