data_functionalizedCrystal
_audit_creation_method	'MofGen! by Chris Wilmer'
_symmetry_space_group_name_H-M	'P1'
_symmetry_Int_Tables_number	1
_symmetry_cell_setting	triclinic
loop_
_symmetry_equiv_pos_as_xyz
  x,y,z
_cell_length_a	21.295418
_cell_length_b	17.077402
_cell_length_c	21.295412
_cell_angle_alpha	89.972221
_cell_angle_beta	90.035621
_cell_angle_gamma	89.961304
loop_
_atom_site_label
_atom_site_type_symbol
_atom_site_fract_x
_atom_site_fract_y
_atom_site_fract_z
Zn1	Zn	0.962339	0.312192	0.356249
Zn2	Zn	1.295672	0.645526	0.689582
Zn3	Zn	1.629005	0.978859	1.022915
Zn4	Zn	0.962270	0.443463	0.250980
Zn5	Zn	1.295603	0.776796	0.584313
Zn6	Zn	1.628937	1.110129	0.917647
Zn7	Zn	0.857077	0.312251	0.250958
Zn8	Zn	1.190410	0.645584	0.584292
Zn9	Zn	1.523743	0.978918	0.917625
Zn10	Zn	0.857045	0.443456	0.356177
Zn11	Zn	1.190379	0.776790	0.689510
Zn12	Zn	1.523712	1.110123	1.022843
O13	O	0.909683	0.377841	0.303591
O14	O	1.243016	0.711174	0.636924
O15	O	1.576349	1.044507	0.970258
O16	O	1.050419	0.329584	0.342324
O17	O	1.383752	0.662917	0.675657
O18	O	1.717086	0.996250	1.008990
O19	O	0.948300	0.426084	0.162888
O20	O	1.281634	0.759418	0.496221
O21	O	1.614967	1.092751	0.829555
O22	O	0.871082	0.202396	0.264946
O23	O	1.204415	0.535730	0.598280
O24	O	1.537749	0.869063	0.931613
O25	O	1.050369	0.426027	0.264983
O26	O	1.383702	0.759361	0.598317
O27	O	1.717035	1.092694	0.931650
O28	O	0.948417	0.202353	0.342302
O29	O	1.281751	0.535686	0.675636
O30	O	1.615084	0.869020	1.008969
O31	O	0.871015	0.329684	0.162872
O32	O	1.204349	0.663017	0.496205
O33	O	1.537682	0.996350	0.829538
O34	O	0.768983	0.329678	0.264877
O35	O	1.102317	0.663011	0.598210
O36	O	1.435650	0.996344	0.931543
O37	O	0.871028	0.426017	0.444276
O38	O	1.204362	0.759350	0.777609
O39	O	1.537695	1.092683	1.110942
O40	O	0.768960	0.426074	0.342180
O41	O	1.102293	0.759407	0.675513
O42	O	1.435627	1.092740	1.008847
O43	O	0.948387	0.329578	0.444328
O44	O	1.281720	0.662911	0.777662
O45	O	1.615054	0.996244	1.110995
O46	O	0.948270	0.553309	0.264914
O47	O	1.281603	0.886642	0.598247
O48	O	1.614936	1.219975	0.931580
O49	O	0.870962	0.553304	0.342201
O50	O	1.204295	0.886637	0.675534
O51	O	1.537628	1.219971	1.008868
C52	C	0.909622	0.581788	0.303566
C53	C	1.242955	0.915122	0.636899
C54	C	1.576289	1.248455	0.970232
C55	C	0.909654	0.669038	0.303576
C56	C	1.242987	1.002372	0.636909
C57	C	1.576320	1.335705	0.970243
C58	C	0.746131	0.377882	0.303518
C59	C	1.079464	0.711215	0.636852
C60	C	1.412798	1.044548	0.970185
C61	C	0.676163	0.377918	0.303502
C62	C	1.009496	0.711252	0.636836
C63	C	1.342830	1.044585	0.970169
C64	C	0.909712	0.377790	0.467781
C65	C	1.243045	0.711123	0.801115
C66	C	1.576378	1.044457	1.134448
C67	C	0.909724	0.377768	0.537749
C68	C	1.243057	0.711102	0.871083
C69	C	1.576391	1.044435	1.204416
C70	C	0.643301	0.428178	0.343694
C71	C	0.976634	0.761512	0.677027
C72	C	1.309967	1.094845	1.010361
C73	C	0.577558	0.428159	0.343722
C74	C	0.910892	0.761492	0.677056
C75	C	1.244225	1.094826	1.010389
C76	C	0.544680	0.377888	0.303548
C77	C	0.878014	0.711221	0.636881
C78	C	1.211347	1.044555	0.970214
C79	C	0.577551	0.327618	0.263353
C80	C	0.910884	0.660952	0.596686
C81	C	1.244217	0.994285	0.930020
C82	C	0.643292	0.327634	0.263330
C83	C	0.976625	0.660967	0.596664
C84	C	1.309958	0.994300	0.929997
N85	N	0.441412	0.371755	0.248490
N86	N	0.774745	0.705089	0.581823
N87	N	1.108078	1.038422	0.915156
N88	N	0.378960	0.371745	0.248513
N89	N	0.712293	0.705079	0.581846
N90	N	1.045627	1.038412	0.915180
C91	C	0.346606	0.377838	0.303614
C92	C	0.679939	0.711171	0.636948
C93	C	1.013272	1.044505	0.970281
N94	N	0.379062	0.383956	0.358693
N95	N	0.712395	0.717289	0.692026
N96	N	1.045729	1.050623	1.025359
N97	N	0.441519	0.383970	0.358669
N98	N	0.774853	0.717303	0.692002
N99	N	1.108186	1.050636	1.025335
C100	C	0.473395	0.377866	0.303568
C101	C	0.806728	0.711199	0.636901
C102	C	1.140062	1.044532	0.970235
C103	C	0.242458	0.428079	0.343840
C104	C	0.575791	0.761413	0.677174
C105	C	0.909125	1.094746	1.010507
C106	C	0.176714	0.428055	0.343870
C107	C	0.510048	0.761388	0.677203
C108	C	0.843381	1.094721	1.010536
C109	C	0.176708	0.327518	0.263495
C110	C	0.510041	0.660851	0.596828
C111	C	0.843375	0.994185	0.930161
C112	C	0.242450	0.327539	0.263471
C113	C	0.575784	0.660872	0.596804
C114	C	0.909117	0.994206	0.930138
C115	C	0.275321	0.377824	0.303643
C116	C	0.608655	0.711157	0.636976
C117	C	0.941988	1.044490	0.970310
C118	C	1.073873	0.377800	0.303664
C119	C	1.407206	0.711133	0.636997
C120	C	1.740540	1.044466	0.970331
C121	C	1.143841	0.377782	0.303695
C122	C	1.477174	0.711116	0.637029
C123	C	1.810508	1.044449	0.970362
C124	C	0.909761	0.173096	0.303630
C125	C	1.243094	0.506430	0.636963
C126	C	1.576427	0.839763	0.970297
C127	C	0.909794	0.085846	0.303647
C128	C	1.243127	0.419180	0.636980
C129	C	1.576461	0.752513	0.970313
C130	C	0.949949	0.710005	0.263376
C131	C	1.283282	1.043338	0.596709
C132	C	1.616616	1.376671	0.930042
C133	C	0.949980	0.791985	0.263392
C134	C	1.283313	1.125318	0.596725
C135	C	1.616646	1.458652	0.930058
C136	C	0.909711	0.832998	0.303605
C137	C	1.243045	1.166331	0.636939
C138	C	1.576378	1.499664	0.970272
C139	C	0.869414	0.792025	0.343810
C140	C	1.202748	1.125359	0.677144
C141	C	1.536081	1.458692	1.010477
C142	C	0.869387	0.710046	0.343797
C143	C	1.202720	1.043380	0.677130
C144	C	1.536054	1.376713	1.010464
C145	C	0.869473	0.962895	0.343834
C146	C	1.202806	1.296229	0.677168
C147	C	1.536139	1.629562	1.010501
C148	C	0.869499	1.044880	0.343847
C149	C	1.202832	1.378213	0.677180
C150	C	1.536165	1.711547	1.010514
C151	C	0.950065	1.044834	0.263429
C152	C	1.283399	1.378167	0.596762
C153	C	1.616732	1.711501	0.930096
C154	C	0.950038	0.962855	0.263416
C155	C	1.283371	1.296188	0.596749
C156	C	1.616705	1.629522	0.930082
C157	C	0.909740	0.921889	0.303620
C158	C	1.243073	1.255222	0.636953
C159	C	1.576407	1.588555	0.970287
C160	C	0.909690	0.377834	0.140039
C161	C	1.243023	0.711168	0.473373
C162	C	1.576357	1.044501	0.806706
C163	C	0.909800	0.377635	0.070072
C164	C	1.243133	0.710968	0.403405
C165	C	1.576466	1.044301	0.736738
C166	C	0.950064	0.327428	1.037236
C167	C	1.283398	0.660761	1.370569
C168	C	1.616731	0.994095	1.703903
C169	C	0.950060	0.327447	0.971494
C170	C	1.283393	0.660780	1.304827
C171	C	1.616726	0.994114	1.638160
C172	C	0.909779	0.377665	0.938589
C173	C	1.243112	0.710998	1.271922
C174	C	1.576445	1.044331	1.605256
C175	C	0.869511	0.427881	0.971433
C176	C	1.202844	0.761214	1.304766
C177	C	1.536178	1.094548	1.638099
C178	C	0.869522	0.427866	1.037174
C179	C	1.202855	0.761199	1.370507
C180	C	1.536188	1.094533	1.703840
N181	N	0.854658	0.383724	0.835342
N182	N	1.187991	0.717057	1.168676
N183	N	1.521325	1.050390	1.502009
N184	N	0.854650	0.383733	0.772891
N185	N	1.187983	0.717066	1.106224
N186	N	1.521316	1.050400	1.439557
C187	C	0.909746	0.377714	0.740514
C188	C	1.243079	0.711047	1.073848
C189	C	1.576412	1.044380	1.407181
N190	N	0.964851	0.371669	0.772948
N191	N	1.298184	0.705002	1.106282
N192	N	1.631518	1.038335	1.439615
N193	N	0.964859	0.371655	0.835406
N194	N	1.298192	0.704989	1.168739
N195	N	1.631525	1.038322	1.502072
C196	C	0.909763	0.377687	0.867304
C197	C	1.243096	0.711020	1.200637
C198	C	1.576430	1.044353	1.533970
C199	C	0.950008	0.327525	0.636393
C200	C	1.283342	0.660858	0.969726
C201	C	1.616675	0.994192	1.303060
C202	C	0.950005	0.327549	0.570649
C203	C	1.283338	0.660883	0.903983
C204	C	1.616671	0.994216	1.237316
C205	C	0.869451	0.427979	0.570590
C206	C	1.202784	0.761313	0.903923
C207	C	1.536117	1.094646	1.237256
C208	C	0.869460	0.427959	0.636332
C209	C	1.202793	0.761292	0.969665
C210	C	1.536127	1.094625	1.302999
C211	C	0.909738	0.377727	0.669230
C212	C	1.243071	0.711061	1.002563
C213	C	1.576405	1.044394	1.335897
H214	H	0.670060	0.469123	0.376406
H215	H	1.003394	0.802456	0.709739
H216	H	1.336727	1.135790	1.043073
F217	F	0.542577	0.481654	0.386502
F218	F	0.875910	0.814988	0.719835
F219	F	1.209243	1.148321	1.053169
H220	H	0.550777	0.286686	0.230644
H221	H	0.884111	0.620019	0.563977
H222	H	1.217444	0.953353	0.897310
H223	H	0.836720	1.078270	0.376604
H224	H	1.170054	1.411603	0.709938
H225	H	1.503387	1.744937	1.043271
H226	H	0.982737	0.676618	0.230626
H227	H	1.316071	1.009951	0.563960
H228	H	1.649404	1.343284	0.897293
H229	H	0.269207	0.286616	0.230739
H230	H	0.602540	0.619949	0.564073
H231	H	0.935874	0.953282	0.897406
F232	F	0.141740	0.481547	0.386653
F233	F	0.475073	0.814880	0.719986
F234	F	0.808407	1.148214	1.053320
F235	F	0.992949	1.088434	0.220636
F236	F	1.326283	1.421768	0.553969
F237	F	1.659616	1.755101	0.887303
F238	F	0.826665	0.481306	1.072121
F239	F	1.159998	0.814639	1.405454
F240	F	1.493331	1.147973	1.738788
H241	H	0.982805	0.286623	0.663180
H242	H	1.316138	0.619956	0.996513
H243	H	1.649471	0.953290	1.329847
F244	F	0.678267	0.274137	0.220551
F245	F	1.011601	0.607471	0.553885
F246	F	1.344934	0.940804	0.887218
H247	H	0.269223	0.469020	0.376554
H248	H	0.602556	0.802354	0.709887
H249	H	0.935890	1.135687	1.043220
H250	H	0.836575	0.676692	0.376533
H251	H	1.169909	1.010026	0.709866
H252	H	1.503242	1.343359	1.043200
H253	H	0.149940	0.286583	0.230787
H254	H	0.483273	0.619916	0.564120
H255	H	0.816606	0.953250	0.897453
F256	F	0.992866	0.274114	0.535703
F257	F	1.326199	0.607447	0.869037
F258	F	1.659532	0.940780	1.202370
F259	F	0.992895	0.919208	0.220615
F260	F	1.326229	1.252541	0.553949
F261	F	1.659562	1.585875	0.887282
F262	F	0.826586	0.481432	0.535575
F263	F	1.159919	0.814765	0.868908
F264	F	1.493252	1.148099	1.202241
H265	H	0.982792	0.825336	0.230656
H266	H	1.316125	1.158670	0.563990
H267	H	1.649459	1.492003	0.897323
F268	F	0.826603	0.481395	0.671279
F269	F	1.159936	0.814728	1.004613
F270	F	1.493269	1.148061	1.337946
H271	H	0.836659	0.929543	0.376575
H272	H	1.169993	1.262876	0.709908
H273	H	1.503326	1.596210	1.043242
H274	H	0.982865	0.286529	1.064017
H275	H	1.316198	0.619863	1.397351
H276	H	1.649531	0.953196	1.730684
H277	H	0.982848	0.286560	0.944754
H278	H	1.316181	0.619893	1.278087
H279	H	1.649514	0.953226	1.611420
H280	H	0.836630	0.825424	0.376556
H281	H	1.169963	1.158758	0.709889
H282	H	1.503296	1.492091	1.043222
F283	F	0.826643	0.481328	0.936412
F284	F	1.159976	0.814661	1.269746
F285	F	1.493310	1.147995	1.603079
