data_functionalizedCrystal
_audit_creation_method	'MofGen! by Chris Wilmer'
_symmetry_space_group_name_H-M	'P1'
_symmetry_Int_Tables_number	1
_symmetry_cell_setting	triclinic
loop_
_symmetry_equiv_pos_as_xyz
  x,y,z
_cell_length_a	14.628931
_cell_length_b	14.628931
_cell_length_c	14.628931
_cell_angle_alpha	59.999807
_cell_angle_beta	120.000000
_cell_angle_gamma	120.000000
loop_
_atom_site_label
_atom_site_type_symbol
_atom_site_fract_x
_atom_site_fract_y
_atom_site_fract_z
Zr1	Zr	-0.880615	0.119961	0.880620
O2	O	-0.925360	0.265922	0.734659
O3	O	-0.734654	0.075216	0.925365
O4	O	-0.734654	0.265922	0.925365
O5	O	-1.075792	-0.075216	0.734660
O6	O	-0.734654	0.265921	1.075797
O7	O	-0.925360	0.075216	0.734659
O8	O	-0.734654	-0.075217	1.075797
O9	O	-1.075791	0.265922	0.734659
O10	O	-0.832177	0.056133	1.056714
O11	O	-0.944443	-0.056133	0.944448
O12	O	-0.944443	0.168399	0.944448
O13	O	-1.056708	0.056133	0.832183
Zr14	Zr	-1.120536	-0.119961	1.120543
Zr15	Zr	-0.880615	0.119961	1.120542
Zr16	Zr	-1.120536	-0.119961	0.880621
Zr17	Zr	-1.120536	0.119961	0.880620
Zr18	Zr	-0.880615	-0.119961	1.120542
O19	O	-1.266497	-0.075216	1.075798
O20	O	-0.925359	0.265922	1.075797
O21	O	-1.266497	-0.075215	0.734660
O22	O	-1.075791	-0.265922	1.266504
O23	O	-0.734654	0.075215	1.266503
O24	O	-1.075792	-0.265922	0.925366
O25	O	-0.925359	0.075216	1.266503
O26	O	-1.266497	-0.265922	1.075798
O27	O	-1.266497	-0.265921	0.925366
O28	O	-1.075791	-0.075216	1.266504
O29	O	-1.075791	0.265922	0.925365
O30	O	-0.925360	-0.265922	1.075798
O31	O	-0.925360	-0.265922	1.266504
O32	O	-0.734654	-0.075217	1.266503
O33	O	-1.266497	0.075217	0.734660
O34	O	-1.266497	0.075217	0.925366
O35	O	-1.056708	-0.168399	1.056715
O36	O	-0.944443	-0.056133	1.168980
O37	O	-1.056708	0.056133	1.056714
O38	O	-1.168974	-0.056133	0.944449
C39	C	-0.700471	-0.000000	1.000581
C40	C	-0.598618	-0.000001	1.000581
C41	C	-0.497517	0.055691	1.056272
C42	C	-0.392246	0.055692	1.056273
C43	C	-0.300680	0.000000	1.000582
C44	C	-0.402533	0.000001	1.000582
C45	C	-1.000576	-0.300106	1.000582
C46	C	-1.000576	-0.401959	1.000582
C47	C	-1.000576	0.000000	0.700476
C48	C	-1.000576	0.000001	0.598623
C49	C	-1.056266	-0.608323	1.056272
C50	C	-1.056267	-0.503054	1.056273
C51	C	-1.000575	0.300106	1.000581
C52	C	-1.000575	0.401959	1.000581
C53	C	-0.944885	-0.055691	0.608905
C54	C	-0.944884	-0.055692	0.503635
C55	C	-1.000575	-0.000000	1.300687
C56	C	-1.000575	-0.000001	1.402540
C57	C	-0.700470	0.300105	1.000581
C58	C	-0.598617	0.401958	1.000580
C59	C	-0.700470	-0.000001	1.300687
C60	C	-0.598617	-0.000001	1.402540
C61	C	-1.000576	-0.300106	1.300687
C62	C	-1.000576	-0.401959	1.402541
C63	C	-1.000576	0.300106	0.700475
C64	C	-1.000576	0.401959	0.598622
C65	C	-1.300681	0.000001	0.700476
C66	C	-1.402534	0.000001	0.598623
C67	C	-1.300681	-0.300105	1.000582
C68	C	-1.402534	-0.401958	1.000583
C69	C	-0.608899	0.503059	0.944889
C70	C	-0.503630	0.608331	0.944887
C71	C	-0.497517	0.055690	1.392257
C72	C	-0.392245	0.055691	1.497526
C73	C	-0.944884	-0.391677	1.503641
C74	C	-0.944883	-0.496947	1.608913
H75	H	-0.607238	-0.047682	0.952905
H76	H	-0.511881	0.393338	1.048262
H77	H	-1.048252	0.047686	0.393903
Cl78	Cl	-0.611938	-0.073610	1.536451
H79	H	-0.489260	-0.047676	0.952895
H80	H	-0.897211	-0.103374	0.695641
Cl81	Cl	-0.871275	-0.257767	1.516962
H82	H	-0.952899	-0.393322	0.952895
H83	H	-1.103952	-0.511683	1.103947
Cl84	Cl	-1.129882	-0.742234	1.129889
Cl85	Cl	-0.926952	-0.464130	0.926972
H86	H	-0.897197	-0.103364	0.512264
Cl87	Cl	-1.074199	0.073610	0.464712
H88	H	-0.488897	0.103374	1.305520
Cl89	Cl	-1.074199	-0.535870	1.389220
H90	H	-0.488894	0.103365	1.103956
Cl91	Cl	-0.742810	0.516380	0.871280
Cl92	Cl	-0.516961	0.742235	0.871262
H93	H	-0.305515	0.103366	1.488898
H94	H	-0.489259	-0.047691	1.607259
Cl95	Cl	-0.258342	0.129316	1.129883
Cl96	Cl	-0.389196	0.464143	1.074191
H97	H	-0.897198	-0.488317	1.695643
Cl98	Cl	-1.074187	-0.611381	1.464726
