data_functionalizedCrystal
_audit_creation_method	'MofGen! by Chris Wilmer'
_symmetry_space_group_name_H-M	'P1'
_symmetry_Int_Tables_number	1
_symmetry_cell_setting	triclinic
loop_
_symmetry_equiv_pos_as_xyz
  x,y,z
_cell_length_a	10.654552
_cell_length_b	14.750779
_cell_length_c	15.712078
_cell_angle_alpha	106.502580
_cell_angle_beta	102.033599
_cell_angle_gamma	77.233875
loop_
_atom_site_label
_atom_site_type_symbol
_atom_site_fract_x
_atom_site_fract_y
_atom_site_fract_z
O1	O	1.703525	0.079833	0.140394
O2	O	1.343226	0.079833	0.151990
O3	O	1.475445	0.079828	0.020075
O4	O	1.571306	0.079838	0.272309
O5	O	1.512823	-0.079824	-0.017211
O6	O	1.380605	-0.079819	0.114703
O7	O	1.740903	-0.079819	0.103107
Zn8	Zn	1.566688	-0.105167	0.102985
Zn9	Zn	1.517441	0.105181	0.152112
O10	O	1.608685	-0.079814	0.235022
C11	C	1.314737	0.000007	0.132495
C12	C	1.174155	0.000007	0.129946
C13	C	0.996383	-0.087013	0.106026
C14	C	1.128477	-0.087018	0.108425
C15	C	1.087734	0.087043	0.149078
C16	C	0.955645	0.087047	0.146684
C17	C	1.347132	-0.191577	0.137970
C18	C	1.433544	-0.278610	0.118826
C19	C	1.394994	-0.355450	0.049403
C20	C	1.270029	-0.345259	-0.000898
C21	C	1.183621	-0.258224	0.018239
C22	C	1.222175	-0.181388	0.087681
C23	C	0.736987	0.191599	0.117131
C24	C	0.650575	0.278635	0.136262
C25	C	0.689118	0.355483	0.205681
C26	C	0.814082	0.345302	0.255971
C27	C	0.900494	0.258266	0.236841
C28	C	0.861942	0.181418	0.167423
N29	N	1.600307	-0.248724	0.069457
C30	C	1.389917	-0.600534	0.279234
C31	C	1.413487	-0.701034	0.255746
C32	C	1.530622	-0.701001	0.138979
C33	C	1.507056	-0.600499	0.162455
C34	C	1.436704	-0.550274	0.232584
C35	C	1.553843	-0.550239	0.115804
C36	C	1.530285	-0.449745	0.139282
C37	C	1.459940	-0.399513	0.209410
C38	C	1.413146	-0.449780	0.256061
C39	C	1.624203	-0.600466	0.045680
C40	C	1.670990	-0.550205	-0.000970
C41	C	1.647424	-0.449710	0.022502
C42	C	1.577078	-0.399478	0.092630
C43	C	1.694217	-0.399443	-0.024149
C44	C	1.670659	-0.298949	-0.000672
C45	C	1.553520	-0.298984	0.116108
C46	C	1.769392	0.000009	0.122603
C47	C	1.909972	0.000016	0.125154
C48	C	1.478473	0.000003	-0.030865
C49	C	1.431793	0.000005	-0.127099
N50	N	1.483829	0.248738	0.185633
C51	C	1.828112	0.000015	-0.491815
C52	C	1.784220	0.000015	-0.582240
C53	C	1.564290	0.000015	-0.562944
C54	C	1.608164	0.000011	-0.472516
C55	C	1.740076	0.000012	-0.436959
C56	C	1.520129	0.000008	-0.417661
C57	C	1.563999	0.000008	-0.327240
C58	C	1.695905	0.000012	-0.291675
C59	C	1.783946	0.000013	-0.346538
C60	C	1.388216	0.000013	-0.453218
C61	C	1.300181	0.000010	-0.398362
C62	C	1.344052	0.000004	-0.307941
C63	C	1.475958	0.000008	-0.272376
C64	C	1.256011	0.000004	-0.253078
C65	C	1.299881	0.000004	-0.162657
C66	C	1.519828	0.000009	-0.181955
C67	C	1.605656	0.000013	0.285963
C68	C	1.652335	0.000017	0.382199
H69	H	1.238658	-0.407829	-0.057434
Cl70	Cl	1.503630	-0.464862	0.025339
Cl71	Cl	1.590636	-0.291420	0.182061
H72	H	1.355847	-0.408885	0.313161
Cl73	Cl	1.751059	0.000018	-0.178000
H74	H	0.845467	0.407878	0.312497
H75	H	1.627246	-0.000000	-0.153005
Cl76	Cl	1.993954	-0.000015	-0.447115
H77	H	1.708760	-0.258027	-0.038659
H78	H	1.375383	-0.741952	0.293741
H79	H	1.148606	0.000012	-0.282040
Cl80	Cl	1.619065	-0.764149	0.050821
H81	H	1.891364	0.000003	-0.317588
H82	H	1.192777	0.000013	-0.427325
Cl83	Cl	1.057594	0.245466	0.300064
Cl84	Cl	1.465059	-0.235840	0.204263
H85	H	1.728275	-0.591110	-0.058068
H86	H	1.228194	0.000000	-0.117992
Cl87	Cl	1.395602	-0.094981	0.225255
H88	H	0.618749	0.426354	0.221249
H89	H	1.855918	0.000023	-0.626901
H90	H	1.751509	-0.440349	-0.081243
H91	H	1.124938	0.157900	0.166606
Cl92	Cl	1.398462	0.000022	-0.607652
Cl93	Cl	0.493501	0.291452	0.073004
Cl94	Cl	0.938971	-0.196423	0.078962
Cl95	Cl	1.653823	-0.726802	0.016173
H96	H	0.705586	0.129023	0.060608
Cl97	Cl	1.026537	-0.245406	-0.044993
Cl98	Cl	1.430330	-0.273176	0.238928
H99	H	1.332618	-0.559639	0.336334
H100	H	1.352500	0.000018	-0.526844
