data_functionalizedCrystal
_audit_creation_method	'MofGen! by Chris Wilmer'
_symmetry_space_group_name_H-M	'P1'
_symmetry_Int_Tables_number	1
_symmetry_cell_setting	triclinic
loop_
_symmetry_equiv_pos_as_xyz
  x,y,z
_cell_length_a	10.540514
_cell_length_b	10.540539
_cell_length_c	9.616153
_cell_angle_alpha	90.000094
_cell_angle_beta	90.007401
_cell_angle_gamma	84.520326
loop_
_atom_site_label
_atom_site_type_symbol
_atom_site_fract_x
_atom_site_fract_y
_atom_site_fract_z
O1	O	1.685911	0.178743	0.115656
O2	O	1.316494	0.195632	0.115654
O3	O	1.509630	0.002480	0.115653
O4	O	1.492774	0.371895	0.115657
O5	O	1.509604	0.002484	-0.115638
O6	O	1.316467	0.195636	-0.115637
O7	O	1.685884	0.178747	-0.115635
Zn8	Zn	1.501171	0.187192	-0.152359
Zn9	Zn	1.501206	0.187187	0.152378
O10	O	1.492748	0.371899	-0.115635
C11	C	1.269177	0.194374	0.000008
C12	C	1.128227	0.190605	0.000008
C13	C	1.057522	0.328745	0.000012
C14	C	0.910908	0.324871	0.000544
C15	C	0.935905	0.115476	0.131837
C16	C	1.082444	0.120329	0.131941
C17	C	1.082816	0.118290	-0.131090
C18	C	0.935837	0.116957	-0.132816
C19	C	1.508353	-0.044821	0.000010
C20	C	1.504571	-0.185769	0.000018
C21	C	1.359652	-0.369182	0.000536
C22	C	1.363486	-0.222564	0.000016
C23	C	1.572452	-0.247430	-0.132061
C24	C	1.567637	-0.393974	-0.132172
C25	C	1.570537	-0.394497	0.130850
C26	C	1.571836	-0.247515	0.132596
C27	C	1.733201	0.180004	0.000013
C28	C	1.874151	0.183774	0.000023
C29	C	1.494025	0.419199	0.000012
C30	C	1.497807	0.560147	0.000013
N31	N	1.501157	0.187195	-0.360333
C32	C	1.397526	0.290172	-0.580703
C33	C	1.397754	0.290557	-0.419535
C34	C	1.633882	0.217316	-0.418782
C35	C	1.633317	0.218045	-0.580000
C36	C	1.473384	0.053759	-0.580246
C37	C	1.470338	0.054624	-0.419019
N38	N	1.501231	0.187174	0.360352
H39	H	1.086050	0.384785	-0.094499
C40	C	1.120594	0.187720	0.265550
H41	H	1.046565	0.211885	0.319250
H42	H	1.177697	0.131377	0.318139
H43	H	1.161036	0.261499	0.241681
H44	H	1.378646	0.025088	-0.620984
C45	C	1.508875	-0.437111	0.266091
H46	H	1.554199	-0.408780	0.343772
H47	H	1.422732	-0.401405	0.270150
H48	H	1.511667	-0.527450	0.267788
C49	C	1.338435	0.023775	-0.367425
H50	H	1.302291	0.091394	-0.310349
H51	H	1.284359	0.013935	-0.444935
H52	H	1.347287	-0.053027	-0.315130
H53	H	1.674699	-0.223303	0.140572
C54	C	1.147303	-0.016744	0.139560
H55	H	1.084059	-0.075146	0.142589
H56	H	1.199446	-0.033533	0.059856
H57	H	1.198401	-0.026120	0.220975
H58	H	0.894831	0.166869	-0.230333
H59	H	0.913591	0.011844	0.136365
H60	H	1.304136	-0.399383	-0.093649
C61	C	1.508714	-0.189897	-0.264844
H62	H	1.440746	-0.128315	-0.240074
H63	H	1.569686	-0.150328	-0.318286
H64	H	1.476357	-0.255564	-0.318078
H65	H	1.114299	0.164275	-0.231032
H66	H	1.303931	-0.397779	0.095252
H67	H	1.522168	-0.206654	0.230304
C68	C	1.708194	-0.458316	0.132065
H69	H	1.721333	-0.512346	0.053272
H70	H	1.766119	-0.394636	0.129169
H71	H	1.722043	-0.507367	0.214496
H72	H	1.087760	0.383961	0.094399
C73	C	1.263884	0.266086	-0.633147
H74	H	1.270131	0.193005	-0.691469
H75	H	1.210560	0.252342	-0.556038
H76	H	1.228519	0.338052	-0.684324
H77	H	1.299136	0.272435	-0.380021
H78	H	1.309676	-0.180802	-0.094822
H79	H	1.415193	0.388594	-0.621200
C80	C	0.903128	-0.021964	-0.144136
H81	H	0.851204	-0.041123	-0.067646
H82	H	0.858494	-0.032824	-0.228474
H83	H	0.979506	-0.077652	-0.143247
H84	H	1.130072	0.016397	-0.132363
C85	C	1.291335	-0.164994	0.127914
H86	H	1.293593	-0.075106	0.127771
H87	H	1.205306	-0.184702	0.124653
H88	H	1.330612	-0.199649	0.210235
H89	H	1.415653	0.389540	-0.380955
C90	C	1.499820	-0.432066	-0.265536
H91	H	1.475461	-0.358010	-0.319133
H92	H	1.556005	-0.489125	-0.318346
H93	H	1.426132	-0.472542	-0.241399
C94	C	1.667519	0.347323	-0.364232
H95	H	1.600860	0.383413	-0.305854
H96	H	1.744668	0.336057	-0.312702
H97	H	1.677753	0.402721	-0.440498
H98	H	0.869188	0.378357	0.095591
H99	H	0.893309	0.162288	0.230308
H100	H	0.868234	0.378589	-0.093924
C101	C	1.666201	0.349538	-0.630784
H102	H	1.679773	0.402010	-0.552887
H103	H	1.741352	0.339517	-0.685774
H104	H	1.597743	0.388223	-0.685003
H105	H	1.712960	0.146049	-0.618988
C106	C	1.704700	-0.458794	-0.140293
H107	H	1.763074	-0.395532	-0.143521
H108	H	1.721749	-0.510973	-0.060653
H109	H	1.713837	-0.509850	-0.221746
H110	H	1.676060	-0.225085	-0.136971
H111	H	1.712937	0.144346	-0.380430
H112	H	1.540865	-0.025703	-0.378725
C113	C	1.575517	-0.049808	-0.631747
H114	H	1.634847	-0.011996	-0.689172
H115	H	1.618786	-0.089499	-0.554215
H116	H	1.535922	-0.111809	-0.683659
