data_functionalizedCrystal
_audit_creation_method	'MofGen! by Chris Wilmer'
_symmetry_space_group_name_H-M	'P1'
_symmetry_Int_Tables_number	1
_symmetry_cell_setting	triclinic
loop_
_symmetry_equiv_pos_as_xyz
  x,y,z
_cell_length_a	14.908571
_cell_length_b	18.050590
_cell_length_c	14.908308
_cell_angle_alpha	86.735264
_cell_angle_beta	89.824947
_cell_angle_gamma	86.714611
loop_
_atom_site_label
_atom_site_type_symbol
_atom_site_fract_x
_atom_site_fract_y
_atom_site_fract_z
Zn1	Zn	1.345312	-0.387560	0.587562
Zn2	Zn	1.353897	-0.505027	0.437196
Zn3	Zn	1.203627	-0.373296	0.428561
Zn4	Zn	1.194925	-0.504144	0.578848
O5	O	1.274440	-0.442507	0.508042
O6	O	1.472277	-0.409481	0.574877
O7	O	1.341198	-0.481952	0.310226
O8	O	1.222470	-0.271267	0.449685
O9	O	1.478585	-0.495784	0.464404
O10	O	1.326566	-0.281747	0.566503
O11	O	1.230795	-0.385170	0.303882
O12	O	1.076646	-0.384314	0.441236
O13	O	1.207640	-0.494280	0.705828
O14	O	1.070253	-0.480448	0.551651
O15	O	1.318128	-0.408626	0.712231
O16	O	1.332761	-0.608830	0.455954
O17	O	1.215964	-0.608182	0.560025
C18	C	1.040824	-0.430738	0.494561
C19	C	0.940881	-0.425722	0.488816
C20	C	1.274373	-0.635454	0.508002
C21	C	1.274425	-0.718003	0.508020
C22	C	0.746477	-0.516542	0.592840
C23	C	0.652572	-0.511831	0.587444
C24	C	0.659162	-0.411588	0.472634
C25	C	0.753068	-0.416298	0.478030
C26	C	0.796722	-0.468778	0.538134
C27	C	0.890630	-0.473491	0.543524
C28	C	0.897218	-0.373245	0.428719
C29	C	0.803312	-0.368535	0.423324
C30	C	1.338059	-0.917789	0.451517
C31	C	1.355286	-0.971896	0.534844
C32	C	1.274474	-0.869138	0.508059
C33	C	1.257337	-0.962119	0.424773
C34	C	1.274523	-1.015126	0.508089
C35	C	1.291740	-0.922161	0.591431
C36	C	1.193756	-0.912375	0.481303
C37	C	1.210949	-0.966460	0.564685
C38	C	1.274448	-0.785037	0.508040
C39	C	1.274549	-1.099225	0.508117
C40	C	1.508969	-0.454322	0.521575
C41	C	1.608911	-0.459357	0.527343
C42	C	1.260956	-0.452946	0.742567
C43	C	1.255209	-0.457394	0.842507
C44	C	1.274531	-0.248808	0.508103
C45	C	1.274570	-0.166266	0.508129
C46	C	1.287924	-0.432058	0.274432
C47	C	1.293845	-0.427409	0.174503
C48	C	1.359460	-0.376544	1.036974
C49	C	1.354064	-0.380721	1.130877
C50	C	1.239016	-0.469921	1.124218
C51	C	1.244412	-0.465744	1.030315
C52	C	1.304638	-0.419055	0.986696
C53	C	1.310038	-0.414882	0.892792
C54	C	1.194986	-0.504077	0.886134
C55	C	1.189590	-0.508254	0.980037
H56	H	0.926172	-0.516224	0.592462
H57	H	1.150348	-0.538695	0.845188
H58	H	0.782022	-0.559276	0.641774
O59	O	0.616605	-0.360654	0.414307
C60	C	0.474846	-0.308888	0.355235
C61	C	0.522928	-0.366631	0.421296
H62	H	0.399100	-0.313691	0.360877
H63	H	0.497364	-0.319498	0.283723
H64	H	0.492485	-0.250685	0.372245
H65	H	0.505312	-0.424857	0.404368
H66	H	0.500407	-0.355957	0.492789
H67	H	1.242821	-0.979829	0.354328
O68	O	0.760865	-0.317659	0.364846
C69	C	0.661741	-0.296792	0.237419
C70	C	0.709774	-0.354489	0.303573
H71	H	0.620408	-0.326546	0.187875
H72	H	0.713747	-0.263470	0.199175
H73	H	0.615458	-0.257636	0.276281
H74	H	0.756055	-0.393693	0.264780
H75	H	0.657720	-0.387757	0.341818
O76	O	1.112287	-0.881329	0.454417
C77	C	0.981831	-0.804630	0.493050
C78	C	1.074069	-0.839760	0.523632
H79	H	0.950912	-0.771001	0.548987
H80	H	0.935673	-0.850346	0.477073
H81	H	0.990652	-0.766492	0.430412
H82	H	1.065333	-0.877891	0.586288
H83	H	1.120193	-0.794006	0.539549
O84	O	1.368557	-0.369467	0.850559
C85	C	1.482131	-0.281462	0.867081
C86	C	1.415884	-0.332854	0.915019
H87	H	1.520426	-0.251859	0.919177
H88	H	1.443431	-0.238552	0.820774
H89	H	1.531625	-0.315974	0.825794
H90	H	1.366374	-0.298404	0.956354
H91	H	1.454643	-0.375766	0.961273
H92	H	1.140554	-0.546266	1.015564
O93	O	1.417864	-0.331088	0.994631
C94	C	1.463262	-0.205695	0.968487
C95	C	1.397046	-0.257087	1.016475
H96	H	1.446466	-0.145856	0.986145
H97	H	1.457697	-0.209947	0.892725
H98	H	1.534693	-0.223249	0.991116
H99	H	1.325586	-0.239567	0.993920
H100	H	1.402689	-0.252828	1.092229
H101	H	0.938137	-0.334354	0.384171
O102	O	1.309131	-0.901282	0.675565
C103	C	1.341115	-0.941211	0.829710
C104	C	1.321405	-0.964960	0.734482
H105	H	1.351063	-0.992682	0.877367
H106	H	1.282246	-0.904402	0.853847
H107	H	1.404697	-0.908961	0.828399
H108	H	1.257851	-0.997239	0.735718
H109	H	1.380325	-1.001733	0.710384
O110	O	1.180582	-0.515246	1.166740
C111	C	1.121215	-0.561143	1.308454
C112	C	1.187453	-0.509802	1.260414
H113	H	1.126735	-0.556747	1.384196
H114	H	1.138022	-0.621024	1.290969
H115	H	1.049797	-0.543626	1.285750
H116	H	1.258894	-0.527252	1.283091
H117	H	1.170569	-0.449933	1.277899
O118	O	1.402287	-0.892408	0.394530
C119	C	1.520531	-0.924130	0.290564
C120	C	1.447840	-0.952976	0.355082
H121	H	1.557368	-0.973083	0.258638
H122	H	1.570412	-0.892713	0.329481
H123	H	1.487577	-0.885226	0.235759
H124	H	1.480715	-0.991909	0.409900
H125	H	1.397967	-0.984351	0.316102
O126	O	0.603901	-0.558307	0.640623
C127	C	0.607276	-0.658196	0.755114
C128	C	0.662505	-0.605620	0.694921
H129	H	0.654632	-0.696452	0.799042
H130	H	0.565693	-0.692985	0.711273
H131	H	0.560601	-0.624031	0.799633
H132	H	0.709229	-0.639727	0.650391
H133	H	0.704028	-0.570829	0.738814
O134	O	1.436811	-1.002765	0.561840
C135	C	1.586524	-0.981116	0.610659
C136	C	1.494242	-0.946068	0.580089
H137	H	1.632976	-0.935294	0.625440
H138	H	1.616971	-1.015558	0.555213
H139	H	1.577917	-1.018454	0.674020
H140	H	1.502771	-0.908696	0.516747
H141	H	1.463827	-0.911671	0.635589
H142	H	1.157195	-0.987707	0.612572
H143	H	1.398704	-0.346103	1.171810
