data_functionalizedCrystal
_audit_creation_method	'MofGen! by Chris Wilmer'
_symmetry_space_group_name_H-M	'P1'
_symmetry_Int_Tables_number	1
_symmetry_cell_setting	triclinic
loop_
_symmetry_equiv_pos_as_xyz
  x,y,z
_cell_length_a	30.570296
_cell_length_b	30.570259
_cell_length_c	30.570330
_cell_angle_alpha	120.004429
_cell_angle_beta	90.000239
_cell_angle_gamma	60.000192
loop_
_atom_site_label
_atom_site_type_symbol
_atom_site_fract_x
_atom_site_fract_y
_atom_site_fract_z
O1	O	-0.300073	-0.385861	-0.013023
O2	O	-0.236464	-0.296283	0.012944
O3	O	-0.236461	-0.385859	-0.076635
O4	O	-0.300076	-0.296285	0.076557
O5	O	-0.309219	-0.313100	-0.076628
O6	O	-0.309221	-0.223524	0.012952
O7	O	-0.372831	-0.313102	-0.013015
Cu8	Cu	-0.347669	-0.261670	-0.000031
Cu9	Cu	-0.261625	-0.347716	-0.000040
O10	O	-0.372833	-0.223526	0.076565
C11	C	-0.159668	-0.049026	0.031436
C12	C	-0.186116	-0.075221	0.031809
C13	C	-0.080457	-0.128236	0.031441
C14	C	-0.107026	-0.154311	0.031814
C15	C	-0.159670	-0.128234	0.031443
C16	C	-0.107023	-0.075223	0.031807
C17	C	-0.159459	0.030153	0.025001
C18	C	-0.184391	0.080190	0.020940
C19	C	-0.236555	0.105286	0.018904
C20	C	-0.263590	0.159538	0.014498
C21	C	-0.263795	0.080354	0.020933
C22	C	-0.238864	0.030321	0.024996
C23	C	-0.186696	0.005221	0.027028
C24	C	-0.239062	-0.134456	0.025017
C25	C	-0.264168	-0.163446	0.020962
C26	C	-0.237102	-0.217644	0.018931
C27	C	-0.264321	-0.249081	0.014532
C28	C	-0.184930	-0.242855	0.020958
C29	C	-0.159825	-0.213865	0.025014
C30	C	-0.186891	-0.159667	0.027042
C31	C	0.005158	-0.134461	0.025010
C32	C	0.059257	-0.163458	0.020946
C33	C	0.086388	-0.217655	0.018915
C34	C	0.145045	-0.249094	0.014513
C35	C	0.059428	-0.242865	0.020942
C36	C	0.005331	-0.213873	0.025003
C37	C	-0.021802	-0.159671	0.027037
C38	C	-0.420635	-0.447881	-0.027232
C39	C	-0.393643	-0.417170	-0.023514
C40	C	-0.394186	-0.500900	-0.027608
C41	C	-0.499847	-0.447882	-0.027233
C42	C	-0.557550	-0.417173	-0.023515
C43	C	-0.473277	-0.500901	-0.027608
C44	C	-0.420632	-0.527100	-0.027241
C45	C	-0.393636	-0.581091	-0.023532
C46	C	-0.473281	-0.421802	-0.027600
C47	C	-0.371827	-0.624709	-0.020534
C48	C	-0.371837	-0.392358	-0.020509
C49	C	-0.604167	-0.392362	-0.020510
C50	C	-0.344466	-0.679430	-0.016775
C51	C	-0.344480	-0.361231	-0.016740
C52	C	-0.662652	-0.361236	-0.016741
C53	C	-0.159667	-0.481163	-0.400699
C54	C	-0.107020	-0.534181	-0.427151
C55	C	-0.159667	-0.481163	-0.321487
C56	C	-0.107020	-0.534181	-0.348059
C57	C	-0.080452	-0.560380	-0.400706
C58	C	-0.186115	-0.455084	-0.348052
C59	C	-0.239060	-0.395339	-0.400486
C60	C	-0.264167	-0.366174	-0.425418
C61	C	-0.237099	-0.391208	-0.477584
C62	C	-0.264318	-0.359587	-0.504618
C63	C	-0.184924	-0.445410	-0.504827
C64	C	-0.159820	-0.474575	-0.479898
C65	C	-0.186888	-0.449537	-0.427727
C66	C	0.005164	-0.639569	-0.480104
C67	C	0.059263	-0.689612	-0.505214
C68	C	0.086395	-0.714710	-0.478149
C69	C	0.145054	-0.768968	-0.505372
C70	C	0.059434	-0.689774	-0.425974
C71	C	0.005337	-0.639735	-0.400866
C72	C	-0.021796	-0.614633	-0.427931
C73	C	-0.239061	-0.395339	-0.235866
C74	C	-0.264165	-0.366170	-0.181763
C75	C	-0.237097	-0.391203	-0.154634
C76	C	-0.264316	-0.359582	-0.095974
C77	C	-0.184925	-0.445401	-0.181597
C78	C	-0.159818	-0.474570	-0.235697
C79	C	-0.186888	-0.449537	-0.262829
O80	O	0.317573	-0.313112	-0.013024
O81	O	0.164388	-0.223537	0.012933
O82	O	0.253964	-0.313125	-0.076643
O83	O	0.227997	-0.223525	0.076552
O84	O	0.253961	-0.385875	-0.076636
O85	O	0.164385	-0.296288	0.012939
O86	O	0.317570	-0.385863	-0.013018
Cu87	Cu	0.240977	-0.347718	-0.000039
Cu88	Cu	0.240981	-0.261682	-0.000046
O89	O	0.227994	-0.296275	0.076558
O90	O	-0.372814	0.304512	-0.013056
O91	O	-0.309206	0.177297	0.012913
O92	O	-0.309198	0.177277	-0.076668
O93	O	-0.372821	0.304532	0.076524
O94	O	-0.236443	0.177276	-0.076670
O95	O	-0.236450	0.177296	0.012911
O96	O	-0.300059	0.304511	-0.013058
Cu97	Cu	-0.261611	0.240903	-0.000074
Cu98	Cu	-0.347653	0.240904	-0.000071
O99	O	-0.300066	0.304531	0.076522
O100	O	0.317585	-0.913961	-0.541138
O101	O	0.164397	-0.786727	-0.477517
O102	O	0.253967	-0.786726	-0.477514
O103	O	0.228015	-0.913963	-0.541141
O104	O	0.253969	-0.786728	-0.550270
O105	O	0.164399	-0.786729	-0.550272
O106	O	0.317587	-0.913963	-0.613894
Cu107	Cu	0.240993	-0.850346	-0.588726
Cu108	Cu	0.240991	-0.850344	-0.502684
O109	O	0.228017	-0.913964	-0.613896
O110	O	-0.300081	-0.296280	-0.613839
O111	O	-0.236461	-0.385859	-0.550237
O112	O	-0.236466	-0.296281	-0.550226
O113	O	-0.300076	-0.385859	-0.613850
O114	O	-0.309222	-0.223523	-0.477464
O115	O	-0.309217	-0.313101	-0.477475
O116	O	-0.372837	-0.223523	-0.541077
Cu117	Cu	-0.347670	-0.261669	-0.502632
Cu118	Cu	-0.261628	-0.347713	-0.588682
O119	O	-0.372832	-0.313101	-0.541088
C120	C	-0.499863	-0.082291	0.338367
C121	C	-0.557566	-0.028301	0.365365
C122	C	-0.473295	-0.108489	0.364813
C123	C	-0.420648	-0.161508	0.259148
C124	C	-0.393653	-0.192218	0.201444
C125	C	-0.394200	-0.187586	0.285714
C126	C	-0.420648	-0.161507	0.338361
C127	C	-0.393655	-0.192217	0.365352
C128	C	-0.473294	-0.108490	0.285720
C129	C	-0.371847	-0.217027	0.387158
C130	C	-0.604185	0.015316	0.387176
C131	C	-0.371844	-0.217030	0.154825
C132	C	-0.344487	-0.248153	0.414514
C133	C	-0.662670	0.070036	0.414539
C134	C	-0.344484	-0.248157	0.096339
C135	C	0.213802	-0.161476	0.338358
C136	C	0.217516	-0.192179	0.365356
C137	C	0.213435	-0.108461	0.364803
C138	C	0.213800	-0.161488	0.259140
C139	C	0.217513	-0.192203	0.201436
C140	C	0.213433	-0.108472	0.285705
C141	C	0.213805	-0.082269	0.338352
C142	C	0.217523	-0.028282	0.365342
C143	C	0.213430	-0.187560	0.285712
C144	C	0.220528	0.015333	0.387147
C145	C	0.220518	-0.216984	0.387166
C146	C	0.220513	-0.217018	0.154817
C147	C	0.224297	0.070051	0.414502
C148	C	0.224283	-0.248103	0.414529
C149	C	0.224276	-0.248150	0.096332
C150	C	-0.420653	0.552167	0.338326
C151	C	-0.393662	0.582880	0.365320
C152	C	-0.473300	0.578248	0.364775
C153	C	-0.420647	0.472940	0.259110
C154	C	-0.393649	0.418943	0.201406
C155	C	-0.473294	0.499142	0.285679
C156	C	-0.499866	0.552166	0.338326
C157	C	-0.557569	0.582878	0.365320
C158	C	-0.394202	0.499142	0.285679
C159	C	-0.604188	0.607691	0.387128
C160	C	-0.371857	0.607693	0.387128
C161	C	-0.371838	0.375320	0.154787
C162	C	-0.662673	0.638820	0.414488
C163	C	-0.344500	0.638823	0.414488
C164	C	-0.344474	0.320592	0.096301
C165	C	0.272455	-0.560424	-0.400704
C166	C	0.272826	-0.534232	-0.427155
C167	C	0.272460	-0.481204	-0.321492
C168	C	0.272830	-0.455132	-0.348064
C169	C	0.272458	-0.481216	-0.400710
C170	C	0.272827	-0.534220	-0.348057
C171	C	0.266024	-0.639604	-0.400490
C172	C	0.261964	-0.689645	-0.425422
C173	C	0.259927	-0.714747	-0.477587
C174	C	0.255522	-0.769002	-0.504622
C175	C	0.261953	-0.689818	-0.504830
C176	C	0.266015	-0.639782	-0.479901
C177	C	0.268048	-0.614675	-0.427731
C178	C	0.266028	-0.475005	-0.480106
C179	C	0.261971	-0.446018	-0.505216
C180	C	0.259938	-0.391818	-0.478151
C181	C	0.255536	-0.360384	-0.505373
C182	C	0.261966	-0.366599	-0.425976
C183	C	0.266026	-0.395586	-0.400869
C184	C	0.268054	-0.449787	-0.427934
C185	C	0.266034	-0.474970	-0.235873
C186	C	0.261972	-0.445967	-0.181771
C187	C	0.259939	-0.391766	-0.154641
C188	C	0.255540	-0.360320	-0.095982
C189	C	0.261963	-0.366560	-0.181604
C190	C	0.266023	-0.395558	-0.235703
C191	C	0.268058	-0.449763	-0.262835
O192	O	0.253961	-0.313024	0.522560
O193	O	0.228005	-0.223469	0.458935
O194	O	0.317576	-0.313042	0.458931
O195	O	0.164389	-0.223451	0.522564
O196	O	0.317572	-0.385804	0.386178
O197	O	0.228000	-0.296231	0.386182
O198	O	0.253956	-0.385786	0.449807
Cu199	Cu	0.240978	-0.347652	0.411352
Cu200	Cu	0.240983	-0.261603	0.497391
O201	O	0.164385	-0.296213	0.449811
C202	C	-0.080415	-0.128330	-0.400739
C203	C	-0.106981	-0.154412	-0.427187
C204	C	-0.159634	-0.049104	-0.321523
C205	C	-0.186079	-0.075306	-0.348091
C206	C	-0.159628	-0.128330	-0.400738
C207	C	-0.106987	-0.075306	-0.348092
C208	C	0.005198	-0.134552	-0.400534
C209	C	0.059297	-0.163548	-0.425470
C210	C	0.086433	-0.217756	-0.477636
C211	C	0.145091	-0.249200	-0.504675
C212	C	0.059474	-0.242973	-0.504875
C213	C	0.005377	-0.213977	-0.479942
C214	C	-0.021759	-0.159769	-0.427771
C215	C	-0.159417	-0.214162	-0.480132
C216	C	-0.184350	-0.243329	-0.505238
C217	C	-0.236516	-0.218293	-0.478169
C218	C	-0.263551	-0.249917	-0.505386
C219	C	-0.263758	-0.164084	-0.425993
C220	C	-0.238827	-0.134917	-0.400890
C221	C	-0.186657	-0.159959	-0.427959
C222	C	-0.159434	0.030096	-0.235907
C223	C	-0.184371	0.080142	-0.181804
C224	C	-0.236537	0.105243	-0.154671
C225	C	-0.263578	0.159509	-0.096011
C226	C	-0.263771	0.080304	-0.181630
C227	C	-0.238837	0.030258	-0.235730
C228	C	-0.186669	0.005157	-0.262866
H229	H	-0.261045	0.010026	0.026653
H230	H	-0.162895	-0.286988	0.019304
Br231	Br	0.212435	-0.071900	0.436903
H232	H	-0.016933	-0.090325	0.026669
H233	H	-0.162163	-0.287465	-0.547719
Br234	Br	-0.508838	-0.350693	-0.028581
H235	H	-0.116982	0.009722	0.026660
H236	H	-0.306646	-0.322043	-0.159815
H237	H	0.081241	-0.143010	-0.403290
H238	H	-0.494631	0.620915	0.408032
H239	H	-0.162210	0.100486	0.019289
H240	H	-0.494620	0.477210	0.264346
Br241	Br	-0.275801	-0.361365	-0.272688
H242	H	0.212845	-0.230229	0.264381
H243	H	-0.016895	-0.090410	-0.358056
H244	H	-0.494610	-0.522824	-0.028202
Br245	Br	-0.508846	-0.071953	0.250167
Br246	Br	-0.322102	-0.537423	-0.028568
Br247	Br	0.212426	-0.071924	0.250156
Br248	Br	-0.322108	0.462598	0.250122
Br249	Br	-0.071450	-0.570695	-0.312497
Br250	Br	-0.031203	-0.248215	-0.516893
Br251	Br	-0.071471	-0.570736	-0.499253
Br252	Br	-0.071429	-0.225523	-0.499286
Br253	Br	-0.508850	-0.071955	0.436906
H254	H	0.273423	-0.412469	-0.326732
Br255	Br	-0.258213	-0.383982	-0.312495
Br256	Br	0.273866	-0.570815	-0.499268
Br257	Br	-0.275798	-0.361357	-0.329682
Br258	Br	0.259190	-0.723892	-0.575633
H259	H	-0.117348	-0.234391	0.026668
Br260	Br	0.273808	-0.570747	-0.312495
H261	H	0.081523	-0.287000	0.019285
Br262	Br	-0.334595	0.114419	0.018171
H263	H	0.260325	-0.466496	-0.159822
Br264	Br	0.268799	-0.548535	-0.272694
Br265	Br	0.268786	-0.605533	-0.329689
H266	H	0.260305	-0.709930	-0.403234
H267	H	-0.306251	0.100746	-0.159533
H268	H	-0.261106	-0.090321	0.026674
H269	H	-0.306647	-0.322045	-0.403233
H270	H	-0.350943	-0.230249	0.264378
Br271	Br	0.268752	-0.605939	-0.516863
Br272	Br	-0.148189	-0.479386	-0.575631
Br273	Br	0.268782	-0.548564	-0.516840
Br274	Br	-0.334972	-0.129226	0.018217
Br275	Br	0.259220	-0.480244	-0.576021
H276	H	0.260311	-0.322463	-0.403942
Br277	Br	0.268778	-0.361366	-0.330065
H278	H	-0.117340	-0.518707	-0.502081
Br279	Br	-0.031658	-0.605504	-0.516838
Br280	Br	0.268766	-0.361346	-0.272295
H281	H	0.260303	-0.322420	-0.159509
H282	H	-0.229339	-0.053369	-0.326761
Br283	Br	-0.071440	-0.038756	-0.312538
H284	H	-0.162192	0.100444	-0.159859
Br285	Br	0.096261	-0.723843	-0.389243
Br286	Br	-0.088635	-0.003967	-0.272734
H287	H	0.081577	-0.287118	-0.547354
Br288	Br	-0.031257	-0.248088	0.027749
Br289	Br	0.095847	-0.723452	-0.576021
H290	H	-0.016615	-0.619435	-0.358385
H291	H	-0.117335	-0.518698	-0.257649
Br292	Br	-0.088614	-0.248148	-0.516870
Br293	Br	-0.334562	-0.130103	-0.389257
Br294	Br	-0.275799	-0.061344	-0.330090
H295	H	-0.162882	-0.465781	-0.159502
H296	H	-0.085696	-0.196967	0.032415
Br297	Br	-0.071460	-0.038702	0.032769
Br298	Br	-0.258211	-0.038678	0.032805
Br299	Br	0.095841	-0.129238	0.018203
H300	H	-0.261013	0.009952	-0.257679
