data_functionalizedCrystal
_audit_creation_method	'MofGen! by Chris Wilmer'
_symmetry_space_group_name_H-M	'P1'
_symmetry_Int_Tables_number	1
_symmetry_cell_setting	triclinic
loop_
_symmetry_equiv_pos_as_xyz
  x,y,z
_cell_length_a	16.625546
_cell_length_b	16.625547
_cell_length_c	16.625539
_cell_angle_alpha	90.027058
_cell_angle_beta	89.969603
_cell_angle_gamma	89.978346
loop_
_atom_site_label
_atom_site_type_symbol
_atom_site_fract_x
_atom_site_fract_y
_atom_site_fract_z
Zn1	Zn	-0.321018	-1.232681	-0.456037
Zn2	Zn	0.178982	-0.732681	0.043963
Zn3	Zn	-0.455861	-1.232584	-0.321200
Zn4	Zn	0.044139	-0.732584	0.178800
Zn5	Zn	-0.321044	-1.097842	-0.321202
Zn6	Zn	0.178956	-0.597842	0.178798
Zn7	Zn	-0.455810	-1.097813	-0.455974
Zn8	Zn	0.044190	-0.597813	0.044026
O9	O	-0.388433	-1.165230	-0.388603
O10	O	0.111567	-0.665230	0.111397
O11	O	-0.338915	-1.345500	-0.438176
O12	O	0.161085	-0.845500	0.061824
O13	O	-0.438009	-1.214682	-0.208367
O14	O	0.061991	-0.714682	0.291633
O15	O	-0.208208	-1.115782	-0.339116
O16	O	0.291792	-0.615782	0.160884
O17	O	-0.437984	-1.345429	-0.339111
O18	O	0.062016	-0.845429	0.160889
O19	O	-0.208189	-1.214847	-0.438179
O20	O	0.291811	-0.714847	0.061821
O21	O	-0.338960	-1.115688	-0.208370
O22	O	0.161040	-0.615688	0.291630
O23	O	-0.338911	-0.985006	-0.339055
O24	O	0.161089	-0.485006	0.160945
O25	O	-0.437897	-1.115731	-0.568815
O26	O	0.062103	-0.615731	-0.068815
O27	O	-0.437923	-0.984984	-0.438071
O28	O	0.062077	-0.484984	0.061929
O29	O	-0.338866	-1.214818	-0.568861
O30	O	0.161134	-0.714818	-0.068861
O31	O	-0.568686	-1.214653	-0.339050
O32	O	-0.068686	-0.714653	0.160950
O33	O	-0.568649	-1.115638	-0.438068
O34	O	-0.068649	-0.615638	0.061932
C35	C	-0.388415	-0.955739	-0.388557
C36	C	0.111585	-0.455739	0.111443
C37	C	-0.388426	-0.866118	-0.388556
C38	C	0.111574	-0.366118	0.111444
C39	C	-0.388427	-0.793335	-0.388564
C40	C	0.111573	-0.293335	0.111436
C41	C	-0.388430	-0.702027	-0.388580
C42	C	0.111570	-0.202027	0.111420
C43	C	-0.388436	-0.629251	-0.388598
C44	C	0.111564	-0.129251	0.111402
C45	C	-0.388441	-0.537936	-0.388614
C46	C	0.111559	-0.037936	0.111386
C47	C	-0.597924	-1.165154	-0.388570
C48	C	-0.097924	-0.665154	0.111430
C49	C	-0.687545	-1.165195	-0.388582
C50	C	-0.187545	-0.665195	0.111418
C51	C	-1.015721	-1.165335	-0.388666
C52	C	-0.515721	-0.665335	0.111334
C53	C	-0.924412	-1.165294	-0.388645
C54	C	-0.424412	-0.665294	0.111355
C55	C	-0.851636	-1.165264	-0.388624
C56	C	-0.351636	-0.665264	0.111376
C57	C	-0.760321	-1.165224	-0.388603
C58	C	-0.260321	-0.665224	0.111397
C59	C	-0.178124	-1.165328	-0.388655
C60	C	0.321876	-0.665328	0.111345
C61	C	-0.088503	-1.165370	-0.388677
C62	C	0.411497	-0.665370	0.111323
C63	C	-0.388373	-1.165282	-0.598912
C64	C	0.111627	-0.665282	-0.098912
C65	C	-0.388347	-1.165305	-0.688534
C66	C	0.111653	-0.665305	-0.188534
C67	C	-0.388449	-0.375539	-0.388640
C68	C	0.111551	0.124461	0.111360
C69	C	-0.388447	-0.465160	-0.388631
C70	C	0.111553	0.034840	0.111369
C71	C	-0.388257	-1.165342	-1.016709
C72	C	0.111743	-0.665342	-0.516709
C73	C	-0.388285	-1.165329	-0.925401
C74	C	0.111715	-0.665329	-0.425401
C75	C	-0.388303	-1.165324	-0.852624
C76	C	0.111697	-0.665324	-0.352624
C77	C	-0.388329	-1.165310	-0.761310
C78	C	0.111671	-0.665310	-0.261310
C79	C	-0.388435	-1.165224	-0.179113
C80	C	0.111565	-0.665224	0.320887
C81	C	-0.388233	-1.165358	-0.089492
C82	C	0.111767	-0.665358	0.410508
