data_functionalizedCrystal
_audit_creation_method	'MofGen! by Chris Wilmer'
_symmetry_space_group_name_H-M	'P1'
_symmetry_Int_Tables_number	1
_symmetry_cell_setting	triclinic
loop_
_symmetry_equiv_pos_as_xyz
  x,y,z
_cell_length_a	17.699077
_cell_length_b	15.944493
_cell_length_c	16.776229
_cell_angle_alpha	89.999222
_cell_angle_beta	89.993415
_cell_angle_gamma	83.377810
loop_
_atom_site_label
_atom_site_type_symbol
_atom_site_fract_x
_atom_site_fract_y
_atom_site_fract_z
O1	O	1.004243	0.106201	-0.066267
O2	O	0.783885	0.120026	-0.066270
O3	O	0.900104	-0.009177	-0.066275
O4	O	0.888023	0.235405	-0.066262
O5	O	0.900089	-0.009185	0.066301
O6	O	0.783869	0.120018	0.066307
O7	O	1.004227	0.106193	0.066309
Zn8	Zn	0.894046	0.113104	0.087357
Zn9	Zn	0.894066	0.113115	-0.087318
O10	O	0.888008	0.235397	0.066314
C11	C	0.755679	0.119528	0.000018
C12	C	0.671659	0.118044	0.000016
C13	C	0.632182	0.117341	0.072285
C14	C	0.553237	0.115933	0.072285
C15	C	0.513770	0.115235	0.000017
C16	C	0.553253	0.115936	-0.072257
C17	C	0.632197	0.117338	-0.072257
C18	C	0.234881	0.110283	-0.072259
C19	C	0.155931	0.108885	-0.072253
C20	C	0.155921	0.108879	0.072284
C21	C	0.234865	0.110281	0.072284
C22	C	0.274342	0.110977	0.000010
C23	C	0.359943	0.112501	0.000010
C24	C	0.428170	0.113717	0.000016
C25	C	0.899603	-0.040475	0.000010
C26	C	0.898122	-0.133721	-0.000000
C27	C	0.966532	-0.369626	0.000015
C28	C	0.929649	-0.420112	-0.065352
C29	C	0.895379	-0.304436	0.000009
C30	C	0.929617	-0.420096	0.065358
C31	C	0.892735	-0.469340	0.000022
C32	C	0.858516	-0.353693	-0.065412
C33	C	0.858494	-0.353674	0.065357
C34	C	0.821559	-0.404126	-0.000026
C35	C	0.896905	-0.209439	0.000001
C36	C	0.891204	-0.564334	0.000025
C37	C	1.032433	0.106691	0.000020
C38	C	1.116453	0.108175	0.000016
C39	C	0.888509	0.266694	0.000028
C40	C	0.889990	0.359940	0.000033
N41	N	0.894038	0.113097	0.206569
N42	N	0.894081	0.113116	-0.206529
C43	C	0.945515	0.055909	0.248283
C44	C	0.945519	0.055908	0.331735
C45	C	0.894049	0.113100	0.373471
C46	C	0.842566	0.170291	0.331751
C47	C	0.842559	0.170287	0.248300
C48	C	0.842593	0.170307	0.668298
C49	C	0.842606	0.170308	0.751755
C50	C	0.945554	0.055929	0.751733
C51	C	0.945547	0.055925	0.668283
C52	C	0.894061	0.113112	0.626569
C53	C	0.894056	0.113111	0.536081
C54	C	0.894057	0.113106	0.463958
H55	H	0.123771	0.108308	0.131132
O56	O	0.273186	0.110807	0.142506
C57	C	0.262461	0.037750	0.186474
H58	H	0.246764	-0.013458	0.144184
H59	H	0.317257	0.014258	0.219253
H60	H	0.214693	0.053375	0.231538
O61	O	0.117713	0.108167	-0.142530
C62	C	0.169481	0.109102	-0.206322
H63	H	0.228892	0.083515	-0.185139
H64	H	0.151484	0.067932	-0.256864
H65	H	0.169926	0.176612	-0.228545
O66	O	0.748420	-0.422535	-0.000171
C67	C	0.735742	-0.470428	-0.068522
H68	H	0.792285	-0.503436	-0.091030
H69	H	0.696297	-0.519667	-0.052810
H70	H	0.708390	-0.426909	-0.116994
H71	H	0.664309	0.117916	0.131134
H72	H	0.267013	0.110848	-0.131108
H73	H	0.521113	0.115362	-0.131099
H74	H	0.987461	0.009356	0.634304
H75	H	0.828465	-0.324652	0.120622
H76	H	0.959674	-0.449094	0.120618
H77	H	0.664338	0.117912	-0.131105
O78	O	0.792704	0.225946	0.792334
C79	C	0.833226	0.277705	0.840606
H80	H	0.892906	0.279048	0.815440
H81	H	0.802327	0.344511	0.841560
H82	H	0.837210	0.251410	0.903852
O83	O	0.995543	0.000271	0.207868
C84	C	1.040991	-0.050191	0.262586
H85	H	1.009966	-0.051092	0.322079
H86	H	1.052547	-0.117292	0.238478
H87	H	1.097208	-0.022996	0.271448
H88	H	0.987436	0.009341	0.365699
H89	H	0.987474	0.009361	0.785705
O90	O	0.792558	0.225942	0.627908
C91	C	0.747123	0.276407	0.682643
H92	H	0.778162	0.277313	0.742121
H93	H	0.735560	0.343507	0.658533
H94	H	0.690908	0.249212	0.691537
O95	O	0.792640	0.225816	0.372414
C96	C	0.803672	0.213546	0.455015
H97	H	0.863850	0.182067	0.466401
H98	H	0.795244	0.277174	0.486727
H99	H	0.760846	0.171477	0.478712
H100	H	0.800639	0.216854	0.214337
H101	H	0.521100	0.115346	0.131133
O102	O	1.039604	-0.350992	-0.000163
C103	C	1.052125	-0.302994	-0.068494
H104	H	0.995505	-0.270144	-0.090951
H105	H	1.091432	-0.253621	-0.052778
H106	H	1.079564	-0.346405	-0.117007
O107	O	0.965623	-0.454702	-0.131220
C108	C	1.041991	-0.437482	-0.131000
H109	H	1.060049	-0.424447	-0.067389
H110	H	1.079852	-0.494239	-0.155690
H111	H	1.047826	-0.379839	-0.169743
H112	H	0.828491	-0.324806	-0.120734
