data_functionalizedCrystal
_audit_creation_method	'MofGen! by Chris Wilmer'
_symmetry_space_group_name_H-M	'P1'
_symmetry_Int_Tables_number	1
_symmetry_cell_setting	triclinic
loop_
_symmetry_equiv_pos_as_xyz
  x,y,z
_cell_length_a	12.827893
_cell_length_b	21.295417
_cell_length_c	12.827885
_cell_angle_alpha	89.961710
_cell_angle_beta	89.980538
_cell_angle_gamma	90.030477
loop_
_atom_site_label
_atom_site_type_symbol
_atom_site_fract_x
_atom_site_fract_y
_atom_site_fract_z
Zn1	Zn	1.597562	-0.250578	-0.590788
Zn2	Zn	1.597409	-0.355860	-0.416023
Zn3	Zn	1.422803	-0.250609	-0.416062
Zn4	Zn	1.422742	-0.355813	-0.590723
O5	O	1.510129	-0.303215	-0.503399
O6	O	1.743778	-0.264551	-0.567616
O7	O	1.574209	-0.341931	-0.269792
O8	O	1.446074	-0.162516	-0.439283
O9	O	1.743665	-0.341901	-0.439217
O10	O	1.574469	-0.162493	-0.567654
O11	O	1.445926	-0.264604	-0.269821
O12	O	1.276559	-0.264558	-0.439220
O13	O	1.445971	-0.341821	-0.736968
O14	O	1.276514	-0.341851	-0.567543
O15	O	1.574410	-0.264505	-0.737016
O16	O	1.574150	-0.443944	-0.439154
O17	O	1.445823	-0.443909	-0.567505
C18	C	1.238619	-0.303203	-0.503379
C19	C	1.122466	-0.303213	-0.503396
C20	C	1.070687	-0.341520	-0.566796
C21	C	0.950637	-0.341531	-0.566814
C22	C	1.509992	-0.466767	-0.503341
C23	C	1.510029	-0.536735	-0.503351
C24	C	1.576908	-0.569599	-0.436587
C25	C	1.576957	-0.635341	-0.436611
C26	C	1.510108	-0.668217	-0.503387
C27	C	1.443224	-0.635346	-0.570165
C28	C	1.443185	-0.569604	-0.570147
N29	N	1.418692	-0.771483	-0.511347
N30	N	1.418732	-0.833934	-0.511358
C31	C	1.510225	-0.866292	-0.503447
N32	N	1.601678	-0.833839	-0.495504
N33	N	1.601636	-0.771382	-0.495488
C34	C	1.510144	-0.739503	-0.503415
C35	C	1.577163	-0.970441	-0.436705
C36	C	1.577214	-1.036185	-0.436736
C37	C	1.443472	-1.036188	-0.570284
C38	C	1.443431	-0.970446	-0.570259
C39	C	1.510275	-0.937576	-0.503464
C40	C	1.782699	-0.303228	-0.503420
C41	C	1.898852	-0.303233	-0.503428
C42	C	1.510201	-0.303154	-0.775969
C43	C	1.510232	-0.303128	-0.892123
C44	C	1.510295	-0.139025	-0.503480
C45	C	1.510366	-0.069057	-0.503515
C46	C	1.446696	-0.341371	-0.943884
C47	C	1.446727	-0.341345	-1.063934
C48	C	1.510117	-0.303231	-0.231889
C49	C	1.510289	-0.303079	-0.115737
H50	H	0.906108	-0.374329	-0.621090
C51	C	1.373235	-0.385576	-1.124067
N52	N	1.317878	-0.418892	-1.169361
C53	C	1.369939	-1.072348	-0.643742
N54	N	1.314553	-1.099587	-0.699073
H55	H	1.115234	-0.374305	-0.621065
H56	H	1.564682	-0.270334	-1.071230
H57	H	1.564653	-0.270370	-0.936685
H58	H	1.388967	-0.943686	-0.624620
H59	H	0.943374	-0.270438	-0.449143
H60	H	1.077919	-0.270423	-0.449134
C61	C	1.650428	-0.533446	-0.363099
N62	N	1.705799	-0.506215	-0.307743
C63	C	1.369622	-0.533453	-0.643609
N64	N	1.314218	-0.506223	-0.698946
H65	H	1.631422	-0.662104	-0.382244
C66	C	1.373176	-0.385629	-0.883687
N67	N	1.317797	-0.418965	-0.838349
H68	H	1.388797	-0.662118	-0.624536
C69	C	1.650790	-1.072335	-0.363285
N70	N	1.706206	-1.099564	-0.307959
C71	C	1.650708	-0.934283	-0.363246
N72	N	1.706106	-0.907050	-0.307919
