data_functionalizedCrystal
_audit_creation_method	'MofGen! by Chris Wilmer'
_symmetry_space_group_name_H-M	'P1'
_symmetry_Int_Tables_number	1
_symmetry_cell_setting	triclinic
loop_
_symmetry_equiv_pos_as_xyz
  x,y,z
_cell_length_a	14.519709
_cell_length_b	26.210047
_cell_length_c	27.731996
_cell_angle_alpha	90.010646
_cell_angle_beta	83.150767
_cell_angle_gamma	90.010823
loop_
_atom_site_label
_atom_site_type_symbol
_atom_site_fract_x
_atom_site_fract_y
_atom_site_fract_z
O1	O	1.222759	0.042370	0.063362
O2	O	0.954149	0.042386	0.070824
O3	O	1.096821	0.042366	-0.003266
O4	O	1.080087	0.042389	0.137451
O5	O	1.096777	-0.042492	-0.003266
O6	O	0.954105	-0.042472	0.070823
O7	O	1.222714	-0.042489	0.063362
Cu8	Cu	1.088405	-0.050229	0.067092
Cu9	Cu	1.088458	0.050126	0.067093
O10	O	1.080042	-0.042469	0.137451
C11	C	0.919773	-0.000041	0.070476
C12	C	0.817411	-0.000035	0.069434
C13	C	0.442583	-0.000059	0.065597
C14	C	0.546872	-0.000052	0.066663
C15	C	0.629994	-0.000047	0.067515
C16	C	0.734289	-0.000041	0.068581
N17	N	1.088375	-0.120812	0.067092
C18	C	1.143949	-0.473325	0.096469
C19	C	1.143977	-0.686984	0.096469
O20	O	1.191207	-0.714604	0.121441
N21	N	1.088480	-0.713706	0.067088
C22	C	1.032977	-0.687011	0.037702
O23	O	0.985782	-0.714643	0.012708
C24	C	1.032955	-0.473353	0.037700
C25	C	1.088449	-0.446634	0.067087
C26	C	1.199439	-0.446605	0.125854
C27	C	1.199428	-0.393194	0.125855
C28	C	1.143927	-0.366502	0.096473
C29	C	1.088438	-0.393222	0.067089
C30	C	0.977458	-0.446659	0.008312
C31	C	0.977459	-0.393241	0.008314
C32	C	1.032953	-0.366522	0.037700
C33	C	1.032926	-0.313119	0.037708
N34	N	1.088422	-0.286397	0.067090
C35	C	1.143923	-0.313088	0.096472
C36	C	1.032991	-0.799184	0.037706
C37	C	1.032995	-0.852599	0.037707
C38	C	1.143996	-0.852567	0.096473
C39	C	1.143987	-0.799152	0.096475
C40	C	1.088488	-0.772462	0.067087
C41	C	1.143895	-0.200920	0.096474
C42	C	1.143876	-0.147504	0.096474
C43	C	1.032879	-0.147540	0.037706
C44	C	1.032894	-0.200951	0.037707
C45	C	1.088409	-0.227640	0.067092
O46	O	0.985728	-0.285466	0.012745
O47	O	1.191127	-0.285447	0.121455
C48	C	1.143961	-0.526737	0.096468
C49	C	1.088471	-0.553456	0.067084
C50	C	1.032970	-0.526765	0.037701
C51	C	1.088475	-0.606871	0.067085
C52	C	1.143976	-0.633562	0.096467
C53	C	1.199473	-0.606839	0.125848
C54	C	1.199461	-0.553428	0.125850
C55	C	0.977474	-0.553488	0.008320
C56	C	0.977489	-0.606899	0.008321
C57	C	1.032989	-0.633591	0.037703
C58	C	1.257090	-0.000060	0.063709
C59	C	1.359453	-0.000063	0.064752
C60	C	1.096455	-0.000065	-0.021275
C61	C	1.095420	-0.000070	-0.074936
N62	N	1.088496	0.120710	0.067089
C63	C	1.088930	0.046212	-0.407683
C64	C	1.084998	0.046221	-0.609361
O65	O	1.084470	0.085560	-0.635434
N66	N	1.084485	-0.000035	-0.634580
C67	C	1.084949	-0.046296	-0.609377
O68	O	1.084413	-0.085639	-0.635455
C69	C	1.088875	-0.046305	-0.407700
C70	C	1.089397	-0.000046	-0.382484
C71	C	1.089451	0.092467	-0.382467
C72	C	1.090439	0.092464	-0.332051
C73	C	1.090906	0.046206	-0.306852
C74	C	1.090385	-0.000049	-0.332068
C75	C	1.089332	-0.092565	-0.382498
C76	C	1.090311	-0.092563	-0.332075
C77	C	1.090833	-0.046305	-0.306859
C78	C	1.091840	-0.046309	-0.256453
N79	N	1.092352	-0.000053	-0.231233
C80	C	1.091885	0.046204	-0.256433
C81	C	1.082890	-0.046288	-0.715260
C82	C	1.081911	-0.046286	-0.765679
C83	C	1.081957	0.046231	-0.765659
C84	C	1.082944	0.046228	-0.715240
C85	C	1.083403	-0.000032	-0.690041
C86	C	1.093961	0.046195	-0.150556
C87	C	1.094953	0.046188	-0.100136
C88	C	1.094901	-0.046329	-0.100160
C89	C	1.093914	-0.046322	-0.150576
C90	C	1.093441	-0.000056	-0.175772
O91	O	1.092357	-0.085628	-0.230348
O92	O	1.092401	0.085541	-0.230345
C93	C	1.087942	0.046215	-0.458099
C94	C	1.087421	-0.000040	-0.483316
C95	C	1.087888	-0.046298	-0.458116
C96	C	1.086441	-0.000038	-0.533735
C97	C	1.085974	0.046219	-0.558934
C98	C	1.086487	0.092475	-0.533715
C99	C	1.087475	0.092472	-0.483299
C100	C	1.087375	-0.092554	-0.483336
C101	C	1.086388	-0.092547	-0.533752
C102	C	1.085921	-0.046289	-0.558951
C103	C	1.080408	-0.000037	0.155460
C104	C	1.081443	-0.000028	0.209121
H105	H	1.189065	-0.125751	0.120407
H106	H	1.090672	-0.130236	-0.311560
H107	H	0.987695	-0.222708	0.013784
H108	H	1.093498	-0.083990	-0.171108
H109	H	1.095286	-0.083991	-0.079633
H110	H	1.189183	-0.874309	0.120400
H111	H	1.189101	-0.222644	0.120402
H112	H	1.088909	-0.130234	-0.403020
H113	H	1.244650	-0.531677	0.149780
H114	H	1.087899	0.130141	-0.462772
H115	H	1.087757	-0.130223	-0.462824
H116	H	1.244620	-0.371443	0.149783
H117	H	0.987796	-0.874349	0.013783
H118	H	1.244639	-0.468332	0.149780
H119	H	1.244659	-0.628581	0.149775
H120	H	1.189174	-0.777400	0.120404
H121	H	1.089067	0.130137	-0.402979
H122	H	0.987795	-0.777458	0.013774
H123	H	0.932290	-0.628650	-0.015608
H124	H	1.093571	0.083869	-0.171064
H125	H	0.932265	-0.371513	-0.015618
H126	H	0.932271	-0.468405	-0.015618
H127	H	0.987689	-0.125798	0.013785
H128	H	1.081499	-0.083955	-0.786207
H129	H	0.932279	-0.531761	-0.015608
H130	H	1.095380	0.083859	-0.079607
H131	H	1.090860	0.130133	-0.311524
H132	H	1.083367	0.083896	-0.694712
H133	H	1.081578	0.083896	-0.786185
H134	H	1.086110	0.130140	-0.554241
H135	H	1.083269	-0.083961	-0.694748
H136	H	1.085970	-0.130219	-0.554279
