data_functionalizedCrystal
_audit_creation_method	'MofGen! by Chris Wilmer'
_symmetry_space_group_name_H-M	'P1'
_symmetry_Int_Tables_number	1
_symmetry_cell_setting	triclinic
loop_
_symmetry_equiv_pos_as_xyz
  x,y,z
_cell_length_a	17.038272
_cell_length_b	22.610064
_cell_length_c	17.019448
_cell_angle_alpha	86.121092
_cell_angle_beta	87.247973
_cell_angle_gamma	90.003146
loop_
_atom_site_label
_atom_site_type_symbol
_atom_site_fract_x
_atom_site_fract_y
_atom_site_fract_z
O1	O	1.037236	0.040398	0.171273
O2	O	1.537236	0.540398	0.671273
O3	O	0.809608	0.040554	0.168554
O4	O	1.309608	0.540554	0.668554
O5	O	0.929765	0.046291	0.055509
O6	O	1.429765	0.546291	0.555509
O7	O	0.917079	0.034661	0.284318
O8	O	1.417079	0.534661	0.784318
O9	O	0.929744	-0.052079	0.055525
O10	O	1.429744	0.447921	0.555525
O11	O	0.809586	-0.057816	0.168570
O12	O	1.309586	0.442184	0.668570
O13	O	1.037215	-0.057972	0.171290
O14	O	1.537215	0.442028	0.671290
Zn15	Zn	0.923397	-0.073512	0.169932
Zn16	Zn	1.423397	0.426488	0.669932
Zn17	Zn	0.923425	0.056095	0.169911
Zn18	Zn	1.423425	0.556095	0.669911
O19	O	0.917058	-0.063709	0.284334
O20	O	1.417058	0.436291	0.784334
C21	C	0.780471	-0.008503	0.166088
C22	C	1.280471	0.491497	0.666088
C23	C	0.693684	-0.008121	0.158708
C24	C	1.193684	0.491879	0.658708
N25	N	0.923384	-0.161965	0.169947
N26	N	1.423384	0.338035	0.669947
C27	C	0.643516	-0.011565	0.226467
C28	C	1.143516	0.488435	0.726467
C29	C	0.561971	-0.011221	0.219528
C30	C	1.061971	0.488779	0.719528
C31	C	0.530595	-0.007427	0.144829
C32	C	1.030595	0.492573	0.644829
C33	C	0.580770	-0.003984	0.077065
C34	C	1.080770	0.496016	0.577065
C35	C	0.662313	-0.004333	0.084004
C36	C	1.162313	0.495667	0.584004
C37	C	0.284857	-0.006197	0.120311
C38	C	0.784857	0.493803	0.620311
C39	C	0.203307	-0.005847	0.113376
C40	C	0.703307	0.494153	0.613376
C41	C	0.184514	-0.013084	0.255840
C42	C	0.684514	0.486916	0.755840
C43	C	0.266059	-0.013429	0.262774
C44	C	0.766059	0.486571	0.762774
C45	C	0.316227	-0.009989	0.195009
C46	C	0.816227	0.490011	0.695009
C47	C	0.447243	-0.007073	0.137734
C48	C	0.947243	0.492927	0.637734
C49	C	0.399577	-0.010348	0.202105
C50	C	0.899577	0.489652	0.702105
C51	C	0.976633	-0.568065	0.119863
C52	C	1.476633	-0.068065	0.619863
C53	C	0.976637	-0.629984	0.119858
C54	C	1.476637	-0.129984	0.619858
O55	O	1.021879	-0.659842	0.077284
O56	O	1.521879	-0.159842	0.577284
N57	N	0.923425	-0.663500	0.169894
N58	N	1.423425	-0.163500	0.669894
C59	C	0.870199	-0.635092	0.219934
C60	C	1.370199	-0.135092	0.719934
O61	O	0.824938	-0.669285	0.262494
O62	O	1.324938	-0.169285	0.762494
C63	C	0.870192	-0.573173	0.219935
C64	C	1.370192	-0.073173	0.719935
C65	C	0.923414	-0.539661	0.169901
C66	C	1.423414	-0.039661	0.669901
C67	C	1.029850	-0.534553	0.069832
C68	C	1.529850	-0.034553	0.569832
C69	C	1.029847	-0.472638	0.069839
C70	C	1.529847	0.027362	0.569839
C71	C	0.976627	-0.444234	0.119876
C72	C	1.476627	0.055766	0.619876
C73	C	0.923410	-0.477746	0.169907
C74	C	1.423410	0.022254	0.669907
C75	C	0.816964	-0.544767	0.269970
C76	C	1.316964	-0.044767	0.769970
C77	C	0.816961	-0.482843	0.269967
C78	C	1.316961	0.017157	0.769967
C79	C	0.870182	-0.449331	0.219932
C80	C	1.370182	0.050669	0.719932
C81	C	0.870187	-0.387427	0.219952
C82	C	1.370187	0.112573	0.719952
N83	N	0.923400	-0.353912	0.169915
N84	N	1.423400	0.146088	0.669915
C85	C	0.976620	-0.382315	0.119877
C86	C	1.476620	0.117685	0.619877
C87	C	0.870217	-0.765125	0.219928
C88	C	1.370217	-0.265125	0.719928
C89	C	0.870228	-0.827043	0.219932
C90	C	1.370228	-0.327043	0.719932
C91	C	0.976665	-0.821931	0.119854
C92	C	1.476665	-0.321931	0.619854
C93	C	0.976658	-0.760012	0.119854
C94	C	1.476658	-0.260012	0.619854
C95	C	0.923430	-0.731610	0.169891
C96	C	1.423430	-0.231610	0.669891
C97	C	0.976610	-0.252289	0.119896
C98	C	1.476610	0.247711	0.619896
C99	C	0.976604	-0.190369	0.119909
C100	C	1.476604	0.309631	0.619909
C101	C	0.870164	-0.195486	0.219984
C102	C	1.370164	0.304514	0.719984
C103	C	0.870172	-0.257401	0.219974
C104	C	1.370172	0.242599	0.719974
C105	C	0.923398	-0.285801	0.169923
C106	C	1.423398	0.214199	0.669923
O107	O	0.824967	-0.357529	0.262501
O108	O	1.324967	0.142471	0.762501
O109	O	1.021867	-0.348115	0.077318
O110	O	1.521867	0.151885	0.577318
C111	C	1.066352	-0.008913	0.173755
C112	C	1.566352	0.491087	0.673755
C113	C	1.153139	-0.009291	0.181135
C114	C	1.653139	0.490709	0.681135
C115	C	0.929271	-0.001397	0.026096
C116	C	1.429271	0.498603	0.526096
C117	C	0.927821	0.003064	-0.061570
C118	C	1.427821	0.503064	0.438430
N119	N	0.923445	0.144548	0.169891
N120	N	1.423445	0.644548	0.669891
C121	C	0.919691	0.031044	-0.557395
C122	C	1.419691	0.531044	-0.057395
C123	C	0.921046	0.026841	-0.475023
C124	C	1.421046	0.526841	0.024977
C125	C	0.921706	-0.028882	-0.433844
C126	C	1.421706	0.471118	0.066156
C127	C	0.921019	-0.080406	-0.475042
C128	C	1.421019	0.419594	0.024958
C129	C	0.919669	-0.076202	-0.557413
C130	C	1.419669	0.423798	-0.057413
C131	C	0.925784	-0.044256	-0.185139
C132	C	1.425784	0.455744	0.314861
C133	C	0.927131	-0.048456	-0.102762
C134	C	1.427131	0.451544	0.397238
C135	C	0.927160	0.058791	-0.102748
C136	C	1.427160	0.558791	0.397252
C137	C	0.925806	0.062990	-0.185120
C138	C	1.425806	0.562990	0.314880
C139	C	0.925123	0.011466	-0.226312
C140	C	1.425123	0.511466	0.273688
C141	C	0.923088	-0.033179	-0.349647
C142	C	1.423088	0.466821	0.150353
C143	C	0.923746	0.015764	-0.310508
C144	C	1.423746	0.515764	0.189492
C145	C	0.917552	-0.016019	0.313747
C146	C	1.417552	0.483981	0.813747
C147	C	0.919002	-0.020476	0.401413
C148	C	1.419002	0.479524	0.901413
H149	H	0.669055	-0.014654	0.287295
H150	H	1.169055	0.485346	0.787295
H151	H	1.019946	-0.163085	0.079165
H152	H	1.519946	0.336915	0.579165
N153	N	0.815851	-0.736127	0.271063
N154	N	1.315851	-0.236127	0.771063
N155	N	0.816849	-0.746768	0.344041
N156	N	1.316849	-0.246768	0.844041
H157	H	0.778452	-0.726292	0.380156
H158	H	1.278452	-0.226292	0.880156
H159	H	1.019998	-0.845068	0.079109
H160	H	1.519998	-0.345068	0.579109
H161	H	0.927645	-0.093835	-0.069235
H162	H	1.427645	0.406165	0.430765
N163	N	0.133257	-0.016610	0.325047
N164	N	0.633257	0.483390	0.825047
N165	N	0.085659	-0.058690	0.337072
N166	N	0.585659	0.441310	0.837072
H167	H	0.049458	-0.061182	0.385951
H168	H	0.549458	0.438818	0.885951
N169	N	0.925062	-0.096887	-0.227201
N170	N	1.425062	0.403113	0.272799
N171	N	0.869221	-0.106684	-0.269597
N172	N	1.369221	0.393316	0.230403
H173	H	0.868708	-0.143857	-0.299305
H174	H	1.368708	0.356143	0.200695
H175	H	0.826898	-0.854325	0.260683
H176	H	1.326898	-0.354325	0.760683
H177	H	0.921609	0.068794	-0.441488
H178	H	1.421609	0.568794	0.058512
N179	N	0.921674	-0.137325	-0.432979
N180	N	1.421674	0.362675	0.067021
N181	N	0.866427	-0.172931	-0.438620
N182	N	1.366427	0.327069	0.061380
H183	H	0.866886	-0.213132	-0.408913
H184	H	1.366886	0.286868	0.091087
H185	H	0.425126	-0.013440	0.262924
H186	H	0.925126	0.486560	0.762924
H187	H	0.919147	0.076420	-0.590916
H188	H	1.419147	0.576420	-0.090916
H189	H	0.923213	0.061134	-0.344039
H190	H	1.423213	0.561134	0.155961
N191	N	1.030987	-0.725790	0.068698
N192	N	1.530987	-0.225790	0.568698
N193	N	1.078473	-0.751164	0.024001
N194	N	1.578473	-0.251164	0.524001
H195	H	1.116830	-0.726997	-0.012148
H196	H	1.616830	-0.226997	0.487852
N197	N	0.918968	-0.128834	-0.599480
N198	N	1.418968	0.371166	-0.099480
N199	N	0.919557	-0.178584	-0.562707
N200	N	1.419557	0.321416	-0.062707
H201	H	0.919064	-0.215758	-0.592416
H202	H	1.419064	0.284242	-0.092416
H203	H	0.177765	-0.002757	0.052544
H204	H	0.677765	0.497243	0.552544
N205	N	0.925127	0.119914	-0.227168
N206	N	1.425127	0.619914	0.272832
N207	N	0.925741	0.165911	-0.190379
N208	N	1.425741	0.665911	0.309621
H209	H	0.925258	0.206116	-0.220075
H210	H	1.425258	0.706116	0.279925
N211	N	1.084222	-0.438435	0.018712
N212	N	1.584222	0.061565	0.518712
N213	N	1.059514	-0.401310	-0.031958
N214	N	1.559514	0.098690	0.468042
H215	H	1.097927	-0.377167	-0.068072
H216	H	1.597927	0.122833	0.431928
N217	N	0.336083	-0.002680	0.051086
N218	N	0.836083	0.497320	0.551086
N219	N	0.308056	0.000710	-0.015603
N220	N	0.808056	0.500710	0.484397
H221	H	0.344237	0.003195	-0.064497
H222	H	0.844237	0.503195	0.435503
H223	H	0.923624	-0.078549	-0.316110
H224	H	1.423624	0.421451	0.183890
H225	H	0.521127	-0.014025	0.274705
H226	H	1.021127	0.485975	0.774705
H227	H	0.291599	-0.016512	0.323601
H228	H	0.791599	0.483488	0.823601
N229	N	0.927857	0.111412	-0.060660
N230	N	1.427857	0.611412	0.439340
N231	N	0.929060	0.107654	0.012884
N232	N	1.429060	0.607654	0.512884
H233	H	0.929554	0.144820	0.042610
H234	H	1.429554	0.644820	0.542610
N235	N	1.084209	-0.563553	0.018698
N236	N	1.584209	-0.063553	0.518698
N237	N	1.083212	-0.552907	-0.054279
N238	N	1.583212	-0.052907	0.445721
H239	H	1.121609	-0.573382	-0.090395
H240	H	1.621609	-0.073382	0.409605
H241	H	1.019950	-0.275405	0.079139
H242	H	1.519950	0.224595	0.579139
N243	N	0.762598	-0.578979	0.321091
N244	N	1.262598	-0.078979	0.821091
N245	N	0.715088	-0.553599	0.365757
N246	N	1.215088	-0.053599	0.865757
H247	H	0.676690	-0.577761	0.401866
H248	H	1.176690	-0.077761	0.901866
N249	N	0.548710	-0.000116	0.000767
N250	N	1.048710	0.499884	0.500767
N251	N	0.475903	0.000196	-0.005421
N252	N	0.975903	0.500196	0.494579
H253	H	0.453261	0.002929	-0.059308
H254	H	0.953261	0.502929	0.440692
H255	H	0.703160	-0.001528	0.028828
H256	H	1.203160	0.498472	0.528828
H257	H	0.773614	-0.459721	0.310711
H258	H	1.273614	0.040279	0.810711
N259	N	0.415191	-0.003205	0.061433
N260	N	0.915191	0.496795	0.561433
N261	N	0.371787	-0.043669	0.041678
N262	N	0.871787	0.456331	0.541678
H263	H	0.349147	-0.040939	-0.012210
H264	H	0.849147	0.459061	0.487790
H265	H	0.826835	-0.172350	0.260726
H266	H	1.326835	0.327650	0.760726
N267	N	0.815807	-0.291628	0.271089
N268	N	1.315807	0.208372	0.771089
N269	N	0.768293	-0.266257	0.315761
N270	N	1.268293	0.233743	0.815761
H271	H	0.729890	-0.290424	0.351856
H272	H	1.229890	0.209576	0.851856
