data_functionalizedCrystal
_audit_creation_method	'MofGen! by Chris Wilmer'
_symmetry_space_group_name_H-M	'P1'
_symmetry_Int_Tables_number	1
_symmetry_cell_setting	triclinic
loop_
_symmetry_equiv_pos_as_xyz
  x,y,z
_cell_length_a	17.699083
_cell_length_b	15.944551
_cell_length_c	16.176319
_cell_angle_alpha	89.992246
_cell_angle_beta	89.998611
_cell_angle_gamma	83.390877
loop_
_atom_site_label
_atom_site_type_symbol
_atom_site_fract_x
_atom_site_fract_y
_atom_site_fract_z
O1	O	1.004260	0.106222	-0.068632
O2	O	1.504260	0.606222	0.431368
O3	O	0.783905	0.120042	-0.068660
O4	O	1.283905	0.620042	0.431340
O5	O	0.900100	-0.009156	-0.068638
O6	O	1.400100	0.490844	0.431362
O7	O	0.888065	0.235419	-0.068654
O8	O	1.388065	0.735419	0.431346
O9	O	0.900084	-0.009164	0.068855
O10	O	1.400084	0.490836	0.568855
O11	O	0.783889	0.120033	0.068833
O12	O	1.283889	0.620033	0.568833
O13	O	1.004244	0.106214	0.068861
O14	O	1.504244	0.606214	0.568861
Cu15	Cu	0.894065	0.113123	0.081401
Cu16	Cu	1.394065	0.613123	0.581401
Cu17	Cu	0.894084	0.113133	-0.081200
Cu18	Cu	1.394084	0.613133	0.418800
O19	O	0.888049	0.235411	0.068839
O20	O	1.388049	0.735411	0.568839
C21	C	0.755700	0.119542	0.000083
C22	C	1.255700	0.619542	0.500083
C23	C	0.671679	0.118057	0.000073
C24	C	1.171679	0.618057	0.500073
C25	C	0.899593	-0.040453	0.000109
C26	C	1.399593	0.459547	0.500109
C27	C	0.898095	-0.133696	0.000109
C28	C	1.398095	0.366304	0.500109
C29	C	0.623187	0.193893	0.000068
C30	C	1.123187	0.693893	0.500068
C31	C	0.544242	0.192492	0.000079
C32	C	1.044242	0.692492	0.500079
C33	C	0.513789	0.115254	0.000089
C34	C	1.013789	0.615254	0.500089
C35	C	0.562287	0.039412	0.000096
C36	C	1.062287	0.539412	0.500096
C37	C	0.641231	0.040814	0.000091
C38	C	1.141231	0.540814	0.500091
C39	C	0.243914	0.033758	0.000117
C40	C	0.743914	0.533758	0.500117
C41	C	0.164964	0.032362	0.000119
C42	C	0.664964	0.532362	0.500119
C43	C	0.146925	0.185436	0.000105
C44	C	0.646925	0.685436	0.500105
C45	C	0.225869	0.186837	0.000100
C46	C	0.725869	0.686837	0.500100
C47	C	0.274360	0.110996	0.000112
C48	C	0.774360	0.610996	0.500112
C49	C	0.359962	0.112516	0.000102
C50	C	0.859962	0.612516	0.500102
C51	C	0.428189	0.113733	0.000093
C52	C	0.928189	0.613733	0.500093
C53	C	0.822492	-0.348393	0.000088
C54	C	1.322492	0.151607	0.500088
C55	C	0.857591	-0.409488	0.067885
C56	C	1.357591	0.090512	0.567885
C57	C	0.895385	-0.304416	0.000102
C58	C	1.395385	0.195584	0.500102
C59	C	0.857624	-0.409464	-0.067672
C60	C	1.357624	0.090536	0.432328
C61	C	0.892762	-0.469323	0.000092
C62	C	1.392762	0.030677	0.500092
C63	C	0.930505	-0.364283	0.067955
C64	C	1.430505	0.135717	0.567955
C65	C	0.930527	-0.364252	-0.067663
C66	C	1.430527	0.135748	0.432337
C67	C	0.965680	-0.425329	0.000150
C68	C	1.465680	0.074671	0.500150
C69	C	0.896894	-0.209417	0.000109
C70	C	1.396894	0.290583	0.500109
C71	C	0.891259	-0.564321	0.000092
C72	C	1.391259	-0.064321	0.500092
C73	C	1.032450	0.106713	0.000116
C74	C	1.532450	0.606713	0.500116
C75	C	1.116471	0.108199	0.000121
C76	C	1.616471	0.608199	0.500121
C77	C	0.888557	0.266708	0.000090
C78	C	1.388557	0.766708	0.500090
C79	C	0.890055	0.359951	0.000085
C80	C	1.390055	0.859951	0.500085
N81	N	0.894058	0.113116	0.195767
N82	N	1.394058	0.613116	0.695767
N83	N	0.894098	0.113133	-0.195565
N84	N	1.394098	0.613133	0.304435
C85	C	0.945524	0.055930	0.239040
C86	C	1.445524	0.555930	0.739040
C87	C	0.945528	0.055929	0.325588
C88	C	1.445528	0.555929	0.825588
C89	C	0.894068	0.113118	0.368859
C90	C	1.394068	0.613118	0.868859
C91	C	0.842596	0.170306	0.325579
C92	C	1.342596	0.670306	0.825579
C93	C	0.842589	0.170303	0.239034
C94	C	1.342589	0.670303	0.739034
C95	C	0.842622	0.170322	0.674608
C96	C	1.342622	0.670322	1.174608
C97	C	0.842634	0.170323	0.761159
C98	C	1.342634	0.670323	1.261159
C99	C	0.945561	0.055949	0.761161
C100	C	1.445561	0.555949	1.261161
C101	C	0.945554	0.055945	0.674616
C102	C	1.445554	0.555945	1.174616
C103	C	0.894080	0.113130	0.631343
C104	C	1.394080	0.613130	1.131343
C105	C	0.894075	0.113129	0.537499
C106	C	1.394075	0.613129	1.037499
C107	C	0.894076	0.113124	0.462702
C108	C	1.394076	0.613124	0.962702
H109	H	0.647975	0.256789	0.000060
H110	H	1.147975	0.756789	0.500060
N111	N	0.787083	0.231987	0.192358
N112	N	1.287083	0.731987	0.692358
H113	H	0.794885	0.223306	0.130967
H114	H	1.294885	0.723306	0.630967
H115	H	0.733395	0.222357	0.207496
H116	H	1.233395	0.722357	0.707496
N117	N	0.491939	0.274286	0.000167
N118	N	0.991939	0.774286	0.500167
H119	H	0.523210	0.323428	0.000186
H120	H	1.023210	0.823428	0.500186
H121	H	0.458747	0.277104	-0.050769
H122	H	0.958747	0.777104	0.449231
H123	H	0.800727	0.216895	0.796389
H124	H	1.300727	0.716895	1.296389
H125	H	0.987460	0.009379	0.639387
H126	H	1.487460	0.509379	1.139387
N127	N	0.816755	-0.436059	0.143798
N128	N	1.316755	0.063941	0.643798
H129	H	0.843744	-0.418818	0.195000
H130	H	1.343744	0.081182	0.695000
H131	H	0.762678	-0.407782	0.143672
H132	H	1.262678	0.092218	0.643672
N133	N	0.787096	0.231988	0.372254
N134	N	1.287096	0.731988	0.872254
H135	H	0.795810	0.291591	0.357179
H136	H	1.295810	0.791591	0.857179
H137	H	0.733405	0.222315	0.357187
H138	H	1.233405	0.722315	0.857187
H139	H	1.026238	-0.458615	0.000196
H140	H	1.526238	0.041385	0.500196
H141	H	0.250659	0.249732	0.000088
H142	H	0.750659	0.749732	0.500088
N143	N	0.742351	-0.304097	0.000160
N144	N	1.242351	0.195903	0.500160
H145	H	0.714527	-0.321216	-0.050518
H146	H	1.214527	0.178784	0.449482
H147	H	0.714971	-0.320437	0.051448
H148	H	1.214971	0.179563	0.551448
H149	H	0.800711	0.216885	0.639382
H150	H	1.300711	0.716885	1.139382
N151	N	0.971305	-0.337904	0.143961
N152	N	1.471305	0.162096	0.643961
H153	H	0.972042	-0.274661	0.143509
H154	H	1.472042	0.225339	0.643509
H155	H	0.943951	-0.354794	0.195057
H156	H	1.443951	0.145206	0.695057
H157	H	0.537486	-0.023476	0.000116
H158	H	1.037486	0.476524	0.500116
N159	N	0.094624	0.267240	0.000095
N160	N	0.594624	0.767240	0.500095
H161	H	0.039992	0.254637	0.000102
H162	H	0.539992	0.754637	0.500102
H163	H	0.104488	0.300908	0.051059
H164	H	0.604488	0.800908	0.551059
H165	H	0.826790	-0.429472	-0.124993
H166	H	1.326790	0.070528	0.375007
N167	N	0.132116	-0.050948	0.000131
N168	N	0.632116	0.449052	0.500131
H169	H	0.174813	-0.098782	0.000140
H170	H	0.674813	0.401218	0.500140
H171	H	0.099753	-0.054858	0.051102
H172	H	0.599753	0.445142	0.551102
N173	N	0.296209	-0.048039	0.000135
N174	N	0.796209	0.451961	0.500135
H175	H	0.264935	-0.097179	0.000141
H176	H	0.764935	0.402821	0.500141
H177	H	0.329360	-0.050796	-0.050833
H178	H	0.829360	0.449204	0.449167
N179	N	1.001056	-0.005741	0.372249
N180	N	1.501056	0.494259	0.872249
H181	H	0.972157	-0.042907	0.408168
H182	H	1.472157	0.457093	0.908168
H183	H	1.033640	-0.041897	0.331639
H184	H	1.533640	0.458103	0.831639
N185	N	1.001080	-0.005731	0.807836
N186	N	1.501080	0.494269	1.307836
H187	H	0.972167	-0.042888	0.843753
H188	H	1.472167	0.457112	1.343753
H189	H	1.033666	-0.041898	0.767238
H190	H	1.533666	0.458102	1.267238
H191	H	0.987432	0.009364	0.203814
H192	H	1.487432	0.509364	0.703814
N193	N	0.693536	-0.040980	0.000103
N194	N	1.193536	0.459020	0.500103
H195	H	0.662267	-0.090123	0.000109
H196	H	1.162267	0.409877	0.500109
H197	H	0.726685	-0.043733	-0.050867
H198	H	1.226685	0.456267	0.449133
H199	H	0.961339	-0.344183	-0.124975
H200	H	1.461339	0.155817	0.375025
