data_functionalizedCrystal
_audit_creation_method	'MofGen! by Chris Wilmer'
_symmetry_space_group_name_H-M	'P1'
_symmetry_Int_Tables_number	1
_symmetry_cell_setting	triclinic
loop_
_symmetry_equiv_pos_as_xyz
  x,y,z
_cell_length_a	12.784905
_cell_length_b	10.489716
_cell_length_c	11.892095
_cell_angle_alpha	93.932635
_cell_angle_beta	86.511728
_cell_angle_gamma	78.818228
loop_
_atom_site_label
_atom_site_type_symbol
_atom_site_fract_x
_atom_site_fract_y
_atom_site_fract_z
O1	O	1.417104	-0.000917	-0.094010
O2	O	1.108063	0.053662	-0.094007
O3	O	1.269630	-0.160087	-0.094013
O4	O	1.255538	0.212832	-0.094005
O5	O	1.256158	-0.142290	0.093995
O6	O	1.094592	0.071459	0.094000
O7	O	1.403633	0.016880	0.093998
Zn8	Zn	1.246974	0.046995	0.123850
Zn9	Zn	1.264723	0.023547	-0.123859
O10	O	1.242066	0.230629	0.094003
C11	C	1.061755	0.066110	-0.000003
C12	C	0.943841	0.076672	-0.000003
C13	C	0.745828	-0.138510	-0.000028
C14	C	0.635038	-0.128592	-0.000027
C15	C	0.611470	0.106422	-0.000010
C16	C	0.722260	0.096505	-0.000010
C17	C	0.789435	-0.025965	-0.000017
C18	C	0.900226	-0.035881	-0.000010
C19	C	0.876658	0.199132	-0.000000
C20	C	0.765868	0.209049	0.000000
C21	C	1.261836	-0.198592	-0.000012
C22	C	1.258669	-0.339837	-0.000023
C23	C	1.357745	-0.449592	-0.000013
C24	C	1.312032	-0.529343	-0.092707
C25	C	1.298728	-0.511758	0.092654
C26	C	1.213003	-0.417735	-0.092793
C27	C	1.199707	-0.400138	0.092651
C28	C	1.153922	-0.479833	-0.000066
C29	C	1.449941	0.004432	-0.000009
C30	C	1.567856	-0.006130	-0.000017
C31	C	1.249861	0.269134	0.000000
C32	C	1.253028	0.410379	0.000003
N33	N	1.234868	0.062996	0.292904
N34	N	1.276836	0.007535	-0.292914
C35	C	1.361071	-0.103881	0.529548
C36	C	1.352618	-0.092688	0.647890
C37	C	1.209502	0.096569	0.647933
C38	C	1.217956	0.085376	0.529591
C39	C	1.293744	-0.014851	0.470402
C40	C	1.302202	-0.026038	0.352058
C41	C	1.159083	0.163213	0.352103
C42	C	1.150629	0.174406	0.470445
H43	H	0.711160	0.308760	0.000002
N44	N	1.379610	-0.128433	0.291616
N45	N	1.450585	-0.101585	0.225564
H46	H	1.505253	-0.173918	0.182892
N47	N	1.344152	-0.563394	0.190970
N48	N	1.348237	-0.680694	0.207139
H49	H	1.380323	-0.717163	0.276571
N50	N	1.090319	0.254182	0.291690
N51	N	1.129339	0.323334	0.225661
H52	H	1.080780	0.387587	0.182994
H53	H	0.954919	-0.135602	-0.000014
N54	N	1.073217	0.276765	0.530926
N55	N	1.065674	0.286744	0.636588
H56	H	1.011002	0.359039	0.679303
H57	H	0.556759	0.206129	-0.000019
H58	H	0.599538	-0.220238	-0.000038
N59	N	0.814467	-0.263588	-0.000017
N60	N	0.873240	-0.287826	0.079234
H61	H	0.921719	-0.376164	0.079244
H62	H	1.152303	-0.344106	0.171022
H63	H	1.176822	-0.376760	-0.171246
N64	N	0.921218	0.314091	0.000027
N65	N	1.020137	0.305225	0.000040
H66	H	1.051609	0.386412	0.000066
H67	H	1.422788	-0.185482	0.481356
H68	H	1.443933	-0.435434	-0.000108
H69	H	1.359472	-0.585357	-0.171076
H70	H	1.067681	-0.493752	-0.000115
N71	N	1.421393	-0.183646	0.708289
N72	N	1.489049	-0.273127	0.655423
H73	H	1.537625	-0.337373	0.698079
N74	N	1.132073	0.198913	0.708411
N75	N	1.061137	0.171964	0.774453
H76	H	1.006450	0.244241	0.817170
