data_functionalizedCrystal
_audit_creation_method	'MofGen! by Chris Wilmer'
_symmetry_space_group_name_H-M	'P1'
_symmetry_Int_Tables_number	1
_symmetry_cell_setting	triclinic
loop_
_symmetry_equiv_pos_as_xyz
  x,y,z
_cell_length_a	17.699083
_cell_length_b	10.489741
_cell_length_c	16.176319
_cell_angle_alpha	89.993511
_cell_angle_beta	89.998611
_cell_angle_gamma	83.911094
loop_
_atom_site_label
_atom_site_type_symbol
_atom_site_fract_x
_atom_site_fract_y
_atom_site_fract_z
O1	O	1.005134	0.161296	-0.068630
O2	O	0.784893	0.182281	-0.068657
O3	O	0.900025	-0.013903	-0.068638
O4	O	0.890002	0.357479	-0.068649
O5	O	0.900009	-0.013915	0.068855
O6	O	0.784877	0.182268	0.068836
O7	O	1.005118	0.161283	0.068863
Cu8	Cu	0.894996	0.171775	0.081404
Cu9	Cu	0.895015	0.171789	-0.081198
O10	O	0.889986	0.357467	0.068844
C11	C	0.756683	0.181523	0.000086
C12	C	0.672650	0.179267	0.000076
C13	C	0.624782	0.294422	0.000073
C14	C	0.545825	0.292295	0.000083
C15	C	0.514737	0.175011	0.000091
C16	C	0.562611	0.059847	0.000097
C17	C	0.641567	0.061975	0.000092
C18	C	0.244192	0.051260	0.000118
C19	C	0.165230	0.049140	0.000120
C20	C	0.148450	0.281580	0.000109
C21	C	0.227406	0.283709	0.000104
C22	C	0.275273	0.168545	0.000114
C23	C	0.360887	0.170853	0.000104
C24	C	0.429124	0.172702	0.000096
C25	C	0.899260	-0.061427	0.000108
C26	C	0.896995	-0.203014	0.000106
C27	C	0.823740	-0.269793	0.000091
C28	C	0.858337	-0.362565	0.067887
C29	C	0.858370	-0.362527	-0.067671
C30	C	0.931622	-0.293921	0.067958
C31	C	0.931645	-0.293874	-0.067661
C32	C	0.966296	-0.386619	0.000151
C33	C	1.033328	0.162042	0.000118
C34	C	1.117361	0.164297	0.000123
C35	C	0.890751	0.404991	0.000096
C36	C	0.893016	0.546578	0.000093
N37	N	0.894988	0.171764	0.195769
N38	N	0.895029	0.171790	-0.195563
C39	C	0.945984	0.084929	0.239042
C40	C	0.945988	0.084928	0.325589
C41	C	0.894999	0.171768	0.368862
C42	C	0.843997	0.258607	0.325583
C43	C	0.843990	0.258601	0.239037
C44	C	0.844023	0.258631	0.674611
C45	C	0.844036	0.258632	0.761163
C46	C	0.946021	0.084957	0.761162
C47	C	0.946014	0.084951	0.674617
C48	C	0.895010	0.171785	0.631346
C49	C	0.895006	0.171784	0.537502
C50	C	0.895006	0.171776	0.462704
H51	H	0.537293	-0.035648	0.000115
H52	H	0.763510	-0.219023	0.000152
H53	H	0.802511	0.329350	0.796394
C54	C	0.973493	-0.252689	-0.145082
C55	C	0.942759	-0.279273	-0.231749
C56	C	0.984600	-0.238083	-0.309178
C57	C	1.057173	-0.170310	-0.299941
C58	C	1.087910	-0.143724	-0.213271
C59	C	1.046070	-0.184913	-0.135842
H60	H	0.889033	-0.329445	-0.238590
H61	H	0.961846	-0.257765	-0.373337
H62	H	1.088146	-0.139819	-0.357259
H63	H	1.141637	-0.093551	-0.206430
H64	H	1.068824	-0.165231	-0.071683
H65	H	0.987512	0.014220	0.360821
C66	C	0.787928	0.354152	0.627016
C67	C	0.731864	0.449717	0.674610
C68	C	0.675768	0.545243	0.627008
C69	C	0.675736	0.545205	0.531812
C70	C	0.731801	0.449637	0.484212
C71	C	0.787898	0.354110	0.531814
H72	H	0.731886	0.449748	0.745085
H73	H	0.634265	0.615989	0.662246
H74	H	0.634210	0.615920	0.496574
H75	H	0.731779	0.449606	0.413737
H76	H	0.829401	0.283365	0.496576
C77	C	0.787895	0.354124	0.191435
C78	C	0.731834	0.449692	0.239030
C79	C	0.675733	0.545213	0.191429
C80	C	0.675694	0.545166	0.096233
C81	C	0.731757	0.449594	0.048632
C82	C	0.787857	0.354073	0.096233
H83	H	0.731861	0.449729	0.309505
H84	H	0.634232	0.615961	0.226667
H85	H	0.634165	0.615876	0.060995
H86	H	0.731730	0.449556	-0.021843
H87	H	0.829359	0.283325	0.060995
H88	H	0.139922	-0.046372	0.000128
H89	H	0.650088	0.389929	0.000065
H90	H	0.506854	0.386067	0.000080
H91	H	0.827372	-0.392910	-0.124992
H92	H	0.802477	0.329310	0.360821
H93	H	0.109467	0.375352	0.000105
H94	H	0.987509	0.014219	0.203815
H95	H	0.987537	0.014242	0.639387
C96	C	0.973448	-0.253065	0.145479
C97	C	0.983290	-0.110646	0.159830
C98	C	1.025111	-0.069787	0.237351
C99	C	1.057090	-0.171347	0.300522
C100	C	1.047249	-0.313776	0.286173
C101	C	1.005427	-0.354635	0.208652
H102	H	0.959616	-0.035457	0.113065
H103	H	1.032396	0.035649	0.247973
H104	H	1.088049	-0.141101	0.357908
H105	H	1.070922	-0.388965	0.332937
H106	H	0.998142	-0.460070	0.198030
H107	H	1.026580	-0.437163	0.000196
H108	H	0.283156	-0.042514	0.000127
C109	C	0.261602	0.412723	0.000097
C110	C	0.208949	0.539396	0.000099
C111	C	0.243143	0.668412	0.000095
C112	C	0.329991	0.670756	0.000090
C113	C	0.382650	0.544078	0.000088
C114	C	0.348455	0.415062	0.000091
H115	H	0.144654	0.537665	0.000103
H116	H	0.204161	0.762187	0.000097
H117	H	0.355304	0.766261	0.000087
H118	H	0.446945	0.545809	0.000083
H119	H	0.387437	0.321287	0.000090
H120	H	0.827334	-0.393005	0.125195
H121	H	0.680540	-0.031796	0.000094
H122	H	0.987549	0.014248	0.796403
