data_functionalizedCrystal
_audit_creation_method	'MofGen! by Chris Wilmer'
_symmetry_space_group_name_H-M	'P1'
_symmetry_Int_Tables_number	1
_symmetry_cell_setting	triclinic
loop_
_symmetry_equiv_pos_as_xyz
  x,y,z
_cell_length_a	18.215405
_cell_length_b	19.121385
_cell_length_c	18.215399
_cell_angle_alpha	87.588147
_cell_angle_beta	89.972459
_cell_angle_gamma	87.534364
loop_
_atom_site_label
_atom_site_type_symbol
_atom_site_fract_x
_atom_site_fract_y
_atom_site_fract_z
Zn1	Zn	-0.244972	-1.073721	-0.368320
Zn2	Zn	-0.368047	-1.073638	-0.245258
Zn3	Zn	-0.250248	-0.956272	-0.250495
Zn4	Zn	-0.373255	-0.956244	-0.373509
O5	O	-0.309131	-1.014969	-0.309395
O6	O	-0.256911	-1.171993	-0.347631
O7	O	-0.352449	-1.058046	-0.142969
O8	O	-0.146562	-0.971898	-0.266145
O9	O	-0.347333	-1.171932	-0.257219
O10	O	-0.142686	-1.058188	-0.352710
O11	O	-0.265902	-0.971818	-0.146817
O12	O	-0.270953	-0.857985	-0.271177
O13	O	-0.356210	-0.971850	-0.475804
O14	O	-0.361326	-0.857965	-0.361554
O15	O	-0.261961	-1.058160	-0.471991
O16	O	-0.471724	-1.058019	-0.262250
O17	O	-0.475551	-0.971770	-0.356476
C18	C	-0.317277	-0.832491	-0.317498
C19	C	-0.320780	-0.754427	-0.320981
C20	C	-0.342932	-0.312909	-0.343099
C21	C	-0.339646	-0.386259	-0.339812
C22	C	-0.290875	-0.422922	-0.291192
C23	C	-0.245392	-0.386231	-0.245850
C24	C	-0.248682	-0.312882	-0.249134
C25	C	-0.278587	-0.644387	-0.278923
C26	C	-0.275299	-0.717741	-0.275645
C27	C	-0.369555	-0.717764	-0.369606
C28	C	-0.372837	-0.644414	-0.372888
C29	C	-0.327357	-0.607729	-0.327544
C30	C	-0.287514	-0.497897	-0.287832
C31	C	-0.330723	-0.532755	-0.330900
C32	C	-0.500340	-1.014901	-0.309373
C33	C	-0.582137	-1.014937	-0.309385
C34	C	-0.768251	-1.059889	-0.354522
C35	C	-0.845108	-1.059915	-0.354535
C36	C	-0.849254	-0.970135	-0.264310
C37	C	-0.772398	-0.970107	-0.264302
C38	C	-0.731898	-1.014988	-0.309407
C39	C	-0.885612	-1.015042	-0.309428
C40	C	-0.968944	-1.015069	-0.309441
C41	C	-0.648561	-1.014960	-0.309394
C42	C	-0.117174	-1.015055	-0.309433
C43	C	-0.035373	-1.015092	-0.309449
C44	C	-0.309078	-1.015012	-0.501346
C45	C	-0.309055	-1.015030	-0.583145
C46	C	-0.300948	-0.198159	-0.301253
C47	C	-0.297451	-0.276223	-0.297762
C48	C	-0.259935	-1.059988	-0.769354
C49	C	-0.259913	-1.059996	-0.846212
C50	C	-0.358060	-0.970122	-0.850171
C51	C	-0.358077	-0.970110	-0.773314
C52	C	-0.309016	-1.015047	-0.732907
C53	C	-0.308977	-1.015067	-0.886623
C54	C	-0.308953	-1.015076	-0.969956
C55	C	-0.309038	-1.015038	-0.649569
C56	C	-0.309128	-1.014967	-0.118189
C57	C	-0.308937	-1.015084	-0.036385
H58	H	-0.406582	-0.747640	-0.406521
H59	H	-0.398045	-0.933509	-0.743639
H60	H	-0.235575	-0.747590	-0.236058
H61	H	-0.382643	-0.283064	-0.382694
H62	H	-0.735277	-1.096433	-0.391250
O63	O	-0.240235	-0.533593	-0.240569
C64	C	-0.280176	-0.575969	-0.191054
H65	H	-0.335493	-0.586945	-0.216415
H66	H	-0.289450	-0.547673	-0.137765
C67	C	-0.168611	-0.632173	-0.143545
C68	C	-0.236551	-0.645659	-0.174696
H69	H	-0.141701	-0.675160	-0.133452
H70	H	-0.141702	-0.603622	-0.176902
H71	H	-0.176349	-0.608591	-0.099141
H72	H	-0.228812	-0.669232	-0.219104
H73	H	-0.263458	-0.674216	-0.141346
O74	O	-0.880304	-1.103599	-0.398380
C75	C	-0.828074	-1.143190	-0.438200
H76	H	-0.773197	-1.145619	-0.407941
H77	H	-0.821036	-1.117435	-0.495213
C78	C	-0.922061	-1.214960	-0.482723
C79	C	-0.854661	-1.217949	-0.445555
H80	H	-0.938462	-1.261074	-0.487264
H81	H	-0.957250	-1.188286	-0.455898
H82	H	-0.916187	-1.193495	-0.530230
H83	H	-0.860538	-1.239405	-0.398047
H84	H	-0.819474	-1.244628	-0.472373
O85	O	-0.383854	-0.421787	-0.383927
C86	C	-0.427615	-0.373699	-0.427533
H87	H	-0.399817	-0.321425	-0.432477
H88	H	-0.483824	-0.365865	-0.400835
C89	C	-0.471184	-0.466572	-0.498484
C90	C	-0.437038	-0.402369	-0.504561
H91	H	-0.477000	-0.484257	-0.545997
H92	H	-0.441703	-0.498970	-0.469103
H93	H	-0.518020	-0.460035	-0.476232
H94	H	-0.390199	-0.408909	-0.526804
H95	H	-0.466511	-0.369972	-0.533947
H96	H	-0.241557	-0.614527	-0.241998
H97	H	-0.219984	-1.096576	-0.736457
O98	O	-0.888708	-0.926612	-0.220513
C99	C	-0.964339	-0.936253	-0.230204
H100	H	-0.972353	-0.990444	-0.251953
H101	H	-0.988027	-0.894578	-0.271208
C102	C	-0.994289	-0.863322	-0.129311
C103	C	-1.004132	-0.929882	-0.156017
H104	H	-1.018837	-0.859390	-0.083551
H105	H	-0.943335	-0.856824	-0.122783
H106	H	-1.014029	-0.828600	-0.163488
H107	H	-0.984385	-0.964603	-0.121845
H108	H	-1.055084	-0.936387	-0.162538
H109	H	-0.370434	-0.502901	-0.370484
H110	H	-0.398005	-0.933537	-0.883079
O111	O	-0.737051	-0.926412	-0.220582
C112	C	-0.694624	-0.881022	-0.264453
H113	H	-0.717952	-0.876658	-0.322606
H114	H	-0.635386	-0.902715	-0.266040
C115	C	-0.668133	-0.813389	-0.160251
C116	C	-0.696789	-0.808025	-0.231675
H117	H	-0.669465	-0.768361	-0.140031
H118	H	-0.696715	-0.843970	-0.130693
H119	H	-0.618770	-0.831469	-0.161583
H120	H	-0.746153	-0.789953	-0.230341
H121	H	-0.668215	-0.777439	-0.261232
O122	O	-0.420289	-0.608910	-0.420125
C123	C	-0.459721	-0.657020	-0.459445
H124	H	-0.459873	-0.709291	-0.426962
H125	H	-0.432506	-0.664851	-0.515043
C126	C	-0.539161	-0.564182	-0.511067
C127	C	-0.539354	-0.628381	-0.471168
H128	H	-0.588282	-0.546516	-0.518301
H129	H	-0.512594	-0.531769	-0.484578
H130	H	-0.516479	-0.570717	-0.557394
H131	H	-0.562027	-0.621844	-0.424838
H132	H	-0.565927	-0.660793	-0.497648
H133	H	-0.219946	-1.096590	-0.875884
H134	H	-0.205685	-0.416088	-0.206260
H135	H	-0.211645	-0.283014	-0.212218
