data_functionalizedCrystal
_audit_creation_method	'MofGen! by Chris Wilmer'
_symmetry_space_group_name_H-M	'P1'
_symmetry_Int_Tables_number	1
_symmetry_cell_setting	triclinic
loop_
_symmetry_equiv_pos_as_xyz
  x,y,z
_cell_length_a	17.019383
_cell_length_b	17.019294
_cell_length_c	16.776229
_cell_angle_alpha	86.114377
_cell_angle_beta	86.116884
_cell_angle_gamma	83.133350
loop_
_atom_site_label
_atom_site_type_symbol
_atom_site_fract_x
_atom_site_fract_y
_atom_site_fract_z
O1	O	1.046559	0.100561	-0.144959
O2	O	1.546559	0.600561	0.355041
O3	O	0.816882	0.113363	-0.130089
O4	O	1.316882	0.613363	0.369911
O5	O	0.938128	-0.007878	-0.130077
O6	O	1.438128	0.492122	0.369923
O7	O	0.925314	0.221802	-0.144971
O8	O	1.425314	0.721802	0.355029
O9	O	0.938111	-0.007885	0.002502
O10	O	1.438111	0.492115	0.502502
O11	O	0.816866	0.113356	0.002489
O12	O	1.316866	0.613356	0.502489
O13	O	1.046543	0.100553	-0.012381
O14	O	1.546543	0.600553	0.487619
Zn15	Zn	0.931702	0.106953	0.016104
Zn16	Zn	1.431702	0.606953	0.516104
Zn17	Zn	0.931723	0.106963	-0.158573
Zn18	Zn	1.431723	0.606963	0.341427
O19	O	0.925298	0.221794	-0.012393
O20	O	1.425298	0.721794	0.487607
C21	C	0.787486	0.112872	-0.061751
C22	C	1.287486	0.612872	0.438249
C23	C	0.699918	0.111409	-0.055646
C24	C	1.199918	0.611409	0.444354
C25	C	0.658780	0.110728	-0.125040
C26	C	1.158780	0.610728	0.374960
C27	C	0.576499	0.109367	-0.119293
C28	C	1.076499	0.609367	0.380707
C29	C	0.535359	0.108681	-0.044151
C30	C	1.035359	0.608681	0.455849
C31	C	0.576502	0.109364	0.025249
C32	C	1.076502	0.609364	0.525249
C33	C	0.658781	0.110731	0.019501
C34	C	1.158781	0.610731	0.519501
C35	C	0.286929	0.104558	-0.023179
C36	C	0.786929	0.604558	0.476821
C37	C	0.204645	0.103188	-0.017436
C38	C	0.704645	0.603188	0.482564
C39	C	0.204648	0.103192	-0.161979
C40	C	0.704648	0.603192	0.338021
C41	C	0.286929	0.104555	-0.167720
C42	C	0.786929	0.604555	0.332280
C43	C	0.328065	0.105242	-0.098321
C44	C	0.828065	0.605242	0.401679
C45	C	0.451255	0.107287	-0.038274
C46	C	0.951255	0.607287	0.461726
C47	C	0.412166	0.106642	-0.104199
C48	C	0.912166	0.606642	0.395801
C49	C	0.937633	-0.037270	-0.061738
C50	C	1.437633	0.462730	0.438262
C51	C	0.936175	-0.124839	-0.055629
C52	C	1.436175	0.375161	0.444371
C53	C	0.935501	-0.165971	-0.125027
C54	C	1.435501	0.334029	0.374973
C55	C	0.934126	-0.248251	-0.119284
C56	C	1.434126	0.251749	0.380716
C57	C	0.933431	-0.289398	-0.044143
C58	C	1.433431	0.210602	0.455857
C59	C	0.934103	-0.248261	0.025260
C60	C	1.434103	0.251739	0.525260
C61	C	0.935473	-0.165982	0.019517
C62	C	1.435473	0.334018	0.519517
C63	C	0.929291	-0.537827	-0.023187
C64	C	1.429291	-0.037827	0.476813
C65	C	0.927924	-0.620112	-0.017450
C66	C	1.427924	-0.120112	0.482550
C67	C	0.927946	-0.620097	-0.161995
C68	C	1.427946	-0.120097	0.338005
C69	C	0.929320	-0.537817	-0.167731
C70	C	1.429320	-0.037817	0.332269
C71	C	0.929988	-0.496686	-0.098328
C72	C	1.429988	0.003314	0.401672
C73	C	0.932028	-0.373502	-0.038272
C74	C	1.432028	0.126498	0.461728
C75	C	0.931385	-0.412583	-0.104200
C76	C	1.431385	0.087417	0.395800
C77	C	1.075940	0.101045	-0.080720
C78	C	1.575940	0.601045	0.419280
C79	C	1.163507	0.102507	-0.086831
C80	C	1.663507	0.602507	0.413169
C81	C	0.925792	0.251187	-0.080734
C82	C	1.425792	0.751187	0.419266
C83	C	0.927250	0.338756	-0.086848
C84	C	1.427250	0.838756	0.413152
N85	N	0.931693	0.106946	0.135316
N86	N	1.431693	0.606946	0.635316
N87	N	0.931738	0.106964	-0.277786
N88	N	1.431738	0.606964	0.222214
C89	C	0.985397	0.053283	0.177036
C90	C	1.485397	0.553283	0.677036
C91	C	0.985402	0.053282	0.260488
C92	C	1.485402	0.553282	0.760488
C93	C	0.931705	0.106949	0.302218
C94	C	1.431705	0.606949	0.802218
C95	C	0.877996	0.160615	0.260493
C96	C	1.377996	0.660615	0.760493
C97	C	0.877988	0.160612	0.177043
C98	C	1.377988	0.660612	0.677043
C99	C	0.878024	0.160631	0.597037
C100	C	1.378024	0.660631	1.097037
C101	C	0.878038	0.160632	0.680492
C102	C	1.378038	0.660632	1.180492
C103	C	0.985438	0.053301	0.680482
C104	C	1.485438	0.553301	1.180482
C105	C	0.985430	0.053298	0.597032
C106	C	1.485430	0.553298	1.097032
C107	C	0.931718	0.106960	0.555314
C108	C	1.431718	0.606960	1.055314
C109	C	0.931713	0.106959	0.464826
C110	C	1.431713	0.606959	0.964826
C111	C	0.931714	0.106955	0.392704
C112	C	1.431714	0.606955	0.892704
H113	H	0.445666	0.107205	-0.165380
H114	H	0.945666	0.607205	0.334620
H115	H	0.171148	0.102652	0.043756
H116	H	0.671148	0.602652	0.543756
H117	H	0.417749	0.106726	0.022908
H118	H	0.917749	0.606726	0.522908
H119	H	0.542998	0.108810	0.086431
H120	H	1.042998	0.608810	0.586431
H121	H	0.936011	-0.132492	0.076029
H122	H	1.436011	0.367508	0.576029
H123	H	0.936071	-0.132475	-0.186215
H124	H	1.436071	0.367525	0.313785
O125	O	0.326947	0.105086	-0.240686
O126	O	0.826947	0.605086	0.259314
C127	C	0.383559	0.037602	-0.244252
C128	C	0.883559	0.537602	0.255748
H129	H	0.365053	-0.010540	-0.198666
H130	H	0.865053	0.489460	0.301334
H131	H	0.387521	0.014701	-0.306870
H132	H	0.887521	0.514701	0.193130
H133	H	0.443878	0.054076	-0.230106
H134	H	0.943878	0.554076	0.269894
H135	H	0.931945	-0.379077	-0.165379
H136	H	1.431945	0.120923	0.334621
O137	O	0.933543	-0.288093	-0.186782
O138	O	1.433543	0.211907	0.313218
C139	C	0.934453	-0.234132	-0.254334
C140	C	1.434453	0.265868	0.245666
H141	H	0.960359	-0.178765	-0.238708
H142	H	1.460359	0.321235	0.261292
H143	H	0.972379	-0.262944	-0.305479
H144	H	1.472379	0.237056	0.194521
H145	H	0.871358	-0.217055	-0.273440
H146	H	1.371358	0.282945	0.226560
H147	H	1.029157	0.009599	0.563058
H148	H	1.529157	0.509599	1.063058
O149	O	0.929812	-0.497835	0.044218
O150	O	1.429812	0.002165	0.544218
C151	C	0.862330	-0.441221	0.049293
C152	C	1.362330	0.058779	0.549293
H153	H	0.814190	-0.459708	0.012852
H154	H	1.314190	0.040292	0.512852
H155	H	0.839424	-0.437285	0.114515
H156	H	1.339424	0.062715	0.614515
H157	H	0.878808	-0.380894	0.024619
H158	H	1.378808	0.119106	0.524619
O159	O	0.927212	-0.659958	0.055612
O160	O	1.427212	-0.159958	0.555612
C161	C	0.928114	-0.606014	0.115638
C162	C	1.428114	-0.106014	0.615638
H163	H	0.904129	-0.544069	0.091846
H164	H	1.404129	-0.044069	0.591846
H165	H	0.889431	-0.624749	0.170117
H166	H	1.389431	-0.124749	0.670117
H167	H	0.991509	-0.605606	0.133490
H168	H	1.491509	-0.105606	0.633490
H169	H	0.933533	-0.281769	0.086442
H170	H	1.433533	0.218231	0.586442
H171	H	0.171146	0.102634	-0.218480
H172	H	0.671146	0.602634	0.281520
O173	O	0.825744	0.212634	0.136490
O174	O	1.325744	0.712634	0.636490
C175	C	0.777140	0.170407	0.094455
C176	C	1.277140	0.670407	0.594455
H177	H	0.775885	0.108197	0.123971
H178	H	1.275885	0.608197	0.623971
H179	H	0.714406	0.202622	0.095608
H180	H	1.214406	0.702622	0.595608
H181	H	0.801826	0.166258	0.029796
H182	H	1.301826	0.666258	0.529796
H183	H	0.927400	-0.653594	-0.218499
H184	H	1.427400	-0.153594	0.281501
H185	H	0.692274	0.111289	0.076009
H186	H	1.192274	0.611289	0.576009
O187	O	0.698614	0.111430	-0.198100
O188	O	1.198614	0.611430	0.301900
C189	C	0.644658	0.110520	-0.258115
C190	C	1.144658	0.610520	0.241885
H191	H	0.582716	0.134503	-0.234316
H192	H	1.082716	0.634503	0.265684
H193	H	0.663379	0.149201	-0.312602
H194	H	1.163379	0.649201	0.187398
H195	H	0.644249	0.047122	-0.275957
H196	H	1.144249	0.547122	0.224043
H197	H	0.929887	-0.504320	-0.228919
H198	H	1.429887	-0.004320	0.271081
O199	O	0.931470	-0.413398	0.034759
O200	O	1.431470	0.086602	0.534759
C201	C	1.000098	-0.402320	0.073243
C202	C	1.500098	0.097680	0.573243
H203	H	1.023859	-0.345580	0.047168
H204	H	1.523859	0.154420	0.547168
H205	H	0.984786	-0.397487	0.140077
H206	H	1.484786	0.102513	0.640077
H207	H	1.047144	-0.454933	0.063604
H208	H	1.547144	0.045067	0.563604
O209	O	1.037589	0.001073	0.136630
O210	O	1.537589	0.501073	0.636630
C211	C	1.085002	-0.046278	0.191350
C212	C	1.585002	0.453722	0.691350
H213	H	1.052667	-0.047150	0.253121
H214	H	1.552667	0.452850	0.753121
H215	H	1.097107	-0.109285	0.170742
H216	H	1.597107	0.390715	0.670742
H217	H	1.143569	-0.020693	0.194437
H218	H	1.643569	0.479307	0.694437
H219	H	0.320413	0.105113	0.033331
H220	H	0.820413	0.605113	0.533331
H221	H	1.029131	0.009585	0.294456
H222	H	1.529131	0.509585	0.794456
H223	H	1.029171	0.009603	0.714458
H224	H	1.529171	0.509603	1.214458
O225	O	0.825792	0.212792	0.720911
O226	O	1.325792	0.712792	1.220911
C227	C	0.778394	0.260168	0.666195
C228	C	1.278394	0.760168	1.166195
H229	H	0.777535	0.227825	0.608991
H230	H	1.277535	0.727825	1.108991
H231	H	0.715390	0.272224	0.693817
H232	H	1.215390	0.772224	1.193817
H233	H	0.803927	0.318761	0.651532
H234	H	1.303927	0.818761	1.151532
H235	H	0.834292	0.204326	0.563076
H236	H	1.334292	0.704326	1.063076
O237	O	0.825911	0.212718	0.301147
O238	O	1.325911	0.712718	0.801147
C239	C	0.837420	0.201205	0.383750
C240	C	1.337420	0.701205	0.883750
H241	H	0.900168	0.171692	0.392861
H242	H	1.400168	0.671692	0.892861
H243	H	0.828577	0.260951	0.411962
H244	H	1.328577	0.760951	0.911962
H245	H	0.792823	0.161662	0.413223
H246	H	1.292823	0.661662	0.913223
H247	H	0.543008	0.108812	-0.175802
H248	H	1.043008	0.608812	0.324198
