data_functionalizedCrystal
_audit_creation_method	'MofGen! by Chris Wilmer'
_symmetry_space_group_name_H-M	'P1'
_symmetry_Int_Tables_number	1
_symmetry_cell_setting	triclinic
loop_
_symmetry_equiv_pos_as_xyz
  x,y,z
_cell_length_a	17.699077
_cell_length_b	16.176319
_cell_length_c	10.654550
_cell_angle_alpha	89.999586
_cell_angle_beta	96.117247
_cell_angle_gamma	90.006844
loop_
_atom_site_label
_atom_site_type_symbol
_atom_site_fract_x
_atom_site_fract_y
_atom_site_fract_z
O1	O	1.005092	0.068735	-0.158762
O2	O	0.784844	0.068739	-0.179431
O3	O	0.900032	0.068732	0.013732
O4	O	0.889904	0.068743	-0.351924
O5	O	0.900014	-0.068761	0.013721
O6	O	0.784827	-0.068754	-0.179442
O7	O	1.005074	-0.068758	-0.158772
Cu8	Cu	0.894949	-0.081310	-0.169108
Cu9	Cu	0.894970	0.081292	-0.169095
O10	O	0.889887	-0.068751	-0.351935
C11	C	0.756634	-0.000007	-0.178697
C12	C	0.672601	-0.000005	-0.176479
C13	C	0.633118	-0.074954	-0.175439
C14	C	0.554162	-0.074955	-0.173335
C15	C	0.514690	-0.000006	-0.172280
C16	C	0.554180	0.074948	-0.173315
C17	C	0.633135	0.074948	-0.175410
C18	C	0.235763	0.074949	-0.164864
C19	C	0.156802	0.074943	-0.162773
C20	C	0.156790	-0.074953	-0.162789
C21	C	0.235745	-0.074953	-0.164884
C22	C	0.275228	0.000000	-0.165913
C23	C	0.360841	0.000000	-0.168192
C24	C	0.429078	-0.000006	-0.170009
N25	N	0.894940	-0.195675	-0.169116
C26	C	0.945996	-0.761061	-0.083576
C27	C	0.945993	-0.674514	-0.083584
C28	C	0.894974	-0.631251	-0.169090
C29	C	0.843960	-0.674539	-0.254600
C30	C	0.843967	-0.761084	-0.254597
C31	C	0.843929	-0.325511	-0.254618
C32	C	0.843924	-0.238959	-0.254613
C33	C	0.945955	-0.238940	-0.083606
C34	C	0.945962	-0.325486	-0.083602
C35	C	0.894951	-0.368766	-0.169117
C36	C	0.894956	-0.462611	-0.169108
C37	C	0.894964	-0.537408	-0.169093
C38	C	1.033285	-0.000010	-0.159506
C39	C	1.117317	-0.000006	-0.161724
C40	C	0.899279	-0.000014	0.060511
C41	C	0.897055	-0.000013	0.199916
N42	N	0.894985	0.195657	-0.169077
C43	C	0.890639	-0.000003	-0.398715
C44	C	0.892864	0.000002	-0.538119
C45	C	0.964875	-0.000014	0.280591
C46	C	0.962780	-0.000004	0.411575
C47	C	0.825038	0.000005	0.381196
C48	C	0.827134	0.000001	0.250214
H49	H	0.522036	0.135972	-0.172447
H50	H	0.987531	-0.639274	-0.013963
Cl51	Cl	1.010100	-0.379871	0.023897
H52	H	0.665281	0.135979	-0.176259
Cl53	Cl	0.107149	-0.169183	-0.161489
Cl54	Cl	0.504527	-0.169180	-0.172052
H55	H	0.771902	0.000004	0.184524
Cl56	Cl	1.010087	-0.184526	0.023896
H57	H	0.802376	-0.203735	-0.324246
Cl58	Cl	0.285361	-0.169178	-0.166219
H59	H	0.987539	-0.796280	-0.013942
Cl60	Cl	0.779823	-0.620152	-0.362101
H61	H	0.665249	-0.135986	-0.176310
Cl62	Cl	0.107181	0.169172	-0.161443
Cl63	Cl	1.048045	-0.000003	0.512991
H64	H	0.267900	0.135981	-0.165698
H65	H	0.802393	-0.360743	-0.324245
H66	H	0.802429	-0.796324	-0.324222
H67	H	0.768111	0.000014	0.422165
Cl68	Cl	1.052775	-0.000029	0.217363
