data_functionalizedCrystal
_audit_creation_method	'MofGen! by Chris Wilmer'
_symmetry_space_group_name_H-M	'P1'
_symmetry_Int_Tables_number	1
_symmetry_cell_setting	triclinic
loop_
_symmetry_equiv_pos_as_xyz
  x,y,z
_cell_length_a	25.639239
_cell_length_b	19.121102
_cell_length_c	19.120904
_cell_angle_alpha	89.911827
_cell_angle_beta	92.410104
_cell_angle_gamma	92.407118
loop_
_atom_site_label
_atom_site_type_symbol
_atom_site_fract_x
_atom_site_fract_y
_atom_site_fract_z
Zn1	Zn	-0.255751	-1.054765	-0.442042
Zn2	Zn	0.077582	-0.721431	-0.108709
Zn3	Zn	0.410915	-0.388098	0.224625
Zn4	Zn	-0.339618	-1.059658	-0.324799
Zn5	Zn	-0.006285	-0.726325	0.008534
Zn6	Zn	0.327049	-0.392991	0.341868
Zn7	Zn	-0.248315	-0.942536	-0.319827
Zn8	Zn	0.085018	-0.609203	0.013507
Zn9	Zn	0.418352	-0.275869	0.346840
Zn10	Zn	-0.339266	-0.937469	-0.437001
Zn11	Zn	-0.005933	-0.604136	-0.103668
Zn12	Zn	0.327400	-0.270803	0.229665
O13	O	-0.295738	-0.998607	-0.380917
O14	O	0.037596	-0.665274	-0.047584
O15	O	0.370929	-0.331940	0.285749
O16	O	-0.270136	-1.153518	-0.430680
O17	O	0.063198	-0.820185	-0.097347
O18	O	0.396531	-0.486852	0.235987
O19	O	-0.324541	-1.048290	-0.226035
O20	O	0.008792	-0.714956	0.107299
O21	O	0.342125	-0.381623	0.440632
O22	O	-0.176139	-0.957496	-0.336067
O23	O	0.157194	-0.624163	-0.002734
O24	O	0.490527	-0.290829	0.330599
O25	O	-0.331752	-1.157113	-0.344542
O26	O	0.001581	-0.823780	-0.011209
O27	O	0.334915	-0.490446	0.322125
O28	O	-0.181603	-1.039950	-0.425859
O29	O	0.151730	-0.706617	-0.092525
O30	O	0.485064	-0.373283	0.240808
O31	O	-0.257461	-0.962241	-0.222382
O32	O	0.075872	-0.628907	0.110952
O33	O	0.409205	-0.295574	0.444285
O34	O	-0.257121	-0.843760	-0.331180
O35	O	0.076213	-0.510426	0.002154
O36	O	0.409546	-0.177093	0.335487
O37	O	-0.331153	-0.948861	-0.535775
O38	O	0.002180	-0.615527	-0.202441
O39	O	0.335514	-0.282194	0.130892
O40	O	-0.323942	-0.840037	-0.417267
O41	O	0.009391	-0.506704	-0.083934
O42	O	0.342724	-0.173370	0.249399
O43	O	-0.269795	-1.035037	-0.539478
O44	O	0.063538	-0.701704	-0.206145
O45	O	0.396872	-0.368370	0.127189
O46	O	-0.412733	-1.043377	-0.339654
O47	O	-0.079400	-0.710043	-0.006321
O48	O	0.253933	-0.376710	0.327013
O49	O	-0.412475	-0.953605	-0.422089
O50	O	-0.079142	-0.620272	-0.088755
O51	O	0.254192	-0.286939	0.244578
C52	C	-0.289687	-0.816461	-0.373137
C53	C	0.043647	-0.483128	-0.039804
C54	C	0.376980	-0.149794	0.293529
C55	C	-0.287111	-0.738537	-0.369826
C56	C	0.046222	-0.405204	-0.036492
C57	C	0.379556	-0.071871	0.296841
C58	C	-0.431575	-0.998491	-0.380880
C59	C	-0.098242	-0.665157	-0.047547
C60	C	0.235091	-0.331824	0.285787
C61	C	-0.489690	-0.998504	-0.380890
C62	C	-0.156357	-0.665170	-0.047557
C63	C	0.176977	-0.331837	0.285776
C64	C	-0.301264	-0.990838	-0.563775
C65	C	0.032069	-0.657505	-0.230442
C66	C	0.365402	-0.324171	0.102892
C67	C	-0.303619	-0.987527	-0.641698
C68	C	0.029714	-0.654194	-0.308365
C69	C	0.363047	-0.320861	0.024968
C70	C	-0.850185	-1.045465	-0.338075
C71	C	-0.516852	-0.712131	-0.004742
C72	C	-0.183519	-0.378798	0.328592
C73	C	-0.904791	-1.045491	-0.338085
C74	C	-0.571458	-0.712158	-0.004752
C75	C	-0.238124	-0.378825	0.328581
O76	O	-0.933135	-1.085298	-0.301642
O77	O	-0.599802	-0.751965	0.031692
O78	O	-0.266468	-0.418632	0.365025
N79	N	-0.931982	-0.998728	-0.380969
N80	N	-0.598649	-0.665395	-0.047636
N81	N	-0.265315	-0.332062	0.285698
C82	C	-0.904565	-0.951940	-0.423850
C83	C	-0.571232	-0.618607	-0.090517
C84	C	-0.237899	-0.285273	0.242817
O85	O	-0.932708	-0.912167	-0.460327
O86	O	-0.599375	-0.578834	-0.126994
O87	O	-0.266041	-0.245501	0.206340
C88	C	-0.849961	-0.951917	-0.423843
C89	C	-0.516628	-0.618584	-0.090509
C90	C	-0.183295	-0.285251	0.242824
C91	C	-0.822772	-0.998679	-0.380951
C92	C	-0.489439	-0.665345	-0.047618
C93	C	-0.156106	-0.332012	0.285716
C94	C	-0.822997	-1.092223	-0.295188
C95	C	-0.489663	-0.758889	0.038146
C96	C	-0.156330	-0.425556	0.371479
C97	C	-0.768395	-1.092195	-0.295176
C98	C	-0.435061	-0.758862	0.038157
C99	C	-0.101728	-0.425528	0.371490
C100	C	-0.740982	-1.045409	-0.338052
C101	C	-0.407648	-0.712076	-0.004719
C102	C	-0.074315	-0.378742	0.328614
C103	C	-0.768171	-0.998651	-0.380940
C104	C	-0.434837	-0.665318	-0.047606
C105	C	-0.101504	-0.331984	0.285727
C106	C	-0.822546	-0.905133	-0.466727
C107	C	-0.489212	-0.571800	-0.133393
C108	C	-0.155879	-0.238466	0.199940
C109	C	-0.767938	-0.905115	-0.466716
C110	C	-0.434604	-0.571781	-0.133383
C111	C	-0.101271	-0.238448	0.199951
C112	C	-0.740749	-0.951876	-0.423825
C113	C	-0.407416	-0.618543	-0.090491
C114	C	-0.074082	-0.285209	0.242842
C115	C	-0.686156	-0.951837	-0.423805
C116	C	-0.352823	-0.618504	-0.090471
C117	C	-0.019489	-0.285170	0.242862
N118	N	-0.658965	-0.998600	-0.380921
N119	N	-0.325631	-0.665267	-0.047588
N120	N	0.007702	-0.331933	0.285746
C121	C	-0.686378	-1.045386	-0.338045
C122	C	-0.353044	-0.712053	-0.004712
C123	C	-0.019711	-0.378719	0.328622
C124	C	-1.019238	-0.951992	-0.423863
C125	C	-0.685905	-0.618659	-0.090530
C126	C	-0.352572	-0.285326	0.242804
C127	C	-1.073841	-0.952011	-0.423867
C128	C	-0.740508	-0.618678	-0.090534
C129	C	-0.407175	-0.285345	0.242800
C130	C	-1.074063	-1.045564	-0.338103
C131	C	-0.740730	-0.712230	-0.004770
C132	C	-0.407396	-0.378897	0.328563
C133	C	-1.019459	-1.045541	-0.338096
C134	C	-0.686125	-0.712208	-0.004763
C135	C	-0.352792	-0.378874	0.328571
C136	C	-0.992047	-0.998756	-0.380980
C137	C	-0.658714	-0.665422	-0.047646
C138	C	-0.325380	-0.332089	0.285687
C139	C	-0.571710	-1.045324	-0.338024
C140	C	-0.238376	-0.711990	-0.004691
C141	C	0.094957	-0.378657	0.328643
C142	C	-0.517103	-1.045290	-0.338014
C143	C	-0.183770	-0.711956	-0.004681
C144	C	0.149564	-0.378623	0.328652
C145	C	-0.516886	-0.951740	-0.423780
C146	C	-0.183553	-0.618407	-0.090447
C147	C	0.149780	-0.285074	0.242886
C148	C	-0.571488	-0.951771	-0.423788
C149	C	-0.238155	-0.618438	-0.090454
C150	C	0.095178	-0.285105	0.242879
C151	C	-0.598899	-0.998569	-0.380907
C152	C	-0.265565	-0.665236	-0.047574
C153	C	0.067768	-0.331902	0.285759
O154	O	-0.657777	-0.912052	-0.460232
O155	O	-0.324444	-0.578719	-0.126898
O156	O	0.008889	-0.245386	0.206435
O157	O	-0.658229	-1.085159	-0.301581
O158	O	-0.324895	-0.751825	0.031753
O159	O	0.008438	-0.418492	0.365086
C160	C	-0.159371	-0.998742	-0.380971
C161	C	0.173963	-0.665409	-0.047637
C162	C	0.507296	-0.332076	0.285696
C163	C	-0.101259	-0.998800	-0.380993
C164	C	0.232074	-0.665467	-0.047660
C165	C	0.565408	-0.332134	0.285673
C166	C	-0.301813	-1.181464	-0.388728
C167	C	0.031521	-0.848131	-0.055395
C168	C	0.364854	-0.514798	0.277939
C169	C	-0.304401	-1.259387	-0.392057
C170	C	0.028932	-0.926054	-0.058723
C171	C	0.362265	-0.592721	0.274610
C172	C	-0.320740	-0.700012	-0.413021
C173	C	0.012593	-0.366679	-0.079687
C174	C	0.345927	-0.033345	0.253646
C175	C	-0.318313	-0.626794	-0.409912
C176	C	0.015020	-0.293461	-0.076579
C177	C	0.348353	0.039872	0.256754
C178	C	-0.282260	-0.592104	-0.363605
C179	C	0.051074	-0.258770	-0.030272
C180	C	0.384407	0.074563	0.303062
C181	C	-0.248627	-0.630634	-0.320408
C182	C	0.084706	-0.297301	0.012925
C183	C	0.418039	0.036032	0.346259
C184	C	-0.251052	-0.703850	-0.323520
C185	C	0.082281	-0.370517	0.009813
C186	C	0.415615	-0.037184	0.343146
C187	C	-0.273194	-0.371134	-0.351972
C188	C	0.060140	-0.037801	-0.018639
C189	C	0.393473	0.295533	0.314695
C190	C	-0.270773	-0.297913	-0.348862
C191	C	0.062561	0.035421	-0.015528
C192	C	0.395894	0.368754	0.317805
C193	C	-0.340458	-0.294078	-0.438367
C194	C	-0.007125	0.039256	-0.105034
C195	C	0.326209	0.372589	0.228300
C196	C	-0.342882	-0.367296	-0.441472
C197	C	-0.009548	-0.033962	-0.108139
C198	C	0.323785	0.299371	0.225195
C199	C	-0.309247	-0.405820	-0.398278
C200	C	0.024086	-0.072486	-0.064945
C201	C	0.357419	0.260847	0.268389
C202	C	-0.279779	-0.517264	-0.360425
C203	C	0.053554	-0.183930	-0.027092
C204	C	0.386887	0.149403	0.306242
C205	C	-0.311726	-0.480658	-0.401462
C206	C	0.021608	-0.147325	-0.068129
C207	C	0.354941	0.186008	0.265205
C208	C	-0.272781	-1.030837	-0.680236
C209	C	0.060552	-0.697504	-0.346903
C210	C	0.393885	-0.364170	-0.013569
C211	C	-0.274992	-1.027718	-0.753453
C212	C	0.058341	-0.694384	-0.420119
C213	C	0.391675	-0.361051	-0.086786
C214	C	-0.308044	-0.981292	-0.788130
C215	C	0.025289	-0.647958	-0.454797
C216	C	0.358623	-0.314625	-0.121464
C217	C	-0.338883	-0.937977	-0.749587
C218	C	-0.005550	-0.604644	-0.416254
C219	C	0.327784	-0.271310	-0.082921
C220	C	-0.336669	-0.941093	-0.676372
C221	C	-0.003336	-0.607760	-0.343039
C222	C	0.329997	-0.274427	-0.009705
C223	C	-0.316324	-0.969635	-1.009097
C224	C	0.017010	-0.636301	-0.675764
C225	C	0.350343	-0.302968	-0.342430
C226	C	-0.318536	-0.966523	-1.082318
C227	C	0.014797	-0.633190	-0.748985
C228	C	0.348131	-0.299856	-0.415651
C229	C	-0.254644	-1.056263	-1.086178
C230	C	0.078689	-0.722930	-0.752845
C231	C	0.412022	-0.389596	-0.419511
C232	C	-0.252436	-1.059378	-1.012961
C233	C	0.080898	-0.726045	-0.679628
C234	C	0.414231	-0.392712	-0.346294
C235	C	-0.283273	-1.016061	-0.974424
C236	C	0.050061	-0.682728	-0.641091
C237	C	0.383394	-0.349395	-0.307758
C238	C	-0.310306	-0.978104	-0.862970
C239	C	0.023028	-0.644770	-0.529636
C240	C	0.356361	-0.311437	-0.196303
C241	C	-0.281008	-1.019246	-0.899586
C242	C	0.052325	-0.685913	-0.566253
C243	C	0.385659	-0.352579	-0.232920
C244	C	-0.290196	-1.006386	-0.198772
C245	C	0.043137	-0.673053	0.134561
C246	C	0.376471	-0.339720	0.467894
C247	C	-0.287698	-1.009833	-0.120856
C248	C	0.045635	-0.676500	0.212478
C249	C	0.378969	-0.343166	0.545811
H250	H	-0.494968	-1.083369	-0.303084
H251	H	-0.161634	-0.750035	0.030249
H252	H	0.171699	-0.416702	0.363582
H253	H	-0.229538	-1.091528	-1.117562
H254	H	0.103796	-0.758195	-0.784229
H255	H	0.437129	-0.424862	-0.450896
H256	H	-0.844673	-0.867052	-0.501650
H257	H	-0.511340	-0.533718	-0.168317
H258	H	-0.178007	-0.200385	0.165016
H259	H	-0.345452	-0.928715	-1.110550
H260	H	-0.012119	-0.595382	-0.777217
H261	H	0.321215	-0.262049	-0.443884
C262	C	-0.208967	-0.592480	-0.269472
C263	C	0.124366	-0.259146	0.063862
C264	C	0.457699	0.074187	0.397195
H265	H	-0.189283	-0.625912	-0.244197
H266	H	0.144050	-0.292579	0.089137
H267	H	0.477384	0.040755	0.422470
H268	H	-0.227060	-0.565195	-0.237661
H269	H	0.106274	-0.231862	0.095672
H270	H	0.439607	0.101472	0.429006
H271	H	-0.186084	-0.562801	-0.295137
H272	H	0.147250	-0.229468	0.038196
H273	H	0.480583	0.103865	0.371530
H274	H	-0.593627	-0.913696	-0.458716
H275	H	-0.260293	-0.580363	-0.125382
H276	H	0.073040	-0.247030	0.207951
C277	C	-0.350232	-0.921974	-0.966715
C278	C	-0.016899	-0.588640	-0.633382
C279	C	0.316435	-0.255307	-0.300049
H280	H	-0.370232	-0.893879	-0.997856
H281	H	-0.036899	-0.560546	-0.664523
H282	H	0.296434	-0.227212	-0.331190
H283	H	-0.328343	-0.892667	-0.936866
H284	H	0.004991	-0.559334	-0.603533
H285	H	0.338324	-0.226000	-0.270199
H286	H	-0.373046	-0.949969	-0.939282
H287	H	-0.039713	-0.616636	-0.605948
H288	H	0.293621	-0.283303	-0.272615
C289	C	-0.375240	-0.886910	-0.787731
C290	C	-0.041906	-0.553577	-0.454398
C291	C	0.291427	-0.220244	-0.121064
H292	H	-0.372146	-0.891262	-0.836855
H293	H	-0.038813	-0.557928	-0.503522
H294	H	0.294520	-0.224595	-0.170189
H295	H	-0.365662	-0.840324	-0.773721
H296	H	-0.032328	-0.506991	-0.440388
H297	H	0.301005	-0.173658	-0.107055
H298	H	-0.410347	-0.897652	-0.776155
H299	H	-0.077014	-0.564318	-0.442821
H300	H	0.256319	-0.230985	-0.109488
H301	H	-0.745622	-0.867017	-0.501639
H302	H	-0.412289	-0.533684	-0.168306
H303	H	-0.078955	-0.200350	0.165027
C304	C	-0.738494	-1.143641	-0.248004
C305	C	-0.405161	-0.810308	0.085329
C306	C	-0.071828	-0.476975	0.418663
H307	H	-0.762648	-1.171510	-0.222480
H308	H	-0.429314	-0.838177	0.110854
H309	H	-0.095981	-0.504844	0.444187
H310	H	-0.715407	-1.118148	-0.216283
H311	H	-0.382074	-0.784814	0.117050
H312	H	-0.048741	-0.451481	0.450383
H313	H	-0.718990	-1.173019	-0.276154
H314	H	-0.385657	-0.839686	0.057180
H315	H	-0.052324	-0.506353	0.390513
H316	H	-0.494558	-0.913645	-0.458687
H317	H	-0.161225	-0.580312	-0.125354
H318	H	0.172109	-0.246979	0.207979
C319	C	-1.104222	-1.097033	-0.290943
C320	C	-0.770889	-0.763700	0.042391
C321	C	-0.437555	-0.430366	0.375724
H322	H	-1.080211	-1.124879	-0.265394
H323	H	-0.746878	-0.791546	0.067939
H324	H	-0.413545	-0.458213	0.401273
H325	H	-1.127316	-1.126422	-0.319096
H326	H	-0.793983	-0.793089	0.014237
H327	H	-0.460650	-0.459756	0.347570
H328	H	-1.123739	-1.071543	-0.259232
H329	H	-0.790406	-0.738210	0.074101
H330	H	-0.457072	-0.404876	0.407434
C331	C	-0.601853	-1.096795	-0.290851
C332	C	-0.268520	-0.763461	0.042482
C333	C	0.064813	-0.430128	0.375815
H334	H	-0.577834	-1.124630	-0.265306
H335	H	-0.244500	-0.791296	0.068028
H336	H	0.088833	-0.457963	0.401361
H337	H	-0.624948	-1.126195	-0.318993
H338	H	-0.291615	-0.792861	0.014340
H339	H	0.041718	-0.459528	0.347674
H340	H	-0.621369	-1.071305	-0.259139
H341	H	-0.288035	-0.737972	0.074195
H342	H	0.045298	-0.404639	0.407528
H343	H	-0.245869	-1.068644	-0.652007
H344	H	0.087465	-0.735311	-0.318673
H345	H	0.420798	-0.401978	0.014660
H346	H	-0.225523	-1.097185	-0.984732
H347	H	0.107810	-0.763852	-0.651398
H348	H	0.441144	-0.430518	-0.318065
H349	H	-0.241408	-0.269669	-0.311157
H350	H	0.091926	0.063664	0.022177
H351	H	0.425259	0.396997	0.355510
C352	C	-1.103743	-0.900570	-0.471043
C353	C	-0.770409	-0.567236	-0.137710
C354	C	-0.437076	-0.233903	0.195624
H355	H	-1.079592	-0.872708	-0.496578
H356	H	-0.746258	-0.539375	-0.163245
H357	H	-0.412925	-0.206041	0.170088
H358	H	-1.123253	-0.871194	-0.442906
H359	H	-0.789920	-0.537861	-0.109572
H360	H	-0.456587	-0.204527	0.223761
H361	H	-1.126825	-0.926078	-0.502765
H362	H	-0.793491	-0.592744	-0.169432
H363	H	-0.460158	-0.259411	0.163901
C364	C	-0.236206	-0.413502	-0.304448
C365	C	0.097127	-0.080168	0.028885
C366	C	0.430461	0.253165	0.362218
H367	H	-0.214394	-0.382353	-0.276417
H368	H	0.118940	-0.049020	0.056916
H369	H	0.452273	0.284313	0.390250
H370	H	-0.215211	-0.440950	-0.332527
H371	H	0.118122	-0.107616	0.000806
H372	H	0.451455	0.225717	0.334140
H373	H	-0.256199	-0.443336	-0.275066
H374	H	0.077134	-0.110003	0.058268
H375	H	0.410468	0.223330	0.391601
H376	H	-0.223665	-0.735217	-0.288350
H377	H	0.109668	-0.401884	0.044983
H378	H	0.443002	-0.068550	0.378317
H379	H	-0.845310	-1.130325	-0.260273
H380	H	-0.511977	-0.796992	0.073061
H381	H	-0.178644	-0.463659	0.406394
H382	H	-0.361775	-0.905819	-0.644995
H383	H	-0.028442	-0.572486	-0.311662
H384	H	0.304891	-0.239152	0.021672
H385	H	-0.997325	-1.083618	-0.303171
H386	H	-0.663991	-0.750285	0.030163
H387	H	-0.330658	-0.416952	0.363496
H388	H	-0.996922	-0.913888	-0.458781
H389	H	-0.663589	-0.580555	-0.125448
H390	H	-0.330255	-0.247222	0.207885
H391	H	-0.341078	-0.508906	-0.439168
H392	H	-0.007745	-0.175573	-0.105835
H393	H	0.325589	0.157760	0.227499
C394	C	-0.360401	-0.738169	-0.463953
C395	C	-0.027068	-0.404836	-0.130620
C396	C	0.306265	-0.071502	0.202713
H397	H	-0.357034	-0.787292	-0.459616
H398	H	-0.023701	-0.453959	-0.126283
H399	H	0.309632	-0.120626	0.207050
H400	H	-0.353835	-0.724186	-0.510568
H401	H	-0.020502	-0.390852	-0.177234
H402	H	0.312832	-0.057519	0.156099
H403	H	-0.394808	-0.726575	-0.453088
H404	H	-0.061475	-0.393242	-0.119754
H405	H	0.271858	-0.059909	0.213579
H406	H	-0.254095	-1.057043	-0.871348
H407	H	0.079238	-0.723710	-0.538015
H408	H	0.412571	-0.390376	-0.204682
H409	H	-0.372241	-0.395536	-0.479179
H410	H	-0.038908	-0.062202	-0.145846
H411	H	0.294425	0.271131	0.187488
H412	H	-0.367840	-0.262704	-0.473534
H413	H	-0.034507	0.070630	-0.140201
H414	H	0.298826	0.403963	0.193133
H415	H	-0.345698	-0.595430	-0.445086
H416	H	-0.012365	-0.262097	-0.111752
H417	H	0.320969	0.071237	0.221581
C418	C	-0.241073	-1.075362	-0.795841
C419	C	0.092260	-0.742029	-0.462508
C420	C	0.425594	-0.408695	-0.129175
H421	H	-0.221077	-1.103464	-0.764703
H422	H	0.112256	-0.770131	-0.431369
H423	H	0.445590	-0.436797	-0.098036
H424	H	-0.218263	-1.047355	-0.823265
H425	H	0.115070	-0.714022	-0.489931
H426	H	0.448403	-0.380689	-0.156598
H427	H	-0.262956	-1.104673	-0.825701
H428	H	0.070377	-0.771339	-0.492368
H429	H	0.403711	-0.438006	-0.159034
H430	H	-0.250426	-0.489010	-0.322720
H431	H	0.082908	-0.155677	0.010613
H432	H	0.416241	0.177656	0.343947
H433	H	-0.337219	-0.940307	-0.891213
H434	H	-0.003886	-0.606973	-0.557879
H435	H	0.329448	-0.273640	-0.224546
