data_functionalizedCrystal
_audit_creation_method	'MofGen! by Chris Wilmer'
_symmetry_space_group_name_H-M	'P1'
_symmetry_Int_Tables_number	1
_symmetry_cell_setting	triclinic
loop_
_symmetry_equiv_pos_as_xyz
  x,y,z
_cell_length_a	13.032831
_cell_length_b	13.032721
_cell_length_c	13.033109
_cell_angle_alpha	105.143326
_cell_angle_beta	76.665514
_cell_angle_gamma	90.902885
loop_
_atom_site_label
_atom_site_type_symbol
_atom_site_fract_x
_atom_site_fract_y
_atom_site_fract_z
Zn1	Zn	1.617278	-0.734630	-0.889163
Zn2	Zn	1.577772	-0.883958	-0.728367
Zn3	Zn	1.422834	-0.683803	-0.683331
Zn4	Zn	1.422798	-0.883866	-0.883401
O5	O	1.510171	-0.796564	-0.796066
O6	O	1.758271	-0.775749	-0.889093
O7	O	1.540701	-0.836174	-0.571370
O8	O	1.465176	-0.544325	-0.694198
O9	O	1.729246	-0.885459	-0.770957
O10	O	1.608033	-0.581667	-0.845422
O11	O	1.426868	-0.689121	-0.538281
O12	O	1.276596	-0.689032	-0.688611
O13	O	1.465114	-0.885302	-1.035189
O14	O	1.276569	-0.836017	-0.835602
O15	O	1.607998	-0.775660	-1.039422
O16	O	1.540666	-1.030166	-0.765370
O17	O	1.426807	-1.030099	-0.879272
C18	C	1.238666	-0.757000	-0.756595
C19	C	1.122515	-0.740103	-0.739737
C20	C	1.070723	-0.805383	-0.804863
C21	C	0.950675	-0.787921	-0.787442
C22	C	1.479477	-1.068053	-0.826610
C23	C	1.466445	-1.184217	-0.839728
C24	C	1.517033	-1.236020	-0.789276
C25	C	1.503565	-1.356081	-0.802832
C26	C	1.782736	-0.836284	-0.835691
C27	C	1.898886	-0.853210	-0.852577
C28	C	1.540959	-0.836140	-1.077559
C29	C	1.554079	-0.853005	-1.197515
C30	C	1.541015	-0.524022	-0.765429
C31	C	1.554159	-0.407881	-0.752374
C32	C	1.503607	-0.787765	-1.234624
C33	C	1.517166	-0.805195	-1.358604
C34	C	1.479570	-0.757075	-0.515667
C35	C	1.466686	-0.739946	-0.395708
H36	H	1.115259	-0.874196	-0.873521
H37	H	1.570418	-0.873958	-1.418617
C38	C	1.529464	-1.094897	-0.632474
C39	C	1.588959	-1.175911	-0.717413
H40	H	1.573870	-1.057795	-0.588105
H41	H	1.499483	-1.046848	-0.662375
H42	H	1.474701	-1.125112	-0.589326
H43	H	1.643717	-1.145695	-0.760566
H44	H	1.618957	-1.223968	-0.687510
C45	C	1.432009	-0.550715	-1.333514
C46	C	1.394792	-0.647116	-1.314705
H47	H	1.387621	-0.493409	-1.283509
H48	H	1.501941	-0.543089	-1.323579
H49	H	1.431689	-0.550264	-1.406207
H50	H	1.395121	-0.647570	-1.242014
H51	H	1.324843	-0.654743	-1.324631
H52	H	1.450286	-1.400612	-0.856070
H53	H	0.906146	-0.719096	-0.718787
H54	H	1.607447	-1.363354	-0.699145
H55	H	1.413170	-1.228752	-0.892962
H56	H	1.450352	-0.719012	-1.174608
C57	C	1.625497	-0.945119	-1.385665
C58	C	1.625976	-0.945823	-1.278525
H59	H	1.669892	-1.002418	-1.435673
H60	H	1.555563	-0.952761	-1.395589
H61	H	1.650730	-0.879704	-1.398396
H62	H	1.600735	-1.011235	-1.265791
H63	H	1.695924	-0.938190	-1.268596
H64	H	1.077981	-0.671283	-0.671087
C65	C	1.066280	-0.945437	-0.944590
C66	C	0.958990	-0.946118	-0.945269
H67	H	1.103382	-1.002797	-1.001810
H68	H	1.093777	-0.880071	-0.955177
H69	H	1.074443	-0.952998	-0.876325
H70	H	0.950826	-0.938548	-1.013531
H71	H	0.931485	-1.011499	-0.934690
