data_functionalizedCrystal
_audit_creation_method	'MofGen! by Chris Wilmer'
_symmetry_space_group_name_H-M	'P1'
_symmetry_Int_Tables_number	1
_symmetry_cell_setting	triclinic
loop_
_symmetry_equiv_pos_as_xyz
  x,y,z
_cell_length_a	28.938199
_cell_length_b	28.937346
_cell_length_c	28.934044
_cell_angle_alpha	60.005004
_cell_angle_beta	60.009897
_cell_angle_gamma	59.994060
loop_
_atom_site_label
_atom_site_type_symbol
_atom_site_fract_x
_atom_site_fract_y
_atom_site_fract_z
O1	O	0.064043	-0.675186	0.564597
O2	O	0.564043	-0.175186	1.064597
O3	O	0.024124	-0.525682	0.454913
O4	O	0.524124	-0.025682	0.954913
O5	O	0.118795	-0.620275	0.454833
O6	O	0.618795	-0.120275	0.954833
O7	O	-0.030629	-0.580593	0.564678
O8	O	0.469371	-0.080593	1.064678
O9	O	0.150204	-0.588870	0.486157
O10	O	0.650204	-0.088870	0.986157
O11	O	0.055533	-0.494276	0.486238
O12	O	0.555533	0.005724	0.986238
O13	O	0.095452	-0.643780	0.595921
O14	O	0.595452	-0.143780	1.095921
Cu15	Cu	0.078360	-0.566161	0.543940
Cu16	Cu	0.578360	-0.066161	1.043940
Cu17	Cu	0.041215	-0.603301	0.506895
Cu18	Cu	0.541215	-0.103301	1.006895
O19	O	0.000780	-0.549187	0.596002
O20	O	0.500780	-0.049187	1.096002
N21	N	0.104487	-0.540042	0.569998
N22	N	0.604487	-0.040042	1.069998
N23	N	0.015094	-0.629425	0.480837
N24	N	0.515094	-0.129425	0.980837
C25	C	0.165467	-0.323909	0.630915
C26	C	0.665467	0.176091	1.130915
C27	C	0.165587	-0.479117	0.786068
C28	C	0.665587	0.020883	1.286068
C29	C	0.165481	-0.479095	0.630906
C30	C	0.665481	0.020905	1.130906
C31	C	0.320696	-0.479083	0.630835
C32	C	0.820696	0.020917	1.130835
C33	C	0.182557	-0.375118	0.647971
C34	C	0.682557	0.124882	1.147971
C35	C	0.182626	-0.462038	0.734858
C36	C	0.682626	0.037962	1.234858
C37	C	0.269485	-0.462018	0.647928
C38	C	0.769485	0.037982	1.147928
C39	C	0.182566	-0.462025	0.647966
C40	C	0.682566	0.037975	1.147966
C41	C	0.143714	-0.258726	0.609206
C42	C	0.643714	0.241274	1.109206
C43	C	0.143738	-0.500820	0.609192
C44	C	0.643738	-0.000820	1.109192
C45	C	0.204309	-0.440300	0.669680
C46	C	0.704309	0.059700	1.169680
C47	C	0.415481	-0.462740	0.580919
C48	C	0.915481	0.037260	1.080919
C49	C	0.474732	-0.482485	0.561145
C50	C	0.974732	0.017515	1.061145
C51	C	0.474757	-0.578356	0.597704
C52	C	0.974757	-0.078356	1.097704
C53	C	0.415508	-0.558609	0.617479
C54	C	0.915508	-0.058609	1.117479
C55	C	0.157989	-0.229089	0.550957
C56	C	0.657989	0.270911	1.050957
C57	C	0.138212	-0.169834	0.531225
C58	C	0.638212	0.330166	1.031225
C59	C	0.089890	-0.169857	0.627992
C60	C	0.589890	0.330143	1.127992
C61	C	0.109667	-0.229112	0.647725
C62	C	0.609667	0.270888	1.147725
C63	C	0.085482	-0.486515	0.623535
C64	C	0.585482	0.013485	1.123535
C65	C	0.065722	-0.506265	0.603789
C66	C	0.565722	-0.006265	1.103789
C67	C	0.162467	-0.554625	0.555370
C68	C	0.662467	-0.054625	1.055370
C69	C	0.182230	-0.534875	0.575110
C70	C	0.682230	-0.034875	1.075110
C71	C	0.085661	-0.486557	0.880902
C72	C	0.585661	0.013443	1.380902
C73	C	0.065952	-0.506323	0.940155
C74	C	0.565952	-0.006323	1.440155
C75	C	0.162734	-0.554693	0.940102
C76	C	0.662734	-0.054693	1.440102
C77	C	0.182441	-0.534928	0.880847
C78	C	0.682441	-0.034928	1.380847
C79	C	0.143904	-0.500859	0.851249
C80	C	0.643904	-0.000859	1.351249
C81	C	0.385871	-0.500801	0.609083
C82	C	0.885871	-0.000801	1.109083
C83	C	-0.110907	-0.668480	0.441278
C84	C	0.389093	-0.168480	0.941278
C85	C	-0.024049	-0.668588	0.441475
C86	C	0.475951	-0.168588	0.941475
C87	C	-0.045729	-0.690282	0.419668
C88	C	0.454271	-0.190282	0.919668
C89	C	-0.062146	-0.785032	0.469507
C90	C	0.437854	-0.285032	0.969507
C91	C	-0.042446	-0.844287	0.489286
C92	C	0.457554	-0.344287	0.989286
C93	C	0.053426	-0.844399	0.452899
C94	C	0.553426	-0.344399	0.952899
C95	C	0.033725	-0.785144	0.433120
C96	C	0.533725	-0.285144	0.933120
C97	C	-0.140617	-0.682751	0.499509
C98	C	0.359383	-0.182751	0.999509
C99	C	-0.199867	-0.662928	0.519152
C100	C	0.300133	-0.162928	1.019152
C101	C	-0.199694	-0.614571	0.422330
C102	C	0.300306	-0.114571	0.922330
C103	C	-0.140443	-0.634393	0.402687
C104	C	0.359557	-0.134393	0.902687
C105	C	-0.038320	-0.610337	0.427144
C106	C	0.461680	-0.110337	0.927144
C107	C	-0.018610	-0.590621	0.446974
C108	C	0.481390	-0.090621	0.946974
C109	C	0.029642	-0.687402	0.495454
C110	C	0.529642	-0.187402	0.995454
C111	C	0.009933	-0.707121	0.475630
C112	C	0.509933	-0.207121	0.975630
C113	C	-0.038148	-0.610347	0.324832
C114	C	0.461852	-0.110347	0.824832
C115	C	-0.018301	-0.590634	0.265579
C116	C	0.481699	-0.090634	0.765579
C117	C	0.030035	-0.687421	0.265643
C118	C	0.530035	-0.187421	0.765643
C119	C	0.010190	-0.707133	0.324897
C120	C	0.510190	-0.207133	0.824897
C121	C	-0.023903	-0.668595	0.354491
C122	C	0.476097	-0.168595	0.854491
C123	C	-0.024062	-0.755463	0.441426
C124	C	0.475938	-0.255463	0.941426
N125	N	0.503527	-0.540005	0.569810
N126	N	1.003527	-0.040005	1.069810
O127	O	0.684453	-0.545211	0.434650
O128	O	1.184453	-0.045211	0.934650
O129	O	0.684643	-0.655237	0.584005
O130	O	1.184643	-0.155237	1.084005
O131	O	0.684567	-0.654986	0.489282
O132	O	1.184567	-0.154986	0.989282
O133	O	0.684529	-0.545462	0.529373
O134	O	1.184529	-0.045462	1.029373
O135	O	0.590438	-0.623674	0.520735
O136	O	1.090438	-0.123674	1.020735
O137	O	0.590513	-0.623924	0.615457
O138	O	1.090513	-0.123924	1.115457
O139	O	0.590323	-0.513899	0.466102
O140	O	1.090323	-0.013899	0.966102
Cu141	Cu	0.581823	-0.566053	0.543652
Cu142	Cu	1.081823	-0.066053	1.043652
Cu143	Cu	0.693143	-0.603083	0.506456
Cu144	Cu	1.193143	-0.103083	1.006456
O145	O	0.590399	-0.514149	0.560825
O146	O	1.090399	-0.014149	1.060825
N147	N	0.771439	-0.629131	0.480292
N148	N	1.271439	-0.129131	0.980292
N149	N	0.104456	-0.141061	0.570015
N150	N	0.604456	0.358939	1.070015
O151	O	-0.030629	0.039964	0.564688
O152	O	0.469371	0.539964	1.064688
O153	O	0.118732	0.039984	0.454661
O154	O	0.618732	0.539984	0.954661
O155	O	0.023980	0.039958	0.454946
O156	O	0.523980	0.539958	0.954946
O157	O	0.064123	0.039990	0.564403
O158	O	0.564123	0.539990	1.064403
O159	O	0.055392	-0.054179	0.486321
O160	O	0.555392	0.445821	0.986321
O161	O	0.150144	-0.054153	0.486036
O162	O	0.650144	0.445847	0.986036
O163	O	0.000784	-0.054173	0.596063
O164	O	0.500784	0.445827	1.096063
Cu165	Cu	0.078332	-0.062759	0.543914
Cu166	Cu	0.578332	0.437241	1.043914
Cu167	Cu	0.041183	0.048570	0.506810
Cu168	Cu	0.541183	0.548570	1.006810
O169	O	0.095535	-0.054147	0.595778
O170	O	0.595535	0.445853	1.095778
N171	N	0.015053	0.126872	0.480710
N172	N	0.515053	0.626872	0.980710
N173	N	0.104760	-0.540096	0.968910
N174	N	0.604760	-0.040096	1.468910
O175	O	0.099447	-0.675167	1.149923
O176	O	0.599447	-0.175167	1.649923
O177	O	-0.010552	-0.525757	1.149951
O178	O	0.489448	-0.025757	1.649951
O179	O	-0.010297	-0.620493	1.149918
O180	O	0.489703	-0.120493	1.649918
O181	O	0.099192	-0.580431	1.149956
O182	O	0.599192	-0.080431	1.649956
O183	O	0.021064	-0.589100	1.055785
O184	O	0.521064	-0.089100	1.555785
O185	O	0.020809	-0.494365	1.055818
O186	O	0.520809	0.005635	1.555818
O187	O	0.130808	-0.643774	1.055790
O188	O	0.630808	-0.143774	1.555790
Cu189	Cu	0.078672	-0.566203	1.047209
Cu190	Cu	0.578672	-0.066203	1.547209
Cu191	Cu	0.041584	-0.603328	1.158532
Cu192	Cu	0.541584	-0.103328	1.658532
O193	O	0.130553	-0.549038	1.055823
O194	O	0.630553	-0.049038	1.555823
N195	N	0.015495	-0.629442	1.236831
N196	N	0.515495	-0.129442	1.736831
C197	C	0.036087	-0.491140	0.455465
C198	C	0.536087	0.008860	0.955465
C199	C	0.153325	-0.608283	0.455364
C200	C	0.653325	-0.108283	0.955364
C201	C	0.083488	-0.678322	0.595370
C202	C	0.583488	-0.178322	1.095370
C203	C	-0.033750	-0.561180	0.595470
C204	C	0.466250	-0.061180	1.095470
C205	C	0.637601	-0.654732	0.618548
C206	C	1.137601	-0.154732	1.118548
C207	C	0.637509	-0.654422	0.501245
C208	C	1.137509	-0.154422	1.001245
C209	C	0.637362	-0.514403	0.431560
C210	C	1.137362	-0.014403	0.931560
C211	C	0.637458	-0.514713	0.548862
C212	C	1.137458	-0.014713	1.048862
C213	C	0.153215	-0.006966	0.455158
C214	C	0.653215	0.493034	0.955158
C215	C	0.035916	-0.007114	0.455550
C216	C	0.535916	0.492886	0.955550
C217	C	-0.033739	-0.007106	0.595527
C218	C	0.466261	0.492894	1.095527
C219	C	0.083600	-0.007076	0.595174
C220	C	0.583600	0.492924	1.095174
C221	C	-0.010020	-0.491238	1.102888
C222	C	0.489980	0.008762	1.602888
C223	C	-0.009698	-0.608550	1.102828
C224	C	0.490302	-0.108550	1.602828
C225	C	0.130276	-0.678293	1.102853
C226	C	0.630276	-0.178293	1.602853
C227	C	0.129961	-0.560974	1.102892
C228	C	0.629961	-0.060974	1.602892
H229	H	0.054276	-0.458811	0.856808
H230	H	0.554276	0.041189	1.356808
H231	H	0.092017	-0.721269	0.629819
H232	H	0.592017	-0.221269	1.129819
O233	O	0.025766	-0.007203	0.414502
O234	O	0.525766	0.492797	0.914502
C235	C	0.064561	-0.055967	0.399287
C236	C	0.564561	0.444033	0.899287
H237	H	0.103795	-0.072208	0.410561
H238	H	0.603795	0.427792	0.910561
H239	H	0.044056	-0.090113	0.423187
H240	H	0.544056	0.409887	0.923187
C241	C	0.033453	-0.021220	0.321306
C242	C	0.533453	0.478780	0.821306
C243	C	0.081643	-0.041165	0.335148
C244	C	0.581643	0.458835	0.835148
H245	H	0.043988	-0.012091	0.281743
H246	H	0.543988	0.487909	0.781743
H247	H	0.007315	0.011632	0.331557
H248	H	0.507315	0.511632	0.831557
H249	H	0.016370	-0.049679	0.341227
H250	H	0.516370	0.450321	0.841227
H251	H	0.098721	-0.012704	0.315233
H252	H	0.598721	0.487296	0.815233
H253	H	0.107785	-0.074013	0.324892
H254	H	0.607785	0.425987	0.824892
H255	H	-0.044554	-0.448327	1.102896
H256	H	0.455446	0.051673	1.602896
H257	H	-0.076633	-0.007113	0.630069
H258	H	0.423367	0.492887	1.130069
O259	O	0.637550	-0.695542	0.491100
O260	O	1.137550	-0.195542	0.991100
C261	C	0.637604	-0.744394	0.539694
C262	C	1.137604	-0.244394	1.039694
H263	H	0.655448	-0.743901	0.566704
H264	H	1.155448	-0.243901	1.066704
H265	H	0.592463	-0.745103	0.565267
H266	H	1.092463	-0.245103	1.065267
C267	C	0.652621	-0.798068	0.488566
C268	C	1.152621	-0.298068	0.988566
C269	C	0.674542	-0.797466	0.521739
C270	C	1.174542	-0.297466	1.021739
H271	H	0.675404	-0.830805	0.477492
H272	H	1.175404	-0.330805	0.977492
H273	H	0.652583	-0.765155	0.455828
H274	H	1.152583	-0.265155	0.955828
H275	H	0.615004	-0.798656	0.509882
H276	H	1.115004	-0.298656	1.009882
H277	H	0.712156	-0.796870	0.500421
H278	H	1.212156	-0.296870	1.000421
H279	H	0.674588	-0.830379	0.554473
H280	H	1.174588	-0.330379	1.054473
H281	H	0.637300	-0.479859	0.388668
H282	H	1.137300	0.020141	0.888668
O283	O	-0.118291	-0.756289	0.477583
O284	O	0.381709	-0.256289	0.977583
C285	C	-0.147679	-0.795098	0.506614
C286	C	0.352321	-0.295098	1.006614
H287	H	-0.117271	-0.837362	0.499829
H288	H	0.382729	-0.337362	0.999829
H289	H	-0.166184	-0.801362	0.553754
H290	H	0.333816	-0.301362	1.053754
C291	C	-0.233210	-0.720030	0.492147
C292	C	0.266790	-0.220030	0.992147
C293	C	-0.195863	-0.771937	0.483809
C294	C	0.304137	-0.271937	0.983809
H295	H	-0.262934	-0.705743	0.478082
H296	H	0.237066	-0.205743	0.978082
H297	H	-0.213412	-0.693883	0.472590
H298	H	0.286588	-0.193883	0.972590
H299	H	-0.248624	-0.725257	0.531431
H300	H	0.251376	-0.225257	1.031431
H301	H	-0.180444	-0.766709	0.444526
H302	H	0.319556	-0.266709	0.944526
H303	H	-0.215660	-0.798083	0.503359
H304	H	0.284340	-0.298083	1.003359
O305	O	0.093955	-0.007101	0.636150
O306	O	0.593955	0.492899	1.136150
C307	C	0.149586	-0.007080	0.615516
C308	C	0.649586	0.492920	1.115516
H309	H	0.176347	-0.024894	0.579178
H310	H	0.676347	0.475106	1.079178
H311	H	0.148744	0.038084	0.599731
H312	H	0.648744	0.538084	1.099731
C313	C	0.142475	-0.022121	0.708016
C314	C	0.642475	0.477879	1.208016
C315	C	0.175344	-0.044005	0.663388
C316	C	0.675344	0.455995	1.163388
H317	H	0.158363	-0.044896	0.737546
H318	H	0.658363	0.455104	1.237546
H319	H	0.104994	-0.022133	0.721917
H320	H	0.604994	0.477867	1.221917
H321	H	0.141776	0.015516	0.694855
H322	H	0.641776	0.515516	1.194855
H323	H	0.176037	-0.081638	0.676548
H324	H	0.676037	0.418362	1.176548
H325	H	0.212826	-0.044000	0.649490
H326	H	0.712826	0.456000	1.149490
O327	O	-0.084971	-0.550992	0.636570
O328	O	0.415029	-0.050992	1.136570
C329	C	-0.120150	-0.495382	0.616107
C330	C	0.379850	0.004618	1.116107
H331	H	-0.092896	-0.468503	0.579754
H332	H	0.407104	0.031497	1.079754
H333	H	-0.148737	-0.496244	0.600393
H334	H	0.351263	0.003756	1.100393
C335	C	-0.190247	-0.502793	0.708734
C336	C	0.309753	-0.002793	1.208734
C337	C	-0.156774	-0.469779	0.664088
C338	C	0.343226	0.030221	1.164088
H339	H	-0.212841	-0.487000	0.738332
H340	H	0.287159	0.013000	1.238332
H341	H	-0.166548	-0.540260	0.722521
H342	H	0.333452	-0.040260	1.222521
H343	H	-0.214065	-0.503509	0.695632
H344	H	0.285935	-0.003509	1.195632
H345	H	-0.132952	-0.469069	0.677189
H346	H	0.367048	0.030931	1.177189
H347	H	-0.180470	-0.432311	0.650305
H348	H	0.319530	0.067689	1.150305
H349	H	0.018524	-0.494668	0.964293
H350	H	0.518524	0.005332	1.464293
H351	H	0.196022	-0.006699	0.420530
H352	H	0.696022	0.493301	0.920530
O353	O	-0.050647	-0.618839	1.102741
O354	O	0.449353	-0.118839	1.602741
C355	C	-0.030030	-0.674478	1.102725
C356	C	0.469970	-0.174478	1.602725
H357	H	0.018180	-0.689385	1.084935
H358	H	0.518180	-0.189385	1.584935
H359	H	-0.044362	-0.703765	1.147872
H360	H	0.455638	-0.203765	1.647872
C361	C	-0.112484	-0.657246	1.087601
C362	C	0.387516	-0.157246	1.587601
C363	C	-0.053272	-0.675553	1.065747
C364	C	0.446728	-0.175553	1.565747
H365	H	-0.126823	-0.657910	1.064793
H366	H	0.373177	-0.157910	1.564793
H367	H	-0.126376	-0.619761	1.087614
H368	H	0.373624	-0.119761	1.587614
H369	H	-0.124421	-0.681654	1.125223
H370	H	0.375579	-0.181654	1.625223
H371	H	-0.041337	-0.651140	1.028128
H372	H	0.458663	-0.151140	1.528128
H373	H	-0.039379	-0.713034	1.065726
H374	H	0.460621	-0.213034	1.565726
H375	H	0.027560	-0.448192	0.421017
H376	H	0.527560	0.051808	0.921017
O377	O	0.171409	-0.729523	1.102866
O378	O	0.671409	-0.229523	1.602866
C379	C	0.151043	-0.764736	1.102831
C380	C	0.651043	-0.264736	1.602831
H381	H	0.102833	-0.749405	1.120653
H382	H	0.602833	-0.249405	1.620653
H383	H	0.165423	-0.763197	1.057665
H384	H	0.665423	-0.263197	1.557665
C385	C	0.233706	-0.844820	1.117844
C386	C	0.733706	-0.344820	1.617844
C387	C	0.174494	-0.825993	1.139737
C388	C	0.674494	-0.325993	1.639737
H389	H	0.248174	-0.882607	1.140607
H390	H	0.748174	-0.382607	1.640607
H391	H	0.247429	-0.821096	1.117865
H392	H	0.747429	-0.321096	1.617865
H393	H	0.245683	-0.843533	1.080205
H394	H	0.745683	-0.343533	1.580205
H395	H	0.162519	-0.827274	1.177372
H396	H	0.662519	-0.327274	1.677372
H397	H	0.160770	-0.849719	1.139723
H398	H	0.660770	-0.349719	1.639723
H399	H	0.164358	-0.552401	1.102897
H400	H	0.664358	-0.052401	1.602897
O401	O	0.200246	-0.587800	0.968766
O402	O	0.700246	-0.087800	1.468766
C403	C	0.255880	-0.596173	0.929887
C404	C	0.755880	-0.096173	1.429887
H405	H	0.255743	-0.589539	0.887655
H406	H	0.755743	-0.089539	1.387655
H407	H	0.272853	-0.564638	0.923585
H408	H	0.772853	-0.064638	1.423585
C409	C	0.294074	-0.665029	1.004851
C410	C	0.794074	-0.165029	1.504851
C411	C	0.293907	-0.656886	0.952982
C412	C	0.793907	-0.156886	1.452982
H413	H	0.317532	-0.702478	1.019097
H414	H	0.817532	-0.202478	1.519097
H415	H	0.256593	-0.659387	1.031045
H416	H	0.756593	-0.159387	1.531045
H417	H	0.308217	-0.638745	0.999592
H418	H	0.808217	-0.138745	1.499592
H419	H	0.279757	-0.683164	0.958242
H420	H	0.779757	-0.183164	1.458242
H421	H	0.331387	-0.662534	0.926789
H422	H	0.831387	-0.162534	1.426789
O423	O	0.239017	-0.548889	0.852018
O424	O	0.739017	-0.048889	1.352018
C425	C	0.253317	-0.578700	0.817730
C426	C	0.753317	-0.078700	1.317730
H427	H	0.219921	-0.598756	0.835598
H428	H	0.719921	-0.098756	1.335598
H429	H	0.255255	-0.548225	0.772831
H430	H	0.755255	-0.048225	1.272831
C431	C	0.352451	-0.600707	0.794844
C432	C	0.852451	-0.100707	1.294844
C433	C	0.311436	-0.625344	0.816792
C434	C	0.811436	-0.125344	1.316792
H435	H	0.388303	-0.629477	0.794263
H436	H	0.888303	-0.129477	1.294263
H437	H	0.342817	-0.580621	0.817943
H438	H	0.842817	-0.080621	1.317943
H439	H	0.354059	-0.575311	0.757430
H440	H	0.854059	-0.075311	1.257430
H441	H	0.309824	-0.650733	0.854208
H442	H	0.809824	-0.150733	1.354208
H443	H	0.321071	-0.645435	0.793699
H444	H	0.821071	-0.145435	1.293699
O445	O	0.637688	-0.695888	0.669744
O446	O	1.137688	-0.195888	1.169744
C447	C	0.637686	-0.675502	0.704970
C448	C	1.137686	-0.175502	1.204970
H449	H	0.655465	-0.639147	0.677756
H450	H	1.155465	-0.139147	1.177756
H451	H	0.592536	-0.659813	0.733580
H452	H	1.092536	-0.159813	1.233580
C453	C	0.652820	-0.768189	0.774991
C454	C	1.152820	-0.268189	1.274991
C455	C	0.674661	-0.723540	0.741565
C456	C	1.174661	-0.223540	1.241565
H457	H	0.675626	-0.797821	0.797566
H458	H	1.175626	-0.297821	1.297566
H459	H	0.652820	-0.781923	0.751259
H460	H	1.152820	-0.281923	1.251259
H461	H	0.615195	-0.755107	0.798827
H462	H	1.115195	-0.255107	1.298827
H463	H	0.712282	-0.736621	0.717724
H464	H	1.212282	-0.236621	1.217724
H465	H	0.674669	-0.709809	0.765293
H466	H	1.174669	-0.209809	1.265293
O467	O	0.637545	-0.473681	0.559032
O468	O	1.137545	0.026319	1.059032
C469	C	0.686252	-0.458404	0.520197
C470	C	1.186252	0.041596	1.020197
H471	H	0.720334	-0.494650	0.503579
H472	H	1.220334	0.005350	1.003579
H473	H	0.675174	-0.418986	0.483372
H474	H	1.175174	0.081014	0.983372
C475	C	0.666520	-0.401483	0.570381
C476	C	1.166520	0.098517	1.070381
C477	C	0.708382	-0.446003	0.549973
C478	C	1.208382	0.053997	1.049973
H479	H	0.680170	-0.393831	0.588746
H480	H	1.180170	0.106169	1.088746
H481	H	0.633704	-0.411774	0.596543
H482	H	1.133704	0.088226	1.096543
H483	H	0.657293	-0.368640	0.539689
H484	H	1.157293	0.131360	1.039689
H485	H	0.717604	-0.478847	0.580665
H486	H	1.217604	0.021153	1.080665
H487	H	0.741200	-0.435718	0.523816
H488	H	1.241200	0.064282	1.023816
H489	H	-0.065911	-0.578960	0.348925
H490	H	0.434089	-0.078960	0.848925
H491	H	0.018285	-0.494604	0.615454
H492	H	0.518285	0.005396	1.115454
O493	O	0.048014	-0.453417	0.656611
O494	O	0.548014	0.046583	1.156611
C495	C	-0.007641	-0.445034	0.665040
C496	C	0.492359	0.054966	1.165040
H497	H	-0.007557	-0.451649	0.629322
H498	H	0.492443	0.048351	1.129322
H499	H	-0.024591	-0.476578	0.707251
H500	H	0.475409	0.023422	1.207251
C501	C	-0.045753	-0.376208	0.709350
C502	C	0.454247	0.123792	1.209350
C503	C	-0.045651	-0.384328	0.665477
C504	C	0.454349	0.115672	1.165477
H505	H	-0.069201	-0.338762	0.709622
H506	H	0.430799	0.161238	1.209622
H507	H	-0.008258	-0.381857	0.703673
H508	H	0.491742	0.118143	1.203673
H509	H	-0.059877	-0.402499	0.744520
H510	H	0.440123	0.097501	1.244520
H511	H	-0.031520	-0.358042	0.630307
H512	H	0.468480	0.141958	1.130307
H513	H	-0.083145	-0.378673	0.671148
H514	H	0.416855	0.121327	1.171148
H515	H	0.229667	-0.546519	0.563426
H516	H	0.729667	-0.046519	1.063426
O517	O	0.199888	-0.587624	0.522184
O518	O	0.699888	-0.087624	1.022184
C519	C	0.234124	-0.557696	0.472492
C520	C	0.734124	-0.057696	0.972492
H521	H	0.211228	-0.510291	0.464270
H522	H	0.711228	-0.010291	0.964270
H523	H	0.275762	-0.570308	0.477858
H524	H	0.775762	-0.070308	0.977858
C525	C	0.274324	-0.630227	0.432169
C526	C	0.774324	-0.130227	0.932169
C527	C	0.246201	-0.572003	0.422067
C528	C	0.746201	-0.072003	0.922067
H529	H	0.281776	-0.639053	0.401064
H530	H	0.781776	-0.139053	0.901064
H531	H	0.251261	-0.650391	0.465647
H532	H	0.751261	-0.150391	0.965647
H533	H	0.309019	-0.640729	0.436642
H534	H	0.809019	-0.140729	0.936642
H535	H	0.211504	-0.561503	0.417602
H536	H	0.711504	-0.061503	0.917602
H537	H	0.269259	-0.551837	0.388586
H538	H	0.769259	-0.051837	0.888586
O539	O	0.386834	-0.595658	0.644805
O540	O	0.886834	-0.095658	1.144805
C541	C	0.425703	-0.650915	0.647982
C542	C	0.925703	-0.150915	1.147982
H543	H	0.467923	-0.648653	0.612973
H544	H	0.967923	-0.148653	1.112973
H545	H	0.432036	-0.673535	0.690913
H546	H	0.932036	-0.173535	1.190913
C547	C	0.350717	-0.686550	0.683747
C548	C	0.850717	-0.186550	1.183747
C549	C	0.402572	-0.683773	0.640746
C550	C	0.902572	-0.183773	1.140746
H551	H	0.336449	-0.706821	0.679287
H552	H	0.836449	-0.206821	1.179287
H553	H	0.324530	-0.649323	0.681610
H554	H	0.824530	-0.149323	1.181610
H555	H	0.356002	-0.705399	0.719520
H556	H	0.856002	-0.205399	1.219520
H557	H	0.397286	-0.664918	0.604975
H558	H	0.897286	-0.164918	1.104975
H559	H	0.428758	-0.720998	0.642877
H560	H	0.928758	-0.220998	1.142877
H561	H	0.498841	-0.451490	0.538213
H562	H	0.998841	0.048510	1.038213
O563	O	0.503608	-0.634506	0.605888
O564	O	1.003608	-0.134506	1.105888
C565	C	0.537900	-0.655041	0.638105
C566	C	1.037900	-0.155041	1.138105
H567	H	0.546772	-0.618461	0.633460
H568	H	1.046772	-0.118461	1.133460
H569	H	0.515092	-0.675458	0.684541
H570	H	1.015092	-0.175458	1.184541
C571	C	0.583284	-0.744234	0.622551
C572	C	1.083284	-0.244234	1.122551
C573	C	0.594185	-0.699306	0.616841
C574	C	1.094185	-0.199306	1.116841
H575	H	0.618003	-0.771540	0.609436
H576	H	1.118003	-0.271540	1.109436
H577	H	0.560180	-0.730400	0.600847
H578	H	1.060180	-0.230400	1.100847
H579	H	0.564276	-0.761241	0.661248
H580	H	1.064276	-0.261241	1.161248
H581	H	0.613186	-0.682295	0.578144
H582	H	1.113186	-0.182295	1.078144
H583	H	0.617294	-0.713137	0.638538
H584	H	1.117294	-0.213137	1.138538
O585	O	0.386753	-0.406561	0.572667
O586	O	0.886753	0.093439	1.072667
C587	C	0.401188	-0.375987	0.514164
C588	C	0.901188	0.124013	1.014164
H589	H	0.444202	-0.401875	0.490821
H590	H	0.944202	0.098125	0.990821
H591	H	0.367825	-0.367148	0.498030
H592	H	0.867825	0.132852	0.998030
C593	C	0.351088	-0.287763	0.532257
C594	C	0.851088	0.212237	1.032257
C595	C	0.403922	-0.319558	0.503587
C596	C	0.903922	0.180442	1.003587
H597	H	0.352772	-0.252954	0.525732
H598	H	0.852772	0.247046	1.025732
H599	H	0.341361	-0.308361	0.571672
H600	H	0.841361	0.191639	1.071672
H601	H	0.323291	-0.280403	0.518809
H602	H	0.823291	0.219597	1.018809
H603	H	0.431716	-0.326923	0.517041
H604	H	0.931716	0.173077	1.017041
H605	H	0.413654	-0.298959	0.464175
H606	H	0.913654	0.201041	0.964175
O607	O	0.191035	-0.257767	0.513463
O608	O	0.691035	0.242233	1.013463
C609	C	0.199400	-0.218900	0.457817
C610	C	0.699400	0.281100	0.957817
H611	H	0.163667	-0.176667	0.457943
H612	H	0.663667	0.323333	0.957943
H613	H	0.241604	-0.212588	0.440821
H614	H	0.741604	0.287412	0.940821
C615	C	0.243682	-0.293893	0.419670
C616	C	0.743682	0.206107	0.919670
C617	C	0.199792	-0.242023	0.419823
C618	C	0.699792	0.257977	0.919823
H619	H	0.243927	-0.308156	0.396232
H620	H	0.743927	0.191844	0.896232
H621	H	0.238049	-0.320079	0.457159
H622	H	0.738049	0.179921	0.957159
H623	H	0.278848	-0.288626	0.405508
H624	H	0.778848	0.211374	0.905508
H625	H	0.164627	-0.247292	0.433992
H626	H	0.664627	0.252708	0.933992
H627	H	0.205419	-0.215838	0.382336
H628	H	0.705419	0.284162	0.882336
H629	H	0.062174	-0.145744	0.659359
H630	H	0.562174	0.354256	1.159359
O631	O	0.095768	-0.257812	0.704327
O632	O	0.595768	0.242188	1.204327
C633	C	0.061462	-0.218964	0.734090
C634	C	0.561462	0.281036	1.234090
H635	H	0.069003	-0.176720	0.705832
H636	H	0.569003	0.323280	1.205832
H637	H	0.015052	-0.212671	0.746882
H638	H	0.515052	0.287329	1.246882
C639	C	0.067234	-0.293981	0.822199
C640	C	0.567234	0.206019	1.322199
C641	C	0.076499	-0.242097	0.787494
C642	C	0.576499	0.257903	1.287494
H643	H	0.076507	-0.308250	0.855142
H644	H	0.576507	0.191750	1.355142
H645	H	0.090345	-0.320154	0.802148
H646	H	0.590345	0.179846	1.302148
H647	H	0.028559	-0.288729	0.832853
H648	H	0.528559	0.211271	1.332853
H649	H	0.115175	-0.247350	0.776834
H650	H	0.615175	0.252650	1.276834
H651	H	0.053395	-0.215925	0.807544
H652	H	0.553395	0.284075	1.307544
O653	O	-0.032222	-0.534030	0.236862
O654	O	0.467778	-0.034030	0.736862
C655	C	-0.066558	-0.504246	0.275692
C656	C	0.433442	-0.004246	0.775692
H657	H	-0.088157	-0.532472	0.317905
H658	H	0.411843	-0.032472	0.817905
H659	H	-0.039250	-0.491502	0.282066
H660	H	0.460750	0.008498	0.782066
C661	C	-0.085249	-0.416133	0.200625
C662	C	0.414751	0.083867	0.700625
C663	C	-0.111781	-0.450799	0.252471
C664	C	0.388219	0.049201	0.752471
H665	H	-0.113143	-0.383163	0.186302
H666	H	0.386857	0.116837	0.686302
H667	H	-0.062114	-0.436198	0.174465
H668	H	0.437886	0.063802	0.674465
H669	H	-0.062493	-0.405519	0.205944
H670	H	0.437507	0.094481	0.705944
H671	H	-0.134530	-0.461418	0.247151
H672	H	0.365470	0.038582	0.747151
H673	H	-0.134920	-0.430735	0.278631
H674	H	0.365080	0.069265	0.778631
O675	O	0.152102	-0.140979	0.474653
O676	O	0.652102	0.359021	0.974653
C677	C	0.181931	-0.106706	0.460320
C678	C	0.681931	0.393294	0.960320
H679	H	0.171264	-0.097835	0.499365
H680	H	0.671264	0.402165	0.999365
H681	H	0.229353	-0.129532	0.444035
H682	H	0.729353	0.370468	0.944035
C683	C	0.177967	-0.061311	0.365961
C684	C	0.677967	0.438689	0.865961
C685	C	0.164862	-0.050412	0.413916
C686	C	0.664862	0.449588	0.913916
H687	H	0.167440	-0.026587	0.337335
H688	H	0.667440	0.473413	0.837335
H689	H	0.157872	-0.084403	0.375616
H690	H	0.657872	0.415597	0.875616
H691	H	0.217485	-0.080334	0.352398
H692	H	0.717485	0.419666	0.852398
H693	H	0.125344	-0.031396	0.427483
H694	H	0.625344	0.468604	0.927483
H695	H	0.184950	-0.027315	0.404262
H696	H	0.684950	0.472685	0.904262
O697	O	0.023961	-0.763724	0.353682
O698	O	0.523961	-0.263724	0.853682
C699	C	0.003738	-0.788299	0.339121
C700	C	0.503738	-0.288299	0.839121
H701	H	-0.032753	-0.754529	0.322750
H702	H	0.467247	-0.254529	0.822750
H703	H	0.039321	-0.807043	0.304768
H704	H	0.539321	-0.307043	0.804768
C705	C	0.027696	-0.876916	0.411842
C706	C	0.527696	-0.376916	0.911842
C707	C	-0.017127	-0.835441	0.391739
C708	C	0.482873	-0.335441	0.891739
H709	H	0.014828	-0.905998	0.444298
H710	H	0.514828	-0.405998	0.944298
H711	H	0.041323	-0.860361	0.421651
H712	H	0.541323	-0.360361	0.921651
H713	H	0.057345	-0.892530	0.383210
H714	H	0.557345	-0.392530	0.883210
H715	H	-0.046770	-0.819823	0.420369
H716	H	0.453230	-0.319823	0.920369
H717	H	-0.030758	-0.851995	0.381937
H718	H	0.469242	-0.351995	0.881937
O719	O	-0.032489	-0.534017	0.432969
O720	O	0.467511	-0.034017	0.932969
C721	C	-0.066710	-0.504233	0.398574
C722	C	0.433290	-0.004233	0.898574
H723	H	-0.059132	-0.532501	0.377029
H724	H	0.440868	-0.032501	0.877029
H725	H	-0.113142	-0.491380	0.425825
H726	H	0.386858	0.008620	0.925825
C727	C	-0.060915	-0.416157	0.379757
C728	C	0.439085	0.083843	0.879757
C729	C	-0.051604	-0.450874	0.353291
C730	C	0.448396	0.049126	0.853291
H731	H	-0.051599	-0.383241	0.351826
H732	H	0.448401	0.116759	0.851826
H733	H	-0.037862	-0.436222	0.402931
H734	H	0.462138	0.063778	0.902931
H735	H	-0.099609	-0.405452	0.402465
H736	H	0.400391	0.094548	0.902465
H737	H	-0.012909	-0.461584	0.330589
H738	H	0.487091	0.038416	0.830589
H739	H	-0.074651	-0.430809	0.330112
H740	H	0.425349	0.069191	0.830112
H741	H	-0.116569	-0.710512	0.530934
H742	H	0.383431	-0.210512	1.030934
O743	O	0.062627	-0.724911	0.528642
O744	O	0.562627	-0.224911	1.028642
C745	C	0.071008	-0.780551	0.537020
C746	C	0.571008	-0.280551	1.037020
H747	H	0.035316	-0.780400	0.530311
H748	H	0.535316	-0.280400	1.030311
H749	H	0.113246	-0.797573	0.505540
H750	H	0.613246	-0.297573	1.005540
C751	C	0.115157	-0.818724	0.606000
C752	C	0.615157	-0.318724	1.106000
C753	C	0.071318	-0.818540	0.597765
C754	C	0.571318	-0.318540	1.097765
H755	H	0.115351	-0.842159	0.643469
H756	H	0.615351	-0.342159	1.143469
H757	H	0.109513	-0.781239	0.600354
H758	H	0.609513	-0.281239	1.100354
H759	H	0.150351	-0.832908	0.579762
H760	H	0.650351	-0.332908	1.079762
H761	H	0.036125	-0.804350	0.623997
H762	H	0.536125	-0.304350	1.123997
H763	H	0.076956	-0.856024	0.603416
H764	H	0.576956	-0.356024	1.103416
H765	H	-0.065985	-0.578958	0.399332
H766	H	0.434015	-0.078958	0.899332
O767	O	0.070786	-0.756482	0.405784
O768	O	0.570786	-0.256482	0.905784
C769	C	0.111057	-0.770996	0.356962
C770	C	0.611057	-0.270996	0.856962
H771	H	0.113833	-0.814006	0.362301
H772	H	0.613833	-0.314006	0.862301
H773	H	0.097738	-0.737646	0.318534
H774	H	0.597738	-0.237646	0.818534
C775	C	0.165880	-0.720973	0.341772
C776	C	0.665880	-0.220973	0.841772
C777	C	0.169293	-0.773802	0.348331
C778	C	0.669293	-0.273802	0.848331
H779	H	0.201802	-0.722702	0.336447
H780	H	0.701802	-0.222702	0.836447
H781	H	0.138748	-0.711193	0.374664
H782	H	0.638748	-0.211193	0.874664
H783	H	0.154779	-0.693187	0.309750
H784	H	0.654779	-0.193187	0.809750
H785	H	0.180387	-0.801585	0.380358
H786	H	0.680387	-0.301585	0.880358
H787	H	0.196428	-0.783587	0.315445
H788	H	0.696428	-0.283587	0.815445
O789	O	0.109543	-0.873260	0.444936
O790	O	0.609543	-0.373260	0.944936
C791	C	0.117504	-0.907541	0.497869
C792	C	0.617504	-0.407541	0.997869
H793	H	0.079960	-0.889646	0.531995
H794	H	0.579960	-0.389646	1.031995
H795	H	0.120981	-0.952436	0.508120
H796	H	0.620981	-0.452436	1.008120
C797	C	0.218331	-0.930495	0.453832
C798	C	0.718331	-0.430495	0.953832
C799	C	0.172221	-0.908512	0.495745
C800	C	0.672221	-0.408512	0.995745
H801	H	0.252084	-0.931097	0.452522
H802	H	0.752084	-0.431097	0.952522
H803	H	0.212968	-0.907401	0.418170
H804	H	0.712968	-0.407401	0.918170
H805	H	0.221220	-0.967905	0.462379
H806	H	0.721220	-0.467905	0.962379
H807	H	0.169328	-0.871101	0.487194
H808	H	0.669328	-0.371101	0.987194
H809	H	0.177585	-0.931600	0.531406
H810	H	0.677585	-0.431600	1.031406
H811	H	0.021552	-0.754553	0.487300
H812	H	0.521552	-0.254553	0.987300
O813	O	-0.228302	-0.581450	0.384768
O814	O	0.271698	-0.081450	0.884768
C815	C	-0.189373	-0.573128	0.329156
C816	C	0.310627	-0.073128	0.829156
H817	H	-0.147158	-0.579797	0.329348
H818	H	0.352842	-0.079797	0.829348
H819	H	-0.183057	-0.604668	0.312172
H820	H	0.316943	-0.104668	0.812172
C821	C	-0.264257	-0.504232	0.290859
C822	C	0.235743	-0.004232	0.790859
C823	C	-0.212409	-0.512418	0.291093
C824	C	0.287591	-0.012418	0.791093
H825	H	-0.278467	-0.466785	0.267378
H826	H	0.221533	0.033215	0.767378
H827	H	-0.290485	-0.509840	0.328325
H828	H	0.209515	-0.009840	0.828325
H829	H	-0.258987	-0.530520	0.276707
H830	H	0.241013	-0.030520	0.776707
H831	H	-0.217682	-0.486136	0.305252
H832	H	0.282318	0.013864	0.805252
H833	H	-0.186183	-0.506804	0.253628
H834	H	0.313817	-0.006804	0.753628
O835	O	-0.079432	-0.873010	0.516495
O836	O	0.420568	-0.373010	1.016495
C837	C	-0.064643	-0.907311	0.486482
C838	C	0.435357	-0.407311	0.986482
H839	H	-0.038963	-0.889525	0.440430
H840	H	0.461037	-0.389525	0.940430
H841	H	-0.038286	-0.952241	0.506230
H842	H	0.461714	-0.452241	1.006230
C843	C	-0.150324	-0.929958	0.545792
C844	C	0.349676	-0.429958	1.045792
C845	C	-0.118787	-0.908110	0.489229
C846	C	0.381213	-0.408110	0.989229
H847	H	-0.183722	-0.930453	0.547488
H848	H	0.316278	-0.430453	1.047488
H849	H	-0.160288	-0.906850	0.566014
H850	H	0.339712	-0.406850	1.066014
H851	H	-0.128354	-0.967397	0.562242
H852	H	0.371646	-0.467397	1.062242
H853	H	-0.140755	-0.870669	0.472783
H854	H	0.359245	-0.370669	0.972783
H855	H	-0.108829	-0.931211	0.469005
H856	H	0.391171	-0.431211	0.969005
H857	H	-0.224058	-0.674545	0.566571
H858	H	0.275942	-0.174545	1.066571
O859	O	0.204480	-0.618375	0.414159
O860	O	0.704480	-0.118375	0.914159
C861	C	0.197035	-0.612020	0.366471
C862	C	0.697035	-0.112020	0.866471
H863	H	0.155572	-0.618242	0.380105
H864	H	0.655572	-0.118242	0.880105
H865	H	0.195780	-0.567775	0.334472
H866	H	0.695780	-0.067775	0.834472
C867	C	0.297530	-0.648799	0.322446
C868	C	0.797530	-0.148799	0.822446
C869	C	0.246607	-0.656446	0.339191
C870	C	0.746607	-0.156446	0.839191
H871	H	0.328109	-0.676201	0.305616
H872	H	0.828109	-0.176201	0.805616
H873	H	0.302547	-0.653079	0.354573
H874	H	0.802547	-0.153079	0.854573
H875	H	0.296477	-0.611926	0.295782
H876	H	0.796477	-0.111926	0.795782
H877	H	0.247658	-0.693315	0.365860
H878	H	0.747658	-0.193315	0.865860
H879	H	0.241592	-0.652173	0.307068
H880	H	0.741592	-0.152173	0.807068
H881	H	-0.116252	-0.622767	0.355267
H882	H	0.383748	-0.122767	0.855267
H883	H	0.057785	-0.718806	0.241554
H884	H	0.557785	-0.218806	0.741554
