data_functionalizedCrystal
_audit_creation_method	'MofGen! by Chris Wilmer'
_symmetry_space_group_name_H-M	'P1'
_symmetry_Int_Tables_number	1
_symmetry_cell_setting	triclinic
loop_
_symmetry_equiv_pos_as_xyz
  x,y,z
_cell_length_a	13.185407
_cell_length_b	27.731996
_cell_length_c	12.376457
_cell_angle_alpha	101.172962
_cell_angle_beta	82.592400
_cell_angle_gamma	67.297436
loop_
_atom_site_label
_atom_site_type_symbol
_atom_site_fract_x
_atom_site_fract_y
_atom_site_fract_z
O1	O	1.470253	-0.138214	-0.093935
O2	O	1.151913	-0.089110	-0.093957
O3	O	1.320994	-0.185315	-0.093921
O4	O	1.301172	-0.042010	-0.093972
O5	O	1.278739	-0.161291	0.094082
O6	O	1.109658	-0.065086	0.094046
O7	O	1.427998	-0.114191	0.094068
Zn8	Zn	1.262119	-0.085824	0.123906
Zn9	Zn	1.317792	-0.117477	-0.123796
O10	O	1.258917	-0.017986	0.094032
C11	C	1.090071	-0.072120	0.000042
C12	C	0.968756	-0.057293	0.000034
C13	C	0.681934	-0.198802	0.000089
C14	C	0.795914	-0.212734	0.000103
C15	C	0.839130	-0.173875	0.000085
C16	C	0.768355	-0.121082	0.000054
C17	C	0.654362	-0.107148	0.000049
C18	C	0.811558	-0.082220	0.000046
C19	C	0.740783	-0.029427	0.000015
C20	C	0.626801	-0.015496	0.000009
C21	C	0.583585	-0.054354	0.000026
C22	C	0.925552	-0.096155	0.000051
C23	C	0.897980	-0.004500	0.000012
C24	C	0.783999	0.009432	-0.000003
C25	C	1.299458	-0.191258	0.000084
C26	C	1.298229	-0.244758	0.000096
C27	C	1.313553	-0.589597	-0.102441
C28	C	1.308898	-0.790667	-0.102461
O29	O	1.327837	-0.827793	-0.189617
N30	N	1.285286	-0.802716	0.000019
C31	C	1.262829	-0.764491	0.102510
O32	O	1.242628	-0.779351	0.189675
C33	C	1.267477	-0.563421	0.102529
C34	C	1.291102	-0.551378	0.000043
C35	C	1.337175	-0.577553	-0.204919
C36	C	1.338344	-0.527290	-0.204913
C37	C	1.315893	-0.489070	-0.102429
C38	C	1.292271	-0.501115	0.000049
C39	C	1.245013	-0.525196	0.205020
C40	C	1.246174	-0.474926	0.205016
C41	C	1.269799	-0.462883	0.102529
C42	C	1.270989	-0.412632	0.102539
N43	N	1.294601	-0.400584	0.000060
C44	C	1.317053	-0.438803	-0.102424
C45	C	1.260393	-0.870058	0.102493
C46	C	1.259233	-0.920325	0.102489
C47	C	1.305300	-0.946498	-0.102483
C48	C	1.306467	-0.896230	-0.102477
C49	C	1.284005	-0.858009	0.000014
C50	C	1.319508	-0.333245	-0.102404
C51	C	1.320680	-0.282977	-0.102388
C52	C	1.274608	-0.256808	0.102583
C53	C	1.273442	-0.307073	0.102568
C54	C	1.295890	-0.345291	0.000066
O55	O	1.252048	-0.375479	0.189650
O56	O	1.337227	-0.423928	-0.189576
C57	C	1.312384	-0.639861	-0.102447
C58	C	1.288763	-0.651905	0.000031
C59	C	1.266311	-0.613686	0.102515
C60	C	1.287603	-0.702173	0.000027
C61	C	1.310054	-0.740392	-0.102457
C62	C	1.333666	-0.728344	-0.204937
C63	C	1.334836	-0.678080	-0.204931
C64	C	1.242699	-0.625734	0.204994
C65	C	1.241533	-0.675999	0.204980
C66	C	1.263984	-0.714218	0.102496
C67	C	1.489840	-0.131181	0.000066
C68	C	1.611157	-0.146009	0.000066
C69	C	1.280453	-0.012043	0.000024
C70	C	1.281685	0.041455	0.000005
N71	N	1.224132	-0.064223	0.292956
N72	N	1.355788	-0.139082	-0.292846
C73	C	1.443969	-0.189234	0.647988
C74	C	1.470550	-0.204352	0.529654
C75	C	1.408947	-0.169321	0.470474
C76	C	1.320760	-0.119170	0.529639
C77	C	1.294181	-0.104049	0.647985
C78	C	1.259160	-0.084136	0.470471
C79	C	1.170973	-0.033985	0.529636
C80	C	1.144398	-0.018867	0.647970
C81	C	1.206001	-0.053897	0.707151
C82	C	1.285738	-0.099257	0.352125
C83	C	1.135951	-0.014072	0.352122
C84	C	1.109370	0.001046	0.470456
H85	H	0.646728	-0.230431	0.000135
O86	O	1.001884	-0.153092	0.000084
H87	H	1.003844	-0.182185	-0.076538
O88	O	0.962065	-0.188897	0.000103
H89	H	1.004021	-0.232136	0.000121
O90	O	1.346145	-0.269987	-0.212934
H91	H	1.431481	-0.299920	-0.262081
H92	H	0.490775	-0.043015	0.000009
H93	H	1.072599	0.021972	0.696143
H94	H	0.569175	0.027494	-0.000005
O95	O	1.221957	-0.433706	0.315567
H96	H	1.146861	-0.396173	0.320478
H97	H	0.853530	-0.255718	0.000132
O98	O	1.216057	-0.688989	0.315524
H99	H	1.130710	-0.659059	0.364649
O100	O	1.360302	-0.665096	-0.315476
H101	H	1.436463	-0.656832	-0.320393
H102	H	1.337782	-0.364356	-0.185871
O103	O	0.707657	0.066375	-0.000015
H104	H	0.621135	0.069534	-0.000005
H105	H	0.933164	0.027143	0.000001
H106	H	1.357578	-0.517489	-0.288367
O107	O	1.437596	-0.185627	0.342842
H108	H	1.509257	-0.226388	0.311642
O109	O	1.361366	-0.618768	-0.315464
H110	H	1.377979	-0.601938	-0.386710
O111	O	1.331928	-0.883238	-0.213013
H112	H	1.347335	-0.918262	-0.284271
O113	O	1.329502	-0.987721	-0.213024
H114	H	1.324713	-1.024694	-0.195799
H115	H	1.037566	0.041880	0.518643
H116	H	1.351952	-0.759472	-0.288383
O117	O	1.233763	-0.933315	0.213026
H118	H	1.218335	-0.898287	0.284284
H119	H	1.225777	-0.534992	0.288475
O120	O	1.247966	-0.320068	0.213102
H121	H	1.232546	-0.285044	0.284365
H122	H	1.242106	-0.838942	0.185958
H123	H	1.542352	-0.245184	0.481486
O124	O	1.250391	-0.215582	0.213117
H125	H	1.255163	-0.178605	0.195894
H126	H	1.224418	-0.594620	0.288451
O127	O	1.380830	-0.153349	0.288308
H128	H	1.460829	-0.155344	0.311003
O129	O	1.510408	-0.227013	0.711813
H130	H	1.477107	-0.208073	0.804040
O131	O	1.069483	0.023713	0.288310
H132	H	1.102767	0.004770	0.196082
H133	H	1.184356	-0.041590	0.803508
