data_functionalizedCrystal
_audit_creation_method	'MofGen! by Chris Wilmer'
_symmetry_space_group_name_H-M	'P1'
_symmetry_Int_Tables_number	1
_symmetry_cell_setting	triclinic
loop_
_symmetry_equiv_pos_as_xyz
  x,y,z
_cell_length_a	10.686220
_cell_length_b	29.839131
_cell_length_c	10.686551
_cell_angle_alpha	85.589901
_cell_angle_beta	90.308082
_cell_angle_gamma	94.423467
loop_
_atom_site_label
_atom_site_type_symbol
_atom_site_fract_x
_atom_site_fract_y
_atom_site_fract_z
Zn1	Zn	1.972144	-0.109531	-0.562362
Zn2	Zn	1.955808	-0.190848	-0.352586
Zn3	Zn	1.746247	-0.121024	-0.368677
Zn4	Zn	1.762239	-0.189937	-0.578364
O5	O	1.859109	-0.152835	-0.465497
O6	O	2.145524	-0.115889	-0.521104
O7	O	1.914480	-0.186776	-0.179174
O8	O	1.776357	-0.056627	-0.394408
O9	O	2.133522	-0.175632	-0.366982
O10	O	1.942322	-0.048183	-0.536707
O11	O	1.760516	-0.135477	-0.190996
O12	O	1.572821	-0.134594	-0.409924
O13	O	1.803613	-0.174081	-0.751788
O14	O	1.584570	-0.185225	-0.563980
O15	O	1.957829	-0.115006	-0.740032
O16	O	1.929986	-0.253599	-0.382499
O17	O	1.787772	-0.252930	-0.548377
C18	C	1.533178	-0.161058	-0.490435
C19	C	1.393745	-0.164586	-0.501133
C20	C	1.858878	-0.269565	-0.465453
C21	C	1.858897	-0.319499	-0.465467
C22	C	1.933315	-0.629464	-0.379231
C23	C	1.933474	-0.817132	-0.379268
O24	O	1.996563	-0.841676	-0.305913
N25	N	1.859377	-0.840268	-0.465572
C26	C	1.785241	-0.816484	-0.551879
O27	O	1.722231	-0.840468	-0.625295
C28	C	1.785090	-0.628816	-0.551847
C29	C	1.859182	-0.605683	-0.465528
C30	C	2.007402	-0.606331	-0.292920
C31	C	2.007357	-0.559417	-0.292908
C32	C	1.933224	-0.535636	-0.379205
C33	C	1.859137	-0.558769	-0.465516
C34	C	1.710962	-0.605033	-0.638159
C35	C	1.710934	-0.558113	-0.638145
C36	C	1.785026	-0.534980	-0.551827
C37	C	1.784958	-0.488075	-0.551801
N38	N	1.859055	-0.464939	-0.465496
C39	C	1.933188	-0.488720	-0.379198
C40	C	1.785324	-0.915012	-0.551888
C41	C	1.785360	-0.961928	-0.551895
C42	C	1.933594	-0.962573	-0.379285
C43	C	1.933551	-0.915656	-0.379273
C44	C	1.859421	-0.891876	-0.465583
C45	C	1.933086	-0.390197	-0.379177
C46	C	1.933030	-0.343279	-0.379169
C47	C	1.784801	-0.342638	-0.551783
C48	C	1.784851	-0.389552	-0.551787
C49	C	1.859004	-0.413330	-0.465480
O50	O	1.721913	-0.463501	-0.625126
O51	O	1.996210	-0.464726	-0.305811
C52	C	1.933361	-0.676378	-0.379244
C53	C	1.859273	-0.699511	-0.465554
C54	C	1.785141	-0.675730	-0.551852
C55	C	1.859309	-0.746428	-0.465561
C56	C	1.933442	-0.770208	-0.379263
C57	C	2.007539	-0.747072	-0.292959
C58	C	2.007493	-0.700158	-0.292946
C59	C	1.711044	-0.698867	-0.638156
C60	C	1.711094	-0.745781	-0.638161
C61	C	1.785227	-0.769561	-0.551863
C62	C	2.186314	-0.144580	-0.440463
C63	C	2.325749	-0.141063	-0.429795
C64	C	1.884327	-0.143160	-0.792700
C65	C	1.895073	-0.139037	-0.932134
C66	C	1.859378	-0.035647	-0.465567
C67	C	1.859492	0.014291	-0.465597
C68	C	1.834062	-0.162438	-0.139563
C69	C	1.823559	-0.166429	-0.000111
H70	H	1.374204	-0.118225	-0.360535
H71	H	1.964530	-0.112431	-0.980613
H72	H	1.993956	-0.981943	-0.309018
H73	H	1.345283	-0.187428	-0.570390
H74	H	1.993471	-0.409551	-0.308900
C75	C	2.014539	-0.317834	-0.284215
C76	C	1.952641	-0.289901	-0.189818
C77	C	2.034149	-0.264458	-0.094868
C78	C	2.177554	-0.266947	-0.094316
C79	C	2.239460	-0.294881	-0.188717
C80	C	2.157952	-0.320324	-0.283666
H81	H	1.846477	-0.288057	-0.190223
H82	H	1.988322	-0.243779	-0.024987
H83	H	2.237891	-0.248112	-0.024029
H84	H	2.345624	-0.296724	-0.188311
H85	H	2.203780	-0.341003	-0.353548
C86	C	2.088875	-0.533976	-0.197963
C87	C	2.067780	-0.544928	-0.056122
C88	C	2.149309	-0.519491	0.038825
C89	C	2.251933	-0.483102	-0.008070
C90	C	2.273033	-0.472147	-0.149918
C91	C	2.191504	-0.497584	-0.244865
H92	H	1.991807	-0.571868	-0.021402
H93	H	2.133688	-0.527601	0.143830
H94	H	2.312285	-0.464272	0.062215
H95	H	2.349005	-0.445208	-0.184639
H96	H	2.207124	-0.489475	-0.349871
C97	C	2.088951	-0.632485	-0.197979
C98	C	2.191631	-0.660601	-0.244862
C99	C	2.273176	-0.686752	-0.149907
C100	C	2.252041	-0.684788	-0.008068
C101	C	2.149357	-0.656671	0.038823
C102	C	2.067812	-0.630520	-0.056133
H103	H	2.207280	-0.662056	-0.349866
H104	H	2.349190	-0.707566	-0.184619
H105	H	2.312406	-0.704147	0.062224
H106	H	2.133708	-0.655216	0.143827
H107	H	1.991798	-0.609706	-0.021421
H108	H	1.993883	-0.896824	-0.308986
C109	C	1.729734	-0.202372	-0.934636
C110	C	1.624426	-0.188022	-0.852072
C111	C	1.530599	-0.223966	-0.786588
C112	C	1.542082	-0.274261	-0.803668
C113	C	1.647395	-0.288613	-0.886236
C114	C	1.741221	-0.252669	-0.951720
H115	H	1.615922	-0.150789	-0.839425
H116	H	1.452640	-0.213341	-0.725466
H117	H	1.472626	-0.300869	-0.755194
H118	H	1.655899	-0.325847	-0.898883
H119	H	1.819181	-0.263294	-1.012842
H120	H	1.650749	-0.764612	-0.708452
C121	C	1.703846	-0.987372	-0.646837
C122	C	1.622312	-0.961207	-0.741763
C123	C	1.540803	-0.986649	-0.836715
C124	C	1.540828	-1.038255	-0.836741
C125	C	1.622365	-1.064423	-0.741812
C126	C	1.703874	-1.038982	-0.646860
H127	H	1.622291	-0.923003	-0.741747
H128	H	1.480443	-0.967278	-0.906988
H129	H	1.480489	-1.057089	-0.907030
H130	H	1.622386	-1.102628	-0.741828
H131	H	1.764234	-1.058353	-0.576587
C132	C	1.703767	-0.888859	-0.646835
C133	C	1.560374	-0.899276	-0.647385
C134	C	1.478814	-0.873126	-0.742330
C135	C	1.540645	-0.836560	-0.836725
C136	C	1.684046	-0.826141	-0.836178
C137	C	1.765607	-0.852291	-0.741233
H138	H	1.514596	-0.926346	-0.577505
H139	H	1.372659	-0.880839	-0.742734
H140	H	1.480269	-0.817203	-0.907008
H141	H	1.729824	-0.799071	-0.906058
H142	H	1.871762	-0.844578	-0.740829
H143	H	1.724524	-0.408388	-0.622078
C144	C	1.629464	-0.630469	-0.733122
C145	C	1.486061	-0.627970	-0.733697
C146	C	1.404559	-0.653404	-0.828670
C147	C	1.466458	-0.681336	-0.923068
C148	C	1.609869	-0.683835	-0.922496
C149	C	1.691371	-0.658402	-0.827523
H150	H	1.440232	-0.607292	-0.663815
H151	H	1.298397	-0.651553	-0.829093
H152	H	1.406125	-0.700163	-0.993373
H153	H	1.655697	-0.704513	-0.992378
H154	H	1.797533	-0.660252	-0.827100
H155	H	1.650570	-0.538753	-0.708433
C156	C	2.089089	-0.773237	-0.198032
C157	C	2.027244	-0.809812	-0.103671
C158	C	2.108795	-0.835979	-0.008756
C159	C	2.252190	-0.825570	-0.008201
C160	C	2.314043	-0.788993	-0.102565
C161	C	2.232492	-0.762826	-0.197481
H162	H	1.921087	-0.817519	-0.104079
H163	H	2.063007	-0.863056	0.061099
H164	H	2.312559	-0.844940	0.062061
H165	H	2.420200	-0.781286	-0.102158
H166	H	2.278280	-0.735749	-0.267335
H167	H	1.724438	-0.323269	-0.622042
H168	H	2.067826	-0.681327	-0.222658
H169	H	1.650678	-0.679508	-0.708432
