data_functionalizedCrystal
_audit_creation_method	'MofGen! by Chris Wilmer'
_symmetry_space_group_name_H-M	'P1'
_symmetry_Int_Tables_number	1
_symmetry_cell_setting	triclinic
loop_
_symmetry_equiv_pos_as_xyz
  x,y,z
_cell_length_a	23.532407
_cell_length_b	10.489741
_cell_length_c	8.965430
_cell_angle_alpha	89.994197
_cell_angle_beta	89.992244
_cell_angle_gamma	96.306074
loop_
_atom_site_label
_atom_site_type_symbol
_atom_site_fract_x
_atom_site_fract_y
_atom_site_fract_z
O1	O	0.756280	-0.154829	0.123853
O2	O	0.590565	-0.177231	0.123896
O3	O	0.677193	0.019693	0.123864
O4	O	0.669651	-0.351754	0.123884
O5	O	0.677197	0.019707	-0.124214
O6	O	0.590569	-0.177217	-0.124183
O7	O	0.756284	-0.154816	-0.124226
Cu8	Cu	0.673427	-0.166015	-0.146856
Cu9	Cu	0.673422	-0.166032	0.146526
O10	O	0.669656	-0.351740	-0.124195
C11	C	0.569347	-0.176654	-0.000138
C12	C	0.506119	-0.174939	-0.000121
N13	N	0.673419	-0.166034	0.352875
C14	C	0.676626	0.067213	-0.000174
C15	C	0.674921	0.208785	-0.000171
C16	C	0.107717	-0.280717	-0.000183
C17	C	0.048306	-0.279123	-0.000192
O18	O	0.012211	-0.377181	-0.000241
N19	N	0.024904	-0.162052	-0.000196
C20	C	0.060916	-0.046567	-0.000206
O21	O	0.035555	0.053158	-0.000211
C22	C	0.120326	-0.048161	-0.000207
C23	C	0.143724	-0.165240	-0.000188
C24	C	0.131116	-0.397786	-0.000166
C25	C	0.190522	-0.399379	-0.000154
C26	C	0.226530	-0.283902	-0.000159
C27	C	0.203131	-0.166833	-0.000176
C28	C	0.156337	0.067323	-0.000228
C29	C	0.215750	0.065718	-0.000230
C30	C	0.239148	-0.051361	-0.000211
C31	C	0.298545	-0.052949	-0.000170
N32	N	0.321947	-0.170020	-0.000166
C33	C	0.285940	-0.285497	-0.000161
C34	C	-0.063849	-0.043227	-0.000205
C35	C	-0.123257	-0.041631	-0.000193
C36	C	-0.135863	-0.274188	-0.000183
C37	C	-0.076454	-0.275783	-0.000184
C38	C	-0.040447	-0.160298	-0.000202
C39	C	0.410699	-0.288833	-0.000134
C40	C	0.470111	-0.290416	-0.000116
C41	C	0.482712	-0.057859	-0.000135
C42	C	0.423305	-0.056275	-0.000145
C43	C	0.387299	-0.171773	-0.000150
O44	O	0.334675	0.045057	-0.000127
O45	O	0.311308	-0.385205	-0.000175
C46	C	0.777502	-0.155393	-0.000189
C47	C	0.840730	-0.157108	-0.000196
C48	C	0.670223	-0.399259	-0.000153
C49	C	0.671927	-0.540832	-0.000146
C50	C	0.619802	0.275093	-0.000145
C51	C	0.645842	0.368088	-0.122468
C52	C	0.645851	0.368049	0.122118
C53	C	0.700984	0.299916	-0.122594
C54	C	0.700985	0.299867	0.122102
C55	C	0.727065	0.392836	-0.000251
N56	N	0.673434	-0.166003	-0.353205
C57	C	0.633276	-0.256932	0.450186
C58	C	0.621885	-0.141724	0.549601
C59	C	0.684800	-0.281201	0.549588
C60	C	0.662002	-0.050768	0.450101
C61	C	0.724939	-0.190321	0.450079
C62	C	0.713570	-0.075029	0.549449
H63	H	0.489159	-0.385759	-0.000100
H64	H	0.768488	-0.210924	0.406328
Cl65	Cl	0.261013	0.210909	-0.000255
H66	H	0.772424	0.443768	-0.000331
Cl67	Cl	0.736960	0.253118	0.281757
H68	H	0.137297	0.162661	-0.000244
H69	H	0.724287	0.269864	-0.226125
H70	H	0.574484	0.223935	-0.000257
Cl71	Cl	0.765997	0.043795	0.616323
H72	H	-0.165192	-0.368216	-0.000185
Cl73	Cl	0.609826	0.414682	0.281774
Cl74	Cl	0.699654	-0.431589	0.617059
H75	H	0.622522	0.398330	-0.225871
H76	H	0.652331	0.046662	0.406584
Cl77	Cl	0.393888	0.090911	-0.000176
Cl78	Cl	-0.152665	0.105561	-0.000180
H79	H	0.578323	-0.121164	0.593326
Cl80	Cl	0.580821	-0.375498	0.382885
H81	H	0.209568	-0.494717	-0.000138
Cl82	Cl	0.085859	-0.542978	-0.000155
Cl83	Cl	-0.047045	-0.422973	-0.000166
Cl84	Cl	0.365443	-0.434032	-0.000138
Cl85	Cl	-0.018588	0.101970	-0.000210
Cl86	Cl	0.527989	0.087304	-0.000148
