data_functionalizedCrystal
_audit_creation_method	'MofGen! by Chris Wilmer'
_symmetry_space_group_name_H-M	'P1'
_symmetry_Int_Tables_number	1
_symmetry_cell_setting	triclinic
loop_
_symmetry_equiv_pos_as_xyz
  x,y,z
_cell_length_a	12.837943
_cell_length_b	17.666332
_cell_length_c	12.837942
_cell_angle_alpha	89.994744
_cell_angle_beta	94.828940
_cell_angle_gamma	89.991643
loop_
_atom_site_label
_atom_site_type_symbol
_atom_site_fract_x
_atom_site_fract_y
_atom_site_fract_z
O1	O	1.402344	-0.062934	0.272143
O2	O	1.902344	0.437066	0.772143
O3	O	1.099210	-0.062939	0.258699
O4	O	1.599210	0.437061	0.758699
O5	O	1.244055	-0.062932	0.113854
O6	O	1.744055	0.437068	0.613854
O7	O	1.257499	-0.062941	0.416988
O8	O	1.757499	0.437059	0.916988
O9	O	1.244025	0.062965	0.113843
O10	O	1.744025	0.562965	0.613843
O11	O	1.099180	0.062958	0.258688
O12	O	1.599180	0.562958	0.758688
O13	O	1.402314	0.062963	0.272132
O14	O	1.902314	0.562963	0.772132
Cu15	Cu	1.250744	0.074456	0.265409
Cu16	Cu	1.750744	0.574456	0.765409
Cu17	Cu	1.250780	-0.074432	0.265422
Cu18	Cu	1.750780	0.425568	0.765422
O19	O	1.257468	0.062956	0.416977
O20	O	1.757468	0.562956	0.916977
C21	C	1.060126	0.000009	0.254153
C22	C	1.560126	0.500009	0.754153
C23	C	0.943711	0.000008	0.240608
C24	C	1.443711	0.500008	0.740608
C25	C	0.718837	0.000014	0.403437
C26	C	1.218837	0.500014	0.903437
C27	C	0.609454	0.000013	0.390716
C28	C	1.109454	0.500013	0.890716
C29	C	0.615562	0.000010	0.202445
C30	C	1.115562	0.500010	0.702445
C31	C	0.724944	0.000011	0.215166
C32	C	1.224944	0.500011	0.715166
C33	C	0.776578	0.000012	0.315666
C34	C	1.276578	0.500012	0.815666
C35	C	0.885962	0.000007	0.328386
C36	C	1.385962	0.500007	0.828386
C37	C	0.892067	0.000010	0.140116
C38	C	1.392067	0.500010	0.640116
C39	C	0.782685	0.000009	0.127395
C40	C	1.282685	0.500009	0.627395
N41	N	1.250727	0.179175	0.265400
N42	N	1.750727	0.679175	0.765400
C43	C	1.314890	0.218788	0.201300
C44	C	1.814890	0.718788	0.701300
C45	C	1.314895	0.298036	0.201295
C46	C	1.814895	0.798036	0.701295
C47	C	1.250748	0.337667	0.265410
C48	C	1.750748	0.837667	0.765410
C49	C	1.186572	0.298045	0.329515
C50	C	1.686572	0.798045	0.829515
C51	C	1.186561	0.218799	0.329509
C52	C	1.686561	0.718799	0.829509
N53	N	1.246572	0.462083	0.356723
N54	N	1.746572	0.962083	0.856723
N55	N	1.246588	0.537364	0.356725
N56	N	1.746588	1.037364	0.856725
C57	C	1.250775	0.576431	0.265428
C58	C	1.750775	1.076431	0.765428
N59	N	1.254966	0.537375	0.174128
N60	N	1.754966	1.037375	0.674128
N61	N	1.254956	0.462087	0.174127
N62	N	1.754956	0.962087	0.674127
C63	C	1.250752	0.423596	0.265423
C64	C	1.750752	0.923596	0.765423
C65	C	1.314948	0.701973	0.201318
C66	C	1.814948	1.201973	0.701318
C67	C	1.314945	0.781222	0.201312
C68	C	1.814945	1.281222	0.701312
C69	C	1.186628	0.781230	0.329540
C70	C	1.686628	1.281230	0.829540
C71	C	1.186624	0.701983	0.329537
C72	C	1.686624	1.201983	0.829537
C73	C	1.250790	0.662359	0.265428
C74	C	1.750790	1.162359	0.765428
C75	C	1.441398	0.000013	0.276679
C76	C	1.941398	0.500013	0.776679
C77	C	1.557813	0.000010	0.290223
C78	C	2.057813	0.500010	0.790223
N79	N	1.250796	0.820849	0.265426
N80	N	1.750796	1.320849	0.765426
C81	C	1.239499	0.000016	0.074780
C82	C	1.739499	0.500016	0.574780
C83	C	1.225954	0.000015	-0.041635
C84	C	1.725954	0.500015	0.458365
C85	C	1.388784	0.000001	-0.266510
C86	C	1.888784	0.500001	0.233490
C87	C	1.376062	-0.000000	-0.375892
C88	C	1.876062	0.500000	0.124108
C89	C	1.187791	0.000005	-0.369785
C90	C	1.687791	0.500005	0.130215
C91	C	1.200513	0.000006	-0.260402
C92	C	1.700513	0.500006	0.239598
C93	C	1.301012	0.000006	-0.208769
C94	C	1.801012	0.500006	0.291231
C95	C	1.313732	0.000013	-0.099384
C96	C	1.813732	0.500013	0.400616
C97	C	1.125462	0.000012	-0.093279
C98	C	1.625462	0.500012	0.406721
C99	C	1.112741	0.000011	-0.202661
C100	C	1.612741	0.500011	0.297339
C101	C	1.262025	0.000006	0.456051
C102	C	1.762025	0.500006	0.956051
C103	C	1.275569	0.000003	0.572467
C104	C	1.775569	0.500003	1.072467
H105	H	1.367135	0.186529	0.149095
H106	H	1.867135	0.686529	0.649095
H107	H	0.740630	0.000017	0.045571
H108	H	1.240630	0.500017	0.545571
H109	H	0.562446	0.000016	0.462189
H110	H	1.062446	0.500016	0.962189
H111	H	1.367192	0.669710	0.149113
H112	H	1.867192	1.169710	0.649113
H113	H	1.030917	0.000008	-0.244717
H114	H	1.530917	0.500008	0.255283
Cl115	Cl	1.395608	0.831025	0.120715
Cl116	Cl	1.895608	1.331025	0.620715
H117	H	1.395564	0.000015	-0.057346
H118	H	1.895564	0.500015	0.442654
Cl119	Cl	1.105977	0.831048	0.410134
Cl120	Cl	1.605977	1.331048	0.910134
Cl121	Cl	0.550633	0.000019	0.076113
Cl122	Cl	1.050633	0.500019	0.576113
Cl123	Cl	1.105964	0.652179	0.410130
Cl124	Cl	1.605964	1.152179	0.910130
Cl125	Cl	1.486409	-0.000008	-0.448478
Cl126	Cl	1.986409	0.499992	0.051522
H127	H	1.053992	0.000022	-0.046254
H128	H	1.553992	0.500022	0.453746
H129	H	1.470614	0.000008	-0.224469
H130	H	1.970614	0.500008	0.275531
Cl131	Cl	1.061460	-0.000017	-0.434714
Cl132	Cl	1.561460	0.499983	0.065286
H133	H	0.939092	0.000004	0.068646
H134	H	1.439092	0.500004	0.568646
H135	H	0.928000	0.000009	0.410218
H136	H	1.428000	0.500009	0.910218
H137	H	1.134341	0.330317	0.381716
H138	H	1.634341	0.830317	0.881716
H139	H	1.367147	0.330294	0.149095
H140	H	1.867147	0.830294	0.649095
Cl141	Cl	0.783751	0.000004	0.529775
Cl142	Cl	1.283751	0.500004	1.029775
Cl143	Cl	1.105893	0.168997	0.410100
Cl144	Cl	1.605893	0.668997	0.910100
