data_functionalizedCrystal
_audit_creation_method	'MofGen! by Chris Wilmer'
_symmetry_space_group_name_H-M	'P1'
_symmetry_Int_Tables_number	1
_symmetry_cell_setting	triclinic
loop_
_symmetry_equiv_pos_as_xyz
  x,y,z
_cell_length_a	16.959454
_cell_length_b	19.077105
_cell_length_c	16.959455
_cell_angle_alpha	92.299293
_cell_angle_beta	90.010582
_cell_angle_gamma	87.716588
loop_
_atom_site_label
_atom_site_type_symbol
_atom_site_fract_x
_atom_site_fract_y
_atom_site_fract_z
Zn1	Zn	-0.363425	1.075880	0.495439
Zn2	Zn	-0.495578	1.075837	0.363267
Zn3	Zn	-0.358101	0.958218	0.357972
Zn4	Zn	-0.490244	0.958160	0.490100
O5	O	-0.426837	1.017024	0.426695
O6	O	-0.385415	1.174364	0.482357
O7	O	-0.477345	1.060241	0.251954
O8	O	-0.248198	0.973868	0.376225
O9	O	-0.482508	1.174333	0.385251
O10	O	-0.252109	1.060314	0.477222
O11	O	-0.376341	0.973826	0.248064
O12	O	-0.371169	0.859720	0.371048
O13	O	-0.473417	0.973770	0.601419
O14	O	-0.468254	0.859678	0.468122
O15	O	-0.380243	1.060258	0.605342
O16	O	-0.605479	1.060185	0.380073
O17	O	-0.601560	0.973728	0.473257
C18	C	-0.418556	0.834162	0.418431
C19	C	-0.415032	0.755932	0.414915
C20	C	-0.632200	1.016965	0.426678
C21	C	-0.720059	1.017004	0.426701
C22	C	-0.464000	0.719176	0.463725
C23	C	-0.460679	0.645672	0.460424
C24	C	-0.408393	0.608924	0.408310
C25	C	-0.359420	0.645685	0.359498
C26	C	-0.362738	0.719189	0.362803
C27	C	-0.393038	0.389093	0.393019
C28	C	-0.389726	0.315585	0.389716
C29	C	-0.490984	0.315576	0.490644
C30	C	-0.494300	0.389081	0.493941
C31	C	-0.445324	0.425836	0.445132
N32	N	-0.404999	0.533791	0.404934
N33	N	-0.448715	0.500968	0.448513
C34	C	-1.089527	0.972071	0.475213
C35	C	-1.093552	1.062172	0.378266
C36	C	-1.011005	1.062148	0.378257
C37	C	-0.967715	1.017083	0.426726
C38	C	-1.006973	0.972044	0.475204
C39	C	-0.971741	1.107182	0.329775
C40	C	-0.889189	1.107158	0.329764
C41	C	-0.845898	1.062097	0.378238
C42	C	-0.885160	1.017056	0.426718
C43	C	-0.841871	0.971991	0.475187
C44	C	-0.881132	0.926953	0.523672
C45	C	-0.963682	0.926982	0.523678
C46	C	-0.763348	1.062068	0.378232
C47	C	-0.759316	0.971964	0.475178
C48	C	-0.220672	1.017102	0.426729
C49	C	-0.132817	1.017135	0.426743
C50	C	-0.426829	1.017012	0.632862
C51	C	-0.426826	1.017007	0.720719
C52	C	-0.435151	1.200600	0.434991
C53	C	-0.438693	1.278829	0.438526
C54	C	-0.475359	0.971987	1.090155
C55	C	-0.378336	1.062048	1.094235
C56	C	-0.378330	1.062046	1.011689
C57	C	-0.426839	1.017014	0.968372
C58	C	-0.475355	0.971985	1.007601
C59	C	-0.329820	1.107079	0.972454
C60	C	-0.329812	1.107079	0.889903
C61	C	-0.378318	1.062043	0.846584
C62	C	-0.426836	1.017012	0.885818
C63	C	-0.475345	0.971980	0.842501
C64	C	-0.523859	0.926945	0.881734
C65	C	-0.523861	0.926949	0.964282
C66	C	-0.378316	1.062039	0.764035
C67	C	-0.475342	0.971978	0.759948
C68	C	-0.426858	1.017026	1.221328
C69	C	-0.426849	1.017019	1.133471
H70	H	-0.506579	0.749091	0.506159
H71	H	-0.724075	0.935270	0.514651
Br72	Br	-0.589697	0.865839	0.822937
H73	H	-1.006993	1.143865	0.290308
Br74	Br	-0.312514	1.123166	1.153022
Br75	Br	-0.822372	0.865792	0.589443
H76	H	-0.995656	0.890314	0.563151
Br77	Br	-0.326566	0.438965	0.326782
H78	H	-0.347139	0.285667	0.347283
H79	H	-0.514855	0.935318	1.122101
H80	H	-0.290309	1.143749	0.857967
Br81	Br	-1.142807	0.910956	0.541016
Br82	Br	-1.152301	1.123327	0.312488
H83	H	-0.857227	1.143831	0.290286
H84	H	-0.500554	0.615748	0.500170
Br85	Br	-0.710067	1.123176	0.312425
H86	H	-0.514837	0.935301	0.724684
H87	H	-0.536878	0.418996	0.536376
Br88	Br	-0.589698	0.865838	1.017531
Br89	Br	-0.312490	1.123160	0.710795
H90	H	-0.530856	0.285643	0.530382
Br91	Br	-0.263999	1.168197	1.031243
H92	H	-0.316845	0.615760	0.317069
H93	H	-0.322859	0.749114	0.323061
