data_functionalizedCrystal
_audit_creation_method	'MofGen! by Chris Wilmer'
_symmetry_space_group_name_H-M	'P1'
_symmetry_Int_Tables_number	1
_symmetry_cell_setting	triclinic
loop_
_symmetry_equiv_pos_as_xyz
  x,y,z
_cell_length_a	10.723022
_cell_length_b	10.723024
_cell_length_c	14.048226
_cell_angle_alpha	89.994758
_cell_angle_beta	89.993860
_cell_angle_gamma	84.467548
loop_
_atom_site_label
_atom_site_type_symbol
_atom_site_fract_x
_atom_site_fract_y
_atom_site_fract_z
O1	O	1.657193	0.175021	-0.079152
O2	O	1.294040	0.191776	-0.079155
O3	O	1.483993	0.001822	-0.079150
O4	O	1.467240	0.364975	-0.079157
O5	O	1.483970	0.001811	0.079172
O6	O	1.294017	0.191764	0.079166
O7	O	1.657170	0.175009	0.079170
Zn8	Zn	1.475590	0.183385	0.104305
Zn9	Zn	1.475620	0.183400	-0.104290
O10	O	1.467217	0.364963	0.079164
C11	C	1.247529	0.190551	0.000005
C12	C	1.108975	0.186904	0.000004
C13	C	0.890796	0.289421	0.000000
C14	C	1.033999	0.293192	0.000002
C15	C	1.482763	-0.044683	0.000010
C16	C	1.479115	-0.183238	0.000006
C17	C	1.585403	-0.258221	0.000006
C18	C	1.581635	-0.401424	0.000002
C19	C	1.703681	0.176234	0.000007
C20	C	1.842235	0.179881	0.000002
C21	C	1.468448	0.411468	0.000003
C22	C	1.472095	0.550023	-0.000000
N23	N	1.475578	0.183374	0.246666
N24	N	1.475642	0.183401	-0.246651
C25	C	1.559716	0.099298	0.296486
C26	C	1.559725	0.099297	0.396144
C27	C	1.475600	0.183380	0.445979
C28	C	1.391453	0.267460	0.396152
C29	C	1.391439	0.267454	0.296496
C30	C	1.391489	0.267469	0.603866
C31	C	1.391504	0.267478	0.703529
C32	C	1.559774	0.099313	0.703514
C33	C	1.559761	0.099306	0.603858
C34	C	1.475615	0.183389	0.554037
H35	H	1.679188	-0.216399	0.000013
H36	H	1.628267	0.030846	0.563282
H37	H	1.322999	0.335945	0.744100
C38	C	0.856934	-0.044967	-0.000001
C39	C	0.929217	0.057039	0.000001
H40	H	0.910634	-0.120805	-0.000009
H41	H	0.805580	-0.041653	0.055207
H42	H	0.805583	-0.041631	-0.055214
H43	H	0.980562	0.053709	0.055217
H44	H	0.980592	0.053724	-0.055213
H45	H	1.628288	0.030850	0.744083
H46	H	1.322964	0.335934	0.563306
H47	H	1.381100	-0.385552	0.000007
H48	H	1.075811	0.386980	0.000006
H49	H	1.067171	0.093113	-0.000019
C50	C	1.676968	-0.613424	-0.000009
C51	C	1.704478	-0.488397	-0.000003
H52	H	1.752810	-0.667117	-0.000019
H53	H	1.629727	-0.628988	0.055199
H54	H	1.629726	-0.628963	-0.055222
H55	H	1.751712	-0.472856	0.055214
H56	H	1.751738	-0.472827	-0.055216
H57	H	1.322951	0.335918	0.436734
H58	H	1.322924	0.335916	0.255933
C59	C	1.343708	-0.313698	-0.081386
C60	C	1.352500	-0.239684	0.000003
H61	H	1.265541	-0.348548	-0.081383
H62	H	1.349700	-0.263463	-0.136583
H63	H	1.409911	-0.379292	-0.081377
H64	H	1.286303	-0.174084	-0.000010
H65	H	1.346496	-0.289921	0.055214
H66	H	1.628235	0.030835	0.436707
C67	C	0.876097	0.514268	-0.000013
C68	C	0.803815	0.412262	-0.000009
H69	H	0.822398	0.590106	-0.000026
H70	H	0.927434	0.510948	0.055196
H71	H	0.927466	0.510939	-0.055225
H72	H	0.752453	0.415586	0.055206
H73	H	0.752457	0.415584	-0.055224
C74	C	1.726034	-0.066934	0.306491
C75	C	1.652188	0.006867	0.241711
H76	H	1.783115	-0.124004	0.272676
H77	H	1.771367	-0.014575	0.345344
H78	H	1.673699	-0.112289	0.345377
H79	H	1.704523	0.052229	0.202830
H80	H	1.606852	-0.045498	0.202842
