data_functionalizedCrystal
_audit_creation_method	'MofGen! by Chris Wilmer'
_symmetry_space_group_name_H-M	'P1'
_symmetry_Int_Tables_number	1
_symmetry_cell_setting	triclinic
loop_
_symmetry_equiv_pos_as_xyz
  x,y,z
_cell_length_a	10.654554
_cell_length_b	16.974813
_cell_length_c	9.130313
_cell_angle_alpha	86.344195
_cell_angle_beta	89.999615
_cell_angle_gamma	83.939865
loop_
_atom_site_label
_atom_site_type_symbol
_atom_site_fract_x
_atom_site_fract_y
_atom_site_fract_z
O1	O	1.666102	0.111069	-0.134967
O2	O	1.300459	0.121646	-0.136222
O3	O	1.493475	0.001310	-0.121951
O4	O	1.473087	0.231404	-0.149238
O5	O	1.493472	0.001313	0.121647
O6	O	1.300457	0.121649	0.107376
O7	O	1.666099	0.111072	0.108632
Cu8	Cu	1.483278	0.116361	0.130247
Cu9	Cu	1.483281	0.116357	-0.157837
O10	O	1.473084	0.231408	0.094361
C11	C	1.253672	0.120870	-0.014331
C12	C	1.114266	0.118544	-0.014056
C13	C	0.902688	0.187213	-0.022202
C14	C	1.033676	0.189399	-0.022462
C15	C	1.063863	0.045499	-0.005405
C16	C	0.932877	0.043314	-0.005156
C17	C	0.885261	0.270293	-0.032044
C18	C	1.016249	0.272479	-0.032303
C19	C	1.492698	-0.028151	0.003339
C20	C	1.490373	-0.115940	0.013741
C21	C	1.489284	-0.157181	-0.114157
C22	C	1.487091	-0.239668	-0.104379
C23	C	1.485996	-0.280913	0.033298
C24	C	1.487080	-0.239666	0.161205
C25	C	1.489264	-0.157180	0.151426
C26	C	1.479455	-0.527609	0.076784
C27	C	1.477275	-0.610101	0.086554
C28	C	1.477284	-0.610097	-0.179032
C29	C	1.479475	-0.527610	-0.188799
C30	C	1.480553	-0.486370	-0.060892
N31	N	1.483758	-0.365228	0.043296
N32	N	1.482782	-0.402056	-0.070891
C33	C	1.712886	0.111848	-0.013263
C34	C	1.852293	0.114173	-0.013548
C35	C	1.473861	0.260869	-0.030933
C36	C	1.476186	0.348658	-0.041344
N37	N	1.483285	0.116363	0.332869
N38	N	1.483284	0.116348	-0.360459
C39	C	1.568774	0.063097	0.415838
C40	C	1.568771	0.063087	0.569176
C41	C	1.397786	0.169617	0.556561
C42	C	1.397784	0.169622	0.403227
C43	C	1.667494	0.001595	0.423122
C44	C	1.667491	0.001585	0.576460
H45	H	1.045103	0.304960	0.065803
H46	H	1.490183	-0.123606	-0.226269
H47	H	1.476376	-0.643680	0.198673
C48	C	1.152517	-0.032443	0.003841
N49	N	1.219290	-0.091150	0.010811
C50	C	1.797554	0.019948	0.630511
N51	N	1.895502	0.033803	0.671219
C52	C	1.480646	-0.482256	0.217488
N53	N	1.481545	-0.448093	0.323473
C54	C	1.486010	-0.285038	-0.245077
N55	N	1.485236	-0.319213	-0.351057
C56	C	0.877448	-0.037035	0.004363
N57	N	0.835700	-0.097558	0.011539
H58	H	0.843030	0.301600	-0.137698
C59	C	1.790276	0.027606	0.355781
N60	N	1.882757	0.047199	0.305059
H61	H	0.839219	0.295395	0.070156
C62	C	1.480681	-0.482247	-0.340254
N63	N	1.481593	-0.448079	-0.454333
H64	H	1.051471	0.298936	-0.140622
C65	C	1.485866	-0.285038	0.312652
N66	N	1.484954	-0.319212	0.426725
C67	C	1.476084	-0.655467	-0.319720
N68	N	1.475173	-0.689639	-0.425693
C69	C	1.490465	-0.111816	0.292124
N70	N	1.491366	-0.077648	0.398103
H71	H	1.328162	0.212989	0.335675
C72	C	1.303738	0.228198	0.633970
N73	N	1.232899	0.272323	0.692273
C74	C	1.639795	-0.080505	0.376624
N75	N	1.618929	-0.142341	0.341602
C76	C	1.627462	-0.075996	0.649901
N77	N	1.597305	-0.134427	0.705219
