data_functionalizedCrystal
_audit_creation_method	'MofGen! by Chris Wilmer'
_symmetry_space_group_name_H-M	'P1'
_symmetry_Int_Tables_number	1
_symmetry_cell_setting	triclinic
loop_
_symmetry_equiv_pos_as_xyz
  x,y,z
_cell_length_a	18.101395
_cell_length_b	21.395364
_cell_length_c	21.395355
_cell_angle_alpha	89.974702
_cell_angle_beta	90.018571
_cell_angle_gamma	89.951348
loop_
_atom_site_label
_atom_site_type_symbol
_atom_site_fract_x
_atom_site_fract_y
_atom_site_fract_z
Zn1	Zn	-0.294585	-0.957854	0.354274
Zn2	Zn	0.038748	-0.624520	0.687607
Zn3	Zn	0.372081	-0.291187	1.020940
Zn4	Zn	-0.418409	-0.957754	0.249496
Zn5	Zn	-0.085075	-0.624421	0.582829
Zn6	Zn	0.248258	-0.291087	0.916163
Zn7	Zn	-0.294622	-0.853069	0.249509
Zn8	Zn	0.038712	-0.519735	0.582842
Zn9	Zn	0.372045	-0.186402	0.916176
Zn10	Zn	-0.418426	-0.853036	0.354235
Zn11	Zn	-0.085092	-0.519702	0.687568
Zn12	Zn	0.248241	-0.186369	1.020902
O13	O	-0.356510	-0.905428	0.301878
O14	O	-0.023177	-0.572095	0.635212
O15	O	0.310156	-0.238761	0.968545
O16	O	-0.310989	-1.045518	0.340386
O17	O	0.022345	-0.712185	0.673719
O18	O	0.355678	-0.378852	1.007052
O19	O	-0.401996	-0.943839	0.161820
O20	O	-0.068663	-0.610506	0.495153
O21	O	0.264671	-0.277173	0.828487
O22	O	-0.190984	-0.867024	0.263428
O23	O	0.142349	-0.533691	0.596761
O24	O	0.475683	-0.200358	0.930095
O25	O	-0.401961	-1.045445	0.263406
O26	O	-0.068628	-0.712112	0.596739
O27	O	0.264706	-0.378779	0.930073
O28	O	-0.190957	-0.944009	0.340398
O29	O	0.142376	-0.610676	0.673731
O30	O	0.475709	-0.277343	1.007065
O31	O	-0.311050	-0.866928	0.161829
O32	O	0.022283	-0.533594	0.495163
O33	O	0.355616	-0.200261	0.828496
O34	O	-0.311067	-0.765387	0.263390
O35	O	0.022267	-0.432053	0.596724
O36	O	0.355600	-0.098720	0.930057
O37	O	-0.401990	-0.866968	0.441918
O38	O	-0.068657	-0.533635	0.775251
O39	O	0.264677	-0.200301	1.108585
O40	O	-0.402025	-0.765362	0.340332
O41	O	-0.068692	-0.432029	0.673665
O42	O	0.264642	-0.098696	1.006999
O43	O	-0.311005	-0.943977	0.441946
O44	O	0.022328	-0.610644	0.775280
O45	O	0.355662	-0.277311	1.108613
O46	O	-0.522044	-0.943807	0.263368
O47	O	-0.188711	-0.610474	0.596702
O48	O	0.144623	-0.277141	0.930035
O49	O	-0.522056	-0.866871	0.340319
O50	O	-0.188723	-0.533538	0.673653
O51	O	0.144610	-0.200205	1.006986
C52	C	-0.356552	-0.742640	0.301859
C53	C	-0.023219	-0.409307	0.635192
C54	C	0.310114	-0.075974	0.968525
C55	C	-0.356588	-0.672999	0.301865
C56	C	-0.023255	-0.339666	0.635198
C57	C	0.310079	-0.006333	0.968532
C58	C	-0.309297	-0.640347	0.342010
C59	C	0.024036	-0.307013	0.675343
C60	C	0.357369	0.026320	1.008677
C61	C	-0.309280	-0.574911	0.342012
C62	C	0.024053	-0.241578	0.675345
C63	C	0.357387	0.091755	1.008678
C64	C	-0.356567	-0.542131	0.301875
C65	C	-0.023233	-0.208798	0.635208
C66	C	0.310100	0.124536	0.968542
C67	C	-0.403861	-0.574791	0.261722
C68	C	-0.070527	-0.241458	0.595056
C69	C	0.262806	0.091875	0.928389
C70	C	-0.403871	-0.640226	0.261717
C71	C	-0.070538	-0.306892	0.595051
C72	C	0.262795	0.026441	0.928384
C73	C	-0.423263	-0.438405	0.296836
C74	C	-0.089929	-0.105072	0.630169
C75	C	0.243404	0.228261	0.963503
C76	C	-0.423253	-0.372972	0.296845
C77	C	-0.089920	-0.039639	0.630178
C78	C	0.243413	0.293694	0.963512
C79	C	-0.356533	-0.340310	0.301886
C80	C	-0.023200	-0.006977	0.635220
C81	C	0.310134	0.326357	0.968553
C82	C	-0.289820	-0.373089	0.306931
C83	C	0.043513	-0.039756	0.640264
C84	C	0.376846	0.293578	0.973598
C85	C	-0.289831	-0.438523	0.306926
C86	C	0.043502	-0.105190	0.640260
C87	C	0.376836	0.228144	0.973593
C88	C	-0.356560	-0.471179	0.301875
C89	C	-0.023227	-0.137845	0.635209
C90	C	0.310107	0.195488	0.968542
C91	C	-0.309220	-0.236705	0.342035
C92	C	0.024114	0.096628	0.675368
C93	C	0.357447	0.429962	1.008702
C94	C	-0.309201	-0.171268	0.342032
C95	C	0.024132	0.162065	0.675365
C96	C	0.357466	0.495398	1.008699
C97	C	-0.403788	-0.171150	0.261746
C98	C	-0.070455	0.162183	0.595079
C99	C	0.262878	0.495517	0.928413
C100	C	-0.403800	-0.236585	0.261746
C101	C	-0.070467	0.096748	0.595079
C102	C	0.262867	0.430081	0.928412
C103	C	-0.356517	-0.269359	0.301893
C104	C	-0.023184	0.063974	0.635227
C105	C	0.310150	0.397308	0.968560
C106	C	-0.548921	-0.905342	0.301852
C107	C	-0.215588	-0.572009	0.635185
C108	C	0.117746	-0.238675	0.968519
C109	C	-0.631235	-0.905362	0.301862
C110	C	-0.297902	-0.572029	0.635195
C111	C	0.035432	-0.238696	0.968528
C112	C	-0.781943	-0.905434	0.301886
C113	C	-0.448610	-0.572101	0.635220
C114	C	-0.115277	-0.238768	0.968553
C115	C	-0.813336	-0.857003	0.350265
C116	C	-0.480003	-0.523670	0.683598
C117	C	-0.146669	-0.190336	1.016931
C118	C	-0.898954	-0.857186	0.350469
C119	C	-0.565621	-0.523853	0.683802
C120	C	-0.232287	-0.190520	1.017136
C121	C	-0.930326	-0.905504	0.301911
C122	C	-0.596993	-0.572171	0.635244
C123	C	-0.263659	-0.238837	0.968578
C124	C	-0.899124	-0.971561	0.319675
C125	C	-0.565791	-0.638227	0.653009
C126	C	-0.232458	-0.304894	0.986342
C127	C	-0.813480	-0.971240	0.320012
C128	C	-0.480146	-0.637907	0.653346
C129	C	-0.146813	-0.304573	0.986679
C130	C	-0.813571	-0.888401	0.235628
C131	C	-0.480238	-0.555068	0.568961
C132	C	-0.146905	-0.221734	0.902294
C133	C	-0.899224	-0.886985	0.235995
C134	C	-0.565891	-0.553651	0.569328
C135	C	-0.232557	-0.220318	0.902662
C136	C	-1.014185	-0.905547	0.301924
C137	C	-0.680852	-0.572214	0.635257
C138	C	-0.347519	-0.238881	0.968591
C139	C	-0.698084	-0.905395	0.301875
C140	C	-0.364751	-0.572062	0.635209
C141	C	-0.031417	-0.238729	0.968542
C142	C	-0.163348	-0.905532	0.301919
C143	C	0.169985	-0.572198	0.635252
C144	C	0.503318	-0.238865	0.968585
C145	C	-0.081034	-0.905576	0.301936
C146	C	0.252299	-0.572243	0.635269
C147	C	0.585632	-0.238909	0.968603
C148	C	-0.356495	-0.905480	0.465302
C149	C	-0.023162	-0.572147	0.798635
C150	C	0.310171	-0.238813	1.131968
C151	C	-0.356489	-0.905502	0.534943
C152	C	-0.023156	-0.572169	0.868276
C153	C	0.310178	-0.238836	1.201610
C154	C	-0.356478	-0.068851	0.301895
C155	C	-0.023145	0.264482	0.635229
C156	C	0.310189	0.597815	0.968562
C157	C	-0.356487	-0.138493	0.301894
C158	C	-0.023154	0.194841	0.635228
C159	C	0.310179	0.528174	0.968561
C160	C	-0.356472	-0.905412	0.139091
C161	C	-0.023139	-0.572079	0.472424
C162	C	0.310195	-0.238746	0.805758
C163	C	-0.356270	-0.905512	0.069450
C164	C	-0.022936	-0.572178	0.402783
C165	C	0.310397	-0.238845	0.736117
C166	C	-0.309111	-0.945599	0.567672
C167	C	0.024222	-0.612266	0.901005
C168	C	0.357556	-0.278933	1.234339
C169	C	-0.309079	-0.945599	0.633107
C170	C	0.024254	-0.612265	0.966441
C171	C	0.357587	-0.278932	1.299774
C172	C	-0.356439	-0.905507	0.665811
C173	C	-0.023105	-0.572174	0.999145
C174	C	0.310228	-0.238840	1.332478
C175	C	-0.403820	-0.865402	0.633075
C176	C	-0.070486	-0.532069	0.966408
C177	C	0.262847	-0.198736	1.299741
C178	C	-0.403845	-0.865400	0.567640
C179	C	-0.070512	-0.532067	0.900974
C180	C	0.262822	-0.198733	1.234307
C181	C	-0.423122	-0.900530	0.769477
C182	C	-0.089788	-0.567197	1.102810
C183	C	0.243545	-0.233863	1.436144
C184	C	-0.423098	-0.900537	0.834910
C185	C	-0.089764	-0.567204	1.168243
C186	C	0.243569	-0.233870	1.501577
C187	C	-0.356360	-0.905511	0.867632
C188	C	-0.023027	-0.572178	1.200966
C189	C	0.310306	-0.238844	1.534299
C190	C	-0.289645	-0.910492	0.834914
C191	C	0.043689	-0.577158	1.168247
C192	C	0.377022	-0.243825	1.501580
C193	C	-0.289670	-0.910489	0.769480
C194	C	0.043663	-0.577156	1.102813
C195	C	0.376997	-0.243822	1.436146
C196	C	-0.356416	-0.905505	0.736764
C197	C	-0.023083	-0.572172	1.070097
C198	C	0.310251	-0.238838	1.403431
C199	C	-0.308944	-0.945609	0.971314
C200	C	0.024389	-0.612276	1.304647
C201	C	0.357723	-0.278943	1.637981
C202	C	-0.308911	-0.945604	1.036751
C203	C	0.024423	-0.612271	1.370084
C204	C	0.357756	-0.278937	1.703417
C205	C	-0.403658	-0.865411	1.036716
C206	C	-0.070324	-0.532078	1.370050
C207	C	0.263009	-0.198745	1.703383
C208	C	-0.403684	-0.865413	0.971281
C209	C	-0.070351	-0.532080	1.304614
C210	C	0.262982	-0.198746	1.637948
C211	C	-0.356328	-0.905516	0.938584
C212	C	-0.022995	-0.572182	1.271917
C213	C	0.310338	-0.238849	1.605250
H214	H	-0.270767	-0.548320	0.374701
H215	H	0.062567	-0.214987	0.708035
H216	H	0.395900	0.118346	1.041368
O217	O	-0.257809	-0.988855	1.072056
O218	O	0.075524	-0.655521	1.405390
O219	O	0.408857	-0.322188	1.738723
H220	H	-0.224892	-1.016742	1.038324
H221	H	0.108441	-0.683409	1.371657
H222	H	0.441774	-0.350076	1.704991
O223	O	-0.257963	-0.988846	0.668407
O224	O	0.075371	-0.655513	1.001740
O225	O	0.408704	-0.322179	1.335073
H226	H	-0.220274	-0.960820	0.698198
H227	H	0.113059	-0.627487	1.031531
H228	H	0.446393	-0.294154	1.364864
O229	O	-0.257867	-0.988860	0.936045
O230	O	0.075467	-0.655527	1.269378
O231	O	0.408800	-0.322193	1.602712
H232	H	-0.265853	-0.982130	0.885045
H233	H	0.067481	-0.648797	1.218379
H234	H	0.400814	-0.315464	1.551712
H235	H	-0.793259	-0.923671	0.199584
H236	H	-0.459925	-0.590338	0.532917
H237	H	-0.126592	-0.257005	0.866250
O238	O	-0.454810	-0.271806	0.218446
O239	O	-0.121477	0.061528	0.551779
O240	O	0.211856	0.394861	0.885113
H241	H	-0.492540	-0.301605	0.246426
H242	H	-0.159206	0.031728	0.579760
H243	H	0.174127	0.365061	0.913093
O244	O	-0.454864	-0.539441	0.218430
O245	O	-0.121531	-0.206108	0.551764
O246	O	0.211802	0.127225	0.885097
H247	H	-0.446917	-0.488454	0.225182
H248	H	-0.113584	-0.155121	0.558515
H249	H	0.219749	0.178212	0.891848
O250	O	-0.926251	-0.822590	0.218244
O251	O	-0.592917	-0.489257	0.551577
O252	O	-0.259584	-0.155924	0.884910
H253	H	-0.904027	-0.809846	0.171607
H254	H	-0.570694	-0.476513	0.504941
H255	H	-0.237361	-0.143179	0.838274
O256	O	-0.217884	-0.473880	0.312361
O257	O	0.115450	-0.140547	0.645695
O258	O	0.448783	0.192786	0.979028
H259	H	-0.210269	-0.503679	0.270399
H260	H	0.123064	-0.170346	0.603732
H261	H	0.456397	0.162987	0.937065
O262	O	-0.926041	-0.872166	0.415509
O263	O	-0.592707	-0.538833	0.748843
O264	O	-0.259374	-0.205500	1.082176
H265	H	-0.987357	-0.872343	0.415884
H266	H	-0.654023	-0.539010	0.749218
H267	H	-0.320690	-0.205677	1.082551
O268	O	-0.258214	-0.272056	0.385329
O269	O	0.075119	0.061277	0.718662
O270	O	0.408452	0.394610	1.051996
H271	H	-0.266173	-0.323043	0.378588
H272	H	0.067160	0.010290	0.711921
H273	H	0.400493	0.343624	1.045254
O274	O	-0.454740	-0.822167	1.071979
O275	O	-0.121407	-0.488834	1.405312
O276	O	0.211927	-0.155500	1.738646
H277	H	-0.446766	-0.828906	1.122979
H278	H	-0.113433	-0.495573	1.456312
H279	H	0.219900	-0.162239	1.789646
O280	O	-0.258298	-0.675697	0.385306
O281	O	0.075036	-0.342364	0.718640
O282	O	0.408369	-0.009031	1.051973
H283	H	-0.220580	-0.705529	0.357317
H284	H	0.112753	-0.372195	0.690650
H285	H	0.446087	-0.038862	1.023983
H286	H	-0.442269	-0.832765	0.944633
H287	H	-0.108936	-0.499432	1.277966
H288	H	0.224398	-0.166099	1.611299
O289	O	-0.495201	-0.337619	0.291392
O290	O	-0.161868	-0.004285	0.624726
O291	O	0.171465	0.329048	0.958059
H292	H	-0.541596	-0.371322	0.287869
H293	H	-0.208263	-0.037989	0.621202
H294	H	0.125071	0.295345	0.954535
H295	H	-0.920589	-0.919688	0.198039
H296	H	-0.587255	-0.586355	0.531372
H297	H	-0.253922	-0.253021	0.864706
H298	H	-0.270549	-0.978253	0.541054
H299	H	0.062784	-0.644920	0.874387
H300	H	0.396117	-0.311587	1.207721
H301	H	-0.477598	-0.464993	0.292730
H302	H	-0.144265	-0.131660	0.626064
H303	H	0.189068	0.201673	0.959397
O304	O	-0.786946	-0.990306	0.384170
O305	O	-0.453612	-0.656973	0.717503
O306	O	-0.120279	-0.323639	1.050836
H307	H	-0.835285	-0.999668	0.414663
H308	H	-0.501952	-0.666334	0.747996
H309	H	-0.168619	-0.333001	1.081330
H310	H	-0.920057	-0.808210	0.339365
H311	H	-0.586724	-0.474877	0.672699
H312	H	-0.253390	-0.141543	1.006032
H313	H	-0.477453	-0.896312	0.742840
H314	H	-0.144120	-0.562978	1.076173
H315	H	0.189213	-0.229645	1.409507
H316	H	-0.235348	-0.914543	0.742843
H317	H	0.097985	-0.581209	1.076176
H318	H	0.431319	-0.247876	1.409509
H319	H	-0.235490	-0.346497	0.311036
H320	H	0.097843	-0.013164	0.644369
H321	H	0.431176	0.320170	0.977703
O322	O	-0.454787	-0.135798	0.218454
O323	O	-0.121454	0.197535	0.551788
O324	O	0.211880	0.530869	0.885121
H325	H	-0.441995	-0.148340	0.169299
H326	H	-0.108661	0.184993	0.502633
H327	H	0.224672	0.518327	0.835966
O328	O	-0.495049	-0.895159	0.870198
O329	O	-0.161716	-0.561825	1.203532
O330	O	0.171618	-0.228492	1.536865
H331	H	-0.541458	-0.891684	0.836453
H332	H	-0.208125	-0.558350	1.169787
H333	H	0.125208	-0.225017	1.503120
H334	H	-0.235301	-0.914543	0.861555
H335	H	0.098032	-0.581210	1.194888
H336	H	0.431366	-0.247876	1.528222
O337	O	-0.258190	-0.136045	0.385331
O338	O	0.075143	0.197288	0.718664
O339	O	0.408476	0.530622	1.051998
H340	H	-0.225320	-0.169830	0.413249
H341	H	0.108013	0.163503	0.746582
H342	H	0.441347	0.496836	1.079915
H343	H	-0.442378	-0.832758	0.659706
H344	H	-0.109044	-0.499424	0.993040
H345	H	0.224289	-0.166091	1.326373
H346	H	-0.920525	-0.986247	0.367580
H347	H	-0.587192	-0.652913	0.700914
H348	H	-0.253859	-0.319580	1.034247
O349	O	-0.454931	-0.822137	0.532333
O350	O	-0.121597	-0.488804	0.865667
O351	O	0.211736	-0.155470	1.199000
H352	H	-0.487854	-0.794253	0.566065
H353	H	-0.154520	-0.460919	0.899398
H354	H	0.178813	-0.127586	1.232731
O355	O	-0.454881	-0.675450	0.218418
O356	O	-0.121547	-0.342117	0.551751
O357	O	0.211786	-0.008784	0.885085
H358	H	-0.487762	-0.641666	0.190508
H359	H	-0.154428	-0.308332	0.523841
H360	H	0.178905	0.025001	0.857175
H361	H	-0.791773	-0.868155	0.399081
H362	H	-0.458440	-0.534822	0.732414
H363	H	-0.125107	-0.201489	1.065748
O364	O	-0.786168	-0.791895	0.335736
O365	O	-0.452835	-0.458561	0.669069
O366	O	-0.119502	-0.125228	1.002402
H367	H	-0.749996	-0.793355	0.293881
H368	H	-0.416663	-0.460022	0.627214
H369	H	-0.083330	-0.126688	0.960548
H370	H	-0.792704	-1.008566	0.286300
H371	H	-0.459371	-0.675232	0.619633
H372	H	-0.126038	-0.341899	0.952966
O373	O	-0.785075	-0.825655	0.214157
O374	O	-0.451742	-0.492322	0.547490
O375	O	-0.118409	-0.158989	0.880824
H376	H	-0.832353	-0.793505	0.206385
H377	H	-0.499019	-0.460172	0.539718
H378	H	-0.165686	-0.126839	0.873052
O379	O	-0.926463	-1.020772	0.274721
O380	O	-0.593129	-0.687439	0.608054
O381	O	-0.259796	-0.354105	0.941388
H382	H	-0.962606	-0.998607	0.239119
H383	H	-0.629273	-0.665274	0.572452
H384	H	-0.295939	-0.331941	0.905785
