data_functionalizedCrystal
_audit_creation_method	'MofGen! by Chris Wilmer'
_symmetry_space_group_name_H-M	'P1'
_symmetry_Int_Tables_number	1
_symmetry_cell_setting	triclinic
loop_
_symmetry_equiv_pos_as_xyz
  x,y,z
_cell_length_a	22.010155
_cell_length_b	17.038272
_cell_length_c	17.038272
_cell_angle_alpha	91.111556
_cell_angle_beta	90.004343
_cell_angle_gamma	89.996609
loop_
_atom_site_label
_atom_site_type_symbol
_atom_site_fract_x
_atom_site_fract_y
_atom_site_fract_z
O1	O	0.050450	-1.048760	-0.170526
O2	O	0.050468	-0.820948	-0.167818
O3	O	0.050454	-0.933500	-0.055267
O4	O	0.050463	-0.936208	-0.283078
O5	O	-0.050596	-0.933479	-0.055283
O6	O	-0.050583	-0.820927	-0.167835
O7	O	-0.050601	-1.048739	-0.170543
Cu8	Cu	-0.059818	-0.934831	-0.169190
Cu9	Cu	0.059685	-0.934856	-0.169171
O10	O	-0.050587	-0.936187	-0.283095
C11	C	-0.000055	-0.791645	-0.165364
C12	C	-0.000049	-0.704361	-0.158016
N13	N	-0.143871	-0.934820	-0.169204
C14	C	-0.000071	-0.931027	-0.025982
C15	C	-0.000070	-0.923679	0.061301
C16	C	-0.563656	-0.984697	-0.119341
C17	C	-0.627264	-0.984701	-0.119336
O18	O	-0.660161	-1.027077	-0.076948
N19	N	-0.659078	-0.934854	-0.169154
C20	C	-0.627281	-0.884995	-0.218976
O21	O	-0.660182	-0.842597	-0.261350
C22	C	-0.563675	-0.884989	-0.218976
C23	C	-0.531864	-0.934844	-0.169160
C24	C	-0.531845	-1.034548	-0.069528
C25	C	-0.468242	-1.034546	-0.069534
C26	C	-0.436450	-0.984692	-0.119353
C27	C	-0.468261	-0.934842	-0.169166
C28	C	-0.531879	-0.835127	-0.268793
C29	C	-0.468268	-0.835124	-0.268789
C30	C	-0.436458	-0.884979	-0.218973
C31	C	-0.372865	-0.884986	-0.218992
N32	N	-0.341051	-0.934833	-0.169173
C33	C	-0.372843	-0.984686	-0.119354
C34	C	-0.760859	-0.885012	-0.218970
C35	C	-0.824464	-0.885022	-0.218974
C36	C	-0.824443	-0.984727	-0.119332
C37	C	-0.760836	-0.984720	-0.119333
C38	C	-0.729045	-0.934859	-0.169151
C39	C	-0.239272	-0.984677	-0.119372
C40	C	-0.175663	-0.984673	-0.119385
C41	C	-0.175691	-0.884966	-0.219023
C42	C	-0.239294	-0.884973	-0.219013
C43	C	-0.271083	-0.934831	-0.169181
O44	O	-0.339928	-0.842629	-0.261356
O45	O	-0.339935	-1.027070	-0.076980
N46	N	0.143738	-0.934873	-0.169151
C47	C	-0.000076	-1.078042	-0.172997
C48	C	-0.000079	-1.165326	-0.180346
C49	C	-0.000046	-0.658752	-0.225479
C50	C	-0.000055	-0.576740	-0.218570
C51	C	-0.000062	-0.540339	-0.144197
C52	C	-0.000066	-0.585954	-0.076728
C53	C	-0.000062	-0.667965	-0.083638
C54	C	-0.000079	-0.292951	-0.119787
C55	C	-0.000081	-0.210935	-0.112882
C56	C	-0.000072	-0.201726	-0.254725
C57	C	-0.000064	-0.283739	-0.261628
C58	C	-0.000071	-0.329347	-0.194159
C59	C	-0.000069	-0.456510	-0.137133
C60	C	-0.000069	-0.413174	-0.201224
C61	C	-0.000061	-0.938660	-0.312379
C62	C	-0.000058	-0.946008	-0.399663
C63	C	-0.000076	-0.991142	0.106911
C64	C	-0.000070	-0.984233	0.188923
C65	C	-0.000062	-0.909860	0.225324
C66	C	-0.000054	-0.842391	0.179708
C67	C	-0.000056	-0.849301	0.097698
C68	C	-0.000052	-0.885449	0.472712
C69	C	-0.000052	-0.878545	0.554728
C70	C	-0.000066	-1.020387	0.563937
C71	C	-0.000072	-1.027291	0.481924
C72	C	-0.000061	-0.959822	0.436316
C73	C	-0.000057	-0.902796	0.309153
C74	C	-0.000061	-0.966886	0.352488
H75	H	-0.149765	-1.025274	-0.078818
F76	F	-0.565723	-0.782063	-0.321814
F77	F	-0.000065	-0.153181	-0.326524
F78	F	-0.434438	-0.782051	-0.321813
F79	F	-0.858291	-1.037784	-0.066309
H80	H	-0.000054	-1.027441	0.322847
H81	H	-0.734978	-0.844412	-0.259544
F82	F	-0.000066	-0.716505	-0.011834
H83	H	-0.000051	-0.794365	0.060564
H84	H	-0.000067	-0.442816	-0.261778
F85	F	-0.000039	-0.763237	0.218451
F86	F	-0.000099	-0.172196	-0.033720
H87	H	-0.000076	-1.039170	0.226054
H88	H	-0.000041	-0.688384	-0.286042
H89	H	-0.000052	-0.842241	0.338800
H90	H	-0.000085	-0.330076	-0.064848
F91	F	-0.000077	-1.092187	0.612481
H92	H	-0.000080	-0.556310	-0.016172
H93	H	-0.265148	-1.025275	-0.078793
H94	H	-0.000052	-0.539608	-0.273507
F95	F	-0.000039	-0.813642	0.424182
F96	F	-0.000090	-1.070301	0.068177
F97	F	-0.565673	-1.087612	-0.016498
F98	F	-0.434393	-1.087604	-0.016509
H99	H	-0.265195	-0.844385	-0.259586
F100	F	-0.000054	-0.322473	-0.340786
H101	H	-0.734940	-1.025316	-0.078768
H102	H	-0.000055	-0.817978	0.584363
H103	H	-0.850360	-0.844435	-0.259548
H104	H	-0.000091	-0.426863	-0.076578
F105	F	-0.000065	-1.106449	0.443190
F106	F	-0.141845	-0.831912	-0.272044
