data_functionalizedCrystal
_audit_creation_method	'MofGen! by Chris Wilmer'
_symmetry_space_group_name_H-M	'P1'
_symmetry_Int_Tables_number	1
_symmetry_cell_setting	triclinic
loop_
_symmetry_equiv_pos_as_xyz
  x,y,z
_cell_length_a	6.817900
_cell_length_b	16.417825
_cell_length_c	16.015572
_cell_angle_alpha	77.934294
_cell_angle_beta	104.485554
_cell_angle_gamma	103.385495
loop_
_atom_site_label
_atom_site_type_symbol
_atom_site_fract_x
_atom_site_fract_y
_atom_site_fract_z
V1	V	-3.991458	-0.033756	-0.269481
O2	O	-3.980177	0.086039	-0.264040
O3	O	-3.942703	-0.148123	-0.267938
O4	O	-3.927894	0.003804	-0.386875
O5	O	-3.995088	-0.066939	-0.144280
V6	V	-4.477097	-0.023804	-0.254470
O7	O	-4.248075	-0.055588	-0.302410
O8	O	-4.670677	-0.001973	-0.221541
O9	O	-4.302645	0.090562	-0.256013
O10	O	-4.605774	-0.143600	-0.259911
O11	O	-4.590863	0.009378	-0.379671
O12	O	-4.317454	-0.061364	-0.137076
C13	C	-3.788108	-0.177160	-0.263764
C14	C	-3.829431	-0.270418	-0.263284
C15	C	-3.894573	-0.497117	-0.183106
C16	C	-3.933421	-0.584742	-0.182662
C17	C	-3.993361	-0.560440	-0.340855
C18	C	-3.954526	-0.472818	-0.341298
C19	C	-3.905122	-0.441159	-0.262421
C20	C	-3.982805	-0.616406	-0.261533
C21	C	-4.024927	-0.711412	-0.261053
C22	C	-3.863001	-0.346146	-0.262901
C23	C	-3.769217	0.016638	-0.415479
C24	C	-3.798528	0.046591	-0.511450
C25	C	-4.086337	-0.219270	-0.889778
C26	C	-4.113884	-0.191098	-0.979954
C27	C	-4.037348	-0.045343	-0.954866
C28	C	-4.009784	-0.073503	-0.864686
C29	C	-4.034285	-0.160468	-0.832150
C30	C	-3.957732	-0.014701	-0.807058
C31	C	-3.930182	-0.042859	-0.716886
C32	C	-3.954683	-0.129820	-0.684342
C33	C	-4.006735	-0.188626	-0.741978
C34	C	-3.933247	0.072263	-0.839596
C35	C	-3.881195	0.131066	-0.781968
C36	C	-3.853629	0.102908	-0.691794
C37	C	-3.878131	0.015947	-0.659250
C38	C	-3.801578	0.161714	-0.634158
C39	C	-3.774027	0.133555	-0.543987
C40	C	-3.850580	-0.012212	-0.569079
C41	C	-4.120582	0.119595	-0.260185
C42	C	-4.058497	0.212853	-0.260670
C43	C	-4.139473	-0.074203	-0.108468
C44	C	-4.089401	-0.104151	-0.012495
H45	H	-3.870504	-0.083026	-0.542585
H46	H	-3.932254	-0.152745	-0.610918
C47	C	-4.116849	-0.362966	-0.437647
C48	C	-3.966136	-0.411303	-0.428490
H49	H	-4.124029	-0.324994	-0.491476
H50	H	-4.081866	-0.331572	-0.390742
H51	H	-4.246873	-0.399551	-0.436947
H52	H	-3.836108	-0.374718	-0.429184
H53	H	-4.001108	-0.442698	-0.475408
C54	C	-4.191212	-0.307729	-0.659380
C55	C	-4.033538	-0.284242	-0.706320
H56	H	-4.207714	-0.366761	-0.637398
H57	H	-4.316514	-0.295534	-0.696817
H58	H	-4.156320	-0.276830	-0.612082
H59	H	-4.068438	-0.315137	-0.753623
H60	H	-3.908210	-0.296446	-0.668881
H61	H	-4.033586	-0.586228	-0.405074
C62	C	-4.002765	-0.493626	-0.052496
C63	C	-3.840306	-0.462313	-0.096409
H64	H	-3.969272	-0.472135	0.001025
H65	H	-4.024362	-0.553811	-0.040880
H66	H	-4.124833	-0.476153	-0.087848
H67	H	-3.718240	-0.479790	-0.061059
H68	H	-3.818684	-0.402114	-0.108021
C69	C	-4.113554	-0.700137	-0.094464
C70	C	-3.921841	-0.646247	-0.095473
H71	H	-4.106410	-0.738102	-0.040631
H72	H	-4.148505	-0.731537	-0.141362
H73	H	-4.215758	-0.667317	-0.100700
H74	H	-3.819639	-0.679067	-0.089243
H75	H	-3.886865	-0.614844	-0.048561
H76	H	-4.156262	-0.238988	-1.026873
C77	C	-4.163744	-0.360520	-0.923603
C78	C	-4.112559	-0.314853	-0.853988
H79	H	-4.179735	-0.419522	-0.901500
H80	H	-4.056928	-0.344479	-0.955520
H81	H	-4.289305	-0.348539	-0.960994
H82	H	-3.986989	-0.326829	-0.816600
H83	H	-4.219383	-0.330900	-0.822057
C84	C	-3.653253	0.266657	-0.784189
C85	C	-3.854273	0.226656	-0.817731
H86	H	-3.636640	0.325672	-0.806262
H87	H	-3.557392	0.243147	-0.801318
H88	H	-3.629413	0.258291	-0.722238
H89	H	-3.878107	0.235017	-0.879682
H90	H	-3.950162	0.250174	-0.800608
C91	C	-3.871461	0.246454	-0.498980
C92	C	-3.716800	0.198189	-0.480634
H93	H	-3.836127	0.286359	-0.459871
H94	H	-3.998779	0.210079	-0.492170
H95	H	-3.884340	0.275669	-0.557340
H96	H	-3.703932	0.168969	-0.422275
H97	H	-3.589447	0.234570	-0.487437
C98	C	-4.045578	0.062547	-1.081952
C99	C	-4.010407	0.050246	-0.990635
H100	H	-4.028926	0.121561	-1.104030
H101	H	-4.181940	0.035409	-1.104692
H102	H	-3.949691	0.039023	-1.099062
H103	H	-4.106305	0.073765	-0.973525
H104	H	-3.874025	0.077395	-0.967887
C105	C	-3.573661	0.297314	-0.636389
C106	C	-3.774676	0.257303	-0.669925
H107	H	-3.557067	0.356328	-0.658465
H108	H	-3.477795	0.273809	-0.653519
H109	H	-3.549813	0.288950	-0.574438
H110	H	-3.798520	0.265662	-0.731876
H111	H	-3.870571	0.280817	-0.652800
H112	H	-3.955651	0.095187	-0.913020
