data_functionalizedCrystal
_audit_creation_method	'MofGen! by Chris Wilmer'
_symmetry_space_group_name_H-M	'P1'
_symmetry_Int_Tables_number	1
_symmetry_cell_setting	triclinic
loop_
_symmetry_equiv_pos_as_xyz
  x,y,z
_cell_length_a	14.519709
_cell_length_b	9.065215
_cell_length_c	7.540329
_cell_angle_alpha	89.997743
_cell_angle_beta	90.004008
_cell_angle_gamma	84.347421
loop_
_atom_site_label
_atom_site_type_symbol
_atom_site_fract_x
_atom_site_fract_y
_atom_site_fract_z
O1	O	-1.225279	-0.193392	0.147248
O2	O	-0.725279	0.306608	0.647248
O3	O	-0.956968	-0.216167	0.147301
O4	O	-0.456968	0.283833	0.647301
O5	O	-1.096671	0.009967	0.147266
O6	O	-0.596671	0.509967	0.647266
O7	O	-1.085576	-0.419526	0.147283
O8	O	-0.585576	0.080474	0.647283
O9	O	-1.096666	0.009969	-0.147699
O10	O	-0.596666	0.509969	0.352301
O11	O	-0.956963	-0.216165	-0.147664
O12	O	-0.456963	0.283835	0.352336
O13	O	-1.225274	-0.193390	-0.147718
O14	O	-0.725274	0.306610	0.352282
Cu15	Cu	-1.091118	-0.204777	-0.174623
Cu16	Cu	-0.591118	0.295223	0.325377
Cu17	Cu	-1.091124	-0.204779	0.174207
Cu18	Cu	-0.591124	0.295221	0.674207
O19	O	-1.085571	-0.419524	-0.147682
O20	O	-0.585571	0.080476	0.352318
C21	C	-0.922598	-0.215104	-0.000174
C22	C	-0.422598	0.284896	0.499826
C23	C	-0.820194	-0.211924	-0.000154
C24	C	-0.320194	0.288076	0.499846
C25	C	-1.259644	-0.194452	-0.000238
C26	C	-0.759644	0.305548	0.499762
C27	C	-1.362048	-0.197633	-0.000247
C28	C	-0.862048	0.302367	0.499753
C29	C	-1.095603	0.064935	-0.000215
C30	C	-0.595603	0.564935	0.499785
C31	C	-1.092416	0.228718	-0.000209
C32	C	-0.592416	0.728718	0.499791
C33	C	-0.445212	-0.200215	-0.000235
C34	C	0.054788	0.299785	0.499765
C35	C	-0.549544	-0.203466	-0.000212
C36	C	-0.049544	0.296534	0.499788
C37	C	-0.632700	-0.206069	-0.000193
C38	C	-0.132700	0.293931	0.499807
C39	C	-0.737038	-0.209321	-0.000173
C40	C	-0.237038	0.290679	0.499827
C41	C	-1.086639	-0.474492	-0.000198
C42	C	-0.586639	0.025508	0.499802
C43	C	-1.089826	-0.638275	-0.000192
C44	C	-0.589826	-0.138275	0.499808
N45	N	-1.091121	-0.204775	-0.419972
N46	N	-0.591121	0.295225	0.080028
N47	N	-1.091128	-0.204770	0.419556
N48	N	-0.591128	0.295230	0.919556
