data_functionalizedCrystal
_audit_creation_method	'MofGen! by Chris Wilmer'
_symmetry_space_group_name_H-M	'P1'
_symmetry_Int_Tables_number	1
_symmetry_cell_setting	triclinic
loop_
_symmetry_equiv_pos_as_xyz
  x,y,z
_cell_length_a	12.503572
_cell_length_b	14.044220
_cell_length_c	14.044220
_cell_angle_alpha	93.188878
_cell_angle_beta	93.843168
_cell_angle_gamma	86.164750
loop_
_atom_site_label
_atom_site_type_symbol
_atom_site_fract_x
_atom_site_fract_y
_atom_site_fract_z
O1	O	0.089210	-1.282200	-0.225116
O2	O	0.339210	-1.032200	0.024884
O3	O	0.589210	-0.782200	0.274884
O4	O	0.839210	-0.532200	0.524884
O5	O	0.089237	-1.005530	-0.216809
O6	O	0.339237	-0.755530	0.033191
O7	O	0.589237	-0.505530	0.283191
O8	O	0.839237	-0.255530	0.533191
O9	O	0.089213	-1.139712	-0.082627
O10	O	0.339213	-0.889712	0.167373
O11	O	0.589213	-0.639712	0.417373
O12	O	0.839213	-0.389712	0.667373
O13	O	0.089234	-1.148019	-0.359298
O14	O	0.339234	-0.898019	-0.109298
O15	O	0.589234	-0.648019	0.140702
O16	O	0.839234	-0.398019	0.390702
O17	O	-0.089427	-1.129622	-0.092737
O18	O	0.160573	-0.879622	0.157263
O19	O	0.410573	-0.629622	0.407263
O20	O	0.660573	-0.379622	0.657263
O21	O	-0.089403	-0.995440	-0.226918
O22	O	0.160597	-0.745440	0.023082
O23	O	0.410597	-0.495440	0.273082
O24	O	0.660597	-0.245440	0.523082
O25	O	-0.089430	-1.272110	-0.235226
O26	O	0.160570	-1.022110	0.014774
O27	O	0.410570	-0.772110	0.264774
O28	O	0.660570	-0.522110	0.514774
Cu29	Cu	-0.105728	-1.132854	-0.231995
Cu30	Cu	0.144272	-0.882854	0.018005
Cu31	Cu	0.394272	-0.632854	0.268005
Cu32	Cu	0.644272	-0.382854	0.518005
Cu33	Cu	0.105535	-1.144786	-0.220040
Cu34	Cu	0.355535	-0.894786	0.029960
Cu35	Cu	0.605535	-0.644786	0.279960
Cu36	Cu	0.855535	-0.394786	0.529960
O37	O	-0.089406	-1.137929	-0.369407
O38	O	0.160594	-0.887929	-0.119407
O39	O	0.410594	-0.637929	0.130593
O40	O	0.660594	-0.387929	0.380593
C41	C	-0.000080	-0.964864	-0.218228
C42	C	0.249920	-0.714864	0.031772
C43	C	0.499920	-0.464864	0.281772
C44	C	0.749920	-0.214864	0.531772
C45	C	-0.000070	-0.858721	-0.207383
C46	C	0.249930	-0.608721	0.042617
C47	C	0.499930	-0.358721	0.292617
C48	C	0.749930	-0.108721	0.542617
N49	N	-0.254319	-1.124469	-0.240404
N50	N	-0.004319	-0.874469	0.009596
N51	N	0.245681	-0.624469	0.259596
N52	N	0.495681	-0.374469	0.509596
C53	C	-0.000107	-1.131031	-0.052060
C54	C	0.249893	-0.881031	0.197940
C55	C	0.499893	-0.631031	0.447940
C56	C	0.749893	-0.381031	0.697940
C57	C	-0.000107	-1.120187	0.054082
C58	C	0.249893	-0.870187	0.304082
C59	C	0.499893	-0.620187	0.554082
C60	C	0.749893	-0.370187	0.804082
C61	C	-0.473432	-1.112134	-0.252782
C62	C	-0.223432	-0.862134	-0.002782
C63	C	0.026568	-0.612134	0.247218
C64	C	0.276568	-0.362134	0.497218
C65	C	-0.526768	-1.165511	-0.199249
C66	C	-0.276768	-0.915511	0.050751
C67	C	-0.026768	-0.665511	0.300751
C68	C	0.223232	-0.415511	0.550751
C69	C	-0.648690	-1.158648	-0.206136
C70	C	-0.398690	-0.908648	0.043864
C71	C	-0.148690	-0.658648	0.293864
C72	C	0.101310	-0.408648	0.543864
C73	C	-0.351499	-1.118996	-0.245896
C74	C	-0.101499	-0.868996	0.004104
C75	C	0.148501	-0.618996	0.254104
C76	C	0.398501	-0.368996	0.504104
N77	N	0.254126	-1.153179	-0.211624
N78	N	0.504126	-0.903179	0.038376
N79	N	0.754126	-0.653179	0.288376
N80	N	1.004126	-0.403179	0.538376
C81	C	-0.000111	-1.312777	-0.233807
C82	C	0.249889	-1.062777	0.016193
C83	C	0.499889	-0.812777	0.266193
C84	C	0.749889	-0.562777	0.516193
C85	C	-0.000114	-1.418920	-0.244651
C86	C	0.249886	-1.168920	0.005349
C87	C	0.499886	-0.918920	0.255349
C88	C	0.749886	-0.668920	0.505349
C89	C	-0.000092	-0.664382	-0.187558
C90	C	0.249908	-0.414382	0.062442
C91	C	0.499908	-0.164382	0.312442
C92	C	0.749908	0.085618	0.562442
C93	C	-0.000091	-0.613253	-0.264472
C94	C	0.249909	-0.363253	-0.014472
C95	C	0.499909	-0.113253	0.235528
C96	C	0.749909	0.136747	0.485528
C97	C	-0.000104	-0.505116	-0.253441
C98	C	0.249896	-0.255116	-0.003441
C99	C	0.499896	-0.005116	0.246559
C100	C	0.749896	0.244884	0.496559
C101	C	-0.000080	-0.772529	-0.198587
C102	C	0.249920	-0.522529	0.051413
C103	C	0.499920	-0.272529	0.301413
C104	C	0.749920	-0.022529	0.551413
C105	C	-0.000084	-1.146609	-0.399974
C106	C	0.249916	-0.896609	-0.149974
C107	C	0.499916	-0.646609	0.100026
C108	C	0.749916	-0.396609	0.350026
C109	C	-0.000077	-1.157454	-0.506117
C110	C	0.249923	-0.907454	-0.256117
C111	C	0.499923	-0.657454	-0.006117
C112	C	0.749923	-0.407454	0.243883
C113	C	-0.000090	-1.100361	0.248421
C114	C	0.249910	-0.850361	0.498421
C115	C	0.499910	-0.600361	0.748421
C116	C	0.749910	-0.350361	0.998421
C117	C	-0.000094	-1.177275	0.299551
C118	C	0.249906	-0.927275	0.549551
C119	C	0.499906	-0.677275	0.799551
C120	C	0.749906	-0.427275	1.049551
C121	C	-0.000084	-1.166244	0.407687
C122	C	0.249916	-0.916244	0.657687
C123	C	0.499916	-0.666244	0.907687
C124	C	0.749916	-0.416244	1.157687
C125	C	-0.000099	-1.111391	0.140274
C126	C	0.249901	-0.861391	0.390274
C127	C	0.499901	-0.611391	0.640274
C128	C	0.749901	-0.361391	0.890274
H129	H	-0.480864	-1.216364	-0.148245
H130	H	-0.230864	-0.966364	0.101755
H131	H	0.019136	-0.716364	0.351755
H132	H	0.269136	-0.466364	0.601755
F133	F	-0.000112	-1.274173	0.250617
F134	F	0.249888	-1.024173	0.500617
F135	F	0.499888	-0.774173	0.750617
F136	F	0.749888	-0.524173	1.000617
F137	F	-0.000075	-1.003470	0.297355
F138	F	0.249925	-0.753470	0.547355
F139	F	0.499925	-0.503470	0.797355
F140	F	0.749925	-0.253470	1.047355
H141	H	-0.000081	-0.650692	-0.338605
H142	H	0.249919	-0.400692	-0.088605
H143	H	0.499919	-0.150692	0.161395
H144	H	0.749919	0.099308	0.411395
F145	F	-0.533425	-1.045671	-0.319446
F146	F	-0.283425	-0.795671	-0.069446
F147	F	-0.033425	-0.545671	0.180554
F148	F	0.216575	-0.295671	0.430554
F149	F	-0.000103	-0.615449	-0.090667
F150	F	0.249897	-0.365449	0.159333
F151	F	0.499897	-0.115449	0.409333
F152	F	0.749897	0.134551	0.659333
