data_functionalizedCrystal
_audit_creation_method	'MofGen! by Chris Wilmer'
_symmetry_space_group_name_H-M	'P1'
_symmetry_Int_Tables_number	1
_symmetry_cell_setting	triclinic
loop_
_symmetry_equiv_pos_as_xyz
  x,y,z
_cell_length_a	14.853567
_cell_length_b	10.654550
_cell_length_c	13.330367
_cell_angle_alpha	89.993507
_cell_angle_beta	89.996161
_cell_angle_gamma	95.940083
loop_
_atom_site_label
_atom_site_type_symbol
_atom_site_fract_x
_atom_site_fract_y
_atom_site_fract_z
O1	O	1.197234	-0.163967	0.083366
O2	O	0.934879	-0.183499	0.083380
O3	O	1.072089	0.009069	0.083369
O4	O	1.060025	-0.356535	0.083377
O5	O	1.072093	0.009088	-0.083478
O6	O	0.934884	-0.183480	-0.083467
O7	O	1.197239	-0.163948	-0.083481
Cu8	Cu	1.066062	-0.173713	-0.098709
Cu9	Cu	1.066056	-0.173735	0.098607
O10	O	1.060029	-0.356516	-0.083470
C11	C	1.071205	0.055867	-0.000054
C12	C	1.068555	0.195283	-0.000050
C13	C	1.230830	-0.164843	-0.000057
C14	C	1.330928	-0.167495	-0.000056
C15	C	0.901288	-0.182605	-0.000042
C16	C	0.801190	-0.179953	-0.000037
C17	C	1.744134	-0.293095	-0.000035
C18	C	1.764190	-0.064320	-0.000041
C19	C	1.670143	-0.061826	-0.000047
C20	C	1.613087	-0.174969	-0.000045
C21	C	1.650078	-0.290605	-0.000038
C22	C	1.633145	0.053807	-0.000043
C23	C	1.539093	0.056306	-0.000048
C24	C	1.482035	-0.056838	-0.000054
C25	C	1.519031	-0.172479	-0.000048
C26	C	1.461975	-0.285621	-0.000046
C27	C	1.498969	-0.401263	-0.000047
C28	C	1.593020	-0.403749	-0.000044
C29	C	1.387984	-0.054353	-0.000057
C30	C	1.367919	-0.283131	-0.000049
C31	C	1.060913	-0.403314	-0.000046
C32	C	1.063563	-0.542730	-0.000043
N33	N	1.066072	-0.173696	-0.237490
C34	C	1.149342	0.275608	-0.000057
C35	C	1.146846	0.406603	-0.000050
C36	C	0.982770	0.376935	-0.000033
C37	C	0.985267	0.245942	-0.000033
C38	C	1.244070	0.292737	-0.000072
C39	C	1.241574	0.423732	-0.000064
N40	N	1.066053	-0.173742	0.237389
C41	C	1.005177	-0.258830	0.289919
C42	C	1.126933	-0.088646	0.289887
C43	C	1.126937	-0.088634	0.394905
C44	C	1.066061	-0.173722	0.447435
C45	C	1.005180	-0.258823	0.394947
C46	C	1.187822	-0.003543	0.447401
C47	C	1.187829	-0.003529	0.552426
C48	C	1.126948	-0.088612	0.604958
C49	C	1.066065	-0.173715	0.552463
C50	C	1.005188	-0.258804	0.604993
C51	C	0.944300	-0.343902	0.552501
C52	C	0.944299	-0.343906	0.447479
C53	C	1.126949	-0.088608	0.709980
C54	C	1.005192	-0.258797	0.710021
H55	H	1.321469	-0.375267	-0.000054
H56	H	1.774259	-0.387248	-0.000040
H57	H	1.281120	0.263756	0.069747
H58	H	1.679607	0.145922	-0.000039
H59	H	0.955599	-0.328113	0.247177
H60	H	1.277269	0.465871	-0.069890
O61	O	1.825732	0.057701	-0.000045
H62	H	1.812491	0.113023	0.067960
O63	O	1.499191	0.181025	-0.000067
H64	H	1.554668	0.259279	-0.000078
H65	H	0.955615	-0.328082	0.752785
H66	H	1.357867	0.039801	-0.000050
H67	H	1.452502	-0.493383	-0.000040
O68	O	1.192592	0.003124	0.233237
H69	H	1.182359	-0.011174	0.151390
H70	H	0.919482	0.180545	-0.000013
H71	H	0.914959	0.418198	-0.000018
O72	O	1.192591	0.003201	0.766592
H73	H	1.182361	-0.011078	0.848446
O74	O	1.284043	0.245955	-0.095487
H75	H	1.303219	0.327088	-0.146073
O76	O	1.279495	0.484595	0.095349
H77	H	1.301622	0.410929	0.145929
H78	H	1.623150	-0.497898	-0.000043
O79	O	0.878625	-0.435656	0.609160
H80	H	0.888855	-0.421338	0.691005
H81	H	0.894726	-0.413191	0.404733
H82	H	1.237391	0.065727	0.404628
H83	H	1.237407	0.065763	0.595159
