data_functionalizedCrystal
_audit_creation_method	'MofGen! by Chris Wilmer'
_symmetry_space_group_name_H-M	'P1'
_symmetry_Int_Tables_number	1
_symmetry_cell_setting	triclinic
loop_
_symmetry_equiv_pos_as_xyz
  x,y,z
_cell_length_a	11.026607
_cell_length_b	14.853559
_cell_length_c	10.065922
_cell_angle_alpha	80.197089
_cell_angle_beta	82.290843
_cell_angle_gamma	96.108735
loop_
_atom_site_label
_atom_site_type_symbol
_atom_site_fract_x
_atom_site_fract_y
_atom_site_fract_z
O1	O	1.626731	0.391972	-0.113481
O2	O	1.273355	0.348973	-0.113484
O3	O	1.459488	0.240766	-0.113481
O4	O	1.440599	0.500179	-0.113484
O5	O	1.427574	0.212056	0.113507
O6	O	1.241441	0.320263	0.113504
O7	O	1.594817	0.363262	0.113507
Zn8	Zn	1.413062	0.337204	0.149545
Zn9	Zn	1.455110	0.375031	-0.149522
O10	O	1.408685	0.471469	0.113504
C11	C	1.212174	0.326685	0.000009
C12	C	1.077421	0.303038	0.000008
C13	C	1.003723	0.368333	0.000006
C14	C	0.864449	0.343894	0.000005
C15	C	1.442677	0.192685	0.000010
C16	C	1.440119	0.092188	0.000003
C17	C	1.446658	-0.317089	-0.123729
C18	C	1.411864	-0.348384	0.123742
C19	C	1.414279	-0.253962	0.123744
C20	C	1.432881	-0.191098	0.000007
C21	C	1.449070	-0.222657	-0.123732
C22	C	1.398078	-0.222396	0.247480
C23	C	1.400491	-0.127968	0.247486
C24	C	1.419103	-0.065102	0.123747
C25	C	1.435293	-0.096666	0.000004
C26	C	1.453896	-0.033802	-0.123733
C27	C	1.470095	-0.065364	-0.247478
C28	C	1.467681	-0.159791	-0.247470
C29	C	1.421516	0.029325	0.123740
C30	C	1.456307	0.060629	-0.123736
C31	C	1.655999	0.385550	0.000010
C32	C	1.790753	0.409199	0.000003
C33	C	1.425496	0.519550	0.000009
C34	C	1.428055	0.620048	0.000008
N35	N	1.384375	0.311389	0.353650
C36	C	1.445115	0.366051	0.421430
C37	C	1.423047	0.346176	0.578597
N38	N	1.483796	0.400846	0.646373
H39	H	1.471461	0.111809	-0.224499
H40	H	1.408300	0.055016	0.224491
O41	O	1.378022	-0.290208	0.380919
H42	H	1.287468	-0.284987	0.440253
O43	O	1.574323	0.482337	0.569141
H44	H	1.577445	0.485167	0.457816
O45	O	0.811460	0.245871	0.000016
H46	H	0.886629	0.201756	0.000030
O47	O	0.843727	0.507224	-0.000002
H48	H	0.944806	0.511041	-0.000011
H49	H	1.037413	0.229047	-0.000026
H50	H	1.485232	-0.014169	-0.348224
H51	H	1.387305	-0.102279	0.348246
O52	O	1.464121	-0.351128	-0.257189
H53	H	1.390259	-0.330872	-0.316519
O54	O	1.056717	0.466349	0.000008
H55	H	1.012605	0.488680	0.092531
H56	H	1.480868	-0.185497	-0.348216
O57	O	1.293876	0.229891	0.430901
H58	H	1.252755	0.192864	0.357344
O59	O	1.391824	-0.416178	0.257199
H60	H	1.392881	-0.487140	0.236412
H61	H	1.513460	0.427559	0.363103
H62	H	1.354706	0.284658	0.636918
