data_functionalizedCrystal
_audit_creation_method	'MofGen! by Chris Wilmer'
_symmetry_space_group_name_H-M	'P1'
_symmetry_Int_Tables_number	1
_symmetry_cell_setting	triclinic
loop_
_symmetry_equiv_pos_as_xyz
  x,y,z
_cell_length_a	10.654545
_cell_length_b	16.974813
_cell_length_c	9.730223
_cell_angle_alpha	86.341041
_cell_angle_beta	89.997167
_cell_angle_gamma	83.938073
loop_
_atom_site_label
_atom_site_type_symbol
_atom_site_fract_x
_atom_site_fract_y
_atom_site_fract_z
O1	O	1.666114	0.111039	-0.126624
O2	O	1.300471	0.121623	-0.127806
O3	O	1.493486	0.001283	-0.114413
O4	O	1.473099	0.231379	-0.140017
O5	O	1.493473	0.001280	0.114168
O6	O	1.300458	0.121620	0.100774
O7	O	1.666102	0.111035	0.101957
Zn8	Zn	1.483278	0.116327	0.137657
Zn9	Zn	1.483294	0.116331	-0.163507
O10	O	1.473087	0.231375	0.088563
C11	C	1.253678	0.120845	-0.013431
C12	C	1.114271	0.118522	-0.013174
C13	C	1.048777	0.117427	0.111547
C14	C	0.917791	0.115231	0.111792
C15	C	0.917806	0.115229	-0.137418
C16	C	1.048790	0.117419	-0.137661
C17	C	1.492704	-0.028181	0.003153
C18	C	1.490378	-0.115971	0.012913
C19	C	1.489295	-0.157208	-0.107099
C20	C	1.487102	-0.239695	-0.097924
C21	C	1.486000	-0.280944	0.031265
C22	C	1.487080	-0.239700	0.151287
C23	C	1.489264	-0.157214	0.142110
C24	C	1.479458	-0.527641	0.072070
C25	C	1.477277	-0.610133	0.081238
C26	C	1.477297	-0.610122	-0.167974
C27	C	1.479489	-0.527635	-0.177139
C28	C	1.480562	-0.486398	-0.057118
N29	N	1.483762	-0.365259	0.040646
N30	N	1.482791	-0.402084	-0.066501
C31	C	1.712894	0.111813	-0.012422
C32	C	1.852302	0.114136	-0.012688
C33	C	1.473869	0.260840	-0.029006
C34	C	1.476194	0.348629	-0.038775
N35	N	1.483276	0.116324	0.343194
N36	N	1.483306	0.116329	-0.369043
C37	C	1.568772	0.063060	0.421048
C38	C	1.568785	0.063060	0.564931
C39	C	1.397801	0.169595	0.553092
C40	C	1.397784	0.169590	0.409213
H41	H	1.102088	0.118325	0.212912
C42	C	1.476146	-0.654753	-0.298436
C43	C	1.477588	-0.600974	-0.413536
C44	C	1.476522	-0.642058	-0.533746
H45	H	1.402104	-0.681296	-0.300831
H46	H	1.548507	-0.692553	-0.299518
H47	H	1.405234	-0.563188	-0.412455
H48	H	1.551624	-0.574429	-0.411188
H49	H	1.548883	-0.679858	-0.534828
H50	H	1.402479	-0.668599	-0.536127
H51	H	1.477512	-0.605576	-0.611855
H52	H	1.480357	-0.494078	0.169801
C53	C	1.661436	0.005077	0.349496
C54	C	1.641159	-0.072728	0.393189
C55	C	1.726484	-0.126175	0.327313
H56	H	1.745286	0.014041	0.372013
H57	H	1.649201	0.012629	0.252643
H58	H	1.653404	-0.080277	0.490020
H59	H	1.557325	-0.081718	0.370671
H60	H	1.714250	-0.118623	0.230460
H61	H	1.810329	-0.117203	0.349835
H62	H	1.712730	-0.178971	0.356940
H63	H	1.486175	-0.273291	0.256475
C64	C	1.304847	0.227461	0.624521
C65	C	1.229943	0.274090	0.525540
C66	C	1.144287	0.327399	0.591285
H67	H	1.349813	0.260719	0.676939
H68	H	1.252566	0.198729	0.683831
H69	H	1.282217	0.302820	0.466254
H70	H	1.184949	0.240854	0.473116
H71	H	1.092007	0.298668	0.650595
H72	H	1.189264	0.360652	0.643702
H73	H	1.093447	0.359038	0.524138
H74	H	0.864472	0.114339	0.213353
C75	C	1.304815	0.227298	0.324613
C76	C	1.227994	0.184723	0.246797
C77	C	1.142330	0.237851	0.168861
H78	H	1.349776	0.260493	0.264663
H79	H	1.253834	0.259016	0.384490
H80	H	1.278969	0.153019	0.186926
H81	H	1.183005	0.151531	0.306713
H82	H	1.091349	0.269569	0.228738
H83	H	1.187302	0.271044	0.108919
H84	H	1.090189	0.208972	0.116064
H85	H	0.864474	0.114332	-0.238771
H86	H	1.102117	0.118309	-0.239230
H87	H	1.490199	-0.123630	-0.212299
C88	C	1.661412	0.005140	0.649541
C89	C	1.594623	-0.043671	0.737564
C90	C	1.679910	-0.097047	0.815513
H91	H	1.713670	0.033798	0.702581
H92	H	1.712303	-0.026629	0.589660
H93	H	1.543753	-0.011907	0.797438
H94	H	1.542369	-0.072347	0.684561
H95	H	1.730802	-0.128815	0.755632
H96	H	1.732164	-0.068382	0.868544
H97	H	1.634607	-0.130176	0.875237
C98	C	1.486059	-0.284335	-0.228384
C99	C	1.487560	-0.230561	-0.343485
C100	C	1.486642	-0.271657	-0.463693
H101	H	1.412047	-0.310902	-0.230856
H102	H	1.558451	-0.322115	-0.229387
H103	H	1.415175	-0.192795	-0.342483
H104	H	1.561566	-0.203992	-0.341059
H105	H	1.559034	-0.309437	-0.464696
H106	H	1.412629	-0.298223	-0.466150
H107	H	1.487672	-0.235179	-0.541802
H108	H	1.480388	-0.494056	-0.282339
H109	H	1.476374	-0.643715	0.186444
H110	H	1.490129	-0.123638	0.239837
