data_functionalizedCrystal
_audit_creation_method	'MofGen! by Chris Wilmer'
_symmetry_space_group_name_H-M	'P1'
_symmetry_Int_Tables_number	1
_symmetry_cell_setting	triclinic
loop_
_symmetry_equiv_pos_as_xyz
  x,y,z
_cell_length_a	12.759401
_cell_length_b	12.759399
_cell_length_c	12.759393
_cell_angle_alpha	89.969730
_cell_angle_beta	89.979914
_cell_angle_gamma	90.013324
loop_
_atom_site_label
_atom_site_type_symbol
_atom_site_fract_x
_atom_site_fract_y
_atom_site_fract_z
Zn1	Zn	-1.606258	0.418272	0.594007
Zn2	Zn	-1.606150	0.593986	0.418326
Zn3	Zn	-1.430559	0.418316	0.418343
Zn4	Zn	-1.430548	0.593904	0.593964
O5	O	-1.518379	0.506120	0.506160
O6	O	-1.753265	0.441597	0.570713
O7	O	-1.582816	0.570735	0.271307
O8	O	-1.453916	0.271289	0.441670
O9	O	-1.753185	0.570693	0.441641
O10	O	-1.583001	0.271257	0.570730
O11	O	-1.453810	0.441672	0.271320
O12	O	-1.283536	0.441592	0.441629
O13	O	-1.453897	0.570554	0.740991
O14	O	-1.283528	0.570596	0.570657
O15	O	-1.582991	0.441518	0.741022
O16	O	-1.582806	0.740996	0.441599
O17	O	-1.453792	0.740936	0.570640
C18	C	-1.245411	0.506091	0.506141
C19	C	-1.128635	0.506104	0.506157
C20	C	-1.073815	0.439003	0.573468
C21	C	-0.964091	0.439010	0.573473
C22	C	-0.964016	0.573227	0.438854
C23	C	-1.073738	0.573214	0.438845
C24	C	-1.518314	0.779087	0.506136
C25	C	-1.518383	0.895864	0.506161
C26	C	-1.518455	0.506022	0.780193
C27	C	-1.518487	0.505980	0.896970
C28	C	-0.792412	0.506139	0.506176
C29	C	-0.909188	0.506123	0.506172
C30	C	-1.518472	0.232086	0.506207
C31	C	-1.518512	0.115310	0.506227
C32	C	-1.585637	0.950722	0.439046
C33	C	-1.585704	1.060446	0.439081
C34	C	-1.451254	1.060444	0.573349
C35	C	-1.451193	0.950722	0.573319
C36	C	-1.518363	0.506141	0.233192
C37	C	-1.518534	0.505887	0.116416
C38	C	-1.585688	0.573106	1.061561
C39	C	-1.585663	0.573155	0.951837
C40	C	-1.451325	0.438758	0.951833
C41	C	-1.451346	0.438715	1.061555
H42	H	-1.118373	0.627857	0.384027
Br43	Br	-0.889507	0.664302	0.347507
H44	H	-1.640348	0.906059	0.384363
Br45	Br	-1.676801	0.664389	0.877393
H46	H	-1.396656	0.383976	1.106220
Br47	Br	-0.889696	0.347936	0.664824
Br48	Br	-1.676870	0.664268	1.136012
H49	H	-1.396426	0.906053	0.627977
H50	H	-1.118508	0.384354	0.628275
Br51	Br	-1.676988	1.134893	0.347998
H52	H	-1.396549	1.105123	0.628025
Br53	Br	-1.360171	0.347577	0.877372
