data_functionalizedCrystal
_audit_creation_method	'MofGen! by Chris Wilmer'
_symmetry_space_group_name_H-M	'P1'
_symmetry_Int_Tables_number	1
_symmetry_cell_setting	triclinic
loop_
_symmetry_equiv_pos_as_xyz
  x,y,z
_cell_length_a	8.559649
_cell_length_b	8.559649
_cell_length_c	7.681481
_cell_angle_alpha	85.069100
_cell_angle_beta	94.913240
_cell_angle_gamma	69.778664
loop_
_atom_site_label
_atom_site_type_symbol
_atom_site_fract_x
_atom_site_fract_y
_atom_site_fract_z
O1	O	2.109661	-0.037797	-0.146402
O2	O	2.609661	0.462203	0.353598
O3	O	1.634175	0.045985	-0.146408
O4	O	2.134175	0.545985	0.353592
O5	O	1.913809	-0.233649	-0.146402
O6	O	2.413809	0.266351	0.353598
O7	O	1.830027	0.241837	-0.146407
O8	O	2.330027	0.741837	0.353593
O9	O	1.948236	-0.268136	0.146456
O10	O	2.448236	0.231864	0.646456
O11	O	1.668602	0.011497	0.146450
O12	O	2.168602	0.511497	0.646450
O13	O	2.144088	-0.072285	0.146457
O14	O	2.644088	0.427715	0.646457
Zn15	Zn	1.911811	-0.035869	0.192951
Zn16	Zn	2.411811	0.464131	0.692951
Zn17	Zn	1.866452	0.009570	-0.192902
Zn18	Zn	2.366452	0.509570	0.307098
O19	O	1.864454	0.207349	0.146451
O20	O	2.364454	0.707349	0.646451
C21	C	1.591080	0.035090	0.000020
C22	C	2.091080	0.535090	0.500020
C23	C	1.411380	0.053990	0.000017
C24	C	1.911380	0.553990	0.500017
C25	C	1.937371	-0.311201	0.000024
C26	C	2.437371	0.188799	0.500024
C27	C	1.956269	-0.490899	0.000014
C28	C	2.456269	0.009101	0.500014
C29	C	2.187183	-0.061390	0.000025
C30	C	2.687183	0.438610	0.500025
C31	C	2.366881	-0.080288	0.000016
C32	C	2.866881	0.419712	0.500016
C33	C	1.840891	0.284902	0.000021
C34	C	2.340891	0.784902	0.500021
C35	C	1.821992	0.464601	0.000019
C36	C	2.321992	0.964601	0.500019
N37	N	1.942779	-0.066883	0.456286
N38	N	2.442779	0.433117	0.956286
N39	N	1.835499	0.040569	-0.456237
N40	N	2.335499	0.540569	0.043763
H41	H	1.311991	0.183419	0.000006
H42	H	1.811991	0.683419	0.500006
C43	C	2.090737	-0.215052	0.557864
C44	C	2.590737	0.284948	1.057864
H45	H	2.154948	-0.279357	0.476677
H46	H	2.654948	0.220643	0.976677
H47	H	2.048962	-0.283754	0.629800
H48	H	2.548962	0.216246	1.129800
H49	H	2.159602	-0.173445	0.629765
H50	H	2.659602	0.326555	1.129765
C51	C	1.501125	-0.255127	0.000023
C52	C	2.001125	0.244873	0.500023
H53	H	1.608345	-0.245323	0.000038
H54	H	2.108345	0.254677	0.500038
H55	H	1.476933	-0.301938	-0.102100
H56	H	1.976933	0.198062	0.397900
H57	H	1.500941	-0.325982	0.102165
H58	H	2.000941	0.174018	0.602165
C59	C	2.131117	-0.625151	0.000015
C60	C	2.631117	-0.125151	0.500015
H61	H	2.121315	-0.732371	0.000011
H62	H	2.621315	-0.232371	0.500011
H63	H	2.201962	-0.624983	0.102134
H64	H	2.701962	-0.124983	0.602134
H65	H	2.177930	-0.600933	-0.102132
H66	H	2.677930	-0.100933	0.397868
C67	C	1.647149	-0.401161	0.000009
C68	C	2.147149	0.098839	0.500009
H69	H	1.565444	-0.453173	0.000027
H70	H	2.065444	0.046827	0.500027
H71	H	1.622057	-0.321727	-0.102119
H72	H	2.122057	0.178273	0.397881
H73	H	1.646072	-0.345778	0.102146
H74	H	2.146072	0.154222	0.602146
C75	C	1.687550	0.188733	0.442192
C76	C	2.187550	0.688733	0.942192
H77	H	1.623350	0.253052	0.523376
H78	H	2.123350	0.753052	1.023376
H79	H	1.618693	0.147139	0.370280
H80	H	2.118693	0.647139	0.870280
H81	H	1.729342	0.257438	0.370267
H82	H	2.229342	0.757438	0.870267
