data_functionalizedCrystal
_audit_creation_method	'MofGen! by Chris Wilmer'
_symmetry_space_group_name_H-M	'P1'
_symmetry_Int_Tables_number	1
_symmetry_cell_setting	triclinic
loop_
_symmetry_equiv_pos_as_xyz
  x,y,z
_cell_length_a	18.366186
_cell_length_b	19.288856
_cell_length_c	19.288865
_cell_angle_alpha	96.865496
_cell_angle_beta	90.013443
_cell_angle_gamma	90.006398
loop_
_atom_site_label
_atom_site_type_symbol
_atom_site_fract_x
_atom_site_fract_y
_atom_site_fract_z
O1	O	0.060591	-0.921338	0.086625
O2	O	0.393925	-0.588005	0.419958
O3	O	0.727258	-0.254672	0.753291
O4	O	0.060586	-0.719077	0.098319
O5	O	0.393920	-0.385744	0.431653
O6	O	0.727253	-0.052410	0.764986
O7	O	0.060575	-0.826052	-0.008658
O8	O	0.393908	-0.492719	0.324675
O9	O	0.727241	-0.159385	0.658008
O10	O	0.060603	-0.814363	0.193603
O11	O	0.393936	-0.481030	0.526936
O12	O	0.727270	-0.147697	0.860269
O13	O	-0.060525	-0.826070	-0.008672
O14	O	0.272809	-0.492737	0.324661
O15	O	0.606142	-0.159403	0.657995
O16	O	-0.060513	-0.719095	0.098306
O17	O	0.272820	-0.385762	0.431639
O18	O	0.606154	-0.052428	0.764973
O19	O	-0.060508	-0.921356	0.086611
O20	O	0.272825	-0.588023	0.419944
O21	O	0.606158	-0.254690	0.753278
Zn22	Zn	-0.079738	-0.820229	0.092456
Zn23	Zn	0.253596	-0.486895	0.425790
Zn24	Zn	0.586929	-0.153562	0.759123
Zn25	Zn	0.079816	-0.820205	0.092474
Zn26	Zn	0.413149	-0.486872	0.425808
Zn27	Zn	0.746483	-0.153538	0.759141
O28	O	-0.060496	-0.814381	0.193589
O29	O	0.272837	-0.481048	0.526922
O30	O	0.606170	-0.147715	0.860256
C31	C	0.000036	-0.693209	0.097937
C32	C	0.333369	-0.359876	0.431271
C33	C	0.666703	-0.026543	0.764604
C34	C	0.000034	-0.616105	0.096811
C35	C	0.333367	-0.282772	0.430144
C36	C	0.666700	0.050561	0.763477
C37	C	0.000031	-0.052064	0.151959
C38	C	0.333364	0.281269	0.485292
C39	C	0.666698	0.614603	0.818626
C40	C	0.000036	-0.124511	0.153024
C41	C	0.333370	0.208823	0.486357
C42	C	0.666703	0.542156	0.819690
C43	C	0.000027	-0.169218	0.090254
C44	C	0.333360	0.164116	0.423587
C45	C	0.666694	0.497449	0.756921
C46	C	0.000031	-0.141472	0.026415
C47	C	0.333364	0.191861	0.359748
C48	C	0.666697	0.525194	0.693081
C49	C	0.000033	-0.069027	0.025352
C50	C	0.333366	0.264306	0.358685
C51	C	0.666699	0.597640	0.692019
C52	C	-0.042406	-0.290494	0.043435
C53	C	0.290927	0.042839	0.376768
C54	C	0.624260	0.376172	0.710102
C55	C	-0.042413	-0.362938	0.044501
C56	C	0.290921	-0.029605	0.377834
C57	C	0.624254	0.303729	0.711167
C58	C	0.000025	-0.392664	0.093530
C59	C	0.333358	-0.059330	0.426863
C60	C	0.666691	0.274003	0.760196
C61	C	0.042459	-0.349935	0.141505
C62	C	0.375792	-0.016602	0.474838
C63	C	0.709125	0.316732	0.808171
C64	C	0.042461	-0.277490	0.140442
C65	C	0.375794	0.055844	0.473775
C66	C	0.709127	0.389177	0.807108
C67	C	0.000025	-0.247773	0.091399
C68	C	0.333359	0.085560	0.424733
C69	C	0.666692	0.418893	0.758066
C70	C	0.000032	-0.498955	0.158519
C71	C	0.333365	-0.165622	0.491852
C72	C	0.666698	0.167711	0.825186
C73	C	0.000042	-0.571404	0.159581
C74	C	0.333375	-0.238070	0.492914
C75	C	0.666708	0.095263	0.826248
C76	C	0.000029	-0.588364	0.032971
C77	C	0.333362	-0.255031	0.366304
C78	C	0.666696	0.078302	0.699637
C79	C	0.000026	-0.515917	0.031910
C80	C	0.333360	-0.182584	0.365244
C81	C	0.666693	0.150750	0.698577
C82	C	0.000024	-0.471217	0.094687
C83	C	0.333358	-0.137883	0.428020
C84	C	0.666691	0.195450	0.761353
N85	N	-0.188629	-0.820250	0.092444
N86	N	0.144705	-0.486916	0.425777
N87	N	0.478038	-0.153583	0.759110
N88	N	0.188707	-0.820189	0.092481
N89	N	0.522040	-0.486856	0.425815
N90	N	0.855374	-0.153522	0.759148
C91	C	0.226819	-0.862097	0.134581
C92	C	0.560152	-0.528764	0.467915
C93	C	0.893486	-0.195430	0.801248
C94	C	0.303047	-0.862102	0.134582
C95	C	0.636380	-0.528769	0.467915
C96	C	0.969713	-0.195435	0.801248
C97	C	0.341160	-0.820207	0.092469
C98	C	0.674493	-0.486874	0.425802
C99	C	1.007827	-0.153540	0.759136
C100	C	0.303039	-0.778291	0.050366
C101	C	0.636372	-0.444957	0.383699
C102	C	0.969706	-0.111624	0.717033
C103	C	0.226812	-0.778282	0.050372
C104	C	0.560146	-0.444948	0.383706
C105	C	0.893479	-0.111615	0.717039
C106	C	0.461905	-0.818621	0.029816
C107	C	0.795239	-0.485287	0.363150
C108	C	1.128572	-0.151954	0.696483
C109	C	0.538130	-0.818635	0.029809
C110	C	0.871464	-0.485301	0.363142
C111	C	1.204797	-0.151968	0.696475
C112	C	0.576267	-0.820231	0.092450
C113	C	0.909601	-0.486897	0.425784
C114	C	1.242934	-0.153564	0.759117
C115	C	0.538170	-0.821827	0.155101
C116	C	0.871503	-0.488494	0.488434
C117	C	1.204837	-0.155160	0.821767
C118	C	0.461944	-0.821818	0.155107
C119	C	0.795277	-0.488485	0.488440
C120	C	1.128610	-0.155151	0.821774
C121	C	0.423815	-0.820212	0.092458
C122	C	0.757148	-0.486878	0.425791
C123	C	1.090481	-0.153545	0.759124
C124	C	0.697034	-0.862146	0.134554
C125	C	1.030367	-0.528813	0.467888
C126	C	1.363701	-0.195479	0.801221
C127	C	0.773263	-0.862146	0.134556
C128	C	1.106597	-0.528813	0.467890
C129	C	1.439930	-0.195479	0.801223
C130	C	0.773254	-0.778339	0.050334
C131	C	1.106587	-0.445005	0.383667
C132	C	1.439921	-0.111672	0.717001
C133	C	0.697026	-0.778335	0.050339
C134	C	1.030360	-0.445001	0.383672
C135	C	1.363693	-0.111668	0.717006
C136	C	0.658921	-0.820242	0.092448
C137	C	0.992254	-0.486909	0.425781
C138	C	1.325588	-0.153575	0.759115
C139	C	0.000023	-0.825685	-0.034542
C140	C	0.333356	-0.492352	0.298792
C141	C	0.666689	-0.159018	0.632125
C142	C	0.000016	-0.824556	-0.111645
C143	C	0.333350	-0.491223	0.221688
C144	C	0.666683	-0.157889	0.555021
C145	C	0.000039	0.052776	0.086995
C146	C	0.333372	0.386110	0.420329
C147	C	0.666705	0.719443	0.753662
C148	C	0.000031	-0.024327	0.088128
C149	C	0.333364	0.309007	0.421462
C150	C	0.666697	0.642340	0.754795
C151	C	0.000014	-0.887324	-0.156343
C152	C	0.333347	-0.553991	0.176990
C153	C	0.666681	-0.220657	0.510323
C154	C	0.000026	-0.886263	-0.228790
C155	C	0.333359	-0.552930	0.104543
C156	C	0.666692	-0.219597	0.437876
C157	C	0.000025	-0.822431	-0.256536
C158	C	0.333358	-0.489098	0.076797
C159	C	0.666691	-0.155764	0.410131
C160	C	0.000031	-0.759655	-0.211828
C161	C	0.333364	-0.426321	0.121505
C162	C	0.666698	-0.092988	0.454839
C163	C	0.000027	-0.760717	-0.139383
C164	C	0.333360	-0.427384	0.193951
C165	C	0.666693	-0.094050	0.527284
C166	C	-0.042395	-0.772258	-0.364827
C167	C	0.290938	-0.438924	-0.031493
C168	C	0.624272	-0.105591	0.301840
C169	C	-0.042395	-0.771198	-0.437271
C170	C	0.290938	-0.437864	-0.103938
C171	C	0.624271	-0.104531	0.229396
C172	C	0.000041	-0.819151	-0.479982
C173	C	0.333374	-0.485818	-0.146648
C174	C	0.666708	-0.152485	0.186685
C175	C	0.042468	-0.868177	-0.450240
C176	C	0.375801	-0.534843	-0.116907
C177	C	0.709135	-0.201510	0.216426
C178	C	0.042464	-0.869239	-0.377795
C179	C	0.375797	-0.535906	-0.044461
C180	C	0.709130	-0.202572	0.288872
C181	C	0.000030	-0.821272	-0.335090
C182	C	0.333363	-0.487939	-0.001757
C183	C	0.666696	-0.154605	0.331577
C184	C	0.000052	-0.880774	-0.603236
C185	C	0.333386	-0.547440	-0.269902
C186	C	0.666719	-0.214107	0.063431
C187	C	0.000068	-0.879710	-0.675684
C188	C	0.333402	-0.546377	-0.342350
C189	C	0.666735	-0.213044	-0.009017
C190	C	0.000066	-0.753100	-0.658720
C191	C	0.333399	-0.419766	-0.325386
C192	C	0.666733	-0.086433	0.007947
C193	C	0.000057	-0.754165	-0.586273
C194	C	0.333391	-0.420832	-0.252940
C195	C	0.666724	-0.087498	0.080393
C196	C	0.000047	-0.818004	-0.558536
C197	C	0.333380	-0.484670	-0.225203
C198	C	0.666714	-0.151337	0.108131
C199	C	0.000057	-0.814748	0.219472
C200	C	0.333391	-0.481415	0.552806
C201	C	0.666724	-0.148082	0.886139
C202	C	0.000068	-0.815877	0.296576
C203	C	0.333402	-0.482544	0.629909
C204	C	0.666735	-0.149211	0.963242
H205	H	-0.076965	-0.266299	0.003506
H206	H	0.256368	0.067034	0.336840
H207	H	0.589701	0.400368	0.670173
H208	H	-0.076938	-0.731275	-0.461480
H209	H	0.256396	-0.397942	-0.128147
H210	H	0.589729	-0.064609	0.205187
H211	H	0.195798	-0.896220	0.168871
H212	H	0.529132	-0.562887	0.502205
H213	H	0.862465	-0.229553	0.835538
H214	H	0.000033	-0.015673	0.203076
H215	H	0.333366	0.317660	0.536410
H216	H	0.666699	0.650994	0.869743
H217	H	0.430928	-0.823116	0.206119
H218	H	0.764261	-0.489783	0.539452
H219	H	1.097594	-0.156450	0.872786
H220	H	0.000025	-0.177877	-0.024693
H221	H	0.333359	0.155456	0.308641
H222	H	0.666692	0.488789	0.641974
H223	H	0.000027	-0.937378	-0.265191
H224	H	0.333360	-0.604045	0.068143
H225	H	0.666694	-0.270712	0.401476
H226	H	0.569144	-0.817340	-0.021205
H227	H	0.902477	-0.484006	0.312128
H228	H	1.235810	-0.150673	0.645461
H229	H	0.000008	-0.939307	-0.133765
H230	H	0.333342	-0.605973	0.199569
H231	H	0.666675	-0.272640	0.532902
H232	H	0.000030	-0.147099	0.205004
H233	H	0.333363	0.186234	0.538337
H234	H	0.666696	0.519568	0.871670
H235	H	0.000047	-0.932755	-0.580651
H236	H	0.333380	-0.599422	-0.247318
H237	H	0.666714	-0.266088	0.086016
H238	H	0.000071	-0.930826	-0.712077
H239	H	0.333404	-0.597493	-0.378744
H240	H	0.666737	-0.264159	-0.045410
H241	H	0.000033	-0.046445	-0.026628
H242	H	0.333366	0.286888	0.306705
H243	H	0.666699	0.620222	0.640038
H244	H	0.000032	-0.707682	-0.234423
H245	H	0.333365	-0.374348	0.098910
H246	H	0.666698	-0.041015	0.432244
H247	H	0.077013	-0.242703	0.179504
H248	H	0.410347	0.090630	0.512837
H249	H	0.743680	0.423964	0.846170
H250	H	0.569219	-0.823127	0.206110
H251	H	0.902553	-0.489793	0.539443
H252	H	1.235886	-0.156460	0.872776
H253	H	0.334083	-0.896228	0.168868
H254	H	0.667417	-0.562894	0.502201
H255	H	1.000750	-0.229561	0.835534
H256	H	0.000028	-0.709602	-0.102988
H257	H	0.333361	-0.376269	0.230345
H258	H	0.666695	-0.042935	0.563678
H259	H	0.666007	-0.896266	0.168845
H260	H	0.999340	-0.562933	0.502179
H261	H	1.332674	-0.229600	0.835512
H262	H	0.077011	-0.909156	-0.353582
H263	H	0.410344	-0.575823	-0.020249
H264	H	0.743677	-0.242489	0.313084
H265	H	0.077013	-0.374135	0.181430
H266	H	0.410347	-0.040802	0.514764
H267	H	0.743680	0.292531	0.848097
H268	H	0.000031	-0.462558	0.209635
H269	H	0.333365	-0.129225	0.542969
H270	H	0.666698	0.204108	0.876302
H271	H	-0.076956	-0.733206	-0.330057
H272	H	0.256378	-0.399873	0.003277
H273	H	0.589711	-0.066539	0.336610
H274	H	0.804293	-0.896271	0.168844
H275	H	1.137626	-0.562938	0.502177
H276	H	1.470959	-0.229604	0.835510
H277	H	0.804285	-0.744223	0.016049
H278	H	1.137618	-0.410890	0.349382
H279	H	1.470952	-0.077556	0.682716
H280	H	0.077024	-0.907225	-0.485014
H281	H	0.410357	-0.573892	-0.151681
H282	H	0.743691	-0.240558	0.181653
H283	H	0.665995	-0.744212	0.016053
H284	H	0.999329	-0.410879	0.349386
H285	H	1.332662	-0.077545	0.682720
H286	H	0.000069	-0.701126	-0.681309
H287	H	0.333402	-0.367793	-0.347976
H288	H	0.666736	-0.034459	-0.014643
H289	H	0.000048	-0.593985	0.211562
H290	H	0.333381	-0.260652	0.544895
H291	H	0.666715	0.072682	0.878228
H292	H	0.430861	-0.817315	-0.021197
H293	H	0.764194	-0.483982	0.312137
H294	H	1.097527	-0.150648	0.645470
H295	H	0.334075	-0.744178	0.016079
H296	H	0.667409	-0.410845	0.349412
H297	H	1.000742	-0.077511	0.682746
H298	H	0.000027	-0.624764	-0.018138
H299	H	0.333360	-0.291431	0.315196
H300	H	0.666694	0.041903	0.648529
H301	H	0.195782	-0.744154	0.016088
H302	H	0.529116	-0.410821	0.349422
H303	H	0.862449	-0.077487	0.682755
H304	H	0.000022	-0.493334	-0.020068
H305	H	0.333355	-0.160001	0.313266
H306	H	0.666688	0.173333	0.646599
H307	H	-0.076969	-0.397722	0.005440
H308	H	0.256364	-0.064389	0.338773
H309	H	0.589698	0.268945	0.672107
H310	H	0.000055	-0.703052	-0.549879
H311	H	0.333388	-0.369719	-0.216545
H312	H	0.666722	-0.036385	0.116788
