data_functionalizedCrystal
_audit_creation_method	'MofGen! by Chris Wilmer'
_symmetry_space_group_name_H-M	'P1'
_symmetry_Int_Tables_number	1
_symmetry_cell_setting	triclinic
loop_
_symmetry_equiv_pos_as_xyz
  x,y,z
_cell_length_a	16.109318
_cell_length_b	10.489716
_cell_length_c	15.186229
_cell_angle_alpha	90.000291
_cell_angle_beta	90.000224
_cell_angle_gamma	83.998849
loop_
_atom_site_label
_atom_site_type_symbol
_atom_site_fract_x
_atom_site_fract_y
_atom_site_fract_z
O1	O	1.104123	0.164054	-0.073147
O2	O	1.604123	0.664054	0.426853
O3	O	0.862188	0.184434	-0.073164
O4	O	1.362188	0.684434	0.426836
O5	O	0.988671	-0.011435	-0.073159
O6	O	1.488671	0.488565	0.426841
O7	O	0.977640	0.359923	-0.073153
O8	O	1.477640	0.859923	0.426847
O9	O	0.988663	-0.011438	0.073299
O10	O	1.488663	0.488562	0.573299
O11	O	0.862179	0.184431	0.073293
O12	O	1.362179	0.684431	0.573293
O13	O	1.104115	0.164051	0.073310
O14	O	1.604115	0.664051	0.573310
Zn15	Zn	0.983146	0.174241	0.096555
Zn16	Zn	1.483146	0.674241	0.596555
Zn17	Zn	0.983157	0.174245	-0.096409
Zn18	Zn	1.483157	0.674245	0.403591
O19	O	0.977631	0.359921	0.073304
O20	O	1.477631	0.859921	0.573304
C21	C	0.831204	0.183603	0.000062
C22	C	1.331204	0.683603	0.500062
C23	C	0.738894	0.181117	0.000055
C24	C	1.238894	0.681117	0.500055
C25	C	0.987838	-0.058957	0.000067
C26	C	1.487838	0.441043	0.500067
C27	C	0.985358	-0.200552	0.000059
C28	C	1.485358	0.299448	0.500059
C29	C	0.439776	0.173087	-0.079763
C30	C	0.939776	0.673087	0.420237
C31	C	0.526512	0.175415	-0.079768
C32	C	1.026512	0.675415	0.420232
C33	C	0.526521	0.175394	0.079907
C34	C	1.026521	0.675394	0.579907
C35	C	0.439788	0.173057	0.079912
C36	C	0.939788	0.673057	0.579912
C37	C	0.396417	0.171910	0.000074
C38	C	0.896417	0.671910	0.500074
C39	C	0.569886	0.176575	0.000064
C40	C	1.069886	0.676575	0.500064
C41	C	0.663928	0.179099	0.000059
C42	C	1.163928	0.679099	0.500059
C43	C	0.302369	0.169384	0.000079
C44	C	0.802369	0.669384	0.500079
C45	C	1.062922	-0.299344	0.000073
C46	C	1.562922	0.200656	0.500073
C47	C	1.021940	-0.376112	-0.072139
C48	C	1.521940	0.123888	0.427861
C49	C	1.021914	-0.376079	0.072256
C50	C	1.521914	0.123921	0.572256
C51	C	0.944409	-0.275456	-0.072212
C52	C	1.444409	0.224544	0.427788
C53	C	0.944394	-0.275417	0.072248
C54	C	1.444394	0.224583	0.572248
C55	C	0.903355	-0.352136	0.000019
C56	C	1.403355	0.147864	0.500019
C57	C	1.135099	0.164882	0.000082
C58	C	1.635099	0.664882	0.500082
C59	C	1.227409	0.167369	0.000083
C60	C	1.727409	0.667369	0.500083
C61	C	0.978464	0.407442	0.000076
C62	C	1.478464	0.907442	0.500076
C63	C	0.980944	0.549038	0.000079
C64	C	1.480944	1.049038	0.500079
N65	N	0.983144	0.174238	0.228247
N66	N	1.483144	0.674238	0.728247
N67	N	0.983165	0.174238	-0.228102
N68	N	1.483165	0.674238	0.271898
C69	C	1.039170	0.087536	0.453973
C70	C	1.539170	0.587536	0.953973
C71	C	1.039173	0.087533	0.546162
C72	C	1.539173	0.587533	1.046162
C73	C	0.927133	0.260944	0.546167
C74	C	1.427133	0.760944	1.046167
C75	C	0.927127	0.260940	0.453979
C76	C	1.427127	0.760940	0.953979
C77	C	0.983150	0.174237	0.407884
C78	C	1.483150	0.674237	0.907884
C79	C	0.983159	0.174238	0.592262
C80	C	1.483159	0.674238	1.092262
C81	C	0.983161	0.174236	0.692218
C82	C	1.483161	0.674236	1.192218
C83	C	0.983147	0.174238	0.307922
C84	C	1.483147	0.674238	0.807922
H85	H	0.404466	0.172151	-0.144772
H86	H	0.904466	0.672151	0.355228
N87	N	0.818662	-0.381596	-0.000021
N88	N	1.318662	0.118404	0.499979
N89	N	0.792133	-0.444401	0.061993
N90	N	1.292133	0.055599	0.561993
H91	H	0.732320	-0.465211	0.061962
H92	H	1.232320	0.034789	0.561962
N93	N	1.096395	-0.001022	0.593249
N94	N	1.596395	0.498978	1.093249
N95	N	1.148239	0.039461	0.644698
N96	N	1.648239	0.539461	1.144698
H97	H	1.188650	-0.023089	0.677956
H98	H	1.688650	0.476911	1.177956
H99	H	0.911676	-0.231428	0.133297
H100	H	1.411676	0.268572	0.633297
H101	H	0.911687	-0.231679	-0.133329
H102	H	1.411687	0.268321	0.366671
H103	H	1.054669	-0.420025	0.133304
H104	H	1.554669	0.079975	0.633304
N105	N	1.096349	-0.001110	0.406901
N106	N	1.596349	0.498890	0.906901
N107	N	1.146328	-0.078568	0.448068
N108	N	1.646328	0.421432	0.948068
H109	H	1.186693	-0.141209	0.414827
H110	H	1.686693	0.358791	0.914827
H111	H	0.881521	0.331537	0.583706
H112	H	1.381521	0.831537	1.083706
N113	N	0.570800	0.176590	-0.161323
N114	N	1.070800	0.676590	0.338677
N115	N	0.568232	0.086477	-0.214779
N116	N	1.068232	0.586477	0.285221
H117	H	0.599509	0.087301	-0.272382
H118	H	1.099509	0.587301	0.227618
N119	N	0.869889	0.349508	0.406907
N120	N	1.369889	0.849508	0.906907
N121	N	0.819876	0.426918	0.448071
N122	N	1.319876	0.926918	0.948071
H123	H	0.779451	0.489464	0.414828
H124	H	1.279451	0.989464	0.914828
H125	H	0.404484	0.172098	0.144929
H126	H	0.904484	0.672098	0.644929
N127	N	0.570838	0.176565	0.161448
N128	N	1.070838	0.676565	0.661448
N129	N	0.648277	0.178652	0.161434
N130	N	1.148277	0.678652	0.661434
H131	H	0.679576	0.179480	0.219024
H132	H	1.179576	0.679480	0.719024
N133	N	1.147560	-0.269618	-0.000017
N134	N	1.647560	0.230382	0.499983
N135	N	1.195058	-0.306485	-0.062115
N136	N	1.695058	0.193515	0.437885
H137	H	1.254833	-0.285491	-0.062182
H138	H	1.754833	0.214509	0.437818
H139	H	1.054686	-0.420078	-0.133185
H140	H	1.554686	0.079922	0.366815
