data_functionalizedCrystal
_audit_creation_method	'MofGen! by Chris Wilmer'
_symmetry_space_group_name_H-M	'P1'
_symmetry_Int_Tables_number	1
_symmetry_cell_setting	triclinic
loop_
_symmetry_equiv_pos_as_xyz
  x,y,z
_cell_length_a	11.792241
_cell_length_b	17.699083
_cell_length_c	16.176319
_cell_angle_alpha	89.995661
_cell_angle_beta	90.001784
_cell_angle_gamma	96.261785
loop_
_atom_site_label
_atom_site_type_symbol
_atom_site_fract_x
_atom_site_fract_y
_atom_site_fract_z
O1	O	1.505668	-0.103735	0.068668
O2	O	2.005668	0.396265	0.568668
O3	O	1.175199	-0.114426	0.068688
O4	O	1.675199	0.385574	0.568688
O5	O	1.349770	0.001059	0.068670
O6	O	1.849770	0.501059	0.568670
O7	O	1.331097	-0.219220	0.068686
O8	O	1.831097	0.280780	0.568686
O9	O	1.349750	0.001060	-0.068823
O10	O	1.849750	0.501060	0.431177
O11	O	1.175178	-0.114425	-0.068806
O12	O	1.675178	0.385575	0.431194
O13	O	1.505648	-0.103734	-0.068825
O14	O	2.005648	0.396266	0.431175
Cu15	Cu	1.340411	-0.109080	-0.081370
Cu16	Cu	1.840411	0.390920	0.418630
Cu17	Cu	1.340435	-0.109080	0.081232
Cu18	Cu	1.840435	0.390920	0.581232
O19	O	1.331076	-0.219219	-0.068808
O20	O	1.831076	0.280781	0.431192
C21	C	1.132906	-0.113754	-0.000057
C22	C	1.632906	0.386246	0.499943
C23	C	1.006916	-0.111744	-0.000049
C24	C	1.506916	0.388256	0.499951
C25	C	1.349091	0.029260	-0.000077
C26	C	1.849091	0.529260	0.499923
C27	C	1.347083	0.113289	-0.000077
C28	C	1.847083	0.613289	0.499923
C29	C	1.331756	-0.247420	-0.000059
C30	C	1.831756	0.252580	0.499941
C31	C	1.333763	-0.331449	-0.000053
C32	C	1.833763	0.168551	0.499947
C33	C	0.776248	-0.108048	-0.000073
C34	C	1.276248	0.391952	0.499927
C35	C	0.904609	-0.110101	-0.000060
C36	C	1.404609	0.389899	0.499940
C37	C	1.547941	-0.104406	-0.000079
C38	C	2.047941	0.395594	0.499921
C39	C	1.673930	-0.106416	-0.000081
C40	C	2.173930	0.393584	0.499919
N41	N	1.340402	-0.109079	-0.195735
N42	N	1.840402	0.390921	0.304265
C43	C	1.449553	0.161364	-0.000084
C44	C	1.949553	0.661364	0.499916
C45	C	1.447660	0.240317	-0.000077
C46	C	1.947660	0.740317	0.499923
C47	C	1.343297	0.271194	-0.000068
C48	C	1.843297	0.771194	0.499932
C49	C	1.240819	0.223113	-0.000058
C50	C	1.740819	0.723113	0.499942
C51	C	1.242713	0.144161	-0.000060
C52	C	1.742713	0.644161	0.499940
C53	C	1.233178	0.541517	-0.000051
C54	C	1.733178	1.041517	0.499949
C55	C	1.231292	0.620475	-0.000052
C56	C	1.731292	1.120475	0.499948
C57	C	1.438126	0.637673	-0.000068
C58	C	1.938126	1.137673	0.499932
C59	C	1.440020	0.558721	-0.000070
C60	C	1.940020	1.058721	0.499930
C61	C	1.337543	0.510647	-0.000055
C62	C	1.837543	1.010647	0.499945
C63	C	1.339596	0.425037	-0.000062
C64	C	1.839596	0.925037	0.499938
C65	C	1.341242	0.356803	-0.000067
C66	C	1.841242	0.856803	0.499933
C67	C	1.409104	-0.155294	-0.238996
C68	C	1.909104	0.344706	0.261004
C69	C	1.409116	-0.155291	-0.325543
C70	C	1.909116	0.344709	0.174457
C71	C	1.340420	-0.109077	-0.368827
C72	C	1.840420	0.390923	0.131173
C73	C	1.271715	-0.062857	-0.325560
C74	C	1.771715	0.437143	0.174440
C75	C	1.271710	-0.062856	-0.239014
C76	C	1.771710	0.437144	0.260986
C77	C	1.271736	-0.062858	-0.674588
C78	C	1.771736	0.437142	-0.174588
C79	C	1.271744	-0.062864	-0.761140
C80	C	1.771744	0.437136	-0.261140
C81	C	1.409143	-0.155293	-0.761117
C82	C	1.909143	0.344707	-0.261117
C83	C	1.409137	-0.155292	-0.674572
C84	C	1.909137	0.344708	-0.174572
C85	C	1.340438	-0.109069	-0.631312
C86	C	1.840438	0.390931	-0.131312
C87	C	1.340427	-0.109072	-0.537468
C88	C	1.840427	0.390928	-0.037468
C89	C	1.340424	-0.109078	-0.462670
C90	C	1.840424	0.390922	0.037330
N91	N	1.340453	-0.109075	0.195597
N92	N	1.840453	0.390925	0.695597
H93	H	1.534538	0.136230	-0.000096
H94	H	2.034538	0.636230	0.499904
C95	C	1.116479	0.654437	-0.000036
C96	C	1.616479	1.154437	0.499964
N97	N	1.030006	0.680018	-0.000023
N98	N	1.530006	1.180018	0.499977
C99	C	1.484678	-0.206133	-0.191392
C100	C	1.984678	0.293867	0.308608
N101	N	1.541607	-0.244425	-0.155538
N102	N	2.041607	0.255575	0.344462
C103	C	1.129988	0.091279	-0.000054
C104	C	1.629988	0.591279	0.499946
N105	N	1.045080	0.051448	-0.000047
N106	N	1.545080	0.551448	0.499953
H107	H	1.465062	-0.192922	-0.360763
H108	H	1.965062	0.307078	0.139237
C109	C	1.484712	-0.206129	-0.626964
C110	C	1.984712	0.293871	-0.126964
N111	N	1.541642	-0.244417	-0.591107
N112	N	2.041642	0.255583	-0.091107
C113	C	1.120450	0.488645	-0.000031
C114	C	1.620450	0.988645	0.499969
N115	N	1.035538	0.448820	-0.000014
N116	N	1.535538	0.948820	0.499986
C117	C	1.484725	-0.206132	-0.808711
C118	C	1.984725	0.293868	-0.308711
N119	N	1.541651	-0.244424	-0.844557
N120	N	2.041651	0.255576	-0.344557
H121	H	1.215801	-0.025228	-0.796379
H122	H	1.715801	0.474772	-0.296379
H123	H	1.215797	-0.025220	-0.639376
H124	H	1.715797	0.474780	-0.139376
H125	H	1.525003	0.533586	-0.000081
H126	H	2.025003	1.033586	0.499919
C127	C	1.560385	0.293197	-0.000098
C128	C	2.060385	0.793197	0.499902
N129	N	1.645295	0.333025	-0.000118
N130	N	2.145295	0.833025	0.499882
C131	C	1.196146	-0.012022	-0.373176
C132	C	1.696146	0.487978	0.126824
N133	N	1.139220	0.026264	-0.409039
N134	N	1.639220	0.526264	0.090961
C135	C	1.196130	-0.012018	-0.191427
C136	C	1.696130	0.487982	0.308573
N137	N	1.139202	0.026276	-0.155586
N138	N	1.639202	0.526276	0.344414
H139	H	1.155844	0.248259	-0.000046
H140	H	1.655844	0.748259	0.499954
H141	H	1.521567	0.676825	-0.000075
H142	H	2.021567	1.176825	0.499925
