data_functionalizedCrystal
_audit_creation_method	'MofGen! by Chris Wilmer'
_symmetry_space_group_name_H-M	'P1'
_symmetry_Int_Tables_number	1
_symmetry_cell_setting	triclinic
loop_
_symmetry_equiv_pos_as_xyz
  x,y,z
_cell_length_a	16.120530
_cell_length_b	12.645330
_cell_length_c	16.120297
_cell_angle_alpha	87.125115
_cell_angle_beta	89.871860
_cell_angle_gamma	87.108294
loop_
_atom_site_label
_atom_site_type_symbol
_atom_site_fract_x
_atom_site_fract_y
_atom_site_fract_z
Zn1	Zn	1.247519	-0.537082	0.534581
Zn2	Zn	1.254495	-0.705845	0.395529
Zn3	Zn	1.115507	-0.519169	0.388499
Zn4	Zn	1.108451	-0.704868	0.527498
O5	O	1.181493	-0.616741	0.461527
O6	O	1.364812	-0.567375	0.522042
O7	O	1.241930	-0.673993	0.278231
O8	O	1.133052	-0.373201	0.407899
O9	O	1.369937	-0.691364	0.419881
O10	O	1.230041	-0.386362	0.515225
O11	O	1.139816	-0.536843	0.273066
O12	O	0.998204	-0.535896	0.401031
O13	O	1.121027	-0.689700	0.644804
O14	O	0.993020	-0.672329	0.503153
O15	O	1.223200	-0.566428	0.650008
O16	O	1.235089	-0.854059	0.413013
O17	O	1.127791	-0.853342	0.509970
C18	C	0.965439	-0.602064	0.450561
C19	C	0.873009	-0.595812	0.445890
C20	C	1.181453	-0.892167	0.461505
C21	C	1.181510	-1.010002	0.461528
C22	C	0.703778	-0.584372	0.437368
C23	C	0.660046	-0.649192	0.485747
C24	C	0.565880	-0.642827	0.481005
C25	C	0.797952	-0.590736	0.442108
C26	C	1.248914	-1.177958	0.400396
C27	C	1.249115	-1.055422	0.400564
C28	C	1.200830	-1.061367	0.550384
C29	C	1.201356	-1.183979	0.550068
C30	C	1.094716	-1.169992	0.434665
C31	C	1.095237	-1.047295	0.432721
C32	C	1.398391	-0.631476	0.472536
C33	C	1.490820	-0.637756	0.477228
C34	C	1.170548	-0.629953	0.678422
C35	C	1.165884	-0.635584	0.770849
C36	C	1.181556	-0.340242	0.461568
C37	C	1.181582	-0.222415	0.461586
C38	C	1.192444	-0.603507	0.245479
C39	C	1.197269	-0.597589	0.153060
C40	C	1.157338	-0.645837	0.940074
C41	C	1.205813	-0.587338	0.983840
C42	C	1.201058	-0.593044	1.078003
C43	C	1.162092	-0.640133	0.845903
H44	H	0.693327	-0.709464	0.530727
O45	O	1.097637	-0.717854	0.984106
H46	H	1.103232	-0.711091	1.052226
O47	O	0.659705	-0.504565	0.377763
H48	H	0.591589	-0.512053	0.383332
O49	O	1.028263	-1.207920	0.493546
H50	H	0.981261	-1.248737	0.458414
O51	O	1.233804	-1.009055	0.313476
H52	H	1.226190	-1.074154	0.270859
H53	H	1.250884	-0.532970	0.950591
O54	O	1.234341	-1.211376	0.313219
H55	H	1.178889	-1.259912	0.312546
O56	O	1.333813	-1.225657	0.424207
H57	H	1.328262	-1.280889	0.479434
H58	H	1.313544	-1.031346	0.418724
O59	O	1.285288	-1.229085	0.579577
H60	H	1.325120	-1.163290	0.593935
O61	O	1.138909	-1.223312	0.612841
H62	H	1.108473	-1.154755	0.643294
H63	H	1.153089	-1.032173	0.597388
H64	H	1.076289	-1.195686	0.370767
O65	O	1.283816	-1.028176	0.580414
H66	H	1.282475	-0.940571	0.583108
O67	O	1.075819	-1.002036	0.346078
H68	H	1.127390	-0.953177	0.323619
H69	H	1.042724	-1.015933	0.473662
