data_functionalizedCrystal
_audit_creation_method	'MofGen! by Chris Wilmer'
_symmetry_space_group_name_H-M	'P1'
_symmetry_Int_Tables_number	1
_symmetry_cell_setting	triclinic
loop_
_symmetry_equiv_pos_as_xyz
  x,y,z
_cell_length_a	12.759401
_cell_length_b	16.625546
_cell_length_c	12.759393
_cell_angle_alpha	89.964325
_cell_angle_beta	89.979527
_cell_angle_gamma	90.023993
loop_
_atom_site_label
_atom_site_type_symbol
_atom_site_fract_x
_atom_site_fract_y
_atom_site_fract_z
Zn1	Zn	1.606205	-0.320925	-0.593986
Zn2	Zn	1.606074	-0.455781	-0.418292
Zn3	Zn	1.430505	-0.320970	-0.418322
Zn4	Zn	1.430472	-0.455723	-0.593930
O5	O	1.518314	-0.388350	-0.506132
O6	O	1.753208	-0.338820	-0.570692
O7	O	1.582743	-0.437941	-0.271275
O8	O	1.453881	-0.208131	-0.441660
O9	O	1.753112	-0.437898	-0.441610
O10	O	1.582967	-0.208099	-0.570720
O11	O	1.453754	-0.338895	-0.271297
O12	O	1.283480	-0.338839	-0.441605
O13	O	1.453824	-0.437799	-0.740958
O14	O	1.283455	-0.437842	-0.570623
O15	O	1.582934	-0.338764	-0.741000
O16	O	1.582711	-0.568606	-0.441555
O17	O	1.453697	-0.568563	-0.570595
C18	C	1.245346	-0.388340	-0.506112
C19	C	1.128570	-0.388355	-0.506128
C20	C	1.073723	-0.439984	-0.573202
C21	C	0.963998	-0.439988	-0.573223
C22	C	0.963979	-0.336730	-0.439086
C23	C	1.073701	-0.336723	-0.439071
C24	C	1.518214	-0.597841	-0.506088
C25	C	1.518268	-0.687462	-0.506105
C26	C	1.518451	-1.015637	-0.506214
C27	C	1.518397	-0.924329	-0.506187
C28	C	1.518359	-0.851552	-0.506159
C29	C	1.518306	-0.760238	-0.506132
C30	C	1.792347	-0.388360	-0.506154
C31	C	1.909124	-0.388365	-0.506163
C32	C	1.518390	-0.388270	-0.780166
C33	C	1.518423	-0.388237	-0.896943
C34	C	1.518442	-0.178041	-0.506200
C35	C	1.518497	-0.088420	-0.506228
C36	C	1.585677	-0.336630	-1.061559
C37	C	1.585657	-0.336661	-0.951835
C38	C	1.451212	-0.439790	-0.951780
C39	C	1.451238	-0.439762	-1.061502
C40	C	1.518298	-0.388371	-0.233165
C41	C	1.518469	-0.388177	-0.116389
H42	H	0.919347	-0.482028	-0.627843
H43	H	1.396473	-0.481787	-0.907078
H44	H	1.396508	-0.481742	-1.106146
H45	H	1.118394	-0.482024	-0.627806
C46	C	1.658616	-0.280501	-1.121017
C47	C	1.635803	-0.200731	-1.094331
C48	C	1.702986	-0.149003	-1.149069
H49	H	1.649075	-0.287754	-1.194233
H50	H	1.729212	-0.292263	-1.103015
H51	H	1.565224	-0.188972	-1.112340
H52	H	1.645351	-0.193452	-1.021125
H53	H	1.773582	-0.160766	-1.131067
H54	H	1.693439	-0.156263	-1.222282
H55	H	1.687523	-0.094874	-1.130963
C56	C	1.133068	-0.280635	-0.366127
C57	C	1.061534	-0.235439	-0.307379
C58	C	1.116185	-0.183771	-0.240169
H59	H	1.175909	-0.245468	-0.406280
H60	H	1.175813	-0.311418	-0.320217
H61	H	1.018808	-0.204659	-0.353283
H62	H	1.018691	-0.270586	-0.267205
H63	H	1.158930	-0.214554	-0.194259
H64	H	1.159025	-0.148609	-0.280330
H65	H	1.067658	-0.153105	-0.200294
C66	C	1.658568	-0.280768	-0.892116
C67	C	1.644175	-0.291841	-0.784278
C68	C	1.711329	-0.240367	-0.729233
H69	H	1.643278	-0.226559	-0.909997
H70	H	1.729184	-0.292561	-0.910037
H71	H	1.573575	-0.280042	-0.766364
H72	H	1.659472	-0.346039	-0.766366
H73	H	1.781944	-0.252160	-0.747153
H74	H	1.696033	-0.186161	-0.747122
H75	H	1.701579	-0.247878	-0.656059
C76	C	0.904214	-0.280764	-0.366323
C77	C	0.796384	-0.291833	-0.380671
C78	C	0.741300	-0.240298	-0.313648
H79	H	0.922102	-0.226570	-0.381762
H80	H	0.922095	-0.292504	-0.295678
H81	H	0.778511	-0.280088	-0.451300
H82	H	0.778465	-0.346017	-0.365224
H83	H	0.759180	-0.252038	-0.243003
H84	H	0.759196	-0.186107	-0.329093
H85	H	0.668132	-0.247807	-0.323367
