data_functionalizedCrystal
_audit_creation_method	'MofGen! by Chris Wilmer'
_symmetry_space_group_name_H-M	'P1'
_symmetry_Int_Tables_number	1
_symmetry_cell_setting	triclinic
loop_
_symmetry_equiv_pos_as_xyz
  x,y,z
_cell_length_a	18.760490
_cell_length_b	23.196402
_cell_length_c	23.196401
_cell_angle_alpha	59.997774
_cell_angle_beta	90.024169
_cell_angle_gamma	60.028764
loop_
_atom_site_label
_atom_site_type_symbol
_atom_site_fract_x
_atom_site_fract_y
_atom_site_fract_z
Zr1	Zr	0.686602	0.631219	-0.075572
O2	O	0.572803	0.751458	-0.167637
O3	O	0.721477	0.510965	-0.047353
O4	O	0.721464	0.631247	-0.167628
O5	O	0.572837	0.631160	0.047517
O6	O	0.838743	0.631286	-0.167617
O7	O	0.572815	0.631176	-0.047362
O8	O	0.838765	0.416124	0.047534
O9	O	0.572815	0.846322	-0.167634
O10	O	0.823887	0.560462	-0.035305
O11	O	0.736379	0.560421	0.035493
O12	O	0.736365	0.702037	-0.106115
O13	O	0.648857	0.701996	-0.035316
Zr14	Zr	0.873682	0.631256	0.075766
Zr15	Zr	0.873647	0.631282	-0.075555
Zr16	Zr	0.686636	0.631193	0.075748
Zr17	Zr	0.686621	0.782516	-0.075567
Zr18	Zr	0.873663	0.479959	0.075760
O19	O	0.838807	0.751510	0.047546
O20	O	0.838758	0.751547	-0.167613
O21	O	0.572852	0.751421	0.047521
O22	O	0.987481	0.511017	0.167831
O23	O	0.987432	0.511054	-0.047328
O24	O	0.721526	0.510928	0.167806
O25	O	0.987447	0.631315	-0.047323
O26	O	0.838819	0.631228	0.167821
O27	O	0.721541	0.631189	0.167810
O28	O	0.987468	0.631299	0.047556
O29	O	0.721491	0.846372	-0.167620
O30	O	0.838793	0.416103	0.167813
O31	O	0.987469	0.416153	0.167827
O32	O	0.987442	0.416174	0.047547
O33	O	0.572842	0.846302	-0.047354
O34	O	0.721519	0.846351	-0.047340
O35	O	0.823919	0.560438	0.106309
O36	O	0.911427	0.560479	0.035510
O37	O	0.823904	0.702054	-0.035300
O38	O	0.736397	0.702013	0.035499
C39	C	0.780118	0.441988	0.000090
C40	C	0.780110	0.377758	0.000087
C41	C	0.844733	0.295342	0.052358
C42	C	0.844739	0.234982	0.052365
C43	C	0.780129	0.257042	0.000089
C44	C	0.715495	0.339472	-0.052186
C45	C	0.715486	0.399830	-0.052187
C46	C	0.759997	0.201459	-0.063710
C47	C	0.760012	0.141100	-0.063709
C48	C	0.780152	0.070880	0.000092
C49	C	0.800296	0.061018	0.063897
C50	C	0.800287	0.121375	0.063896
C51	C	0.780131	0.191600	0.000085
C52	C	0.844785	-0.076989	0.052374
C53	C	0.844785	-0.137348	0.052381
C54	C	0.715545	-0.032855	-0.052175
C55	C	0.715541	0.027502	-0.052176
C56	C	0.780166	0.005430	0.000098
C57	C	0.546176	0.631159	0.000075
C58	C	0.466770	0.631133	0.000067
C59	C	0.130771	0.631330	-0.052152
C60	C	0.130911	0.631312	0.052392
C61	C	0.205557	0.631271	0.052381
C62	C	0.242814	0.631259	0.000103
C63	C	0.205426	0.631287	-0.052164
C64	C	0.242957	0.631235	0.104650
C65	C	0.317608	0.631194	0.104641
C66	C	0.354863	0.631187	0.052360
C67	C	0.317469	0.631216	0.000091
C68	C	0.354727	0.631204	-0.052187
C69	C	0.317330	0.631238	-0.104460
C70	C	0.242681	0.631280	-0.104445
C71	C	0.429513	0.631145	0.052345
C72	C	0.429381	0.631161	-0.052199
C73	C	1.014108	0.631316	0.000119
C74	C	1.093513	0.631342	0.000126
C75	C	0.780099	0.631270	-0.189183
C76	C	0.780084	0.631281	-0.253422
C77	C	0.780166	0.820487	0.000104
C78	C	0.780174	0.884717	0.000106
C79	C	0.844696	0.631304	-0.283579
C80	C	0.844715	0.631288	-0.343926
C81	C	0.780109	0.631265	-0.374121
C82	C	0.715492	0.631237	-0.343955
C83	C	0.715479	0.631245	-0.283605
C84	C	0.701267	0.678731	-0.493509
C85	C	0.701279	0.678728	-0.553860
C86	C	0.780148	0.631236	-0.560258
C87	C	0.859009	0.583757	-0.506302
C88	C	0.858997	0.583765	-0.445953
C89	C	0.780116	0.631255	-0.439560
C90	C	0.844786	0.631240	-0.655849
C91	C	0.844806	0.631218	-0.716194
C92	C	0.715575	0.631176	-0.716226
C93	C	0.715562	0.631189	-0.655877
C94	C	0.780167	0.631225	-0.625695
C95	C	0.780185	0.631205	0.189376
C96	C	0.780200	0.631194	0.253616
C97	C	1.014084	0.442066	0.000112
C98	C	1.093482	0.377863	0.000117
C99	C	0.780162	0.441955	0.189369
C100	C	0.780168	0.377714	0.253606
C101	C	1.014127	0.442033	0.189391
C102	C	1.093540	0.377819	0.253635
C103	C	0.546157	0.820442	-0.189197
C104	C	0.466744	0.884656	-0.253442
C105	C	0.546200	0.820409	0.000082
C106	C	0.466802	0.884612	0.000077
C107	C	0.780122	0.820520	-0.189175
C108	C	0.780116	0.884761	-0.253413
C109	C	1.085073	0.347704	-0.036852
C110	C	1.159668	0.287386	-0.036862
C111	C	1.242672	0.257225	0.000102
C112	C	1.251079	0.287391	0.037072
C113	C	1.176484	0.347711	0.037077
C114	C	0.825866	0.347555	0.320744
C115	C	0.825869	0.287203	0.381107
C116	C	0.780179	0.257006	0.374331
C117	C	0.734475	0.287172	0.307187
C118	C	0.734468	0.347527	0.246825
C119	C	1.176518	0.347685	0.246849
C120	C	1.251142	0.287358	0.307208
C121	C	1.242785	0.257161	0.374352
C122	C	1.159797	0.287301	0.381137
C123	C	1.085176	0.347632	0.320779
C124	C	0.383765	0.914797	-0.246656
C125	C	0.309142	0.975143	-0.307015
C126	C	0.317499	1.005343	-0.374159
C127	C	0.400486	0.975199	-0.380944
C128	C	0.475108	0.914858	-0.320586
C129	C	0.475211	0.914778	0.037039
C130	C	0.400615	0.975112	0.037032
C131	C	0.317612	1.005275	0.000066
C132	C	0.309205	0.975107	-0.036901
C133	C	0.383799	0.914778	-0.036897
C134	C	0.825815	0.914938	-0.246614
C135	C	0.825826	0.975291	-0.306966
C136	C	0.780132	1.005469	-0.374116
C137	C	0.734431	0.975286	-0.380913
C138	C	0.734426	0.914930	-0.320561
H139	H	0.816686	0.113342	0.115848
C140	C	0.374560	0.881588	-0.172803
H141	H	0.430881	0.841329	-0.137821
H142	H	0.343572	0.924903	-0.167510
H143	H	0.343552	0.858036	-0.167514
H144	H	0.459961	0.631111	0.094908
C145	C	0.684163	1.008495	-0.454779
H146	H	0.690708	1.048770	-0.489743
H147	H	0.706704	0.965191	-0.460088
H148	H	0.624052	1.032033	-0.460081
C149	C	0.217867	1.008283	-0.299539
H150	H	0.223584	0.981642	-0.250904
H151	H	0.186859	1.065251	-0.321537
H152	H	0.186854	0.998385	-0.321553
C153	C	0.876154	0.254025	0.454957
H154	H	0.903375	0.280646	0.450342
H155	H	0.836736	0.263903	0.480042
H156	H	0.919390	0.197055	0.480042
C157	C	0.684141	0.881751	-0.328048
H158	H	0.656923	0.908379	-0.376685
H159	H	0.723557	0.824784	-0.306041
H160	H	0.640903	0.891640	-0.306050
H161	H	0.348051	0.631166	0.147203
H162	H	0.407280	0.999796	-0.435620
H163	H	0.100577	0.631316	0.094958
H164	H	0.743613	0.149136	-0.115662
H165	H	0.897354	0.277363	0.094924
C166	C	0.358318	0.631225	-0.161962
H167	H	0.408131	0.631197	-0.154480
H168	H	0.375249	0.583961	-0.159797
H169	H	0.316863	0.678522	-0.207087
H170	H	0.863039	0.999860	-0.301418
H171	H	0.459709	0.631155	-0.094773
C172	C	0.566382	0.881677	-0.328056
H173	H	0.609634	0.841411	-0.282496
H174	H	0.572878	0.858153	-0.353140
H175	H	0.572947	0.924998	-0.353134
H176	H	1.153006	0.262706	0.435814
H177	H	0.542790	0.890224	0.067146
C178	C	0.737842	0.278699	-0.133893
H179	H	0.740713	0.313238	-0.124758
H180	H	0.778524	0.263791	-0.156724
H181	H	0.680606	0.306730	-0.163492
H182	H	0.100319	0.631362	-0.094713
C183	C	0.915827	0.144315	0.109864
H184	H	0.954315	0.139815	0.140993
H185	H	0.889298	0.118577	0.135681
H186	H	0.947737	0.118622	0.088386
C187	C	0.235410	1.071706	-0.440547
H188	H	0.184797	1.085319	-0.426882
H189	H	0.235389	1.118805	-0.467860
H190	H	0.235393	1.051920	-0.467848
C191	C	0.822445	-0.016215	0.134082
H192	H	0.819555	-0.050746	0.124946
H193	H	0.879675	-0.044248	0.163683
H194	H	0.781754	-0.001297	0.156908
C195	C	0.217901	1.008283	-0.077555
H196	H	0.223567	0.981684	-0.099575
H197	H	0.186912	0.998376	-0.045648
H198	H	0.186898	1.065259	-0.112534
H199	H	0.897407	-0.204458	0.094951
C200	C	0.644471	-0.008578	-0.109677
H201	H	0.605979	0.049155	-0.140807
H202	H	0.671006	-0.029934	-0.135493
H203	H	0.612563	-0.029968	-0.088201
H204	H	0.212623	0.631239	0.147217
C205	C	1.185740	0.380882	0.077745
H206	H	1.129432	0.421132	0.072454
H207	H	1.216754	0.337554	0.126370
H208	H	1.216739	0.404441	0.059487
C209	C	0.409879	1.008278	0.077705
H210	H	0.469997	0.981660	0.099730
H211	H	0.382687	1.065249	0.045810
H212	H	0.382679	0.998368	0.112681
C213	C	0.614537	0.730956	-0.613205
H214	H	0.567563	0.759232	-0.600748
H215	H	0.615439	0.769156	-0.655849
H216	H	0.607088	0.696696	-0.619622
H217	H	0.897302	0.631331	-0.259005
C218	C	0.201548	0.631313	-0.161935
H219	H	0.151759	0.631330	-0.154435
H220	H	0.184556	0.678586	-0.207062
H221	H	0.242953	0.584026	-0.159764
H222	H	0.897332	0.631306	-0.368484
C223	C	0.684207	0.380692	0.172976
H224	H	0.690736	0.420966	0.137991
H225	H	0.706766	0.337365	0.167695
H226	H	0.624098	0.404218	0.167678
H227	H	0.780192	0.207861	0.423488
C228	C	1.324721	0.190868	0.000100
H229	H	1.375363	0.177224	0.027405
H230	H	1.324712	0.143785	0.019883
H231	H	1.324710	0.210667	-0.046996
H232	H	0.697275	0.262577	0.301680
H233	H	0.256879	1.054398	0.000069
H234	H	1.303554	0.208036	0.423494
C235	C	0.374539	0.881592	-0.077549
H236	H	0.314420	0.908194	-0.099556
H237	H	0.401734	0.891489	-0.112526
H238	H	0.401735	0.824617	-0.045637
H239	H	0.863025	0.890376	-0.191943
C240	C	0.780136	1.071866	-0.440496
H241	H	0.813893	1.085518	-0.426823
H242	H	0.804588	1.052107	-0.467806
H243	H	0.721926	1.118945	-0.467803
H244	H	1.183340	0.372263	0.192182
H245	H	0.662923	0.094611	-0.094744
C246	C	0.915858	-0.101262	0.109880
H247	H	0.954338	-0.158994	0.141019
H248	H	0.947767	-0.079874	0.088414
H249	H	0.889310	-0.079902	0.135694
C250	C	0.876116	0.380771	0.328211
H251	H	0.903318	0.354167	0.376845
H252	H	0.919350	0.370901	0.306211
H253	H	0.836669	0.437741	0.306197
H254	H	1.318670	0.262825	0.067167
H255	H	0.662888	0.357430	-0.094748
H256	H	0.662859	0.466940	-0.094752
H257	H	0.923208	0.545105	-0.402023
H258	H	0.923232	0.545083	-0.511508
C259	C	1.342417	0.254207	0.299732
H260	H	1.336700	0.280824	0.251098
H261	H	1.373436	0.264108	0.321734
H262	H	1.373419	0.197233	0.321743
H263	H	0.897393	0.631265	-0.631271
H264	H	0.897425	0.631232	-0.740746
C265	C	0.644508	0.631150	-0.749430
H266	H	0.606025	0.631136	-0.722823
H267	H	0.612600	0.678422	-0.796628
H268	H	0.671059	0.583861	-0.749314
C269	C	0.644477	0.631186	-0.622711
H270	H	0.653723	0.631192	-0.582444
H271	H	0.588707	0.678456	-0.656267
H272	H	0.647154	0.583896	-0.608950
C273	C	0.614508	0.730971	-0.486473
H274	H	0.625793	0.724169	-0.442801
H275	H	0.586281	0.786708	-0.524245
H276	H	0.577932	0.714246	-0.488017
C277	C	0.644439	0.631189	-0.377153
H278	H	0.605963	0.631164	-0.350540
H279	H	0.612520	0.678455	-0.424352
H280	H	0.671008	0.583895	-0.377030
C281	C	0.644398	0.631228	-0.250435
H282	H	0.605919	0.631216	-0.277061
H283	H	0.670931	0.583957	-0.203238
H284	H	0.612477	0.678517	-0.250556
C285	C	0.993779	0.380874	-0.077520
H286	H	0.999467	0.354274	-0.099542
H287	H	0.962775	0.370967	-0.045626
H288	H	0.962778	0.437850	-0.112498
C289	C	0.993902	0.380770	0.328249
H290	H	0.950650	0.421029	0.282689
H291	H	0.987373	0.337429	0.353332
H292	H	0.987370	0.404309	0.353329
C293	C	1.150405	0.254207	-0.077521
H294	H	1.090286	0.280801	-0.099522
H295	H	1.177590	0.264116	-0.112504
H296	H	1.177612	0.197230	-0.045614
