data_functionalizedCrystal
_audit_creation_method	'MofGen! by Chris Wilmer'
_symmetry_space_group_name_H-M	'P1'
_symmetry_Int_Tables_number	1
_symmetry_cell_setting	triclinic
loop_
_symmetry_equiv_pos_as_xyz
  x,y,z
_cell_length_a	12.759400
_cell_length_b	13.033652
_cell_length_c	13.032268
_cell_angle_alpha	76.703346
_cell_angle_beta	97.150187
_cell_angle_gamma	82.792639
loop_
_atom_site_label
_atom_site_type_symbol
_atom_site_fract_x
_atom_site_fract_y
_atom_site_fract_z
Zn1	Zn	-0.270797	-1.547452	-0.394636
Zn2	Zn	-0.420964	-1.569913	-0.217052
Zn3	Zn	-0.270866	-1.392405	-0.239572
Zn4	Zn	-0.472010	-1.369833	-0.417113
O5	O	-0.358659	-1.469901	-0.317093
O6	O	-0.269325	-1.699053	-0.352247
O7	O	-0.379719	-1.565212	-0.071419
O8	O	-0.123833	-1.413019	-0.260160
O9	O	-0.379652	-1.715555	-0.221778
O10	O	-0.123782	-1.526931	-0.374084
O11	O	-0.269443	-1.434798	-0.087964
O12	O	-0.318941	-1.240789	-0.281955
O13	O	-0.466653	-1.374549	-0.562751
O14	O	-0.466720	-1.224206	-0.412393
O15	O	-0.318822	-1.505044	-0.546238
O16	O	-0.574760	-1.543325	-0.243572
O17	O	-0.612263	-1.396328	-0.390556
C18	C	-0.398378	-1.193962	-0.352057
C19	C	-0.415399	-1.075910	-0.367040
C20	C	-0.349788	-1.031444	-0.309286
C21	C	-0.367378	-0.909432	-0.324770
C22	C	-0.631633	-1.469840	-0.317079
C23	C	-0.748403	-1.469907	-0.317096
C24	C	-0.783702	-1.546515	-0.240627
C25	C	-0.893421	-1.546576	-0.240652
C26	C	-0.932535	-1.393413	-0.393618
C27	C	-0.822817	-1.393357	-0.393597
C28	C	-0.709288	-1.623065	-0.164126
C29	C	-0.744585	-1.699678	-0.087650
C30	C	-0.854305	-1.699739	-0.087675
C31	C	-0.928726	-1.623187	-0.164175
C32	C	-0.084619	-1.469987	-0.317127
C33	C	0.032160	-1.470024	-0.317141
C34	C	-0.398424	-1.434773	-0.594108
C35	C	-0.415369	-1.419804	-0.712155
C36	C	-0.318777	-0.746918	-0.281986
C37	C	-0.301759	-0.864969	-0.267007
C38	C	-0.349780	-1.477697	-0.756613
C39	C	-0.367292	-1.462227	-0.878621
C40	C	-0.318965	-1.504953	-0.041148
C41	C	-0.301694	-1.520128	0.076924
H42	H	-0.280598	-1.083704	-0.248372
N43	N	-0.507058	-1.006702	-0.447726
H44	H	-0.576957	-1.028046	-0.428674
H45	H	-0.506535	-0.929374	-0.447314
H46	H	-0.436580	-0.857176	-0.385680
N47	N	-0.784734	-1.310737	-0.476076
H48	H	-0.848522	-1.262247	-0.524538
H49	H	-0.740127	-1.267087	-0.439022
H50	H	-0.232566	-1.581144	-0.870818
H51	H	-0.619947	-1.623021	-0.164095
H52	H	-0.280659	-1.538710	-0.704351
H53	H	-0.436409	-1.401198	-0.930882
H54	H	-0.683986	-1.762009	-0.025372
N55	N	-0.210100	-0.934174	-0.186311
H56	H	-0.210526	-1.011526	-0.186683
H57	H	-0.140248	-0.912743	-0.205405
N58	N	-0.892380	-1.782373	-0.005204
H59	H	-0.828588	-1.830855	0.043258
H60	H	-0.937121	-1.745439	0.038495
N61	N	-1.047067	-1.623259	-0.164214
H62	H	-1.058140	-1.683409	-0.104166
H63	H	-1.081174	-1.552876	-0.153906
H64	H	-0.993137	-1.331087	-0.455900
H65	H	-0.484481	-1.358780	-0.764419
