data_functionalizedCrystal
_audit_creation_method	'MofGen! by Chris Wilmer'
_symmetry_space_group_name_H-M	'P1'
_symmetry_Int_Tables_number	1
_symmetry_cell_setting	triclinic
loop_
_symmetry_equiv_pos_as_xyz
  x,y,z
_cell_length_a	16.176319
_cell_length_b	16.109301
_cell_length_c	16.109301
_cell_angle_alpha	96.538519
_cell_angle_beta	89.991001
_cell_angle_gamma	89.998537
loop_
_atom_site_label
_atom_site_type_symbol
_atom_site_fract_x
_atom_site_fract_y
_atom_site_fract_z
O1	O	-0.068697	-1.103128	0.106871
O2	O	0.264636	-0.769794	0.440204
O3	O	0.597970	-0.436461	0.773538
O4	O	-0.068710	-0.861066	0.120170
O5	O	0.264623	-0.527732	0.453504
O6	O	0.597956	-0.194399	0.786837
O7	O	-0.068695	-0.988746	-0.007510
O8	O	0.264638	-0.655413	0.325823
O9	O	0.597972	-0.322080	0.659156
O10	O	-0.068712	-0.975447	0.234552
O11	O	0.264621	-0.642114	0.567885
O12	O	0.597954	-0.308780	0.901218
O13	O	0.068798	-0.988744	-0.007522
O14	O	0.402132	-0.655411	0.325811
O15	O	0.735465	-0.322077	0.659145
O16	O	0.068783	-0.861063	0.120159
O17	O	0.402116	-0.527730	0.453492
O18	O	0.735449	-0.194397	0.786825
O19	O	0.068796	-1.103125	0.106859
O20	O	0.402130	-0.769792	0.440193
O21	O	0.735463	-0.436459	0.773526
Cu22	Cu	0.081344	-0.982094	0.113508
Cu23	Cu	0.414677	-0.648761	0.446841
Cu24	Cu	0.748010	-0.315427	0.780175
Cu25	Cu	-0.081258	-0.982097	0.113522
Cu26	Cu	0.252075	-0.648763	0.446855
Cu27	Cu	0.585409	-0.315430	0.780188
O28	O	0.068781	-0.975445	0.234540
O29	O	0.402114	-0.642111	0.567873
O30	O	0.735447	-0.308778	0.901207
C31	C	0.000035	-0.830090	0.119626
C32	C	0.333368	-0.496756	0.452959
C33	C	0.666701	-0.163423	0.786292
C34	C	0.000030	-0.737794	0.118011
C35	C	0.333363	-0.404461	0.451344
C36	C	0.666696	-0.071128	0.784677
N37	N	-0.195623	-0.982099	0.113525
N38	N	0.137710	-0.648766	0.446859
N39	N	0.471044	-0.315433	0.780192
C40	C	0.000052	-0.988206	-0.038491
C41	C	0.333385	-0.654873	0.294842
C42	C	0.666719	-0.321540	0.628176
C43	C	0.000053	-0.986591	-0.130786
C44	C	0.333387	-0.653258	0.202547
C45	C	0.666720	-0.319925	0.535880
C46	C	-0.238880	-1.038741	0.057100
C47	C	0.094453	-0.705408	0.390433
C48	C	0.427786	-0.372075	0.723767
C49	C	-0.325428	-1.038745	0.057098
C50	C	0.007906	-0.705411	0.390431
C51	C	0.341239	-0.372078	0.723765
C52	C	-0.368716	-0.982101	0.113518
C53	C	-0.035382	-0.648768	0.446852
C54	C	0.297951	-0.315434	0.780185
C55	C	-0.325452	-0.925456	0.169950
C56	C	0.007881	-0.592123	0.503283
C57	C	0.341214	-0.258790	0.836617
C58	C	-0.238907	-0.925458	0.169955
C59	C	0.094427	-0.592124	0.503288
C60	C	0.427760	-0.258791	0.836622
C61	C	-0.674481	-0.925450	0.169931
C62	C	-0.341147	-0.592117	0.503264
C63	C	-0.007814	-0.258783	0.836598
C64	C	-0.761032	-0.925451	0.169920
C65	C	-0.427699	-0.592118	0.503253
C66	C	-0.094365	-0.258785	0.836586
C67	C	-0.761001	-1.038737	0.057074
C68	C	-0.427668	-0.705404	0.390407
C69	C	-0.094335	-0.372070	0.723741
C70	C	-0.674456	-1.038738	0.057079
C71	C	-0.341122	-0.705405	0.390412
C72	C	-0.007789	-0.372072	0.723746
C73	C	-0.631200	-0.982097	0.113513
C74	C	-0.297867	-0.648764	0.446847
C75	C	0.035467	-0.315430	0.780180
C76	C	-0.537356	-0.982095	0.113516
C77	C	-0.204022	-0.648762	0.446849
C78	C	0.129311	-0.315429	0.780182
C79	C	-0.462558	-0.982098	0.113513
C80	C	-0.129225	-0.648765	0.446846
C81	C	0.204108	-0.315432	0.780179
N82	N	0.195709	-0.982098	0.113498
N83	N	0.529042	-0.648765	0.446831
N84	N	0.862376	-0.315431	0.780164
C85	C	0.000049	-1.134101	0.107404
C86	C	0.333383	-0.800768	0.440737
C87	C	0.666716	-0.467435	0.774071
C88	C	0.000049	-1.226397	0.109019
C89	C	0.333382	-0.893063	0.442352
C90	C	0.666716	-0.559730	0.775686
C91	C	0.000034	-0.515522	0.190018
C92	C	0.333367	-0.182188	0.523352
C93	C	0.666701	0.151145	0.856685
C94	C	0.000039	-0.428801	0.188494
C95	C	0.333373	-0.095468	0.521828
C96	C	0.666706	0.237865	0.855161
C97	C	0.000047	-0.448676	0.037006
C98	C	0.333380	-0.115342	0.370339
C99	C	0.666714	0.217991	0.703672
C100	C	0.000048	-0.535394	0.038530
C101	C	0.333381	-0.202061	0.371864
C102	C	0.666714	0.131272	0.705197
C103	C	0.000037	-0.568815	0.115039
C104	C	0.333370	-0.235482	0.448373
C105	C	0.666704	0.097852	0.781706
C106	C	0.000042	-0.395376	0.111990
C107	C	0.333375	-0.062042	0.445324
C108	C	0.666708	0.271291	0.778657
C109	C	0.000048	-0.301350	0.110337
C110	C	0.333381	0.031984	0.443671
C111	C	0.666714	0.365317	0.777004
C112	C	0.000033	-0.662847	0.116693
C113	C	0.333366	-0.329514	0.450026
C114	C	0.666699	0.003820	0.783359
C115	C	0.000044	-1.058599	-0.353059
C116	C	0.333377	-0.725266	-0.019725
C117	C	0.666711	-0.391932	0.313608
C118	C	0.000037	-1.057075	-0.439779
C119	C	0.333371	-0.723742	-0.106446
C120	C	0.666704	-0.390408	0.226888
C121	C	0.000032	-0.905586	-0.419905
C122	C	0.333365	-0.572253	-0.086571
C123	C	0.666699	-0.238919	0.246762
C124	C	0.000033	-0.907111	-0.333186
C125	C	0.333366	-0.573778	0.000147
C126	C	0.666700	-0.240444	0.333481
C127	C	0.000043	-0.983620	-0.299766
C128	C	0.333377	-0.650287	0.033568
C129	C	0.666710	-0.316953	0.366901
C130	C	0.000035	-0.980571	-0.473205
C131	C	0.333369	-0.647238	-0.139871
C132	C	0.666702	-0.313904	0.193462
C133	C	0.000028	-0.978918	-0.567231
C134	C	0.333361	-0.645585	-0.233897
C135	C	0.666695	-0.312251	0.099436
C136	C	0.000049	-0.985273	-0.205734
C137	C	0.333382	-0.651940	0.127600
C138	C	0.666716	-0.318607	0.460933
C139	C	0.000032	-0.975984	0.265521
C140	C	0.333365	-0.642651	0.598854
C141	C	0.666699	-0.309318	0.932187
C142	C	0.000025	-0.977600	0.357816
C143	C	0.333359	-0.644266	0.691149
C144	C	0.666692	-0.310933	1.024483
H145	H	-0.203641	-1.084863	0.011153
H146	H	0.129692	-0.751530	0.344486
H147	H	0.463026	-0.418197	0.677819
C148	C	-0.808585	-1.101055	-0.004991
C149	C	-0.475251	-0.767722	0.328343
C150	C	-0.141918	-0.434389	0.661676
H151	H	-0.866328	-1.092953	0.003091
H152	H	-0.532995	-0.759620	0.336425
H153	H	-0.199661	-0.426287	0.669758
H154	H	-0.794393	-1.092156	-0.060512
H155	H	-0.461059	-0.758823	0.272821
H156	H	-0.127726	-0.425489	0.606155
H157	H	-0.794396	-1.156508	0.004174
H158	H	-0.461063	-0.823175	0.337507
H159	H	-0.127730	-0.489841	0.670840
C160	C	0.000035	-0.824630	-0.274560
C161	C	0.333368	-0.491297	0.058774
C162	C	0.666701	-0.157963	0.392107
H163	H	0.000040	-0.778846	-0.306882
H164	H	0.333374	-0.445513	0.026451
H165	H	0.666707	-0.112179	0.359784
H166	H	-0.047912	-0.822076	-0.240309
H167	H	0.285422	-0.488743	0.093024
H168	H	0.618755	-0.155410	0.426358
H169	H	0.047988	-0.822080	-0.240327
H170	H	0.381322	-0.488747	0.093006
H171	H	0.714655	-0.155414	0.426339
H172	H	-0.360703	-0.879339	0.215893
H173	H	-0.027369	-0.546005	0.549226
H174	H	0.305964	-0.212672	0.882559
H175	H	0.000025	-0.843295	-0.447127
H176	H	0.333359	-0.509962	-0.113793
H177	H	0.666692	-0.176628	0.219540
C178	C	-0.373007	-1.101046	-0.004975
C179	C	-0.039674	-0.767713	0.328359
C180	C	0.293659	-0.434380	0.661692
H181	H	-0.334831	-1.134773	-0.038583
H182	H	-0.001498	-0.801440	0.294750
H183	H	0.331836	-0.468106	0.628083
H184	H	-0.406775	-1.135584	0.025009
H185	H	-0.073442	-0.802250	0.358342
H186	H	0.259891	-0.468917	0.691675
H187	H	-0.406760	-1.071214	-0.039660
H188	H	-0.073427	-0.737881	0.293674
H189	H	0.259907	-0.404547	0.627007
H190	H	-0.203687	-0.879335	0.215904
H191	H	0.129646	-0.546002	0.549237
H192	H	0.462979	-0.212668	0.882570
H193	H	0.000036	-1.118130	-0.483168
H194	H	0.333369	-0.784797	-0.149834
H195	H	0.666703	-0.451464	0.183499
C196	C	0.000049	-0.411914	-0.047149
C197	C	0.333382	-0.078581	0.286184
C198	C	0.666715	0.254753	0.619517
H199	H	0.000057	-0.456076	-0.091586
H200	H	0.333391	-0.122743	0.241747
H201	H	0.666724	0.210591	0.575081
H202	H	-0.047899	-0.378497	-0.050886
H203	H	0.285434	-0.045164	0.282447
H204	H	0.618768	0.288169	0.615780
H205	H	0.048001	-0.378500	-0.050900
H206	H	0.381334	-0.045166	0.282434
H207	H	0.714668	0.288167	0.615767
H208	H	0.000051	-1.120897	-0.325851
H209	H	0.333384	-0.787564	0.007482
H210	H	0.666717	-0.454231	0.340816
C211	C	-0.808648	-0.863147	0.231991
C212	C	-0.475315	-0.529814	0.565325
C213	C	-0.141981	-0.196480	0.898658
H214	H	-0.770492	-0.829419	0.265609
H215	H	-0.437158	-0.496086	0.598942
H216	H	-0.103825	-0.162753	0.932275
H217	H	-0.842403	-0.828610	0.202002
H218	H	-0.509070	-0.495277	0.535335
H219	H	-0.175737	-0.161944	0.868669
H220	H	-0.842416	-0.892982	0.266668
H221	H	-0.509083	-0.559649	0.600002
H222	H	-0.175749	-0.226316	0.933335
C223	C	-0.626843	-1.101048	-0.004981
C224	C	-0.293510	-0.767715	0.328353
C225	C	0.039824	-0.434382	0.661686
H226	H	-0.665002	-1.134789	-0.038581
H227	H	-0.331668	-0.801456	0.294752
H228	H	0.001665	-0.468123	0.628085
H229	H	-0.593072	-1.071229	-0.039662
H230	H	-0.259738	-0.737896	0.293671
H231	H	0.073595	-0.404563	0.627005
H232	H	-0.593091	-1.135583	0.025022
H233	H	-0.259758	-0.802250	0.358355
H234	H	0.073575	-0.468917	0.691689
C235	C	-0.626910	-0.863164	0.232022
C236	C	-0.293576	-0.529830	0.565356
C237	C	0.039757	-0.196497	0.898689
H238	H	-0.665088	-0.829431	0.265622
H239	H	-0.331755	-0.496098	0.598955
H240	H	0.001578	-0.162764	0.932288
H241	H	-0.593169	-0.893007	0.266701
H242	H	-0.259835	-0.559673	0.600035
H243	H	0.073498	-0.226340	0.933368
H244	H	-0.593130	-0.828618	0.202052
H245	H	-0.259797	-0.495284	0.535386
H246	H	0.073536	-0.161951	0.868719
C247	C	0.000031	-0.552282	0.274174
C248	C	0.333364	-0.218949	0.607507
C249	C	0.666698	0.114384	0.940841
H250	H	0.000038	-0.508119	0.318610
H251	H	0.333371	-0.174786	0.651943
H252	H	0.666704	0.158547	0.985276
H253	H	-0.047915	-0.585697	0.277927
H254	H	0.285418	-0.252363	0.611260
H255	H	0.618752	0.080970	0.944594
H256	H	0.047985	-0.585699	0.277910
H257	H	0.381318	-0.252365	0.611243
H258	H	0.714651	0.080968	0.944576
H259	H	0.000039	-0.385413	0.249550
H260	H	0.333372	-0.052080	0.582883
H261	H	0.666706	0.281254	0.916217
C262	C	0.000047	-0.594021	-0.043951
C263	C	0.333380	-0.260687	0.289383
C264	C	0.666714	0.072646	0.622716
H265	H	0.000041	-0.561698	-0.089735
H266	H	0.333374	-0.228365	0.243599
H267	H	0.666708	0.104969	0.576932
H268	H	0.047993	-0.628266	-0.046510
H269	H	0.381327	-0.294932	0.286823
H270	H	0.714660	0.038401	0.620157
H271	H	-0.047906	-0.628259	-0.046494
H272	H	0.285427	-0.294926	0.286839
H273	H	0.618760	0.038407	0.620172
