data_functionalizedCrystal
_audit_creation_method	'MofGen! by Chris Wilmer'
_symmetry_space_group_name_H-M	'P1'
_symmetry_Int_Tables_number	1
_symmetry_cell_setting	triclinic
loop_
_symmetry_equiv_pos_as_xyz
  x,y,z
_cell_length_a	18.215407
_cell_length_b	18.215405
_cell_length_c	18.215399
_cell_angle_alpha	89.969449
_cell_angle_beta	89.983101
_cell_angle_gamma	90.022344
loop_
_atom_site_label
_atom_site_type_symbol
_atom_site_fract_x
_atom_site_fract_y
_atom_site_fract_z
Zn1	Zn	1.125072	-0.293042	-0.416045
Zn2	Zn	1.458405	0.040292	-0.082712
Zn3	Zn	1.791739	0.373625	0.250622
Zn4	Zn	1.124980	-0.416113	-0.292973
Zn5	Zn	1.458314	-0.082780	0.040360
Zn6	Zn	1.791647	0.250554	0.373694
Zn7	Zn	1.002004	-0.293059	-0.292999
Zn8	Zn	1.335338	0.040274	0.040335
Zn9	Zn	1.668671	0.373607	0.373668
Zn10	Zn	1.001970	-0.416066	-0.416004
Zn11	Zn	1.335304	-0.082732	-0.082671
Zn12	Zn	1.668637	0.250601	0.250662
O13	O	1.063507	-0.354570	-0.354505
O14	O	1.396840	-0.021237	-0.021172
O15	O	1.730173	0.312097	0.312161
O16	O	1.228044	-0.309380	-0.399726
O17	O	1.561377	0.023953	-0.066392
O18	O	1.894711	0.357287	0.266941
O19	O	1.108643	-0.399817	-0.189992
O20	O	1.441977	-0.066484	0.143341
O21	O	1.775310	0.266850	0.476675
O22	O	1.018382	-0.190073	-0.309349
O23	O	1.351716	0.143261	0.023985
O24	O	1.685049	0.476594	0.357318
O25	O	1.227977	-0.399800	-0.309305
O26	O	1.561310	-0.066466	0.024028
O27	O	1.894643	0.266867	0.357362
O28	O	1.108799	-0.190060	-0.399750
O29	O	1.442133	0.143274	-0.066417
O30	O	1.775466	0.476607	0.266916
O31	O	1.018293	-0.309410	-0.190011
O32	O	1.351627	0.023923	0.143322
O33	O	1.684960	0.357257	0.476656
O34	O	0.899016	-0.309364	-0.309309
O35	O	1.232349	0.023969	0.024024
O36	O	1.565682	0.357303	0.357357
O37	O	1.018324	-0.399719	-0.518994
O38	O	1.351657	-0.066386	-0.185661
O39	O	1.684991	0.266948	0.147673
O40	O	0.898991	-0.399736	-0.399681
O41	O	1.232324	-0.066403	-0.066348
O42	O	1.565657	0.266931	0.266986
O43	O	1.108766	-0.309334	-0.519024
O44	O	1.442100	0.023999	-0.185691
O45	O	1.775433	0.357333	0.147643
O46	O	1.108610	-0.519091	-0.309266
O47	O	1.441943	-0.185758	0.024068
O48	O	1.775277	0.147576	0.357401
O49	O	1.018235	-0.519056	-0.399656
O50	O	1.351569	-0.185723	-0.066323
O51	O	1.684902	0.147610	0.267010
C52	C	0.872300	-0.354547	-0.354494
C53	C	1.205634	-0.021214	-0.021161
C54	C	1.538967	0.312119	0.312173
C55	C	0.790502	-0.354555	-0.354507
C56	C	1.123835	-0.021222	-0.021173
C57	C	1.457168	0.312111	0.312160
C58	C	0.525450	-0.401704	-0.401497
C59	C	0.858784	-0.068371	-0.068164
C60	C	1.192117	0.264963	0.265169
C61	C	0.602309	-0.401698	-0.401494
C62	C	0.935642	-0.068364	-0.068160
C63	C	1.268976	0.264969	0.265173
C64	C	0.602305	-0.307452	-0.307526
C65	C	0.935638	0.025881	0.025807
C66	C	1.268971	0.359214	0.359141
C67	C	0.525447	-0.307463	-0.307527
C68	C	0.858781	0.025870	0.025807
C69	C	1.192114	0.359204	0.359140
C70	C	0.487022	-0.354588	-0.354516
C71	C	0.820355	-0.021254	-0.021183
C72	C	1.153689	0.312079	0.312150
C73	C	0.640738	-0.354571	-0.354512
C74	C	0.974071	-0.021238	-0.021179
C75	C	1.307405	0.312096	0.312154
C76	C	0.724072	-0.354564	-0.354508
C77	C	1.057405	-0.021230	-0.021175
C78	C	1.390738	0.312103	0.312159
C79	C	0.403683	-0.354596	-0.354520
C80	C	0.737016	-0.021263	-0.021186
C81	C	1.070350	0.312071	0.312147
C82	C	1.063429	-0.545776	-0.354470
C83	C	1.396762	-0.212443	-0.021136
C84	C	1.730096	0.120890	0.312197
C85	C	1.063463	-0.627575	-0.354479
C86	C	1.396796	-0.294242	-0.021146
C87	C	1.730130	0.039092	0.312187
C88	C	1.110632	-0.815763	-0.307500
C89	C	1.443965	-0.482429	0.025834
C90	C	1.777298	-0.149096	0.359167
C91	C	1.110665	-0.892621	-0.307517
C92	C	1.443998	-0.559288	0.025816
C93	C	1.777331	-0.225955	0.359149
C94	C	1.016476	-0.892625	-0.401564
C95	C	1.349809	-0.559292	-0.068230
C96	C	1.683143	-0.225958	0.265103
C97	C	1.016447	-0.815768	-0.401549
C98	C	1.349781	-0.482434	-0.068216
C99	C	1.683114	-0.149101	0.265118
C100	C	1.063524	-0.777339	-0.354513
C101	C	1.396857	-0.444005	-0.021180
C102	C	1.730191	-0.110672	0.312154
C103	C	1.063586	-0.931055	-0.354545
C104	C	1.396919	-0.597721	-0.021212
C105	C	1.730252	-0.264388	0.312121
C106	C	1.063621	-1.014388	-0.354565
C107	C	1.396954	-0.681055	-0.021232
C108	C	1.730288	-0.347722	0.312102
C109	C	1.063490	-0.694000	-0.354494
C110	C	1.396823	-0.360666	-0.021161
C111	C	1.730157	-0.027333	0.312173
C112	C	1.255460	-0.354593	-0.354517
C113	C	1.588793	-0.021260	-0.021184
C114	C	1.922126	0.312074	0.312150
C115	C	1.337259	-0.354603	-0.354522
C116	C	1.670592	-0.021270	-0.021189
C117	C	2.003925	0.312064	0.312145
C118	C	1.063552	-0.354519	-0.546458
C119	C	1.396885	-0.021186	-0.213125
C120	C	1.730218	0.312147	0.120208
C121	C	1.063571	-0.354498	-0.628257
C122	C	1.396904	-0.021164	-0.294924
C123	C	1.730237	0.312169	0.038410
C124	C	1.063605	-0.162617	-0.354557
C125	C	1.396938	0.170716	-0.021224
C126	C	1.730271	0.504050	0.312110
C127	C	1.063647	-0.080818	-0.354579
C128	C	1.396980	0.252515	-0.021246
C129	C	1.730313	0.585849	0.312088
C130	C	1.110681	-0.307390	-0.816468
C131	C	1.444014	0.025943	-0.483135
C132	C	1.777348	0.359277	-0.149801
C133	C	1.110690	-0.307369	-0.893327
C134	C	1.444023	0.025965	-0.559993
C135	C	1.777356	0.359298	-0.226660
C136	C	1.016513	-0.401491	-0.893284
C137	C	1.349846	-0.068158	-0.559951
C138	C	1.683179	0.265175	-0.226618
C139	C	1.016501	-0.401509	-0.816427
C140	C	1.349834	-0.068175	-0.483094
C141	C	1.683167	0.265158	-0.149760
C142	C	1.063589	-0.354459	-0.778021
C143	C	1.396922	-0.021126	-0.444687
C144	C	1.730256	0.312208	-0.111354
C145	C	1.063610	-0.354420	-0.931737
C146	C	1.396943	-0.021087	-0.598404
C147	C	1.730276	0.312246	-0.265070
C148	C	1.063619	-0.354397	-1.015071
C149	C	1.396952	-0.021064	-0.681737
C150	C	1.730286	0.312269	-0.348404
C151	C	1.063579	-0.354481	-0.694682
C152	C	1.396912	-0.021147	-0.361348
C153	C	1.730246	0.312186	-0.028015
C154	C	1.063504	-0.354567	-0.163299
C155	C	1.396838	-0.021234	0.170034
C156	C	1.730171	0.312099	0.503368
C157	C	1.063628	-0.354382	-0.081500
C158	C	1.396961	-0.021048	0.251833
C159	C	1.730295	0.312285	0.585166
H160	H	0.633594	-0.440065	-0.439749
H161	H	0.966927	-0.106732	-0.106416
H162	H	1.300260	0.226601	0.226917
H163	H	1.149035	-0.269039	-0.924627
H164	H	1.482369	0.064294	-0.591294
H165	H	1.815702	0.397627	-0.257960
H166	H	0.978148	-0.439837	-0.785122
H167	H	1.311481	-0.106504	-0.451789
H168	H	1.644814	0.226830	-0.118456
H169	H	0.978177	-0.439799	-0.924564
H170	H	1.311510	-0.106466	-0.591231
H171	H	1.644843	0.226868	-0.257897
H172	H	0.494167	-0.440076	-0.439759
H173	H	0.827500	-0.106743	-0.106426
H174	H	1.160833	0.226590	0.226908
H175	H	1.149026	-0.923903	-0.269235
H176	H	1.482359	-0.590570	0.064098
H177	H	1.815692	-0.257236	0.397431
H178	H	0.978086	-0.784481	-0.439837
H179	H	1.311420	-0.451147	-0.106503
H180	H	1.644753	-0.117814	0.226830
H181	H	0.633600	-0.269084	-0.269270
H182	H	0.966933	0.064249	0.064063
H183	H	1.300266	0.397582	0.397397
H184	H	0.494158	-0.269094	-0.269266
H185	H	0.827491	0.064239	0.064068
H186	H	1.160825	0.397573	0.397401
H187	H	1.148966	-0.784475	-0.269201
H188	H	1.482299	-0.451142	0.064133
H189	H	1.815632	-0.117809	0.397466
H190	H	0.978146	-0.923924	-0.439858
H191	H	1.311480	-0.590590	-0.106525
H192	H	1.644813	-0.257257	0.226809
H193	H	1.149021	-0.269077	-0.785200
H194	H	1.482355	0.064256	-0.451867
H195	H	1.815688	0.397589	-0.118533
