data_functionalizedCrystal
_audit_creation_method	'MofGen! by Chris Wilmer'
_symmetry_space_group_name_H-M	'P1'
_symmetry_Int_Tables_number	1
_symmetry_cell_setting	triclinic
loop_
_symmetry_equiv_pos_as_xyz
  x,y,z
_cell_length_a	19.077372
_cell_length_b	19.077391
_cell_length_c	19.076919
_cell_angle_alpha	90.062674
_cell_angle_beta	94.474666
_cell_angle_gamma	90.124953
loop_
_atom_site_label
_atom_site_type_symbol
_atom_site_fract_x
_atom_site_fract_y
_atom_site_fract_z
Zn1	Zn	-1.072145	0.250978	0.344976
Zn2	Zn	-0.572145	0.750978	0.844976
Zn3	Zn	-1.081490	0.363375	0.222390
Zn4	Zn	-0.581490	0.863375	0.722390
Zn5	Zn	-0.959001	0.250999	0.231820
Zn6	Zn	-0.459001	0.750999	0.731820
Zn7	Zn	-0.959327	0.373154	0.344539
Zn8	Zn	-0.459327	0.873154	0.844539
O9	O	-1.017991	0.309626	0.285931
O10	O	-0.517991	0.809626	0.785931
O11	O	-1.171861	0.261786	0.324951
O12	O	-0.671861	0.761786	0.824951
O13	O	-1.069016	0.344384	0.125165
O14	O	-0.569016	0.844384	0.625165
O15	O	-0.969963	0.152835	0.250959
O16	O	-0.469963	0.652835	0.750959
O17	O	-1.178727	0.344363	0.234888
O18	O	-0.678727	0.844363	0.734888
O19	O	-1.053089	0.152820	0.334094
O20	O	-0.553089	0.652820	0.834094
O21	O	-0.979024	0.261822	0.132093
O22	O	-0.479024	0.761822	0.632093
O23	O	-0.860568	0.271305	0.250536
O24	O	-0.360568	0.771305	0.750536
O25	O	-0.970518	0.361031	0.443073
O26	O	-0.470518	0.861031	0.943073
O27	O	-0.860807	0.361052	0.333350
O28	O	-0.360807	0.861052	0.833350
O29	O	-1.053405	0.271269	0.443394
O30	O	-0.553405	0.771269	0.943394
O31	O	-1.069333	0.462833	0.234465
O32	O	-0.569333	0.962833	0.734465
O33	O	-0.979580	0.470018	0.324207
O34	O	-0.479580	0.970018	0.824207
C35	C	-0.835154	0.317243	0.292919
C36	C	-0.335154	0.817243	0.792919
C37	C	-0.756935	0.320518	0.295924
C38	C	-0.256935	0.820518	0.795924
C39	C	-0.316661	0.343961	0.317519
C40	C	0.183339	0.843961	0.817519
C41	C	-0.390156	0.340888	0.314682
C42	C	0.109844	0.840888	0.814682
C43	C	-0.426750	0.292556	0.270224
C44	C	0.073250	0.792556	0.770224
C45	C	-0.389846	0.247299	0.228596
C46	C	0.110154	0.747299	0.728596
C47	C	-0.316352	0.250376	0.231430
C48	C	0.183648	0.750376	0.731430
C49	C	-0.646537	0.278338	0.257130
C50	C	-0.146537	0.778338	0.757130
C51	C	-0.720036	0.275263	0.254300
C52	C	-0.220036	0.775263	0.754300
C53	C	-0.720341	0.368854	0.340387
C54	C	-0.220341	0.868854	0.840387
C55	C	-0.646846	0.371924	0.343220
C56	C	-0.146846	0.871924	0.843220
C57	C	-0.609948	0.326669	0.301588
C58	C	-0.109948	0.826669	0.801588
N59	N	-0.501874	0.289412	0.267325
N60	N	-0.001874	0.789412	0.767325
N61	N	-0.534826	0.329817	0.304485
N62	N	-0.034826	0.829817	0.804485
C63	C	-1.025524	0.491877	0.278280
C64	C	-0.525524	0.991877	0.778280
C65	C	-1.028810	0.569843	0.275027
C66	C	-0.528810	1.069843	0.775027
C67	C	-0.201542	0.301977	0.278908
C68	C	0.298458	0.801977	0.778908
C69	C	-0.279761	0.298706	0.275895
C70	C	0.220239	0.798706	0.775895
C71	C	-0.983596	0.610238	0.320187
C72	C	-0.483596	1.110238	0.820187
C73	C	-0.986687	0.683495	0.317129
C74	C	-0.486687	1.183495	0.817129
C75	C	-1.034996	0.716356	0.268913
C76	C	-0.534996	1.216356	0.768913
C77	C	-1.080213	0.675955	0.223748
C78	C	-0.580213	1.175955	0.723748
C79	C	-1.077118	0.602700	0.226804
C80	C	-0.577118	1.102700	0.726804
C81	C	-1.049263	0.935043	0.254763
C82	C	-0.549263	1.435043	0.754763
C83	C	-1.052356	1.008304	0.251712
C84	C	-0.552356	1.508304	0.751712
C85	C	-0.958828	1.015838	0.345093
C86	C	-0.458828	1.515838	0.845093
C87	C	-0.955741	0.942581	0.348147
C88	C	-0.455741	1.442581	0.848147
C89	C	-1.000955	0.902187	0.302980
C90	C	-0.500955	1.402187	0.802980
N91	N	-1.038158	0.791236	0.265786
N92	N	-0.538158	1.291236	0.765786
N93	N	-0.997789	0.827308	0.306103
N94	N	-0.497789	1.327308	0.806103
C95	C	-1.010956	0.317238	0.469481
C96	C	-0.510956	0.817238	0.969481
C97	C	-1.007958	0.320482	0.547699
C98	C	-0.507958	0.820482	1.047699
C99	C	-1.010424	1.126664	0.293619
C100	C	-0.510424	1.626664	0.793619
C101	C	-1.007141	1.048698	0.296872
C102	C	-0.507141	1.548698	0.796872
C103	C	-1.025037	0.301992	0.103096
C104	C	-0.525037	0.801992	0.603096
C105	C	-1.028164	0.298545	0.024882
C106	C	-0.528164	0.798545	0.524882
C107	C	-1.049702	0.275274	0.584614
C108	C	-0.549702	0.775274	1.084614
C109	C	-1.046876	0.278319	0.658108
C110	C	-0.546876	0.778319	1.158108
C111	C	-1.002309	0.326577	0.694686
C112	C	-0.502309	0.826577	1.194686
C113	C	-0.960561	0.371788	0.657766
C114	C	-0.460561	0.871788	1.157766
C115	C	-0.963383	0.368738	0.584273
C116	C	-0.463383	0.868738	1.084273
C117	C	-0.989237	0.340706	0.914469
C118	C	-0.489237	0.840706	1.414469
C119	C	-0.986420	0.343753	0.987967
C120	C	-0.486420	0.843753	1.487967
C121	C	-1.072734	0.250283	0.988304
C122	C	-0.572734	0.750283	1.488304
C123	C	-1.075556	0.247241	0.914809
C124	C	-0.575556	0.747241	1.414809
C125	C	-1.033804	0.292449	0.877896
C126	C	-0.533804	0.792449	1.377896
N127	N	-0.999422	0.329693	0.769809
N128	N	-0.499422	0.829693	1.269809
N129	N	-1.036689	0.289329	0.802774
N130	N	-0.536689	0.789329	1.302774
H131	H	-0.286871	0.383315	0.353726
H132	H	0.213129	0.883315	0.853726
Cl133	Cl	-0.435850	0.186540	0.172703
Cl134	Cl	0.064150	0.686540	0.672703
Cl135	Cl	-0.929850	0.734274	0.373912
Cl136	Cl	-0.429850	1.234274	0.873912
Cl137	Cl	-1.105735	0.214607	0.538637
Cl138	Cl	-0.605735	0.714607	1.038637
H139	H	-0.286309	0.213523	0.197537
H140	H	0.213691	0.713523	0.697537
Cl141	Cl	-1.113093	1.049613	0.191093
Cl142	Cl	-0.613093	1.549613	0.691093
Cl143	Cl	-0.895009	0.901275	0.408767
Cl144	Cl	-0.395009	1.401275	0.908767
Cl145	Cl	-0.936750	0.397539	0.868073
Cl146	Cl	-0.436750	0.897539	1.368073
H147	H	-0.922017	1.048734	0.381865
H148	H	-0.422017	1.548734	0.881865
H149	H	-0.750392	0.405698	0.374280
H150	H	-0.250392	0.905698	0.874280
Cl151	Cl	-0.930385	0.404421	1.033949
Cl152	Cl	-0.430385	0.904421	1.533949
H153	H	-0.749828	0.235897	0.218103
H154	H	-0.249828	0.735897	0.718103
Cl155	Cl	-1.106116	0.884271	0.197993
Cl156	Cl	-0.606116	1.384271	0.697993
H157	H	-1.113936	0.569811	0.190029
H158	H	-0.613936	1.069811	0.690029
H159	H	-0.616503	0.241492	0.223228
H160	H	-0.116503	0.741492	0.723228
H161	H	-1.119545	0.702716	0.184486
H162	H	-0.619545	1.202716	0.684486
Cl163	Cl	-0.922863	0.568935	0.380808
Cl164	Cl	-0.422863	1.068935	0.880808
H165	H	-1.080870	0.241507	0.688161
H166	H	-0.580870	0.741507	1.188161
Cl167	Cl	-1.131585	0.186572	0.868831
Cl168	Cl	-0.631585	0.686572	1.368831
H169	H	-1.106725	0.213477	1.018367
H170	H	-0.606725	0.713477	1.518367
Cl171	Cl	-0.904531	0.432453	0.703750
Cl172	Cl	-0.404531	0.932453	1.203750
H173	H	-0.929383	0.405545	0.554218
H174	H	-0.429383	0.905545	1.054218
H175	H	-0.617056	0.411282	0.379421
H176	H	-0.117056	0.911282	0.879421
Cl177	Cl	-0.436542	0.397784	0.367011
Cl178	Cl	0.063458	0.897784	0.867011
