data_functionalizedCrystal
_audit_creation_method	'MofGen! by Chris Wilmer'
_symmetry_space_group_name_H-M	'P1'
_symmetry_Int_Tables_number	1
_symmetry_cell_setting	triclinic
loop_
_symmetry_equiv_pos_as_xyz
  x,y,z
_cell_length_a	16.704494
_cell_length_b	21.606444
_cell_length_c	21.606444
_cell_angle_alpha	60.001331
_cell_angle_beta	90.002029
_cell_angle_gamma	56.631089
loop_
_atom_site_label
_atom_site_type_symbol
_atom_site_fract_x
_atom_site_fract_y
_atom_site_fract_z
Zr1	Zr	0.815186	0.612744	-0.048844
O2	O	0.680059	0.752592	-0.153030
O3	O	0.856611	0.480336	-0.016908
O4	O	0.856600	0.609461	-0.146027
O5	O	0.680077	0.623463	0.077943
O6	O	0.995858	0.598407	-0.140499
O7	O	0.680070	0.623468	-0.023911
O8	O	0.995877	0.367426	0.090471
O9	O	0.680058	0.854443	-0.153027
O10	O	0.978203	0.523792	0.000841
O11	O	0.874282	0.532038	0.072729
O12	O	0.874269	0.684066	-0.079292
O13	O	0.770349	0.692311	-0.007404
Zr14	Zr	1.037297	0.595106	0.122418
Zr15	Zr	1.037285	0.595114	-0.040028
Zr16	Zr	0.815198	0.612736	0.113602
Zr17	Zr	0.815184	0.775184	-0.048838
Zr18	Zr	1.037299	0.432666	0.122413
O19	O	0.995872	0.727514	0.090482
O20	O	0.995856	0.727525	-0.140495
O21	O	0.680075	0.752581	0.077947
O22	O	1.172424	0.455258	0.226604
O23	O	1.172408	0.455269	-0.004373
O24	O	0.856627	0.480325	0.214069
O25	O	1.172406	0.584387	-0.004369
O26	O	0.995883	0.598389	0.219601
O27	O	0.856625	0.609443	0.214074
O28	O	1.172413	0.584383	0.097486
O29	O	0.856597	0.840430	-0.146019
O30	O	0.995886	0.367420	0.219594
O31	O	1.172425	0.353407	0.226601
O32	O	1.172416	0.353413	0.097478
O33	O	0.680067	0.854437	-0.023904
O34	O	0.856606	0.840424	-0.016896
O35	O	0.978213	0.523785	0.152867
O36	O	1.082134	0.515539	0.080979
O37	O	0.978201	0.675812	0.000846
O38	O	0.874280	0.684058	0.072734
C39	C	0.926244	0.400737	0.036781
C40	C	0.926245	0.331777	0.036779
C41	C	0.980489	0.295075	-0.000747
C42	C	0.980492	0.230275	-0.000742
C43	C	0.926246	0.202182	0.036785
C44	C	0.872001	0.238887	0.074316
C45	C	0.872004	0.303681	0.074315
C46	C	0.871989	-0.022422	0.074321
C47	C	0.871988	-0.087219	0.074318
C48	C	0.980477	-0.095828	-0.000735
C49	C	0.980480	-0.031034	-0.000736
C50	C	0.926240	0.005662	0.036798
C51	C	0.926238	0.075924	0.036793
C52	C	0.926241	0.131926	0.036786
C53	C	0.648429	0.625977	0.025760
C54	C	0.554142	0.633461	0.022018
C55	C	0.485482	0.480185	0.098662
C56	C	0.396894	0.487212	0.095148
C57	C	0.288377	0.654544	0.011479
C58	C	0.376965	0.647516	0.014994
C59	C	0.475517	0.560333	0.058586
C60	C	0.564106	0.553306	0.062095
C61	C	0.455588	0.720637	-0.021569
C62	C	0.367000	0.727665	-0.025083
C63	C	1.204054	0.581873	0.047814
C64	C	1.298340	0.574389	0.051557
C65	C	0.926227	0.603935	-0.166408
C66	C	0.926223	0.603938	-0.235370
C67	C	0.926239	0.807113	0.036794
C68	C	0.926238	0.876074	0.036796
C69	C	0.871970	0.687599	-0.309598
C70	C	0.871979	0.687596	-0.374392
C71	C	0.926235	0.603932	-0.364958
C72	C	0.980494	0.520264	-0.290723
C73	C	0.980491	0.520268	-0.225930
C74	C	0.980511	0.520248	-0.552025
C75	C	0.980508	0.520251	-0.616826
C76	C	0.871999	0.687576	-0.700488
C77	C	0.871995	0.687579	-0.635695
C78	C	0.926259	0.603912	-0.561465
C79	C	0.926250	0.603917	-0.491208
C80	C	0.926238	0.603927	-0.435214
C81	C	0.926256	0.603915	0.239982
C82	C	0.926260	0.603912	0.308945
C83	C	1.204056	0.378685	0.047808
C84	C	1.298344	0.302240	0.051548
C85	C	0.926258	0.400727	0.239976
C86	C	0.926264	0.331763	0.308936
C87	C	1.204071	0.378675	0.251003
C88	C	1.298363	0.302227	0.323706
C89	C	0.648412	0.829175	-0.177429
C90	C	0.554120	0.905623	-0.250132
C91	C	0.648426	0.829165	0.025767
C92	C	0.554139	0.905610	0.022026
C93	C	0.926224	0.807123	-0.166401
C94	C	0.926219	0.876087	-0.235362
C95	C	1.288372	0.270649	0.011467
C96	C	1.376957	0.198831	0.014966
C97	C	1.475513	0.158601	0.058551
C98	C	1.485484	0.190199	0.098634
C99	C	1.396900	0.262020	0.095130
C100	C	0.980518	0.295069	0.383159
C101	C	0.980520	0.230280	0.447961
C102	C	0.926273	0.202181	0.438538
C103	C	0.872012	0.238882	0.364308
C104	C	0.872005	0.303675	0.299508
C105	C	1.396899	0.262022	0.320324
C106	C	1.485505	0.190199	0.388630
C107	C	1.475574	0.158579	0.460318
C108	C	1.377028	0.198792	0.463698
C109	C	1.288424	0.270618	0.395393
C110	C	0.455584	0.945836	-0.246749
C111	C	0.366977	1.017679	-0.315056
C112	C	0.376909	1.049302	-0.386743
C113	C	0.475455	1.009085	-0.390123
C114	C	0.564059	0.937249	-0.321818
C115	C	0.564111	0.937208	0.062101
C116	C	0.475526	1.009044	0.058584
C117	C	0.376970	1.049276	0.014997
C118	C	0.366999	1.017675	-0.025083
C119	C	0.455583	0.945845	-0.021570
C120	C	0.980476	0.904164	-0.225915
C121	C	0.980491	0.968953	-0.290703
C122	C	0.926242	1.005667	-0.364939
C123	C	0.871983	0.977584	-0.374384
C124	C	0.871974	0.912791	-0.309596
H125	H	1.024657	0.317948	-0.031310
Br126	Br	0.233235	1.072284	-0.084232
H127	H	1.208130	0.303404	-0.024034
H128	H	0.644289	0.904507	-0.324581
Br129	Br	0.256757	1.146760	0.010237
Br130	Br	0.256648	1.146798	-0.479438
Br131	Br	0.410423	0.378434	0.149544
Br132	Br	1.054094	0.007095	-0.051673
H133	H	1.565738	0.157465	0.385864
H134	H	0.447479	0.785900	-0.054204
H135	H	0.827846	0.215994	0.356647
H136	H	1.024662	0.200392	-0.031298
Br137	Br	1.595835	0.061100	0.553012
H138	H	0.644353	0.904456	0.097600
Br139	Br	1.054153	0.333184	0.395968
H140	H	1.024652	0.874281	-0.165475
Br141	Br	0.926262	1.093601	-0.452858
Br142	Br	0.798372	0.353463	0.198779
Br143	Br	0.489082	1.051912	0.112985
Br144	Br	0.442030	0.902967	-0.075960
H145	H	0.208125	0.725523	-0.024000
Br146	Br	1.054129	1.007056	-0.277866
Br147	Br	0.798353	1.027428	-0.475138
H148	H	1.024646	-0.125715	-0.031294
Br149	Br	0.798322	0.874702	-0.322431
Br150	Br	1.363401	0.155963	-0.039435
H151	H	0.827812	-0.110090	0.104879
Br152	Br	1.619248	0.135588	0.157784
H153	H	0.644348	0.482318	0.097595
Br154	Br	0.798385	0.027364	0.125266
Br155	Br	1.054108	0.406703	-0.451295
Br156	Br	0.798401	0.200745	0.125262
Br157	Br	1.595726	0.061129	0.063298
H158	H	0.827831	0.333565	0.104870
Br159	Br	0.798347	0.801140	-0.475130
Br160	Br	0.798340	0.801129	-0.648504
Br161	Br	0.798354	0.801126	-0.801232
H162	H	0.565726	0.409197	0.134161
Br163	Br	1.410453	0.304880	0.149537
Br164	Br	0.442077	0.902933	-0.149468
H165	H	0.286750	0.798646	-0.060571
H166	H	1.024693	0.452117	-0.609136
Br167	Br	0.798328	0.801150	-0.322411
H168	H	0.483529	1.034843	-0.448500
Br169	Br	1.410406	0.304923	0.223043
Br170	Br	1.054166	0.180484	0.548692
H171	H	0.926287	0.149422	0.491309
H172	H	1.368957	0.173036	0.522075
Br173	Br	1.054134	0.406718	-0.277917
H174	H	1.208195	0.303345	0.398157
Br175	Br	1.054139	0.406723	-0.125189
H176	H	0.286746	1.050412	-0.312288
