data_functionalizedCrystal
_audit_creation_method	'MofGen! by Chris Wilmer'
_symmetry_space_group_name_H-M	'P1'
_symmetry_Int_Tables_number	1
_symmetry_cell_setting	triclinic
loop_
_symmetry_equiv_pos_as_xyz
  x,y,z
_cell_length_a	12.837943
_cell_length_b	17.699083
_cell_length_c	16.776229
_cell_angle_alpha	90.007545
_cell_angle_beta	90.005774
_cell_angle_gamma	89.055977
loop_
_atom_site_label
_atom_site_type_symbol
_atom_site_fract_x
_atom_site_fract_y
_atom_site_fract_z
O1	O	-1.374962	-0.196724	-0.066277
O2	O	-0.874962	0.303276	0.433723
O3	O	-1.073181	-0.187006	-0.066282
O4	O	-0.573181	0.312994	0.433718
O5	O	-1.232598	-0.082302	-0.066273
O6	O	-0.732598	0.417698	0.433727
O7	O	-1.215545	-0.301428	-0.066287
O8	O	-0.715545	0.198572	0.433713
O9	O	-1.232576	-0.082293	0.066304
O10	O	-0.732576	0.417707	0.566304
O11	O	-1.073160	-0.186997	0.066295
O12	O	-0.573160	0.313003	0.566295
O13	O	-1.374941	-0.196715	0.066299
O14	O	-0.874941	0.303285	0.566299
Zn15	Zn	-1.224047	-0.191855	0.087346
Zn16	Zn	-0.724047	0.308145	0.587346
Zn17	Zn	-1.224075	-0.191866	-0.087329
Zn18	Zn	-0.724075	0.308134	0.412671
O19	O	-1.215524	-0.301419	0.066290
O20	O	-0.715524	0.198581	0.566290
C21	C	-1.034558	-0.183719	0.000006
C22	C	-0.534558	0.316281	0.500006
C23	C	-0.919506	-0.173928	0.000004
C24	C	-0.419506	0.326072	0.500004
C25	C	-1.231976	-0.054056	0.000016
C26	C	-0.731976	0.445944	0.500016
C27	C	-1.230143	0.030097	0.000016
C28	C	-0.730143	0.530097	0.500016
C29	C	-1.413564	-0.200002	0.000010
C30	C	-0.913564	0.299998	0.500010
C31	C	-1.528616	-0.209793	0.000006
C32	C	-1.028616	0.290207	0.500006
C33	C	-0.678251	-0.291632	0.000008
C34	C	-0.178251	0.208368	0.500008
C35	C	-0.570148	-0.282436	0.000007
C36	C	-0.070148	0.217564	0.500007
C37	C	-0.595196	-0.146341	0.000008
C38	C	-0.095196	0.353659	0.500008
C39	C	-0.703298	-0.155537	0.000008
C40	C	-0.203298	0.344463	0.500008
C41	C	-0.744822	-0.228185	0.000007
C42	C	-0.244822	0.271815	0.500007
C43	C	-0.852926	-0.237380	0.000002
C44	C	-0.352926	0.262620	0.500002
C45	C	-0.877972	-0.101285	0.000009
C46	C	-0.377972	0.398715	0.500009
C47	C	-0.769869	-0.092090	0.000008
C48	C	-0.269869	0.407910	0.500008
C49	C	-1.216146	-0.329665	-0.000001
C50	C	-0.716146	0.170335	0.499999
C51	C	-1.217979	-0.413818	-0.000006
C52	C	-0.717979	0.086182	0.499994
N53	N	-1.224036	-0.191847	0.206557
N54	N	-0.724036	0.308153	0.706557
C55	C	-1.323717	0.071843	0.000019
C56	C	-0.823717	0.571843	0.500019
C57	C	-1.321989	0.150914	0.000012
C58	C	-0.821989	0.650914	0.500012
C59	C	-1.226685	0.188236	0.000008
C60	C	-0.726685	0.688236	0.500008
C61	C	-1.133103	0.146484	0.000003
C62	C	-0.633103	0.646484	0.500003
C63	C	-1.134833	0.067415	0.000004
C64	C	-0.634833	0.567415	0.500004
C65	C	-1.126126	0.465359	-0.000004
C66	C	-0.626126	0.965359	0.499996
C67	C	-1.124404	0.544434	-0.000003
C68	C	-0.624404	1.044434	0.499997
C69	C	-1.313282	0.548858	0.000004
C70	C	-0.813282	1.048858	0.500004
C71	C	-1.315011	0.469789	0.000005
C72	C	-0.815011	0.969789	0.500005
C73	C	-1.221430	0.428044	-0.000004
C74	C	-0.721430	0.928044	0.499996
C75	C	-1.223306	0.342307	0.000002
C76	C	-0.723306	0.842307	0.500002
C77	C	-1.224808	0.273972	0.000007
C78	C	-0.724808	0.773972	0.500007
N79	N	-1.224094	-0.191869	-0.206540
N80	N	-0.724094	0.308131	0.293460
C81	C	-1.294647	-0.145507	0.248279
C82	C	-0.794647	0.354493	0.748279
C83	C	-1.294652	-0.145507	0.331731
C84	C	-0.794652	0.354493	0.831731
C85	C	-1.224051	-0.191851	0.373460
C86	C	-0.724051	0.308149	0.873460
C87	C	-1.153433	-0.238193	0.331733
C88	C	-0.653433	0.261807	0.831733
C89	C	-1.153423	-0.238189	0.248282
C90	C	-0.653423	0.261811	0.748282
C91	C	-1.153470	-0.238211	0.668280
C92	C	-0.653470	0.261789	1.168280
C93	C	-1.153487	-0.238213	0.751737
C94	C	-0.653487	0.261787	1.251737
C95	C	-1.294700	-0.145529	0.751729
C96	C	-0.794700	0.354471	1.251729
C97	C	-1.294690	-0.145524	0.668278
C98	C	-0.794690	0.354476	1.168278
C99	C	-1.224068	-0.191863	0.626558
C100	C	-0.724068	0.308137	1.126558
C101	C	-1.224061	-0.191862	0.536070
C102	C	-0.724061	0.308138	1.036070
C103	C	-1.224062	-0.191857	0.463947
C104	C	-0.724062	0.308143	0.963947
H105	H	-0.712059	-0.350785	0.000006
H106	H	-0.212059	0.149215	0.500006
C107	C	-0.898607	-0.317286	0.000002
C108	C	-0.398607	0.182714	0.500002
H109	H	-0.972524	-0.313679	-0.000006
H110	H	-0.472524	0.186321	0.499994
H111	H	-0.875739	-0.343733	0.046234
H112	H	-0.375739	0.156267	0.546234
H113	H	-0.875749	-0.343742	-0.046237
H114	H	-0.375749	0.156258	0.453763
C115	C	-0.496923	-0.352228	0.000001
C116	C	0.003077	0.147772	0.500001
H117	H	-0.537140	-0.396809	-0.000006
H118	H	-0.037140	0.103191	0.499994
H119	H	-0.454221	-0.351467	0.046231
H120	H	0.045779	0.148533	0.546231
H121	H	-0.454244	-0.351473	-0.046240
H122	H	0.045756	0.148527	0.453760
H123	H	-1.058635	0.033426	0.000002
H124	H	-0.558635	0.533426	0.500002
C125	C	-0.549506	-0.066437	0.000017
C126	C	-0.049506	0.433563	0.500017
H127	H	-0.475590	-0.070051	0.000016
H128	H	0.024410	0.429949	0.500016
H129	H	-0.572365	-0.039981	0.046250
H130	H	-0.072365	0.460019	0.546250
H131	H	-0.572365	-0.039987	-0.046221
H132	H	-0.072365	0.460013	0.453779
C133	C	-0.724187	-0.012184	0.000005
C134	C	-0.224187	0.487816	0.500005
H135	H	-0.650270	-0.015793	-0.000001
H136	H	-0.150270	0.484207	0.499999
H137	H	-0.747044	0.014279	0.046234
H138	H	-0.247044	0.514279	0.546234
H139	H	-0.747054	0.014257	-0.046237
H140	H	-0.247054	0.514257	0.453763
C141	C	-0.951202	-0.031490	0.000007
C142	C	-0.451202	0.468510	0.500007
H143	H	-1.021532	-0.047370	0.000010
H144	H	-0.521532	0.452630	0.500010
H145	H	-0.938633	-0.002031	-0.046225
H146	H	-0.438633	0.497969	0.453775
H147	H	-0.938628	-0.002019	0.046245
H148	H	-0.438628	0.497981	0.546245
H149	H	-1.095969	-0.275943	0.634319
H150	H	-0.595969	0.224057	1.134319
C151	C	-1.424920	0.196832	0.000022
C152	C	-0.924920	0.696832	0.500022
H153	H	-1.481927	0.163280	0.000037
H154	H	-0.981927	0.663280	0.500037
H155	H	-1.428190	0.227763	-0.046209
H156	H	-0.928190	0.727763	0.453791
H157	H	-1.428156	0.227773	0.046261
H158	H	-0.928156	0.727773	0.546261
C159	C	-1.428553	0.030796	0.000023
C160	C	-0.928553	0.530796	0.500023
H161	H	-1.484034	0.066986	0.000016
H162	H	-0.984034	0.566986	0.500016
H163	H	-1.433150	0.000049	0.046255
H164	H	-0.933150	0.500049	0.546255
H165	H	-1.433160	0.000038	-0.046215
H166	H	-0.933160	0.500038	0.453785
H167	H	-1.392617	0.439406	0.000012
H168	H	-0.892617	0.939406	0.500012
C169	C	-1.075775	-0.289173	0.377633
C170	C	-0.575775	0.210827	0.877633
H171	H	-1.085900	-0.282545	0.433309
H172	H	-0.585900	0.217455	0.933309
H173	H	-1.006626	-0.275938	0.363972
H174	H	-0.506626	0.224062	0.863972
H175	H	-1.086906	-0.340495	0.363943
H176	H	-0.586906	0.159505	0.863943
H177	H	-1.389480	0.582857	0.000007
H178	H	-0.889480	1.082857	0.500007
H179	H	-1.352183	-0.107789	0.634304
H180	H	-0.852183	0.392211	1.134304
C181	C	-1.075820	-0.289190	0.797642
C182	C	-0.575820	0.210810	1.297642
H183	H	-1.085951	-0.282560	0.853317
H184	H	-0.585951	0.217440	1.353317
H185	H	-1.006672	-0.275949	0.783983
H186	H	-0.506672	0.224051	1.283983
H187	H	-1.086942	-0.340514	0.783954
H188	H	-0.586942	0.159486	1.283954
C189	C	-1.372373	-0.094547	0.797623
C190	C	-0.872373	0.405453	1.297623
H191	H	-1.362263	-0.101178	0.853299
H192	H	-0.862263	0.398822	1.353299
H193	H	-1.441517	-0.107784	0.783934
H194	H	-0.941517	0.392216	1.283934
H195	H	-1.361241	-0.043224	0.783954
H196	H	-0.861241	0.456776	1.283954
C197	C	-1.019565	0.585487	-0.000018
C198	C	-0.519565	1.085487	0.499982
H199	H	-0.964078	0.549301	-0.000032
H200	H	-0.464078	1.049301	0.499968
H201	H	-1.014949	0.616247	0.046213
H202	H	-0.514949	1.116247	0.546213
H203	H	-1.014986	0.616233	-0.046257
H204	H	-0.514986	1.116233	0.453743
H205	H	-1.095923	-0.275923	0.214314
H206	H	-0.595923	0.224077	0.714314
H207	H	-1.055505	0.176878	-0.000005
H208	H	-0.555505	0.676878	0.499995
C209	C	-1.023192	0.419449	0.000000
C210	C	-0.523192	0.919449	0.500000
H211	H	-0.966188	0.453004	0.000009
H212	H	-0.466188	0.953004	0.500009
H213	H	-1.019937	0.388504	-0.046230
H214	H	-0.519937	0.888504	0.453770
H215	H	-1.019937	0.388522	0.046240
H216	H	-0.519937	0.888522	0.546240
C217	C	-1.372308	-0.094526	0.202383
C218	C	-0.872308	0.405474	0.702383
H219	H	-1.414354	-0.066922	0.239186
H220	H	-0.914354	0.433078	0.739186
H221	H	-1.415376	-0.124873	0.169816
H222	H	-0.915376	0.375127	0.669816
H223	H	-1.335096	-0.060316	0.169844
H224	H	-0.835096	0.439684	0.669844
H225	H	-1.352149	-0.107772	0.365700
H226	H	-0.852149	0.392228	0.865700
