data_functionalizedCrystal
_audit_creation_method	'MofGen! by Chris Wilmer'
_symmetry_space_group_name_H-M	'P1'
_symmetry_Int_Tables_number	1
_symmetry_cell_setting	triclinic
loop_
_symmetry_equiv_pos_as_xyz
  x,y,z
_cell_length_a	23.532355
_cell_length_b	22.610064
_cell_length_c	11.026607
_cell_angle_alpha	89.992890
_cell_angle_beta	84.293256
_cell_angle_gamma	89.995669
loop_
_atom_site_label
_atom_site_type_symbol
_atom_site_fract_x
_atom_site_fract_y
_atom_site_fract_z
O1	O	-0.770724	0.049129	0.146806
O2	O	-0.270724	0.549129	0.646806
O3	O	-0.607102	0.049141	0.168159
O4	O	-0.107102	0.549141	0.668159
O5	O	-0.675352	0.049134	-0.019002
O6	O	-0.175352	0.549134	0.480998
O7	O	-0.702474	0.049136	0.333966
O8	O	-0.202474	0.549136	0.833966
O9	O	-0.675339	-0.049235	-0.018975
O10	O	-0.175339	0.450765	0.481025
O11	O	-0.607089	-0.049228	0.168186
O12	O	-0.107089	0.450772	0.668186
O13	O	-0.770711	-0.049240	0.146833
O14	O	-0.270711	0.450760	0.646833
Zn15	Zn	-0.688898	-0.064852	0.157514
Zn16	Zn	-0.188898	0.435148	0.657514
Zn17	Zn	-0.688915	0.064753	0.157478
Zn18	Zn	-0.188915	0.564753	0.657478
O19	O	-0.702461	-0.049233	0.333994
O20	O	-0.202461	0.450767	0.833994
C21	C	-0.585823	-0.000042	0.167639
C22	C	-0.085823	0.499958	0.667639
C23	C	-0.522436	-0.000037	0.166034
C24	C	-0.022436	0.499963	0.666034
C25	C	-0.248460	0.053578	0.159001
C26	C	0.251540	0.553578	0.659001
C27	C	-0.308019	0.053580	0.160519
C28	C	0.191981	0.553580	0.660519
O29	O	-0.338829	0.099182	0.161250
O30	O	0.161171	0.599182	0.661250
N31	N	-0.337799	-0.000041	0.161302
N32	N	0.162201	0.499959	0.661302
C33	C	-0.308015	-0.053667	0.160553
C34	C	0.191985	0.446333	0.660553
O35	O	-0.338814	-0.099276	0.161356
O36	O	0.161186	0.400724	0.661356
C37	C	-0.248456	-0.053668	0.159025
C38	C	0.251544	0.446332	0.659025
C39	C	-0.218680	-0.000044	0.158255
C40	C	0.281320	0.499956	0.658255
C41	C	-0.218684	0.107199	0.158229
C42	C	0.281316	0.607199	0.658229
C43	C	-0.159128	0.107196	0.156713
C44	C	0.340872	0.607196	0.656713
C45	C	-0.129349	0.053574	0.155967
C46	C	0.370651	0.553574	0.655967
C47	C	-0.159125	-0.000046	0.156738
C48	C	0.340875	0.499954	0.656738
C49	C	-0.218673	-0.107294	0.158267
C50	C	0.281327	0.392706	0.658267
C51	C	-0.159110	-0.107291	0.156738
C52	C	0.340890	0.392709	0.656738
C53	C	-0.129334	-0.053666	0.155968
C54	C	0.370666	0.446334	0.655968
C55	C	-0.069790	-0.053671	0.154476
C56	C	0.430210	0.446329	0.654476
N57	N	-0.040010	-0.000050	0.153694
N58	N	0.459990	0.499950	0.653694
C59	C	-0.069790	0.053573	0.154440
C60	C	0.430210	0.553573	0.654440
C61	C	-0.433093	-0.053660	0.163759
C62	C	0.066907	0.446340	0.663759
C63	C	-0.492651	-0.053660	0.165295
C64	C	0.007349	0.446340	0.665295
C65	C	-0.492651	0.053588	0.165259
C66	C	0.007349	0.553588	0.665259
C67	C	-0.433092	0.053587	0.163732
C68	C	0.066908	0.553587	0.663732
C69	C	-0.403313	-0.000039	0.162976
C70	C	0.096687	0.499961	0.662976
C71	C	0.055281	0.053564	0.151256
C72	C	0.555281	0.553564	0.651256
C73	C	0.114841	0.053557	0.149744
C74	C	0.614841	0.553557	0.649744
C75	C	0.114836	-0.053690	0.149773
C76	C	0.614836	0.446310	0.649773
C77	C	0.055281	-0.053684	0.151291
C78	C	0.555281	0.446316	0.651291
C79	C	0.025505	-0.000052	0.152028
C80	C	0.525505	0.499948	0.652028
O81	O	-0.038942	-0.099249	0.153740
O82	O	0.461058	0.400751	0.653740
O83	O	-0.038983	0.099174	0.153620
O84	O	0.461017	0.599174	0.653620
N85	N	-0.688891	-0.153305	0.157538
N86	N	-0.188891	0.346695	0.657538
C87	C	-0.719139	-0.561950	0.074616
C88	C	-0.219139	-0.061950	0.574616
C89	C	-0.719141	-0.623869	0.074607
C90	C	-0.219141	-0.123869	0.574607
O91	O	-0.744837	-0.655891	0.004122
O92	O	-0.244837	-0.155891	0.504122
N93	N	-0.688912	-0.654842	0.157453
N94	N	-0.188912	-0.154842	0.657453
C95	C	-0.658674	-0.623891	0.240305
C96	C	-0.158674	-0.123891	0.740305
O97	O	-0.632961	-0.655922	0.310770
O98	O	-0.132961	-0.155922	0.810770
C99	C	-0.658669	-0.561973	0.240307
C100	C	-0.158669	-0.061973	0.740307
C101	C	-0.688905	-0.531003	0.157464
C102	C	-0.188905	-0.031003	0.657464
C103	C	-0.749372	-0.530980	-0.008222
C104	C	-0.249372	-0.030980	0.491778
C105	C	-0.749371	-0.469064	-0.008211
C106	C	-0.249371	0.030936	0.491789
C107	C	-0.719136	-0.438118	0.074637
C108	C	-0.219136	0.061882	0.574637
C109	C	-0.688904	-0.469088	0.157474
C110	C	-0.188904	0.030912	0.657474
C111	C	-0.628428	-0.531023	0.323152
C112	C	-0.128428	-0.031023	0.823152
C113	C	-0.628425	-0.469100	0.323146
C114	C	-0.128425	0.030900	0.823146
C115	C	-0.658661	-0.438131	0.240303
C116	C	-0.158661	0.061869	0.740303
C117	C	-0.658668	-0.376226	0.240333
C118	C	-0.158668	0.123774	0.740333
N119	N	-0.688897	-0.345253	0.157487
N120	N	-0.188897	0.154747	0.657487
C121	C	-0.719132	-0.376199	0.074639
C122	C	-0.219132	0.123801	0.574639
C123	C	-0.658686	-0.753925	0.240292
C124	C	-0.158686	-0.253925	0.740292
C125	C	-0.658694	-0.815843	0.240297
C126	C	-0.158694	-0.315843	0.740297
C127	C	-0.719160	-0.815816	0.074598
C128	C	-0.219160	-0.315816	0.574598
C129	C	-0.719155	-0.753898	0.074600
C130	C	-0.219155	-0.253898	0.574600
C131	C	-0.688915	-0.722953	0.157447
C132	C	-0.188915	-0.222953	0.657447
C133	C	-0.719127	-0.246172	0.074668
C134	C	-0.219127	0.253828	0.574668
C135	C	-0.719125	-0.184251	0.074690
C136	C	-0.219125	0.315749	0.574690
C137	C	-0.658656	-0.184283	0.240384
C138	C	-0.158656	0.315717	0.740384
C139	C	-0.658661	-0.246198	0.240368
C140	C	-0.158661	0.253802	0.740368
C141	C	-0.688897	-0.277142	0.157500
C142	C	-0.188897	0.222858	0.657500
O143	O	-0.632984	-0.344165	0.310778
O144	O	-0.132984	0.155835	0.810778
O145	O	-0.744834	-0.344162	0.004175
O146	O	-0.244834	0.155838	0.504175
C147	C	0.208010	-0.000058	0.147363
C148	C	0.708010	0.499942	0.647363
C149	C	0.144621	-0.000065	0.148999
C150	C	0.644621	0.499935	0.648999
C151	C	-0.670342	-0.000050	-0.064137
C152	C	-0.170342	0.499950	0.435863
C153	C	-0.655427	-0.000046	-0.198665
C154	C	-0.155427	0.499954	0.301335
N155	N	-0.688926	0.153206	0.157444
N156	N	-0.188926	0.653206	0.657444
C157	C	-0.696611	-0.000049	-0.272984
C158	C	-0.196611	0.499951	0.227016
C159	C	-0.681196	-0.000045	-0.412026
C160	C	-0.181196	0.499955	0.087974
C161	C	-0.707471	-0.000048	0.379129
C162	C	-0.207471	0.499952	0.879129
C163	C	-0.722386	-0.000048	0.513657
C164	C	-0.222386	0.499952	1.013657
H165	H	-0.408853	0.097253	0.163105
H166	H	0.091147	0.597253	0.663105
C167	C	-0.592377	-0.000041	-0.251758
C168	C	-0.092377	0.499959	0.248242
H169	H	-0.590288	-0.000043	-0.338245
H170	H	-0.090288	0.499957	0.161755
H171	H	-0.573976	0.034263	-0.224901
H172	H	-0.073976	0.534263	0.275099
H173	H	-0.573970	-0.034349	-0.224892
H174	H	-0.073970	0.465651	0.275108
H175	H	0.139082	0.097227	0.149121
H176	H	0.639082	0.597227	0.649121
H177	H	0.031044	0.097236	0.151858
H178	H	0.531044	0.597236	0.651858
C179	C	-0.625376	-0.280266	0.331446
C180	C	-0.125376	0.219734	0.831446
H181	H	-0.607359	-0.252965	0.380770
H182	H	-0.107359	0.247035	0.880770
H183	H	-0.650984	-0.304441	0.381686
H184	H	-0.150984	0.195559	0.881686
H185	H	-0.597229	-0.304401	0.288044
H186	H	-0.097229	0.195599	0.788044
H187	H	-0.634042	-0.159077	0.307842
H188	H	-0.134042	0.340923	0.807842
C189	C	-0.782636	-0.565012	-0.099356
C190	C	-0.282636	-0.065012	0.400644
H191	H	-0.800641	-0.537691	-0.148676
H192	H	-0.300641	-0.037691	0.351324
H193	H	-0.757012	-0.589169	-0.149592
H194	H	-0.257012	-0.089169	0.350408
H195	H	-0.810791	-0.589160	-0.056015
H196	H	-0.310791	-0.089160	0.443985
C197	C	-0.759661	-0.000056	-0.219891
C198	C	-0.259661	0.499944	0.280109
H199	H	-0.761750	-0.000061	-0.133404
H200	H	-0.261750	0.499939	0.366596
H201	H	-0.778071	0.034245	-0.246759
H202	H	-0.278071	0.534245	0.253241
H203	H	-0.778058	-0.034366	-0.246746
H204	H	-0.278058	0.465634	0.253254
H205	H	-0.743747	-0.271359	0.007188
H206	H	-0.243747	0.228641	0.507188
C207	C	-0.126381	0.166184	0.155835
C208	C	0.373619	0.666184	0.655835
H209	H	-0.152653	0.198115	0.156479
H210	H	0.347347	0.698115	0.656479
H211	H	-0.106042	0.168426	0.225916
H212	H	0.393958	0.668426	0.725916
H213	H	-0.100252	0.168407	0.084538
H214	H	0.399748	0.668407	0.584538
C215	C	-0.251432	0.166188	0.159059
C216	C	0.248568	0.666188	0.659059
H217	H	-0.225161	0.198117	0.158391
H218	H	0.274839	0.698117	0.658391
H219	H	-0.271770	0.168428	0.088975
H220	H	0.228230	0.668428	0.588975
H221	H	-0.277562	0.168419	0.230353
H222	H	0.222438	0.668419	0.730353
H223	H	-0.634522	-0.000038	-0.451331
H224	H	-0.134522	0.499962	0.048669
C225	C	-0.785440	-0.000058	-0.433259
C226	C	-0.285440	0.499942	0.066741
H227	H	-0.787530	-0.000065	-0.346772
H228	H	-0.287530	0.499935	0.153228
H229	H	-0.803852	0.034242	-0.460127
H230	H	-0.303852	0.534242	0.039873
H231	H	-0.803834	-0.034369	-0.460117
H232	H	-0.303834	0.465631	0.039883
H233	H	-0.516908	0.097250	0.165866
H234	H	-0.016908	0.597250	0.665866
C235	C	-0.595174	-0.565076	0.414291
C236	C	-0.095174	-0.065076	0.914291
H237	H	-0.577167	-0.537769	0.463619
H238	H	-0.077167	-0.037769	0.963619
H239	H	-0.620808	-0.589229	0.464518
H240	H	-0.120808	-0.089229	0.964518
H241	H	-0.567022	-0.589232	0.370963
H242	H	-0.067022	-0.089232	0.870963
C243	C	0.147606	-0.112670	0.148850
C244	C	0.647606	0.387330	0.648850
H245	H	0.187342	-0.104986	0.147792
H246	H	0.687342	0.395014	0.647792
H247	H	0.134968	-0.134738	0.219754
H248	H	0.634968	0.365262	0.719754
H249	H	0.140733	-0.134668	0.078377
H250	H	0.640733	0.365332	0.578377
H251	H	-0.408851	-0.097332	0.163159
H252	H	0.091149	0.402668	0.663159
C253	C	-0.525399	-0.112646	0.166147
C254	C	-0.025399	0.387354	0.666147
H255	H	-0.499127	-0.144579	0.165475
H256	H	0.000873	0.355421	0.665475
H257	H	-0.551536	-0.114880	0.237420
H258	H	-0.051536	0.385120	0.737420
H259	H	-0.545727	-0.114876	0.096042
H260	H	-0.045727	0.385124	0.596042
H261	H	-0.743749	-0.159038	0.007229
H262	H	-0.243749	0.340962	0.507229
C263	C	-0.251414	-0.166282	0.159117
C264	C	0.248586	0.333718	0.659117
H265	H	-0.225140	-0.198213	0.158442
H266	H	0.274860	0.301787	0.658442
H267	H	-0.277548	-0.168517	0.230396
H268	H	0.222452	0.331483	0.730396
H269	H	-0.271746	-0.168515	0.089018
H270	H	0.228254	0.331485	0.589018
C271	C	-0.752415	-0.849862	-0.016543
C272	C	-0.252415	-0.349862	0.483457
H273	H	-0.770424	-0.822553	-0.065882
H274	H	-0.270424	-0.322553	0.434118
H275	H	-0.726780	-0.874017	-0.066761
H276	H	-0.226780	-0.374017	0.433239
H277	H	-0.780565	-0.874016	0.026798
H278	H	-0.280565	-0.374016	0.526798
C279	C	-0.126357	-0.166281	0.155915
C280	C	0.373643	0.333719	0.655915
H281	H	-0.152625	-0.198214	0.156602
H282	H	0.347375	0.301786	0.656602
H283	H	-0.100221	-0.168514	0.084641
H284	H	0.399779	0.331486	0.584641
H285	H	-0.106027	-0.168512	0.226019
H286	H	0.393973	0.331488	0.726019
H287	H	0.031035	-0.097349	0.151942
H288	H	0.531035	0.402651	0.651942
H289	H	-0.743775	-0.728686	0.007141
H290	H	-0.243775	-0.228686	0.507141
C291	C	-0.782622	-0.435006	-0.099353
C292	C	-0.282622	0.064994	0.400647
H293	H	-0.800621	-0.462312	-0.148698
H294	H	-0.300621	0.037688	0.351302
H295	H	-0.810771	-0.410848	-0.056035
H296	H	-0.310771	0.089152	0.443965
H297	H	-0.756982	-0.410855	-0.149581
H298	H	-0.256982	0.089145	0.350419
H299	H	-0.634080	-0.841054	0.307768
H300	H	-0.134080	-0.341054	0.807768
H301	H	-0.634063	-0.728733	0.307766
H302	H	-0.134063	-0.228733	0.807766
H303	H	-0.603798	-0.443908	0.390609
H304	H	-0.103798	0.056092	0.890609
