data_functionalizedCrystal
_audit_creation_method	'MofGen! by Chris Wilmer'
_symmetry_space_group_name_H-M	'P1'
_symmetry_Int_Tables_number	1
_symmetry_cell_setting	triclinic
loop_
_symmetry_equiv_pos_as_xyz
  x,y,z
_cell_length_a	11.792241
_cell_length_b	9.065215
_cell_length_c	8.140239
_cell_angle_alpha	90.001034
_cell_angle_beta	90.003307
_cell_angle_gamma	84.604057
loop_
_atom_site_label
_atom_site_type_symbol
_atom_site_fract_x
_atom_site_fract_y
_atom_site_fract_z
O1	O	0.166414	1.958838	0.136599
O2	O	0.499747	2.292171	0.469932
O3	O	0.833080	2.625505	0.803266
O4	O	0.180069	1.529425	0.136606
O5	O	0.513402	1.862758	0.469939
O6	O	0.846735	2.196091	0.803272
O7	O	0.008128	1.754552	0.136591
O8	O	0.341462	2.087885	0.469924
O9	O	0.674795	2.421219	0.803257
O10	O	0.338354	1.733711	0.136614
O11	O	0.671687	2.067044	0.469947
O12	O	1.005021	2.400377	0.803281
O13	O	0.008127	1.754545	-0.136636
O14	O	0.341460	2.087878	0.196697
O15	O	0.674794	2.421212	0.530030
O16	O	0.180067	1.529418	-0.136621
O17	O	0.513401	1.862751	0.196712
O18	O	0.846734	2.196084	0.530045
O19	O	0.166412	1.958831	-0.136628
O20	O	0.499746	2.292164	0.196705
O21	O	0.833079	2.625498	0.530039
Zn22	Zn	0.173240	1.744123	-0.180005
Zn23	Zn	0.506573	2.077456	0.153328
Zn24	Zn	0.839906	2.410790	0.486661
Zn25	Zn	0.173241	1.744133	0.179983
Zn26	Zn	0.506575	2.077466	0.513316
Zn27	Zn	0.839908	2.410799	0.846650
O28	O	0.338353	1.733704	-0.136613
O29	O	0.671686	2.067037	0.196720
O30	O	1.005019	2.400370	0.530054
C31	C	-0.034171	1.753239	-0.000022
C32	C	0.299163	2.086573	0.333311
C33	C	0.632496	2.419906	0.666644
C34	C	-0.160206	1.749321	-0.000021
C35	C	0.173127	2.082654	0.333313
C36	C	0.506461	2.415988	0.666646
C37	C	0.178756	1.474447	-0.000007
C38	C	0.512090	1.807780	0.333326
C39	C	0.845423	2.141113	0.666660
C40	C	0.174835	1.310640	-0.000005
C41	C	0.508168	1.643974	0.333328
C42	C	0.841501	1.977307	0.666662
C43	C	0.167725	2.013809	-0.000012
C44	C	0.501058	2.347142	0.333322
C45	C	0.834391	2.680476	0.666655
C46	C	0.171646	2.177615	-0.000003
C47	C	0.504980	2.510949	0.333330
C48	C	0.838313	2.844282	0.666663
C49	C	-0.390958	1.742116	0.000007
C50	C	-0.057625	2.075449	0.333340
C51	C	0.275709	2.408782	0.666674
C52	C	-0.262551	1.746119	-0.000008
C53	C	0.070783	2.079452	0.333325
C54	C	0.404116	2.412786	0.666659
C55	C	0.380652	1.735016	0.000003
C56	C	0.713985	2.068350	0.333337
C57	C	1.047318	2.401683	0.666670
C58	C	0.506687	1.738935	0.000013
C59	C	0.840020	2.072268	0.333346
C60	C	1.173354	2.405601	0.666679
N61	N	0.173238	1.744127	-0.425688
N62	N	0.506571	2.077461	-0.092355
N63	N	0.839905	2.410794	0.240979
N64	N	0.173234	1.744140	0.425666
N65	N	0.506568	2.077473	0.758999
N66	N	0.839901	2.410807	1.092332
