data_functionalizedCrystal
_audit_creation_method	'MofGen! by Chris Wilmer'
_symmetry_space_group_name_H-M	'P1'
_symmetry_Int_Tables_number	1
_symmetry_cell_setting	triclinic
loop_
_symmetry_equiv_pos_as_xyz
  x,y,z
_cell_length_a	15.944551
_cell_length_b	26.210047
_cell_length_c	15.944551
_cell_angle_alpha	89.996450
_cell_angle_beta	83.498738
_cell_angle_gamma	90.004547
loop_
_atom_site_label
_atom_site_type_symbol
_atom_site_fract_x
_atom_site_fract_y
_atom_site_fract_z
O1	O	1.114531	0.042377	0.108320
O2	O	1.447864	0.375710	0.441653
O3	O	1.781198	0.709044	0.774987
O4	O	0.869981	0.042390	0.121676
O5	O	1.203315	0.375723	0.455010
O6	O	1.536648	0.709056	0.788343
O7	O	0.998934	0.042378	-0.007277
O8	O	1.332268	0.375712	0.326057
O9	O	1.665601	0.709045	0.659390
O10	O	0.985578	0.042388	0.237273
O11	O	1.318911	0.375722	0.570606
O12	O	1.652245	0.709055	0.903940
O13	O	0.998909	-0.042480	-0.007257
O14	O	1.332243	0.290854	0.326077
O15	O	1.665576	0.624187	0.659410
O16	O	0.869956	-0.042468	0.121696
O17	O	1.203290	0.290865	0.455030
O18	O	1.536623	0.624198	0.788363
O19	O	1.114506	-0.042481	0.108340
O20	O	1.447839	0.290852	0.441673
O21	O	1.781173	0.624185	0.775007
Cu22	Cu	0.992229	-0.050223	0.115020
Cu23	Cu	1.325562	0.283110	0.448353
Cu24	Cu	1.658896	0.616444	0.781687
Cu25	Cu	0.992258	0.050132	0.114996
Cu26	Cu	1.325592	0.383465	0.448330
Cu27	Cu	1.658925	0.716798	0.781663
O28	O	0.985553	-0.042470	0.237293
O29	O	1.318887	0.290864	0.570626
O30	O	1.652220	0.624197	0.903960
C31	C	0.838675	-0.000038	0.121132
C32	C	1.172008	0.333296	0.454465
C33	C	1.505342	0.666629	0.787798
C34	C	0.745429	-0.000033	0.119470
C35	C	1.078762	0.333300	0.452803
C36	C	1.412096	0.666634	0.786136
N37	N	0.992214	-0.120807	0.115036
N38	N	1.325548	0.212526	0.448370
N39	N	1.658881	0.545860	0.781703
C40	C	0.530572	-0.000046	0.035565
C41	C	0.863906	0.333287	0.368898
C42	C	1.197239	0.666620	0.702232
C43	C	0.469564	0.041795	0.074518
C44	C	0.802898	0.375128	0.407851
C45	C	1.136231	0.708462	0.741184
C46	C	0.574703	-0.000039	0.116462
C47	C	0.908036	0.333294	0.449796
C48	C	1.241370	0.666628	0.783129
C49	C	0.469562	-0.041869	0.074557
C50	C	0.802895	0.291465	0.407890
C51	C	1.136229	0.624798	0.741223
C52	C	0.409790	-0.000047	0.113551
C53	C	0.743124	0.333286	0.446885
C54	C	1.076457	0.666619	0.780218
C55	C	0.514923	0.041837	0.155437
C56	C	0.848257	0.375170	0.488770
C57	C	1.181590	0.708503	0.822104
C58	C	0.514927	-0.041864	0.155465
C59	C	0.848261	0.291469	0.488798
C60	C	1.181594	0.624802	0.822131
C61	C	0.453937	-0.000013	0.194476
C62	C	0.787271	0.333320	0.527809
C63	C	1.120604	0.666654	0.861143
C64	C	0.669705	-0.000034	0.118137
C65	C	1.003039	0.333299	0.451470
C66	C	1.336372	0.666633	0.784803
C67	C	0.314789	-0.000049	0.111883
C68	C	0.648123	0.333285	0.445217
C69	C	0.981456	0.666618	0.778550
C70	C	1.049353	-0.473326	0.057909
C71	C	1.382686	-0.139993	0.391242
C72	C	1.716020	0.193341	0.724575
C73	C	1.049372	-0.686985	0.057897
C74	C	1.382705	-0.353651	0.391231
C75	C	1.716038	-0.020318	0.724564
O76	O	1.097920	-0.714611	0.009329
O77	O	1.431254	-0.381277	0.342662
O78	O	1.764587	-0.047944	0.675996
N79	N	0.992263	-0.713701	0.114978
N80	N	1.325596	-0.380367	0.448311
N81	N	1.658930	-0.047034	0.781645
C82	C	0.935142	-0.686999	0.172062
C83	C	1.268475	-0.353666	0.505395
C84	C	1.601809	-0.020332	0.838728
O85	O	0.886562	-0.714625	0.220606
O86	O	1.219896	-0.381292	0.553940
O87	O	1.553229	-0.047959	0.887273
C88	C	0.935120	-0.473342	0.172069
C89	C	1.268453	-0.140008	0.505402
C90	C	1.601787	0.193325	0.838735
C91	C	0.992238	-0.446628	0.114990
C92	C	1.325572	-0.113295	0.448323
C93	C	1.658905	0.220039	0.781657
C94	C	1.106466	-0.446612	0.000834
C95	C	1.439799	-0.113279	0.334167
C96	C	1.773132	0.220054	0.667501
C97	C	1.106464	-0.393201	0.000841
C98	C	1.439797	-0.059868	0.334174
C99	C	1.773130	0.273466	0.667507
C100	C	1.049349	-0.366503	0.057922
C101	C	1.382682	-0.033170	0.391255
C102	C	1.716015	0.300164	0.724589
C103	C	0.992236	-0.393217	0.114997
C104	C	1.325569	-0.059883	0.448330
C105	C	1.658903	0.273450	0.781663
C106	C	0.877996	-0.446641	0.229148
C107	C	1.211329	-0.113307	0.562481
C108	C	1.544663	0.220026	0.895815
C109	C	0.877994	-0.393223	0.229143
C110	C	1.211327	-0.059890	0.562477
C111	C	1.544661	0.273444	0.895810
C112	C	0.935112	-0.366510	0.172065
C113	C	1.268445	-0.033176	0.505398
C114	C	1.601779	0.300157	0.838731
C115	C	0.935119	-0.313107	0.172084
C116	C	1.268452	0.020226	0.505418
C117	C	1.601786	0.353559	0.838751
N118	N	0.992228	-0.286391	0.115004
N119	N	1.325561	0.046942	0.448337
N120	N	1.658894	0.380276	0.781670
C121	C	1.049342	-0.313089	0.057923
C122	C	1.382676	0.020244	0.391256
C123	C	1.716009	0.353578	0.724589
C124	C	0.935159	-0.799172	0.172055
C125	C	1.268492	-0.465839	0.505389
C126	C	1.601825	-0.132506	0.838722
C127	C	0.935165	-0.852587	0.172055
C128	C	1.268498	-0.519253	0.505388
C129	C	1.601832	-0.185920	0.838721
C130	C	1.049394	-0.852568	0.057889
C131	C	1.382727	-0.519235	0.391222
C132	C	1.716060	-0.185902	0.724555
C133	C	1.049391	-0.799153	0.057894
C134	C	1.382724	-0.465820	0.391227
C135	C	1.716057	-0.132487	0.724561
C136	C	0.992267	-0.772456	0.114975
C137	C	1.325600	-0.439123	0.448308
C138	C	1.658934	-0.105790	0.781641
C139	C	1.049334	-0.200921	0.057941
C140	C	1.382668	0.132412	0.391274
C141	C	1.716001	0.465746	0.724608
C142	C	1.049329	-0.147505	0.057955
C143	C	1.382663	0.185829	0.391288
C144	C	1.715996	0.519162	0.724622
C145	C	0.935098	-0.147528	0.172118
C146	C	1.268431	0.185806	0.505451
C147	C	1.601765	0.519139	0.838784
C148	C	0.935105	-0.200939	0.172107
C149	C	1.268439	0.132394	0.505440
C150	C	1.601772	0.465727	0.838774
C151	C	0.992227	-0.227635	0.115012
C152	C	1.325560	0.105699	0.448345
C153	C	1.658893	0.439032	0.781678
O154	O	0.886589	-0.285448	0.220621
O155	O	1.219923	0.047885	0.553954
O156	O	1.553256	0.381219	0.887287
O157	O	1.097902	-0.285453	0.009373
O158	O	1.431236	0.047880	0.342706
O159	O	1.764569	0.381213	0.676039
C160	C	1.049355	-0.526737	0.057902
C161	C	1.382688	-0.193404	0.391236
C162	C	1.716022	0.139929	0.724569
C163	C	0.992242	-0.553451	0.114977
C164	C	1.325576	-0.220118	0.448310
C165	C	1.658909	0.113216	0.781644
C166	C	0.935128	-0.526753	0.172058
C167	C	1.268461	-0.193420	0.505392
C168	C	1.601794	0.139914	0.838725
C169	C	0.992249	-0.606865	0.114976
C170	C	1.325582	-0.273532	0.448310
C171	C	1.658915	0.059802	0.781643
C172	C	1.049364	-0.633563	0.057895
C173	C	1.382697	-0.300230	0.391228
C174	C	1.716030	0.033104	0.724562
C175	C	1.106472	-0.606847	0.000814
C176	C	1.439805	-0.273513	0.334148
C177	C	1.773139	0.059820	0.667481
C178	C	1.106470	-0.553435	0.000821
C179	C	1.439803	-0.220102	0.334154
C180	C	1.773137	0.113231	0.667488
C181	C	0.878019	-0.553469	0.229139
C182	C	1.211352	-0.220136	0.562472
C183	C	1.544686	0.113197	0.895806
C184	C	0.878026	-0.606881	0.229128
C185	C	1.211360	-0.273547	0.562462
C186	C	1.544693	0.059786	0.895795
C187	C	0.935141	-0.633579	0.172047
C188	C	1.268475	-0.300245	0.505380
C189	C	1.601808	0.033088	0.838714
C190	C	1.145813	-0.000053	0.108885
C191	C	1.479146	0.333281	0.442218
C192	C	1.812479	0.666614	0.775551
C193	C	1.239059	-0.000054	0.110547
C194	C	1.572392	0.333279	0.443880
C195	C	1.905725	0.666613	0.777214
C196	C	0.998367	-0.000051	-0.038561
C197	C	1.331701	0.333283	0.294773
C198	C	1.665034	0.666616	0.628106
C199	C	0.996705	-0.000051	-0.131807
C200	C	1.330038	0.333282	0.201527
C201	C	1.663372	0.666616	0.534860
N202	N	0.992280	0.120715	0.114973
N203	N	1.325613	0.454049	0.448307
N204	N	1.658946	0.787382	0.781640
C205	C	0.912801	-0.000039	-0.346663
C206	C	1.246134	0.333294	-0.013330
C207	C	1.579467	0.666627	0.320003
C208	C	0.951751	-0.041882	-0.407671
C209	C	1.285084	0.291452	-0.074337
C210	C	1.618418	0.624785	0.258996
C211	C	0.993698	-0.000047	-0.302533
C212	C	1.327031	0.333286	0.030801
C213	C	1.660365	0.666620	0.364134
C214	C	0.951794	0.041782	-0.407674
C215	C	1.285128	0.375115	-0.074341
C216	C	1.618461	0.708448	0.258993
C217	C	0.990787	-0.000041	-0.467445
C218	C	1.324120	0.333293	-0.134112
C219	C	1.657454	0.666626	0.199221
C220	C	1.032670	-0.041924	-0.362312
C221	C	1.366003	0.291410	-0.028978
C222	C	1.699337	0.624743	0.304355
C223	C	1.032702	0.041777	-0.362309
C224	C	1.366036	0.375111	-0.028975
C225	C	1.699369	0.708444	0.304358
C226	C	1.071711	-0.000075	-0.423298
C227	C	1.405045	0.333258	-0.089965
C228	C	1.738378	0.666592	0.243368
C229	C	0.995372	-0.000051	-0.207530
C230	C	1.328706	0.333283	0.125803
C231	C	1.662039	0.666616	0.459136
C232	C	0.989119	-0.000040	-0.562446
C233	C	1.322452	0.333293	-0.229113
C234	C	1.655785	0.666626	0.104220
C235	C	0.986120	-0.000040	0.268577
C236	C	1.319453	0.333294	0.601910
C237	C	1.652787	0.666627	0.935244
C238	C	0.987782	-0.000036	0.361823
C239	C	1.321116	0.333297	0.695156
C240	C	1.654449	0.666631	1.028490
H241	H	0.563905	0.000003	-0.031573
H242	H	0.897238	0.333336	0.301760
H243	H	1.230572	0.666669	0.635094
F244	F	0.443294	0.088028	0.029786
F245	F	0.776627	0.421362	0.363120
F246	F	1.109960	0.754695	0.696453
F247	F	0.817202	-0.475062	0.289898
F248	F	1.150535	-0.141728	0.623231
F249	F	1.483869	0.191605	0.956564
F250	F	0.907066	0.088015	-0.433945
F251	F	1.240400	0.421348	-0.100612
F252	F	1.573733	0.754682	0.232722
F253	F	0.541059	0.088123	0.200116
F254	F	0.874392	0.421456	0.533449
F255	F	1.207726	0.754790	0.866782
F256	F	0.825033	-0.000087	-0.303129
F257	F	1.158367	0.333246	0.030205
F258	F	1.491700	0.666580	0.363538
H259	H	0.420779	0.000013	0.261683
H260	H	0.754112	0.333346	0.595016
H261	H	1.087445	0.666680	0.928350
H262	H	1.152975	-0.468345	-0.045652
H263	H	1.486309	-0.135012	0.287681
H264	H	1.819642	0.198321	0.621015
F265	F	0.541230	-0.088099	0.200162
F266	F	0.874563	0.245234	0.533495
F267	F	1.207896	0.578568	0.866829
H268	H	1.095900	-0.874315	0.011412
H269	H	1.429233	-0.540981	0.344745
H270	H	1.762567	-0.207648	0.678079
H271	H	0.449466	-0.077241	0.040334
H272	H	0.782799	0.256093	0.373667
H273	H	1.116132	0.589426	0.707000
F274	F	1.110126	-0.119077	-0.002797
F275	F	1.443459	0.214256	0.330537
F276	F	1.776793	0.547590	0.663870
H277	H	1.066900	0.077150	-0.342187
H278	H	1.400233	0.410483	-0.008853
H279	H	1.733566	0.743817	0.324480
F280	F	1.110129	-0.229324	-0.002826
F281	F	1.443463	0.104009	0.330507
F282	F	1.776796	0.437342	0.663840
H283	H	1.152972	-0.371454	-0.045640
H284	H	1.486305	-0.038121	0.287693
H285	H	1.819638	0.295213	0.621027
H286	H	0.888663	-0.874333	0.218542
H287	H	1.221996	-0.541000	0.551875
H288	H	1.555330	-0.207666	0.885209
F289	F	1.110182	-0.770728	-0.002857
F290	F	1.443515	-0.437394	0.330476
F291	F	1.776849	-0.104061	0.663809
F292	F	0.874322	-0.229369	0.232866
F293	F	1.207655	0.103965	0.566199
F294	F	1.540989	0.437298	0.899533
H295	H	0.917524	-0.077252	-0.427771
H296	H	1.250857	0.256081	-0.094437
H297	H	1.584191	0.589414	0.238896
F298	F	0.874358	-0.770765	0.232813
F299	F	1.207692	-0.437431	0.566146
F300	F	1.541025	-0.104098	0.899480
H301	H	1.152980	-0.628593	-0.045661
H302	H	1.486314	-0.295260	0.287673
H303	H	1.819647	0.038074	0.621006
H304	H	0.831475	-0.371489	0.275624
H305	H	1.164808	-0.038156	0.608958
H306	H	1.498141	0.295178	0.942291
F307	F	0.874316	-0.119106	0.232867
F308	F	1.207650	0.214228	0.566200
F309	F	1.540983	0.547561	0.899534
F310	F	1.167262	-0.525011	-0.059931
F311	F	1.500596	-0.191678	0.273403
F312	F	1.833929	0.141656	0.606736
F313	F	0.817227	-0.525061	0.289895
F314	F	1.150560	-0.191728	0.623228
F315	F	1.483893	0.141605	0.956562
F316	F	0.817234	-0.635306	0.289887
F317	F	1.150567	-0.301973	0.623221
F318	F	1.483900	0.031361	0.956554
H319	H	1.066847	-0.077337	-0.342313
H320	H	1.400180	0.255997	-0.008979
H321	H	1.733514	0.589330	0.324354
F322	F	1.159555	-0.000109	-0.466641
F323	F	1.492888	0.333224	-0.133308
F324	F	1.826222	0.666558	0.200025
