data_functionalizedCrystal
_audit_creation_method	'MofGen! by Chris Wilmer'
_symmetry_space_group_name_H-M	'P1'
_symmetry_Int_Tables_number	1
_symmetry_cell_setting	triclinic
loop_
_symmetry_equiv_pos_as_xyz
  x,y,z
_cell_length_a	19.188905
_cell_length_b	19.188930
_cell_length_c	13.596369
_cell_angle_alpha	90.005514
_cell_angle_beta	90.013034
_cell_angle_gamma	83.139668
loop_
_atom_site_label
_atom_site_type_symbol
_atom_site_fract_x
_atom_site_fract_y
_atom_site_fract_z
O1	O	0.926158	0.087080	0.081964
O2	O	0.722844	0.098832	0.081932
O3	O	0.830368	-0.008700	0.081930
O4	O	0.818634	0.194612	0.081967
O5	O	0.830355	-0.008694	-0.081653
O6	O	0.722831	0.098838	-0.081651
O7	O	0.926145	0.087086	-0.081618
Zn8	Zn	0.824486	0.092963	-0.107607
Zn9	Zn	0.824503	0.092955	0.107921
O10	O	0.818621	0.194618	-0.081616
C11	C	0.696826	0.098458	0.000136
C12	C	0.619321	0.097324	0.000123
C13	C	0.829982	-0.034708	0.000136
C14	C	0.828841	-0.112213	0.000127
C15	C	0.582936	0.096776	0.089295
C16	C	0.510113	0.095703	0.089307
C17	C	0.473678	0.095164	0.000142
C18	C	0.510071	0.095716	-0.089041
C19	C	0.582892	0.096796	-0.089050
N20	N	0.364653	0.053738	-0.066222
N21	N	0.295476	0.052710	-0.066207
C22	C	0.254272	0.091911	0.000166
N23	N	0.284859	0.132170	0.066537
N24	N	0.354043	0.133194	0.066525
C25	C	0.394716	0.093993	0.000143
C26	C	0.138923	0.090201	0.089356
C27	C	0.066098	0.089132	0.089365
C28	C	0.066058	0.089138	-0.088986
C29	C	0.138882	0.090213	-0.088992
C30	C	0.175310	0.090742	0.000182
C31	C	0.891933	-0.157142	0.000132
C32	C	0.890861	-0.229966	0.000148
C33	C	0.826694	-0.257857	0.000139
C34	C	0.763594	-0.212917	0.000139
C35	C	0.764668	-0.140095	0.000133
N36	N	0.777642	-0.365855	-0.055540
N37	N	0.776626	-0.435034	-0.055536
C38	C	0.823456	-0.477265	0.000158
N39	N	0.871350	-0.447706	0.055836
N40	N	0.872368	-0.378521	0.055829
C41	C	0.825523	-0.336819	0.000145
C42	C	0.885390	-0.601159	0.000181
C43	C	0.884315	-0.673984	0.000203
C44	C	0.757047	-0.656933	0.000184
C45	C	0.758123	-0.584110	0.000172
C46	C	0.822296	-0.556228	0.000166
C47	C	0.952163	0.087460	0.000180
C48	C	1.029668	0.088594	0.000199
C49	C	0.819007	0.220626	0.000180
C50	C	0.820148	0.298131	0.000195
N51	N	0.824479	0.092968	-0.254699
C52	C	0.824482	0.092969	-0.343697
C53	C	0.824489	0.092965	-0.455348
C54	C	0.824498	0.092957	-0.544338
C55	C	0.824506	0.092952	-0.655997
N56	N	0.824515	0.092945	0.255013
H57	H	0.612592	0.097206	0.161907
Br58	Br	0.016618	0.088416	-0.209998
H59	H	0.036474	0.088690	0.161982
Br60	Br	0.669961	-0.694777	0.000181
Br61	Br	0.679036	-0.079115	0.000129
H62	H	0.480401	0.095278	-0.161639
Br63	Br	0.188265	0.090955	-0.210017
H64	H	0.706747	-0.547527	0.000162
H65	H	0.944187	-0.134445	0.000131
H66	H	0.612516	0.097242	-0.161667
H67	H	0.168584	0.090638	0.161967
H68	H	0.942239	-0.266555	0.000156
H69	H	0.711349	-0.235631	0.000133
Br70	Br	0.460722	0.094961	0.210334
Br71	Br	0.972480	-0.563314	0.000163
Br72	Br	0.969948	-0.734962	0.000221
