data_functionalizedCrystal
_audit_creation_method	'MofGen! by Chris Wilmer'
_symmetry_space_group_name_H-M	'P1'
_symmetry_Int_Tables_number	1
_symmetry_cell_setting	triclinic
loop_
_symmetry_equiv_pos_as_xyz
  x,y,z
_cell_length_a	10.489763
_cell_length_b	18.266242
_cell_length_c	10.489741
_cell_angle_alpha	90.006017
_cell_angle_beta	95.456233
_cell_angle_gamma	89.992881
loop_
_atom_site_label
_atom_site_type_symbol
_atom_site_fract_x
_atom_site_fract_y
_atom_site_fract_z
O1	O	-1.694045	0.060849	0.180106
O2	O	-1.194045	0.560849	0.680106
O3	O	-1.322853	0.060857	0.196969
O4	O	-0.822853	0.560857	0.696969
O5	O	-1.516896	0.060848	0.002941
O6	O	-1.016896	0.560848	0.502941
O7	O	-1.500003	0.060857	0.374135
O8	O	-1.000003	0.560857	0.874135
O9	O	-1.516862	-0.060914	0.002930
O10	O	-1.016862	0.439086	0.502930
O11	O	-1.322820	-0.060905	0.196959
O12	O	-0.822820	0.439095	0.696959
O13	O	-1.694012	-0.060913	0.180096
O14	O	-1.194012	0.439087	0.680096
Zn15	Zn	-1.508411	-0.080241	0.188526
Zn16	Zn	-1.008411	0.419759	0.688526
Zn17	Zn	-1.508455	0.080185	0.188540
Zn18	Zn	-1.008455	0.580185	0.688540
O19	O	-1.499970	-0.060905	0.374125
O20	O	-0.999970	0.439095	0.874125
C21	C	-1.275305	-0.000023	0.195684
C22	C	-0.775305	0.499977	0.695684
C23	C	-1.133677	-0.000020	0.191856
C24	C	-0.633677	0.499980	0.691856
N25	N	-1.508390	-0.189728	0.188516
N26	N	-1.008390	0.310272	0.688516
C27	C	-1.065538	-0.000030	0.068386
C28	C	-0.565538	0.499970	0.568386
C29	C	-0.973428	0.060004	0.126707
C30	C	-0.473428	0.560004	0.626707
C31	C	-0.973430	-0.060044	0.126726
C32	C	-0.473430	0.439956	0.626726
C33	C	-1.043433	0.060064	0.250228
C34	C	-0.543433	0.560064	0.750228
C35	C	-1.043444	-0.060038	0.250230
C36	C	-0.543444	0.439962	0.750230
C37	C	-0.951362	0.000011	0.308641
C38	C	-0.451362	0.500011	0.808641
C39	C	-1.594341	-0.228041	0.102643
C40	C	-1.094341	0.271959	0.602643
C41	C	-1.594349	-0.304686	0.102637
C42	C	-1.094349	0.195314	0.602637
C43	C	-1.508419	-0.343015	0.188526
C44	C	-1.008419	0.156985	0.688526
C45	C	-1.422451	-0.304693	0.274406
C46	C	-0.922451	0.195307	0.774406
C47	C	-1.422437	-0.228050	0.274400
C48	C	-0.922437	0.271950	0.774400
N49	N	-1.493219	-0.463345	0.301247
N50	N	-0.993219	0.036655	0.801247
N51	N	-1.493240	-0.536153	0.301248
N52	N	-0.993240	-0.036153	0.801248
C53	C	-1.508454	-0.573938	0.188545
C54	C	-1.008454	-0.073938	0.688545
N55	N	-1.523672	-0.536164	0.075838
N56	N	-1.023672	-0.036164	0.575838
N57	N	-1.523657	-0.463349	0.075838
N58	N	-1.023657	0.036651	0.575838
C59	C	-1.508424	-0.426122	0.188541
C60	C	-1.008424	0.073878	0.688541
C61	C	-1.594419	-0.695358	0.102659
C62	C	-1.094419	-0.195358	0.602659
C63	C	-1.594418	-0.772004	0.102651
C64	C	-1.094418	-0.272004	0.602651
C65	C	-1.422527	-0.772010	0.274431
C66	C	-0.922527	-0.272010	0.774431
C67	C	-1.422521	-0.695365	0.274427
C68	C	-0.922521	-0.195365	0.774427
C69	C	-1.508474	-0.657043	0.188543
C70	C	-1.008474	-0.157043	0.688543
C71	C	-0.741562	-0.000034	0.181361
C72	C	-0.241562	0.499966	0.681361
C73	C	-0.883198	-0.000038	0.185129
C74	C	-0.383198	0.499962	0.685129
C75	C	-1.515603	-0.000032	-0.044596
C76	C	-1.015603	0.499968	0.455404
C77	C	-1.511786	-0.000031	-0.186226
C78	C	-1.011786	0.499969	0.313774
N79	N	-1.508485	0.189672	0.188540
N80	N	-1.008485	0.689672	0.688540
C81	C	-1.388322	-0.000023	-0.254376
C82	C	-0.888322	0.499977	0.245624
C83	C	-1.446629	-0.060059	-0.346499
C84	C	-0.946629	0.439941	0.153501
C85	C	-1.446691	0.059989	-0.346463
C86	C	-0.946691	0.559989	0.153537
C87	C	-1.570143	-0.060117	-0.276484
C88	C	-1.070143	0.439883	0.223516
C89	C	-1.570188	0.059985	-0.276438
C90	C	-1.070188	0.559985	0.223562
C91	C	-1.628584	-0.000066	-0.368534
C92	C	-1.128584	0.499934	0.131466
C93	C	-1.501262	-0.000022	0.421662
C94	C	-1.001262	0.499978	0.921662
C95	C	-1.505079	-0.000019	0.563291
C96	C	-1.005079	0.499981	1.063291
H97	H	-1.115227	0.000043	-0.033106
H98	H	-0.615227	0.500043	0.466894
H99	H	-1.664403	-0.664155	0.032722
H100	H	-1.164403	-0.164155	0.532722
H101	H	-1.074275	0.110877	0.302435
H102	H	-0.574275	0.610877	0.802435
H103	H	-1.664406	-0.803199	0.032716
H104	H	-1.164406	-0.303199	0.532716
C105	C	-1.765781	-0.000152	-0.435425
C106	C	-1.265781	0.499848	0.064575
H107	H	-1.778573	0.042500	-0.486875
H108	H	-1.278573	0.542500	0.013125
H109	H	-1.777916	-0.042427	-0.487925
H110	H	-1.277916	0.457573	0.012075
H111	H	-1.825484	-0.000586	-0.372770
H112	H	-1.325484	0.499414	0.127230
H113	H	-1.664326	-0.196842	0.032708
H114	H	-1.164326	0.303158	0.532708
H115	H	-1.394449	0.110750	-0.377427
H116	H	-0.894449	0.610750	0.122573
C117	C	-1.327896	-0.185904	0.368874
C118	C	-0.827896	0.314096	0.868874
H119	H	-1.276722	-0.219706	0.420032
H120	H	-0.776722	0.280294	0.920032
H121	H	-1.274379	-0.156012	0.322466
H122	H	-0.774379	0.343988	0.822466
H123	H	-1.374273	-0.155999	0.422430
H124	H	-0.874273	0.344001	0.922430
H125	H	-1.394375	-0.110813	-0.377519
H126	H	-0.894375	0.389187	0.122481
H127	H	-1.352556	-0.803217	0.344359
H128	H	-0.852556	-0.303217	0.844359
H129	H	-1.664343	-0.335886	0.032706
H130	H	-1.164343	0.164114	0.532706
H131	H	-1.352537	-0.664168	0.344358
H132	H	-0.852537	-0.164168	0.844358
H133	H	-0.942428	0.110757	0.074468
H134	H	-0.442428	0.610757	0.574468
C135	C	-1.640633	-0.128763	-0.234849
C136	C	-1.140633	0.371237	0.265151
H137	H	-1.667662	-0.157394	-0.308083
H138	H	-1.167662	0.342606	0.191917
H139	H	-1.584534	-0.156825	-0.177609
H140	H	-1.084534	0.343175	0.322391
H141	H	-1.713210	-0.114415	-0.193184
H142	H	-1.213210	0.385585	0.306816
C143	C	-0.931565	-0.128611	0.056124
C144	C	-0.431565	0.371389	0.556124
H145	H	-0.971050	-0.128533	-0.029225
H146	H	-0.471050	0.371467	0.470775
H147	H	-0.841137	-0.128361	0.054870
H148	H	-0.341137	0.371639	0.554870
H149	H	-0.956711	-0.171243	0.099156
H150	H	-0.456711	0.328757	0.599156
C151	C	-0.884582	0.000057	0.445884
C152	C	-0.384582	0.500057	0.945884
H153	H	-0.908544	0.042744	0.489534
H154	H	-0.408544	0.542744	0.989534
H155	H	-0.909613	-0.042183	0.490070
H156	H	-0.409613	0.457817	0.990070
H157	H	-0.794377	-0.000345	0.442712
H158	H	-0.294377	0.499655	0.942712
H159	H	-1.622398	0.110742	-0.245385
H160	H	-1.122398	0.610742	0.254615
C161	C	-1.251192	-0.000089	-0.187317
C162	C	-0.751192	0.499911	0.312683
H163	H	-1.238473	0.042590	-0.135913
H164	H	-0.738473	0.542590	0.364087
H165	H	-1.239064	-0.042336	-0.134761
H166	H	-0.739064	0.457664	0.365239
H167	H	-1.191437	-0.000549	-0.249921
H168	H	-0.691437	0.499451	0.250079
C169	C	-1.085382	-0.128602	0.320738
C170	C	-0.585382	0.371398	0.820738
H171	H	-1.061674	-0.171221	0.276745
H172	H	-0.561674	0.328779	0.776745
H173	H	-1.044708	-0.129032	0.405604
H174	H	-0.544708	0.370968	0.905604
H175	H	-1.175654	-0.127860	0.323332
H176	H	-0.675654	0.372140	0.823332
C177	C	-1.327934	-0.346852	0.368885
C178	C	-0.827934	0.153148	0.868885
H179	H	-1.340262	-0.397986	0.356599
H180	H	-0.840262	0.102014	0.856599
H181	H	-1.242676	-0.334307	0.354194
H182	H	-0.742676	0.165693	0.854194
H183	H	-1.342570	-0.334280	0.454159
H184	H	-0.842570	0.165720	0.954159
