data_functionalizedCrystal
_audit_creation_method	'MofGen! by Chris Wilmer'
_symmetry_space_group_name_H-M	'P1'
_symmetry_Int_Tables_number	1
_symmetry_cell_setting	triclinic
loop_
_symmetry_equiv_pos_as_xyz
  x,y,z
_cell_length_a	14.395555
_cell_length_b	14.395555
_cell_length_c	21.606444
_cell_angle_alpha	59.998299
_cell_angle_beta	89.999745
_cell_angle_gamma	60.002752
loop_
_atom_site_label
_atom_site_type_symbol
_atom_site_fract_x
_atom_site_fract_y
_atom_site_fract_z
Zr1	Zr	0.894890	1.016855	-0.081272
O2	O	0.746566	1.210647	-0.180095
O3	O	0.940355	0.823060	-0.050977
O4	O	0.940351	1.016864	-0.180101
O5	O	0.746577	1.016837	0.050884
O6	O	1.093217	1.016874	-0.180108
O7	O	0.746570	1.016843	-0.050970
O8	O	1.093224	0.670194	0.050872
O9	O	0.746570	1.363517	-0.180096
O10	O	1.073832	0.902779	-0.038063
O11	O	0.959756	0.902766	0.037955
O12	O	0.959751	1.130946	-0.114072
O13	O	0.845675	1.130934	-0.038055
Zr14	Zr	1.138705	1.016860	0.081163
Zr15	Zr	1.138693	1.016870	-0.081283
Zr16	Zr	0.894902	1.016844	0.081173
Zr17	Zr	0.894897	1.260664	-0.081275
Zr18	Zr	1.138698	0.773051	0.081165
O19	O	1.093240	1.210655	0.050867
O20	O	1.093222	1.210670	-0.180110
O21	O	0.746583	1.210632	0.050882
O22	O	1.287029	0.823067	0.179985
O23	O	1.287012	0.823082	-0.050992
O24	O	0.940372	0.823045	0.180000
O25	O	1.287017	1.016878	-0.050994
O26	O	1.093244	1.016851	0.179991
O27	O	0.940378	1.016841	0.179998
O28	O	1.287025	1.016871	0.050860
O29	O	0.940361	1.363529	-0.180105
O30	O	1.093234	0.670185	0.179995
O31	O	1.287025	0.670198	0.179986
O32	O	1.287015	0.670206	0.050864
O33	O	0.746580	1.363509	-0.050974
O34	O	0.940371	1.363521	-0.050982
O35	O	1.073844	0.902769	0.113963
O36	O	1.187920	0.902781	0.037945
O37	O	1.073839	1.130948	-0.038065
O38	O	0.959763	1.130936	0.037953
C39	C	1.016788	0.711889	-0.000052
C40	C	1.016785	0.608386	-0.000051
C41	C	0.954589	0.547787	0.041400
C42	C	0.909504	0.562045	-0.030075
C43	C	1.061843	0.409732	0.071402
C44	C	0.971637	0.624070	-0.071567
C45	C	1.124036	0.471694	0.029961
C46	C	1.078977	0.485999	-0.041556
C47	C	0.711837	1.016838	-0.000041
C48	C	0.608336	1.016831	-0.000037
C49	C	0.548027	0.892447	0.041389
C50	C	0.578896	0.954611	-0.030071
C51	C	0.578858	0.954635	0.071410
C52	C	0.454764	1.079048	-0.071575
C53	C	0.454729	1.079055	0.029957
C54	C	0.485525	1.141309	-0.041545
C55	C	1.321758	1.016877	-0.000068
C56	C	1.425259	1.016884	-0.000073
C57	C	1.016782	1.016870	-0.203249
C58	C	1.016777	1.016875	-0.272212
C59	C	1.016807	1.321825	-0.000058
C60	C	1.016810	1.425329	-0.000059
C61	C	0.957227	1.135975	-0.344287
C62	C	0.957237	1.135971	-0.409082
C63	C	1.016790	1.016866	-0.401800
C64	C	1.076347	0.897757	-0.329717
C65	C	1.076343	0.897762	-0.264924
C66	C	1.076365	0.897734	-0.591020
C67	C	1.076362	0.897738	-0.655821
C68	C	0.957259	1.135943	-0.735178
C69	C	0.957255	1.135948	-0.670385
C70	C	1.016816	1.016840	-0.598308
C71	C	1.016807	1.016845	-0.528051
C72	C	1.016794	1.016859	-0.472056
C73	C	1.016813	1.016844	0.203140
C74	C	1.016818	1.016840	0.272102
C75	C	1.321749	0.711909	-0.000065
C76	C	1.425247	0.608412	-0.000069
C77	C	1.016804	0.711876	0.203143
C78	C	1.016806	0.608368	0.272106
C79	C	1.321764	0.711896	0.203129
C80	C	1.425267	0.608394	0.272088
C81	C	0.711830	1.321819	-0.203239
C82	C	0.608327	1.425320	-0.272198
C83	C	0.711846	1.321806	-0.000045
C84	C	0.608348	1.425303	-0.000041
C85	C	1.016791	1.321839	-0.203253
C86	C	1.016789	1.425346	-0.272216
C87	C	1.076359	0.559761	0.344174
C88	C	1.076357	0.462518	0.408979
C89	C	1.016807	0.413877	0.401714
C90	C	0.957246	0.462494	0.329638
C91	C	0.957243	0.559742	0.264835
C92	C	1.533430	0.559796	0.264792
C93	C	1.630692	0.462559	0.329580
C94	C	1.619788	0.413916	0.401664
C95	C	1.511613	0.462524	0.408959
C96	C	1.414354	0.559766	0.344171
C97	C	0.500165	1.473931	-0.264901
C98	C	0.402903	1.571198	-0.329689
C99	C	0.413807	1.619846	-0.401773
C100	C	0.521981	1.571231	-0.409068
C101	C	0.619240	1.473972	-0.344281
C102	C	1.076350	1.473956	-0.264927
C103	C	1.076371	1.571200	-0.329719
C104	C	1.016822	1.619839	-0.401800
C105	C	0.957259	1.571219	-0.409088
C106	C	0.957246	1.473971	-0.344296
C107	C	1.548036	0.547861	0.041350
C108	C	1.578894	0.409753	0.071367
C109	C	1.578796	0.562164	-0.030135
C110	C	1.454741	0.471604	0.029991
C111	C	1.454647	0.624089	-0.071551
C112	C	1.485431	0.485990	-0.041551
H113	H	0.933435	0.715638	-0.132026
Br114	Br	1.016850	1.751823	-0.489725
Br115	Br	0.876416	0.625692	0.167031
H116	H	1.131572	0.459061	-0.076662
Br117	Br	1.668122	0.257013	0.172066
H118	H	0.530846	1.610853	-0.467767
Br119	Br	1.157148	0.736087	-0.493210
H120	H	1.214707	0.434532	0.055370
Br121	Br	0.766030	1.408006	-0.354197
H122	H	0.334603	1.699040	-0.454521
Br123	Br	1.548260	0.625796	0.166972
Br124	Br	1.157207	1.637168	-0.319811
H125	H	1.632267	0.599410	-0.055533
Br126	Br	1.157198	0.396557	0.506786
Br127	Br	1.365855	0.409220	0.072432
Br128	Br	0.590343	0.717144	0.099702
Br129	Br	1.157176	1.407969	-0.167111
Br130	Br	1.157188	0.736085	-0.645935
Br131	Br	0.758347	0.624017	-0.072398
H132	H	0.908762	0.422876	0.323734
H133	H	0.491264	1.434327	-0.206213
Br134	Br	0.876395	1.297627	-0.354179
Br135	Br	1.777484	0.396608	0.319661
Br136	Br	0.256110	1.637152	-0.319771
H137	H	1.502752	0.422905	0.467658
H138	H	0.908764	1.232927	-0.793873
Br139	Br	0.876437	1.637254	-0.506918
Br140	Br	1.751795	0.281943	0.489583
Br141	Br	0.876393	1.408022	-0.354202
H142	H	1.573479	0.574932	0.076453
H143	H	1.099939	0.318122	0.131832
Br144	Br	1.442669	0.440964	-0.099979
H145	H	0.901921	0.575007	0.076401
Br146	Br	1.365410	0.776876	-0.172228
Br147	Br	1.157176	0.736112	-0.319833
H148	H	0.632403	0.902019	-0.055458
H149	H	0.401416	1.131603	-0.132040
H150	H	0.459909	1.246579	-0.076641
Br151	Br	1.267565	0.625704	0.354088
H152	H	0.401227	1.131600	0.055363
H153	H	0.632350	0.902018	0.131848
H154	H	0.908756	1.232936	-0.676321
Br155	Br	1.157182	0.736120	-0.167105
Br156	Br	0.876416	1.297614	-0.506898
H157	H	1.016819	0.334692	0.454487
Br158	Br	1.157193	0.625746	0.354055
