data_functionalizedCrystal
_audit_creation_method	'MofGen! by Chris Wilmer'
_symmetry_space_group_name_H-M	'P1'
_symmetry_Int_Tables_number	1
_symmetry_cell_setting	triclinic
loop_
_symmetry_equiv_pos_as_xyz
  x,y,z
_cell_length_a	8.497374
_cell_length_b	12.759401
_cell_length_c	12.759399
_cell_angle_alpha	89.983359
_cell_angle_beta	89.991562
_cell_angle_gamma	90.001753
loop_
_atom_site_label
_atom_site_type_symbol
_atom_site_fract_x
_atom_site_fract_y
_atom_site_fract_z
Zn1	Zn	0.891958	1.606064	0.418406
Zn2	Zn	0.628160	1.606013	0.594052
Zn3	Zn	0.628185	1.430422	0.418393
Zn4	Zn	0.891892	1.430354	0.594048
O5	O	0.760048	1.518213	0.506225
O6	O	0.856982	1.753079	0.441713
O7	O	0.407401	1.582728	0.570747
O8	O	0.663213	1.453771	0.271373
O9	O	0.663171	1.753041	0.570760
O10	O	0.857005	1.582815	0.271383
O11	O	0.407419	1.453722	0.441691
O12	O	0.663149	1.283392	0.441686
O13	O	1.112663	1.453655	0.570752
O14	O	0.856893	1.283342	0.570739
O15	O	1.112711	1.582749	0.441709
O16	O	0.663107	1.582661	0.741073
O17	O	0.856869	1.453605	0.741069
C18	C	0.760017	1.245246	0.506212
C19	C	0.760041	1.128469	0.506232
C20	C	0.760013	1.518149	0.779192
C21	C	0.760050	1.518217	0.895969
C22	C	0.860765	1.073609	0.573532
C23	C	0.860796	0.963885	0.573536
C24	C	0.659366	0.963891	0.438937
C25	C	0.659344	1.073613	0.438928
C26	C	1.171529	1.518205	0.506226
C27	C	1.350173	1.518208	0.506237
C28	C	0.760081	1.792246	0.506238
C29	C	0.760095	1.909023	0.506244
C30	C	0.760119	1.518307	0.232191
C31	C	0.760149	1.518346	0.115415
C32	C	0.659273	1.585494	0.950797
C33	C	0.659326	1.585561	1.060521
C34	C	0.860938	1.451067	1.060578
C35	C	0.860891	1.451006	0.950856
H36	H	0.942763	1.118269	0.628332
H37	H	0.577265	1.640346	1.105158
O38	O	0.958843	1.385550	0.897751
C39	C	1.047877	1.326253	0.969722
H40	H	0.983291	1.322689	1.047958
H41	H	1.064587	1.243451	0.938079
H42	H	1.167745	1.364668	0.981325
O43	O	0.958855	0.910709	0.638862
C44	C	1.116143	0.937529	0.616054
H45	H	1.119500	1.017204	0.575665
H46	H	1.186677	0.941276	0.691956
H47	H	1.169441	0.875795	0.562102
O48	O	0.561602	0.910440	0.373662
C49	C	0.583246	0.801831	0.388080
H50	H	0.634695	0.786833	0.469218
H51	H	0.465107	0.760119	0.380825
H52	H	0.667434	0.770719	0.325858
O53	O	0.561414	1.127027	0.373696
C54	C	0.459330	1.190453	0.433400
H55	H	0.514758	1.206875	0.513079
H56	H	0.438292	1.267619	0.390580
H57	H	0.342395	1.148156	0.444820
H58	H	0.577164	1.640223	0.906111
O59	O	0.958730	1.385808	1.114061
C60	C	0.937188	1.400302	1.222662
H61	H	0.815493	1.434789	1.237652
H62	H	0.947798	1.321622	1.264424
H63	H	1.030850	1.456213	1.253728
