data_functionalizedCrystal
_audit_creation_method	'MofGen! by Chris Wilmer'
_symmetry_space_group_name_H-M	'P1'
_symmetry_Int_Tables_number	1
_symmetry_cell_setting	triclinic
loop_
_symmetry_equiv_pos_as_xyz
  x,y,z
_cell_length_a	13.339070
_cell_length_b	15.944551
_cell_length_c	12.376457
_cell_angle_alpha	101.276265
_cell_angle_beta	75.589755
_cell_angle_gamma	99.564016
loop_
_atom_site_label
_atom_site_type_symbol
_atom_site_fract_x
_atom_site_fract_y
_atom_site_fract_z
O1	O	1.361721	0.409519	-0.094056
O2	O	1.067189	0.354248	-0.094048
O3	O	1.222496	0.261484	-0.094042
O4	O	1.206414	0.502283	-0.094062
O5	O	1.183683	0.284634	0.093969
O6	O	1.028376	0.377398	0.093963
O7	O	1.322908	0.432670	0.093955
Zn8	Zn	1.169480	0.408710	0.123810
Zn9	Zn	1.220618	0.378208	-0.123903
O10	O	1.167601	0.525433	0.093949
C11	C	1.010092	0.356487	-0.000041
C12	C	0.897788	0.328657	-0.000038
C13	C	0.533017	0.545045	-0.000074
C14	C	0.638533	0.571195	-0.000081
C15	C	0.703352	0.510563	-0.000069
C16	C	0.662645	0.423776	-0.000053
C17	C	0.557120	0.397623	-0.000055
C18	C	0.727455	0.363140	-0.000050
C19	C	0.686748	0.276354	-0.000033
C20	C	0.581233	0.250205	-0.000035
C21	C	0.516415	0.310837	-0.000046
C22	C	0.832979	0.389294	-0.000048
C23	C	0.857082	0.241871	-0.000029
C24	C	0.751566	0.215722	-0.000022
C25	C	1.202422	0.241610	-0.000036
C26	C	1.200420	0.147897	-0.000036
C27	C	1.099369	-0.090507	-0.000048
C28	C	1.127158	-0.129176	0.092651
C29	C	1.196799	-0.023674	-0.000044
C30	C	1.165448	-0.151979	-0.092713
C31	C	1.193296	-0.189405	-0.000057
C32	C	1.224599	-0.061099	0.092732
C33	C	1.262892	-0.083908	-0.092715
C34	C	1.290747	-0.122540	0.000007
C35	C	1.198814	0.071800	-0.000036
C36	C	1.191287	-0.284874	-0.000058
C37	C	1.380005	0.430431	-0.000054
C38	C	1.492311	0.458260	-0.000065
C39	C	1.187676	0.545308	-0.000059
C40	C	1.189680	0.639019	-0.000067
N41	N	1.134587	0.429527	0.292867
N42	N	1.255518	0.357386	-0.292960
C43	C	1.336516	0.309045	0.647859
C44	C	1.360931	0.294473	0.529520
C45	C	1.304347	0.328235	0.470351
C46	C	1.223343	0.376572	0.529532
C47	C	1.198930	0.391151	0.647883
C48	C	1.166762	0.410341	0.470375
C49	C	1.085758	0.458678	0.529556
C50	C	1.061349	0.473254	0.647895
C51	C	1.117933	0.439492	0.707064
C52	C	1.191175	0.395762	0.352024
C53	C	1.053590	0.477868	0.352048
C54	C	1.029174	0.492440	0.470387
H55	H	0.789267	0.531859	-0.000078
O56	O	0.470129	0.604034	0.000060
C57	C	0.468445	0.667248	0.097439
H58	H	0.541780	0.669280	0.129914
H59	H	0.465549	0.732875	0.075524
H60	H	0.396647	0.650708	0.165619
H61	H	0.430494	0.289550	-0.000040
O62	O	1.254455	-0.014415	0.186368
C63	C	1.273442	-0.070672	0.251867
H64	H	1.291693	-0.134515	0.195748
H65	H	1.342598	-0.040480	0.290916
H66	H	1.201391	-0.082512	0.321900
O67	O	1.135430	-0.198826	-0.186175
C68	C	1.034482	-0.182889	-0.185801
H69	H	1.018430	-0.117938	-0.131531
H70	H	1.028844	-0.181930	-0.275952
H71	H	0.974545	-0.235911	-0.149621
O72	O	1.331191	-0.060023	-0.186329
C73	C	1.299710	-0.106917	-0.283876
H74	H	1.212648	-0.130165	-0.261664
H75	H	1.316069	-0.063698	-0.351145
H76	H	1.344955	-0.164806	-0.317699
H77	H	1.371680	-0.136832	0.000057
O78	O	1.269787	0.348791	0.294368
C79	C	1.279155	0.343105	0.177227
H80	H	1.244774	0.399105	0.161033
H81	H	1.365030	0.346005	0.132197
H82	H	1.235238	0.279609	0.143728
H83	H	0.548096	0.179536	-0.000034
O84	O	0.872603	0.473558	-0.000262
C85	C	0.953039	0.481104	-0.097621
H86	H	0.942137	0.423010	-0.165671
H87	H	0.950316	0.542564	-0.130318
H88	H	1.031704	0.483839	-0.075603
O89	O	1.002795	-0.073377	0.000110
C90	C	0.933038	-0.150202	0.001159
H91	H	0.964194	-0.198553	0.037220
H92	H	0.853494	-0.135807	0.055877
H93	H	0.925019	-0.178370	-0.088769
O94	O	1.328163	0.313964	0.355398
C95	C	1.411807	0.264079	0.315850
H96	H	1.415390	0.226567	0.384053
H97	H	1.399640	0.217064	0.236691
H98	H	1.488026	0.308264	0.294826
O99	O	1.439610	0.247469	0.472211
C100	C	1.484335	0.220812	0.549807
H101	H	1.425457	0.220567	0.634176
H102	H	1.506823	0.153124	0.515617
H103	H	1.556888	0.267186	0.562373
O104	O	0.712028	0.131433	0.000184
C105	C	0.725060	0.104962	0.097546
H106	H	0.732966	0.163658	0.165601
H107	H	0.654383	0.058356	0.130232
H108	H	0.798368	0.071466	0.075536
H109	H	1.382585	0.281565	0.696043
O110	O	1.094205	0.453802	0.822022
C111	C	1.106635	0.543204	0.861553
H112	H	1.099977	0.579455	0.793354
H113	H	1.043371	0.559188	0.940732
H114	H	1.186605	0.563262	0.882538
H115	H	1.069769	-0.149237	0.171023
H116	H	0.995399	0.512620	0.696080
O117	O	0.950426	0.539287	0.528008
C118	C	0.873888	0.488150	0.596460
H119	H	0.910527	0.434013	0.614177
H120	H	0.840722	0.529718	0.679685
H121	H	0.808526	0.459368	0.550874
O122	O	0.998693	0.510577	0.294409
C123	C	1.037625	0.487362	0.177266
H124	H	1.078764	0.427417	0.161104
H125	H	0.970294	0.473280	0.132302
H126	H	1.095296	0.542615	0.143666
O127	O	0.677974	0.655500	-0.000249
C128	C	0.664971	0.681940	-0.097645
H129	H	0.598492	0.637984	-0.130099
H130	H	0.645799	0.751169	-0.075761
H131	H	0.740107	0.678048	-0.165830
H132	H	0.909859	0.192498	-0.000025
