data_functionalizedCrystal
_audit_creation_method	'MofGen! by Chris Wilmer'
_symmetry_space_group_name_H-M	'P1'
_symmetry_Int_Tables_number	1
_symmetry_cell_setting	triclinic
loop_
_symmetry_equiv_pos_as_xyz
  x,y,z
_cell_length_a	17.640280
_cell_length_b	17.640112
_cell_length_c	17.640968
_cell_angle_alpha	92.139080
_cell_angle_beta	114.317439
_cell_angle_gamma	87.815931
loop_
_atom_site_label
_atom_site_type_symbol
_atom_site_fract_x
_atom_site_fract_y
_atom_site_fract_z
Zn1	Zn	-0.023073	-1.251359	0.189698
Zn2	Zn	-0.188752	-1.251298	0.024069
Zn3	Zn	-0.075311	-1.106797	0.076159
Zn4	Zn	-0.178182	-1.148399	0.179117
O5	O	-0.116329	-1.189463	0.117261
O6	O	-0.027613	-1.354914	0.150355
O7	O	-0.199989	-1.214694	-0.081425
O8	O	0.044008	-1.108588	0.117448
O9	O	-0.149337	-1.354870	0.028669
O10	O	0.082386	-1.214797	0.200865
O11	O	-0.116644	-1.108529	-0.043155
O12	O	-0.106394	-1.008752	0.107188
O13	O	-0.131321	-1.179493	0.292925
O14	O	-0.181973	-1.039317	0.182831
O15	O	-0.017364	-1.255137	0.300699
O16	O	-0.299739	-1.255033	0.018409
O17	O	-0.291973	-1.179434	0.132322
C18	C	-0.148705	-0.997182	0.149514
C19	C	-0.162571	-0.914929	0.163327
C20	C	-0.324990	-1.221764	0.068579
C21	C	-0.414238	-1.235655	0.047768
C22	C	-0.067336	-1.221962	0.326772
C23	C	-0.046458	-1.235811	0.416053
C24	C	-0.687787	-1.084287	0.275600
C25	C	-0.771655	-1.097337	0.256019
C26	C	-0.779643	-1.176134	0.137496
C27	C	-0.695773	-1.163094	0.157069
C28	C	-0.649852	-1.117169	0.226122
C29	C	-0.657837	-1.195976	0.107591
C30	C	-0.573976	-1.182933	0.127160
C31	C	-0.528050	-1.137009	0.196208
C32	C	-0.565990	-1.104127	0.245691
C33	C	-0.703761	-1.241896	0.038535
C34	C	-0.665825	-1.274778	-0.010944
C35	C	-0.581961	-1.261740	0.008629
C36	C	-0.536035	-1.215815	0.077677
C37	C	-0.544020	-1.294622	-0.040854
C38	C	-0.460159	-1.281579	-0.021285
C39	C	-0.452173	-1.202773	0.097246
C40	C	0.093153	-1.157059	0.166147
C41	C	0.182422	-1.143250	0.186980
C42	C	-0.083827	-1.382495	0.084882
C43	C	-0.069977	-1.464754	0.071084
C44	C	-0.010979	-0.564743	0.012337
C45	C	-0.024022	-0.487458	0.025323
C46	C	-0.102905	-0.519334	0.103880
C47	C	-0.089865	-0.596623	0.090904
C48	C	-0.043903	-0.619321	0.045131
C49	C	-0.122789	-0.651201	0.123697
C50	C	-0.109754	-0.728483	0.110718
C51	C	-0.063796	-0.751188	0.064946
C52	C	-0.030868	-0.696603	0.032152
C53	C	-0.168756	-0.628502	0.169465
C54	C	-0.201680	-0.683080	0.202259
C55	C	-0.188640	-0.760364	0.189285
C56	C	-0.142682	-0.783068	0.143512
C57	C	-0.221568	-0.814949	0.222079
C58	C	-0.208534	-0.892231	0.209100
C59	C	-0.129647	-0.860351	0.130533
C60	C	-0.165067	-1.157124	-0.091429
C61	C	-0.185695	-1.143383	-0.180681
C62	C	-0.274453	-1.084469	0.689444
C63	C	-0.254822	-1.097496	0.773337
C64	C	-0.136168	-1.176258	0.781421
C65	C	-0.155787	-1.163234	0.697528
C66	C	-0.224930	-1.117340	0.651546
C67	C	-0.106264	-1.196105	0.659630
C68	C	-0.125884	-1.183085	0.575743
C69	C	-0.195026	-1.137195	0.529754
C70	C	-0.244550	-1.104320	0.567659
C71	C	-0.037124	-1.242004	0.705612
C72	C	0.012398	-1.274874	0.667713
C73	C	-0.007218	-1.261851	0.583827
C74	C	-0.076360	-1.215960	0.537838
C75	C	0.042306	-1.294725	0.545922
C76	C	0.022686	-1.281706	0.462035
C77	C	-0.095980	-1.202940	0.453951
H78	H	-0.414780	-1.165383	0.153481
H79	H	-0.258998	-0.796456	0.259340
C80	C	0.019697	-0.721574	-0.018197
N81	N	0.057780	-0.740383	-0.056120
H82	H	-0.211002	-1.126598	0.461447
H83	H	-0.179368	-0.565572	0.180031
H84	H	-0.650394	-1.046897	0.331835
H85	H	-0.703226	-1.312167	-0.067168
H86	H	-0.581424	-1.332007	-0.097081
H87	H	-0.092205	-0.878832	0.093275
C88	C	0.039586	-0.589714	-0.038012
N89	N	0.077668	-0.608523	-0.075935
H90	H	-0.459767	-1.126385	0.212135
C91	C	-0.049455	-0.836202	0.050671
N92	N	-0.038651	-0.900234	0.039921
C93	C	-0.418424	-1.317758	-0.075708
N94	N	-0.386990	-1.345009	-0.116701
H95	H	0.002799	-0.443020	-0.001378
H96	H	-0.140330	-0.500842	0.141145
C97	C	-0.830166	-1.226646	0.061537
N98	N	-0.868220	-1.264693	0.004325
C99	C	-0.252236	-0.658102	0.252609
N100	N	-0.290312	-0.639291	0.290537
H101	H	-0.528597	-1.066737	0.301926
C102	C	-0.813379	-1.061165	0.310459
N103	N	-0.844806	-1.033921	0.351462
H104	H	-0.235342	-0.936671	0.235805
H105	H	-0.152268	-1.165548	0.416517
C106	C	-0.320612	-1.053833	0.517074
N107	N	-0.377900	-1.015810	0.478973
H108	H	-0.772045	-1.252515	0.022606
C109	C	-0.309304	-1.061330	0.815023
N110	N	-0.350340	-1.034090	0.846420
C111	C	-0.350514	-1.033982	0.638859
N112	N	-0.407803	-0.995959	0.600758
H113	H	-0.079873	-1.213628	0.818870
C114	C	-0.015543	-1.256323	0.797891
N115	N	0.000713	-1.267107	0.867396
C116	C	0.088460	-1.325349	0.718306
N117	N	0.145755	-1.363363	0.756413
H118	H	0.098597	-1.332098	0.583371
C119	C	0.077164	-1.317864	0.420345
N120	N	0.118197	-1.345100	0.388944
