data_functionalizedCrystal
_audit_creation_method	'MofGen! by Chris Wilmer'
_symmetry_space_group_name_H-M	'P1'
_symmetry_Int_Tables_number	1
_symmetry_cell_setting	triclinic
loop_
_symmetry_equiv_pos_as_xyz
  x,y,z
_cell_length_a	13.897449
_cell_length_b	10.686285
_cell_length_c	10.686551
_cell_angle_alpha	99.084519
_cell_angle_beta	85.604174
_cell_angle_gamma	94.367057
loop_
_atom_site_label
_atom_site_type_symbol
_atom_site_fract_x
_atom_site_fract_y
_atom_site_fract_z
Zn1	Zn	1.541007	0.450121	-0.679016
Zn2	Zn	2.041007	0.950121	-0.179016
Zn3	Zn	1.540929	0.678701	-0.450513
Zn4	Zn	2.040929	1.178701	0.049487
Zn5	Zn	1.368204	0.466480	-0.466777
Zn6	Zn	1.868204	0.966480	0.033223
Zn7	Zn	1.391196	0.662322	-0.662716
Zn8	Zn	1.891196	1.162322	-0.162716
O9	O	1.460334	0.564406	-0.564756
O10	O	1.960334	1.064406	-0.064756
O11	O	1.675980	0.480451	-0.648720
O12	O	2.175980	0.980451	-0.148720
O13	O	1.508362	0.664250	-0.275040
O14	O	2.008362	1.164250	0.224960
O15	O	1.381537	0.286687	-0.508558
O16	O	1.881537	0.786687	-0.008558
O17	O	1.675923	0.648388	-0.480840
O18	O	2.175923	1.148388	0.019160
O19	O	1.508495	0.274669	-0.664490
O20	O	2.008495	0.774669	-0.164490
O21	O	1.381461	0.508332	-0.286989
O22	O	1.881461	1.008332	0.213011
O23	O	1.236271	0.492450	-0.492753
O24	O	1.736271	0.992450	0.007247
O25	O	1.420723	0.620473	-0.842509
O26	O	1.920723	1.120473	-0.342509
O27	O	1.253163	0.636335	-0.636709
O28	O	1.753163	1.136335	-0.136709
O29	O	1.530789	0.464569	-0.854484
O30	O	2.030789	0.964569	-0.354484
O31	O	1.530656	0.854151	-0.465035
O32	O	2.030656	1.354151	0.034965
O33	O	1.420648	0.842117	-0.620939
O34	O	1.920648	1.342117	-0.120939
C35	C	1.478166	0.894187	-0.539481
C36	C	1.978166	1.394187	-0.039481
C37	C	1.485885	1.035266	-0.528711
C38	C	1.985885	1.535266	-0.028711
C39	C	1.209717	0.564391	-0.564728
C40	C	1.709717	1.064391	-0.064728
C41	C	1.102505	0.564413	-0.564744
C42	C	1.602505	1.064413	-0.064744
C43	C	1.478330	0.538869	-0.895842
C44	C	1.978330	1.038869	-0.395842
C45	C	1.485998	0.527987	-1.036931
C46	C	1.985998	1.027987	-0.536931
C47	C	0.906212	0.564415	-0.564777
C48	C	1.406212	1.064415	-0.064777
C49	C	1.015443	0.564410	-0.564755
C50	C	1.515443	1.064410	-0.064755
C51	C	1.711930	0.564422	-0.564784
C52	C	2.211930	1.064422	-0.064784
C53	C	1.819145	0.564428	-0.564796
C54	C	2.319145	1.064428	-0.064796
C55	C	1.442460	0.233335	-0.590156
C56	C	1.942460	0.733335	-0.090156
C57	C	1.434843	0.092252	-0.600981
C58	C	1.934843	0.592252	-0.100981
C59	C	1.442459	0.589752	-0.234964
C60	C	1.942459	1.089752	0.265036
C61	C	1.434958	0.600276	-0.093903
C62	C	1.934958	1.100276	0.406097
H63	H	1.535486	1.094415	-0.458585
H64	H	2.035486	1.594415	0.041415
O65	O	1.551640	0.434952	-1.115284
O66	O	2.051640	0.934952	-0.615284
H67	H	1.547552	0.440700	-1.217523
H68	H	2.047552	0.940700	-0.717523
O69	O	1.369274	0.693262	-1.015538
O70	O	1.869274	1.193262	-0.515538
H71	H	1.333090	0.744496	-1.079463
H72	H	1.833090	1.244496	-0.579463
O73	O	1.369141	1.013926	-0.693870
O74	O	1.869141	1.513926	-0.193870
H75	H	1.373195	0.911691	-0.688052
H76	H	1.873195	1.411691	-0.188052
