data_functionalizedCrystal
_audit_creation_method	'MofGen! by Chris Wilmer'
_symmetry_space_group_name_H-M	'P1'
_symmetry_Int_Tables_number	1
_symmetry_cell_setting	triclinic
loop_
_symmetry_equiv_pos_as_xyz
  x,y,z
_cell_length_a	15.297475
_cell_length_b	19.077068
_cell_length_c	19.076919
_cell_angle_alpha	94.470751
_cell_angle_beta	97.019402
_cell_angle_gamma	97.007993
loop_
_atom_site_label
_atom_site_type_symbol
_atom_site_fract_x
_atom_site_fract_y
_atom_site_fract_z
Zn1	Zn	1.323582	0.483130	0.595714
Zn2	Zn	1.323472	0.596268	0.482543
Zn3	Zn	1.181103	0.458344	0.457837
Zn4	Zn	1.168604	0.579149	0.578640
O5	O	1.249190	0.529223	0.528684
O6	O	1.448008	0.515676	0.598188
O7	O	1.309771	0.574764	0.381347
O8	O	1.205280	0.363726	0.472932
O9	O	1.447927	0.598798	0.515042
O10	O	1.309959	0.381937	0.574230
O11	O	1.205173	0.473431	0.363195
O12	O	1.055004	0.456832	0.456376
O13	O	1.183978	0.569621	0.678824
O14	O	1.045821	0.545587	0.545129
O15	O	1.297839	0.499076	0.691368
O16	O	1.297652	0.691903	0.498485
O17	O	1.183871	0.679326	0.569087
C18	C	1.018146	0.496663	0.496219
C19	C	0.919303	0.482751	0.482348
C20	C	1.239416	0.711005	0.534633
C21	C	1.235315	0.788784	0.537212
C22	C	1.239526	0.535204	0.711195
C23	C	1.235408	0.537753	0.788971
C24	C	0.621655	0.628660	0.627826
C25	C	0.714523	0.641736	0.640857
C26	C	0.765723	0.601991	0.601231
C27	C	0.724045	0.549167	0.548571
C28	C	0.631168	0.536093	0.535535
C29	C	0.775236	0.509424	0.508940
C30	C	0.733558	0.456601	0.456281
C31	C	0.640690	0.443529	0.443247
C32	C	0.589490	0.483274	0.482873
C33	C	0.868113	0.522498	0.521976
C34	C	0.877626	0.429931	0.429686
C35	C	0.784758	0.416855	0.416655
C36	C	1.481136	0.561911	0.561275
C37	C	1.579978	0.575841	0.575164
C38	C	1.259026	0.346736	0.522730
C39	C	1.263217	0.268970	0.520193
C40	C	1.292670	0.831857	0.501709
C41	C	1.288818	0.904939	0.504141
C42	C	1.227606	0.934946	0.542071
C43	C	1.170248	0.891868	0.577579
C44	C	1.174105	0.818788	0.575151
C45	C	1.209717	1.152812	0.553273
C46	C	1.205862	1.225897	0.555696
C47	C	1.324433	1.238964	0.482259
C48	C	1.328281	1.165881	0.479831
C49	C	1.270927	1.122810	0.515341
N50	N	1.223665	1.009647	0.544556
N51	N	1.274873	1.048111	0.512861
C52	C	1.258870	0.523222	0.346887
C53	C	1.263171	0.520501	0.269130
C54	C	1.292752	0.502223	0.832042
C55	C	1.288872	0.504613	0.905119
C56	C	1.227652	0.542538	0.935124
C57	C	1.170302	0.578069	0.892047
C58	C	1.174178	0.575674	0.818970
C59	C	1.209698	0.553636	1.152977
C60	C	1.205827	0.556030	1.226059
C61	C	1.324397	0.482573	1.239126
C62	C	1.328272	0.480185	1.166048
C63	C	1.270918	0.515713	1.122977
N64	N	1.223686	0.544985	1.009820
N65	N	1.274880	0.513262	1.048281
H66	H	0.902037	0.565507	0.564853
O67	O	1.386235	0.444249	1.285590
H68	H	1.456129	0.465623	1.281779
H69	H	1.371129	1.274040	0.453349
H70	H	1.120452	0.608946	0.916482
O71	O	1.358708	0.799501	0.460809
H72	H	1.351756	0.741447	0.465083
O73	O	1.350675	0.951394	0.465840
H74	H	1.392482	0.992038	0.504642
H75	H	1.163009	0.582577	1.117918
H76	H	0.513869	0.472629	0.472268
H77	H	1.378125	1.141452	0.448945
H78	H	1.156025	1.250328	0.586597
O79	O	1.394307	0.439281	1.133692
H80	H	1.358197	0.396987	1.093638
O81	O	1.139783	0.596931	1.258417
H82	H	1.094475	0.560326	1.284334
O83	O	0.595732	0.386558	0.386449
H84	H	0.646933	0.361112	0.361089
O85	O	0.739789	0.359901	0.359844
H86	H	0.697716	0.319429	0.384112
H87	H	1.120412	0.916306	0.608466
H88	H	0.919312	0.397568	0.397418
H89	H	1.342607	0.471343	0.807619
O90	O	1.112319	0.613984	0.772507
H91	H	1.069097	0.640759	0.805647
H92	H	1.127402	0.783718	0.604063
H93	H	0.841340	0.612641	0.611844
O94	O	1.147833	1.106355	0.591546
H95	H	1.104608	1.139499	0.618314
O96	O	0.759469	0.698708	0.697650
H97	H	0.832649	0.701128	0.700052
O98	O	1.350724	0.466294	0.951577
H99	H	1.420612	0.487680	0.947758
O100	O	0.566438	0.671525	0.670563
H101	H	0.494857	0.653555	0.652652
