data_functionalizedCrystal
_audit_creation_method	'MofGen! by Chris Wilmer'
_symmetry_space_group_name_H-M	'P1'
_symmetry_Int_Tables_number	1
_symmetry_cell_setting	triclinic
loop_
_symmetry_equiv_pos_as_xyz
  x,y,z
_cell_length_a	8.497374
_cell_length_b	8.497374
_cell_length_c	19.121102
_cell_angle_alpha	92.443878
_cell_angle_beta	92.442019
_cell_angle_gamma	90.004389
loop_
_atom_site_label
_atom_site_type_symbol
_atom_site_fract_x
_atom_site_fract_y
_atom_site_fract_z
Zn1	Zn	0.994974	0.731398	1.073741
Zn2	Zn	0.731239	0.995147	1.073735
Zn3	Zn	0.719952	0.720102	0.956322
Zn4	Zn	0.983720	0.983856	0.956306
O5	O	0.857471	0.857626	1.015026
O6	O	0.969422	0.775837	1.172026
O7	O	0.508979	0.958660	1.058164
O8	O	0.756420	0.500839	0.971907
O9	O	0.775657	0.969612	1.172021
O10	O	0.958477	0.509138	1.058175
O11	O	0.500687	0.756586	0.971901
O12	O	0.745508	0.745637	0.858035
O13	O	1.205975	0.950368	0.971880
O14	O	0.939297	0.939416	0.858023
O15	O	1.214243	0.764888	1.058159
O16	O	0.764745	1.214410	1.058148
O17	O	0.950242	1.206115	0.971874
C18	C	0.839958	0.840077	0.832545
C19	C	0.832503	0.832607	0.754478
C20	C	1.447592	0.857651	1.015030
C21	C	1.268947	0.857643	1.015023
C22	C	0.857493	1.267505	1.015017
C23	C	0.857469	1.446150	1.015036
C24	C	0.929738	0.930140	0.717815
C25	C	0.922741	0.923101	0.644463
C26	C	0.818500	0.818536	0.607776
C27	C	0.721261	0.720992	0.644445
C28	C	0.728267	0.728025	0.717795
C29	C	0.792313	0.792241	0.386305
C30	C	0.785311	0.785219	0.312950
C31	C	0.986794	0.987327	0.312973
C32	C	0.993784	0.994356	0.386325
C33	C	0.896551	0.896807	0.422987
C34	C	0.811342	0.811342	0.532799
C35	C	0.903719	0.903994	0.497963
C36	C	0.875054	0.875244	1.198220
C37	C	0.882546	0.882752	1.276286
H38	H	1.001918	1.002524	0.614615
C39	C	1.018379	1.019011	0.538313
H40	H	1.075297	1.076094	0.505974
H41	H	0.960655	1.090385	0.566925
H42	H	1.089946	0.961503	0.566929
C43	C	1.044406	1.045161	0.758164
H44	H	1.101324	1.102228	0.725820
H45	H	0.986697	1.116549	0.786776
H46	H	1.115972	0.987652	0.786780
C47	C	0.685334	0.684968	0.426625
H48	H	0.622234	0.621707	0.394268
H49	H	0.748495	0.619058	0.455245
H50	H	0.619237	0.747973	0.455230
H51	H	0.726465	0.726208	0.502921
C52	C	0.606593	0.605978	0.604091
H53	H	0.616332	0.615770	0.555155
H54	H	0.630979	0.501168	0.616110
H55	H	0.501707	0.630068	0.616108
C56	C	0.621312	0.620742	0.758128
H57	H	0.640424	0.639893	0.807067
H58	H	0.514130	0.642503	0.746102
H59	H	0.643425	0.513626	0.746105
C60	C	1.108460	1.109368	0.426675
H61	H	1.165379	1.166439	0.394334
H62	H	1.050747	1.180753	0.455288
H63	H	1.180023	1.051856	0.455291
C64	C	1.093824	1.094543	0.272647
H65	H	1.156923	1.157810	0.305002
H66	H	1.159895	1.031498	0.244053
H67	H	1.030700	1.160475	0.244015
C68	C	0.670651	0.670182	0.272595
H69	H	0.613757	0.613080	0.304935
H70	H	0.599088	0.727674	0.243977
H71	H	0.728389	0.598802	0.243985
