data_functionalizedCrystal
_audit_creation_method	'MofGen! by Chris Wilmer'
_symmetry_space_group_name_H-M	'P1'
_symmetry_Int_Tables_number	1
_symmetry_cell_setting	triclinic
loop_
_symmetry_equiv_pos_as_xyz
  x,y,z
_cell_length_a	16.109301
_cell_length_b	9.065218
_cell_length_c	8.140239
_cell_angle_alpha	89.997198
_cell_angle_beta	89.998879
_cell_angle_gamma	95.761317
loop_
_atom_site_label
_atom_site_type_symbol
_atom_site_fract_x
_atom_site_fract_y
_atom_site_fract_z
O1	O	-0.121905	1.957448	-0.136598
O2	O	-0.131904	1.527922	-0.136599
O3	O	-0.005964	1.754484	-0.136607
O4	O	-0.247845	1.730885	-0.136590
O5	O	-0.005963	1.754472	0.136620
O6	O	-0.131903	1.527909	0.136628
O7	O	-0.121904	1.957436	0.136629
Zn8	Zn	-0.126903	1.742671	0.180009
Zn9	Zn	-0.126905	1.742687	-0.179979
O10	O	-0.247843	1.730873	0.136637
C11	C	-0.130943	1.472952	0.000014
C12	C	-0.128069	1.309179	0.000013
C13	C	-0.278826	1.731835	0.000025
C14	C	-0.371144	1.734701	0.000032
C15	C	-0.592434	1.606927	0.000008
C16	C	-0.679176	1.609631	-0.000005
C17	C	-0.661367	1.878441	0.000003
C18	C	-0.574627	1.875735	0.000003
C19	C	-0.540164	1.739974	0.000014
C20	C	-0.713644	1.745384	0.000001
C21	C	-0.807693	1.748317	-0.000012
C22	C	-0.446109	1.737040	0.000025
C23	C	0.025019	1.753522	0.000001
C24	C	0.117336	1.750656	-0.000016
C25	C	-0.122865	2.012405	0.000012
C26	C	-0.125739	2.176179	0.000002
N27	N	-0.126901	1.742670	0.425692
N28	N	-0.126900	1.742699	-0.425662
H29	H	-0.564377	1.496382	0.000022
Br30	Br	-0.503681	2.056311	-0.000005
H31	H	-0.689438	1.988973	0.000011
Br32	Br	-0.750112	1.429060	-0.000029
