data_functionalizedCrystal
_audit_creation_method	'MofGen! by Chris Wilmer'
_symmetry_space_group_name_H-M	'P1'
_symmetry_Int_Tables_number	1
_symmetry_cell_setting	triclinic
loop_
_symmetry_equiv_pos_as_xyz
  x,y,z
_cell_length_a	10.540535
_cell_length_b	13.930277
_cell_length_c	14.853567
_cell_angle_alpha	90.005533
_cell_angle_beta	95.920714
_cell_angle_gamma	89.987569
loop_
_atom_site_label
_atom_site_type_symbol
_atom_site_fract_x
_atom_site_fract_y
_atom_site_fract_z
O1	O	1.684467	0.079769	-0.127026
O2	O	1.314922	0.079782	-0.139001
O3	O	1.509566	0.079778	-0.001838
O4	O	1.489823	0.079773	-0.264188
O5	O	1.509600	-0.079883	-0.001847
O6	O	1.314957	-0.079880	-0.139009
O7	O	1.684502	-0.079892	-0.127034
Zn8	Zn	1.499735	-0.105236	-0.133023
Zn9	Zn	1.499689	0.105126	-0.133012
O10	O	1.489858	-0.079889	-0.264197
C11	C	1.267646	-0.000047	-0.138108
C12	C	1.126727	-0.000042	-0.135424
C13	C	1.091158	-0.000044	-0.035278
C14	C	0.944589	-0.000416	-0.032454
C15	C	0.916908	-0.091052	-0.181143
C16	C	1.063650	-0.091119	-0.183274
C17	C	1.063478	0.090453	-0.184721
C18	C	0.917183	0.091640	-0.180090
C19	C	1.508688	-0.000050	0.031751
C20	C	1.506008	-0.000041	0.131850
C21	C	1.731778	-0.000061	-0.127927
C22	C	1.872697	-0.000060	-0.130611
N23	N	1.499658	0.248692	-0.132997
N24	N	1.499775	-0.248802	-0.133031
C25	C	1.413409	0.700963	-0.193639
C26	C	1.586116	0.700929	-0.072416
C27	C	1.586096	0.600433	-0.072409
C28	C	1.499730	0.550197	-0.133017
C29	C	1.413383	0.600458	-0.193632
C30	C	1.672432	0.550165	-0.011790
C31	C	1.672414	0.449663	-0.011780
C32	C	1.586053	0.399426	-0.072393
C33	C	1.499704	0.449692	-0.133011
C34	C	1.413338	0.399457	-0.193619
C35	C	1.326994	0.449721	-0.254241
C36	C	1.327022	0.550220	-0.254245
C37	C	1.586025	0.298927	-0.072389
C38	C	1.413312	0.298952	-0.193612
C39	C	1.490735	-0.000058	-0.297786
C40	C	1.493416	-0.000061	-0.397885
C41	C	1.379054	-0.000055	0.545087
C42	C	1.610295	-0.000063	0.565087
C43	C	1.612816	-0.000058	0.471039
C44	C	1.498453	-0.000052	0.414011
C45	C	1.381571	-0.000053	0.451030
C46	C	1.729696	-0.000067	0.434013
C47	C	1.732221	-0.000062	0.339960
C48	C	1.617858	-0.000050	0.282930
C49	C	1.500970	-0.000050	0.319954
C50	C	1.386608	-0.000044	0.262926
C51	C	1.269719	-0.000037	0.299948
C52	C	1.267207	-0.000041	0.394000
C53	C	1.620370	-0.000047	0.188878
C54	C	1.389125	-0.000042	0.168869
H55	H	1.133536	0.065199	0.003182
O56	O	1.670233	0.749571	-0.013584
C57	C	1.795796	0.724929	-0.029337
H58	H	1.795492	0.651968	-0.064125
H59	H	1.835035	0.781469	-0.074538
C60	C	1.880733	0.809805	0.104231
C61	C	1.880361	0.720189	0.061512
H62	H	1.932899	0.806885	0.160270
H63	H	1.796139	0.826410	0.114843
H64	H	1.913429	0.856912	0.066555
H65	H	1.847650	0.673086	0.099183
H66	H	1.964951	0.703575	0.050908
O67	O	1.089212	0.091572	-0.272571
C68	C	1.222300	0.095044	-0.276056
H69	H	1.269937	0.126234	-0.210087
H70	H	1.259942	0.019428	-0.285828
C71	C	1.193971	0.120540	-0.436802
C72	C	1.252479	0.158856	-0.355780
H73	H	1.212588	0.159898	-0.485981
H74	H	1.104307	0.118197	-0.434455
H75	H	1.225346	0.057527	-0.444932
H76	H	1.221092	0.221861	-0.347646
H77	H	1.342138	0.161210	-0.358128
O78	O	1.669764	0.249952	-0.013541
C79	C	1.651251	0.150477	-0.026549
H80	H	1.550324	0.136774	-0.059430
H81	H	1.723035	0.121929	-0.072359
C82	C	1.794354	0.115718	0.105926
C83	C	1.670390	0.098888	0.065548
H84	H	1.806165	0.083893	0.162735
H85	H	1.806831	0.182736	0.114689
H86	H	1.854160	0.091928	0.067742
H87	H	1.610587	0.122688	0.103727
H88	H	1.657903	0.031872	0.056795
O89	O	1.756369	0.598813	0.047168
C90	C	1.832589	0.532902	0.100660
H91	H	1.780543	0.461279	0.102115
H92	H	1.926831	0.522175	0.070612
C93	C	1.922770	0.660114	0.195932
C94	C	1.858842	0.572147	0.197724
H95	H	1.938970	0.684323	0.255804
H96	H	1.871423	0.704520	0.159891
H97	H	2.001298	0.651163	0.170887
H98	H	1.780309	0.581101	0.222758
H99	H	1.910176	0.527743	0.233772
O100	O	1.721462	0.000060	0.620390
C101	C	1.792380	0.082764	0.603523
H102	H	1.761331	0.110337	0.532394
H103	H	1.774913	0.140663	0.655076
C104	C	1.973518	0.023780	0.698903
C105	C	1.935391	0.057642	0.611538
H106	H	2.061735	0.008286	0.703851
H107	H	1.925739	-0.031938	0.710270
H108	H	1.958953	0.072035	0.741854
H109	H	1.949942	0.009383	0.568589
H110	H	1.983176	0.113351	0.600164
O111	O	0.883629	0.172051	-0.136330
C112	C	0.923986	0.253918	-0.181358
H113	H	1.005942	0.233612	-0.222070
H114	H	0.841162	0.283121	-0.228937
C115	C	0.868582	0.356266	-0.061277
C116	C	0.969249	0.331328	-0.111273
H117	H	0.896497	0.404018	-0.018046
H118	H	0.841388	0.301111	-0.030941
H119	H	0.799571	0.380597	-0.100935
H120	H	1.038251	0.306987	-0.071616
H121	H	0.996455	0.386480	-0.141600
H122	H	1.827399	-0.000067	0.309825
H123	H	1.106266	0.159446	-0.153468
O124	O	1.158547	0.000097	0.244638
C125	C	1.087591	0.082805	0.261515
H126	H	1.118621	0.110374	0.332650
H127	H	1.105038	0.140704	0.209973
C128	C	0.906487	0.023835	0.166116
C129	C	0.944591	0.057692	0.253488
H130	H	0.818277	0.008346	0.161161
H131	H	0.954293	-0.031886	0.154743
H132	H	0.921037	0.072090	0.123174
H133	H	0.930056	0.009433	0.296428
H134	H	0.896779	0.113404	0.264869
H135	H	1.742720	0.408744	0.037581
O136	O	1.840897	-0.000111	0.489278
C137	C	1.944602	-0.000093	0.436437
H138	H	1.912515	-0.030325	0.366460
H139	H	1.980401	0.076504	0.429512
C140	C	2.092278	-0.025572	0.568544
C141	C	2.052871	-0.062712	0.482600
H142	H	2.159067	-0.064194	0.597020
H143	H	2.022412	-0.025581	0.604145
H144	H	2.122102	0.038258	0.562761
H145	H	2.023034	-0.126536	0.488384
H146	H	2.122736	-0.062715	0.447000
O147	O	1.242922	0.400960	-0.313020
C148	C	1.117318	0.425579	-0.297353
H149	H	1.116775	0.453235	-0.225158
H150	H	1.080006	0.483906	-0.347043
C151	C	1.031919	0.302354	-0.399308
C152	C	1.031250	0.336315	-0.310635
H153	H	0.978826	0.247294	-0.407505
H154	H	1.116540	0.285770	-0.409867
H155	H	1.000829	0.350968	-0.440706
H156	H	1.062355	0.287705	-0.269239
H157	H	0.946632	0.352889	-0.300070
H158	H	1.135046	-0.065198	0.002531
H159	H	1.342986	0.258056	-0.242970
O160	O	1.329364	0.749676	-0.252486
C161	C	1.203747	0.725181	-0.236782
H162	H	1.203919	0.652222	-0.202013
H163	H	1.164560	0.781770	-0.191584
C164	C	1.119023	0.810146	-0.370353
C165	C	1.119233	0.720533	-0.327656
H166	H	1.066888	0.807283	-0.426408
H167	H	1.203653	0.826653	-0.380932
H168	H	1.086370	0.857294	-0.332679
H169	H	1.151900	0.673390	-0.365325
H170	H	1.034607	0.704019	-0.317086
H171	H	0.915672	0.064798	0.007065
H172	H	1.256723	0.591152	-0.303601
H173	H	1.715539	-0.000059	0.158739
H174	H	0.868757	-0.094180	-0.253415
H175	H	0.916583	-0.066026	0.006864
H176	H	1.104212	-0.159396	-0.149155
H177	H	1.085874	-0.095008	-0.256689
H178	H	1.172042	-0.000035	0.424152
H179	H	0.886402	-0.159027	-0.146481
H180	H	0.867345	0.097416	-0.251728
H181	H	1.295996	-0.000033	0.122441
H182	H	1.283886	-0.000045	0.575235
