data_functionalizedCrystal
_audit_creation_method	'MofGen! by Chris Wilmer'
_symmetry_space_group_name_H-M	'P1'
_symmetry_Int_Tables_number	1
_symmetry_cell_setting	triclinic
loop_
_symmetry_equiv_pos_as_xyz
  x,y,z
_cell_length_a	10.723023
_cell_length_b	15.538191
_cell_length_c	9.198806
_cell_angle_alpha	90.002301
_cell_angle_beta	89.999839
_cell_angle_gamma	65.869821
loop_
_atom_site_label
_atom_site_type_symbol
_atom_site_fract_x
_atom_site_fract_y
_atom_site_fract_z
O1	O	1.596016	0.131736	0.120863
O2	O	1.227008	0.144346	0.120867
O3	O	1.483343	0.001376	0.120871
O4	O	1.339682	0.274707	0.120859
O5	O	1.483347	0.001365	-0.120914
O6	O	1.227013	0.144335	-0.120918
O7	O	1.596021	0.131725	-0.120922
Cu8	Cu	1.411517	0.138029	-0.142997
Cu9	Cu	1.411512	0.138042	0.142942
O10	O	1.339687	0.274695	-0.120926
C11	C	1.180937	0.143423	-0.000024
C12	C	1.043658	0.140678	-0.000022
C13	C	0.840573	0.136623	0.125230
C14	C	0.982459	0.139460	0.125231
C15	C	1.498376	-0.033628	-0.000017
C16	C	1.543147	-0.137913	-0.000003
C17	C	1.098354	-0.428577	-0.000029
C18	C	1.140455	-0.526570	-0.000032
C19	C	1.377263	-0.547484	-0.000035
C20	C	1.335182	-0.449490	-0.000024
C21	C	1.195726	-0.390043	-0.000022
C22	C	1.432554	-0.410956	-0.000018
C23	C	1.390476	-0.312971	-0.000014
C24	C	1.251026	-0.253519	-0.000017
C25	C	1.153648	-0.292058	-0.000019
C26	C	1.572010	-0.470404	-0.000029
C27	C	1.669382	-0.431871	-0.000023
C28	C	1.627304	-0.333884	-0.000010
C29	C	1.487854	-0.274431	-0.000013
C30	C	1.724682	-0.295344	-0.000008
C31	C	1.682604	-0.197359	-0.000005
C32	C	1.445775	-0.176446	-0.000009
C33	C	1.642092	0.132648	-0.000028
C34	C	1.779372	0.135393	-0.000020
C35	C	1.324654	0.309699	-0.000035
C36	C	1.279882	0.413984	-0.000039
N37	N	1.411512	0.138045	0.344056
N38	N	1.411531	0.138019	-0.344111
C39	C	1.519375	0.077882	0.416254
C40	C	1.519386	0.077867	0.583667
H41	H	0.991030	0.139626	-0.107259
C42	C	1.789705	-0.154962	0.000002
C43	C	1.893182	-0.177060	-0.125550
C44	C	2.000284	-0.134661	-0.125554
C45	C	2.003910	-0.070164	-0.000006
C46	C	1.900430	-0.048063	0.125556
C47	C	1.793327	-0.090462	0.125560
H48	H	1.890501	-0.224807	-0.218497
H49	H	2.076887	-0.151022	-0.218504
H50	H	2.083194	-0.038778	-0.000009
H51	H	1.903110	-0.000316	0.218502
H52	H	1.716724	-0.074100	0.218509
C53	C	1.033343	-0.568964	-0.000028
C54	C	0.929869	-0.546873	-0.125578
C55	C	0.822765	-0.589270	-0.125577
C56	C	0.819134	-0.653758	-0.000026
C57	C	0.922612	-0.675852	0.125534
C58	C	1.029716	-0.633455	0.125532
H59	H	0.932553	-0.499133	-0.218527
H60	H	0.746164	-0.572915	-0.218525
H61	H	0.739849	-0.685143	-0.000025
H62	H	0.919928	-0.723592	0.218483
H63	H	1.106317	-0.649810	0.218480
C64	C	1.286761	0.207619	0.427971
C65	C	1.208352	0.170211	0.532638
C66	C	1.083597	0.239788	0.616549
C67	C	1.037250	0.346772	0.595793
C68	C	1.115660	0.384186	0.491121
C69	C	1.240415	0.314609	0.407210
H70	H	1.242660	0.091010	0.548008
H71	H	1.025553	0.212091	0.694035
H72	H	0.944899	0.398277	0.657909
H73	H	1.081352	0.463387	0.475751
H74	H	1.298459	0.342306	0.329724
C75	C	1.530660	-0.612880	-0.000033
C76	C	1.622574	-0.608038	-0.125578
C77	C	1.775972	-0.673432	-0.125571
C78	C	1.837457	-0.743669	-0.000019
C79	C	1.745543	-0.748514	0.125535
C80	C	1.592144	-0.683119	0.125528
H81	H	1.577060	-0.556042	-0.218527
H82	H	1.844013	-0.669846	-0.218515
H83	H	1.951012	-0.792078	-0.000014
H84	H	1.791057	-0.800510	0.218485
H85	H	1.524103	-0.686706	0.218473
H86	H	0.787931	0.135569	0.232462
C87	C	1.292372	-0.111042	0.000002
C88	C	1.230892	-0.040801	0.125559
C89	C	1.077497	0.024604	0.125569
C90	C	0.985583	0.019767	0.000022
C91	C	1.047061	-0.050477	-0.125545
C92	C	1.200456	-0.115882	-0.125555
H93	H	1.298934	-0.037218	0.218505
H94	H	1.031987	0.076603	0.218522
H95	H	0.872031	0.068183	0.000029
H96	H	0.979019	-0.054061	-0.218491
H97	H	1.245966	-0.167882	-0.218508
H98	H	1.035087	0.140523	0.232462
H99	H	0.832020	0.136437	-0.107252
H100	H	1.606265	-0.550190	-0.000019
H101	H	1.216768	-0.173733	-0.000023
H102	H	1.040088	-0.243653	-0.000007
H103	H	1.782927	-0.480285	-0.000030
H104	H	1.611730	0.026355	0.645754
H105	H	1.611718	0.026387	0.354129
H106	H	0.984795	-0.380172	-0.000017
H107	H	1.838227	-0.343760	-0.000023
H108	H	1.319176	0.189526	0.593811
