data_functionalizedCrystal
_audit_creation_method	'MofGen! by Chris Wilmer'
_symmetry_space_group_name_H-M	'P1'
_symmetry_Int_Tables_number	1
_symmetry_cell_setting	triclinic
loop_
_symmetry_equiv_pos_as_xyz
  x,y,z
_cell_length_a	31.640172
_cell_length_b	31.640172
_cell_length_c	15.698487
_cell_angle_alpha	59.993115
_cell_angle_beta	90.004257
_cell_angle_gamma	59.998920
loop_
_atom_site_label
_atom_site_type_symbol
_atom_site_fract_x
_atom_site_fract_y
_atom_site_fract_z
Zr1	Zr	0.407163	0.462617	-0.111837
O2	O	0.339670	0.550807	-0.247900
O3	O	0.427856	0.374432	-0.070105
O4	O	0.427853	0.462613	-0.247846
O5	O	0.339673	0.462628	0.070022
O6	O	0.497410	0.462604	-0.247827
O7	O	0.339673	0.462626	-0.070159
O8	O	0.497415	0.304865	0.070119
O9	O	0.339667	0.620367	-0.247924
O10	O	0.488588	0.410696	-0.052318
O11	O	0.436678	0.410704	0.052283
O12	O	0.436674	0.514525	-0.156984
O13	O	0.384764	0.514533	-0.052382
Zr14	Zr	0.518098	0.462606	0.111766
Zr15	Zr	0.518099	0.462603	-0.111807
Zr16	Zr	0.407162	0.462620	0.111736
Zr17	Zr	0.407158	0.573557	-0.111875
Zr18	Zr	0.518102	0.351666	0.111804
O19	O	0.497405	0.550791	0.070034
O20	O	0.497406	0.550787	-0.247858
O21	O	0.339669	0.550811	0.069992
O22	O	0.585590	0.374416	0.247829
O23	O	0.585592	0.374412	-0.070063
O24	O	0.427855	0.374436	0.247787
O25	O	0.585588	0.462595	-0.070093
O26	O	0.497408	0.462610	0.247775
O27	O	0.427851	0.462619	0.247756
O28	O	0.585588	0.462597	0.070088
O29	O	0.427846	0.620356	-0.247900
O30	O	0.497415	0.304867	0.247829
O31	O	0.585593	0.304856	0.247853
O32	O	0.585594	0.304854	0.070143
O33	O	0.339667	0.620369	-0.070214
O34	O	0.427846	0.620358	-0.070190
O35	O	0.488587	0.410698	0.156913
O36	O	0.540497	0.410690	0.052311
O37	O	0.488583	0.514520	-0.052354
O38	O	0.436673	0.514527	0.052247
C39	C	0.462636	0.323842	0.000012
C40	C	0.462638	0.276745	0.000029
C41	C	0.424311	0.023075	-0.077305
C42	C	0.424307	-0.153906	-0.077334
O43	O	0.391729	-0.144197	-0.143061
N44	N	0.462627	-0.214362	-0.000083
C45	C	0.500953	-0.230573	0.077177
O46	O	0.533550	-0.286056	0.142877
C47	C	0.500959	-0.053592	0.077201
C48	C	0.462633	0.006864	-0.000049
C49	C	0.385988	0.083528	-0.154549
C50	C	0.385988	0.127770	-0.154538
C51	C	0.424310	0.111559	-0.077282
C52	C	0.462633	0.051106	-0.000038
C53	C	0.539286	-0.069804	0.154456
C54	C	0.539285	-0.025552	0.154453
C55	C	0.500959	0.034904	0.077203
C56	C	0.500954	0.079137	0.077229
N57	N	0.462634	0.139593	-0.000022
C58	C	0.424312	0.155804	-0.077278
C59	C	0.500947	-0.323488	0.077161
C60	C	0.500945	-0.367733	0.077156
C61	C	0.424299	-0.291063	-0.077356
C62	C	0.424299	-0.246818	-0.077347
C63	C	0.462626	-0.263032	-0.000091
C64	C	0.424314	0.248713	-0.077248
C65	C	0.424316	0.292956	-0.077227
C66	C	0.500963	0.216282	0.077282
C67	C	0.500960	0.172043	0.077265
C68	C	0.462633	0.188263	-0.000009
O69	O	0.533519	0.069472	0.142915
O70	O	0.391727	0.211289	-0.142981
C71	C	0.424311	-0.021168	-0.077316
C72	C	0.462633	-0.081621	-0.000072
C73	C	0.500955	-0.097832	0.077184
C74	C	0.462631	-0.125866	-0.000076
C75	C	0.424309	-0.109655	-0.077332
C76	C	0.385989	-0.049199	-0.154583
C77	C	0.385989	-0.004957	-0.154572
C78	C	0.539276	-0.158288	0.154435
C79	C	0.539272	-0.202527	0.154418
C80	C	0.500950	-0.186316	0.077162
C81	C	0.323867	0.462629	-0.000073
C82	C	0.276772	0.462635	-0.000085
C83	C	0.011864	0.408408	0.054620
C84	C	-0.165121	0.408398	0.054640
O85	O	-0.164960	0.362304	0.101143
N86	N	-0.214349	0.462595	0.000005
C87	C	-0.219330	0.516799	-0.054634
O88	O	-0.265262	0.562897	-0.101096
C89	C	-0.042345	0.516809	-0.054648
C90	C	0.006882	0.462608	-0.000018
C91	C	0.061090	0.354212	0.109247
C92	C	0.105333	0.354215	0.109237
C93	C	0.100351	0.408414	0.054599
C94	C	0.051126	0.462611	-0.000028
C95	C	-0.047327	0.571012	-0.109281
C96	C	-0.003075	0.571009	-0.109277
C97	C	0.046152	0.516809	-0.054646
C98	C	0.090387	0.516814	-0.054676
N99	N	0.139615	0.462616	-0.000040
C100	C	0.144597	0.408417	0.054597
C101	C	-0.312247	0.516790	-0.054625
C102	C	-0.356493	0.516788	-0.054623
C103	C	-0.302281	0.408386	0.054653
C104	C	-0.258035	0.408389	0.054645
C105	C	-0.263019	0.462593	0.000011
C106	C	0.237509	0.408427	0.054571
C107	C	0.281754	0.408435	0.054552
C108	C	0.227538	0.516836	-0.054720
C109	C	0.183297	0.516829	-0.054706
C110	C	0.188286	0.462619	-0.000053
O111	O	0.090266	0.562883	-0.101144
O112	O	0.190534	0.362326	0.101071
C113	C	-0.032379	0.408405	0.054630
C114	C	-0.081604	0.462601	0.000003
C115	C	-0.086586	0.516801	-0.054634
C116	C	-0.125850	0.462599	0.000005
C117	C	-0.120868	0.408400	0.054642
C118	C	-0.071640	0.354202	0.109278
C119	C	-0.027397	0.354205	0.109268
C120	C	-0.135814	0.570998	-0.109270
C121	C	-0.180056	0.570991	-0.109256
C122	C	-0.175074	0.516791	-0.054619
C123	C	0.601394	0.462594	0.000002
C124	C	0.648489	0.462588	0.000014
C125	C	0.462631	0.462608	-0.279691
C126	C	0.462632	0.462607	-0.374603
C127	C	0.462625	0.601381	-0.000084
C128	C	0.462623	0.648478	-0.000100
C129	C	0.462632	0.462606	-0.451682
C130	C	0.462631	0.462609	-0.548386
C131	C	0.462629	0.462615	0.279620
C132	C	0.462629	0.462616	0.374532
C133	C	0.601400	0.323825	0.000050
C134	C	0.648496	0.276722	0.000079
C135	C	0.462635	0.323845	0.279668
C136	C	0.462637	0.276750	0.374596
C137	C	0.601398	0.323828	0.279705
C138	C	0.648495	0.276726	0.374646
C139	C	0.323862	0.601395	-0.279776
C140	C	0.276766	0.648497	-0.374718
C141	C	0.323861	0.601398	-0.000121
C142	C	0.276764	0.648501	-0.000150
C143	C	0.462626	0.601378	-0.279739
C144	C	0.462624	0.648473	-0.374668
C145	C	0.643518	0.254604	-0.054533
C146	C	0.687766	0.210352	-0.054526
C147	C	0.736993	0.188215	0.000098
C148	C	0.741971	0.210337	0.054711
C149	C	0.697723	0.254591	0.054698
C150	C	0.489733	0.254630	0.473801
C151	C	0.489733	0.210385	0.563005
C152	C	0.462638	0.188257	0.553003
C153	C	0.435538	0.210380	0.453788
C154	C	0.435536	0.254628	0.364586
C155	C	0.697713	0.254603	0.364631
C156	C	0.741970	0.210352	0.453830
C157	C	0.737007	0.188222	0.553043
C158	C	0.687783	0.210350	0.563057
C159	C	0.643528	0.254603	0.473859
C160	C	0.227548	0.670626	-0.364702
C161	C	0.183291	0.714891	-0.453901
C162	C	0.188254	0.737023	-0.553114
C163	C	0.237477	0.714892	-0.563128
C164	C	0.281733	0.670631	-0.473930
C165	C	0.281743	0.670623	0.054452
C166	C	0.237495	0.714888	0.054421
C167	C	0.188268	0.737026	-0.000206
C168	C	0.183290	0.714902	-0.054815
C169	C	0.227538	0.670642	-0.054789
C170	C	0.489724	0.670588	-0.364632
C171	C	0.489733	0.714833	-0.453819
C172	C	0.462638	0.736967	-0.553041
C173	C	0.435537	0.714849	-0.563075
C174	C	0.435532	0.670601	-0.473889
H175	H	0.393088	-0.197594	-0.140245
H176	H	0.413479	0.192357	0.445659
N177	N	0.133019	0.737485	-0.443639
N178	N	0.128600	0.717711	-0.355046
H179	H	0.093097	0.733666	-0.347795
H180	H	0.413472	0.272632	0.283812
N181	N	0.385173	0.354712	-0.156156
N182	N	0.397577	0.387954	-0.215614
H183	H	0.369934	0.431567	-0.271358
H184	H	0.701764	0.272614	0.283854
H185	H	0.773018	0.152180	0.000101
N186	N	0.593238	0.277221	-0.110358
N187	N	0.562501	0.331551	-0.182291
H188	H	0.526992	0.347524	-0.221726
H189	H	-0.217954	0.364254	0.099139
N190	N	0.517414	0.187784	0.664350
N191	N	0.493833	0.192733	0.726295
H192	H	0.513383	0.176772	0.797869
H193	H	0.782046	0.192339	0.445658
N194	N	0.222439	0.648053	-0.110571
N195	N	0.178481	0.667828	-0.159336
H196	H	0.174875	0.651878	-0.198736
H197	H	0.683703	0.192346	-0.098999
H198	H	0.782057	0.192306	0.099184
H199	H	0.570484	-0.171496	0.217346
H200	H	0.152214	0.773063	-0.625737
H201	H	-0.316314	0.560931	-0.099122
N202	N	0.222464	0.572192	-0.110528
N203	N	0.261976	0.572180	-0.110519
H204	H	0.258394	0.611275	-0.149929
N205	N	0.593258	0.277192	0.484117
N206	N	0.588840	0.257423	0.572711
H207	H	0.553337	0.273374	0.579964
N208	N	0.242533	0.737511	-0.664483
N209	N	0.203011	0.777028	-0.744107
H210	H	0.206580	0.793003	-0.815692
H211	H	0.143204	0.732935	-0.099291
H212	H	0.462644	0.152227	0.625645
N213	N	0.332003	0.648035	-0.484188
N214	N	0.336421	0.667804	-0.572782
H215	H	0.371924	0.651849	-0.580035
N216	N	0.517402	0.277242	0.484016
N217	N	0.517398	0.316751	0.404375
H218	H	0.536937	0.332722	0.411595
H219	H	0.532149	-0.416957	0.140070
N220	N	0.702822	0.277173	0.110493
N221	N	0.746780	0.257398	0.159258
H222	H	0.750385	0.273345	0.198666
H223	H	0.393105	0.261928	-0.140173
N224	N	0.517420	0.737414	-0.443536
N225	N	0.541603	0.717648	-0.354935
H226	H	0.561157	0.733594	-0.347669
H227	H	0.462646	0.772997	-0.625653
N228	N	0.332019	0.648020	0.110266
N229	N	0.336448	0.667786	0.159005
H230	H	0.371955	0.651827	0.198424
N231	N	0.782221	0.143019	0.644141
N232	N	0.826161	0.123273	0.635172
H233	H	0.858096	0.091346	0.699506
N234	N	0.242596	0.737475	0.110209
N235	N	0.286553	0.717695	0.158986
H236	H	0.290158	0.733646	0.198387
N237	N	0.407866	0.737466	-0.664439
N238	N	0.407877	0.776975	-0.744052
H239	H	0.388333	0.792953	-0.815643
N240	N	0.022881	0.298835	0.165074
N241	N	0.027312	0.250451	0.213848
H242	H	0.062820	0.211341	0.253265
N243	N	0.682728	0.187733	0.664412
N244	N	0.722250	0.148217	0.744036
H245	H	0.718681	0.132238	0.815621
N246	N	-0.297198	0.353023	0.110486
N247	N	-0.274114	0.316740	0.206793
H248	H	-0.270527	0.277642	0.246229
N249	N	0.143078	0.782239	-0.000220
N250	N	0.147536	0.801982	0.048542
H251	H	0.115622	0.833913	0.048538
N252	N	0.242599	0.353061	0.110392
N253	N	0.223965	0.340958	0.182313
H254	H	0.227559	0.301856	0.221732
N255	N	0.517413	0.647982	-0.263293
N256	N	0.565192	0.623281	-0.236679
H257	H	0.584752	0.607315	-0.165111
N258	N	0.346832	0.189519	-0.233450
N259	N	0.312621	0.203974	-0.302414
H260	H	0.284964	0.247584	-0.358150
N261	N	0.346838	0.100105	-0.233483
N262	N	0.312629	0.154088	-0.302440
H263	H	0.284974	0.165802	-0.358190
N264	N	0.407838	0.648021	-0.484131
N265	N	0.407827	0.608520	-0.404503
H266	H	0.388265	0.592575	-0.411741
H267	H	0.393096	-0.277870	-0.140262
H268	H	0.223497	0.652608	-0.283925
H269	H	0.532159	-0.336700	0.140075
N270	N	-0.066565	0.298843	0.165074
N271	N	-0.106078	0.298857	0.165062
H272	H	-0.102497	0.259762	0.204468
H273	H	0.570496	-0.119024	0.217360
H274	H	0.570497	-0.038762	0.217365
H275	H	0.532163	0.122816	0.140178
H276	H	-0.139879	0.615135	-0.153765
H277	H	0.354779	0.044267	-0.217476
N278	N	0.540106	0.199742	0.156176
N279	N	0.569603	0.215890	0.131172
H280	H	0.597250	0.204211	0.186886
N281	N	0.346836	-0.032643	-0.233487
N282	N	0.317334	-0.048784	-0.208498
H283	H	0.289685	-0.037094	-0.264222
N284	N	0.578433	-0.264278	0.233336
N285	N	0.625043	-0.284987	0.242826
H286	H	0.652703	-0.328596	0.298556
N287	N	0.332036	0.353062	0.110357
N288	N	0.336473	0.304675	0.159135
H289	H	0.371982	0.265569	0.198547
N290	N	0.155614	0.298849	0.165036
N291	N	0.168815	0.262556	0.141903
H292	H	0.204326	0.223450	0.181317
N293	N	0.066195	0.298838	0.165074
N294	N	0.110155	0.250457	0.213842
H295	H	0.113766	0.211345	0.253269
H296	H	-0.087403	0.615148	-0.153766
H297	H	-0.396573	0.560923	-0.099122
N298	N	-0.008178	0.626384	-0.165105
N299	N	-0.031276	0.662674	-0.261406
H300	H	-0.034881	0.701782	-0.300838
N301	N	0.133014	0.572197	-0.110534
N302	N	0.128576	0.620585	-0.159322
H303	H	0.093066	0.659691	-0.198748
H304	H	-0.220138	0.615131	-0.153753
