data_functionalizedCrystal
_audit_creation_method	'MofGen! by Chris Wilmer'
_symmetry_space_group_name_H-M	'P1'
_symmetry_Int_Tables_number	1
_symmetry_cell_setting	triclinic
loop_
_symmetry_equiv_pos_as_xyz
  x,y,z
_cell_length_a	19.805407
_cell_length_b	14.908520
_cell_length_c	19.805399
_cell_angle_alpha	86.729391
_cell_angle_beta	90.019573
_cell_angle_gamma	93.320773
loop_
_atom_site_label
_atom_site_type_symbol
_atom_site_fract_x
_atom_site_fract_y
_atom_site_fract_z
Zn1	Zn	1.019204	-0.359181	0.398269
Zn2	Zn	1.519204	0.140819	0.898269
Zn3	Zn	1.012594	-0.510047	0.291612
Zn4	Zn	1.512594	-0.010047	0.791612
Zn5	Zn	0.906017	-0.359206	0.285095
Zn6	Zn	1.406017	0.140794	0.785095
Zn7	Zn	0.899460	-0.509999	0.404757
Zn8	Zn	1.399460	-0.009999	0.904757
O9	O	0.959319	-0.434608	0.344934
O10	O	1.459319	0.065392	0.844934
O11	O	1.113043	-0.379203	0.384134
O12	O	1.613043	0.120797	0.884134
O13	O	0.998435	-0.490068	0.196033
O14	O	1.498435	0.009932	0.696033
O15	O	0.926542	-0.232958	0.294665
O16	O	1.426542	0.267042	0.794665
O17	O	1.108187	-0.490044	0.305773
O18	O	1.608187	0.009956	0.805773
O19	O	1.009699	-0.232939	0.377814
O20	O	1.509699	0.267061	0.877814
O21	O	0.920133	-0.379246	0.191244
O22	O	1.420133	0.120754	0.691244
O23	O	0.810431	-0.379199	0.300956
O24	O	1.310431	0.120801	0.800956
O25	O	0.915366	-0.489962	0.498612
O26	O	1.415366	0.010038	0.998612
O27	O	0.805614	-0.489986	0.388871
O28	O	1.305614	0.010014	0.888871
O29	O	1.003341	-0.379157	0.493845
O30	O	1.503341	0.120843	0.993845
O31	O	0.992077	-0.636286	0.312064
O32	O	1.492077	-0.136286	0.812064
O33	O	0.908957	-0.636250	0.395191
O34	O	1.408957	-0.136250	0.895191
C35	C	0.783463	-0.434591	0.344911
C36	C	1.283463	0.065409	0.844911
C37	C	0.708231	-0.434605	0.344918
C38	C	1.208231	0.065395	0.844918
C39	C	0.670392	-0.492379	0.390629
C40	C	1.170392	0.007621	0.890629
C41	C	0.599704	-0.492380	0.390639
C42	C	1.099704	0.007620	0.890639
C43	C	0.566855	-0.434612	0.344934
C44	C	1.066855	0.065388	0.844934
C45	C	0.604699	-0.376832	0.299220
C46	C	1.104699	0.123168	0.799220
C47	C	0.675386	-0.376827	0.299214
C48	C	1.175386	0.123173	0.799214
C49	C	0.319625	-0.376852	0.299244
C50	C	0.819625	0.123148	0.799244
C51	C	0.248932	-0.376864	0.299252
C52	C	0.748932	0.123136	0.799252
C53	C	0.243942	-0.492406	0.390668
C54	C	0.743942	0.007594	0.890668
C55	C	0.314629	-0.492400	0.390662
C56	C	0.814629	0.007600	0.890662
C57	C	0.352467	-0.434618	0.344952
C58	C	0.852467	0.065382	0.844952
C59	C	0.429116	-0.434615	0.344943
C60	C	0.929116	0.065385	0.844943
C61	C	0.490208	-0.434618	0.344939
C62	C	0.990208	0.065382	0.844939
C63	C	0.949107	-0.669002	0.355053
C64	C	1.449107	-0.169002	0.855053
C65	C	0.944800	-0.769277	0.359405
C66	C	1.444800	-0.269277	0.859405
C67	C	1.023348	-0.957679	0.281093
C68	C	1.523348	-0.457679	0.781093
C69	C	1.019304	-1.051896	0.285180
C70	C	1.519304	-0.551896	0.785180
C71	C	0.932671	-1.051929	0.371669
C72	C	1.432671	-0.551929	0.871669
C73	C	0.936715	-0.957712	0.367582
C74	C	1.436715	-0.457712	0.867582
C75	C	0.982055	-0.910590	0.322292
C76	C	1.482055	-0.410590	0.822292
C77	C	0.986095	-0.816372	0.318202
C78	C	1.486095	-0.316372	0.818202
C79	C	0.899466	-0.816407	0.404694
C80	C	1.399466	-0.316407	0.904694
C81	C	0.895421	-0.910624	0.408781
C82	C	1.395421	-0.410624	0.908781
C83	C	1.135861	-0.434626	0.344957
C84	C	1.635861	0.065374	0.844957
C85	C	1.211092	-0.434634	0.344967
C86	C	1.711092	0.065366	0.844967
C87	C	0.959359	-0.434551	0.521474
C88	C	1.459359	0.065449	1.021474
C89	C	0.959376	-0.434527	0.596705
C90	C	1.459376	0.065473	1.096705
C91	C	0.969589	-0.199299	0.334789
C92	C	1.469589	0.300701	0.834789
C93	C	0.973966	-0.099024	0.330466
C94	C	1.473966	0.400976	0.830466
C95	C	0.959320	-0.434600	0.169077
C96	C	1.459320	0.065400	0.669077
C97	C	0.959445	-0.434370	0.093836
C98	C	1.459445	0.065630	0.593836
C99	C	1.005186	-0.376828	0.629568
C100	C	1.505186	0.123172	1.129568
C101	C	1.005194	-0.376802	0.700255
C102	C	1.505194	0.123198	1.200255
C103	C	0.959395	-0.434480	0.738078
C104	C	1.459395	0.065520	1.238078
C105	C	0.913581	-0.492182	0.705210
C106	C	1.413581	0.007818	1.205210
C107	C	0.913570	-0.492203	0.634524
C108	C	1.413570	0.007797	1.134524
C109	C	0.913622	-0.492098	0.990280
C110	C	1.413622	0.007902	1.490280
C111	C	0.913638	-0.492074	1.060971
C112	C	1.413638	0.007926	1.560971
C113	C	1.005247	-0.376697	1.056011
C114	C	1.505247	0.123303	1.556011
C115	C	1.005236	-0.376718	0.985325
C116	C	1.505236	0.123282	1.485325
C117	C	0.959419	-0.434416	0.952463
C118	C	1.459419	0.065584	1.452463
C119	C	0.959410	-0.434442	0.875816
C120	C	1.459410	0.065558	1.375816
C121	C	0.959407	-0.434459	0.814725
C122	C	1.459407	0.065541	1.314725
H123	H	0.213126	-0.539452	0.427890
H124	H	0.713126	-0.039452	0.927890
H125	H	1.042533	-0.329753	0.954533
H126	H	1.542533	0.170247	1.454533
H127	H	1.042551	-0.329713	1.082776
H128	H	1.542551	0.170287	1.582776
O129	O	0.869145	-0.548388	0.602631
O130	O	1.369145	-0.048388	1.102631
C131	C	0.880010	-0.638297	0.623794
C132	C	1.380010	-0.138297	1.123794
H133	H	0.933885	-0.642844	0.643439
H134	H	1.433885	-0.142844	1.143439
H135	H	0.872237	-0.682879	0.579225
H136	H	1.372237	-0.182879	1.079225
H137	H	0.842696	-0.661870	0.665828
H138	H	1.342696	-0.161870	1.165828
H139	H	0.858509	-0.949003	0.445657
H140	H	1.358509	-0.449003	0.945657
O141	O	0.563027	-0.548468	0.435130
O142	O	1.063027	-0.048468	0.935130
C143	C	0.581171	-0.528870	0.501769
C144	C	1.081171	-0.028870	1.001769
H145	H	0.634003	-0.494181	0.501715
H146	H	1.134003	0.005819	1.001715
H147	H	0.580772	-0.594040	0.534842
H148	H	1.080772	-0.094040	1.034842
H149	H	0.543412	-0.482543	0.522636
H150	H	1.043412	0.017457	1.022636
H151	H	0.706194	-0.329777	0.261995
H152	H	1.206194	0.170223	0.761995
H153	H	1.060261	-0.919312	0.244211
H154	H	1.560261	-0.419312	0.744211
H155	H	0.341371	-0.539444	0.427878
H156	H	0.841371	-0.039444	0.927878
H157	H	0.222189	-0.329817	0.262033
H158	H	0.722189	0.170183	0.762033
O159	O	0.356271	-0.320695	0.254778
O160	O	0.856271	0.179305	0.754778
C161	C	0.312118	-0.269696	0.214452
C162	C	0.812118	0.230304	0.714452
H163	H	0.260123	-0.306656	0.213659
H164	H	0.760123	0.193344	0.713659
H165	H	0.332943	-0.259967	0.160714
H166	H	0.832943	0.240033	0.660714
H167	H	0.307585	-0.201228	0.236372
H168	H	0.807585	0.298772	0.736372
H169	H	1.023011	-0.778006	0.281323
H170	H	1.523011	-0.278006	0.781323
H171	H	0.577948	-0.329793	0.262009
H172	H	1.077948	0.170207	0.762009
O173	O	1.059524	-1.097523	0.245187
O174	O	1.559524	-0.597523	0.745187
C175	C	1.127959	-1.074404	0.259068
C176	C	1.627959	-0.574404	0.759068
H177	H	1.132264	-1.005980	0.282130
H178	H	1.632264	-0.505980	0.782130
H179	H	1.158488	-1.071161	0.210114
H180	H	1.658488	-0.571161	0.710114
H181	H	1.148466	-1.127376	0.296184
H182	H	1.648466	-0.627376	0.796184
O183	O	0.702378	-0.548370	0.435057
O184	O	1.202378	-0.048370	0.935057
C185	C	0.745506	-0.497078	0.476629
C186	C	1.245506	0.002922	0.976629
H187	H	0.759065	-0.428669	0.449885
H188	H	1.259065	0.071331	0.949885
H189	H	0.793615	-0.533838	0.487240
H190	H	1.293615	-0.033838	0.987240
H191	H	0.718711	-0.487253	0.526377
H192	H	1.218711	0.012747	1.026377
O193	O	0.888648	-1.097851	0.415603
O194	O	1.388648	-0.597851	0.915603
C195	C	0.893951	-1.191106	0.410388
C196	C	1.393951	-0.691106	0.910388
H197	H	0.915602	-1.203985	0.358734
H198	H	1.415602	-0.703985	0.858734
H199	H	0.841712	-1.226977	0.416483
H200	H	1.341712	-0.726977	0.916483
H201	H	0.928826	-1.217764	0.451728
H202	H	1.428826	-0.717764	0.951728
O203	O	0.859278	-0.770804	0.444744
O204	O	1.359278	-0.270804	0.944744
C205	C	0.818407	-0.832603	0.485603
C206	C	1.318407	-0.332603	0.985603
H207	H	0.813204	-0.899791	0.460795
H208	H	1.313204	-0.399791	0.960795
H209	H	0.766237	-0.805442	0.491586
H210	H	1.266237	-0.305442	0.991586
H211	H	0.842728	-0.842546	0.537467
H212	H	1.342728	-0.342546	1.037467
O213	O	1.049702	-0.320714	0.592931
O214	O	1.549702	0.179286	1.092931
C215	C	1.090146	-0.269797	0.637099
C216	C	1.590146	0.230203	1.137099
H217	H	1.062566	-0.266657	0.687346
H218	H	1.562566	0.233343	1.187346
H219	H	1.100465	-0.198723	0.613614
H220	H	1.600465	0.301277	1.113614
H221	H	1.140111	-0.302836	0.646051
H222	H	1.640111	0.197164	1.146051
O223	O	0.868998	-0.548115	0.741914
O224	O	1.368998	-0.048115	1.241914
C225	C	0.802397	-0.528412	0.723767
C226	C	1.302397	-0.028412	1.223767
H227	H	0.802121	-0.456345	0.701231
H228	H	1.302121	0.043655	1.201231
H229	H	0.768626	-0.536169	0.770581
H230	H	1.268626	-0.036169	1.270581
H231	H	0.782587	-0.576787	0.684816
H232	H	1.282587	-0.076787	1.184816
O233	O	0.869078	-0.548131	1.097610
O234	O	1.369078	-0.048131	1.597610
C235	C	0.828646	-0.599076	1.053450
C236	C	1.328646	-0.099076	1.553450
H237	H	0.827906	-0.562141	1.001468
H238	H	1.327906	-0.062141	1.501468
H239	H	0.774902	-0.608680	1.074282
H240	H	1.274902	-0.108680	1.574282
H241	H	0.850434	-0.667601	1.048890
H242	H	1.350434	-0.167601	1.548890
H243	H	1.042499	-0.329820	0.727009
H244	H	1.542499	0.170180	1.227009
H245	H	0.876325	-0.539092	0.963533
H246	H	1.376325	-0.039092	1.463533
