data_functionalizedCrystal
_audit_creation_method	'MofGen! by Chris Wilmer'
_symmetry_space_group_name_H-M	'P1'
_symmetry_Int_Tables_number	1
_symmetry_cell_setting	triclinic
loop_
_symmetry_equiv_pos_as_xyz
  x,y,z
_cell_length_a	14.519709
_cell_length_b	14.519709
_cell_length_c	9.482900
_cell_angle_alpha	99.350820
_cell_angle_beta	80.698649
_cell_angle_gamma	83.680145
loop_
_atom_site_label
_atom_site_type_symbol
_atom_site_fract_x
_atom_site_fract_y
_atom_site_fract_z
O1	O	1.238195	0.106498	-0.120706
O2	O	1.738195	0.606498	0.379294
O3	O	0.969724	0.120729	-0.120751
O4	O	1.469724	0.620729	0.379249
O5	O	1.111076	-0.020624	-0.120714
O6	O	1.611076	0.479376	0.379286
O7	O	1.096843	0.247850	-0.120743
O8	O	1.596843	0.747850	0.379257
O9	O	1.082364	0.008204	0.121071
O10	O	1.582364	0.508204	0.621071
O11	O	0.941012	0.149556	0.121034
O12	O	1.441012	0.649556	0.621034
O13	O	1.209483	0.135325	0.121079
O14	O	1.709483	0.635325	0.621079
Cu15	Cu	1.072626	0.145073	0.143133
Cu16	Cu	1.572626	0.645073	0.643133
Cu17	Cu	1.106581	0.110981	-0.142806
Cu18	Cu	1.606581	0.610981	0.357194
O19	O	1.068131	0.276677	0.121042
O20	O	1.568131	0.776677	0.621042
C21	C	0.921009	0.134478	0.000136
C22	C	1.421009	0.634478	0.500136
C23	C	0.818629	0.132488	0.000119
C24	C	1.318629	0.632488	0.500119
C25	C	0.443726	0.125177	0.000186
C26	C	0.943726	0.625177	0.500186
C27	C	0.548036	0.127207	0.000167
C28	C	1.048036	0.627207	0.500167
C29	C	0.631174	0.128832	0.000151
C30	C	1.131174	0.628832	0.500151
C31	C	0.735491	0.130863	0.000135
C32	C	1.235491	0.630863	0.500135
C33	C	1.096057	-0.040570	0.000178
C34	C	1.596057	0.459430	0.500178
C35	C	1.094068	-0.142951	0.000179
C36	C	1.594068	0.357049	0.500179
C37	C	1.086753	-0.517851	0.000140
C38	C	1.586753	-0.017851	0.500140
C39	C	1.088785	-0.413542	0.000151
C40	C	1.588785	0.086458	0.500151
C41	C	1.090410	-0.330404	0.000161
C42	C	1.590410	0.169596	0.500161
C43	C	1.092443	-0.226089	0.000169
C44	C	1.592443	0.273911	0.500169
C45	C	1.258199	0.121575	0.000189
C46	C	1.758199	0.621575	0.500189
C47	C	1.360579	0.123564	0.000196
C48	C	1.860579	0.623564	0.500196
C49	C	1.083151	0.296623	0.000146
C50	C	1.583151	0.796623	0.500146
C51	C	1.085140	0.399003	0.000136
C52	C	1.585140	0.899003	0.500136
N53	N	1.048751	0.169050	0.344247
N54	N	1.548751	0.669050	0.844247
N55	N	1.130464	0.086996	-0.343920
N56	N	1.630464	0.586996	0.156080
C57	C	1.099532	0.118048	0.416460
C58	C	1.599532	0.618048	0.916460
C59	C	1.079674	0.138005	0.583872
C60	C	1.579674	0.638005	1.083872
H61	H	1.021490	0.196445	0.645981
H62	H	1.521490	0.696445	1.145981
H63	H	1.188641	0.028550	0.593971
H64	H	1.688641	0.528550	1.093971
O65	O	0.979405	0.238761	0.418562
O66	O	1.479405	0.738761	0.918562
C67	C	0.896321	0.322147	0.653176
C68	C	1.396321	0.822147	1.153176
C69	C	0.974899	0.243185	0.569202
C70	C	1.474899	0.743185	1.069202
H71	H	0.892639	0.325737	0.774983
H72	H	1.392639	0.825737	1.274983
H73	H	0.912176	0.392478	0.623440
H74	H	1.412176	0.892478	1.123440
H75	H	0.825924	0.306637	0.623259
H76	H	1.325924	0.806637	1.123259
H77	H	1.045328	0.258605	0.599074
H78	H	1.545328	0.758605	1.099074
H79	H	0.958963	0.172879	0.598946
H80	H	1.458963	0.672879	1.098946
H81	H	1.157707	0.059606	0.354347
H82	H	1.657707	0.559606	0.854347
