data_functionalizedCrystal
_audit_creation_method	'MofGen! by Chris Wilmer'
_symmetry_space_group_name_H-M	'P1'
_symmetry_Int_Tables_number	1
_symmetry_cell_setting	triclinic
loop_
_symmetry_equiv_pos_as_xyz
  x,y,z
_cell_length_a	15.944551
_cell_length_b	10.654550
_cell_length_c	9.130313
_cell_angle_alpha	90.004369
_cell_angle_beta	89.999033
_cell_angle_gamma	83.991834
loop_
_atom_site_label
_atom_site_type_symbol
_atom_site_fract_x
_atom_site_fract_y
_atom_site_fract_z
O1	O	-1.115460	-0.161966	-0.121646
O2	O	-0.871026	-0.181935	-0.121682
O3	O	-0.998863	0.010862	-0.121654
O4	O	-0.987623	-0.354762	-0.121674
O5	O	-0.998855	0.010867	0.121945
O6	O	-0.871018	-0.181929	0.121916
O7	O	-1.115452	-0.161961	0.121953
Cu8	Cu	-0.993234	-0.171944	0.144177
Cu9	Cu	-0.993244	-0.171951	-0.143907
O10	O	-0.987615	-0.354757	0.121925
C11	C	-0.839723	-0.181103	0.000112
C12	C	-0.746463	-0.178618	0.000099
C13	C	-0.998034	0.057652	0.000144
C14	C	-0.995565	0.197063	0.000142
C15	C	-1.146755	-0.162792	0.000155
C16	C	-1.240015	-0.165278	0.000159
C17	C	-0.530880	-0.053173	0.000134
C18	C	-0.470201	-0.111428	-0.119976
C19	C	-0.575711	-0.174122	0.000116
C20	C	-0.470215	-0.111451	0.120193
C21	C	-0.410773	-0.169770	0.000140
C22	C	-0.516261	-0.232410	-0.120093
C23	C	-0.516281	-0.232416	0.120184
C24	C	-0.455620	-0.290759	0.000044
C25	C	-0.670728	-0.176625	0.000102
C26	C	-0.315757	-0.167276	0.000144
C27	C	-0.988444	-0.401547	0.000123
C28	C	-0.990913	-0.540958	0.000116
N29	N	-0.993233	-0.171939	0.346800
C30	C	-1.070833	0.277522	0.000152
C31	C	-1.068508	0.408513	0.000134
C32	C	-0.915639	0.378572	0.000101
C33	C	-0.917965	0.247584	0.000108
N34	N	-0.993252	-0.171946	-0.346529
C35	C	-1.049858	-0.086604	0.423464
C36	C	-1.049866	-0.086605	0.576801
C37	C	-0.936620	-0.257285	0.576796
C38	C	-0.936609	-0.257278	0.423461
H39	H	-0.449799	-0.060274	-0.221516
H40	H	-1.129799	0.474019	0.000140
H41	H	-1.095975	-0.017116	0.639217
H42	H	-0.890520	-0.326768	0.639229
H43	H	-1.134019	0.236393	0.000176
C44	C	-0.551975	0.145373	-0.125959
C45	C	-0.575076	0.082343	-0.000023
H46	H	-0.579268	0.229027	-0.126065
H47	H	-0.492607	0.147890	-0.126815
H48	H	-0.568399	0.101955	-0.210408
H49	H	-0.558646	0.125755	0.084427
H50	H	-0.634457	0.079832	0.000846
H51	H	-0.890494	-0.326768	0.361037
C52	C	-0.844196	0.566074	0.000093
C53	C	-0.830345	0.434110	0.000086
H54	H	-0.791537	0.600356	0.000097
H55	H	-0.875216	0.593679	-0.084847
H56	H	-0.875219	0.593684	0.085050
H57	H	-0.799327	0.406499	-0.084878
H58	H	-0.799312	0.406494	0.085034
C59	C	-1.161789	0.082115	0.438877
C60	C	-1.112090	0.007210	0.339196
H61	H	-1.200204	0.140040	0.386853
H62	H	-1.192309	0.029808	0.498662
H63	H	-1.126559	0.127313	0.498701
H64	H	-1.147320	-0.037995	0.279378
H65	H	-1.081568	0.059524	0.279385
C66	C	-0.631335	-0.303056	-0.256134
C67	C	-0.543641	-0.301410	-0.257335
H68	H	-0.648238	-0.345644	-0.340867
H69	H	-0.647470	-0.345729	-0.170963
H70	H	-0.657770	-0.218907	-0.255785
H71	H	-0.517205	-0.385560	-0.257674
H72	H	-0.527498	-0.258740	-0.342529
C73	C	-0.434871	-0.489413	-0.125913
C74	C	-0.411632	-0.426398	-0.000049
H75	H	-0.407709	-0.573146	-0.125977
H76	H	-0.494259	-0.491713	-0.126712
H77	H	-0.418392	-0.446124	-0.210412
H78	H	-0.428117	-0.469681	0.084451
H79	H	-0.352231	-0.424105	0.000763
C80	C	-0.600126	-0.219541	0.339146
C81	C	-0.543867	-0.301414	0.257257
H82	H	-0.617162	-0.262135	0.423772
H83	H	-0.573173	-0.148081	0.367981
H84	H	-0.648204	-0.192899	0.281223
H85	H	-0.495786	-0.328048	0.315177
H86	H	-0.570819	-0.372897	0.228424
C87	C	-0.481052	0.082015	0.257029
C88	C	-0.442694	-0.042369	0.257274
H89	H	-0.464066	0.124665	0.341657
H90	H	-0.464507	0.124144	0.171751
H91	H	-0.540599	0.081587	0.257540
H92	H	-0.383147	-0.041941	0.256753
H93	H	-0.459234	-0.084509	0.342575
C94	C	-0.766621	0.231134	0.000090
C95	C	-0.835224	0.159131	0.000102
H96	H	-0.715544	0.176524	0.000091
H97	H	-0.768895	0.282836	-0.084855
H98	H	-0.768893	0.282858	0.085043
H99	H	-0.832955	0.107414	-0.084857
H100	H	-0.832948	0.107408	0.085055
