data_functionalizedCrystal
_audit_creation_method	'MofGen! by Chris Wilmer'
_symmetry_space_group_name_H-M	'P1'
_symmetry_Int_Tables_number	1
_symmetry_cell_setting	triclinic
loop_
_symmetry_equiv_pos_as_xyz
  x,y,z
_cell_length_a	18.050591
_cell_length_b	18.050589
_cell_length_c	11.169409
_cell_angle_alpha	90.032590
_cell_angle_beta	89.970077
_cell_angle_gamma	89.969296
loop_
_atom_site_label
_atom_site_type_symbol
_atom_site_fract_x
_atom_site_fract_y
_atom_site_fract_z
Zn1	Zn	1.135325	0.295679	-0.678840
Zn2	Zn	1.135202	0.419894	-0.478155
Zn3	Zn	1.011125	0.295713	-0.478141
Zn4	Zn	1.011078	0.419823	-0.678768
O5	O	1.073183	0.357777	-0.578476
O6	O	1.239233	0.312171	-0.652255
O7	O	1.118711	0.403465	-0.310204
O8	O	1.027671	0.191784	-0.504789
O9	O	1.239143	0.403432	-0.504813
O10	O	1.118921	0.191759	-0.652241
O11	O	1.027552	0.312230	-0.310193
O12	O	0.907194	0.312162	-0.504719
O13	O	1.027592	0.403311	-0.846727
O14	O	0.907160	0.403344	-0.652118
O15	O	1.118875	0.312103	-0.846780
O16	O	1.118666	0.523809	-0.504743
O17	O	1.027473	0.523757	-0.652132
C18	C	0.880230	0.357750	-0.578410
C19	C	0.797685	0.357756	-0.578410
C20	C	0.598231	0.308113	-0.498439
C21	C	0.548801	0.375853	-0.468912
C22	C	0.646554	0.357778	-0.578464
C23	C	0.548903	0.290061	-0.607988
C24	C	0.500569	0.357794	-0.578514
C25	C	0.598211	0.425554	-0.548880
C26	C	0.598318	0.339716	-0.688007
C27	C	0.548910	0.407504	-0.658522
C28	C	0.730653	0.357768	-0.578432
C29	C	0.416473	0.357812	-0.578546
C30	C	1.073071	0.550729	-0.578457
C31	C	1.073091	0.633275	-0.578489
C32	C	1.023527	0.832724	-0.658612
C33	C	1.005413	0.882174	-0.549093
C34	C	1.073147	0.784405	-0.578506
C35	C	1.091281	0.882037	-0.688039
C36	C	1.073200	0.930391	-0.578531
C37	C	1.054998	0.832768	-0.468928
C38	C	1.140898	0.832627	-0.607948
C39	C	1.122810	0.882054	-0.498353
C40	C	1.073115	0.700307	-0.578493
C41	C	1.073232	1.014487	-0.578532
C42	C	1.266888	0.357805	-0.578543
C43	C	1.349434	0.357818	-0.578572
C44	C	1.073242	0.357695	-0.891519
C45	C	1.073268	0.357660	-1.024919
C46	C	1.073286	1.164072	-0.578523
C47	C	1.073258	1.081526	-0.578546
C48	C	1.073166	0.357806	-0.266651
C49	C	1.073285	0.357631	-0.133252
H50	H	0.527390	0.449559	-0.726218
H51	H	0.620084	0.324407	-0.780596
H52	H	0.527204	0.232795	-0.632897
H53	H	0.981509	0.811064	-0.726260
H54	H	0.948143	0.903954	-0.524213
C55	C	0.626921	0.502000	-0.515692
C56	C	0.601362	0.553889	-0.599164
C57	C	0.627804	0.624314	-0.568636
H58	H	0.609571	0.515018	-0.438178
H59	H	0.679553	0.501559	-0.515896
H60	H	0.548742	0.554333	-0.598948
H61	H	0.618711	0.540896	-0.676684
H62	H	0.680435	0.623873	-0.568840
H63	H	0.610451	0.637325	-0.491121
H64	H	0.610472	0.659528	-0.625272
H65	H	1.039614	0.811215	-0.376282
H66	H	0.619887	0.266158	-0.430690
H67	H	0.527052	0.391142	-0.376295
H68	H	1.164795	0.903578	-0.430542
C69	C	1.217216	0.803620	-0.641433
C70	C	1.235889	0.828523	-0.756239
C71	C	1.306183	0.801807	-0.787146
H72	H	1.252683	0.821227	-0.585449
H73	H	1.216760	0.750993	-0.640527
H74	H	1.236351	0.881139	-0.757136
H75	H	1.200441	0.810918	-0.812249
H76	H	1.305728	0.749180	-0.786240
H77	H	1.341644	0.819416	-0.731155
H78	H	1.318859	0.818694	-0.865048
H79	H	1.106598	0.903680	-0.780660
