data_functionalizedCrystal
_audit_creation_method	'MofGen! by Chris Wilmer'
_symmetry_space_group_name_H-M	'P1'
_symmetry_Int_Tables_number	1
_symmetry_cell_setting	triclinic
loop_
_symmetry_equiv_pos_as_xyz
  x,y,z
_cell_length_a	14.908520
_cell_length_b	13.033385
_cell_length_c	14.908858
_cell_angle_alpha	79.988722
_cell_angle_beta	89.778004
_cell_angle_gamma	94.277840
loop_
_atom_site_label
_atom_site_type_symbol
_atom_site_fract_x
_atom_site_fract_y
_atom_site_fract_z
Zn1	Zn	-0.506342	-1.538853	-0.370274
Zn2	Zn	-0.665247	-1.537568	-0.228720
Zn3	Zn	-0.495982	-1.373717	-0.236971
Zn4	Zn	-0.635265	-1.353607	-0.398009
O5	O	-0.575709	-1.450936	-0.308493
O6	O	-0.544304	-1.684781	-0.336437
O7	O	-0.651005	-1.523711	-0.103179
O8	O	-0.372563	-1.404576	-0.246499
O9	O	-0.661051	-1.683837	-0.232438
O10	O	-0.380174	-1.525901	-0.344437
O11	O	-0.526647	-1.403330	-0.109240
O12	O	-0.497575	-1.224950	-0.273393
O13	O	-0.609952	-1.370302	-0.520966
O14	O	-0.599906	-1.210176	-0.391707
O15	O	-0.515232	-1.506401	-0.500589
O16	O	-0.786063	-1.504211	-0.259331
O17	O	-0.764036	-1.369055	-0.383707
C18	C	-0.544364	-1.179681	-0.336455
C19	C	-0.530974	-1.063634	-0.348440
C20	C	-0.568853	-0.891497	-0.314624
C21	C	-0.582695	-1.011438	-0.302233
C22	C	-0.807409	-1.434339	-0.323650
C23	C	-0.906540	-1.427332	-0.330154
C24	C	-1.115704	-1.555034	-0.212943
C25	C	-1.208847	-1.548454	-0.219052
C26	C	-1.185972	-1.407598	-0.348482
C27	C	-1.092829	-1.414178	-0.342374
C28	C	-1.057698	-1.487897	-0.274602
C29	C	-0.964553	-1.494471	-0.268490
C30	C	-0.941680	-1.353621	-0.397924
C31	C	-1.034823	-1.347041	-0.404032
C32	C	-0.343106	-1.467626	-0.293295
C33	C	-0.243985	-1.474738	-0.286818
C34	C	-0.560403	-1.436252	-0.544531
C35	C	-0.553880	-1.429994	-0.645116
C36	C	-0.607172	-0.723251	-0.280414
C37	C	-0.620566	-0.839298	-0.268423
C38	C	-0.479944	-1.358506	-0.790041
C39	C	-0.486070	-1.364381	-0.695533
C40	C	-0.615567	-1.489738	-0.689214
C41	C	-0.609441	-1.483862	-0.783723
C42	C	-0.541628	-1.418243	-0.834133
C43	C	-0.535506	-1.412362	-0.928644
C44	C	-0.664999	-1.537723	-0.922323
C45	C	-0.671125	-1.543599	-0.827815
C46	C	-0.590898	-1.465628	-0.073364
C47	C	-0.597193	-1.472106	0.027258
H48	H	-0.935951	-1.554495	-0.213304
H49	H	-0.726335	-1.597027	-0.786757
H50	H	-0.670772	-1.543169	-0.648153
Br51	Br	-0.862951	-1.262483	-0.481594
Br52	Br	-0.711450	-0.912798	-0.187211
H53	H	-0.715223	-1.586371	-0.958232
H54	H	-0.435839	-1.315740	-0.659636
Br55	Br	-0.443474	-1.323310	-0.997058
Br56	Br	-0.387912	-1.269459	-0.858459
H57	H	-0.514334	-0.847391	-0.363356
Br58	Br	-1.082509	-1.247004	-0.496009
Br59	Br	-1.287568	-1.639577	-0.135373
Br60	Br	-0.673582	-1.084934	-0.221017
H61	H	-1.214592	-1.347586	-0.403664
H62	H	-0.476451	-1.019534	-0.397175
H63	H	-1.087100	-1.615053	-0.157755
