data_functionalizedCrystal
_audit_creation_method	'MofGen! by Chris Wilmer'
_symmetry_space_group_name_H-M	'P1'
_symmetry_Int_Tables_number	1
_symmetry_cell_setting	triclinic
loop_
_symmetry_equiv_pos_as_xyz
  x,y,z
_cell_length_a	14.044220
_cell_length_b	14.519709
_cell_length_c	12.996460
_cell_angle_alpha	90.007090
_cell_angle_beta	90.000499
_cell_angle_gamma	88.434511
loop_
_atom_site_label
_atom_site_type_symbol
_atom_site_fract_x
_atom_site_fract_y
_atom_site_fract_z
O1	O	-1.258085	-0.222370	-0.085462
O2	O	-1.008085	0.027630	0.164538
O3	O	-0.758085	0.277630	0.414538
O4	O	-0.508085	0.527630	0.664538
O5	O	-0.982102	-0.214346	-0.085488
O6	O	-0.732102	0.035654	0.164512
O7	O	-0.482102	0.285654	0.414512
O8	O	-0.232102	0.535654	0.664512
O9	O	-1.127411	-0.084710	-0.085465
O10	O	-0.877411	0.165290	0.164535
O11	O	-0.627411	0.415290	0.414535
O12	O	-0.377411	0.665290	0.664535
O13	O	-1.112776	-0.352006	-0.085485
O14	O	-0.862776	-0.102006	0.164515
O15	O	-0.612776	0.147994	0.414515
O16	O	-0.362776	0.397994	0.664515
O17	O	-1.127396	-0.084701	0.085669
O18	O	-0.877396	0.165299	0.335669
O19	O	-0.627396	0.415299	0.585669
O20	O	-0.377396	0.665299	0.835669
O21	O	-0.982087	-0.214337	0.085646
O22	O	-0.732087	0.035663	0.335646
O23	O	-0.482087	0.285663	0.585646
O24	O	-0.232087	0.535663	0.835646
O25	O	-1.258070	-0.222361	0.085672
O26	O	-1.008070	0.027639	0.335672
O27	O	-0.758070	0.277639	0.585672
O28	O	-0.508070	0.527639	0.835672
Cu29	Cu	-1.120077	-0.218348	0.101285
Cu30	Cu	-0.870077	0.031652	0.351285
Cu31	Cu	-0.620077	0.281652	0.601285
Cu32	Cu	-0.370077	0.531652	0.851285
Cu33	Cu	-1.120095	-0.218359	-0.101101
Cu34	Cu	-0.870095	0.031641	0.148899
Cu35	Cu	-0.620095	0.281641	0.398899
Cu36	Cu	-0.370095	0.531641	0.648899
O37	O	-1.112761	-0.351997	0.085649
O38	O	-0.862761	-0.101997	0.335649
O39	O	-0.612761	0.148003	0.585649
O40	O	-0.362761	0.398003	0.835649
C41	C	-1.126721	-0.050290	0.000102
C42	C	-0.876721	0.199710	0.250102
C43	C	-0.626721	0.449710	0.500102
C44	C	-0.376721	0.699710	0.750102
C45	C	-1.124677	0.052256	0.000103
C46	C	-0.874677	0.302256	0.250103
C47	C	-0.624677	0.552256	0.500103
C48	C	-0.374677	0.802256	0.750103
C49	C	-0.946774	-0.210829	0.000076
C50	C	-0.696774	0.039171	0.250076
C51	C	-0.446774	0.289171	0.500076
C52	C	-0.196774	0.539171	0.750076
C53	C	-0.841531	-0.200352	0.000066
C54	C	-0.591531	0.049648	0.250066
C55	C	-0.341531	0.299648	0.500066
C56	C	-0.091531	0.549648	0.750066
C57	C	-1.293398	-0.225878	0.000106
C58	C	-1.043398	0.024122	0.250106
C59	C	-0.793398	0.274122	0.500106
C60	C	-0.543398	0.524122	0.750106
C61	C	-1.398641	-0.236355	0.000109
C62	C	-1.148641	0.013645	0.250109
C63	C	-0.898641	0.263645	0.500109
C64	C	-0.648641	0.513645	0.750109
C65	C	-0.648837	-0.181197	0.000088
C66	C	-0.398837	0.068803	0.250088
C67	C	-0.148837	0.318803	0.500088
C68	C	0.101163	0.568803	0.750088
C69	C	-0.591329	-0.255505	0.000087
C70	C	-0.341329	-0.005505	0.250087
C71	C	-0.091329	0.244495	0.500087
C72	C	0.158671	0.494495	0.750087
C73	C	-0.484108	-0.244848	0.000099
C74	C	-0.234108	0.005152	0.250099
C75	C	0.015892	0.255152	0.500099
C76	C	0.265892	0.505152	0.750099
C77	C	-0.756068	-0.191854	0.000076
C78	C	-0.506068	0.058146	0.250076
C79	C	-0.256068	0.308146	0.500076
C80	C	-0.006068	0.558146	0.750076
C81	C	-1.113451	-0.386416	0.000080
C82	C	-0.863451	-0.136416	0.250080
C83	C	-0.613451	0.113584	0.500080
C84	C	-0.363451	0.363584	0.750080
C85	C	-1.115494	-0.488963	0.000073
C86	C	-0.865494	-0.238963	0.250073
C87	C	-0.615494	0.011037	0.500073
C88	C	-0.365494	0.261037	0.750073
N89	N	-1.120071	-0.218341	0.243632
N90	N	-0.870071	0.031659	0.493632
N91	N	-0.620071	0.281659	0.743632
N92	N	-0.370071	0.531659	0.993632
C93	C	-1.117153	0.427758	0.000075
C94	C	-0.867153	0.677758	0.250075
C95	C	-0.617153	0.927758	0.500075
C96	C	-0.367153	1.177758	0.750075
C97	C	-1.119243	0.323282	0.000083
C98	C	-0.869243	0.573282	0.250083
C99	C	-0.619243	0.823282	0.500083
C100	C	-0.369243	1.073282	0.750083
C101	C	-1.120915	0.240010	0.000090
C102	C	-0.870915	0.490010	0.250090
C103	C	-0.620915	0.740010	0.500090
C104	C	-0.370915	0.990010	0.750090
C105	C	-1.123005	0.135527	0.000096
C106	C	-0.873005	0.385527	0.250096
C107	C	-0.623005	0.635527	0.500096
C108	C	-0.373005	0.885527	0.750096
N109	N	-1.120108	-0.218360	-0.243448
N110	N	-0.870108	0.031640	0.006552
N111	N	-0.620108	0.281640	0.256552
N112	N	-0.370108	0.531640	0.506552
C113	C	-1.120094	-0.218360	0.663446
C114	C	-0.870094	0.031640	0.913446
C115	C	-0.620094	0.281640	1.163446
C116	C	-0.370094	0.531640	1.413446
C117	C	-1.120085	-0.218357	0.546641
C118	C	-0.870085	0.031643	0.796641
C119	C	-0.620085	0.281643	1.046641
C120	C	-0.370085	0.531643	1.296641
C121	C	-1.120083	-0.218351	0.453543
C122	C	-0.870083	0.031649	0.703543
C123	C	-0.620083	0.281649	0.953543
C124	C	-0.370083	0.531649	1.203543
C125	C	-1.120073	-0.218347	0.336730
C126	C	-0.870073	0.031653	0.586730
C127	C	-0.620073	0.281653	0.836730
C128	C	-0.370073	0.531653	1.086730
H129	H	-0.622622	-0.327127	0.000077
H130	H	-0.372622	-0.077127	0.250077
H131	H	-0.122622	0.172873	0.500077
H132	H	0.127378	0.422873	0.750077
F133	F	-0.607938	-0.087589	0.000098
F134	F	-0.357938	0.162411	0.250098
F135	F	-0.107938	0.412411	0.500098
F136	F	0.142062	0.662411	0.750098
