data_functionalizedCrystal
_audit_creation_method	'MofGen! by Chris Wilmer'
_symmetry_space_group_name_H-M	'P1'
_symmetry_Int_Tables_number	1
_symmetry_cell_setting	triclinic
loop_
_symmetry_equiv_pos_as_xyz
  x,y,z
_cell_length_a	16.109304
_cell_length_b	10.654547
_cell_length_c	15.186229
_cell_angle_alpha	89.995922
_cell_angle_beta	89.999066
_cell_angle_gamma	83.974347
loop_
_atom_site_label
_atom_site_type_symbol
_atom_site_fract_x
_atom_site_fract_y
_atom_site_fract_z
O1	O	0.116784	1.666256	-0.073238
O2	O	0.616784	2.166256	0.426762
O3	O	0.127907	1.300627	-0.073236
O4	O	0.627907	1.800627	0.426764
O5	O	0.001374	1.493483	-0.073237
O6	O	0.501374	1.993483	0.426763
O7	O	0.243316	1.473399	-0.073236
O8	O	0.743316	1.973399	0.426764
O9	O	0.001372	1.493471	0.073220
O10	O	0.501372	1.993471	0.573220
O11	O	0.127905	1.300614	0.073222
O12	O	0.627905	1.800614	0.573222
O13	O	0.116782	1.666243	0.073220
O14	O	0.616782	2.166243	0.573220
Zn15	Zn	0.122343	1.483426	0.096474
Zn16	Zn	0.622343	1.983426	0.596474
Zn17	Zn	0.122346	1.483443	-0.096490
Zn18	Zn	0.622346	1.983443	0.403510
O19	O	0.243314	1.473386	0.073221
O20	O	0.743314	1.973386	0.573221
C21	C	0.127089	1.253833	-0.000007
C22	C	0.627089	1.753833	0.499993
C23	C	0.124644	1.114423	-0.000006
C24	C	0.624644	1.614423	0.499994
C25	C	0.120037	0.852480	-0.159690
C26	C	0.620037	1.352480	0.340310
C27	C	0.121188	0.917990	-0.239524
C28	C	0.621188	1.417990	0.260476
C29	C	0.123492	1.048976	-0.239521
C30	C	0.623492	1.548976	0.260479
C31	C	0.124642	1.114456	-0.159676
C32	C	0.624642	1.614456	0.340324
C33	C	0.123491	1.048947	-0.079842
C34	C	0.623491	1.548947	0.420158
C35	C	0.121190	0.917957	-0.079854
C36	C	0.621190	1.417957	0.420146
C37	C	0.123493	1.048914	0.079828
C38	C	0.623493	1.548914	0.579828
C39	C	0.121195	0.917926	0.079827
C40	C	0.621195	1.417926	0.579827
C41	C	0.124643	1.114394	0.159673
C42	C	0.624643	1.614394	0.659673
C43	C	0.123498	1.048883	0.239509
C44	C	0.623498	1.548883	0.739509
C45	C	0.121195	0.917889	0.239503
C46	C	0.621195	1.417889	0.739503
C47	C	0.120044	0.852417	0.159661
C48	C	0.620044	1.352417	0.659661
C49	C	-0.029606	1.492663	-0.000011
C50	C	0.470394	1.992663	0.499989
C51	C	-0.121916	1.490222	-0.000016
C52	C	0.378084	1.990222	0.499984
C53	C	-0.334286	1.484589	-0.079847
C54	C	0.165714	1.984589	0.420153
C55	C	-0.421020	1.482284	-0.079846
C56	C	0.078980	1.982284	0.420154
C57	C	-0.421019	1.482276	0.079830
C58	C	0.078981	1.982276	0.579830
C59	C	-0.334286	1.484573	0.079828
C60	C	0.165714	1.984573	0.579828
C61	C	-0.290922	1.485735	-0.000013
C62	C	0.209078	1.985735	0.499987
C63	C	-0.464389	1.481134	-0.000011
C64	C	0.035611	1.981134	0.499989
C65	C	-0.558430	1.478635	-0.000009
C66	C	-0.058430	1.978635	0.499991
C67	C	-0.196875	1.488232	-0.000015
C68	C	0.303125	1.988232	0.499985
C69	C	0.274295	1.474207	-0.000007
C70	C	0.774295	1.974207	0.499993
C71	C	0.366605	1.476648	-0.000007
C72	C	0.866605	1.976648	0.499993
C73	C	0.117600	1.713036	-0.000011
C74	C	0.617600	2.213036	0.499989
C75	C	0.120045	1.852446	-0.000018
C76	C	0.620045	2.352446	0.499982
N77	N	0.122341	1.483424	0.228167
N78	N	0.622341	1.983424	0.728167
N79	N	0.122341	1.483456	-0.228183
N80	N	0.622341	1.983456	0.271817
C81	C	0.066332	1.568850	0.453889
C82	C	0.566332	2.068850	0.953889
C83	C	0.066330	1.568854	0.546078
C84	C	0.566330	2.068854	1.046078
C85	C	0.178353	1.398020	0.546089
C86	C	0.678353	1.898020	1.046089
C87	C	0.178351	1.398011	0.453901
C88	C	0.678351	1.898011	0.953901
C89	C	0.122341	1.483433	0.407803
C90	C	0.622341	1.983433	0.907803
C91	C	0.122341	1.483446	0.592181
C92	C	0.622341	1.983446	1.092181
C93	C	0.122340	1.483450	0.692137
C94	C	0.622340	1.983450	1.192137
C95	C	0.122341	1.483428	0.307841
C96	C	0.622341	1.983428	0.807841
H97	H	0.124428	1.102314	-0.304529
H98	H	0.624428	1.602314	0.195471
H99	H	0.020724	1.638404	0.416358
H100	H	0.520724	2.138404	0.916358
H101	H	0.126507	1.221114	-0.159682
H102	H	0.626507	1.721114	0.340318
H103	H	0.020721	1.638406	0.583599
H104	H	0.520721	2.138406	1.083599
H105	H	0.126513	1.221051	0.159669
H106	H	0.626513	1.721051	0.659669
H107	H	-0.298982	1.485533	-0.144859
H108	H	0.201018	1.985533	0.355141
H109	H	0.118172	0.745822	-0.159700
H110	H	0.618172	1.245822	0.340300
H111	H	0.223956	1.328474	0.583631
H112	H	0.723956	1.828474	1.083631
H113	H	0.120248	0.864662	-0.304532
H114	H	0.620248	1.364662	0.195468
H115	H	-0.456323	1.481348	-0.144855
H116	H	0.043677	1.981348	0.355145
H117	H	-0.456336	1.481332	0.144833
H118	H	0.043664	1.981332	0.644833
H119	H	0.223960	1.328449	0.416376
H120	H	0.723960	1.828449	0.916376
H121	H	0.124430	1.102209	0.304512
H122	H	0.624430	1.602209	0.804512
H123	H	0.118174	0.745760	0.159649
H124	H	0.618174	1.245760	0.659649
H125	H	0.120262	0.864558	0.304514
H126	H	0.620262	1.364558	0.804514
H127	H	-0.298978	1.485499	0.144842
H128	H	0.201022	1.985499	0.644842
