data_functionalizedCrystal
_audit_creation_method	'MofGen! by Chris Wilmer'
_symmetry_space_group_name_H-M	'P1'
_symmetry_Int_Tables_number	1
_symmetry_cell_setting	triclinic
loop_
_symmetry_equiv_pos_as_xyz
  x,y,z
_cell_length_a	23.096457
_cell_length_b	18.426585
_cell_length_c	23.096457
_cell_angle_alpha	60.008961
_cell_angle_beta	90.011518
_cell_angle_gamma	59.998757
loop_
_atom_site_label
_atom_site_type_symbol
_atom_site_fract_x
_atom_site_fract_y
_atom_site_fract_z
Zr1	Zr	0.557743	0.794363	-0.075979
O2	O	0.465272	0.945763	-0.168421
O3	O	0.586091	0.642964	-0.047643
O4	O	0.586062	0.794366	-0.168430
O5	O	0.465324	0.794359	0.047648
O6	O	0.681342	0.794368	-0.168433
O7	O	0.465302	0.794361	-0.047634
O8	O	0.681395	0.523537	0.047632
O9	O	0.465272	1.065189	-0.168417
O10	O	0.669287	0.705238	-0.035557
O11	O	0.598198	0.705235	0.035553
O12	O	0.598163	0.883491	-0.106657
O13	O	0.527073	0.883488	-0.035547
Zr14	Zr	0.709741	0.794363	0.075980
Zr15	Zr	0.709705	0.794367	-0.075984
Zr16	Zr	0.557779	0.794360	0.075985
Zr17	Zr	0.557743	0.984835	-0.075973
Zr18	Zr	0.709741	0.603892	0.075974
O19	O	0.681393	0.945763	0.047644
O20	O	0.681342	0.945767	-0.168429
O21	O	0.465324	0.945758	0.047652
O22	O	0.802212	0.642964	0.168422
O23	O	0.802160	0.642968	-0.047651
O24	O	0.586142	0.642959	0.168430
O25	O	0.802160	0.794368	-0.047647
O26	O	0.681422	0.794361	0.168431
O27	O	0.586142	0.794359	0.168434
O28	O	0.802182	0.794366	0.047635
O29	O	0.586061	1.065192	-0.168422
O30	O	0.681423	0.523535	0.168423
O31	O	0.802212	0.523537	0.168418
O32	O	0.802184	0.523540	0.047627
O33	O	0.465301	1.065187	-0.047626
O34	O	0.586089	1.065189	-0.047631
O35	O	0.669321	0.705235	0.106658
O36	O	0.740411	0.705238	0.035548
O37	O	0.669287	0.883491	-0.035552
O38	O	0.598197	0.883488	0.035558
C39	C	0.633743	0.556113	-0.000007
C40	C	0.633743	0.475252	-0.000009
C41	C	0.633739	0.179143	0.000012
C42	C	0.633739	0.261530	0.000007
C43	C	0.633741	0.327196	0.000001
C44	C	0.633741	0.409586	-0.000002
C45	C	0.443662	0.794359	0.000007
C46	C	0.379150	0.794358	0.000010
C47	C	0.385971	0.701314	0.037116
C48	C	0.325355	0.701313	0.037119
C49	C	0.257920	0.794360	0.000002
C50	C	0.251102	0.887416	-0.037106
C51	C	0.311717	0.887415	-0.037102
N52	N	0.135109	0.863621	-0.060407
N53	N	0.077530	0.863616	-0.060409
C54	C	0.075287	0.794370	-0.000010
N55	N	0.132805	0.725113	0.060390
N56	N	0.190391	0.725115	0.060391
C57	C	0.192188	0.794372	-0.000006
C58	C	0.016384	0.701318	0.037103
C59	C	-0.044234	0.701320	0.037108
C60	C	-0.118488	0.887426	-0.037125
C61	C	-0.057870	0.887421	-0.037123
C62	C	0.009563	0.794364	-0.000011
C63	C	0.823822	0.794367	-0.000007
C64	C	0.888334	0.794369	-0.000009
C65	C	0.633697	0.794367	-0.190083
C66	C	0.633682	0.794369	-0.254596
C67	C	0.633741	1.032614	0.000008
C68	C	0.633741	1.113474	0.000010
C69	C	0.596559	0.887412	-0.322013
C70	C	0.596577	0.887414	-0.382629
C71	C	0.633708	0.794366	-0.375824
C72	C	0.670839	0.701310	-0.308395
C73	C	0.670826	0.701312	-0.247781
N74	N	0.628586	0.725105	-0.443382
N75	N	0.628595	0.725111	-0.500965
C76	C	0.633752	0.794357	-0.558450
N77	N	0.638886	0.863614	-0.556181
N78	N	0.638873	0.863612	-0.498594
C79	C	0.633727	0.794355	-0.441546
C80	C	0.596647	0.887409	-0.691597
C81	C	0.596670	0.887406	-0.752213
C82	C	0.670927	0.701300	-0.677977
C83	C	0.670909	0.701305	-0.617363
C84	C	0.633765	0.794362	-0.624178
C85	C	0.633787	0.794359	0.190084
C86	C	0.633803	0.794358	0.254597
C87	C	0.823823	0.556117	-0.000014
C88	C	0.888335	0.475258	-0.000018
C89	C	0.633788	0.556109	0.190077
C90	C	0.633804	0.475247	0.254587
C91	C	0.823868	0.556113	0.190070
C92	C	0.888396	0.475252	0.254578
C93	C	0.443616	1.032614	-0.190069
C94	C	0.379088	1.113474	-0.254577
C95	C	0.443661	1.032610	0.000014
C96	C	0.379149	1.113469	0.000019
C97	C	0.633696	1.032618	-0.190076
C98	C	0.633680	1.113480	-0.254586
C99	C	0.881505	0.437286	-0.037143
C100	C	0.942115	0.361321	-0.037162
C101	C	1.009554	0.323324	-0.000051
C102	C	1.016383	0.361304	0.037075
C103	C	0.955774	0.437273	0.037089
C104	C	0.670937	0.437274	0.322004
C105	C	0.670949	0.361306	0.382624
C106	C	0.633832	0.323309	0.375826
C107	C	0.596694	0.361290	0.308401
C108	C	0.596678	0.437261	0.247783
C109	C	0.955813	0.437281	0.247752
C110	C	1.016449	0.361315	0.308359
C111	C	1.009666	0.323316	0.375789
C112	C	0.942242	0.361295	0.382613
C113	C	0.881607	0.437265	0.322008
C114	C	0.311671	1.151455	-0.247751
C115	C	0.251035	1.227444	-0.308358
C116	C	0.257818	1.265447	-0.375788
C117	C	0.325242	1.227463	-0.382612
C118	C	0.385877	1.151480	-0.322007
C119	C	0.385979	1.151449	0.037138
C120	C	0.325369	1.227435	0.037140
C121	C	0.257930	1.265434	0.000027
C122	C	0.251101	1.227451	-0.037096
C123	C	0.311710	1.151471	-0.037102
C124	C	0.670805	1.151453	-0.247765
C125	C	0.670804	1.227421	-0.308373
C126	C	0.633674	1.265419	-0.375802
C127	C	0.596548	1.227438	-0.382622
C128	C	0.596554	1.151466	-0.322015
H129	H	0.440874	0.625540	0.067332
Cl130	Cl	0.717616	0.584325	-0.669415
H131	H	0.330757	1.258415	-0.437522
Cl132	Cl	0.549970	1.004392	-0.700160
Cl133	Cl	0.470627	1.103735	-0.330600
Cl134	Cl	1.101202	0.313582	0.299763
H135	H	0.826716	0.468171	0.327575
H136	H	0.306135	1.120517	-0.192851
Cl137	Cl	1.085900	0.227808	0.451973
Cl138	Cl	0.166282	1.275175	-0.299763
Cl139	Cl	0.633672	1.360931	-0.451989
H140	H	0.701041	1.120527	-0.192866
H141	H	0.071291	0.625545	0.067337
H142	H	0.208440	1.327317	-0.425132
H143	H	0.196192	0.963176	-0.067327
Cl144	Cl	0.303111	1.103727	-0.083765
H145	H	1.058900	0.261465	-0.000068
Cl146	Cl	0.717565	0.584329	-0.532605
Cl147	Cl	0.717475	1.275159	-0.299783
Cl148	Cl	0.166314	1.275228	-0.083746
H149	H	0.961349	0.468209	0.192852
Cl150	Cl	0.933727	0.313513	0.467389
Cl151	Cl	0.717643	0.313571	0.467377
Cl152	Cl	0.549866	1.275228	-0.467396
H153	H	0.566319	1.120557	-0.327579
H154	H	0.330909	0.625543	0.067337
Cl155	Cl	0.933513	0.313586	-0.083835
H156	H	0.826598	0.468222	-0.067372
Cl157	Cl	0.633860	0.227799	0.452040
H158	H	0.306158	0.963185	-0.067318
H159	H	0.440887	1.120516	0.067364
H160	H	1.071301	0.330356	0.067289
H161	H	0.566474	0.330340	0.302876
H162	H	0.566443	0.963177	-0.807108
H163	H	-0.038675	0.625550	0.067330
H164	H	0.961345	0.468180	0.067324
Cl165	Cl	0.717606	0.485024	0.330570
H166	H	-0.173394	0.963187	-0.067347
H167	H	0.208584	1.327301	0.000037
Cl168	Cl	-0.066445	1.004397	-0.083778
H169	H	0.566442	0.468169	0.192891
H170	H	0.566316	0.963187	-0.327568
Cl171	Cl	0.549905	1.004392	-0.467394
Cl172	Cl	0.333971	1.275165	0.083816
H173	H	0.701072	0.625551	-0.302858
H174	H	0.701056	0.625542	-0.192885
