data_functionalizedCrystal
_audit_creation_method	'MofGen! by Chris Wilmer'
_symmetry_space_group_name_H-M	'P1'
_symmetry_Int_Tables_number	1
_symmetry_cell_setting	triclinic
loop_
_symmetry_equiv_pos_as_xyz
  x,y,z
_cell_length_a	17.699083
_cell_length_b	9.130313
_cell_length_c	17.699092
_cell_angle_alpha	89.999556
_cell_angle_beta	96.715309
_cell_angle_gamma	90.006231
loop_
_atom_site_label
_atom_site_type_symbol
_atom_site_fract_x
_atom_site_fract_y
_atom_site_fract_z
O1	O	-1.004074	0.121574	0.095707
O2	O	-0.504074	0.621574	0.595707
O3	O	-0.783696	0.121624	0.108160
O4	O	-0.283696	0.621624	0.608160
O5	O	-0.900108	0.121594	-0.008255
O6	O	-0.400108	0.621594	0.491745
O7	O	-0.887662	0.121604	0.212122
O8	O	-0.387662	0.621604	0.712122
O9	O	-0.900107	-0.122004	-0.008252
O10	O	-0.400107	0.377996	0.491748
O11	O	-0.783695	-0.121974	0.108163
O12	O	-0.283695	0.378026	0.608163
O13	O	-1.004073	-0.122025	0.095711
O14	O	-0.504073	0.377975	0.595711
Cu15	Cu	-0.893884	-0.144242	0.101937
Cu16	Cu	-0.393884	0.355758	0.601937
Cu17	Cu	-0.893885	0.143842	0.101933
Cu18	Cu	-0.393885	0.643842	0.601933
O19	O	-0.887661	-0.121995	0.212126
O20	O	-0.387661	0.378005	0.712126
C21	C	-0.755499	-0.000168	0.107715
C22	C	-0.255499	0.499832	0.607715
C23	C	-0.671480	-0.000149	0.106377
C24	C	-0.171480	0.499851	0.606377
C25	C	-0.622862	-0.000146	0.174710
C26	C	-0.122862	0.499854	0.674710
C27	C	-0.543918	-0.000164	0.173448
C28	C	-0.043918	0.499836	0.673448
C29	C	-0.513595	-0.000174	0.103851
C30	C	-0.013595	0.499826	0.603851
C31	C	-0.562220	-0.000182	0.035513
C32	C	-0.062220	0.499818	0.535513
C33	C	-0.641162	-0.000175	0.036776
C34	C	-0.141162	0.499825	0.536776
C35	C	-0.243857	-0.000214	0.030418
C36	C	0.256143	0.499786	0.530418
C37	C	-0.164909	-0.000217	0.029160
C38	C	0.335091	0.499783	0.529160
C39	C	-0.146613	-0.000203	0.167089
C40	C	0.353387	0.499797	0.667089
C41	C	-0.225555	-0.000196	0.168352
C42	C	0.274445	0.499804	0.668352
C43	C	-0.274173	-0.000211	0.100014
C44	C	0.225827	0.499789	0.600014
C45	C	-0.359772	-0.000194	0.101384
C46	C	0.140228	0.499806	0.601384
C47	C	-0.427998	-0.000180	0.102481
C48	C	0.072002	0.499820	0.602481
N49	N	-0.893888	-0.346865	0.101939
N50	N	-0.393888	0.153135	0.601939
C51	C	-0.945448	-0.423530	0.050408
C52	C	-0.445448	0.076470	0.550408
C53	C	-0.945446	-0.576867	0.050399
C54	C	-0.445446	-0.076867	0.550399
C55	C	-0.842321	-0.576860	0.153459
C56	C	-0.342321	-0.076860	0.653459
C57	C	-0.842320	-0.423526	0.153464
C58	C	-0.342320	0.076474	0.653464
C59	C	-0.997016	-0.346869	-0.001117
C60	C	-0.497016	0.153131	0.498883
C61	C	-1.048581	-0.423535	-0.052651
C62	C	-0.548581	0.076465	0.447349
C63	C	-1.048579	-0.576871	-0.052660
C64	C	-0.548579	-0.076871	0.447340
C65	C	-0.997012	-0.653543	-0.001135
C66	C	-0.497012	-0.153543	0.498865
C67	C	-0.032271	-0.000225	0.096155
C68	C	0.467729	0.499775	0.596155
C69	C	-0.116289	-0.000224	0.097494
C70	C	0.383711	0.499776	0.597494
C71	C	-0.899661	-0.000203	-0.036450
C72	C	-0.399661	0.499797	0.463550
C73	C	-0.898319	-0.000196	-0.120468
C74	C	-0.398319	0.499804	0.379532
N75	N	-0.893887	0.346464	0.101925
N76	N	-0.393887	0.846464	0.601925
C77	C	-0.897692	0.132592	-0.159937
C78	C	-0.397692	0.632592	0.340063
C79	C	-0.896427	0.132594	-0.238880
C80	C	-0.396427	0.632594	0.261120
C81	C	-0.895795	-0.000193	-0.278353
C82	C	-0.395795	0.499807	0.221647
C83	C	-0.896420	-0.132991	-0.238878
C84	C	-0.396420	0.367009	0.261122
C85	C	-0.897680	-0.132991	-0.159936
C86	C	-0.397680	0.367009	0.340064
C87	C	-0.891340	-0.132992	-0.557243
C88	C	-0.391340	0.367008	-0.057243
C89	C	-0.890083	-0.132981	-0.636191
C90	C	-0.390083	0.367019	-0.136191
C91	C	-0.890087	0.132593	-0.636188
C92	C	-0.390087	0.632593	-0.136188
C93	C	-0.891347	0.132593	-0.557245
C94	C	-0.391347	0.632593	-0.057245
C95	C	-0.891968	-0.000204	-0.517777
C96	C	-0.391968	0.499796	-0.017777
C97	C	-0.893338	-0.000204	-0.432178
C98	C	-0.393338	0.499796	0.067822
C99	C	-0.894430	-0.000194	-0.363952
C100	C	-0.394430	0.499806	0.136048
C101	C	-0.888109	-0.000195	0.240321
C102	C	-0.388109	0.499805	0.740321
C103	C	-0.889450	-0.000192	0.324339
C104	C	-0.389450	0.499808	0.824339
H105	H	-0.283433	-0.000227	-0.025227
H106	H	0.216567	0.499773	0.474773
F107	F	-1.103452	-0.658462	-0.107512
F108	F	-0.603452	-0.158462	0.392488
H109	H	-0.895901	-0.241108	-0.271023
H110	H	-0.395901	0.258892	0.228977
H111	H	-0.997024	-0.222015	-0.001112
H112	H	-0.497024	0.277985	0.498888
H113	H	-0.889578	0.240723	-0.668332
H114	H	-0.389578	0.740723	-0.168332
F115	F	-0.257822	-0.000176	0.242426
F116	F	0.242178	0.499824	0.742426
F117	F	-0.787441	-0.341932	0.208308
F118	F	-0.287441	0.158068	0.708308
H119	H	-0.997010	-0.778400	-0.001152
H120	H	-0.497010	-0.278400	0.498848
F121	F	-0.692906	-0.000183	-0.035954
F122	F	-0.192906	0.499817	0.464046
H123	H	-0.889566	-0.241119	-0.668328
H124	H	-0.389566	0.258881	-0.168328
H125	H	-0.895919	0.240723	-0.271013
H126	H	-0.395919	0.740723	0.228987
F127	F	-0.787445	-0.658463	0.208294
F128	F	-0.287445	-0.158463	0.708294
F129	F	-0.094864	-0.000193	0.239821
F130	F	0.405136	0.499807	0.739821
F131	F	-0.898370	0.273925	-0.117935
F132	F	-0.398370	0.773925	0.382065
F133	F	-0.898347	-0.274322	-0.117930
F134	F	-0.398347	0.225678	0.382070
F135	F	-0.892023	0.273923	-0.515240
F136	F	-0.392023	0.773923	-0.015240
F137	F	-0.132640	-0.000228	-0.044918
F138	F	0.367360	0.499772	0.455082
H139	H	-0.537525	-0.000211	-0.021154
H140	H	-0.037525	0.499789	0.478846
H141	H	-1.090561	-0.361101	-0.094606
H142	H	-0.590561	0.138899	0.405394
F143	F	-0.891991	-0.274326	-0.515247
F144	F	-0.391991	0.225674	-0.015247
F145	F	-0.655126	-0.000125	0.248785
F146	F	-0.155126	0.499875	0.748785
F147	F	-0.492177	-0.000154	0.246177
F148	F	0.007823	0.499846	0.746177
