data_functionalizedCrystal
_audit_creation_method	'MofGen! by Chris Wilmer'
_symmetry_space_group_name_H-M	'P1'
_symmetry_Int_Tables_number	1
_symmetry_cell_setting	triclinic
loop_
_symmetry_equiv_pos_as_xyz
  x,y,z
_cell_length_a	19.188930
_cell_length_b	9.065218
_cell_length_c	8.140239
_cell_angle_alpha	90.002802
_cell_angle_beta	90.008629
_cell_angle_gamma	84.080333
loop_
_atom_site_label
_atom_site_type_symbol
_atom_site_fract_x
_atom_site_fract_y
_atom_site_fract_z
O1	O	-0.102369	-1.956846	-0.136639
O2	O	0.397631	-1.456846	0.363361
O3	O	-0.110766	-1.527270	-0.136643
O4	O	0.389234	-1.027270	0.363357
O5	O	-0.005009	-1.754455	-0.136609
O6	O	0.494991	-1.254455	0.363391
O7	O	-0.208127	-1.729662	-0.136674
O8	O	0.291873	-1.229662	0.363326
O9	O	-0.005007	-1.754443	0.136618
O10	O	0.494993	-1.254443	0.636618
O11	O	-0.110765	-1.527258	0.136584
O12	O	0.389235	-1.027258	0.636584
O13	O	-0.102368	-1.956834	0.136588
O14	O	0.397632	-1.456834	0.636588
Zn15	Zn	-0.106566	-1.742044	0.179966
Zn16	Zn	0.393434	-1.242044	0.679966
Zn17	Zn	-0.106568	-1.742060	-0.180022
Zn18	Zn	0.393432	-1.242060	0.319978
O19	O	-0.208126	-1.729649	0.136553
O20	O	0.291874	-1.229649	0.636553
C21	C	-0.109959	-1.472305	-0.000030
C22	C	0.390041	-0.972305	0.499970
C23	C	-0.107546	-1.308546	-0.000030
C24	C	0.392454	-0.808546	0.499970
C25	C	0.021009	-1.753646	0.000009
C26	C	0.521009	-1.253646	0.500009
C27	C	0.098533	-1.751236	0.000023
C28	C	0.598533	-1.251236	0.500023
C29	C	-0.234144	-1.730458	-0.000068
C30	C	0.265856	-1.230458	0.499932
C31	C	-0.311667	-1.732869	-0.000093
C32	C	0.188333	-1.232869	0.499907
C33	C	0.142421	-1.884540	0.000032
C34	C	0.642421	-1.384540	0.500032
C35	C	0.215262	-1.882276	0.000006
C36	C	0.715262	-1.382276	0.500006
C37	C	0.244212	-1.746699	0.000003
C38	C	0.744212	-1.246699	0.500003
C39	C	0.200314	-1.613377	-0.000015
C40	C	0.700314	-1.113377	0.499985
C41	C	0.127474	-1.615646	-0.000005
C42	C	0.627474	-1.115646	0.499995
N43	N	0.353023	-1.643063	0.092987
N44	N	0.853023	-1.143063	0.592987
N45	N	0.422218	-1.640918	0.092981
N46	N	0.922218	-1.140918	0.592981
C47	C	0.463674	-1.739858	-0.000030
C48	C	0.963674	-1.239858	0.499970
N49	N	0.433322	-1.841047	-0.093014
N50	N	0.933322	-1.341047	0.406986
N51	N	0.364120	-1.843197	-0.093001
N52	N	0.864120	-1.343197	0.406999
C53	C	0.323194	-1.744225	-0.000008
C54	C	0.823194	-1.244225	0.499992
C55	C	0.586546	-1.870716	-0.000052
C56	C	1.086546	-1.370716	0.499948
C57	C	0.659388	-1.868446	-0.000088
C58	C	1.159388	-1.368446	0.499912
C59	C	0.644438	-1.599544	-0.000092
C60	C	1.144438	-1.099544	0.499908
C61	C	0.571598	-1.601818	-0.000072
C62	C	1.071598	-1.101818	0.499928
C63	C	0.542656	-1.737408	-0.000044
C64	C	1.042656	-1.237408	0.499956
C65	C	-0.103176	-2.011799	-0.000029
C66	C	0.396824	-1.511799	0.499971
C67	C	-0.105589	-2.175558	-0.000040
C68	C	0.394411	-1.675558	0.499960
N69	N	-0.106565	-1.742044	0.425649
N70	N	0.393435	-1.242044	0.925649
N71	N	-0.106564	-1.742073	-0.425705
N72	N	0.393436	-1.242073	0.074295
H73	H	0.118862	-1.994948	0.000050
H74	H	0.618862	-1.494948	0.500050
F75	F	0.231126	-1.469087	-0.000028
F76	F	0.731126	-0.969087	0.499972
H77	H	0.695122	-1.977004	-0.000090
H78	H	1.195122	-1.477004	0.499910
H79	H	0.668009	-1.489155	-0.000103
H80	H	1.168009	-0.989155	0.499897
F81	F	0.524886	-1.459935	-0.000076
F82	F	1.024886	-0.959935	0.499924
F83	F	0.080763	-1.473758	-0.000016
F84	F	0.580763	-0.973758	0.499984
H85	H	0.562980	-1.981122	-0.000036
H86	H	1.062980	-1.481122	0.499964
F87	F	0.261980	-2.024162	0.000013
F88	F	0.761980	-1.524162	0.500013
