data_functionalizedCrystal
_audit_creation_method	'MofGen! by Chris Wilmer'
_symmetry_space_group_name_H-M	'P1'
_symmetry_Int_Tables_number	1
_symmetry_cell_setting	triclinic
loop_
_symmetry_equiv_pos_as_xyz
  x,y,z
_cell_length_a	10.686285
_cell_length_b	18.215407
_cell_length_c	18.215399
_cell_angle_alpha	90.017777
_cell_angle_beta	85.609148
_cell_angle_gamma	94.372642
loop_
_atom_site_label
_atom_site_type_symbol
_atom_site_fract_x
_atom_site_fract_y
_atom_site_fract_z
Zn1	Zn	-0.502509	-1.147646	-0.393655
Zn2	Zn	-0.713527	-1.157035	-0.261174
Zn3	Zn	-0.502533	-1.024580	-0.270606
Zn4	Zn	-0.713439	-1.034021	-0.384207
O5	O	-0.608002	-1.090820	-0.327411
O6	O	-0.530528	-1.251877	-0.376088
O7	O	-0.685584	-1.139442	-0.159439
O8	O	-0.325954	-1.033025	-0.294830
O9	O	-0.685562	-1.258775	-0.278755
O10	O	-0.325936	-1.123442	-0.385234
O11	O	-0.530568	-1.042129	-0.166369
O12	O	-0.530483	-0.922847	-0.285669
O13	O	-0.685412	-1.049115	-0.488447
O14	O	-0.685434	-0.929783	-0.369131
O15	O	-0.530443	-1.132596	-0.495388
O16	O	-0.890091	-1.148596	-0.269594
O17	O	-0.890026	-1.058219	-0.359986
C18	C	-0.607953	-0.899612	-0.327399
C19	C	-0.607962	-0.817814	-0.327410
C20	C	-0.527392	-0.626034	-0.378157
C21	C	-0.527399	-0.549176	-0.378159
C22	C	-0.688593	-0.556358	-0.276671
C23	C	-0.688579	-0.633215	-0.276667
C24	C	-0.607980	-0.668051	-0.327414
C25	C	-0.608001	-0.514336	-0.327420
C26	C	-0.608009	-0.431002	-0.327421
C27	C	-0.607970	-0.751389	-0.327412
C28	C	-0.935843	-1.105471	-0.312757
C29	C	-1.076095	-1.111805	-0.306513
C30	C	-0.278881	-1.076133	-0.342138
C31	C	-0.138629	-1.069874	-0.348414
C32	C	-0.607915	-1.090861	-0.519368
C33	C	-0.607878	-1.090879	-0.601168
C34	C	-0.608038	-0.282775	-0.327422
C35	C	-0.608019	-0.364573	-0.327424
C36	C	-0.527110	-1.134361	-0.792981
C37	C	-0.527073	-1.134368	-0.869842
C38	C	-0.688450	-1.047440	-0.862602
C39	C	-0.688480	-1.047430	-0.785743
C40	C	-0.607812	-1.090894	-0.750935
C41	C	-0.607745	-1.090912	-0.904654
C42	C	-0.607706	-1.090919	-0.987989
C43	C	-0.607849	-1.090886	-0.667594
C44	C	-0.607997	-1.090818	-0.136205
C45	C	-0.607679	-1.090927	-0.054420
H46	H	-0.461773	-0.514969	-0.419478
H47	H	-1.129860	-1.152547	-0.265854
H48	H	-0.754130	-1.012055	-0.890952
C49	C	-0.439249	-1.181511	-0.915405
C50	C	-0.314410	-1.159924	-0.902275
C51	C	-0.233467	-1.203343	-0.944226
H52	H	-0.450603	-1.175334	-0.966185
H53	H	-0.457659	-1.231790	-0.901977
H54	H	-0.296006	-1.109657	-0.915708
H55	H	-0.303017	-1.166104	-0.851504
H56	H	-0.251877	-1.253622	-0.930798
H57	H	-0.244832	-1.197162	-0.995003
H58	H	-0.148756	-1.188707	-0.935318
H59	H	-0.461421	-1.169750	-0.764643
H60	H	-0.754205	-0.667426	-0.235341
C61	C	-0.776245	-1.000214	-0.740213
C62	C	-0.846916	-0.962172	-0.787144
C63	C	-0.927783	-0.918679	-0.745228
H64	H	-0.728120	-0.965931	-0.712378
H65	H	-0.831306	-1.030805	-0.707786
H66	H	-0.791862	-0.931584	-0.819558
H67	H	-0.895067	-0.996437	-0.814980
H68	H	-0.982844	-0.949270	-0.712801
H69	H	-0.879648	-0.884400	-0.717394
H70	H	-0.975751	-0.892867	-0.777064
C71	C	-1.067116	-1.015599	-0.402738
C72	C	-1.099014	-1.032995	-0.474160
C73	C	-1.033165	-0.983007	-0.524223
H74	H	-0.979196	-1.018375	-0.399975
H75	H	-1.088751	-0.967110	-0.391017
H76	H	-1.077370	-1.081471	-0.485878
H77	H	-1.186921	-1.030214	-0.476947
H78	H	-1.054800	-0.934519	-0.512502
H79	H	-0.945249	-0.985787	-0.521453
H80	H	-1.054807	-0.994799	-0.572687
H81	H	-0.754214	-0.527985	-0.235355
H82	H	-0.461759	-0.654395	-0.419477
