data_functionalizedCrystal
_audit_creation_method	'MofGen! by Chris Wilmer'
_symmetry_space_group_name_H-M	'P1'
_symmetry_Int_Tables_number	1
_symmetry_cell_setting	triclinic
loop_
_symmetry_equiv_pos_as_xyz
  x,y,z
_cell_length_a	10.908878
_cell_length_b	11.026607
_cell_length_c	10.065875
_cell_angle_alpha	100.731764
_cell_angle_beta	83.443480
_cell_angle_gamma	84.335404
loop_
_atom_site_label
_atom_site_type_symbol
_atom_site_fract_x
_atom_site_fract_y
_atom_site_fract_z
O1	O	1.676468	-0.199737	-0.113471
O2	O	1.323534	-0.109198	-0.113477
O3	O	1.470749	-0.325216	-0.113470
O4	O	1.529252	0.016282	-0.113479
O5	O	1.442709	-0.283888	0.113518
O6	O	1.295493	-0.067869	0.113510
O7	O	1.648427	-0.158408	0.113516
Zn8	Zn	1.467508	-0.106577	0.149552
Zn9	Zn	1.504453	-0.161029	-0.149513
O10	O	1.501212	0.057610	0.113509
C11	C	1.263628	-0.080072	0.000016
C12	C	1.126901	-0.054874	0.000013
C13	C	1.445937	-0.347585	0.000022
C14	C	1.413764	-0.475808	0.000017
C15	C	1.056638	-0.146818	0.000015
C16	C	0.915323	-0.120777	0.000012
C17	C	1.502599	-0.567541	0.000016
C18	C	1.469350	-0.700066	0.000011
C19	C	1.708333	-0.187534	0.000020
C20	C	1.845062	-0.212734	0.000014
C21	C	1.526025	0.079979	0.000014
C22	C	1.558198	0.208200	0.000010
N23	N	1.442303	-0.069418	0.353657
N24	N	1.529665	-0.198199	-0.353618
C25	C	1.495674	-0.148106	0.421438
C26	C	1.476287	-0.119500	0.578604
H27	H	0.870864	-0.022776	0.000003
H28	H	1.416232	-0.030952	0.636922
H29	H	1.313095	-0.495385	0.000006
H30	H	1.589709	-0.286753	0.588065
H31	H	1.082436	0.043120	0.000004
C32	C	1.289362	-0.696639	-0.116687
C33	C	1.333438	-0.726474	0.000000
H34	H	1.205460	-0.712952	-0.116696
H35	H	1.293873	-0.611053	-0.116671
H36	H	1.338851	-0.745697	-0.195833
H37	H	1.283954	-0.677409	0.079146
H38	H	1.328918	-0.812075	-0.000004
H39	H	1.555714	-0.236655	0.363117
C40	C	1.645137	-0.414955	0.000033
C41	C	1.638505	-0.541128	0.000026
H42	H	1.729041	-0.398653	0.000048
H43	H	1.615227	-0.394730	-0.079119
H44	H	1.595652	-0.365913	0.079192
H45	H	1.687982	-0.590169	-0.079139
H46	H	1.668430	-0.561365	0.079187
H47	H	1.382253	0.019124	0.411980
H48	H	1.658888	-0.772252	-0.000090
C49	C	0.992767	-0.386436	-0.116667
C50	C	0.905067	-0.345038	0.000016
H51	H	1.029814	-0.468110	-0.116659
H52	H	0.952819	-0.387161	-0.195807
H53	H	1.055156	-0.332119	-0.116654
H54	H	0.842672	-0.399350	-0.000002
H55	H	0.945015	-0.344322	0.079177
C56	C	1.204357	-0.320505	-0.116664
C57	C	1.116656	-0.279113	0.000019
H58	H	1.241412	-0.402177	-0.116654
H59	H	1.164409	-0.321235	-0.195804
H60	H	1.266741	-0.266182	-0.116651
H61	H	1.054266	-0.333431	0.000001
H62	H	1.156605	-0.278391	0.079180
