data_functionalizedCrystal
_audit_creation_method	'MofGen! by Chris Wilmer'
_symmetry_space_group_name_H-M	'P1'
_symmetry_Int_Tables_number	1
_symmetry_cell_setting	triclinic
loop_
_symmetry_equiv_pos_as_xyz
  x,y,z
_cell_length_a	12.759401
_cell_length_b	14.908579
_cell_length_c	12.759393
_cell_angle_alpha	93.266224
_cell_angle_beta	90.020938
_cell_angle_gamma	86.676524
loop_
_atom_site_label
_atom_site_type_symbol
_atom_site_fract_x
_atom_site_fract_y
_atom_site_fract_z
Zn1	Zn	1.582070	0.359078	0.618139
Zn2	Zn	1.571794	0.509962	0.452593
Zn3	Zn	1.406366	0.359126	0.442477
Zn4	Zn	1.396198	0.509899	0.628226
O5	O	1.489107	0.434516	0.535359
O6	O	1.727728	0.379099	0.596191
O7	O	1.549805	0.489999	0.304233
O8	O	1.438229	0.232875	0.457323
O9	O	1.720178	0.489953	0.474565
O10	O	1.567319	0.232840	0.586381
O11	O	1.428265	0.379181	0.296801
O12	O	1.257997	0.379120	0.467105
O13	O	1.420900	0.489846	0.773906
O14	O	1.250526	0.489892	0.603574
O15	O	1.557459	0.379038	0.766495
O16	O	1.539945	0.636198	0.484347
O17	O	1.410936	0.636152	0.613383
C18	C	1.216141	0.434505	0.535337
C19	C	1.099363	0.434522	0.535354
C20	C	1.040633	0.492289	0.606314
C21	C	0.930908	0.492292	0.606335
C22	C	0.938654	0.376759	0.464428
C23	C	1.048377	0.376752	0.464412
C24	C	1.473251	0.668908	0.551080
C25	C	1.466563	0.769183	0.557841
C26	C	1.588473	0.957595	0.436288
C27	C	1.582193	1.051812	0.442637
C28	C	1.447730	1.051834	0.576893
C29	C	1.454009	0.957617	0.570544
C30	C	1.524382	0.910501	0.500238
C31	C	1.530656	0.816283	0.493884
C32	C	1.396199	0.816307	0.628145
C33	C	1.389919	0.910523	0.634494
C34	C	1.763140	0.434528	0.535381
C35	C	1.879916	0.434533	0.535391
C36	C	1.489192	0.434429	0.809386
C37	C	1.489228	0.434392	0.926161
C38	C	1.505047	1.199208	0.519612
C39	C	1.511823	1.098934	0.512936
C40	C	1.489088	0.434537	0.262393
C41	C	1.489273	0.434320	0.145602
C42	C	1.560340	0.376686	0.977165
C43	C	1.560360	0.376647	1.086886
C44	C	1.418153	0.492029	1.094591
C45	C	1.418128	0.492063	0.984871
H46	H	0.897128	0.329727	0.406668
H47	H	1.360213	0.539054	0.943342
O48	O	1.105274	0.320606	0.395376
C49	C	1.036747	0.269608	0.332775
H50	H	0.956032	0.306559	0.331549
H51	H	1.069070	0.259896	0.249362
H52	H	1.029728	0.201132	0.366790
H53	H	1.618265	0.329655	1.128408
O54	O	1.656763	0.911919	0.367852
C55	C	1.632295	0.935006	0.264675
H56	H	1.587352	1.003449	0.267074
H57	H	1.707929	0.938194	0.217842
H58	H	1.581822	0.882046	0.225677
H59	H	1.082142	0.539327	0.664082
O60	O	0.874015	0.548494	0.675302
C61	C	0.942551	0.599460	0.737929
H62	H	1.020533	0.602534	0.695081
H63	H	0.906046	0.670553	0.753771
H64	H	0.956494	0.566508	0.815574
H65	H	1.587954	0.777922	0.436635
H66	H	1.332626	0.948898	0.691738
H67	H	1.634384	1.090152	0.390564
O68	O	1.379401	1.097749	0.645094
C69	C	1.387629	1.191005	0.637003
H70	H	1.421230	1.203892	0.556825
H71	H	1.306542	1.226876	0.646469
H72	H	1.441767	1.217655	0.701171
H73	H	1.344009	0.777952	0.680214
H74	H	1.618231	0.329724	0.929366
H75	H	1.360268	0.538984	1.142406
