data_functionalizedCrystal
_audit_creation_method	'MofGen! by Chris Wilmer'
_symmetry_space_group_name_H-M	'P1'
_symmetry_Int_Tables_number	1
_symmetry_cell_setting	triclinic
loop_
_symmetry_equiv_pos_as_xyz
  x,y,z
_cell_length_a	19.077312
_cell_length_b	19.076808
_cell_length_c	12.759393
_cell_angle_alpha	87.665862
_cell_angle_beta	92.276336
_cell_angle_gamma	90.121844
loop_
_atom_site_label
_atom_site_type_symbol
_atom_site_fract_x
_atom_site_fract_y
_atom_site_fract_z
Zn1	Zn	1.062984	-0.322827	-0.510871
Zn2	Zn	1.562984	0.177173	-0.010871
Zn3	Zn	1.058168	-0.440355	-0.328415
Zn4	Zn	1.558168	0.059645	0.171585
Zn5	Zn	0.945473	-0.318147	-0.342534
Zn6	Zn	1.445473	0.181853	0.157466
Zn7	Zn	0.940728	-0.435591	-0.511380
Zn8	Zn	1.440728	0.064409	-0.011380
O9	O	1.001838	-0.379230	-0.423300
O10	O	1.501838	0.120770	0.076700
O11	O	1.160673	-0.342369	-0.480546
O12	O	1.660673	0.157631	0.019454
O13	O	1.043189	-0.424179	-0.183266
O14	O	1.543189	0.075821	0.316734
O15	O	0.965063	-0.220432	-0.370561
O16	O	1.465063	0.279568	0.129439
O17	O	1.157134	-0.428716	-0.346496
O18	O	1.657134	0.071284	0.153504
O19	O	1.051398	-0.223870	-0.494237
O20	O	1.551398	0.276130	0.005763
O21	O	0.960393	-0.334393	-0.193640
O22	O	1.460393	0.165607	0.306360
O23	O	0.846516	-0.329774	-0.371054
O24	O	1.346516	0.170226	0.128946
O25	O	0.956975	-0.420598	-0.658334
O26	O	1.456975	0.079402	-0.158334
O27	O	0.843029	-0.416060	-0.495105
O28	O	1.343029	0.083940	0.004895
O29	O	1.046796	-0.337750	-0.657960
O30	O	1.546796	0.162250	-0.157960
O31	O	1.038587	-0.538059	-0.346989
O32	O	1.538587	-0.038059	0.153011
O33	O	0.952304	-0.534559	-0.481413
O34	O	1.452304	-0.034559	0.018587
C35	C	0.819278	-0.371893	-0.434667
C36	C	1.319278	0.128107	0.065333
C37	C	0.741177	-0.368771	-0.439554
C38	C	1.241177	0.131229	0.060446
C39	C	0.301751	-0.346323	-0.474619
C40	C	0.801751	0.153677	0.025381
C41	C	0.375135	-0.349270	-0.470020
C42	C	0.875135	0.150730	0.029980
C43	C	0.409978	-0.395625	-0.397824
C44	C	0.909978	0.104375	0.102176
C45	C	0.371434	-0.439042	-0.330228
C46	C	0.871434	0.060958	0.169772
C47	C	0.298051	-0.436099	-0.334833
C48	C	0.798051	0.063901	0.165167
C49	C	0.629250	-0.409244	-0.376563
C50	C	1.129250	0.090756	0.123437
C51	C	0.702637	-0.412183	-0.371962
C52	C	1.202637	0.087817	0.128038
C53	C	0.706334	-0.322411	-0.511756
C54	C	1.206334	0.177589	-0.011756
C55	C	0.632950	-0.319469	-0.516349
C56	C	1.132950	0.180531	-0.016349
C57	C	0.594412	-0.362888	-0.448758
C58	C	1.094412	0.137112	0.051242
N59	N	0.484988	-0.398637	-0.393119
N60	N	0.984988	0.101363	0.106881
N61	N	0.519403	-0.359880	-0.453468
N62	N	1.019403	0.140120	0.046532
C63	C	0.994427	-0.561807	-0.412746
C64	C	1.494427	-0.061807	0.087254
C65	C	0.991321	-0.639917	-0.408262
C66	C	1.491321	-0.139917	0.091738
C67	C	1.034778	-0.678342	-0.470604
C68	C	1.534778	-0.178342	0.029396
C69	C	1.031856	-0.751734	-0.466393
C70	C	1.531856	-0.251734	0.033607
C71	C	0.985481	-0.786701	-0.399834
C72	C	1.485481	-0.286701	0.100166
C73	C	0.942019	-0.748271	-0.337490
C74	C	1.442019	-0.248271	0.162510
C75	C	0.944938	-0.674880	-0.341707
C76	C	1.444938	-0.174880	0.158293
C77	C	0.971933	-1.006012	-0.380315
C78	C	1.471933	-0.506012	0.119685
C79	C	0.969019	-1.079409	-0.376100
C80	C	1.469019	-0.579409	0.123900
C81	C	1.058856	-1.082867	-0.505005
C82	C	1.558856	-0.582867	-0.005005
C83	C	1.061773	-1.009474	-0.509212
C84	C	1.561773	-0.509474	-0.009212
C85	C	1.018309	-0.971050	-0.446872
C86	C	1.518309	-0.471050	0.053128
N87	N	0.982495	-0.861720	-0.395525
N88	N	1.482495	-0.361720	0.104475
N89	N	1.021292	-0.896033	-0.451186
N90	N	1.521292	-0.396033	0.048814
C91	C	1.185112	-0.386596	-0.411889
C92	C	1.685112	0.113404	0.088111
C93	C	1.263212	-0.389735	-0.407026
C94	C	1.763212	0.110265	0.092974
C95	C	1.001894	-0.379165	-0.697334
C96	C	1.501894	0.120835	-0.197334
C97	C	1.001917	-0.379137	-0.814111
C98	C	1.501917	0.120863	-0.314111
C99	C	1.009297	-0.195940	-0.433917
C100	C	1.509297	0.304060	0.066083
C101	C	1.012476	-0.117833	-0.438442
C102	C	1.512476	0.382167	0.061558
C103	C	1.048691	-0.335991	-0.868780
C104	C	1.548691	0.164009	-0.368780
C105	C	1.048704	-0.335961	-0.978506
C106	C	1.548704	0.164039	-0.478506
C107	C	0.955167	-0.422229	-0.978883
C108	C	1.455167	0.077771	-0.478883
C109	C	0.955152	-0.422254	-0.869160
C110	C	1.455152	0.077746	-0.369160
C111	C	1.001826	-0.379246	-0.150333
C112	C	1.501826	0.120754	0.349667
C113	C	1.001946	-0.379081	-0.033559
C114	C	1.501946	0.120919	0.466441
H115	H	0.406510	-0.313921	-0.525065
H116	H	0.906510	0.186079	-0.025065
C117	C	1.100160	-0.288499	-1.038636
C118	C	1.600160	0.211501	-0.538636
N119	N	1.138920	-0.252749	-1.083926
N120	N	1.638920	0.247251	-0.583926
C121	C	0.917998	-1.117870	-0.302881
C122	C	1.417998	-0.617870	0.197119
N123	N	0.879570	-1.146840	-0.247735
N124	N	1.379570	-0.646840	0.252265
C125	C	0.924105	-0.963755	-0.311763
C126	C	1.424105	-0.463755	0.188237
N127	N	0.888072	-0.931924	-0.260136
N128	N	1.388072	-0.431924	0.239864
H129	H	0.917094	-0.457335	-1.023716
H130	H	1.417094	0.042665	-0.523716
H131	H	1.086768	-0.300880	-0.823963
H132	H	1.586768	0.199120	-0.323963
H133	H	0.273387	-0.308571	-0.533403
H134	H	0.773387	0.191429	-0.033403
C135	C	0.903692	-0.469718	-0.809020
C136	C	1.403692	0.030282	-0.309020
N137	N	0.864933	-0.505464	-0.763724
N138	N	1.364933	-0.005464	-0.263724
C139	C	0.740963	-0.463184	-0.292543
C140	C	1.240963	0.036816	0.207457
N141	N	0.769830	-0.501597	-0.232728
N142	N	1.269830	-0.001597	0.267272
H143	H	1.067249	-0.783017	-0.517150
H144	H	1.567249	-0.283017	-0.017150
H145	H	0.597881	-0.444598	-0.321523
H146	H	1.097881	0.055402	0.178477
C147	C	0.748731	-0.274657	-0.586107
C148	C	1.248731	0.225343	-0.086107
N149	N	0.780665	-0.238688	-0.642114
N150	N	1.280665	0.261312	-0.142114
H151	H	0.399809	-0.476789	-0.271448
H152	H	0.899809	0.023211	0.228552
H153	H	0.604585	-0.281724	-0.575143
H154	H	1.104585	0.218276	-0.075143
H155	H	1.072545	-0.649877	-0.524799
H156	H	1.572545	-0.149877	-0.024799
C157	C	0.255659	-0.483854	-0.260473
C158	C	0.755659	0.016146	0.239527
N159	N	0.223729	-0.519826	-0.204464
N160	N	0.723729	-0.019826	0.295536
H161	H	1.099535	-0.981005	-0.563409
H162	H	1.599535	-0.481005	-0.063409
C163	C	1.106658	-1.125138	-0.573582
C164	C	1.606658	-0.625138	-0.073582
N165	N	1.142663	-1.156977	-0.625240
N166	N	1.642663	-0.656977	-0.125240
H167	H	0.904257	-0.776747	-0.283301
H168	H	1.404257	-0.276747	0.216699
C169	C	0.897132	-0.632614	-0.273125
C170	C	1.397132	-0.132614	0.226875
N171	N	0.861122	-0.600779	-0.221470
N172	N	1.361122	-0.100779	0.278530
