data_functionalizedCrystal
_audit_creation_method	'MofGen! by Chris Wilmer'
_symmetry_space_group_name_H-M	'P1'
_symmetry_Int_Tables_number	1
_symmetry_cell_setting	triclinic
loop_
_symmetry_equiv_pos_as_xyz
  x,y,z
_cell_length_a	19.288840
_cell_length_b	15.995350
_cell_length_c	14.472311
_cell_angle_alpha	89.993946
_cell_angle_beta	89.987663
_cell_angle_gamma	83.309196
loop_
_atom_site_label
_atom_site_type_symbol
_atom_site_fract_x
_atom_site_fract_y
_atom_site_fract_z
O1	O	0.921630	0.104355	-0.076991
O2	O	0.719404	0.118467	-0.076958
O3	O	0.826045	-0.010498	-0.076975
O4	O	0.814989	0.233320	-0.076975
O5	O	0.826036	-0.010511	0.076707
O6	O	0.719394	0.118454	0.076724
O7	O	0.921621	0.104342	0.076691
Cu8	Cu	0.820507	0.111397	0.090740
Cu9	Cu	0.820518	0.111412	-0.091007
O10	O	0.814980	0.233307	0.076708
C11	C	0.693521	0.118010	-0.000113
C12	C	0.616413	0.116657	-0.000101
C13	C	0.580213	0.116014	-0.083875
C14	C	0.507763	0.114734	-0.083887
C15	C	0.471517	0.114080	-0.000119
C16	C	0.507726	0.114728	0.083667
C17	C	0.580173	0.116017	0.083676
C18	C	0.362053	0.062990	0.064046
C19	C	0.289607	0.061696	0.064034
C20	C	0.248063	0.110109	-0.000143
C21	C	0.278976	0.159805	-0.064323
C22	C	0.351424	0.161094	-0.064314
C23	C	0.392960	0.112683	-0.000119
C24	C	0.133305	0.108079	-0.083935
C25	C	0.060852	0.106804	-0.083943
C26	C	0.060817	0.106789	0.083613
C27	C	0.133267	0.108073	0.083618
C28	C	0.169507	0.108714	-0.000158
C29	C	0.825583	-0.041698	-0.000135
C30	C	0.824213	-0.134643	-0.000140
C31	C	0.819292	-0.472371	-0.000136
C32	C	0.743344	-0.424642	-0.000469
C33	C	0.744715	-0.327957	-0.000123
C34	C	0.821733	-0.304820	-0.000139
C35	C	0.859188	-0.346050	0.087613
C36	C	0.857280	-0.442678	0.087687
C37	C	0.858860	-0.443028	-0.087078
C38	C	0.858842	-0.346083	-0.088238
C39	C	0.823116	-0.210128	-0.000137
C40	C	0.817911	-0.567064	-0.000132
C41	C	0.947504	0.104799	-0.000156
C42	C	1.024612	0.106152	-0.000174
C43	C	0.815441	0.264507	-0.000134
C44	C	0.816812	0.357452	-0.000135
N45	N	0.820504	0.111386	0.218571
N46	N	0.820527	0.111416	-0.218838
C47	C	0.820511	0.111397	0.407071
C48	C	0.877586	0.042413	0.446264
C49	C	0.877793	0.042595	0.553352
C50	C	0.820519	0.111406	0.592662
C51	C	0.836048	0.198818	0.553765
C52	C	0.836454	0.198408	0.446644
C53	C	0.747736	0.093756	0.446574
C54	C	0.748228	0.091774	0.553702
C55	C	0.820522	0.111416	0.697550
C56	C	0.820510	0.111392	0.302183
H57	H	0.609647	0.116541	0.151897
F58	F	0.469149	0.114036	0.172818
H59	H	0.712992	-0.443051	-0.063397
F60	F	0.783142	0.267538	0.587042
H61	H	0.715272	-0.299416	-0.063026
H62	H	0.888507	0.214736	0.580579
F63	F	0.826404	-0.469733	-0.174015
F64	F	0.732807	0.007733	0.586950
F65	F	0.703736	-0.450387	0.081113
F66	F	0.705960	-0.291388	0.082248
H67	H	0.031306	0.106262	0.151818
F68	F	0.933146	-0.327876	0.091867
H69	H	0.732739	0.031373	0.419569
F70	F	0.690141	0.153192	0.588670
F71	F	0.932253	-0.326284	-0.095185
H72	H	0.162742	0.108591	0.151836
H73	H	0.831457	-0.318723	-0.153155
F74	F	0.825176	-0.308831	0.172985
F75	F	0.406260	0.011460	0.132358
H76	H	0.705266	0.144062	0.421228
H77	H	0.914856	-0.475006	-0.087680
F78	F	0.256713	0.008822	0.132353
H79	H	0.829960	-0.460879	0.153295
F80	F	0.930159	-0.485115	0.092886
F81	F	0.865758	-0.042330	0.587730
H82	H	0.868546	-0.022778	0.420495
F83	F	0.947787	0.056940	0.411062
H84	H	0.931806	0.053874	0.578963
F85	F	0.784570	0.267952	0.412753
F86	F	0.618778	0.116699	-0.173038
F87	F	0.469228	0.114050	-0.173054
H88	H	0.031379	0.106286	-0.152165
H89	H	0.376589	0.201560	-0.116569
F90	F	0.234768	0.211337	-0.132627
F91	F	0.905814	0.218717	0.413963
H92	H	0.162812	0.108610	-0.152151
