data_functionalizedCrystal
_audit_creation_method	'MofGen! by Chris Wilmer'
_symmetry_space_group_name_H-M	'P1'
_symmetry_Int_Tables_number	1
_symmetry_cell_setting	triclinic
loop_
_symmetry_equiv_pos_as_xyz
  x,y,z
_cell_length_a	19.805407
_cell_length_b	16.120484
_cell_length_c	19.805399
_cell_angle_alpha	92.871043
_cell_angle_beta	89.980427
_cell_angle_gamma	92.925608
loop_
_atom_site_label
_atom_site_type_symbol
_atom_site_fract_x
_atom_site_fract_y
_atom_site_fract_z
Zn1	Zn	1.021075	-0.331927	-0.396377
Zn2	Zn	1.354409	0.001406	-0.063044
Zn3	Zn	1.687742	0.334739	0.270290
Zn4	Zn	1.015252	-0.471346	-0.288925
Zn5	Zn	1.348586	-0.138013	0.044408
Zn6	Zn	1.681919	0.195321	0.377741
Zn7	Zn	0.907889	-0.331950	-0.283203
Zn8	Zn	1.241222	0.001383	0.050131
Zn9	Zn	1.574556	0.334716	0.383464
Zn10	Zn	0.902117	-0.471302	-0.402070
Zn11	Zn	1.235451	-0.137968	-0.068737
Zn12	Zn	1.568784	0.195365	0.264596
O13	O	0.961584	-0.401631	-0.342644
O14	O	1.294917	-0.068298	-0.009310
O15	O	1.628250	0.265035	0.324023
O16	O	1.115019	-0.350431	-0.382136
O17	O	1.448352	-0.017097	-0.048802
O18	O	1.781686	0.316236	0.284531
O19	O	1.000989	-0.452883	-0.193451
O20	O	1.334322	-0.119550	0.139883
O21	O	1.667655	0.213784	0.473216
O22	O	0.927756	-0.215281	-0.293438
O23	O	1.261089	0.118052	0.039895
O24	O	1.594422	0.451385	0.373229
O25	O	1.110741	-0.452861	-0.303191
O26	O	1.444074	-0.119527	0.030142
O27	O	1.777408	0.213806	0.363475
O28	O	1.010913	-0.215264	-0.376587
O29	O	1.344246	0.118069	-0.043253
O30	O	1.677580	0.451402	0.290080
O31	O	0.922109	-0.350470	-0.189246
O32	O	1.255443	-0.017136	0.144087
O33	O	1.588776	0.316197	0.477420
O34	O	0.812407	-0.350427	-0.298958
O35	O	1.145740	-0.017093	0.034375
O36	O	1.479074	0.316240	0.367708
O37	O	0.917919	-0.452785	-0.496030
O38	O	1.251252	-0.119452	-0.162697
O39	O	1.584586	0.213882	0.170636
O40	O	0.808167	-0.452807	-0.386290
O41	O	1.141500	-0.119474	-0.052956
O42	O	1.474834	0.213859	0.280377
O43	O	1.005317	-0.350388	-0.491848
O44	O	1.338650	-0.017054	-0.158514
O45	O	1.671983	0.316279	0.174819
O46	O	0.995392	-0.588006	-0.308712
O47	O	1.328726	-0.254673	0.024622
O48	O	1.662059	0.078661	0.357955
O49	O	0.912273	-0.587974	-0.391839
O50	O	1.245606	-0.254640	-0.058506
O51	O	1.578939	0.078693	0.274828
C52	C	0.785728	-0.401615	-0.342621
C53	C	1.119061	-0.068282	-0.009288
C54	C	1.452395	0.265051	0.324045
C55	C	0.710496	-0.401629	-0.342628
C56	C	1.043829	-0.068295	-0.009295
C57	C	1.377162	0.265038	0.324038
C58	C	0.672958	-0.455019	-0.388035
C59	C	1.006291	-0.121685	-0.054702
C60	C	1.339625	0.211648	0.278631
C61	C	0.602269	-0.455020	-0.388045
C62	C	0.935603	-0.121687	-0.054711
C63	C	1.268936	0.211647	0.278622
C64	C	0.569120	-0.401635	-0.342644
C65	C	0.902453	-0.068302	-0.009311
C66	C	1.235786	0.265032	0.324023
C67	C	0.606663	-0.348239	-0.297235
C68	C	0.939996	-0.014906	0.036098
C69	C	1.273329	0.318427	0.369432
C70	C	0.677350	-0.348234	-0.297229
C71	C	1.010683	-0.014901	0.036104
C72	C	1.344017	0.318432	0.369437
C73	C	0.321589	-0.348258	-0.297258
C74	C	0.654922	-0.014924	0.036075
C75	C	0.988255	0.318409	0.369409
C76	C	0.250896	-0.348269	-0.297266
C77	C	0.584229	-0.014935	0.036067
C78	C	0.917563	0.318398	0.369401
C79	C	0.246508	-0.455043	-0.388074
C80	C	0.579841	-0.121710	-0.054740
C81	C	0.913175	0.211623	0.278593
C82	C	0.317195	-0.455038	-0.388068
C83	C	0.650529	-0.121705	-0.054735
C84	C	0.983862	0.211628	0.278599
C85	C	0.354732	-0.401640	-0.342662
C86	C	0.688066	-0.068307	-0.009328
C87	C	1.021399	0.265027	0.324005
C88	C	0.431381	-0.401638	-0.342653
C89	C	0.764714	-0.068305	-0.009319
C90	C	1.098047	0.265029	0.324014
C91	C	0.492472	-0.401641	-0.342649
C92	C	0.825806	-0.068307	-0.009316
C93	C	1.159139	0.265026	0.324018
C94	C	0.952593	-0.618240	-0.351529
C95	C	1.285926	-0.284907	-0.018195
C96	C	1.619260	0.048427	0.315138
C97	C	0.948809	-0.710906	-0.355353
C98	C	1.282142	-0.377573	-0.022019
C99	C	1.615475	-0.044239	0.311314
C100	C	0.941903	-0.880568	-0.362347
C101	C	1.275237	-0.547235	-0.029014
C102	C	1.608570	-0.213901	0.304319
C103	C	0.981385	-0.921854	-0.322951
C104	C	1.314718	-0.588521	0.010382
C105	C	1.648052	-0.255187	0.343716
C106	C	0.977543	-1.016260	-0.326843
C107	C	1.310876	-0.682926	0.006490
C108	C	1.644210	-0.349593	0.339823
C109	C	0.945745	-0.786154	-0.358456
C110	C	1.279078	-0.452820	-0.025123
C111	C	1.612411	-0.119487	0.308210
C112	C	1.138126	-0.401648	-0.342667
C113	C	1.471459	-0.068315	-0.009333
C114	C	1.804792	0.265019	0.324000
C115	C	1.213357	-0.401655	-0.342677
C116	C	1.546691	-0.068322	-0.009343
C117	C	1.880024	0.265012	0.323990
C118	C	0.961624	-0.401579	-0.519184
C119	C	1.294957	-0.068246	-0.185851
C120	C	1.628290	0.265088	0.147482
C121	C	0.961641	-0.401556	-0.594416
C122	C	1.294974	-0.068223	-0.261082
C123	C	1.628307	0.265110	0.072251
C124	C	0.970628	-0.184177	-0.333739
C125	C	1.303961	0.149156	-0.000405
C126	C	1.637294	0.482490	0.332928
C127	C	0.974482	-0.091511	-0.329944
C128	C	1.307815	0.241823	0.003389
C129	C	1.641148	0.575156	0.336723
C130	C	1.007150	-0.348235	-0.627583
C131	C	1.340483	-0.014902	-0.294249
C132	C	1.673816	0.318431	0.039084
C133	C	1.007158	-0.348211	-0.698270
C134	C	1.340491	-0.014878	-0.364937
C135	C	1.673824	0.318455	-0.031604
C136	C	0.961659	-0.401513	-0.735789
C137	C	1.294993	-0.068180	-0.402456
C138	C	1.628326	0.265154	-0.069123
C139	C	0.916145	-0.454836	-0.702617
C140	C	1.249479	-0.121503	-0.369284
C141	C	1.582812	0.211830	-0.035951
C142	C	0.916135	-0.454856	-0.631931
C143	C	1.249468	-0.121522	-0.298598
C144	C	1.582801	0.211811	0.034736
C145	C	0.916187	-0.454759	-0.987688
C146	C	1.249520	-0.121425	-0.654354
C147	C	1.582853	0.211908	-0.321021
C148	C	0.916202	-0.454737	-1.058379
C149	C	1.249536	-0.121404	-0.725045
C150	C	1.582869	0.211930	-0.391712
C151	C	1.007210	-0.348114	-1.054027
C152	C	1.340543	-0.014781	-0.720693
C153	C	1.673876	0.318553	-0.387360
C154	C	1.007199	-0.348133	-0.983340
C155	C	1.340533	-0.014800	-0.650007
C156	C	1.673866	0.318533	-0.316674
C157	C	0.961683	-0.401453	-0.950174
C158	C	1.295016	-0.068120	-0.616841
C159	C	1.628350	0.265213	-0.283508
C160	C	0.961674	-0.401478	-0.873527
C161	C	1.295008	-0.068145	-0.540194
C162	C	1.628341	0.265189	-0.206860
C163	C	0.961671	-0.401493	-0.812436
C164	C	1.295004	-0.068160	-0.479102
C165	C	1.628338	0.265173	-0.145769
C166	C	0.961585	-0.401623	-0.166787
C167	C	1.294918	-0.068290	0.166546
C168	C	1.628252	0.265043	0.499879
C169	C	0.961709	-0.401411	-0.091547
C170	C	1.295042	-0.068078	0.241786
C171	C	1.628375	0.265256	0.575120
H172	H	0.215937	-0.498520	-0.425048
H173	H	0.549270	-0.165187	-0.091715
H174	H	0.882604	0.168147	0.241619
H175	H	0.352142	-0.304784	-0.260281
H176	H	0.685476	0.028550	0.073053
H177	H	1.018809	0.361883	0.406386
H178	H	0.707913	-0.304754	-0.260258
H179	H	1.041246	0.028579	0.073076
H180	H	1.374579	0.361912	0.406409
H181	H	0.579667	-0.304769	-0.260272
H182	H	0.913000	0.028564	0.073062
H183	H	1.246333	0.361898	0.406395
O184	O	1.025245	-0.879480	-0.279295
O185	O	1.358578	-0.546147	0.054038
O186	O	1.691911	-0.212813	0.387372
C187	C	1.091855	-0.900607	-0.294985
C188	C	1.425188	-0.567273	0.038348
C189	C	1.758521	-0.233940	0.371682
H190	H	1.094292	-0.924560	-0.350028
H191	H	1.427625	-0.591226	-0.016695
H192	H	1.760959	-0.257893	0.316638
H193	H	1.127582	-0.843259	-0.286863
H194	H	1.460915	-0.509926	0.046470
H195	H	1.794248	-0.176592	0.379804
H196	H	1.107553	-0.951083	-0.260752
H197	H	1.440886	-0.617749	0.072582
H198	H	1.774219	-0.284416	0.405915
O199	O	0.349369	-0.506807	-0.432265
O200	O	0.682702	-0.173474	-0.098932
O201	O	1.016035	0.159860	0.234402
C202	C	0.332861	-0.488707	-0.499006
C203	C	0.666195	-0.155374	-0.165673
C204	C	0.999528	0.177959	0.167661
H205	H	0.316192	-0.422112	-0.499779
H206	H	0.649525	-0.088778	-0.166446
H207	H	0.982859	0.244555	0.166888
H208	H	0.379062	-0.495936	-0.532729
H209	H	0.712395	-0.162603	-0.199396
H210	H	1.045728	0.170730	0.133937
H211	H	0.289983	-0.533437	-0.518478
H212	H	0.623316	-0.200103	-0.185145
H213	H	0.956649	0.133230	0.148189
H214	H	0.699943	-0.498494	-0.425004
H215	H	1.033276	-0.165160	-0.091671
H216	H	1.366610	0.168173	0.241663
H217	H	0.571709	-0.498496	-0.425019
H218	H	0.905043	-0.165163	-0.091686
H219	H	1.238376	0.168171	0.241648
O220	O	0.898151	-0.923106	-0.406008
O221	O	1.231484	-0.589772	-0.072674
O222	O	1.564817	-0.256439	0.260659
C223	C	0.904016	-1.009260	-0.400224
C224	C	1.237349	-0.675926	-0.066891
C225	C	1.570683	-0.342593	0.266443
H226	H	0.925751	-1.021062	-0.348489
H227	H	1.259084	-0.687729	-0.015156
H228	H	1.592418	-0.354396	0.318177
H229	H	0.851989	-1.042481	-0.406101
H230	H	1.185323	-0.709148	-0.072768
H231	H	1.518656	-0.375815	0.260566
H232	H	0.939049	-1.033902	-0.441404
H233	H	1.272382	-0.700569	-0.108071
H234	H	1.605715	-0.367235	0.225262
H235	H	0.879134	-0.498187	-0.960693
H236	H	1.212468	-0.164854	-0.627360
H237	H	1.545801	0.168479	-0.294026
O238	O	1.051373	-0.296379	-0.591241
O239	O	1.384706	0.036955	-0.257908
O240	O	1.718040	0.370288	0.075426
C241	C	1.091552	-0.249325	-0.635677
C242	C	1.424885	0.084008	-0.302344
C243	C	1.758219	0.417341	0.030989
H244	H	1.063955	-0.246424	-0.685941
H245	H	1.397289	0.086910	-0.352608
H246	H	1.730622	0.420243	-0.019274
H247	H	1.101501	-0.183644	-0.612567
H248	H	1.434834	0.149689	-0.279234
H249	H	1.768167	0.483022	0.054099
H250	H	1.141689	-0.279857	-0.644456
H251	H	1.475022	0.053476	-0.311123
H252	H	1.808356	0.386809	0.022211
H253	H	1.044217	-0.304794	-0.725272
H254	H	1.377551	0.028540	-0.391938
H255	H	1.710884	0.361873	-0.058605
O256	O	1.051421	-0.296277	-0.946997
O257	O	1.384754	0.037056	-0.613663
O258	O	1.718087	0.370390	-0.280330
C259	C	1.091602	-0.249222	-0.991430
C260	C	1.424935	0.084112	-0.658097
C261	C	1.758269	0.417445	-0.324763
H262	H	1.064008	-0.246319	-1.041695
H263	H	1.397341	0.087015	-0.708361
H264	H	1.730675	0.420348	-0.375028
H265	H	1.101549	-0.183541	-0.968318
H266	H	1.434882	0.149792	-0.634985
H267	H	1.768215	0.483126	-0.301651
H268	H	1.141740	-0.279752	-1.000206
H269	H	1.475073	0.053581	-0.666873
H270	H	1.808406	0.386914	-0.333540
H271	H	0.879149	-0.498143	-1.088925
H272	H	1.212482	-0.164810	-0.755592
H273	H	1.545816	0.168523	-0.422259
H274	H	0.223908	-0.304791	-0.260295
H275	H	0.557241	0.028542	0.073038
H276	H	0.890575	0.361875	0.406372
O277	O	1.051355	-0.296336	-1.086351
O278	O	1.384688	0.036997	-0.753017
O279	O	1.718022	0.370330	-0.419684
C280	C	1.041621	-0.307756	-1.156786
C281	C	1.374955	0.025578	-0.823453
C282	C	1.708288	0.358911	-0.490120
H283	H	0.988252	-0.335050	-1.167549
H284	H	1.321585	-0.001717	-0.834216
H285	H	1.654919	0.331616	-0.500883
H286	H	1.048815	-0.245299	-1.181092
H287	H	1.382148	0.088035	-0.847758
H288	H	1.715482	0.421368	-0.514425
H289	H	1.079924	-0.352150	-1.178674
H290	H	1.413258	-0.018817	-0.845340
H291	H	1.746591	0.314516	-0.512007
H292	H	0.879097	-0.498232	-0.733171
H293	H	1.212431	-0.164899	-0.399838
H294	H	1.545764	0.168434	-0.066504
O295	O	0.871911	-0.506741	-0.599818
O296	O	1.205244	-0.173408	-0.266485
O297	O	1.538577	0.159925	0.066848
C298	C	0.831747	-0.553774	-0.648089
C299	C	1.165080	-0.220441	-0.314756
C300	C	1.498414	0.112893	0.018578
H301	H	0.859355	-0.556640	-0.698602
H302	H	1.192689	-0.223307	-0.365269
H303	H	1.526022	0.110027	-0.031936
H304	H	0.821802	-0.619469	-0.630356
H305	H	1.155136	-0.286135	-0.297022
H306	H	1.488469	0.047198	0.036311
H307	H	0.781607	-0.523247	-0.654342
H308	H	1.114941	-0.189914	-0.321008
H309	H	1.448274	0.143419	0.012325
