data_functionalizedCrystal
_audit_creation_method	'MofGen! by Chris Wilmer'
_symmetry_space_group_name_H-M	'P1'
_symmetry_Int_Tables_number	1
_symmetry_cell_setting	triclinic
loop_
_symmetry_equiv_pos_as_xyz
  x,y,z
_cell_length_a	12.759401
_cell_length_b	16.625546
_cell_length_c	12.759401
_cell_angle_alpha	90.014174
_cell_angle_beta	90.003120
_cell_angle_gamma	90.022629
loop_
_atom_site_label
_atom_site_type_symbol
_atom_site_fract_x
_atom_site_fract_y
_atom_site_fract_z
Zn1	Zn	1.606039	-0.321126	0.593947
Zn2	Zn	1.605957	-0.455931	0.418253
Zn3	Zn	1.430388	-0.321116	0.418287
Zn4	Zn	1.430306	-0.455921	0.593894
O5	O	1.518173	-0.388523	0.506095
O6	O	1.753049	-0.339016	0.570649
O7	O	1.582667	-0.438048	0.271237
O8	O	1.453758	-0.208285	0.441624
O9	O	1.752989	-0.438057	0.441567
O10	O	1.582808	-0.208292	0.570681
O11	O	1.453678	-0.339000	0.271261
O12	O	1.283356	-0.338990	0.441573
O13	O	1.453617	-0.438039	0.740922
O14	O	1.283296	-0.438030	0.570592
O15	O	1.582728	-0.339006	0.740961
O16	O	1.582588	-0.568762	0.441516
O17	O	1.453538	-0.568754	0.570559
C18	C	1.245205	-0.388509	0.506081
C19	C	1.128429	-0.388522	0.506100
C20	C	1.518073	-0.598014	0.506051
C21	C	1.518127	-0.687635	0.506068
C22	C	1.073563	-0.440174	0.573169
C23	C	0.963839	-0.440184	0.573180
C24	C	0.963856	-0.336887	0.439045
C25	C	1.073578	-0.336873	0.439040
C26	C	1.128413	-0.491822	0.640229
C27	C	1.073547	-0.543480	0.707302
C28	C	0.963823	-0.543490	0.707314
C29	C	0.908965	-0.491843	0.640252
C30	C	1.518310	-1.015811	0.506177
C31	C	1.518256	-0.924502	0.506150
C32	C	1.518218	-0.851726	0.506122
C33	C	1.518165	-0.760412	0.506095
C34	C	1.792206	-0.388539	0.506110
C35	C	1.908982	-0.388545	0.506117
C36	C	1.518173	-0.388523	0.780129
C37	C	1.518173	-0.388523	0.896905
C38	C	1.518301	-0.178214	0.506162
C39	C	1.518356	-0.088593	0.506191
C40	C	1.585395	-0.336967	0.951789
C41	C	1.585390	-0.336971	1.061513
C42	C	1.450938	-0.440091	1.061460
C43	C	1.450938	-0.440083	0.951738
C44	C	1.652629	-0.285407	0.896956
C45	C	1.719858	-0.233848	0.951840
C46	C	1.719853	-0.233851	1.061564
C47	C	1.652620	-0.285413	1.116405
C48	C	1.518166	-0.388540	1.233128
C49	C	1.518168	-0.388534	1.116351
H50	H	1.217756	-0.491821	0.640225
Cl51	Cl	1.366427	-0.504910	1.130403
Cl52	Cl	1.366427	-0.504896	0.882736
Cl53	Cl	1.804370	-0.169038	1.130559
H54	H	0.919182	-0.294839	0.384446
Cl55	Cl	1.652643	-0.285402	0.759018
H56	H	1.118251	-0.294807	0.384434
H57	H	1.774590	-0.191863	0.907182
H58	H	1.652610	-0.285402	1.205749
H59	H	1.118219	-0.585524	0.761908
H60	H	0.819620	-0.491849	0.640275
Cl61	Cl	0.894851	-0.608423	0.791641
