data_functionalizedCrystal
_audit_creation_method	'MofGen! by Chris Wilmer'
_symmetry_space_group_name_H-M	'P1'
_symmetry_Int_Tables_number	1
_symmetry_cell_setting	triclinic
loop_
_symmetry_equiv_pos_as_xyz
  x,y,z
_cell_length_a	27.731994
_cell_length_b	17.038278
_cell_length_c	16.098538
_cell_angle_alpha	92.913375
_cell_angle_beta	87.290733
_cell_angle_gamma	86.865519
loop_
_atom_site_label
_atom_site_type_symbol
_atom_site_fract_x
_atom_site_fract_y
_atom_site_fract_z
O1	O	0.647204	0.089267	-0.069149
O2	O	0.507057	0.103448	-0.069178
O3	O	0.576298	-0.017447	-0.069143
O4	O	0.577964	0.210162	-0.069185
O5	O	0.572252	-0.010412	0.069368
O6	O	0.503011	0.110483	0.069332
O7	O	0.643159	0.096302	0.069362
Zn8	Zn	0.572442	0.104509	0.091339
Zn9	Zn	0.577773	0.095241	-0.091155
O10	O	0.573918	0.217196	0.069326
C11	C	0.487013	0.106674	0.000074
C12	C	0.433317	0.105797	0.000063
C13	C	0.572760	-0.043039	0.000116
C14	C	0.568239	-0.129778	0.000126
C15	C	0.540473	-0.619861	0.000044
C16	C	0.544724	-0.538361	0.000053
C17	C	0.590477	-0.507474	0.000074
C18	C	0.631983	-0.558093	0.000078
C19	C	0.627733	-0.639591	0.000063
C20	C	0.605495	-0.261895	0.000115
C21	C	0.609742	-0.180390	0.000132
C22	C	0.522482	-0.160664	0.000106
C23	C	0.518235	-0.242164	0.000096
C24	C	0.559741	-0.292776	0.000095
C25	C	0.594823	-0.424168	0.000086
C26	C	0.555396	-0.376081	0.000077
C27	C	0.098140	0.104111	0.075599
C28	C	-0.103671	0.100779	0.075609
O29	O	-0.131641	0.103575	0.139820
N30	N	-0.126700	0.096530	0.000107
C31	C	-0.099272	0.093109	-0.075403
O32	O	-0.123489	0.089411	-0.139622
C33	C	0.102538	0.096436	-0.075413
C34	C	0.125564	0.100693	0.000094
C35	C	0.121165	0.108366	0.151100
C36	C	0.171615	0.109204	0.151096
C37	C	0.199039	0.105786	0.075592
C38	C	0.176013	0.101530	0.000091
C39	C	0.129966	0.093010	-0.150922
C40	C	0.180421	0.093840	-0.150917
C41	C	0.203446	0.098097	-0.075410
C42	C	0.253887	0.098949	-0.075416
N43	N	0.276915	0.103198	0.000086
C44	C	0.249491	0.106616	0.075590
C45	C	-0.205225	0.091365	-0.075393
C46	C	-0.255678	0.090534	-0.075391
C47	C	-0.260073	0.098202	0.075621
C48	C	-0.209620	0.099038	0.075618
C49	C	-0.182197	0.095613	0.000109
C50	C	0.355439	0.108375	0.075577
C51	C	0.405893	0.109215	0.075567
C52	C	0.410285	0.101543	-0.075445
C53	C	0.359835	0.100707	-0.075435
C54	C	0.332413	0.104120	0.000083
O55	O	0.281887	0.096146	-0.139594
O56	O	0.273718	0.110296	0.139799
C57	C	0.047690	0.103274	0.075602
C58	C	0.024665	0.099018	0.000101
C59	C	0.052089	0.095600	-0.075403
C60	C	-0.025788	0.098188	0.000103
C61	C	-0.053212	0.101606	0.075607
C62	C	-0.030183	0.105855	0.151109
C63	C	0.020266	0.106692	0.151106
C64	C	0.029060	0.091352	-0.150905
C65	C	-0.021390	0.090516	-0.150896
C66	C	-0.048814	0.093934	-0.075392
C67	C	0.663202	0.093076	0.000108
C68	C	0.716898	0.093953	0.000113
C69	C	0.577456	0.242789	0.000066
C70	C	0.581976	0.329527	0.000050
N71	N	0.568808	0.110834	0.215886
N72	N	0.581411	0.088909	-0.215703
C73	C	0.598209	0.059539	0.259486
C74	C	0.595671	0.063971	0.346674
C75	C	0.563735	0.119702	0.390260
C76	C	0.534331	0.170999	0.346653
C77	C	0.536866	0.166563	0.259467
C78	C	0.554542	0.135770	0.653505
C79	C	0.552010	0.140204	0.740697
C80	C	0.613350	0.033175	0.740712
C81	C	0.615885	0.028747	0.653524
C82	C	0.586479	0.080041	0.609925
C83	C	0.561141	0.124235	0.479380
C84	C	0.589071	0.075504	0.520807
H85	H	0.503216	-0.645002	0.000037
F86	F	0.500338	0.230309	0.393041
F87	F	0.643516	-0.391289	0.000110
H88	H	0.647002	-0.155245	0.000150
H89	H	0.637291	-0.008587	0.776218
F90	F	0.505572	0.221156	0.213066
H91	H	0.619611	0.022203	0.382173
F92	F	0.527153	0.183549	0.525772
H93	H	0.518143	-0.401232	0.000056
F94	F	0.500550	-0.484499	0.000040
F95	F	0.335328	0.096189	-0.155797
F96	F	0.469538	-0.275030	0.000072
H97	H	-0.040132	0.087056	-0.212387
F98	F	0.623057	0.016190	0.474419
H99	H	0.432622	0.098763	-0.136918
H100	H	0.051384	0.088566	-0.212391
F101	F	0.091986	0.112007	0.231469
H102	H	0.530600	0.177538	0.618014
F103	F	0.478312	-0.106794	0.000103
F104	F	0.649670	-0.315749	0.000120
F105	F	0.044765	0.111222	0.231472
F106	F	0.671906	-0.693457	0.000065
H107	H	0.669237	-0.532938	0.000096
H108	H	0.526002	0.185590	0.776181
F109	F	0.430395	0.113748	0.155936
F110	F	0.326262	0.112006	0.155952
F111	F	-0.176045	0.087720	-0.155766
F112	F	0.649876	-0.030567	0.607138
H113	H	-0.190877	0.102505	0.137103
F114	F	0.196114	0.113730	0.231462
F115	F	0.632203	0.000226	0.213107
F116	F	-0.289269	0.101840	0.155979
H117	H	-0.274421	0.087081	-0.136877
F118	F	0.105471	0.088478	-0.231288
F119	F	0.209605	0.090192	-0.231287
F120	F	-0.059379	0.109496	0.231467
