data_functionalizedCrystal
_audit_creation_method	'MofGen! by Chris Wilmer'
_symmetry_space_group_name_H-M	'P1'
_symmetry_Int_Tables_number	1
_symmetry_cell_setting	triclinic
loop_
_symmetry_equiv_pos_as_xyz
  x,y,z
_cell_length_a	14.519709
_cell_length_b	11.026607
_cell_length_c	10.065875
_cell_angle_alpha	79.268236
_cell_angle_beta	98.757930
_cell_angle_gamma	96.133081
loop_
_atom_site_label
_atom_site_type_symbol
_atom_site_fract_x
_atom_site_fract_y
_atom_site_fract_z
O1	O	-1.260605	-0.141346	-0.113307
O2	O	-0.760605	0.358654	0.386693
O3	O	-0.995219	-0.160080	-0.113348
O4	O	-0.495219	0.339920	0.386652
O5	O	-1.105917	0.025988	-0.113326
O6	O	-0.605917	0.525988	0.386674
O7	O	-1.149907	-0.327413	-0.113329
O8	O	-0.649907	0.172587	0.386671
O9	O	-1.084832	-0.009635	0.113659
O10	O	-0.584832	0.490365	0.613659
O11	O	-0.974135	-0.195703	0.113637
O12	O	-0.474135	0.304297	0.613637
O13	O	-1.239520	-0.176969	0.113678
O14	O	-0.739520	0.323031	0.613678
Zn15	Zn	-1.103480	-0.191992	0.149696
Zn16	Zn	-0.603480	0.308008	0.649696
Zn17	Zn	-1.131260	-0.145057	-0.149366
Zn18	Zn	-0.631260	0.354943	0.350634
O19	O	-1.128823	-0.363037	0.113656
O20	O	-0.628823	0.136963	0.613656
C21	C	-1.087259	0.053405	0.000164
C22	C	-0.587259	0.553405	0.500164
C23	C	-1.063067	0.188173	0.000155
C24	C	-0.563067	0.688173	0.500155
C25	C	-0.950174	-0.177017	0.000139
C26	C	-0.450174	0.322983	0.500139
C27	C	-0.847363	-0.174397	0.000123
C28	C	-0.347363	0.325603	0.500123
C29	C	-1.284566	-0.160032	0.000188
C30	C	-0.784566	0.339968	0.500188
C31	C	-1.387378	-0.162650	0.000195
C32	C	-0.887378	0.337350	0.500195
C33	C	-0.470874	-0.164772	0.000186
C34	C	0.029126	0.335228	0.500186
C35	C	-0.575624	-0.167445	0.000168
C36	C	-0.075624	0.332555	0.500168
C37	C	-0.659115	-0.169584	0.000153
C38	C	-0.159115	0.330416	0.500153
C39	C	-0.763872	-0.172258	0.000138
C40	C	-0.263872	0.327742	0.500138
C41	C	-1.147480	-0.390453	0.000163
C42	C	-0.647480	0.109547	0.500163
C43	C	-1.171673	-0.525220	0.000163
C44	C	-0.671673	-0.025220	0.500163
N45	N	-1.084527	-0.224023	0.353798
N46	N	-0.584527	0.275977	0.853798
C47	C	-1.129866	0.261832	0.000163
C48	C	-0.629866	0.761832	0.500163
C49	C	-1.104865	0.401122	0.000155
C50	C	-0.604865	0.901122	0.500155
N51	N	-1.150218	-0.113016	-0.353468
N52	N	-0.650218	0.386984	0.146532
C53	C	-1.124658	-0.156194	0.421585
C54	C	-0.624658	0.343806	0.921585
C55	C	-1.110081	-0.180855	0.578749
C56	C	-0.610081	0.319145	1.078749
H57	H	-1.205564	0.221773	0.000184
H58	H	-0.705564	0.721773	0.500184
H59	H	-1.039372	-0.300348	0.412115
H60	H	-0.539372	0.199652	0.912115
H61	H	-1.169805	-0.079860	0.363269
H62	H	-0.669805	0.420140	0.863269
F63	F	-1.005915	0.453470	0.000127
F64	F	-0.505915	0.953470	0.500127
H65	H	-1.195367	-0.036678	0.588220
H66	H	-0.695367	0.463322	1.088220
F67	F	-1.051056	-0.280624	0.654963
F68	F	-0.551056	0.219376	1.154963
F69	F	-0.964123	0.240526	0.000127
F70	F	-0.464123	0.740526	0.500127
F71	F	-1.270625	0.422438	0.000172
F72	F	-0.770625	0.922438	0.500172
