data_functionalizedCrystal
_audit_creation_method	'MofGen! by Chris Wilmer'
_symmetry_space_group_name_H-M	'P1'
_symmetry_Int_Tables_number	1
_symmetry_cell_setting	triclinic
loop_
_symmetry_equiv_pos_as_xyz
  x,y,z
_cell_length_a	14.044220
_cell_length_b	10.540539
_cell_length_c	12.503572
_cell_angle_alpha	93.560877
_cell_angle_beta	86.164750
_cell_angle_gamma	88.857185
loop_
_atom_site_label
_atom_site_type_symbol
_atom_site_fract_x
_atom_site_fract_y
_atom_site_fract_z
O1	O	1.265193	0.299541	-0.089197
O2	O	0.989150	0.288487	-0.089224
O3	O	1.133469	0.109945	-0.089208
O4	O	1.120874	0.478084	-0.089212
O5	O	1.122616	0.123396	0.089432
O6	O	0.978297	0.301939	0.089417
O7	O	1.254339	0.312993	0.089444
Cu8	Cu	1.115327	0.308694	0.105742
Cu9	Cu	1.128163	0.292786	-0.105522
O10	O	1.110020	0.491536	0.089428
C11	C	0.948377	0.290375	0.000093
C12	C	0.843054	0.275945	0.000082
C13	C	0.650213	0.249566	0.000104
C14	C	0.593272	0.351908	0.000107
C15	C	0.485969	0.337231	0.000119
C16	C	0.757526	0.264241	0.000092
C17	C	1.127098	0.069272	0.000110
C18	C	1.124272	-0.071962	0.000104
C19	C	1.016008	-0.266368	-0.000308
C20	C	1.018848	-0.119430	0.000095
C21	C	1.168809	-0.120809	0.102122
C22	C	1.165206	-0.267711	0.102207
C23	C	1.179693	-0.283309	-0.100941
C24	C	1.180746	-0.136331	-0.102289
C25	C	1.295113	0.311105	0.000125
C26	C	1.400436	0.325535	0.000129
C27	C	1.116392	0.532208	0.000108
C28	C	1.119218	0.673442	0.000107
N29	N	1.106306	0.319883	0.254333
N30	N	1.137191	0.281588	-0.254113
C31	C	1.093036	0.336354	0.473447
C32	C	1.150458	0.265121	0.526780
C33	C	1.143074	0.274286	0.648703
C34	C	1.100419	0.327191	0.351513
H35	H	0.618375	0.150932	0.000110
O36	O	0.976449	-0.080189	-0.087171
C37	C	0.896827	-0.142067	-0.246425
C38	C	0.944808	-0.186670	-0.147629
H39	H	0.871250	-0.228135	-0.295345
H40	H	0.833283	-0.076307	-0.218939
H41	H	0.950494	-0.088731	-0.298172
H42	H	0.891214	-0.240060	-0.095839
H43	H	1.008368	-0.252367	-0.175189
O44	O	1.027696	0.417342	0.528036
C45	C	0.901825	0.573612	0.516490
C46	C	0.975761	0.481925	0.454518
H47	H	0.859828	0.625871	0.457077
H48	H	0.850787	0.517428	0.569114
H49	H	0.940177	0.645483	0.569170
H50	H	0.937489	0.410034	0.401779
H51	H	1.026794	0.538193	0.401961
H52	H	0.978808	-0.304687	-0.073467
O53	O	0.965463	-0.068024	0.087442
C54	C	0.810035	-0.049096	0.181840
C55	C	0.870385	-0.107416	0.082873
H56	H	0.733149	-0.080901	0.178167
H57	H	0.840354	-0.082153	0.258024
H58	H	0.811918	0.059029	0.182558
H59	H	0.868528	-0.215544	0.082051
H60	H	0.840047	-0.074259	0.006734
O61	O	1.255259	-0.315518	0.107899
C62	C	1.361692	-0.437160	0.207679
C63	C	1.259668	-0.383130	0.201339
H64	H	1.365295	-0.491814	0.283230
H65	H	1.381492	-0.503868	0.133916
H66	H	1.413844	-0.355709	0.210615
H67	H	1.207449	-0.464498	0.198436
H68	H	1.239949	-0.316388	0.275100
H69	H	0.970113	-0.295291	0.072433
H70	H	1.255882	-0.322888	-0.101619
O71	O	1.215622	0.183874	0.472182
C72	C	1.271430	-0.033445	0.437919
C73	C	1.197567	0.058483	0.499731
H74	H	1.256871	-0.134840	0.460187
H75	H	1.265930	-0.026784	0.347876
H76	H	1.346222	-0.006743	0.459992
H77	H	1.122741	0.031842	0.477749
H78	H	1.203150	0.051807	0.589759
H79	H	0.625111	0.450550	0.000101
H80	H	1.123078	-0.293959	0.178460
H81	H	1.245999	-0.090342	0.105922
H82	H	1.150270	-0.324134	-0.178263
O83	O	1.121256	-0.067644	0.192764
C84	C	1.027791	-0.103834	0.356281
C85	C	1.081637	-0.164206	0.253689
H86	H	0.995728	-0.181875	0.405556
H87	H	1.079442	-0.047131	0.405893
H88	H	0.968278	-0.037782	0.333299
H89	H	1.141148	-0.230316	0.276574
H90	H	1.029924	-0.220832	0.204103
O91	O	1.272828	-0.098469	-0.109579
C92	C	1.379059	0.077264	-0.124261
C93	C	1.274735	0.034543	-0.116008
H94	H	1.380637	0.184803	-0.129484
H95	H	1.415844	0.049760	-0.050206
H96	H	1.417936	0.028827	-0.199287
H97	H	1.235778	0.082957	-0.041027
H98	H	1.238023	0.062024	-0.190116
H99	H	1.148208	-0.104908	-0.177759
