data_functionalizedCrystal
_audit_creation_method	'MofGen! by Chris Wilmer'
_symmetry_space_group_name_H-M	'P1'
_symmetry_Int_Tables_number	1
_symmetry_cell_setting	triclinic
loop_
_symmetry_equiv_pos_as_xyz
  x,y,z
_cell_length_a	15.944551
_cell_length_b	15.944551
_cell_length_c	15.021413
_cell_angle_alpha	90.003065
_cell_angle_beta	89.997174
_cell_angle_gamma	83.498738
loop_
_atom_site_label
_atom_site_type_symbol
_atom_site_fract_x
_atom_site_fract_y
_atom_site_fract_z
O1	O	1.114529	0.108321	-0.073941
O2	O	0.869979	0.121677	-0.073964
O3	O	0.998932	-0.007276	-0.073944
O4	O	0.985576	0.237274	-0.073961
O5	O	0.998912	-0.007257	0.074121
O6	O	0.869959	0.121695	0.074101
O7	O	1.114508	0.108339	0.074123
Zn8	Zn	0.992230	0.115020	0.097620
Zn9	Zn	0.992257	0.114996	-0.097461
O10	O	0.985555	0.237292	0.074103
C11	C	0.838675	0.121132	0.000066
C12	C	0.745429	0.119470	0.000057
C13	C	0.530572	0.035565	0.000081
C14	C	0.469562	0.074518	-0.072926
C15	C	0.574703	0.116462	0.000068
C16	C	0.469564	0.074556	0.073054
C17	C	0.409790	0.113551	0.000083
C18	C	0.514921	0.155438	-0.072998
C19	C	0.514930	0.155464	0.073047
C20	C	0.453937	0.194476	0.000023
C21	C	0.669705	0.118137	0.000059
C22	C	0.314789	0.111883	0.000085
C23	C	0.998367	-0.038561	0.000089
C24	C	0.996705	-0.131807	0.000089
C25	C	0.912801	-0.346663	0.000069
C26	C	0.951753	-0.407672	0.073077
C27	C	0.993698	-0.302533	0.000082
C28	C	0.951792	-0.407673	-0.072903
C29	C	0.990787	-0.467445	0.000071
C30	C	1.032672	-0.362313	0.073150
C31	C	1.032700	-0.362308	-0.072895
C32	C	1.071711	-0.423298	0.000131
C33	C	0.995372	-0.207530	0.000089
C34	C	0.989119	-0.562446	0.000070
C35	C	1.145813	0.108885	0.000092
C36	C	1.239059	0.110547	0.000094
C37	C	0.986120	0.268577	0.000069
C38	C	0.987782	0.361823	0.000063
N39	N	0.992218	0.115036	0.230758
N40	N	0.992276	0.114973	-0.230598
C41	C	0.932581	0.174636	0.470432
C42	C	1.008481	0.190943	0.529772
C43	C	0.992239	0.115015	0.412365
C44	C	0.916360	0.098727	0.529766
C45	C	0.992253	0.114997	0.587789
C46	C	1.068178	0.131360	0.470398
C47	C	0.976006	0.039111	0.470387
C48	C	1.051962	0.055386	0.529701
C49	C	0.992230	0.115028	0.311307
C50	C	0.992271	0.114984	0.688844
H51	H	0.845652	-0.313356	0.000136
H52	H	1.102474	0.004956	0.555561
C53	C	0.957479	-0.046402	0.435619
C54	C	0.877910	-0.063116	0.465628
C55	C	0.860799	-0.141877	0.433605
H56	H	0.999235	-0.088953	0.456773
H57	H	0.958077	-0.045933	0.372378
H58	H	0.877319	-0.063592	0.528856
H59	H	0.836137	-0.020586	0.444476
H60	H	0.861397	-0.141408	0.370364
H61	H	0.902559	-0.184421	0.454762
H62	H	0.806807	-0.153224	0.453955
H63	H	0.535052	0.189659	0.134767
H64	H	0.852184	0.084959	0.555847
C65	C	0.906028	-0.434586	0.155259
C66	C	0.836518	-0.475046	0.129144
C67	C	0.794377	-0.499856	0.204821
H68	H	0.887199	-0.386274	0.189928
H69	H	0.943424	-0.472298	0.189635
H70	H	0.799129	-0.437336	0.094783
H71	H	0.855323	-0.523367	0.094485
H72	H	0.831773	-0.537568	0.239197
H73	H	0.775554	-0.451540	0.239485
H74	H	0.747215	-0.527318	0.187113
C75	C	0.574954	-0.053981	-0.000194
C76	C	0.552111	-0.095957	-0.076811
C77	C	0.592992	-0.178440	-0.077106
H78	H	0.558815	-0.083110	0.051083
H79	H	0.634328	-0.052327	0.000286
H80	H	0.492750	-0.097615	-0.077282
H81	H	0.568252	-0.066854	-0.128099
H82	H	0.652365	-0.176786	-0.076626
H83	H	0.576849	-0.207561	-0.025827
H84	H	0.577504	-0.206929	-0.129093
C85	C	0.442865	0.028981	-0.155328
C86	C	0.466992	0.070679	-0.231591
C87	C	0.442431	0.028742	-0.307513
H88	H	0.383325	0.028686	-0.155137
H89	H	0.469394	-0.027461	-0.155294
H90	H	0.440461	0.127106	-0.231624
H91	H	0.526529	0.070975	-0.231811
H92	H	0.468960	-0.027700	-0.307479
H93	H	0.382891	0.028450	-0.307313
H94	H	0.458805	0.057024	-0.359266
H95	H	0.534918	0.189621	-0.134787
H96	H	1.066851	-0.342314	0.134941
H97	H	0.449470	0.040332	0.134773
C98	C	1.161338	-0.467477	0.000374
C99	C	1.203280	-0.444481	0.076949
C100	C	1.285840	-0.485172	0.077214
H101	H	1.190398	-0.451291	-0.050931
H102	H	1.159829	-0.526871	-0.000070
H103	H	1.204794	-0.385100	0.077385
H104	H	1.174246	-0.460668	0.128267
H105	H	1.284331	-0.544566	0.076770
H106	H	1.314891	-0.468984	0.025905
H107	H	1.314305	-0.469582	0.129173
H108	H	1.066896	-0.342185	-0.134615
H109	H	0.917574	-0.427758	-0.134630
C110	C	0.409760	0.284103	-0.000217
C111	C	0.432754	0.326046	-0.076792
C112	C	0.392064	0.408606	-0.077053
H113	H	0.425947	0.313161	0.051089
H114	H	0.350365	0.282595	0.000228
H115	H	0.492135	0.327559	-0.077229
H116	H	0.416565	0.297014	-0.128110
H117	H	0.332670	0.407098	-0.076608
H118	H	0.408255	0.437656	-0.025745
H119	H	0.407653	0.437072	-0.129012
H120	H	0.882181	0.225096	0.444409
H121	H	1.022224	0.255126	0.555856
C122	C	1.153678	0.149921	0.435607
C123	C	1.152645	0.149800	0.342405
C124	C	1.231375	0.166938	0.310323
H125	H	1.196187	0.107872	0.456261
H126	H	1.165269	0.203690	0.456403
H127	H	1.141063	0.096038	0.321618
H128	H	1.110153	0.191849	0.321728
H129	H	1.242967	0.220707	0.331119
H130	H	1.273878	0.124887	0.330983
H131	H	1.230682	0.166866	0.247083
