data_functionalizedCrystal
_audit_creation_method	'MofGen! by Chris Wilmer'
_symmetry_space_group_name_H-M	'P1'
_symmetry_Int_Tables_number	1
_symmetry_cell_setting	triclinic
loop_
_symmetry_equiv_pos_as_xyz
  x,y,z
_cell_length_a	19.288864
_cell_length_b	11.792241
_cell_length_c	17.766277
_cell_angle_alpha	89.993523
_cell_angle_beta	89.976791
_cell_angle_gamma	83.664831
loop_
_atom_site_label
_atom_site_type_symbol
_atom_site_fract_x
_atom_site_fract_y
_atom_site_fract_z
O1	O	0.922157	0.141582	-0.062836
O2	O	0.720005	0.160681	-0.062785
O3	O	0.825987	-0.014113	-0.062806
O4	O	0.816176	0.316377	-0.062814
O5	O	0.825968	-0.014122	0.062382
O6	O	0.719986	0.160673	0.062404
O7	O	0.922139	0.141573	0.062352
Cu8	Cu	0.821061	0.151122	0.073809
Cu9	Cu	0.821083	0.151133	-0.074241
O10	O	0.816157	0.316368	0.062374
C11	C	0.694116	0.160063	-0.000184
C12	C	0.617002	0.158218	-0.000164
C13	C	0.825361	-0.056399	-0.000212
C14	C	0.823517	-0.182385	-0.000212
C15	C	0.572888	0.260779	-0.000178
C16	C	0.500431	0.259046	-0.000187
C17	C	0.472091	0.154746	-0.000196
C18	C	0.516215	0.052171	-0.000177
C19	C	0.588670	0.053907	-0.000161
C20	C	0.363370	0.072757	-0.044078
C21	C	0.290916	0.071025	-0.044099
C22	C	0.248615	0.149387	-0.000241
C23	C	0.278776	0.229499	0.043627
C24	C	0.351232	0.231235	0.043643
C25	C	0.393526	0.152852	-0.000212
C26	C	0.125935	0.250076	-0.000263
C27	C	0.053477	0.248339	-0.000267
C28	C	0.069262	0.041460	-0.000265
C29	C	0.141718	0.043201	-0.000254
C30	C	0.170050	0.147512	-0.000257
C31	C	0.820125	-0.413045	-0.000224
C32	C	0.822009	-0.284689	-0.000218
C33	C	0.948028	0.142192	-0.000250
C34	C	1.025142	0.144037	-0.000275
C35	C	0.816783	0.358654	-0.000222
C36	C	0.818627	0.484640	-0.000226
N37	N	0.821050	0.151114	0.177939
N38	N	0.821099	0.151132	-0.178371
C39	C	0.867994	0.073753	0.217316
C40	C	0.867998	0.073748	0.296118
C41	C	0.821065	0.151123	0.335540
C42	C	0.774112	0.228490	0.296153
C43	C	0.774105	0.228486	0.217353
C44	C	0.812354	0.254534	0.460377
C45	C	0.812366	0.254540	0.539175
C46	C	0.821084	0.151137	0.578586
C47	C	0.829804	0.047723	0.539188
C48	C	0.829797	0.047719	0.460388
C49	C	0.821067	0.151136	0.420985
C50	C	0.868035	0.073764	0.703409
C51	C	0.868034	0.073757	0.782213
C52	C	0.774151	0.228509	0.782246
C53	C	0.774148	0.228506	0.703444
C54	C	0.821094	0.151135	0.664030
H55	H	0.464507	0.342567	-0.000196
C56	C	0.919664	-0.011351	0.660051
H57	H	0.947617	-0.057439	0.694792
H58	H	0.948727	0.029352	0.629292
H59	H	0.894495	-0.058495	0.629330
C60	C	0.409897	-0.013446	-0.092321
H61	H	0.457369	-0.000948	-0.086024
H62	H	0.397292	-0.003754	-0.143791
H63	H	0.403743	-0.088825	-0.076897
C64	C	0.722472	0.313582	0.339510
H65	H	0.694504	0.359645	0.304768
H66	H	0.747621	0.360737	0.370238
H67	H	0.693416	0.272845	0.370262
C68	C	0.190245	-0.069618	-0.000250
H69	H	0.162992	-0.131986	-0.000263
H70	H	0.218816	-0.073248	0.043411
H71	H	0.218860	-0.073233	-0.043907
C72	C	0.919640	-0.011351	0.339443
H73	H	0.947600	-0.057426	0.304683
H74	H	0.894485	-0.058492	0.370204
H75	H	0.948706	0.029374	0.370160
C76	C	0.802759	0.368281	0.417029
H77	H	0.803995	0.353469	0.364456
H78	H	0.839247	0.412609	0.429916
H79	H	0.759102	0.408930	0.429965
H80	H	0.046188	-0.043463	-0.000319
C81	C	0.722516	0.313617	0.660127
H82	H	0.694568	0.359706	0.694889
H83	H	0.693450	0.272912	0.629405
H84	H	0.747681	0.360760	0.629371
C85	C	0.919676	-0.011343	0.825528
H86	H	0.947637	-0.057412	0.790766
H87	H	0.894524	-0.058491	0.856286
H88	H	0.948741	0.029381	0.856247
C89	C	0.637200	-0.058913	-0.000151
H90	H	0.684410	-0.042940	-0.000138
H91	H	0.628591	-0.101696	-0.043807
H92	H	0.628547	-0.101697	0.043510
C93	C	0.722469	0.313595	0.174036
H94	H	0.694518	0.359682	0.208797
H95	H	0.693404	0.272889	0.143312
H96	H	0.747634	0.360740	0.143282
C97	C	0.839388	-0.066027	0.582529
H98	H	0.838135	-0.051218	0.635102
H99	H	0.883039	-0.106687	0.569599
H100	H	0.802892	-0.110342	0.569634
H101	H	0.375786	0.296462	0.079364
H102	H	0.735934	0.291505	0.814342
C103	C	0.157107	0.364808	-0.000257
H104	H	0.206577	0.351154	-0.000256
H105	H	0.141969	0.407020	0.043397
H106	H	0.142012	0.407025	-0.043921
H107	H	0.244336	0.293308	0.079341
C108	C	0.257741	-0.017085	-0.092354
H109	H	0.208530	-0.006886	-0.086092
H110	H	0.275332	-0.091892	-0.076929
H111	H	0.268886	-0.006817	-0.143820
C112	C	0.004951	0.361162	-0.000283
H113	H	0.032205	0.423530	-0.000289
H114	H	-0.023665	0.364791	0.043367
H115	H	-0.023617	0.364779	-0.043950
C116	C	0.802775	0.368285	0.582510
H117	H	0.804036	0.353480	0.635084
H118	H	0.759119	0.408932	0.569617
H119	H	0.839264	0.412611	0.569569
C120	C	0.604050	0.375516	-0.000168
H121	H	0.567395	0.436351	-0.000169
H122	H	0.632014	0.380504	-0.043814
H123	H	0.631958	0.380486	0.043503
H124	H	0.906219	0.010750	0.185228
H125	H	0.493136	-0.032752	-0.000195
H126	H	0.836895	-0.036484	0.428313
