data_functionalizedCrystal
_audit_creation_method	'MofGen! by Chris Wilmer'
_symmetry_space_group_name_H-M	'P1'
_symmetry_Int_Tables_number	1
_symmetry_cell_setting	triclinic
loop_
_symmetry_equiv_pos_as_xyz
  x,y,z
_cell_length_a	13.033304
_cell_length_b	13.034248
_cell_length_c	13.032268
_cell_angle_alpha	74.856868
_cell_angle_beta	90.922231
_cell_angle_gamma	90.916431
loop_
_atom_site_label
_atom_site_type_symbol
_atom_site_fract_x
_atom_site_fract_y
_atom_site_fract_z
Zn1	Zn	-1.534010	0.326426	-0.827554
Zn2	Zn	-1.034010	0.826426	-0.327554
Zn3	Zn	-1.572174	0.477188	-0.676841
Zn4	Zn	-1.072174	0.977188	-0.176841
Zn5	Zn	-1.383267	0.320883	-0.632944
Zn6	Zn	-0.883267	0.820883	-0.132944
Zn7	Zn	-1.383188	0.520917	-0.833042
Zn8	Zn	-0.883188	1.020917	-0.333042
O9	O	-1.468160	0.411354	-0.742595
O10	O	-0.968160	0.911354	-0.242595
O11	O	-1.681250	0.330445	-0.823636
O12	O	-1.181250	0.830445	-0.323636
O13	O	-1.563119	0.435833	-0.524202
O14	O	-1.063119	0.935833	-0.024202
O15	O	-1.387325	0.174809	-0.638091
O16	O	-0.887325	0.674809	-0.138091
O17	O	-1.709289	0.441209	-0.712908
O18	O	-1.209289	0.941209	-0.212908
O19	O	-1.498076	0.178882	-0.781071
O20	O	-0.998076	0.678882	-0.281071
O21	O	-1.424331	0.320996	-0.491951
O22	O	-0.924331	0.820996	0.008049
O23	O	-1.241079	0.363398	-0.643413
O24	O	-0.741079	0.863398	-0.143413
O25	O	-1.387190	0.515738	-0.979129
O26	O	-0.887190	1.015738	-0.479129
O27	O	-1.241021	0.510362	-0.790424
O28	O	-0.741021	1.010362	-0.290424
O29	O	-1.497999	0.372847	-0.975098
O30	O	-0.997999	0.872847	-0.475098
O31	O	-1.563042	0.629798	-0.718229
O32	O	-1.063042	1.129798	-0.218229
O33	O	-1.424195	0.661925	-0.832989
O34	O	-0.924195	1.161925	-0.332989
C35	C	-1.204185	0.441025	-0.712751
C36	C	-0.704185	0.941025	-0.212751
C37	C	-1.091255	0.453747	-0.700012
C38	C	-0.591255	0.953747	-0.200012
C39	C	-1.027035	0.404728	-0.749232
C40	C	-0.527035	0.904728	-0.249232
C41	C	-0.910316	0.417875	-0.736066
C42	C	-0.410316	0.917875	-0.236066
C43	C	-0.733166	0.381561	-0.772548
C44	C	-0.233166	0.881561	-0.272548
C45	C	-0.846096	0.368849	-0.785293
C46	C	-0.346096	0.868849	-0.285293
C47	C	-1.497777	0.683928	-0.780994
C48	C	-0.997777	1.183928	-0.280994
C49	C	-1.510536	0.800531	-0.797466
C50	C	-1.010536	1.300531	-0.297466
C51	C	-1.438328	0.449788	-1.016246
C52	C	-0.938328	0.949788	-0.516246
C53	C	-1.425616	0.466167	-1.132859
C54	C	-0.925616	0.966167	-0.632859
C55	C	-1.474675	0.971081	-0.751042
C56	C	-0.974675	1.471081	-0.251042
C57	C	-1.461486	0.850567	-0.734022
C58	C	-0.961486	1.350567	-0.234022
C59	C	-1.438412	1.137718	-0.704060
C60	C	-0.938412	1.637718	-0.204060
C61	C	-1.425632	1.021121	-0.687606
C62	C	-0.925632	1.521121	-0.187606
C63	C	-1.474774	0.402769	-1.182854
C64	C	-0.974774	0.902769	-0.682854
C65	C	-1.461637	0.419696	-1.303380
C66	C	-0.961637	0.919696	-0.803380
C67	C	-1.497925	0.372986	-0.470005
C68	C	-0.997925	0.872986	0.029995
C69	C	-1.510802	0.356290	-0.353373
C70	C	-1.010802	0.856290	0.146627
H71	H	-0.878892	0.469577	-0.684175
H72	H	-0.378892	0.969577	-0.184175
C73	C	-1.544591	1.033734	-0.841435
C74	C	-1.044591	1.533734	-0.341435
N75	N	-1.597253	1.080922	-0.909523
N76	N	-1.097253	1.580922	-0.409523
C77	C	-1.355717	0.958468	-0.597212
C78	C	-0.855717	1.458468	-0.097212
N79	N	-1.303053	0.911280	-0.529126
N80	N	-0.803053	1.411280	-0.029126
H81	H	-1.562612	0.289471	-1.306950
H82	H	-1.062612	0.789471	-0.806950
H83	H	-1.562294	0.846905	-0.864378
H84	H	-1.062294	1.346905	-0.364378
H85	H	-1.373796	0.532969	-1.179284
H86	H	-0.873796	1.032969	-0.679284
H87	H	-1.059826	0.505445	-0.648125
H88	H	-0.559826	1.005445	-0.148125
H89	H	-0.877518	0.317139	-0.837176
H90	H	-0.377518	0.817139	-0.337176
C91	C	-1.391567	0.787919	-0.643623
C92	C	-0.891567	1.287919	-0.143623
N93	N	-1.338904	0.740731	-0.575537
N94	N	-0.838904	1.240731	-0.075537
C95	C	-1.069488	0.334876	-0.819324
C96	C	-0.569488	0.834876	-0.319324
N97	N	-1.101462	0.282262	-0.872119
N98	N	-0.601462	0.782262	-0.372119
H99	H	-1.526583	0.335958	-1.136427
H100	H	-1.026583	0.835958	-0.636427
H101	H	-1.409814	0.486503	-1.349801
H102	H	-0.909814	0.986503	-0.849801
