data_functionalizedCrystal
_audit_creation_method	'MofGen! by Chris Wilmer'
_symmetry_space_group_name_H-M	'P1'
_symmetry_Int_Tables_number	1
_symmetry_cell_setting	triclinic
loop_
_symmetry_equiv_pos_as_xyz
  x,y,z
_cell_length_a	12.759401
_cell_length_b	16.120444
_cell_length_c	12.759393
_cell_angle_alpha	92.863624
_cell_angle_beta	89.981433
_cell_angle_gamma	92.925484
loop_
_atom_site_label
_atom_site_type_symbol
_atom_site_fract_x
_atom_site_fract_y
_atom_site_fract_z
Zn1	Zn	1.584963	-0.331879	-0.615155
Zn2	Zn	1.918296	0.001454	-0.281821
Zn3	Zn	2.251629	0.334788	0.051512
Zn4	Zn	1.575911	-0.471317	-0.448370
Zn5	Zn	1.909244	-0.137984	-0.115037
Zn6	Zn	2.242578	0.195350	0.218297
Zn7	Zn	1.409262	-0.331920	-0.439496
Zn8	Zn	1.742595	0.001414	-0.106163
Zn9	Zn	2.075929	0.334747	0.227170
Zn10	Zn	1.400311	-0.471250	-0.624007
Zn11	Zn	1.733645	-0.137917	-0.290674
Zn12	Zn	2.066978	0.195417	0.042660
O13	O	1.492612	-0.401591	-0.531757
O14	O	1.825945	-0.068258	-0.198424
O15	O	2.159278	0.265075	0.134910
O16	O	1.730782	-0.350387	-0.593039
O17	O	2.064116	-0.017053	-0.259706
O18	O	2.397449	0.316280	0.073627
O19	O	1.553762	-0.452871	-0.300175
O20	O	1.887095	-0.119537	0.033159
O21	O	2.220429	0.213796	0.366492
O22	O	1.440103	-0.215249	-0.455380
O23	O	1.773436	0.118085	-0.122046
O24	O	2.106770	0.451418	0.211287
O25	O	1.724132	-0.452831	-0.470503
O26	O	2.057465	-0.119498	-0.137170
O27	O	2.390799	0.213836	0.196164
O28	O	1.569190	-0.215219	-0.584435
O29	O	1.902523	0.118115	-0.251102
O30	O	2.235856	0.451448	0.082232
O31	O	1.431326	-0.350456	-0.293655
O32	O	1.764659	-0.017123	0.039678
O33	O	2.097993	0.316210	0.373011
O34	O	1.261054	-0.350391	-0.463963
O35	O	1.594388	-0.017058	-0.130630
O36	O	1.927721	0.316275	0.202703
O37	O	1.424848	-0.452717	-0.769851
O38	O	1.758181	-0.119384	-0.436518
O39	O	2.091515	0.213950	-0.103184
O40	O	1.254478	-0.452757	-0.599522
O41	O	1.587812	-0.119423	-0.266189
O42	O	1.921145	0.213910	0.067144
O43	O	1.560511	-0.350322	-0.763347
O44	O	1.893844	-0.016988	-0.430014
O45	O	2.227177	0.316345	-0.096681
O46	O	1.545083	-0.587974	-0.479087
O47	O	1.878417	-0.254640	-0.145753
O48	O	2.211750	0.078693	0.187580
O49	O	1.416071	-0.587925	-0.608126
O50	O	1.749404	-0.254591	-0.274793
O51	O	2.082738	0.078742	0.058540
C52	C	1.219646	-0.401572	-0.531741
C53	C	1.552979	-0.068239	-0.198408
C54	C	1.886312	0.265095	0.134926
C55	C	1.102868	-0.401584	-0.531761
C56	C	1.436202	-0.068250	-0.198427
C57	C	1.769535	0.265083	0.134906
C58	C	1.051456	-0.348341	-0.595676
C59	C	1.384789	-0.015008	-0.262342
C60	C	1.718122	0.318325	0.070991
C61	C	0.941731	-0.348357	-0.595683
C62	C	1.275064	-0.015024	-0.262350
C63	C	1.608397	0.318309	0.070983
C64	C	0.934840	-0.454865	-0.467858
C65	C	1.268173	-0.121532	-0.134525
C66	C	1.601507	0.211802	0.198808
C67	C	1.044563	-0.454844	-0.467846
C68	C	1.377897	-0.121511	-0.134512
C69	C	1.711230	0.211823	0.198821
C70	C	1.109761	-0.295081	-0.659590
C71	C	1.443094	0.038253	-0.326257
C72	C	1.776427	0.371586	0.007076
C73	C	1.058348	-0.241835	-0.723512
C74	C	1.391681	0.091498	-0.390178
C75	C	1.725015	0.424832	-0.056845
C76	C	0.948623	-0.241851	-0.723519
C77	C	1.281956	0.091483	-0.390186
C78	C	1.615290	0.424816	-0.056852
C79	C	0.890310	-0.295113	-0.659606
C80	C	1.223644	0.038221	-0.326272
C81	C	1.556977	0.371554	0.007061
C82	C	1.478652	-0.618199	-0.545553
C83	C	1.811985	-0.284866	-0.212220
C84	C	2.145319	0.048467	0.121114
C85	C	1.472776	-0.710865	-0.551490
C86	C	1.806110	-0.377532	-0.218157
C87	C	2.139443	-0.044198	0.115177
C88	C	1.523350	-0.921811	-0.501184
C89	C	1.856683	-0.588477	-0.167851
C90	C	2.190017	-0.255144	0.165483
C91	C	1.462068	-0.880521	-0.562341
C92	C	1.795401	-0.547188	-0.229008
C93	C	2.128735	-0.213854	0.104326
C94	C	1.468028	-0.786116	-0.556302
C95	C	1.801361	-0.452782	-0.222968
C96	C	2.134695	-0.119449	0.110365
C97	C	1.517392	-1.016225	-0.507222
C98	C	1.850725	-0.682891	-0.173888
C99	C	2.184058	-0.349558	0.159445
C100	C	1.766644	-0.401612	-0.531774
C101	C	2.099977	-0.068278	-0.198440
C102	C	2.433310	0.265055	0.134893
C103	C	1.883420	-0.401620	-0.531781
C104	C	2.216753	-0.068287	-0.198447
C105	C	2.550086	0.265046	0.134886
C106	C	1.492691	-0.401507	-0.805785
C107	C	1.826024	-0.068174	-0.472452
C108	C	2.159357	0.265159	-0.139118
C109	C	1.492724	-0.401472	-0.922560
C110	C	1.826058	-0.068138	-0.589226
C111	C	2.159391	0.265195	-0.255893
C112	C	1.506654	-0.184138	-0.517930
C113	C	1.839988	0.149195	-0.184597
C114	C	2.173321	0.482529	0.148737
C115	C	1.512639	-0.091472	-0.512038
C116	C	1.845972	0.241861	-0.178705
C117	C	2.179305	0.575195	0.154629
C118	C	1.563373	-0.348149	-0.974036
C119	C	1.896707	-0.014816	-0.640703
C120	C	2.230040	0.318518	-0.307370
C121	C	1.563400	-0.348119	-1.083759
C122	C	1.896734	-0.014786	-0.750425
C123	C	2.230067	0.318548	-0.417092
C124	C	1.422126	-0.454741	-1.090518
C125	C	1.755459	-0.121408	-0.757184
C126	C	2.088792	0.211926	-0.423851
C127	C	1.422095	-0.454766	-0.980797
C128	C	1.755428	-0.121433	-0.647464
C129	C	2.088761	0.211901	-0.314131
C130	C	1.634003	-0.294854	-0.915799
C131	C	1.967336	0.038479	-0.582465
C132	C	2.300670	0.371812	-0.249132
C133	C	1.704659	-0.241528	-0.967276
C134	C	2.037992	0.091805	-0.633942
C135	C	2.371325	0.425138	-0.300609
C136	C	1.704686	-0.241498	-1.076998
C137	C	2.038019	0.091835	-0.743664
C138	C	2.371352	0.425168	-0.410331
C139	C	1.634057	-0.294794	-1.135243
C140	C	1.967390	0.038539	-0.801910
C141	C	2.300724	0.371872	-0.468577
C142	C	1.492597	-0.401615	-0.258791
C143	C	1.825931	-0.068282	0.074542
C144	C	2.159264	0.265052	0.407876
C145	C	1.492782	-0.401416	-0.142002
C146	C	1.826116	-0.068083	0.191331
C147	C	2.159449	0.265251	0.524664
H148	H	1.199105	-0.295062	-0.659591
H149	H	1.532438	0.038272	-0.326258
H150	H	1.865771	0.371605	0.007076
H151	H	0.887353	-0.498230	-0.415825
H152	H	1.220686	-0.164896	-0.082492
H153	H	1.554020	0.168437	0.250842
H154	H	1.580287	-0.886263	-0.444293
H155	H	1.913620	-0.552930	-0.110960
H156	H	2.246954	-0.219597	0.222373
F157	F	1.633983	-0.294885	-0.799023
F158	F	1.967317	0.038449	-0.465690
F159	F	2.300650	0.371782	-0.132356
F160	F	1.779809	-0.184800	-0.905285
F161	F	2.113142	0.148534	-0.571952
F162	F	2.446476	0.481867	-0.238618
H163	H	0.800966	-0.295104	-0.659593
H164	H	1.134299	0.038230	-0.326260
H165	H	1.467633	0.371563	0.007073
H166	H	1.762209	-0.198072	-1.118907
H167	H	2.095543	0.135262	-0.785573
H168	H	2.428876	0.468595	-0.452240
F169	F	1.387638	-0.926987	-0.636703
F170	F	1.720971	-0.593653	-0.303370
F171	F	2.054304	-0.260320	0.029963
H172	H	1.086424	-0.498199	-0.415801
H173	H	1.419758	-0.164865	-0.082467
H174	H	1.753091	0.168468	0.250866
F175	F	1.634077	-0.294749	-1.252020
F176	F	1.967410	0.038584	-0.918687
F177	F	2.300744	0.371918	-0.585353
H178	H	1.364551	-0.498173	-0.938883
H179	H	1.697884	-0.164840	-0.605550
H180	H	2.031217	0.168494	-0.272216
H181	H	1.105834	-0.198466	-0.775541
H182	H	1.439167	0.134867	-0.442207
H183	H	1.772500	0.468201	-0.108874
F184	F	0.893909	-0.185177	-0.791540
F185	F	1.227243	0.148156	-0.458207
F186	F	1.560576	0.481490	-0.124874
H187	H	1.364623	-0.498131	-1.137950
H188	H	1.697956	-0.164798	-0.804616
H189	H	2.031290	0.168535	-0.471283
