data_functionalizedCrystal
_audit_creation_method	'MofGen! by Chris Wilmer'
_symmetry_space_group_name_H-M	'P1'
_symmetry_Int_Tables_number	1
_symmetry_cell_setting	triclinic
loop_
_symmetry_equiv_pos_as_xyz
  x,y,z
_cell_length_a	18.101398
_cell_length_b	18.101397
_cell_length_c	18.101390
_cell_angle_alpha	90.035542
_cell_angle_beta	90.010099
_cell_angle_gamma	90.016023
loop_
_atom_site_label
_atom_site_type_symbol
_atom_site_fract_x
_atom_site_fract_y
_atom_site_fract_z
Zn1	Zn	1.132178	-0.294889	0.418537
Zn2	Zn	1.632178	0.205111	0.918537
Zn3	Zn	1.132096	-0.418746	0.294690
Zn4	Zn	1.632096	0.081254	0.794690
Zn5	Zn	1.008336	-0.294913	0.294730
Zn6	Zn	1.508336	0.205087	0.794730
Zn7	Zn	1.008311	-0.418684	0.418510
Zn8	Zn	1.508311	0.081316	0.918510
O9	O	1.070231	-0.356808	0.356617
O10	O	1.570231	0.143192	0.856617
O11	O	1.235800	-0.311335	0.402103
O12	O	1.735800	0.188665	0.902103
O13	O	1.115656	-0.402356	0.191062
O14	O	1.615656	0.097644	0.691062
O15	O	1.024809	-0.191277	0.311181
O16	O	1.524809	0.308723	0.811181
O17	O	1.235740	-0.402332	0.311113
O18	O	1.735740	0.097668	0.811113
O19	O	1.115795	-0.191260	0.402142
O20	O	1.615795	0.308740	0.902142
O21	O	1.024730	-0.311376	0.191092
O22	O	1.524730	0.188624	0.691092
O23	O	0.904700	-0.311316	0.311155
O24	O	1.404700	0.188684	0.811155
O25	O	1.024766	-0.402226	0.522147
O26	O	1.524766	0.097774	1.022147
O27	O	0.904681	-0.402249	0.402096
O28	O	1.404681	0.097751	0.902096
O29	O	1.115771	-0.311275	0.522166
O30	O	1.615771	0.188725	1.022166
O31	O	1.115631	-0.522371	0.311087
O32	O	1.615631	-0.022371	0.811087
O33	O	1.024686	-0.522325	0.402057
O34	O	1.524686	-0.022325	0.902057
C35	C	0.877820	-0.356779	0.356627
C36	C	1.377820	0.143221	0.856627
C37	C	0.795506	-0.356784	0.356649
C38	C	1.295506	0.143216	0.856649
C39	C	0.496415	-0.356828	0.356618
C40	C	0.996415	0.143172	0.856618
C41	C	0.527753	-0.414318	0.413553
C42	C	1.027753	0.085682	0.913553
C43	C	0.613371	-0.414138	0.413787
C44	C	1.113371	0.085862	0.913787
C45	C	0.644797	-0.356807	0.356633
C46	C	1.144797	0.143193	0.856633
C47	C	0.613729	-0.278803	0.377965
C48	C	1.113729	0.221197	0.877965
C49	C	0.528084	-0.279148	0.378370
C50	C	1.028084	0.220852	0.878370
C51	C	0.527966	-0.376655	0.278214
C52	C	1.027966	0.123345	0.778214
C53	C	0.613616	-0.378366	0.278633
C54	C	1.113616	0.121634	0.778633
C55	C	0.728657	-0.356790	0.356641
C56	C	1.228657	0.143210	0.856641
C57	C	0.412555	-0.356839	0.356612
C58	C	0.912555	0.143161	0.856612
C59	C	1.070167	-0.549219	0.356581
C60	C	1.570167	-0.049219	0.856581
C61	C	1.070208	-0.631533	0.356590
C62	C	1.570208	-0.131533	0.856590
C63	C	1.070302	-0.930624	0.356658
C64	C	1.570302	-0.430624	0.856658
C65	C	1.127363	-0.899297	0.299269
C66	C	1.627363	-0.399297	0.799269
C67	C	1.127560	-0.813678	0.299417
C68	C	1.627560	-0.313678	0.799417
C69	C	1.070255	-0.782241	0.356624
C70	C	1.570255	-0.282241	0.856624
C71	C	1.091412	-0.813243	0.434681
C72	C	1.591412	-0.313243	0.934681
C73	C	1.091853	-0.898888	0.434368
C74	C	1.591853	-0.398888	0.934368
C75	C	0.991933	-0.899128	0.336665
C76	C	1.491933	-0.399128	0.836665
C77	C	0.992320	-0.813479	0.334923
C78	C	1.492320	-0.313479	0.834923
C79	C	1.070228	-0.698382	0.356609
C80	C	1.570228	-0.198382	0.856609
C81	C	1.070332	-1.014483	0.356677
C82	C	1.570332	-0.514483	0.856677
C83	C	1.263392	-0.356838	0.356607
C84	C	1.763392	0.143162	0.856607
C85	C	1.345706	-0.356851	0.356602
C86	C	1.845706	0.143149	0.856602
C87	C	1.070275	-0.356741	0.549779
C88	C	1.570275	0.143259	1.049779
C89	C	1.070293	-0.356712	0.632093
C90	C	1.570293	0.143288	1.132093
C91	C	1.070314	-0.163646	0.356669
C92	C	1.570314	0.336354	0.856669
C93	C	1.070350	-0.081332	0.356691
C94	C	1.570350	0.418668	0.856691
C95	C	1.070229	-0.356822	0.164206
C96	C	1.570229	0.143178	0.664206
C97	C	1.070354	-0.356642	0.081892
C98	C	1.570354	0.143358	0.581892
C99	C	1.070333	-0.356666	0.931184
C100	C	1.570333	0.143334	1.431184
C101	C	1.127779	-0.299643	0.899871
C102	C	1.627779	0.200357	1.399871
C103	C	1.127600	-0.299431	0.814253
C104	C	1.627600	0.200569	1.314253
C105	C	1.070314	-0.356688	0.782801
C106	C	1.570314	0.143312	1.282801
C107	C	0.992293	-0.335479	0.813889
C108	C	1.492293	0.164521	1.313889
C109	C	0.992637	-0.335052	0.899534
C110	C	1.492637	0.164948	1.399534
C111	C	1.090220	-0.435044	0.899589
C112	C	1.590220	0.064956	1.399589
C113	C	1.091933	-0.434645	0.813939
C114	C	1.591933	0.065355	1.313939
C115	C	1.070298	-0.356703	0.698942
C116	C	1.570298	0.143297	1.198942
C117	C	1.070344	-0.356650	1.015043
C118	C	1.570344	0.143350	1.515043
H119	H	0.507353	-0.234779	0.338802
H120	H	1.007353	0.265221	0.838802
H121	H	1.051123	-0.792877	0.478590
H122	H	1.551123	-0.292877	0.978590
H123	H	1.114435	-0.241367	0.793785
H124	H	1.614435	0.258633	1.293785
H125	H	0.948379	-0.374777	0.920247
H126	H	1.448379	0.125223	1.420247
H127	H	1.052114	-0.919608	0.478601
H128	H	1.552114	-0.419608	0.978601
H129	H	0.975129	-0.278821	0.792456
H130	H	1.475129	0.221179	1.292456
H131	H	1.149349	-0.450638	0.793619
H132	H	1.649349	0.049362	1.293619
Cl133	Cl	0.923148	-0.780454	0.394734
Cl134	Cl	1.423148	-0.280454	0.894734
H135	H	1.146116	-0.454356	0.921223
H136	H	1.646116	0.045644	1.421223
Cl137	Cl	1.216925	-0.319926	0.781799
Cl138	Cl	1.716925	0.180074	1.281799
H139	H	1.185822	-0.312761	0.920463
H140	H	1.685822	0.187239	1.420463
H141	H	0.507148	-0.472351	0.400333
H142	H	1.007148	0.027649	0.900333
Cl143	Cl	0.645158	-0.210873	0.315943
Cl144	Cl	1.145158	0.289127	0.815943
H145	H	1.053135	-0.479414	0.792526
H146	H	1.553135	0.020586	1.292526
H147	H	0.976368	-0.793224	0.277479
H148	H	1.476368	-0.293224	0.777479
H149	H	0.635008	-0.339534	0.233934
H150	H	1.135008	0.160466	0.733934
H151	H	0.975780	-0.277757	0.919530
H152	H	1.475780	0.222243	1.419530
Cl153	Cl	0.924414	-0.397631	0.782443
Cl154	Cl	1.424414	0.102369	1.282443
Cl155	Cl	1.107077	-0.781318	0.210068
Cl156	Cl	1.607077	-0.281318	0.710068
Cl157	Cl	0.646860	-0.252370	0.465496
Cl158	Cl	1.146860	0.247630	0.965496
Cl159	Cl	0.496674	-0.312006	0.212717
Cl160	Cl	0.996674	0.187994	0.712717
Cl161	Cl	1.216502	-0.932442	0.319454
Cl162	Cl	1.716502	-0.432442	0.819454
H163	H	0.508120	-0.262333	0.435686
H164	H	1.008120	0.237667	0.935686
H165	H	1.148055	-0.791739	0.451904
H166	H	1.648055	-0.291739	0.951904
H167	H	1.185612	-0.793138	0.312644
H168	H	1.685612	-0.293138	0.812644
Cl169	Cl	1.107181	-0.931178	0.209638
Cl170	Cl	1.607181	-0.431178	0.709638
H171	H	1.149138	-0.918810	0.451305
H172	H	1.649138	-0.418810	0.951305
Cl173	Cl	0.645806	-0.503452	0.393177
Cl174	Cl	1.145806	-0.003452	0.893177
Cl175	Cl	0.962217	-0.932575	0.250311
Cl176	Cl	1.462217	-0.432575	0.750311
Cl177	Cl	0.494524	-0.394337	0.502722
Cl178	Cl	0.994524	0.105663	1.002722
Cl179	Cl	1.025620	-0.500641	0.930849
Cl180	Cl	1.525620	-0.000641	1.430849
Cl181	Cl	0.926294	-0.930408	0.401197
Cl182	Cl	1.426294	-0.430408	0.901197
H183	H	0.633872	-0.401018	0.471879
H184	H	1.133872	0.098982	0.971879
Cl185	Cl	0.494601	-0.462966	0.248279
Cl186	Cl	0.994601	0.037034	0.748279
H187	H	0.633930	-0.435766	0.262545
H188	H	1.133930	0.064234	0.762545
H189	H	1.114781	-0.241902	0.921414
H190	H	1.614781	0.258098	1.421414
