data_functionalizedCrystal
_audit_creation_method	'MofGen! by Chris Wilmer'
_symmetry_space_group_name_H-M	'P1'
_symmetry_Int_Tables_number	1
_symmetry_cell_setting	triclinic
loop_
_symmetry_equiv_pos_as_xyz
  x,y,z
_cell_length_a	19.851628
_cell_length_b	14.560438
_cell_length_c	14.560438
_cell_angle_alpha	60.005799
_cell_angle_beta	90.003165
_cell_angle_gamma	59.997752
loop_
_atom_site_label
_atom_site_type_symbol
_atom_site_fract_x
_atom_site_fract_y
_atom_site_fract_z
Zr1	Zr	0.649007	1.005090	-0.120271
O2	O	0.541445	1.196694	-0.266910
O3	O	0.681976	0.813499	-0.075338
O4	O	0.681981	1.005087	-0.266914
O5	O	0.541440	1.005103	0.075808
O6	O	0.792843	1.005069	-0.266896
O7	O	0.541440	1.005106	-0.075333
O8	O	0.792833	0.662353	0.075799
O9	O	0.541450	1.347820	-0.266887
O10	O	0.778777	0.892284	-0.056137
O11	O	0.696042	0.892296	0.056644
O12	O	0.696048	1.117866	-0.168913
O13	O	0.613313	1.117877	-0.056132
Zr14	Zr	0.825818	1.005057	0.120810
Zr15	Zr	0.825818	1.005061	-0.120242
Zr16	Zr	0.649007	1.005085	0.120781
Zr17	Zr	0.649014	1.246117	-0.120236
Zr18	Zr	0.825811	0.764030	0.120775
O19	O	0.792849	1.196648	0.075877
O20	O	0.792849	1.196654	-0.266868
O21	O	0.541445	1.196688	0.075836
O22	O	0.933380	0.813453	0.267449
O23	O	0.933379	0.813458	-0.075296
O24	O	0.681976	0.813493	0.267407
O25	O	0.933385	1.005043	-0.075268
O26	O	0.792844	1.005060	0.267453
O27	O	0.681982	1.005078	0.267435
O28	O	0.933385	1.005041	0.075872
O29	O	0.681991	1.347797	-0.266864
O30	O	0.792833	0.662350	0.267403
O31	O	0.933375	0.662327	0.267427
O32	O	0.933375	0.662330	0.075822
O33	O	0.541450	1.347816	-0.075283
O34	O	0.681992	1.347794	-0.075260
O35	O	0.778777	0.892281	0.169452
O36	O	0.861512	0.892269	0.056671
O37	O	0.778783	1.117851	-0.056104
O38	O	0.696048	1.117862	0.056677
C39	C	0.737404	0.703585	0.000225
C40	C	0.737401	0.601262	0.000210
C41	C	0.676331	0.636400	-0.083021
C42	C	0.676344	0.540211	-0.082965
C43	C	0.798500	0.373747	0.083565
C44	C	0.798490	0.469935	0.083503
C45	C	0.615242	0.767726	-0.166314
C46	C	0.554166	0.802871	-0.249552
C47	C	0.554180	0.706682	-0.249496
C48	C	0.615268	0.575348	-0.166201
C49	C	0.516248	1.005109	0.000233
C50	C	0.441187	1.005121	0.000220
C51	C	0.214735	1.128089	-0.061232
C52	C	0.192372	1.066608	-0.105808
C53	C	0.303780	1.005087	0.000253
C54	C	0.192403	1.066576	0.044809
C55	C	0.171048	1.005064	0.000283
C56	C	0.282406	0.943606	-0.044386
C57	C	0.282434	0.943592	0.106290
C58	C	0.260124	0.882021	0.061740
C59	C	0.380242	1.005104	0.000233
C60	C	0.094591	1.005037	0.000302
C61	C	0.958577	1.005038	0.000306
C62	C	1.033638	1.005026	0.000319
C63	C	0.737412	1.005079	-0.301250
C64	C	0.737412	1.005080	-0.403583
C65	C	0.737421	1.306562	0.000314
C66	C	0.737424	1.408885	0.000329
C67	C	0.694225	1.122829	-0.510527
C68	C	0.694228	1.122823	-0.606675
C69	C	0.780605	0.887308	-0.488923
C70	C	0.780607	0.887316	-0.392777
C71	C	0.651031	1.240594	-0.521333
C72	C	0.607840	1.358352	-0.628282
C73	C	0.607842	1.358346	-0.724431
C74	C	0.651036	1.240581	-0.713631
C75	C	0.737413	1.005068	0.301789
C76	C	0.737413	1.005066	0.404122
C77	C	0.958568	0.703549	0.000262
C78	C	1.033626	0.601215	0.000259
C79	C	0.737404	0.703579	0.301745
C80	C	0.737401	0.601255	0.404063
C81	C	0.958568	0.703544	0.301782
C82	C	1.033627	0.601208	0.404112
C83	C	0.516257	1.306603	-0.301242
C84	C	0.441198	1.408939	-0.403573
C85	C	0.516257	1.306598	0.000277
C86	C	0.441199	1.408932	0.000280
C87	C	0.737421	1.306567	-0.301206
C88	C	0.737424	1.408892	-0.403524
C89	C	1.025688	0.553165	-0.058637
C90	C	1.096206	0.457024	-0.058662
C91	C	1.174662	0.408928	0.000217
C92	C	1.182600	0.456987	0.059115
C93	C	1.112082	0.553133	0.059132
C94	C	1.112069	0.553144	0.393297
C95	C	1.182601	0.457001	0.489438
C96	C	1.174689	0.408918	0.596393
C97	C	1.096238	0.456992	0.607206
C98	C	1.025708	0.553139	0.511066
C99	C	0.362756	1.457015	-0.392758
C100	C	0.292224	1.553187	-0.488899
C101	C	0.300136	1.601275	-0.595854
C102	C	0.378587	1.553196	-0.606667
C103	C	0.449117	1.457032	-0.510527
C104	C	0.449137	1.456992	0.059166
C105	C	0.378619	1.553159	0.059164
C106	C	0.300162	1.601259	0.000282
C107	C	0.292225	1.553195	-0.058611
C108	C	0.362743	1.457036	-0.058615
C109	C	0.780588	0.553170	0.511017
C110	C	0.780578	0.457031	0.607152
C111	C	0.694194	0.457066	0.489364
C112	C	0.694199	0.553210	0.393232
C113	C	0.823789	0.601215	0.521848
C114	C	0.866980	0.553129	0.628807
C115	C	0.866971	0.456990	0.724941
C116	C	0.823770	0.408936	0.714117
H117	H	0.615222	0.846058	-0.166367
C118	C	0.535402	1.404143	-0.522442
N119	N	0.600391	1.364310	-0.531426
C120	C	0.354032	1.404144	-0.275116
N121	N	0.347455	1.364335	-0.186510
H122	H	0.196286	1.232092	-0.113301
H123	H	0.513014	1.417836	0.107122
C124	C	0.651040	1.240582	-0.819401
N125	N	0.651039	1.240583	-0.899067
H126	H	1.232126	0.330629	0.674667
C127	C	0.939392	0.606060	-0.123420
N128	N	0.874396	0.645901	-0.172224
C129	C	0.285246	0.741408	0.131979
N130	N	0.304165	0.635500	0.184876
H131	H	1.118527	0.592279	0.306217
H132	H	0.848234	0.266812	0.151381
C133	C	1.087457	0.404166	-0.123445
N134	N	1.080864	0.364352	-0.172236
H135	H	1.118557	0.592242	0.107099
C136	C	0.560337	1.487886	-0.640156
N137	N	0.524559	1.585454	-0.649103
C138	C	0.939423	0.605996	0.522982
N139	N	0.874434	0.645805	0.531965
H140	H	0.356268	1.417909	-0.106564
H141	H	0.242699	1.679578	-0.674128
C142	C	0.387368	1.606001	0.123964
N143	N	0.393960	1.645796	0.172774
H144	H	0.815769	0.791430	-0.480140
H145	H	1.232076	0.330639	0.000194
C146	C	0.865667	0.431282	0.175066
N147	N	0.916268	0.402167	0.244032
H148	H	0.572681	1.454231	-0.811508
C149	C	0.823807	0.706965	0.416103
N150	N	0.823823	0.786613	0.336455
H151	H	0.902146	0.592269	0.637611
H152	H	1.246472	0.417869	0.480614
C153	C	0.205936	1.606055	-0.476979
N154	N	0.140946	1.645872	-0.467998
H155	H	1.246488	0.417813	0.107051
H156	H	0.242749	1.679558	0.000295
C157	C	0.205915	1.606101	-0.123359
N158	N	0.140905	1.645942	-0.172115
H159	H	0.385019	1.592361	-0.693761
H160	H	0.902132	0.417850	0.812027
H161	H	1.089808	0.417828	0.694301
C162	C	0.823759	0.303185	0.819872
N163	N	0.823754	0.223530	0.899527
C164	C	0.646694	0.606103	0.275576
N165	N	0.610911	0.645944	0.186957
H166	H	0.659024	0.417932	0.480562
H167	H	0.153563	1.118594	-0.195471
H168	H	0.504434	0.909806	-0.317372
H169	H	0.615286	0.497031	-0.166179
C170	C	0.334673	0.873436	-0.095424
N171	N	0.374040	0.820590	-0.133870
C172	C	0.486994	0.745344	-0.341054
N173	N	0.436383	0.774469	-0.410013
H174	H	0.321240	0.891650	0.195933
C175	C	0.651029	1.240611	-0.415573
N176	N	0.651028	1.240623	-0.335914
C177	C	0.139992	1.136832	0.095705
N178	N	0.100516	1.189758	0.134033
H179	H	0.815772	0.791434	-0.305697
