data_functionalizedCrystal
_audit_creation_method	'MofGen! by Chris Wilmer'
_symmetry_space_group_name_H-M	'P1'
_symmetry_Int_Tables_number	1
_symmetry_cell_setting	triclinic
loop_
_symmetry_equiv_pos_as_xyz
  x,y,z
_cell_length_a	25.639240
_cell_length_b	29.839134
_cell_length_c	25.639233
_cell_angle_alpha	89.976874
_cell_angle_beta	89.974071
_cell_angle_gamma	90.027617
loop_
_atom_site_label
_atom_site_type_symbol
_atom_site_fract_x
_atom_site_fract_y
_atom_site_fract_z
Zn1	Zn	-0.208286	0.686752	-0.295730
Zn2	Zn	0.125047	1.020085	0.037604
Zn3	Zn	0.458381	1.353418	0.370937
Zn4	Zn	-0.295705	0.686694	-0.208283
Zn5	Zn	0.037628	1.020027	0.125050
Zn6	Zn	0.370962	1.353360	0.458384
Zn7	Zn	-0.208277	0.611633	-0.208292
Zn8	Zn	0.125056	0.944966	0.125041
Zn9	Zn	0.458389	1.278300	0.458375
Zn10	Zn	-0.295684	0.611594	-0.295671
Zn11	Zn	0.037649	0.944927	0.037662
Zn12	Zn	0.370982	1.278260	0.370995
O13	O	-0.251988	0.649168	-0.251994
O14	O	0.081345	0.982501	0.081339
O15	O	0.414678	1.315835	0.414673
O16	O	-0.219895	0.749611	-0.284150
O17	O	0.113439	1.082944	0.049183
O18	O	0.446772	1.416278	0.382517
O19	O	-0.284112	0.676729	-0.135119
O20	O	0.049221	1.010062	0.198214
O21	O	0.382554	1.343396	0.531548
O22	O	-0.135113	0.621638	-0.219919
O23	O	0.198220	0.954972	0.113414
O24	O	0.531553	1.288305	0.446748
O25	O	-0.284121	0.749569	-0.219903
O26	O	0.049213	1.082902	0.113430
O27	O	0.382546	1.416235	0.446763
O28	O	-0.135120	0.676828	-0.284159
O29	O	0.198214	1.010161	0.049174
O30	O	0.531547	1.343494	0.382508
O31	O	-0.219880	0.621582	-0.135126
O32	O	0.113454	0.954916	0.198208
O33	O	0.446787	1.288249	0.531541
O34	O	-0.219860	0.548761	-0.219863
O35	O	0.113473	0.882094	0.113471
O36	O	0.446807	1.215427	0.446804
O37	O	-0.284086	0.621571	-0.368844
O38	O	0.049247	0.954905	-0.035511
O39	O	0.382581	1.288238	0.297822
O40	O	-0.284078	0.548732	-0.284060
O41	O	0.049256	0.882065	0.049273
O42	O	0.382589	1.215398	0.382607
O43	O	-0.219875	0.676790	-0.368887
O44	O	0.113459	1.010123	-0.035554
O45	O	0.446792	1.343456	0.297780
O46	O	-0.368867	0.676691	-0.219847
O47	O	-0.035534	1.010024	0.113486
O48	O	0.297799	1.343357	0.446820
O49	O	-0.368852	0.621515	-0.284051
O50	O	-0.035519	0.954848	0.049282
O51	O	0.297814	1.288182	0.382616
C52	C	-0.251966	0.532445	-0.251956
C53	C	0.081367	0.865779	0.081377
C54	C	0.414701	1.199112	0.414710
C55	C	-0.251969	0.482511	-0.251953
C56	C	0.081364	0.815844	0.081381
C57	C	0.414698	1.149178	0.414714
C58	C	-0.285476	0.172862	-0.285380
C59	C	0.047858	0.506195	0.047953
C60	C	0.381191	0.839529	0.381286
C61	C	-0.285490	-0.014811	-0.285404
C62	C	0.047843	0.318522	0.047930
C63	C	0.381176	0.651856	0.381263
O64	O	-0.313954	-0.039081	-0.313803
O65	O	0.019379	0.294253	0.019530
O66	O	0.352712	0.627586	0.352864
N67	N	-0.252007	-0.038274	-0.252033
N68	N	0.081326	0.295059	0.081300
N69	N	0.414659	0.628393	0.414633
C70	C	-0.218516	-0.014816	-0.218657
C71	C	0.114818	0.318517	0.114676
C72	C	0.448151	0.651851	0.448009
O73	O	-0.190033	-0.039079	-0.190278
O74	O	0.143300	0.294254	0.143055
O75	O	0.476634	0.627588	0.476389
C76	C	-0.218499	0.172856	-0.218637
C77	C	0.114835	0.506190	0.114696
C78	C	0.448168	0.839523	0.448030
C79	C	-0.251988	0.196317	-0.252006
C80	C	0.081345	0.529650	0.081328
C81	C	0.414679	0.862984	0.414661
C82	C	-0.318962	0.196323	-0.318747
C83	C	0.014372	0.529656	0.014586
C84	C	0.347705	0.862989	0.347920
C85	C	-0.318960	0.243238	-0.318739
C86	C	0.014374	0.576571	0.014595
C87	C	0.347707	0.909905	0.347928
C88	C	-0.285472	0.266693	-0.285364
C89	C	0.047862	0.600026	0.047969
C90	C	0.381195	0.933360	0.381303
C91	C	-0.251986	0.243232	-0.251998
C92	C	0.081348	0.576566	0.081336
C93	C	0.414681	0.909899	0.414669
C94	C	-0.185005	0.196313	-0.185264
C95	C	0.148328	0.529647	0.148069
C96	C	0.481662	0.862980	0.481403
C97	C	-0.185003	0.243235	-0.185263
C98	C	0.148331	0.576568	0.148071
C99	C	0.481664	0.909901	0.481404
C100	C	-0.218492	0.266695	-0.218632
C101	C	0.114842	0.600028	0.114702
C102	C	0.448175	0.933362	0.448035
C103	C	-0.218496	0.313603	-0.218615
C104	C	0.114837	0.646936	0.114719
C105	C	0.448171	0.980269	0.448052
N106	N	-0.251979	0.337066	-0.251985
N107	N	0.081354	0.670399	0.081348
N108	N	0.414688	1.003732	0.414681
C109	C	-0.285467	0.313611	-0.285360
C110	C	0.047866	0.646944	0.047974
C111	C	0.381200	0.980277	0.381307
C112	C	-0.218528	-0.113347	-0.218669
C113	C	0.114806	0.219987	0.114664
C114	C	0.448139	0.553320	0.447997
C115	C	-0.218533	-0.160264	-0.218674
C116	C	0.114801	0.173069	0.114660
C117	C	0.448134	0.506402	0.447993
C118	C	-0.285507	-0.160256	-0.285421
C119	C	0.047827	0.173077	0.047912
C120	C	0.381160	0.506410	0.381246
C121	C	-0.285504	-0.113338	-0.285414
C122	C	0.047829	0.219996	0.047920
C123	C	0.381163	0.553329	0.381253
C124	C	-0.252011	-0.089884	-0.252040
C125	C	0.081322	0.243450	0.081294
C126	C	0.414656	0.576783	0.414627
C127	C	-0.285460	0.412137	-0.285340
C128	C	0.047873	0.745470	0.047994
C129	C	0.381206	1.078803	0.381327
C130	C	-0.285457	0.459056	-0.285327
C131	C	0.047876	0.792390	0.048006
C132	C	0.381210	1.125723	0.381339
C133	C	-0.218481	0.459044	-0.218582
C134	C	0.114852	0.792377	0.114751
C135	C	0.448185	1.125711	0.448085
C136	C	-0.218486	0.412128	-0.218593
C137	C	0.114847	0.745462	0.114741
C138	C	0.448180	1.078795	0.448074
C139	C	-0.251978	0.388676	-0.251976
C140	C	0.081356	0.722009	0.081358
C141	C	0.414689	1.055343	0.414691
O142	O	-0.190043	0.337901	-0.190235
O143	O	0.143291	0.671234	0.143099
O144	O	0.476624	1.004568	0.476432
O145	O	-0.313937	0.337882	-0.313743
O146	O	0.019396	0.671215	0.019590
O147	O	0.352729	1.004549	0.352924
C148	C	-0.285478	0.125947	-0.285389
C149	C	0.047856	0.459280	0.047945
C150	C	0.381189	0.792613	0.381278
C151	C	-0.251992	0.102486	-0.252022
C152	C	0.081341	0.435819	0.081311
C153	C	0.414675	0.769153	0.414645
C154	C	-0.218504	0.125941	-0.218647
C155	C	0.114829	0.459274	0.114686
C156	C	0.448163	0.792607	0.448019
C157	C	-0.251997	0.055568	-0.252026
C158	C	0.081337	0.388901	0.081307
C159	C	0.414670	0.722235	0.414640
C160	C	-0.285485	0.032113	-0.285401
C161	C	0.047849	0.365447	0.047932
C162	C	0.381182	0.698780	0.381266
C163	C	-0.318968	0.055576	-0.318771
C164	C	0.014366	0.388910	0.014562
C165	C	0.347699	0.722243	0.347895
C166	C	-0.318966	0.102492	-0.318763
C167	C	0.014368	0.435825	0.014570
C168	C	0.347701	0.769158	0.347903
C169	C	-0.185021	0.102478	-0.185277
C170	C	0.148312	0.435811	0.148056
C171	C	0.481646	0.769144	0.481390
C172	C	-0.185026	0.055562	-0.185288
C173	C	0.148307	0.388896	0.148046
C174	C	0.481641	0.722229	0.481379
C175	C	-0.218514	0.032107	-0.218662
C176	C	0.114819	0.365441	0.114671
C177	C	0.448153	0.698774	0.448004
C178	C	-0.387831	0.649105	-0.251953
C179	C	-0.054497	0.982438	0.081380
C180	C	0.278836	1.315771	0.414714
C181	C	-0.445945	0.649118	-0.251953
C182	C	-0.112611	0.982452	0.081380
C183	C	0.220722	1.315785	0.414714
C184	C	-0.806273	0.677919	-0.285504
C185	C	-0.472939	1.011253	0.047829
C186	C	-0.139606	1.344586	0.381163
C187	C	-0.860877	0.677933	-0.285515
C188	C	-0.527544	1.011266	0.047819
C189	C	-0.194210	1.344599	0.381152
O190	O	-0.889084	0.702345	-0.313999
O191	O	-0.555751	1.035678	0.019335
O192	O	-0.222417	1.369011	0.352668
N193	N	-0.888227	0.649230	-0.252045
N194	N	-0.554894	0.982564	0.081289
N195	N	-0.221561	1.315897	0.414622
C196	C	-0.860970	0.620510	-0.218565
C197	C	-0.527637	0.953843	0.114768
C198	C	-0.194304	1.287176	0.448101
O199	O	-0.889248	0.596097	-0.190098
O200	O	-0.555915	0.929430	0.143236
O201	O	-0.222581	1.262764	0.476569
C202	C	-0.806367	0.620495	-0.218558
C203	C	-0.473034	0.953828	0.114776
C204	C	-0.139700	1.287161	0.448109
C205	C	-0.779020	0.649202	-0.252026
C206	C	-0.445686	0.982535	0.081307
C207	C	-0.112353	1.315869	0.414640
C208	C	-0.778925	0.706624	-0.318970
C209	C	-0.445592	1.039957	0.014363
C210	C	-0.112259	1.373291	0.347696
C211	C	-0.724325	0.706611	-0.318959
C212	C	-0.390991	1.039945	0.014375
C213	C	-0.057658	1.373278	0.347708
C214	C	-0.697072	0.677894	-0.285481
C215	C	-0.363738	1.011227	0.047852
C216	C	-0.030405	1.344561	0.381186
C217	C	-0.724419	0.649189	-0.252015
C218	C	-0.391086	0.982523	0.081318
C219	C	-0.057752	1.315856	0.414652
C220	C	-0.779111	0.591772	-0.185082
C221	C	-0.445778	0.925105	0.148252
C222	C	-0.112444	1.258439	0.481585
C223	C	-0.724504	0.591759	-0.185077
C224	C	-0.391171	0.925092	0.148256
C225	C	-0.057837	1.258426	0.481590
C226	C	-0.697157	0.620466	-0.218546
C227	C	-0.363823	0.953800	0.114788
C228	C	-0.030490	1.287133	0.448121
C229	C	-0.642565	0.620459	-0.218526
C230	C	-0.309232	0.953792	0.114808
C231	C	0.024101	1.287126	0.448141
N232	N	-0.615215	0.649161	-0.251996
N233	N	-0.281882	0.982495	0.081338
N234	N	0.051451	1.315828	0.414671
C235	C	-0.642468	0.677879	-0.285474
C236	C	-0.309135	1.011212	0.047860
C237	C	0.024198	1.344545	0.381193
C238	C	-0.975641	0.620543	-0.218585
C239	C	-0.642308	0.953877	0.114749
C240	C	-0.308974	1.287210	0.448082
C241	C	-1.030243	0.620560	-0.218589
C242	C	-0.696910	0.953894	0.114744
C243	C	-0.363577	1.287227	0.448078
C244	C	-1.030146	0.677983	-0.285539
C245	C	-0.696813	1.011316	0.047794
C246	C	-0.363479	1.344649	0.381127
C247	C	-0.975543	0.677968	-0.285532
C248	C	-0.642209	1.011301	0.047802
C249	C	-0.308876	1.344634	0.381135
C250	C	-0.948291	0.649246	-0.252055
C251	C	-0.614957	0.982579	0.081279
C252	C	-0.281624	1.315912	0.414612
C253	C	-0.527803	0.677850	-0.285447
C254	C	-0.194470	1.011183	0.047887
C255	C	0.138863	1.344517	0.381220
C256	C	-0.473198	0.677836	-0.285431
C257	C	-0.139865	1.011169	0.047903
C258	C	0.193469	1.344503	0.381236
C259	C	-0.473300	0.620412	-0.218483
C260	C	-0.139966	0.953745	0.114851
C261	C	0.193367	1.287079	0.448184
C262	C	-0.527900	0.620428	-0.218496
C263	C	-0.194567	0.953761	0.114837
C264	C	0.138766	1.287094	0.448170
C265	C	-0.555151	0.649148	-0.251983
C266	C	-0.221817	0.982481	0.081351
C267	C	0.111516	1.315815	0.414684
O268	O	-0.614324	0.596058	-0.190058
O269	O	-0.280991	0.929391	0.143276
O270	O	0.052343	1.262725	0.476609
O271	O	-0.614184	0.702283	-0.313941
O272	O	-0.280851	1.035616	0.019392
O273	O	0.052483	1.368950	0.352725
C274	C	-0.115615	0.649244	-0.252047
C275	C	0.217718	0.982577	0.081287
C276	C	0.551052	1.315911	0.414620
C277	C	-0.057501	0.649276	-0.252069
C278	C	0.275832	0.982610	0.081264
C279	C	0.609166	1.315943	0.414598
C280	C	-0.251979	0.649183	-0.388367
C281	C	0.081354	0.982516	-0.055034
C282	C	0.414688	1.315849	0.278300
C283	C	-0.251975	0.649189	-0.446481
C284	C	0.081358	0.982522	-0.113148
C285	C	0.414692	1.315855	0.220186
C286	C	-0.252011	0.766346	-0.252032
C287	C	0.081322	1.099680	0.081301
C288	C	0.414656	1.433013	0.414635
C289	C	-0.252020	0.816281	-0.252048
C290	C	0.081313	1.149614	0.081285
C291	C	0.414646	1.482947	0.414618
C292	C	-0.218441	0.677977	-0.806872
C293	C	0.114892	1.011311	-0.473539
C294	C	0.448226	1.344644	-0.140206
C295	C	-0.218427	0.677983	-0.861477
C296	C	0.114907	1.011316	-0.528143
C297	C	0.448240	1.344650	-0.194810
O298	O	-0.189976	0.702424	-0.889737
O299	O	0.143357	1.035757	-0.556404
O300	O	0.476690	1.369090	-0.223070
N301	N	-0.251853	0.649238	-0.888764
N302	N	0.081481	0.982572	-0.555430
N303	N	0.414814	1.315905	-0.222097
C304	C	-0.285291	0.620483	-0.861444
C305	C	0.048042	0.953816	-0.528111
C306	C	0.381375	1.287150	-0.194777
O307	O	-0.313721	0.596034	-0.889668
O308	O	0.019612	0.929367	-0.556334
O309	O	0.352945	1.262700	-0.223001
C310	C	-0.285303	0.620475	-0.806841
C311	C	0.048030	0.953809	-0.473507
C312	C	0.381364	1.287142	-0.140174
C313	C	-0.251878	0.649225	-0.779556
C314	C	0.081455	0.982559	-0.446223
C315	C	0.414788	1.315892	-0.112889
C316	C	-0.185019	0.706724	-0.779588
C317	C	0.148314	1.040058	-0.446254
C318	C	0.481648	1.373391	-0.112921
C319	C	-0.185034	0.706719	-0.724987
C320	C	0.148299	1.040053	-0.391654
C321	C	0.481633	1.373386	-0.058321
C322	C	-0.218472	0.677967	-0.697671
C323	C	0.114862	1.011301	-0.364338
C324	C	0.448195	1.344634	-0.031004
C325	C	-0.251894	0.649220	-0.724956
C326	C	0.081440	0.982553	-0.391622
C327	C	0.414773	1.315887	-0.058289
C328	C	-0.318739	0.591718	-0.779522
C329	C	0.014595	0.925052	-0.446188
C330	C	0.347928	1.258385	-0.112855
C331	C	-0.318747	0.591713	-0.724915
C332	C	0.014586	0.925046	-0.391581
C333	C	0.347920	1.258380	-0.058248
C334	C	-0.285323	0.620463	-0.697630
C335	C	0.048011	0.953796	-0.364297
C336	C	0.381344	1.287129	-0.030963
C337	C	-0.285346	0.620463	-0.643039
C338	C	0.047987	0.953796	-0.309706
C339	C	0.381320	1.287130	0.023628
N340	N	-0.251920	0.649208	-0.615752
N341	N	0.081413	0.982541	-0.282418
N342	N	0.414746	1.315874	0.050915
C343	C	-0.218483	0.677960	-0.643068
C344	C	0.114850	1.011293	-0.309734
C345	C	0.448184	1.344626	0.023599
C346	C	-0.285264	0.620500	-0.976115
C347	C	0.048069	0.953834	-0.642781
C348	C	0.381402	1.287167	-0.309448
C349	C	-0.285256	0.620510	-1.030717
C350	C	0.048077	0.953843	-0.697384
C351	C	0.381411	1.287176	-0.364050
C352	C	-0.218390	0.678009	-1.030746
C353	C	0.114943	1.011342	-0.697412
C354	C	0.448277	1.344676	-0.364079
C355	C	-0.218402	0.678002	-0.976142
C356	C	0.114932	1.011335	-0.642809
C357	C	0.448265	1.344668	-0.309476
C358	C	-0.251838	0.649245	-0.948827
C359	C	0.081495	0.982578	-0.615494
C360	C	0.414828	1.315912	-0.282161
C361	C	-0.218518	0.677947	-0.528403
C362	C	0.114815	1.011281	-0.195069
C363	C	0.448149	1.344614	0.138264
C364	C	-0.218538	0.677941	-0.473797
C365	C	0.114796	1.011274	-0.140464
C366	C	0.448129	1.344608	0.192869
C367	C	-0.285401	0.620440	-0.473773
C368	C	0.047932	0.953773	-0.140440
C369	C	0.381265	1.287107	0.192894
C370	C	-0.285384	0.620448	-0.528374
C371	C	0.047950	0.953781	-0.195040
C372	C	0.381283	1.287114	0.138293
C373	C	-0.251938	0.649203	-0.555687
C374	C	0.081396	0.982536	-0.222354
C375	C	0.414729	1.315869	0.110980
O376	O	-0.313781	0.596033	-0.614744
O377	O	0.019553	0.929367	-0.281410
O378	O	0.352886	1.262700	0.051923
O379	O	-0.190053	0.702401	-0.614837
O380	O	0.143280	1.035734	-0.281504
O381	O	0.476614	1.369067	0.051829
C382	C	-0.251960	0.649179	-0.116151
C383	C	0.081374	0.982513	0.217182
C384	C	0.414707	1.315846	0.550515
C385	C	-0.251816	0.649260	-0.058038
C386	C	0.081517	0.982594	0.275296
C387	C	0.414850	1.315927	0.608629
H388	H	-0.346236	0.121589	-0.345936
H389	H	-0.012902	0.454923	-0.012602
H390	H	0.320431	0.788256	0.320731
N391	N	-0.443702	0.708801	-0.321529
N392	N	-0.110368	1.042134	0.011804
N393	N	0.222965	1.375467	0.345137
H394	H	-0.469255	0.726993	-0.342740
H395	H	-0.135922	1.060326	-0.009406
H396	H	0.197411	1.393660	0.323927
H397	H	-0.421047	0.690494	-0.345698
H398	H	-0.087714	1.023828	-0.012365
H399	H	0.245620	1.357161	0.320969
H400	H	-0.702062	0.729986	-0.346213
H401	H	-0.368728	1.063319	-0.012880
H402	H	-0.035395	1.396653	0.320453
H403	H	-0.157750	0.121570	-0.158099
H404	H	0.175583	0.454903	0.175234
H405	H	0.508916	0.788237	0.508568
H406	H	-0.191253	-0.094255	-0.191490
H407	H	0.142080	0.239079	0.141843
H408	H	0.475414	0.572412	0.475177
N409	N	-0.443894	0.589439	-0.182381
N410	N	-0.110561	0.922773	0.150953
N411	N	0.222772	1.256106	0.484286
H412	H	-0.453419	0.557338	-0.190465
H413	H	-0.120085	0.890671	0.142869
H414	H	0.213248	1.224005	0.476202
H415	H	-0.453420	0.596474	-0.145046
H416	H	-0.120086	0.929808	0.188287
H417	H	0.213247	1.263141	0.521621
N418	N	-0.808593	0.560806	-0.148981
N419	N	-0.475260	0.894139	0.184352
N420	N	-0.141926	1.227473	0.517685
H421	H	-0.799108	0.528703	-0.157066
H422	H	-0.465774	0.862036	0.176267
H423	H	-0.132441	1.195369	0.509600
H424	H	-0.847312	0.565203	-0.154075
H425	H	-0.513979	0.898537	0.179259
H426	H	-0.180646	1.231870	0.512592
H427	H	-0.191183	0.701412	-0.953931
H428	H	0.142150	1.034745	-0.620598
H429	H	0.475483	1.368078	-0.287264
N430	N	-0.354807	0.560692	-0.695453
N431	N	-0.021474	0.894025	-0.362120
N432	N	0.311860	1.227359	-0.028787
H433	H	-0.375976	0.542482	-0.721027
H434	H	-0.042642	0.875815	-0.387694
H435	H	0.290691	1.209148	-0.054360
H436	H	-0.379016	0.578958	-0.672798
H437	H	-0.045683	0.912291	-0.339464
H438	H	0.287651	1.245625	-0.006131
N439	N	-0.808314	0.737589	-0.355095
N440	N	-0.474981	1.070922	-0.021761
N441	N	-0.141648	1.404256	0.311572
H442	H	-0.782697	0.755764	-0.376295
H443	H	-0.449363	1.089097	-0.042962
H444	H	-0.116030	1.422431	0.290371
H445	H	-0.830968	0.758404	-0.333856
H446	H	-0.497635	1.091738	-0.000522
H447	H	-0.164301	1.425071	0.332811
N448	N	-0.695111	0.560778	-0.148970
N449	N	-0.361778	0.894112	0.184363
N450	N	-0.028444	1.227445	0.517696
H451	H	-0.720725	0.542597	-0.127772
H452	H	-0.387391	0.875930	0.205561
H453	H	-0.054058	1.209264	0.538895
H454	H	-0.672455	0.579072	-0.124791
H455	H	-0.339122	0.912406	0.208543
H456	H	-0.005789	1.245739	0.541876
H457	H	-0.550168	0.597055	-0.191240
H458	H	-0.216834	0.930389	0.142094
H459	H	0.116499	1.263722	0.475427
H460	H	-0.191218	0.478149	-0.191408
H461	H	0.142115	0.811483	0.141926
H462	H	0.475449	1.144816	0.475259
H463	H	-0.346229	0.262336	-0.345912
H464	H	-0.012895	0.595669	-0.012579
H465	H	0.320438	0.929002	0.320755
H466	H	-0.346236	0.036471	-0.345945
H467	H	-0.012903	0.369805	-0.012611
H468	H	0.320430	0.703138	0.320722
N469	N	-0.148907	0.030261	-0.149291
N470	N	0.184426	0.363594	0.184042
N471	N	0.517760	0.696927	0.517376
H472	H	-0.127693	0.052243	-0.128150
H473	H	0.205640	0.385576	0.205184
H474	H	0.538973	0.718910	0.538517
H475	H	-0.124742	0.010815	-0.170624
H476	H	0.208591	0.344148	0.162709
H477	H	0.541924	0.677482	0.496042
N478	N	-0.321309	0.589507	-1.060146
N479	N	0.012024	0.922840	-0.726813
N480	N	0.345358	1.256173	-0.393480
H481	H	-0.358669	0.596462	-1.050638
H482	H	-0.025336	0.929795	-0.717305
H483	H	0.307997	1.263129	-0.383971
H484	H	-0.313140	0.557424	-1.050622
H485	H	0.020194	0.890757	-0.717288
H486	H	0.353527	1.224091	-0.383955
N487	N	-0.321465	0.589428	-0.444308
N488	N	0.011868	0.922762	-0.110975
N489	N	0.345202	1.256095	0.222359
H490	H	-0.345703	0.607669	-0.421652
H491	H	-0.012369	0.941002	-0.088319
H492	H	0.320964	1.274335	0.245015
H493	H	-0.300177	0.568627	-0.421682
H494	H	0.033157	0.901961	-0.088349
H495	H	0.366490	1.235294	0.244985
N496	N	-0.321576	0.484358	-0.321324
N497	N	0.011758	0.817692	0.012010
N498	N	0.345091	1.151025	0.345343
H499	H	-0.316496	0.517640	-0.316256
H500	H	0.016837	0.850974	0.017077
H501	H	0.350171	1.184307	0.350410
H502	H	-0.358904	0.476138	-0.313115
H503	H	-0.025571	0.809471	0.020218
H504	H	0.307762	1.142805	0.353552
N505	N	-1.059548	0.708940	-0.321668
N506	N	-0.726214	1.042273	0.011665
N507	N	-0.392881	1.375607	0.344999
H508	H	-1.033941	0.727119	-0.342877
H509	H	-0.700607	1.060453	-0.009543
H510	H	-0.367274	1.393786	0.323790
H511	H	-1.082207	0.729752	-0.300430
H512	H	-0.748874	1.063086	0.032903
H513	H	-0.415540	1.396419	0.366236
N514	N	-0.354789	0.560706	-0.808938
N515	N	-0.021456	0.894040	-0.475605
N516	N	0.311878	1.227373	-0.142271
H517	H	-0.333532	0.539901	-0.831590
H518	H	-0.000198	0.873235	-0.498257
H519	H	0.333135	1.206568	-0.164924
H520	H	-0.379015	0.578979	-0.831563
H521	H	-0.045682	0.912313	-0.498230
H522	H	0.287652	1.245646	-0.164897
N523	N	-0.321440	0.589446	-0.557806
N524	N	0.011894	0.922779	-0.224473
N525	N	0.345227	1.256113	0.108861
H526	H	-0.342626	0.571233	-0.532213
H527	H	-0.009292	0.904566	-0.198880
H528	H	0.324041	1.237899	0.134453
H529	H	-0.300146	0.568668	-0.580455
H530	H	0.033187	0.902001	-0.247122
H531	H	0.366520	1.235334	0.086211
H532	H	-0.157725	0.262328	-0.158088
H533	H	0.175609	0.595662	0.175245
H534	H	0.508942	0.928995	0.508578
N535	N	-0.182446	0.708965	-0.557852
N536	N	0.150887	1.042299	-0.224518
N537	N	0.484221	1.375632	0.108815
H538	H	-0.203690	0.729776	-0.580509
H539	H	0.129643	1.063110	-0.247175
H540	H	0.462976	1.396443	0.086158
H541	H	-0.158208	0.690697	-0.580475
H542	H	0.175125	1.024031	-0.247141
H543	H	0.508459	1.357364	0.086192
H544	H	-0.312495	0.597083	-0.953878
H545	H	0.020838	0.930416	-0.620545
H546	H	0.354171	1.263749	-0.287211
N547	N	-0.557182	0.708831	-0.321563
N548	N	-0.223849	1.042164	0.011770
N549	N	0.109484	1.375497	0.345103
H550	H	-0.579832	0.729671	-0.300350
H551	H	-0.246499	1.063004	0.032984
H552	H	0.086835	1.396337	0.366317
H553	H	-0.579807	0.690538	-0.345773
H554	H	-0.246474	1.023872	-0.012440
H555	H	0.086860	1.357205	0.320893
N556	N	-0.182374	0.386821	-0.182597
N557	N	0.150959	0.720154	0.150736
N558	N	0.484293	1.053488	0.484070
H559	H	-0.161161	0.408801	-0.161452
H560	H	0.172172	0.742134	0.171882
H561	H	0.505505	1.075468	0.505215
H562	H	-0.158208	0.367376	-0.203930
H563	H	0.175125	0.700709	0.129403
H564	H	0.508458	1.034043	0.462737
N565	N	-0.148877	0.171013	-0.149285
N566	N	0.184457	0.504346	0.184049
N567	N	0.517790	0.837679	0.517382
H568	H	-0.170079	0.151525	-0.125011
H569	H	0.163254	0.484858	0.208323
H570	H	0.496588	0.818192	0.541656
H571	H	-0.127666	0.193022	-0.128182
H572	H	0.205668	0.526355	0.205152
H573	H	0.539001	0.859689	0.538485
N574	N	-0.182488	0.708952	-0.444369
N575	N	0.150846	1.042286	-0.111036
N576	N	0.484179	1.375619	0.222298
H577	H	-0.161303	0.727166	-0.469963
H578	H	0.172030	1.060499	-0.136629
H579	H	0.505364	1.393832	0.196704
H580	H	-0.158293	0.690678	-0.421711
H581	H	0.175040	1.024011	-0.088378
H582	H	0.508373	1.357345	0.244955
H583	H	-0.953280	0.701343	-0.312785
H584	H	-0.619946	1.034677	0.020549
H585	H	-0.286613	1.368010	0.353882
H586	H	-0.953455	0.597156	-0.191319
H587	H	-0.620122	0.930489	0.142014
H588	H	-0.286788	1.263822	0.475347
H589	H	-1.052505	0.597189	-0.191330
H590	H	-0.719172	0.930522	0.142003
H591	H	-0.385838	1.263855	0.475337
N592	N	-0.148982	0.737727	-0.695563
N593	N	0.184352	1.071060	-0.362229
N594	N	0.517685	1.404393	-0.028896
H595	H	-0.127799	0.755938	-0.721160
H596	H	0.205534	1.089272	-0.387826
H597	H	0.538868	1.422605	-0.054493
H598	H	-0.124786	0.719451	-0.672908
H599	H	0.208548	1.052784	-0.339575
H600	H	0.541881	1.386118	-0.006242
H601	H	-0.157787	0.730138	-0.801823
H602	H	0.175546	1.063471	-0.468489
H603	H	0.508879	1.396805	-0.135156
N604	N	-0.182324	0.709021	-1.060213
N605	N	0.151010	1.042355	-0.726880
N606	N	0.484343	1.375688	-0.393547
H607	H	-0.187390	0.704660	-1.098944
H608	H	0.145944	1.037994	-0.765610
H609	H	0.479277	1.371327	-0.432277
H610	H	-0.144983	0.702048	-1.050677
H611	H	0.188350	1.035382	-0.717344
H612	H	0.521683	1.368715	-0.384010
H613	H	-0.346232	0.177231	-0.345927
H614	H	-0.012898	0.510564	-0.012594
H615	H	0.320435	0.843897	0.320739
N616	N	-0.321583	0.386845	-0.321344
N617	N	0.011750	0.720179	0.011990
N618	N	0.345083	1.053512	0.345323
H619	H	-0.342795	0.408833	-0.342476
H620	H	-0.009461	0.742166	-0.009143
H621	H	0.323872	1.075499	0.324191
H622	H	-0.345750	0.367361	-0.300017
H623	H	-0.012416	0.700695	0.033317
H624	H	0.320917	1.034028	0.366650
H625	H	-0.312773	-0.094239	-0.312586
H626	H	0.020560	0.239094	0.020747
H627	H	0.353894	0.572428	0.354080
H628	H	-0.191268	-0.179362	-0.191496
H629	H	0.142066	0.153971	0.141837
H630	H	0.475399	0.487305	0.475170
N631	N	-0.321627	-0.185558	-0.321418
N632	N	0.011706	0.147775	0.011915
N633	N	0.345039	0.481109	0.345249
H634	H	-0.316546	-0.218839	-0.316354
H635	H	0.016788	0.114494	0.016979
H636	H	0.350121	0.447827	0.350312
H637	H	-0.313541	-0.177341	-0.358774
H638	H	0.019793	0.155993	-0.025440
H639	H	0.353126	0.489326	0.307893
