data_functionalizedCrystal
_audit_creation_method	'MofGen! by Chris Wilmer'
_symmetry_space_group_name_H-M	'P1'
_symmetry_Int_Tables_number	1
_symmetry_cell_setting	triclinic
loop_
_symmetry_equiv_pos_as_xyz
  x,y,z
_cell_length_a	6.817900
_cell_length_b	15.300992
_cell_length_c	14.858572
_cell_angle_alpha	94.836158
_cell_angle_beta	104.524003
_cell_angle_gamma	104.175078
loop_
_atom_site_label
_atom_site_type_symbol
_atom_site_fract_x
_atom_site_fract_y
_atom_site_fract_z
V1	V	-4.041806	-0.125326	-0.290242
O2	O	-4.025461	0.005438	-0.284428
O3	O	-3.996655	-0.247939	-0.288534
O4	O	-3.998399	-0.123655	-0.416699
O5	O	-4.023705	-0.119706	-0.155375
V6	V	-4.524366	-0.109655	-0.274077
O7	O	-4.305177	-0.159702	-0.325700
O8	O	-4.711192	-0.075279	-0.238618
O9	O	-4.346310	0.012958	-0.275785
O10	O	-4.658107	-0.240420	-0.279890
O11	O	-4.659864	-0.115275	-0.408943
O12	O	-4.344566	-0.111326	-0.147619
C13	C	-3.842285	-0.277821	-0.284026
C14	C	-3.886688	-0.378061	-0.283473
C15	C	-3.863544	-0.412109	-0.198019
C16	C	-3.905287	-0.506296	-0.197502
C17	C	-3.970158	-0.566432	-0.282440
C18	C	-3.993309	-0.532378	-0.367900
C19	C	-3.951581	-0.438193	-0.368417
C20	C	-4.080274	-0.728687	-0.366818
C21	C	-4.122001	-0.822877	-0.366302
C22	C	-4.033980	-0.796789	-0.195904
C23	C	-3.992252	-0.702605	-0.196420
C24	C	-4.015402	-0.668557	-0.281881
C25	C	-3.844509	-0.119283	-0.447513
C26	C	-3.890324	-0.118728	-0.550895
C27	C	-4.058010	-0.116698	-0.929459
C28	C	-4.011346	-0.117263	-0.824131
C29	C	-3.974168	-0.117714	-0.740180
C30	C	-3.927502	-0.118277	-0.634845
C31	C	-4.164022	0.042836	-0.280289
C32	C	-4.098857	0.143074	-0.280849
C33	C	-4.161798	-0.115701	-0.116800
C34	C	-4.095221	-0.116252	-0.013417
H35	H	-4.099162	-0.700970	-0.436410
N36	N	-4.063282	-0.597248	-0.459505
H37	H	-3.951208	-0.583435	-0.493684
H38	H	-4.199361	-0.589663	-0.499932
N39	N	-3.793531	-0.347250	-0.106406
H40	H	-3.785199	-0.383116	-0.052194
H41	H	-3.898345	-0.310724	-0.106061
N42	N	-3.880333	-0.543021	-0.105335
H43	H	-3.832894	-0.490633	-0.051606
H44	H	-3.771672	-0.578406	-0.098248
N45	N	-3.922175	-0.637738	-0.104810
H46	H	-3.913814	-0.673596	-0.050591
H47	H	-4.026956	-0.601198	-0.104448
H48	H	-4.015123	-0.824514	-0.126319
N49	N	-4.191968	-0.887741	-0.457911
H50	H	-4.200318	-0.851883	-0.512128
H51	H	-4.335255	-0.930516	-0.464562
H52	H	-3.970450	-0.410474	-0.438002
