data_functionalizedCrystal
_audit_creation_method	'MofGen! by Chris Wilmer'
_symmetry_space_group_name_H-M	'P1'
_symmetry_Int_Tables_number	1
_symmetry_cell_setting	triclinic
loop_
_symmetry_equiv_pos_as_xyz
  x,y,z
_cell_length_a	21.395364
_cell_length_b	18.215405
_cell_length_c	18.215399
_cell_angle_alpha	90.032960
_cell_angle_beta	90.016682
_cell_angle_gamma	90.039836
loop_
_atom_site_label
_atom_site_type_symbol
_atom_site_fract_x
_atom_site_fract_y
_atom_site_fract_z
Zn1	Zn	0.957836	-0.292681	0.416100
Zn2	Zn	1.457836	0.207319	0.916100
Zn3	Zn	0.957763	-0.415757	0.293028
Zn4	Zn	1.457763	0.084243	0.793028
Zn5	Zn	0.853065	-0.292741	0.293048
Zn6	Zn	1.353065	0.207259	0.793048
Zn7	Zn	0.853031	-0.415742	0.416053
Zn8	Zn	1.353031	0.084258	0.916053
O9	O	0.905424	-0.354230	0.354557
O10	O	1.405424	0.145770	0.854557
O11	O	1.045504	-0.308988	0.399786
O12	O	1.545504	0.191012	0.899786
O13	O	0.943859	-0.399470	0.190046
O14	O	1.443859	0.100530	0.690046
O15	O	0.867008	-0.189749	0.309398
O16	O	1.367008	0.310251	0.809398
O17	O	1.045451	-0.399412	0.309365
O18	O	1.545451	0.100588	0.809365
O19	O	0.943983	-0.189704	0.399805
O20	O	1.443983	0.310296	0.899805
O21	O	0.866938	-0.309091	0.190061
O22	O	1.366938	0.190909	0.690061
O23	O	0.765383	-0.309077	0.309353
O24	O	1.265383	0.190923	0.809353
O25	O	0.866949	-0.399386	0.519044
O26	O	1.366949	0.100614	1.019044
O27	O	0.765357	-0.399445	0.399725
O28	O	1.265357	0.100555	0.899725
O29	O	0.943949	-0.308974	0.519078
O30	O	1.443949	0.191026	1.019078
O31	O	0.943826	-0.518740	0.309320
O32	O	1.443826	-0.018740	0.809320
O33	O	0.866879	-0.518729	0.399706
O34	O	1.366879	-0.018729	0.899706
C35	C	0.742636	-0.354266	0.354537
C36	C	1.242636	0.145734	0.854537
C37	C	0.672995	-0.354299	0.354545
C38	C	1.172995	0.145701	0.854545
C39	C	0.640332	-0.307293	0.401700
C40	C	1.140332	0.192707	0.901700
C41	C	0.574897	-0.307273	0.401703
C42	C	1.074897	0.192727	0.901703
C43	C	0.542127	-0.354273	0.354559
C44	C	1.042127	0.145727	0.854559
C45	C	0.574798	-0.401283	0.307395
C46	C	1.074798	0.098717	0.807395
C47	C	0.640232	-0.401296	0.307388
C48	C	1.140232	0.098704	0.807388
C49	C	0.438409	-0.420550	0.348640
C50	C	0.938409	0.079450	0.848640
C51	C	0.372976	-0.420538	0.348652
C52	C	0.872976	0.079462	0.848652
C53	C	0.340306	-0.354233	0.354575
C54	C	0.840306	0.145767	0.854575
C55	C	0.373077	-0.287937	0.360502
C56	C	0.873077	0.212063	0.860502
C57	C	0.438511	-0.287950	0.360495
C58	C	0.938511	0.212050	0.860495
C59	C	0.471174	-0.354264	0.354560
C60	C	0.971174	0.145736	0.854560
C61	C	0.236690	-0.307201	0.401735
C62	C	0.736690	0.192799	0.901735
C63	C	0.171254	-0.307180	0.401733
C64	C	0.671254	0.192820	0.901733
C65	C	0.171156	-0.401197	0.307429
C66	C	0.671156	0.098803	0.807429
C67	C	0.236591	-0.401211	0.307427
C68	C	0.736591	0.098789	0.807427
C69	C	0.269355	-0.354214	0.354584
C70	C	0.769355	0.145786	0.854584
C71	C	0.905358	-0.545437	0.354522
C72	C	1.405358	-0.045437	0.854522
C73	C	0.905387	-0.627236	0.354531
C74	C	1.405387	-0.127236	0.854531
C75	C	0.945547	-0.815411	0.307554
C76	C	1.445547	-0.315411	0.807554
C77	C	0.945575	-0.892269	0.307572
C78	C	1.445575	-0.392269	0.807572
C79	C	0.865381	-0.892298	0.401613
C80	C	1.365381	-0.392298	0.901613
C81	C	0.865357	-0.815441	0.401599
C82	C	1.365357	-0.315441	0.901599
C83	C	0.905439	-0.776999	0.354565
C84	C	1.405439	-0.276999	0.854565
C85	C	0.905491	-0.930715	0.354597
C86	C	1.405491	-0.430715	0.854597
C87	C	0.905521	-1.014049	0.354617
C88	C	1.405521	-0.514049	0.854617
C89	C	0.905410	-0.693660	0.354546
C90	C	1.405410	-0.193660	0.854546
C91	C	1.068847	-0.354195	0.354578
C92	C	1.568847	0.145805	0.854578
C93	C	1.138488	-0.354180	0.354587
C94	C	1.638488	0.145820	0.854587
C95	C	0.905453	-0.354172	0.546510
C96	C	1.405453	0.145828	1.046510
C97	C	0.905466	-0.354146	0.628309
C98	C	1.405466	0.145854	1.128309
C99	C	0.905507	-0.162277	0.354609
C100	C	1.405507	0.337723	0.854609
C101	C	0.905543	-0.080478	0.354631
C102	C	1.405543	0.419522	0.854631
C103	C	0.905430	-0.354236	0.163351
C104	C	1.405430	0.145764	0.663351
C105	C	0.905539	-0.354054	0.081553
C106	C	1.405539	0.145946	0.581553
C107	C	0.865447	-0.307054	0.816512
C108	C	1.365447	0.192946	1.316512
C109	C	0.865458	-0.307039	0.893370
C110	C	1.365458	0.192961	1.393370
C111	C	0.945560	-0.401151	0.893345
C112	C	1.445560	0.098849	1.393345
C113	C	0.945546	-0.401169	0.816487
C114	C	1.445546	0.098831	1.316487
C115	C	0.905490	-0.354116	0.778073
C116	C	1.405490	0.145884	1.278073
C117	C	0.905515	-0.354084	0.931789
C118	C	1.405515	0.145916	1.431789
C119	C	0.905527	-0.354068	1.015123
C120	C	1.405527	0.145932	1.515123
C121	C	0.905477	-0.354133	0.694734
C122	C	1.405477	0.145867	1.194734
H123	H	0.346479	-0.233945	0.365325
H124	H	0.846479	0.266055	0.865325
H125	H	0.832747	-0.923606	0.439906
H126	H	1.332747	-0.423606	0.939906
H127	H	0.978172	-0.439459	0.924631
H128	H	1.478172	0.060541	1.424631
H129	H	0.832831	-0.268741	0.785237
H130	H	1.332831	0.231259	1.285237
C131	C	0.786287	-0.214010	0.885671
C132	C	1.286287	0.285990	1.385671
C133	C	0.821444	-0.255303	0.935622
C134	C	1.321444	0.244697	1.435622
H135	H	0.759117	-0.182066	0.911757
H136	H	1.259117	0.317934	1.411757
H137	H	0.762303	-0.246085	0.855681
H138	H	1.262303	0.253915	1.355681
H139	H	0.813601	-0.185863	0.855705
H140	H	1.313601	0.314137	1.355705
H141	H	0.794131	-0.283454	0.965584
H142	H	1.294131	0.216546	1.465584
H143	H	0.845431	-0.223224	0.965624
H144	H	1.345431	0.276776	1.465624
H145	H	0.346299	-0.474519	0.343830
H146	H	0.846299	0.025481	0.843830
C147	C	0.230217	-0.214268	0.494950
C148	C	0.730217	0.285732	0.994950
C149	C	0.272709	-0.255539	0.453564
C150	C	0.772709	0.244461	0.953564
H151	H	0.252453	-0.182373	0.526943
H152	H	0.752453	0.317627	1.026943
H153	H	0.204679	-0.246361	0.523040
H154	H	0.704679	0.253639	1.023040
H155	H	0.204708	-0.186071	0.462930
H156	H	0.704708	0.313929	0.962930
H157	H	0.298215	-0.283740	0.485583
H158	H	0.798215	0.216260	0.985583
H159	H	0.298258	-0.223442	0.425472
H160	H	0.798258	0.276558	0.925472
H161	H	0.978155	-0.439496	0.785190
H162	H	1.478155	0.060504	1.285190
H163	H	0.548112	-0.439550	0.269009
H164	H	1.048112	0.060450	0.769009
H165	H	0.978185	-0.784113	0.269257
H166	H	1.478185	-0.284113	0.769257
H167	H	0.144661	-0.268897	0.440131
H168	H	0.644661	0.231103	0.940131
H169	H	0.832695	-0.784164	0.439884
H170	H	1.332695	-0.284164	0.939884
C171	C	1.051704	-0.915758	0.271866
C172	C	1.551704	-0.415758	0.771866
C173	C	0.989682	-0.934463	0.255894
C174	C	1.489682	-0.434463	0.755894
H175	H	1.078940	-0.941796	0.239958
H176	H	1.578940	-0.441796	0.739958
H177	H	1.060841	-0.928316	0.321318
H178	H	1.560841	-0.428316	0.821318
H179	H	1.057395	-0.864476	0.265141
H180	H	1.557395	-0.364476	0.765141
H181	H	0.983990	-0.985745	0.262625
H182	H	1.483990	-0.485745	0.762625
H183	H	0.980541	-0.921910	0.206430
H184	H	1.480541	-0.421910	0.706430
C185	C	0.633851	-0.214356	0.494910
C186	C	1.133851	0.285644	0.994910
C187	C	0.676344	-0.255623	0.453524
C188	C	1.176344	0.244377	0.953524
H189	H	0.656086	-0.182453	0.526898
H190	H	1.156086	0.317547	1.026898
H191	H	0.608319	-0.246450	0.523007
H192	H	1.108319	0.253550	1.023007
H193	H	0.608335	-0.186167	0.462891
H194	H	1.108335	0.313833	0.962891
H195	H	0.701857	-0.283817	0.485543
H196	H	1.201857	0.216183	0.985543
H197	H	0.701887	-0.223525	0.425425
H198	H	1.201887	0.276475	0.925425
H199	H	0.465191	-0.233970	0.365318
H200	H	0.965191	0.266030	0.865318
C201	C	0.070811	-0.442928	0.265572
C202	C	0.570811	0.057072	0.765572
C203	C	0.135143	-0.452864	0.255609
C204	C	0.635143	0.047136	0.755609
H205	H	0.048577	-0.474829	0.233582
H206	H	0.548577	0.025171	0.733582
H207	H	0.060123	-0.393472	0.254888
H208	H	0.560123	0.106528	0.754888
H209	H	0.060102	-0.453756	0.315004
H210	H	0.560102	0.046244	0.815004
H211	H	0.145853	-0.442031	0.206179
H212	H	0.645853	0.057969	0.706179
H213	H	0.145835	-0.502331	0.266288
H214	H	0.645835	-0.002331	0.766288
C215	C	0.501342	-0.297177	0.500717
C216	C	1.001342	0.202823	1.000717
C217	C	0.538980	-0.255605	0.453541
C218	C	1.038980	0.244395	0.953541
H219	H	0.479167	-0.265279	0.532716
H220	H	0.979167	0.234721	1.032716
H221	H	0.526856	-0.329274	0.528802
H222	H	1.026856	0.170726	1.028802
H223	H	0.472469	-0.325163	0.472625
H224	H	0.972469	0.174837	0.972625
H225	H	0.567856	-0.227623	0.481632
H226	H	1.067856	0.272377	0.981632
H227	H	0.513463	-0.223495	0.425454
H228	H	1.013463	0.276505	0.925454
C229	C	0.458491	-0.539122	0.401075
C230	C	0.958491	-0.039122	0.901075
C231	C	0.474320	-0.493437	0.342136
C232	C	0.974320	0.006563	0.842136
H233	H	0.480665	-0.584115	0.397061
H234	H	0.980665	-0.084115	0.897061
H235	H	0.414837	-0.548603	0.400225
H236	H	0.914837	-0.048603	0.900225
H237	H	0.469246	-0.515633	0.445912
H238	H	0.969246	-0.015633	0.945912
H239	H	0.463560	-0.516924	0.297299
H240	H	0.963560	-0.016924	0.797299
H241	H	0.517983	-0.483957	0.342979
H242	H	1.017983	0.016043	0.842979
C243	C	0.229920	-0.494144	0.214222
C244	C	0.729920	0.005856	0.714222
C245	C	0.272499	-0.452891	0.255601
C246	C	0.772499	0.047109	0.755601
H247	H	0.252089	-0.526052	0.182227
H248	H	0.752089	-0.026052	0.682227
H249	H	0.204415	-0.462040	0.186132
H250	H	0.704415	0.037960	0.686132
H251	H	0.204386	-0.522326	0.246245
H252	H	0.704386	-0.022326	0.746245
H253	H	0.298030	-0.424704	0.223577
H254	H	0.798030	0.075296	0.723577
H255	H	0.298014	-0.484999	0.283692
H256	H	0.798014	0.015001	0.783692
H257	H	0.666826	-0.439576	0.268988
H258	H	1.166826	0.060424	0.768988
