data_functionalizedCrystal
_audit_creation_method	'MofGen! by Chris Wilmer'
_symmetry_space_group_name_H-M	'P1'
_symmetry_Int_Tables_number	1
_symmetry_cell_setting	triclinic
loop_
_symmetry_equiv_pos_as_xyz
  x,y,z
_cell_length_a	15.944493
_cell_length_b	16.109301
_cell_length_c	15.186229
_cell_angle_alpha	90.005167
_cell_angle_beta	89.997208
_cell_angle_gamma	96.531738
loop_
_atom_site_label
_atom_site_type_symbol
_atom_site_fract_x
_atom_site_fract_y
_atom_site_fract_z
O1	O	1.114518	-0.106997	-0.073220
O2	O	1.614518	0.393003	0.426780
O3	O	0.869957	-0.120268	-0.073224
O4	O	1.369957	0.379732	0.426776
O5	O	0.998956	0.007397	-0.073213
O6	O	1.498956	0.507397	0.426787
O7	O	0.985519	-0.234663	-0.073231
O8	O	1.485519	0.265337	0.426769
O9	O	0.998947	0.007399	0.073244
O10	O	1.498947	0.507399	0.573244
O11	O	0.869949	-0.120266	0.073233
O12	O	1.369949	0.379734	0.573233
O13	O	1.114509	-0.106996	0.073238
O14	O	1.614509	0.393004	0.573238
Zn15	Zn	0.992228	-0.113631	0.096488
Zn16	Zn	1.492228	0.386369	0.596488
Zn17	Zn	0.992239	-0.113633	-0.096475
Zn18	Zn	1.492239	0.386367	0.403525
O19	O	0.985511	-0.234661	0.073226
O20	O	1.485511	0.265339	0.573226
C21	C	0.838658	-0.119725	0.000004
C22	C	1.338658	0.380275	0.500004
C23	C	0.745410	-0.118099	0.000002
C24	C	1.245410	0.381901	0.500002
C25	C	0.509625	-0.193245	-0.000004
C26	C	1.009625	0.306755	0.499996
C27	C	0.459076	-0.152721	0.072214
C28	C	0.959076	0.347279	0.572214
C29	C	0.574690	-0.115086	0.000004
C30	C	1.074690	0.384914	0.500004
C31	C	0.459089	-0.152704	-0.072181
C32	C	0.959089	0.347296	0.427819
C33	C	0.409781	-0.112181	0.000002
C34	C	0.909781	0.387819	0.500002
C35	C	0.525369	-0.074582	0.072282
C36	C	1.025369	0.425418	0.572282
C37	C	0.525386	-0.074577	-0.072179
C38	C	1.025386	0.425423	0.427821
C39	C	0.474869	-0.033995	0.000057
C40	C	0.974869	0.466005	0.500057
C41	C	0.669689	-0.116761	0.000006
C42	C	1.169689	0.383239	0.500006
C43	C	0.314785	-0.110499	0.000007
C44	C	0.814785	0.389501	0.500007
C45	C	0.998407	0.038373	0.000016
C46	C	1.498407	0.538373	0.500016
C47	C	0.996775	0.130669	0.000017
C48	C	1.496775	0.630669	0.500017
C49	C	1.145808	-0.107539	0.000007
C50	C	1.645808	0.392461	0.500007
C51	C	1.239056	-0.109165	0.000003
C52	C	1.739056	0.390835	0.500003
C53	C	0.986059	-0.265637	-0.000005
C54	C	1.486059	0.234363	0.499995
C55	C	0.987691	-0.357932	-0.000012
C56	C	1.487691	0.142068	0.499988
N57	N	0.992226	-0.113628	0.228181
N58	N	1.492226	0.386372	0.728181
C59	C	1.069526	0.352933	0.000005
C60	C	1.569526	0.852933	0.500005
C61	C	1.067987	0.439653	-0.000003
C62	C	1.567987	0.939653	0.499997
C63	C	0.914934	0.419797	-0.000002
C64	C	1.414934	0.919797	0.499998
C65	C	0.916475	0.333078	-0.000001
C66	C	1.416475	0.833078	0.499999
C67	C	0.993773	0.299648	0.000007
C68	C	1.493773	0.799648	0.500007
C69	C	0.990693	0.473088	-0.000001
C70	C	1.490693	0.973088	0.499999
C71	C	0.989023	0.567114	-0.000009
C72	C	1.489023	1.067114	0.499991
C73	C	0.995444	0.205616	0.000013
C74	C	1.495444	0.705616	0.500013
N75	N	0.992247	-0.113629	-0.228168
N76	N	1.492247	0.386371	0.271832
C77	C	1.049366	-0.057117	0.453909
C78	C	1.549366	0.442883	0.953909
C79	C	1.049369	-0.057115	0.546099
C80	C	1.549369	0.442885	1.046099
C81	C	0.935101	-0.170142	0.546098
C82	C	1.435101	0.329858	1.046098
C83	C	0.935095	-0.170140	0.453910
C84	C	1.435095	0.329860	0.953910
C85	C	0.992232	-0.113628	0.407818
C86	C	1.492232	0.386372	0.907818
C87	C	0.992241	-0.113629	0.592195
C88	C	1.492241	0.386371	1.092195
C89	C	0.992243	-0.113627	0.692152
C90	C	1.492243	0.386373	1.192152
C91	C	0.992229	-0.113629	0.307855
C92	C	1.492229	0.386371	0.807855
H93	H	0.459426	0.033382	0.000104
H94	H	0.959426	0.533382	0.500104
H95	H	0.854784	0.289691	-0.000002
H96	H	1.354784	0.789691	0.499998
N97	N	0.835989	0.453964	0.000009
N98	N	1.335989	0.953964	0.500009
N99	N	0.818060	0.500144	0.061748
N100	N	1.318060	1.000144	0.561748
H101	H	0.762304	0.524275	0.061759
H102	H	1.262304	1.024275	0.561759
N103	N	0.561717	-0.033210	-0.148773
N104	N	1.061717	0.466790	0.351227
N105	N	0.540298	-0.059877	-0.223699
N106	N	1.040298	0.440123	0.276301
H107	H	0.565957	-0.030667	-0.277801
H108	H	1.065957	0.469333	0.222199
H109	H	1.095891	-0.011098	0.583624
H110	H	1.595891	0.488902	1.083624
N111	N	1.145375	0.494070	-0.000011
N112	N	1.645375	0.994070	0.499989
N113	N	1.214381	0.464207	-0.000009
N114	N	1.714381	0.964207	0.499991
H115	H	1.269040	0.502638	-0.000018
H116	H	1.769040	1.002638	0.499982
N117	N	0.529204	-0.277702	0.000087
N118	N	1.029204	0.222298	0.500087
N119	N	0.504931	-0.325417	0.062188
N120	N	1.004931	0.174583	0.562188
H121	H	0.518762	-0.385063	0.062258
H122	H	1.018762	0.114937	0.562258
H123	H	1.095889	-0.011101	0.416383
H124	H	1.595889	0.488899	0.916383
N125	N	0.422781	-0.194139	-0.148760
N126	N	0.922781	0.305861	0.351240
N127	N	0.430700	-0.269494	-0.161613
N128	N	0.930700	0.230506	0.338387
H129	H	0.405059	-0.298764	-0.215694
H130	H	0.905059	0.201236	0.284306
N131	N	1.148474	0.318769	0.000013
N132	N	1.648474	0.818769	0.500013
N133	N	1.166407	0.272600	0.061749
N134	N	1.666407	0.772600	0.561749
H135	H	1.222165	0.248472	0.061754
H136	H	1.722165	0.748472	0.561754
H137	H	0.888566	-0.216158	0.416380
H138	H	1.388566	0.283842	0.916380
N139	N	0.422764	-0.194133	0.148799
N140	N	0.922764	0.305867	0.648799
N141	N	0.430676	-0.269485	0.161661
N142	N	0.930676	0.230515	0.661661
H143	H	0.405034	-0.298738	0.215747
H144	H	0.905034	0.201262	0.715747
N145	N	0.561548	-0.033200	0.148948
N146	N	1.061548	0.466800	0.648948
N147	N	0.639480	-0.027816	0.161336
N148	N	1.139480	0.472184	0.661336
H149	H	0.665034	0.001408	0.215481
H150	H	1.165034	0.501408	0.715481
N151	N	0.876745	-0.227859	0.593195
N152	N	1.376745	0.272141	1.093195
N153	N	0.876757	-0.227855	0.675505
N154	N	1.376757	0.272145	1.175505
H155	H	0.835543	-0.268619	0.708767
H156	H	1.335543	0.231381	1.208767
