data_functionalizedCrystal
_audit_creation_method	'MofGen! by Chris Wilmer'
_symmetry_space_group_name_H-M	'P1'
_symmetry_Int_Tables_number	1
_symmetry_cell_setting	triclinic
loop_
_symmetry_equiv_pos_as_xyz
  x,y,z
_cell_length_a	15.944551
_cell_length_b	15.995292
_cell_length_c	15.021413
_cell_angle_alpha	89.999974
_cell_angle_beta	89.996540
_cell_angle_gamma	83.483678
loop_
_atom_site_label
_atom_site_type_symbol
_atom_site_fract_x
_atom_site_fract_y
_atom_site_fract_z
O1	O	1.114501	0.107982	-0.073945
O2	O	0.869948	0.121296	-0.073968
O3	O	0.998935	-0.007252	-0.073943
O4	O	0.985514	0.236529	-0.073970
O5	O	0.998913	-0.007236	0.074121
O6	O	0.869926	0.121312	0.074096
O7	O	1.114479	0.107998	0.074119
Zn8	Zn	0.992199	0.114657	0.097616
Zn9	Zn	0.992228	0.114636	-0.097465
O10	O	0.985492	0.236545	0.074094
C11	C	0.838643	0.120751	0.000061
C12	C	0.745397	0.119094	0.000053
C13	C	0.998378	-0.038439	0.000090
C14	C	0.996740	-0.131392	0.000094
N15	N	0.992185	0.114671	0.230754
C16	C	0.530563	0.035453	0.000079
C17	C	0.469543	0.074285	-0.072928
C18	C	0.574672	0.116096	0.000064
C19	C	0.469544	0.074320	0.073051
C20	C	0.409760	0.113195	0.000078
C21	C	0.514881	0.154950	-0.073004
C22	C	0.514888	0.154974	0.073041
C23	C	0.453886	0.193865	0.000016
C24	C	0.669674	0.117766	0.000055
C25	C	0.314760	0.111532	0.000081
C26	C	1.145784	0.108542	0.000088
C27	C	1.239029	0.110199	0.000090
C28	C	0.986049	0.267733	0.000059
C29	C	0.987687	0.360686	0.000049
C30	C	0.993707	0.698425	0.000079
C31	C	0.900608	0.675107	0.000398
C32	C	0.898838	0.578432	0.000055
C33	C	0.990720	0.530869	0.000064
C34	C	1.037278	0.559975	-0.084478
C35	C	1.038398	0.656765	-0.084539
C36	C	1.040274	0.656618	0.083838
C37	C	1.036824	0.560125	0.084945
C38	C	0.989036	0.436173	0.000054
C39	C	0.995393	0.793121	0.000083
C40	C	0.933031	0.174580	0.529757
C41	C	0.916056	0.099148	0.470404
C42	C	0.992217	0.114641	0.587790
C43	C	1.009137	0.190086	0.470401
C44	C	0.992199	0.114660	0.412366
C45	C	0.975204	0.039171	0.529744
C46	C	1.068319	0.130159	0.529746
C47	C	1.051375	0.054672	0.470421
C48	C	0.992225	0.114632	0.688848
C49	C	0.992192	0.114661	0.311311
N50	N	0.992234	0.114629	0.769397
H51	H	0.563913	-0.031474	-0.000004
H52	H	1.023468	0.253883	0.444351
H53	H	1.011103	0.684874	0.147921
Cl54	Cl	0.545946	0.207602	0.168330
H55	H	0.851692	0.086029	0.444332
Cl56	Cl	1.143787	0.679240	-0.090428
Cl57	Cl	0.438534	0.021650	0.168345
H58	H	0.864712	0.703105	0.061027
H59	H	0.862369	0.559404	0.060651
H60	H	0.864932	0.704122	-0.059900
H61	H	0.534869	0.189027	-0.134794
Cl62	Cl	0.438523	0.021618	-0.168214
Cl63	Cl	0.402659	0.297299	-0.000056
H64	H	1.002924	0.541555	0.147489
H65	H	0.862182	0.560026	-0.060666
Cl66	Cl	0.987391	0.529006	-0.181636
Cl67	Cl	0.855720	0.252738	0.569985
H68	H	1.103886	0.527156	0.090062
Cl69	Cl	1.141668	0.510781	-0.089326
Cl70	Cl	0.988642	0.698172	-0.182122
H71	H	1.108801	0.670617	0.084421
H72	H	0.960809	-0.024636	0.555702
H73	H	1.101422	0.003937	0.444532
H74	H	1.132663	0.143307	0.555835
