data_functionalizedCrystal
_audit_creation_method	'MofGen! by Chris Wilmer'
_symmetry_space_group_name_H-M	'P1'
_symmetry_Int_Tables_number	1
_symmetry_cell_setting	triclinic
loop_
_symmetry_equiv_pos_as_xyz
  x,y,z
_cell_length_a	8.559649
_cell_length_b	11.295483
_cell_length_c	8.559649
_cell_angle_alpha	86.481942
_cell_angle_beta	69.778664
_cell_angle_gamma	93.526526
loop_
_atom_site_label
_atom_site_type_symbol
_atom_site_fract_x
_atom_site_fract_y
_atom_site_fract_z
O1	O	2.139147	0.099006	-0.067299
O2	O	1.663663	0.099011	0.016482
O3	O	1.943295	0.099007	-0.263151
O4	O	1.859515	0.099010	0.212334
O5	O	1.918739	-0.099043	-0.238624
O6	O	1.639106	-0.099039	0.041009
O7	O	2.114591	-0.099044	-0.042772
Cu8	Cu	1.874606	-0.117125	0.001358
Cu9	Cu	1.903647	0.117092	-0.027648
O10	O	1.834958	-0.099040	0.236861
C11	C	1.591076	-0.000014	0.035094
C12	C	1.411377	-0.000012	0.053993
N13	N	1.854192	-0.281861	0.021757
C14	C	2.071038	-0.531154	-0.194994
C15	C	2.055621	-0.655817	-0.179569
C16	C	1.807936	-0.655854	0.068026
C17	C	1.823353	-0.531190	0.052600
C18	C	1.954909	-0.468845	-0.078913
C19	C	1.970332	-0.344179	-0.094330
C20	C	1.722642	-0.344218	0.153256
C21	C	1.707225	-0.468881	0.168682
C22	C	2.187178	-0.000017	-0.061385
C23	C	2.366878	-0.000011	-0.080285
C24	C	1.937367	-0.000016	-0.311196
C25	C	1.956266	-0.000009	-0.490896
N26	N	1.924076	0.281828	-0.048061
C27	C	1.840887	-0.000014	0.284906
C28	C	1.821988	-0.000013	0.464605
H29	H	1.311989	-0.000004	0.183420
C30	C	2.113224	-0.276701	-0.237277
C31	C	2.211594	-0.357958	-0.335661
C32	C	2.343227	-0.295845	-0.467377
H33	H	2.179786	-0.228055	-0.193404
H34	H	2.069217	-0.228104	-0.303784
H35	H	2.255600	-0.406534	-0.269165
H36	H	2.145081	-0.406606	-0.379575
H37	H	2.299220	-0.247248	-0.533884
H38	H	2.409776	-0.247201	-0.423489
H39	H	2.409978	-0.350968	-0.534155
H40	H	2.150182	-0.706546	-0.274095
C41	C	1.664929	-0.723341	0.210849
C42	C	1.566489	-0.642095	0.309186
C43	C	1.434716	-0.704220	0.440749
H44	H	1.708749	-0.771982	0.277451
H45	H	1.598475	-0.771944	0.166776
H46	H	1.632932	-0.593512	0.353258
H47	H	1.522628	-0.593451	0.242632
H48	H	1.368262	-0.752822	0.396676
H49	H	1.478551	-0.752859	0.507338
H50	H	1.367900	-0.649104	0.507477
H51	H	2.178165	-0.480391	-0.302068
C52	C	1.499337	0.000233	-0.252931
C53	C	1.493660	0.102141	-0.351875
C54	C	1.615681	0.102415	-0.510921
H55	H	1.478715	-0.068750	-0.303428
H56	H	1.606596	0.000297	-0.243204
H57	H	1.386426	0.102067	-0.361608
H58	H	1.514300	0.171141	-0.301431
H59	H	1.722940	0.102479	-0.501194
H60	H	1.595049	0.033427	-0.561401
H61	H	1.611856	0.171563	-0.578069
C62	C	2.128974	0.000170	-0.623252
C63	C	2.227957	0.102051	-0.617511
C64	C	2.387068	0.102249	-0.739394
H65	H	2.119418	0.000224	-0.730562
H66	H	2.179334	-0.068857	-0.602491
H67	H	2.177609	0.171060	-0.638283
H68	H	2.237562	0.102018	-0.510228
H69	H	2.437428	0.033222	-0.718634
H70	H	2.377494	0.102300	-0.846696
H71	H	2.454252	0.171368	-0.735505
H72	H	1.600110	-0.519658	0.275754
H73	H	1.628086	-0.293472	0.247782
H74	H	1.692568	-0.000016	-0.436016
