data_functionalizedCrystal
_audit_creation_method	'MofGen! by Chris Wilmer'
_symmetry_space_group_name_H-M	'P1'
_symmetry_Int_Tables_number	1
_symmetry_cell_setting	triclinic
loop_
_symmetry_equiv_pos_as_xyz
  x,y,z
_cell_length_a	18.215407
_cell_length_b	25.639239
_cell_length_c	18.215399
_cell_angle_alpha	90.038365
_cell_angle_beta	89.983176
_cell_angle_gamma	89.959670
loop_
_atom_site_label
_atom_site_type_symbol
_atom_site_fract_x
_atom_site_fract_y
_atom_site_fract_z
Zn1	Zn	1.124973	0.208137	-0.416075
Zn2	Zn	1.124856	0.295577	-0.292991
Zn3	Zn	1.001912	0.208158	-0.293022
Zn4	Zn	1.001840	0.295544	-0.416016
O5	O	1.063395	0.251854	-0.354526
O6	O	1.227942	0.219742	-0.399759
O7	O	1.108529	0.284003	-0.190011
O8	O	1.018316	0.134990	-0.309383
O9	O	1.227856	0.283983	-0.309330
O10	O	1.108729	0.134975	-0.399789
O11	O	1.018203	0.219777	-0.190034
O12	O	0.898919	0.219745	-0.309326
O13	O	1.018192	0.283927	-0.519008
O14	O	0.898865	0.283947	-0.399689
O15	O	1.108658	0.219710	-0.519051
O16	O	1.108458	0.368738	-0.309273
O17	O	1.018078	0.368714	-0.399659
C18	C	0.872189	0.251845	-0.354505
C19	C	0.790390	0.251854	-0.354514
C20	C	0.602188	0.285337	-0.401507
C21	C	0.525329	0.285338	-0.401516
C22	C	0.525355	0.218381	-0.307562
C23	C	0.602212	0.218377	-0.307557
C24	C	0.640627	0.251858	-0.354528
C25	C	0.486911	0.251864	-0.354542
C26	C	0.403577	0.251865	-0.354552
C27	C	0.723966	0.251856	-0.354520
C28	C	1.063268	0.387697	-0.354473
C29	C	1.063280	0.445811	-0.354475
C30	C	1.110399	0.806128	-0.401703
C31	C	1.110412	0.860732	-0.401719
O32	O	1.150399	0.888929	-0.441807
N33	N	1.063386	0.888093	-0.354617
C34	C	1.016340	0.860848	-0.307500
O35	O	0.976342	0.889135	-0.267438
C36	C	1.016325	0.806245	-0.307488
C37	C	1.063359	0.778886	-0.354588
C38	C	1.157429	0.778769	-0.448800
C39	C	1.157418	0.724168	-0.448782
C40	C	1.110377	0.696927	-0.401667
C41	C	1.063347	0.724285	-0.354570
C42	C	0.969276	0.779000	-0.260375
C43	C	0.969264	0.724393	-0.260367
C44	C	1.016298	0.697034	-0.307467
C45	C	1.016295	0.642443	-0.307438
N46	N	1.063321	0.615081	-0.354540
C47	C	1.110361	0.642323	-0.401655
C48	C	1.016375	0.975518	-0.307531
C49	C	1.016394	1.030121	-0.307539
C50	C	1.110464	1.030001	-0.401759
C51	C	1.110449	0.975398	-0.401747
C52	C	1.063401	0.948157	-0.354633
C53	C	1.110334	0.527658	-0.401613
C54	C	1.110321	0.473053	-0.401589
C55	C	1.016248	0.473177	-0.307372
C56	C	1.016264	0.527778	-0.307393
C57	C	1.063309	0.555017	-0.354520
O58	O	0.976326	0.614211	-0.267373
O59	O	1.150346	0.614030	-0.441717
C60	C	1.255348	0.251864	-0.354548
C61	C	1.337147	0.251868	-0.354557
C62	C	1.063430	0.251813	-0.546479
C63	C	1.063445	0.251795	-0.628278
C64	C	1.063500	1.115481	-0.354604
C65	C	1.063432	1.057367	-0.354657
C66	C	1.016452	0.218330	-0.816485
C67	C	1.016465	0.218319	-0.893344
C68	C	1.110526	0.285198	-0.893309
C69	C	1.110509	0.285210	-0.816452
C70	C	1.063473	0.251773	-0.778042
C71	C	1.063503	0.251750	-0.931758
C72	C	1.063517	0.251739	-1.015092
C73	C	1.063458	0.251785	-0.694703
C74	C	1.063403	0.251858	-0.163320
C75	C	1.063531	0.251729	-0.081522
H76	H	1.148624	0.450779	-0.439944
H77	H	1.148822	0.312420	-0.924592
H78	H	0.633462	0.312598	-0.439755
C79	C	1.162236	0.322001	-0.774158
C80	C	1.213981	0.358776	-0.816405
C81	C	1.265703	0.395566	-0.774111
C82	C	1.265680	0.395581	-0.689571
C83	C	1.213934	0.358805	-0.647320
C84	C	1.162212	0.322015	-0.689614
H85	H	1.213999	0.358766	-0.878991
H86	H	1.304009	0.422790	-0.805388
H87	H	1.303968	0.422815	-0.658262
H88	H	1.213916	0.358815	-0.584734
H89	H	1.123906	0.294790	-0.658336
H90	H	0.977950	0.450988	-0.269009
C91	C	1.162088	0.557616	-0.453448
C92	C	1.245750	0.550054	-0.447509
C93	C	1.297507	0.580013	-0.499339
C94	C	1.265602	0.617532	-0.557108
C95	C	1.181935	0.625096	-0.563050
C96	C	1.130179	0.595138	-0.511220
H97	H	1.269372	0.522279	-0.404743
H98	H	1.359442	0.574413	-0.494940
H99	H	1.303915	0.639709	-0.595476
H100	H	1.158313	0.652872	-0.605816
H101	H	1.068243	0.600737	-0.515618
C102	C	0.644500	0.181550	-0.255874
C103	C	0.633988	0.122118	-0.262032
C104	C	0.676275	0.085291	-0.210352
C105	C	0.729073	0.107897	-0.152514
C106	C	0.739587	0.167332	-0.146353
C107	C	0.697300	0.204159	-0.198033
H108	H	0.594902	0.105381	-0.304850
H109	H	0.668492	0.041293	-0.214914
H110	H	0.760376	0.080636	-0.114258
H111	H	0.778673	0.184069	-0.103536
H112	H	0.705083	0.248157	-0.193472
H113	H	0.930949	0.702216	-0.222002
C114	C	0.483046	0.322167	-0.453191
C115	C	0.525303	0.358992	-0.504856
C116	C	0.483021	0.395821	-0.556535
C117	C	0.398481	0.395825	-0.556549
C118	C	0.356218	0.358999	-0.504882
C119	C	0.398501	0.322170	-0.453203
H120	H	0.587889	0.358990	-0.504848
H121	H	0.514306	0.423082	-0.594783
H122	H	0.367180	0.423089	-0.594805
H123	H	0.293633	0.359001	-0.504891
H124	H	0.367215	0.294909	-0.414956
H125	H	0.494069	0.191123	-0.269319
H126	H	1.195714	0.701896	-0.487137
H127	H	1.195735	0.800943	-0.487171
H128	H	1.148747	0.953126	-0.440100
H129	H	0.978102	1.052392	-0.269177
C130	C	1.162208	1.059973	-0.453592
C131	C	1.220012	1.097497	-0.421765
C132	C	1.271754	1.127470	-0.473593
C133	C	1.265692	1.119918	-0.557248
C134	C	1.207887	1.082392	-0.589079
C135	C	1.156145	1.052419	-0.537251
H136	H	1.224500	1.103090	-0.359835
H137	H	1.314545	1.155250	-0.450029
H138	H	1.303995	1.142105	-0.595614
H139	H	1.203398	1.076800	-0.651009
H140	H	1.113353	1.024639	-0.560814
H141	H	0.978065	0.953342	-0.269159
H142	H	0.977971	0.550054	-0.269034
C143	C	0.917526	0.809082	-0.208570
C144	C	0.923564	0.801615	-0.124912
C145	C	0.871806	0.831695	-0.073107
C146	C	0.814012	0.869243	-0.104960
C147	C	0.807972	0.876712	-0.188623
C148	C	0.859729	0.846632	-0.240428
H149	H	0.966349	0.773819	-0.101329
H150	H	0.876278	0.826166	-0.011174
H151	H	0.775698	0.891510	-0.066611
H152	H	0.765187	0.904508	-0.212206
H153	H	0.855258	0.852161	-0.302361
C154	C	0.964708	0.181554	-0.774233
C155	C	0.912983	0.144769	-0.816523
C156	C	0.861236	0.107993	-0.774274
C157	C	0.861214	0.108003	-0.689733
C158	C	0.912942	0.144790	-0.647438
C159	C	0.964689	0.181565	-0.689688
H160	H	0.912997	0.144760	-0.879109
H161	H	0.822944	0.080762	-0.805584
H162	H	0.822908	0.080780	-0.658458
H163	H	0.912927	0.144799	-0.584852
H164	H	1.002981	0.208797	-0.658378
C165	C	0.964743	0.181528	-0.935630
C166	C	0.881075	0.185790	-0.925049
C167	C	0.829350	0.148997	-0.967335
C168	C	0.861294	0.107942	-1.020202
C169	C	0.944966	0.103679	-1.030786
C170	C	0.996691	0.140471	-0.988500
H171	H	0.857425	0.216182	-0.885911
H172	H	0.767410	0.152153	-0.959499
H173	H	0.823004	0.080706	-1.051505
H174	H	0.968617	0.073286	-1.069924
H175	H	1.058631	0.137315	-0.996336
