data_functionalizedCrystal
_audit_creation_method	'MofGen! by Chris Wilmer'
_symmetry_space_group_name_H-M	'P1'
_symmetry_Int_Tables_number	1
_symmetry_cell_setting	triclinic
loop_
_symmetry_equiv_pos_as_xyz
  x,y,z
_cell_length_a	15.298708
_cell_length_b	16.120444
_cell_length_c	15.296720
_cell_angle_alpha	101.987061
_cell_angle_beta	107.326883
_cell_angle_gamma	102.067954
loop_
_atom_site_label
_atom_site_type_symbol
_atom_site_fract_x
_atom_site_fract_y
_atom_site_fract_z
Zn1	Zn	1.319515	-0.167170	-0.291254
Zn2	Zn	1.338850	-0.279830	-0.143239
Zn3	Zn	1.190927	-0.167225	-0.162638
Zn4	Zn	1.152537	-0.339399	-0.329497
O5	O	1.250457	-0.238406	-0.231657
O6	O	1.453867	-0.157161	-0.247496
O7	O	1.343386	-0.239986	-0.014037
O8	O	1.215959	-0.048014	-0.171813
O9	O	1.468072	-0.239932	-0.138750
O10	O	1.310432	-0.047973	-0.266306
O11	O	1.234707	-0.157256	-0.028289
O12	O	1.054047	-0.215018	-0.208896
O13	O	1.150529	-0.341459	-0.456199
O14	O	1.025842	-0.341513	-0.331486
O15	O	1.273207	-0.214923	-0.428102
O16	O	1.306161	-0.406937	-0.175832
O17	O	1.169277	-0.450702	-0.312675
C18	C	1.005774	-0.284736	-0.276446
C19	C	0.901091	-0.304581	-0.295631
C20	C	0.664597	-0.096829	-0.094785
C21	C	0.762951	-0.078179	-0.076760
C22	C	0.797491	-0.134778	-0.131476
C23	C	0.733667	-0.210030	-0.204220
C24	C	0.635303	-0.228678	-0.222251
C25	C	0.768197	-0.266627	-0.258943
C26	C	0.704373	-0.341879	-0.331687
C27	C	0.606018	-0.360524	-0.349714
C28	C	0.571478	-0.303925	-0.294999
C29	C	0.866561	-0.247979	-0.240912
C30	C	0.837267	-0.379828	-0.368378
C31	C	0.738913	-0.398478	-0.386403
C32	C	1.235673	-0.459726	-0.246314
C33	C	1.229429	-0.554398	-0.252601
C34	C	1.283043	-0.748215	-0.199207
C35	C	1.218044	-0.727714	-0.264085
C36	C	1.224381	-0.631272	-0.257693
C37	C	1.276708	-0.844666	-0.205597
C38	C	1.496096	-0.191896	-0.186693
C39	C	1.600773	-0.172076	-0.167532
C40	C	1.205428	-0.284829	-0.477274
C41	C	1.186240	-0.304612	-0.581941
C42	C	1.265321	-0.016221	-0.216958
C43	C	1.271655	0.078462	-0.210694
C44	C	1.387645	-0.096859	-0.818466
C45	C	1.405680	-0.078272	-0.720125
C46	C	1.350821	-0.134855	-0.685574
C47	C	1.277926	-0.210029	-0.749374
C48	C	1.259894	-0.228621	-0.847724
C49	C	1.223070	-0.266618	-0.714832
C50	C	1.150174	-0.341791	-0.778632
C51	C	1.132146	-0.360380	-0.876973
C52	C	1.187005	-0.303797	-0.911524
C53	C	1.241101	-0.248025	-0.616482
C54	C	1.113350	-0.379788	-0.645740
C55	C	1.095316	-0.398374	-0.744082
C56	C	1.295369	-0.192092	0.013019
C57	C	1.314756	-0.172034	0.117735
H58	H	0.554053	-0.421794	-0.408954
H59	H	0.865388	-0.425914	-0.412936
Br60	Br	1.383717	-0.656751	-0.098634
Br61	Br	1.504607	0.023743	-0.633546
Br62	Br	1.117361	-0.819179	-0.364662
H63	H	1.300453	-0.186818	-0.564545
Br64	Br	0.849562	0.023950	0.021951
Br65	Br	1.162535	-0.329022	-1.044991
H66	H	1.365509	-0.119718	-0.605499
H67	H	1.432308	-0.050801	-0.846607
H68	H	1.072797	-0.421597	-0.928916
H69	H	0.636463	-0.050751	-0.050248
Br70	Br	0.996388	-0.500392	-0.830677
Br71	Br	0.652286	-0.500608	-0.485117
Br72	Br	0.953168	-0.145854	-0.142192
Br73	Br	0.437992	-0.329231	-0.319461
H74	H	0.877577	-0.119588	-0.116797
Br75	Br	1.038902	-0.456590	-0.598858
