data_functionalizedCrystal
_audit_creation_method	'MofGen! by Chris Wilmer'
_symmetry_space_group_name_H-M	'P1'
_symmetry_Int_Tables_number	1
_symmetry_cell_setting	triclinic
loop_
_symmetry_equiv_pos_as_xyz
  x,y,z
_cell_length_a	12.759401
_cell_length_b	29.839131
_cell_length_c	12.759393
_cell_angle_alpha	89.961905
_cell_angle_beta	89.982620
_cell_angle_gamma	90.041581
loop_
_atom_site_label
_atom_site_type_symbol
_atom_site_fract_x
_atom_site_fract_y
_atom_site_fract_z
Zn1	Zn	1.606049	-0.178824	-0.593935
Zn2	Zn	1.605865	-0.253963	-0.418236
Zn3	Zn	1.430354	-0.178848	-0.418275
Zn4	Zn	1.430257	-0.253928	-0.593877
O5	O	1.518131	-0.216391	-0.506081
O6	O	1.753045	-0.188796	-0.570636
O7	O	1.582546	-0.244023	-0.271220
O8	O	1.453778	-0.115978	-0.441617
O9	O	1.752910	-0.244000	-0.441551
O10	O	1.582860	-0.115960	-0.570674
O11	O	1.453599	-0.188837	-0.271248
O12	O	1.283320	-0.188803	-0.441561
O13	O	1.453613	-0.243941	-0.740906
O14	O	1.283249	-0.243964	-0.570575
O15	O	1.582766	-0.188762	-0.740949
O16	O	1.582452	-0.316825	-0.441495
O17	O	1.453435	-0.316800	-0.570538
C18	C	1.245164	-0.216382	-0.506066
C19	C	1.128387	-0.216390	-0.506085
C20	C	1.073516	-0.245158	-0.573152
C21	C	0.963792	-0.245164	-0.573163
C22	C	0.963820	-0.187631	-0.439032
C23	C	1.073542	-0.187624	-0.439027
C24	C	1.128361	-0.273924	-0.640210
C25	C	1.073489	-0.302695	-0.707282
C26	C	0.963765	-0.302701	-0.707293
C27	C	0.908912	-0.273935	-0.640233
C28	C	1.517942	-0.333113	-0.506029
C29	C	1.517956	-0.383048	-0.506041
C30	C	1.585433	-0.692692	-0.438986
C31	C	1.585563	-0.880365	-0.439027
O32	O	1.642783	-0.904630	-0.381974
N33	N	1.518349	-0.903833	-0.506160
C34	C	1.451103	-0.880379	-0.573292
O35	O	1.393945	-0.904647	-0.630402
C36	C	1.450980	-0.692707	-0.573256
C37	C	1.518190	-0.669242	-0.506111
C38	C	1.652639	-0.669226	-0.371848
C39	C	1.652602	-0.622311	-0.371834
C40	C	1.585359	-0.598861	-0.438959
C41	C	1.518153	-0.622326	-0.506098
C42	C	1.383740	-0.669255	-0.640393
C43	C	1.383717	-0.622334	-0.640380
C44	C	1.450927	-0.598868	-0.573235
C45	C	1.450873	-0.551961	-0.573209
N46	N	1.518086	-0.528493	-0.506076
C47	C	1.585329	-0.551943	-0.438951
C48	C	1.451171	-0.978910	-0.573305
C49	C	1.451201	-1.025828	-0.573313
C50	C	1.585662	-1.025810	-0.439049
C51	C	1.585626	-0.978891	-0.439036
C52	C	1.518385	-0.955442	-0.506172
C53	C	1.585246	-0.453417	-0.438927
C54	C	1.585199	-0.406498	-0.438916
C55	C	1.450743	-0.406520	-0.573184
C56	C	1.450784	-0.453435	-0.573191
C57	C	1.518044	-0.476883	-0.506059
O58	O	1.393691	-0.527667	-0.630240
O59	O	1.642496	-0.527668	-0.381867
C60	C	1.585470	-0.739607	-0.439000
C61	C	1.518264	-0.763073	-0.506138
C62	C	1.451021	-0.739623	-0.573263
C63	C	1.518294	-0.809991	-0.506146
C64	C	1.585537	-0.833440	-0.439021
C65	C	1.652750	-0.809972	-0.371888
C66	C	1.652713	-0.763057	-0.371875
C67	C	1.383808	-0.763091	-0.640396
C68	C	1.383850	-0.810006	-0.640404
C69	C	1.451093	-0.833456	-0.573279
C70	C	1.792164	-0.216399	-0.506096
C71	C	1.908941	-0.216403	-0.506102
C72	C	1.518199	-0.216345	-0.780114
C73	C	1.518229	-0.216325	-0.896891
C74	C	1.518350	-0.099212	-0.506156
C75	C	1.518444	-0.049278	-0.506188
C76	C	1.451114	-0.187584	-0.951774
C77	C	1.451146	-0.187571	-1.061498
C78	C	1.585415	-0.245041	-1.061447
C79	C	1.585377	-0.245056	-0.951725
C80	C	1.383966	-0.158854	-0.896940
C81	C	1.316847	-0.130110	-0.951823
C82	C	1.316879	-0.130097	-1.061547
C83	C	1.384029	-0.158827	-1.116388
C84	C	1.518124	-0.216404	-0.233113
C85	C	1.518298	-0.216297	-0.116337
H86	H	0.919091	-0.326124	-0.761913
C87	C	1.726716	-0.835776	-0.298049
N88	N	1.782428	-0.855214	-0.242441
H89	H	1.395991	-0.387419	-0.627834
C90	C	1.309744	-0.596543	-0.714237
N91	N	1.254026	-0.577118	-0.769865
H92	H	1.396413	-0.959821	-0.627977
C93	C	1.659635	-1.051613	-0.365216
N94	N	1.715355	-1.071051	-0.309615
C95	C	0.788212	-0.273943	-0.640250
N96	N	0.697302	-0.273951	-0.640260
H97	H	1.707333	-0.603208	-0.317162
H98	H	1.640088	-0.268431	-1.106107
C99	C	1.249059	-0.273931	-0.640178
N100	N	1.339969	-0.273941	-0.640143
C101	C	1.376846	-0.479248	-0.647050
N102	N	1.321163	-0.498687	-0.702690
H103	H	1.262170	-0.106721	-0.907164
H104	H	1.707442	-0.743955	-0.317199
C105	C	1.243048	-0.098478	-1.121915
N106	N	1.187441	-0.074660	-1.167383
C107	C	0.903478	-0.155994	-0.365265
N108	N	0.858029	-0.132166	-0.309700
C109	C	1.659199	-0.276676	-0.891350
N110	N	1.714799	-0.300495	-0.845876
C111	C	1.133905	-0.155979	-0.365246
N112	N	1.179369	-0.132142	-0.309675
H113	H	1.329052	-0.744001	-0.695059
H114	H	1.118157	-0.326112	-0.761886
H115	H	1.639930	-0.387393	-0.384235
C116	C	1.309805	-0.695057	-0.714262
N117	N	1.254114	-0.714490	-0.769907
C118	C	1.726612	-0.695014	-0.297992
N119	N	1.782327	-0.714434	-0.242352
C120	C	1.383923	-0.158866	-0.776242
N121	N	1.383892	-0.158876	-0.685331
C122	C	1.309906	-0.835813	-0.714272
N123	N	1.254219	-0.855249	-0.769915
H124	H	1.640355	-0.959788	-0.384362
C125	C	1.659229	-0.479203	-0.365072
N126	N	1.714947	-0.498624	-0.309438
C127	C	1.377254	-1.051635	-0.647168
N128	N	1.321559	-1.071071	-0.702802
C129	C	1.384058	-0.158811	-1.237089
N130	N	1.384084	-0.158797	-1.327999
