data_functionalizedCrystal
_audit_creation_method	'MofGen! by Chris Wilmer'
_symmetry_space_group_name_H-M	'P1'
_symmetry_Int_Tables_number	1
_symmetry_cell_setting	triclinic
loop_
_symmetry_equiv_pos_as_xyz
  x,y,z
_cell_length_a	16.992694
_cell_length_b	15.944551
_cell_length_c	15.455313
_cell_angle_alpha	92.664316
_cell_angle_beta	87.142206
_cell_angle_gamma	87.083481
loop_
_atom_site_label
_atom_site_type_symbol
_atom_site_fract_x
_atom_site_fract_y
_atom_site_fract_z
O1	O	1.043832	0.174669	-0.072025
O2	O	0.815548	0.172714	-0.072051
O3	O	0.935924	0.051836	-0.072029
O4	O	0.923457	0.295548	-0.072046
O5	O	0.929040	0.058718	0.072232
O6	O	0.808664	0.179596	0.072210
O7	O	1.036949	0.181551	0.072236
Cu8	Cu	0.922178	0.181202	0.085395
Cu9	Cu	0.930319	0.173063	-0.085210
O10	O	0.916573	0.302430	0.072215
C11	C	0.782894	0.173641	0.000077
C12	C	0.695850	0.166141	0.000067
C13	C	0.645613	0.238506	0.000063
C14	C	0.563826	0.231454	0.000075
C15	C	0.532276	0.152037	0.000086
C16	C	0.582519	0.079667	0.000093
C17	C	0.664305	0.086719	0.000087
C18	C	0.288676	0.122807	0.000111
C19	C	0.206884	0.115760	0.000115
C20	C	0.188196	0.267548	0.000099
C21	C	0.269984	0.274593	0.000087
C22	C	0.320220	0.202223	0.000099
N23	N	0.448677	0.144827	0.000096
N24	N	0.403817	0.209434	0.000095
C25	C	0.931964	0.023948	0.000101
C26	C	0.930413	-0.069402	0.000102
C27	C	0.852089	-0.289513	0.000081
C28	C	0.885066	-0.344697	0.071214
C29	C	0.927606	-0.240317	0.000095
C30	C	0.891871	-0.351465	-0.071016
C31	C	0.924889	-0.405412	0.000084
C32	C	0.960600	-0.294269	0.071287
C33	C	0.967397	-0.301034	-0.071007
C34	C	1.000428	-0.356196	0.000144
C35	C	0.929168	-0.145209	0.000101
C36	C	0.923332	-0.500518	0.000084
C37	C	1.069603	0.180624	0.000107
C38	C	1.156647	0.188124	0.000110
C39	C	0.920532	0.330318	0.000082
C40	C	0.922084	0.423668	0.000076
N41	N	0.916458	0.186926	0.205390
N42	N	0.936045	0.167333	-0.205204
C43	C	0.967616	0.135594	0.250793
C44	C	0.963297	0.139932	0.341600
C45	C	0.907824	0.195606	0.387002
C46	C	0.856661	0.246940	0.341593
C47	C	0.860976	0.242598	0.250787
C48	C	0.889197	0.214325	0.658581
C49	C	0.884887	0.218665	0.749392
C50	C	0.991523	0.111655	0.749393
C51	C	0.995836	0.107321	0.658586
C52	C	0.944671	0.158653	0.613185
N53	N	0.903410	0.200042	0.479822
N54	N	0.949081	0.154211	0.520367
H55	H	0.556825	0.015004	0.000114
O56	O	0.300529	0.351786	-0.000041
C57	C	0.278415	0.392644	-0.074772
H58	H	0.222881	0.364738	-0.099668
H59	H	0.266253	0.462632	-0.057982
H60	H	0.328228	0.383601	-0.127095
H61	H	0.989641	-0.269266	0.131491
H62	H	0.847537	0.256123	0.621622
O63	O	0.802843	0.301002	0.385828
C64	C	0.809991	0.293816	0.475712
H65	H	0.871738	0.267239	0.488111
H66	H	0.799629	0.358487	0.510210
H67	H	0.764388	0.249913	0.501498
O68	O	1.075318	-0.390623	0.000082
C69	C	1.118833	-0.367309	-0.074256
H70	H	1.090571	-0.307160	-0.098810
H71	H	1.182052	-0.356143	-0.057086
H72	H	1.119066	-0.419769	-0.126982
O73	O	1.008783	-0.277914	-0.142832
C74	C	0.972346	-0.307023	-0.217685
H75	H	0.907607	-0.317263	-0.200651
H76	H	0.976725	-0.258430	-0.269301
H77	H	1.003241	-0.368912	-0.243634
O78	O	0.830920	0.272761	0.793363
C79	C	0.786694	0.317148	0.733820
H80	H	0.788888	0.279559	0.669095
H81	H	0.722831	0.326958	0.760067
H82	H	0.812598	0.380817	0.724151
H83	H	0.147286	0.326467	0.000091
O84	O	0.843666	-0.367875	0.143011
C85	C	0.893262	-0.417949	0.192600
H86	H	0.957429	-0.404234	0.176715
H87	H	0.878249	-0.402894	0.264541
H88	H	0.884213	-0.487208	0.176646
H89	H	0.705207	0.027792	0.000090
O90	O	1.049744	0.053163	0.614619
C91	C	1.093985	0.008800	0.674167
H92	H	1.058764	0.008766	0.738901
H93	H	1.107194	-0.058725	0.647939
H94	H	1.151772	0.040482	0.683810
H95	H	1.012791	0.090262	0.213832
H96	H	0.862790	-0.376554	-0.131158
H97	H	1.004953	0.098132	0.378567
H98	H	1.033179	0.069863	0.786368
H99	H	0.819318	0.284397	0.213821
H100	H	0.671294	0.303176	0.000054
H101	H	0.522926	0.290381	0.000071
O102	O	0.777256	-0.254920	0.000192
C103	C	0.723319	-0.319248	0.000990
H104	H	0.751917	-0.377706	0.028663
H105	H	0.668418	-0.297232	0.042967
H106	H	0.706007	-0.334822	-0.068015
O107	O	0.176365	0.038546	0.000163
C108	C	0.238241	-0.023819	0.000149
H109	H	0.292502	0.004755	0.027461
H110	H	0.219147	-0.076935	0.042035
H111	H	0.253110	-0.049707	-0.069058
H112	H	0.329568	0.063878	0.000121
