data_functionalizedCrystal
_audit_creation_method	'MofGen! by Chris Wilmer'
_symmetry_space_group_name_H-M	'P1'
_symmetry_Int_Tables_number	1
_symmetry_cell_setting	triclinic
loop_
_symmetry_equiv_pos_as_xyz
  x,y,z
_cell_length_a	19.121215
_cell_length_b	19.121063
_cell_length_c	19.120915
_cell_angle_alpha	94.738654
_cell_angle_beta	89.875521
_cell_angle_gamma	95.002544
loop_
_atom_site_label
_atom_site_type_symbol
_atom_site_fract_x
_atom_site_fract_y
_atom_site_fract_z
Zn1	Zn	1.043541	-0.254502	-0.452591
Zn2	Zn	1.376874	0.078831	-0.119258
Zn3	Zn	1.710208	0.412164	0.214075
Zn4	Zn	1.043458	-0.367158	-0.339939
Zn5	Zn	1.376791	-0.033825	-0.006606
Zn6	Zn	1.710125	0.299508	0.326728
Zn7	Zn	0.931330	-0.254088	-0.330340
Zn8	Zn	1.264664	0.079245	0.002993
Zn9	Zn	1.597997	0.412578	0.336327
Zn10	Zn	0.920819	-0.377138	-0.452526
Zn11	Zn	1.254152	-0.043804	-0.119193
Zn12	Zn	1.587486	0.289529	0.214140
O13	O	0.984787	-0.313222	-0.393849
O14	O	1.318120	0.020112	-0.060516
O15	O	1.651454	0.353445	0.272818
O16	O	1.141815	-0.265443	-0.441692
O17	O	1.475149	0.067890	-0.108359
O18	O	1.808482	0.401223	0.224975
O19	O	1.032948	-0.347810	-0.240385
O20	O	1.366282	-0.014477	0.092949
O21	O	1.699615	0.318857	0.426282
O22	O	0.950649	-0.155500	-0.342567
O23	O	1.283982	0.177833	-0.009233
O24	O	1.617316	0.511167	0.324100
O25	O	1.141754	-0.348211	-0.358927
O26	O	1.475088	-0.014878	-0.025593
O27	O	1.808421	0.318455	0.307740
O28	O	1.033090	-0.155804	-0.432384
O29	O	1.366423	0.177529	-0.099051
O30	O	1.699756	0.510863	0.234283
O31	O	0.950569	-0.264738	-0.233332
O32	O	1.283902	0.068595	0.100001
O33	O	1.617235	0.401929	0.433334
O34	O	0.831651	-0.274414	-0.342504
O35	O	1.164984	0.058919	-0.009170
O36	O	1.498317	0.392252	0.324163
O37	O	0.932734	-0.365219	-0.550816
O38	O	1.266067	-0.031886	-0.217483
O39	O	1.599401	0.301447	0.115851
O40	O	0.823928	-0.364818	-0.432274
O41	O	1.157261	-0.031485	-0.098940
O42	O	1.490595	0.301849	0.234393
O43	O	1.022897	-0.275120	-0.550864
O44	O	1.356230	0.058214	-0.217530
O45	O	1.689564	0.391547	0.115803
O46	O	1.022756	-0.467126	-0.358864
O47	O	1.356089	-0.133792	-0.025531
O48	O	1.689423	0.199541	0.307803
O49	O	0.932654	-0.474457	-0.441582
O50	O	1.265987	-0.141124	-0.108248
O51	O	1.599320	0.192209	0.225085
C52	C	0.802305	-0.320655	-0.386341
C53	C	1.135638	0.012679	-0.053007
C54	C	1.468972	0.346012	0.280326
C55	C	0.724237	-0.323852	-0.383146
C56	C	1.057570	0.009481	-0.049812
C57	C	1.390903	0.342814	0.283521
C58	C	0.282696	-0.344096	-0.362934
C59	C	0.616030	-0.010762	-0.029601
C60	C	0.949363	0.322571	0.303732
C61	C	0.356050	-0.341087	-0.365931
C62	C	0.689383	-0.007754	-0.032597
C63	C	1.022717	0.325580	0.300736
C64	C	0.392754	-0.296567	-0.410597
C65	C	0.726087	0.036766	-0.077263
C66	C	1.059421	0.370100	0.256070
C67	C	0.356101	-0.255048	-0.452263
C68	C	0.689434	0.078286	-0.118930
C69	C	1.022768	0.411619	0.214403
C70	C	0.282749	-0.258053	-0.449263
C71	C	0.616082	0.075281	-0.115930
C72	C	0.949416	0.408614	0.217404
C73	C	0.614232	-0.285338	-0.421812
C74	C	0.947565	0.047995	-0.088479
C75	C	1.280898	0.381329	0.244854
C76	C	0.687589	-0.282337	-0.424811
C77	C	1.020922	0.050996	-0.091478
C78	C	1.354255	0.384329	0.241856
C79	C	0.687533	-0.368376	-0.338477
C80	C	1.020866	-0.035043	-0.005144
C81	C	1.354199	0.298290	0.328190
C82	C	0.614179	-0.371381	-0.335484
C83	C	0.947512	-0.038047	-0.002150
C84	C	1.280846	0.295286	0.331183
C85	C	0.577533	-0.329859	-0.377148
C86	C	0.910866	0.003475	-0.043814
C87	C	1.244199	0.336808	0.289519
C88	C	0.467733	-0.293493	-0.413662
C89	C	0.801067	0.039841	-0.080329
C90	C	1.134400	0.373174	0.253005
C91	C	0.502555	-0.332930	-0.374078
C92	C	0.835888	0.000404	-0.040745
C93	C	1.169222	0.333737	0.292588
C94	C	0.976573	-0.496369	-0.401274
C95	C	1.309907	-0.163035	-0.067940
C96	C	1.643240	0.170298	0.265393
C97	C	0.973123	-0.574718	-0.404476
C98	C	1.306456	-0.241385	-0.071143
C99	C	1.639790	0.091949	0.262191
C100	C	1.018447	-0.607686	-0.362952
C101	C	1.351780	-0.274353	-0.029619
C102	C	1.685113	0.058980	0.303714
C103	C	1.015205	-0.681304	-0.365968
C104	C	1.348539	-0.347971	-0.032635
C105	C	1.681872	-0.014638	0.300698
C106	C	0.966636	-0.721952	-0.410505
C107	C	1.299970	-0.388619	-0.077172
C108	C	1.633303	-0.055286	0.256162
C109	C	0.921311	-0.688979	-0.452033
C110	C	1.254644	-0.355646	-0.118700
C111	C	1.587977	-0.022312	0.214634
C112	C	0.924556	-0.615363	-0.449020
C113	C	1.257889	-0.282029	-0.115687
C114	C	1.591223	0.051304	0.217646
C115	C	0.954492	-0.944419	-0.421758
C116	C	1.287826	-0.611085	-0.088424
C117	C	1.621159	-0.277752	0.244909
C118	C	0.951249	-1.018040	-0.424766
C119	C	1.284583	-0.684707	-0.091433
C120	C	1.617916	-0.351374	0.241901
C121	C	1.045145	-1.010360	-0.338702
C122	C	1.378478	-0.677027	-0.005369
C123	C	1.711812	-0.343694	0.327965
C124	C	1.048383	-0.936743	-0.335690
C125	C	1.381716	-0.603409	-0.002357
C126	C	1.715050	-0.270076	0.330977
C127	C	1.003060	-0.903776	-0.377221
C128	C	1.336393	-0.570442	-0.043888
C129	C	1.669727	-0.237109	0.289446
C130	C	0.963321	-0.797202	-0.413587
C131	C	1.296654	-0.463868	-0.080254
C132	C	1.629987	-0.130535	0.253079
C133	C	1.006380	-0.828528	-0.374142
C134	C	1.339713	-0.495194	-0.040808
C135	C	1.673046	-0.161861	0.292525
C136	C	1.167982	-0.305760	-0.401387
C137	C	1.501315	0.027573	-0.068054
C138	C	1.834648	0.360906	0.265279
C139	C	1.246048	-0.302581	-0.404600
C140	C	1.579382	0.030753	-0.071266
C141	C	1.912715	0.364086	0.262067
C142	C	0.976652	-0.321329	-0.577035
C143	C	1.309986	0.012004	-0.243702
C144	C	1.643319	0.345338	0.089631
C145	C	0.973186	-0.324784	-0.655099
C146	C	1.306519	0.008550	-0.321765
C147	C	1.639852	0.341883	0.011568
C148	C	0.993051	-0.129360	-0.386412
C149	C	1.326385	0.203974	-0.053078
C150	C	1.659718	0.537307	0.280255
C151	C	0.996573	-0.051009	-0.383242
C152	C	1.329906	0.282325	-0.049909
C153	C	1.663240	0.615658	0.283424
C154	C	0.951229	-0.346716	-1.096608
C155	C	1.284563	-0.013382	-0.763275
C156	C	1.617896	0.319951	-0.429942
C157	C	0.954484	-0.343459	-1.023259
C158	C	1.287818	-0.010126	-0.689926
C159	C	1.621151	0.323208	-0.356593
C160	C	1.003058	-0.294925	-0.986613
C161	C	1.336392	0.038409	-0.653280
C162	C	1.669725	0.371742	-0.319947
C163	C	1.048375	-0.249639	-1.023320
C164	C	1.381709	0.083694	-0.689986
C165	C	1.715042	0.417028	-0.356653
C166	C	1.045117	-0.252893	-1.096667
C167	C	1.378450	0.080441	-0.763334
C168	C	1.711783	0.413774	-0.430001
C169	C	1.015244	-0.282752	-0.765152
C170	C	1.348577	0.050582	-0.431819
C171	C	1.681910	0.383915	-0.098486
C172	C	1.018501	-0.279503	-0.691800
C173	C	1.351834	0.053830	-0.358467
C174	C	1.685167	0.387164	-0.025133
C175	C	0.924608	-0.373322	-0.691745
C176	C	1.257942	-0.039989	-0.358411
C177	C	1.591275	0.293344	-0.025078
C178	C	0.921357	-0.376575	-0.765094
C179	C	1.254690	-0.043241	-0.431760
C180	C	1.588023	0.290092	-0.098427
C181	C	0.966671	-0.331286	-0.801793
C182	C	1.300004	0.002047	-0.468460
C183	C	1.633338	0.335380	-0.135127
C184	C	1.006388	-0.291597	-0.911639
C185	C	1.339722	0.041737	-0.578306
C186	C	1.673055	0.375070	-0.244972
C187	C	0.963337	-0.334612	-0.876766
C188	C	1.296671	-0.001278	-0.543433
C189	C	1.630004	0.332055	-0.210100
C190	C	0.992933	-0.305094	-0.211375
C191	C	1.326266	0.028240	0.121958
C192	C	1.659600	0.361573	0.455292
C193	C	0.996544	-0.301435	-0.133310
C194	C	1.329878	0.031899	0.200023
C195	C	1.663211	0.365232	0.533357
H196	H	0.717472	-0.246079	-0.461182
H197	H	1.050805	0.087255	-0.127849
H198	H	1.384138	0.420588	0.205485
H199	H	0.252817	-0.380352	-0.326566
H200	H	0.586150	-0.047019	0.006767
H201	H	0.919483	0.286314	0.340100
H202	H	1.087923	-0.210118	-0.993477
H203	H	1.421256	0.123215	-0.660143
H204	H	1.754589	0.456548	-0.326810
O205	O	1.089209	-0.208878	-1.132215
O206	O	1.422542	0.124456	-0.798881
O207	O	1.755875	0.457789	-0.465548
C208	C	1.132769	-0.165330	-1.084143
C209	C	1.466102	0.168003	-0.750809
C210	C	1.799436	0.501337	-0.417476
H211	H	1.136227	-0.191786	-1.033124
H212	H	1.469561	0.141548	-0.699791
H213	H	1.802894	0.474881	-0.366457
H214	H	1.187502	-0.156497	-1.107311
H215	H	1.520836	0.176836	-0.773978
H216	H	1.854169	0.510170	-0.440645
H217	H	1.109802	-0.112495	-1.073121
H218	H	1.443136	0.220839	-0.739788
H219	H	1.776469	0.554172	-0.406455
O220	O	1.059177	-0.713464	-0.325695
O221	O	1.392510	-0.380131	0.007639
O222	O	1.725844	-0.046798	0.340972
C223	C	1.019445	-0.755781	-0.280394
C224	C	1.352778	-0.422448	0.052939
C225	C	1.686111	-0.089115	0.386272
H226	H	0.964569	-0.770059	-0.303295
H227	H	1.297902	-0.436726	0.030038
H228	H	1.631236	-0.103393	0.363372
H229	H	1.046203	-0.805971	-0.274450
H230	H	1.379536	-0.472638	0.058883
H231	H	1.712870	-0.139305	0.392217
H232	H	1.015433	-0.725534	-0.226809
H233	H	1.348767	-0.392201	0.106525
H234	H	1.682100	-0.058868	0.439858
H235	H	0.881803	-0.416097	-0.794926
H236	H	1.215136	-0.082764	-0.461593
H237	H	1.548470	0.250570	-0.128259
O238	O	0.503363	-0.250150	-0.456978
O239	O	0.836696	0.083183	-0.123644
O240	O	1.170029	0.416516	0.209689
C241	C	0.489244	-0.179929	-0.438187
C242	C	0.822577	0.153404	-0.104854
C243	C	1.155911	0.486738	0.228480
H244	H	0.471720	-0.174613	-0.381114
H245	H	0.805053	0.158720	-0.047780
H246	H	1.138387	0.492053	0.285553
H247	H	0.538772	-0.143411	-0.444862
H248	H	0.872106	0.189922	-0.111528
H249	H	1.205439	0.523255	0.221805
H250	H	0.445825	-0.164979	-0.473391
H251	H	0.779158	0.168354	-0.140057
H252	H	1.112491	0.501687	0.193276
O253	O	0.880692	-0.417335	-0.656018
O254	O	1.214025	-0.084002	-0.322684
O255	O	1.547358	0.249331	0.010649
C256	C	0.920518	-0.459366	-0.617088
C257	C	1.253851	-0.126033	-0.283755
C258	C	1.587184	0.207301	0.049578
H259	H	0.975352	-0.431852	-0.607292
H260	H	1.308685	-0.098518	-0.273959
H261	H	1.642018	0.234815	0.059374
H262	H	0.893779	-0.467686	-0.564711
H263	H	1.227113	-0.134353	-0.231378
H264	H	1.560446	0.198980	0.101955
H265	H	0.924626	-0.512546	-0.647780
H266	H	1.257960	-0.179212	-0.314447
H267	H	1.591293	0.154121	0.018887
O268	O	0.916060	-0.381685	-0.912323
O269	O	1.249393	-0.048352	-0.578989
O270	O	1.582726	0.284982	-0.245656
C271	C	0.847545	-0.368352	-0.890889
C272	C	1.180878	-0.035019	-0.557556
C273	C	1.514212	0.298314	-0.224222
H274	H	0.847421	-0.311291	-0.868302
H275	H	1.180754	0.022043	-0.534969
H276	H	1.514088	0.355376	-0.201636
H277	H	0.810435	-0.377974	-0.937946
H278	H	1.143768	-0.044641	-0.604612
H279	H	1.477101	0.288692	-0.271279
H280	H	0.829376	-0.405009	-0.849088
H281	H	1.162710	-0.071676	-0.515755
H282	H	1.496043	0.261657	-0.182422
H283	H	0.385992	-0.218795	-0.488628
H284	H	0.719325	0.114538	-0.155295
H285	H	1.052658	0.447871	0.178038
H286	H	1.082045	-1.037210	-0.304891
H287	H	1.415379	-0.703877	0.028442
H288	H	1.748712	-0.370543	0.361776
H289	H	0.584403	-0.251531	-0.455742
H290	H	0.917736	0.081802	-0.122408
H291	H	1.251069	0.415136	0.210925
H292	H	0.881768	-0.722081	-0.488299
H293	H	1.215101	-0.388747	-0.154965
H294	H	1.548434	-0.055414	0.178368
O295	O	0.247253	-0.217704	-0.489809
O296	O	0.580587	0.115629	-0.156476
O297	O	0.913920	0.448963	0.176858
C298	C	0.295377	-0.177752	-0.529864
C299	C	0.628711	0.155581	-0.196531
C300	C	0.962044	0.488914	0.136802
H301	H	0.346269	-0.204593	-0.535558
H302	H	0.679602	0.128741	-0.202224
H303	H	1.012935	0.462074	0.131109
H304	H	0.272070	-0.173639	-0.584044
H305	H	0.605404	0.159694	-0.250711
H306	H	0.938737	0.493027	0.082622
H307	H	0.306707	-0.122721	-0.502382
H308	H	0.640041	0.210612	-0.169049
H309	H	0.973374	0.543946	0.164284
H310	H	0.923774	-0.830306	-0.449847
H311	H	1.257108	-0.496972	-0.116514
H312	H	1.590441	-0.163639	0.216819
H313	H	1.045939	-0.252081	-0.881794
H314	H	1.379272	0.081252	-0.548460
H315	H	1.712606	0.414585	-0.215127
H316	H	0.911678	-0.386240	-1.126441
H317	H	1.245011	-0.052907	-0.793107
H318	H	1.578345	0.280426	-0.459774
O319	O	0.904051	-1.057422	-0.468097
O320	O	1.237384	-0.724089	-0.134764
O321	O	1.570717	-0.390756	0.198570
C322	C	0.864732	-1.012540	-0.504097
C323	C	1.198066	-0.679207	-0.170764
C324	C	1.531399	-0.345873	0.162570
H325	H	0.895702	-0.958973	-0.505587
H326	H	1.229035	-0.625639	-0.172254
H327	H	1.562368	-0.292306	0.161080
H328	H	0.853810	-1.036552	-0.559986
H329	H	1.187143	-0.703219	-0.226653
H330	H	1.520476	-0.369886	0.106681
H331	H	0.812893	-1.005802	-0.475830
H332	H	1.146226	-0.672469	-0.142497
H333	H	1.479560	-0.339136	0.190836
O334	O	0.466865	-0.376257	-0.330794
O335	O	0.800198	-0.042924	0.002539
O336	O	1.133532	0.290409	0.335872
C337	C	0.420620	-0.425336	-0.370822
C338	C	0.753953	-0.092002	-0.037489
C339	C	1.087287	0.241331	0.295844
H340	H	0.440088	-0.431317	-0.427213
H341	H	0.773421	-0.097984	-0.093880
H342	H	1.106755	0.235349	0.239454
H343	H	0.418482	-0.478452	-0.347498
H344	H	0.751815	-0.145119	-0.014165
H345	H	1.085148	0.188215	0.319169
H346	H	0.365896	-0.405926	-0.370123
H347	H	0.699229	-0.072592	-0.036790
H348	H	1.032563	0.260741	0.296544
O349	O	0.880458	-0.583447	-0.489382
O350	O	1.213792	-0.250114	-0.156049
O351	O	1.547125	0.083219	0.177284
C352	C	0.836907	-0.635108	-0.529352
C353	C	1.170240	-0.301775	-0.196019
C354	C	1.503574	0.031558	0.137314
H355	H	0.833455	-0.686423	-0.502630
H356	H	1.166789	-0.353090	-0.169296
H357	H	1.500122	-0.019757	0.164037
H358	H	0.782170	-0.616465	-0.533661
H359	H	1.115503	-0.283132	-0.200328
H360	H	1.448837	0.050201	0.133005
H361	H	0.859877	-0.644211	-0.584085
H362	H	1.193211	-0.310878	-0.250752
H363	H	1.526544	0.022456	0.082582
O364	O	0.910437	-0.912317	-0.461990
O365	O	1.243770	-0.578984	-0.128657
O366	O	1.577104	-0.245650	0.204677
C367	C	0.868749	-0.869880	-0.418359
C368	C	1.202082	-0.536547	-0.085026
C369	C	1.535415	-0.203213	0.248308
H370	H	0.896415	-0.855488	-0.365726
H371	H	1.229748	-0.522154	-0.032393
H372	H	1.563081	-0.188821	0.300941
H373	H	0.860324	-0.819758	-0.444451
H374	H	1.193658	-0.486425	-0.111118
H375	H	1.526991	-0.153092	0.222216
H376	H	0.815797	-0.900077	-0.409619
H377	H	1.149131	-0.566743	-0.076286
H378	H	1.482464	-0.233410	0.257047
H379	H	1.045927	-0.795430	-0.337883
H380	H	1.379260	-0.462097	-0.004550
H381	H	1.712594	-0.128763	0.328784
H382	H	0.917591	-0.380339	-0.993381
H383	H	1.250925	-0.047006	-0.660048
H384	H	1.584258	0.286328	-0.326714
H385	H	1.058056	-0.239976	-0.661965
H386	H	1.391389	0.093357	-0.328631
H387	H	1.724722	0.426690	0.004702
H388	H	1.057993	-0.574595	-0.326683
H389	H	1.391327	-0.241262	0.006650
H390	H	1.724660	0.092072	0.339984
H391	H	1.087932	-0.903648	-0.299425
H392	H	1.421265	-0.570315	0.033908
H393	H	1.754598	-0.236981	0.367242
H394	H	1.052146	-0.245878	-0.795025
H395	H	1.385479	0.087455	-0.461692
H396	H	1.718812	0.420788	-0.128358
H397	H	0.717378	-0.402181	-0.304556
H398	H	1.050711	-0.068848	0.028777
H399	H	1.384045	0.264486	0.362111
O400	O	0.391539	-0.381484	-0.325432
O401	O	0.724872	-0.048151	0.007901
O402	O	1.058206	0.285182	0.341234
C403	C	0.343415	-0.421412	-0.285356
C404	C	0.676748	-0.088079	0.047977
C405	C	1.010082	0.245254	0.381311
H406	H	0.289747	-0.427316	-0.312085
H407	H	0.623080	-0.093983	0.021249
H408	H	0.956414	0.239351	0.354582
H409	H	0.362462	-0.475734	-0.280887
H410	H	0.695795	-0.142401	0.052446
H411	H	1.029129	0.190932	0.385780
H412	H	0.339122	-0.393474	-0.230690
H413	H	0.672455	-0.060141	0.102643
H414	H	1.005788	0.273192	0.435977
O415	O	0.578638	-0.414638	-0.292030
O416	O	0.911971	-0.081305	0.041304
O417	O	1.245304	0.252028	0.374637
C418	C	0.626714	-0.450649	-0.255908
C419	C	0.960047	-0.117315	0.077426
C420	C	1.293380	0.216018	0.410759
H421	H	0.680399	-0.419526	-0.254494
H422	H	1.013733	-0.086193	0.078840
H423	H	1.347066	0.247140	0.412173
H424	H	0.607632	-0.456495	-0.199993
H425	H	0.940965	-0.123161	0.133340
H426	H	1.274299	0.210172	0.466673
H427	H	0.630985	-0.505042	-0.284026
H428	H	0.964318	-0.171709	0.049308
H429	H	1.297651	0.161624	0.382641
