data_functionalizedCrystal
_audit_creation_method	'MofGen! by Chris Wilmer'
_symmetry_space_group_name_H-M	'P1'
_symmetry_Int_Tables_number	1
_symmetry_cell_setting	triclinic
loop_
_symmetry_equiv_pos_as_xyz
  x,y,z
_cell_length_a	18.050589
_cell_length_b	18.050591
_cell_length_c	16.959447
_cell_angle_alpha	89.988920
_cell_angle_beta	89.973357
_cell_angle_gamma	90.027061
loop_
_atom_site_label
_atom_site_type_symbol
_atom_site_fract_x
_atom_site_fract_y
_atom_site_fract_z
Zn1	Zn	-0.295668	1.135296	-0.446861
Zn2	Zn	0.037666	1.468630	-0.113527
Zn3	Zn	0.370999	1.801963	0.219806
Zn4	Zn	-0.419869	1.135206	-0.314690
Zn5	Zn	-0.086536	1.468539	0.018643
Zn6	Zn	0.246797	1.801873	0.351976
Zn7	Zn	-0.295695	1.011114	-0.314705
Zn8	Zn	0.037638	1.344448	0.018628
Zn9	Zn	0.370971	1.677781	0.351961
Zn10	Zn	-0.419818	1.011064	-0.446837
Zn11	Zn	-0.086485	1.344397	-0.113503
Zn12	Zn	0.246849	1.677730	0.219830
O13	O	-0.357763	1.073170	-0.380773
O14	O	-0.024429	1.406503	-0.047440
O15	O	0.308904	1.739837	0.285893
O16	O	-0.312153	1.239209	-0.429332
O17	O	0.021180	1.572542	-0.095998
O18	O	0.354513	1.905876	0.237335
O19	O	-0.403430	1.118728	-0.204082
O20	O	-0.070097	1.452062	0.129252
O21	O	0.263236	1.785395	0.462585
O22	O	-0.191767	1.027647	-0.332252
O23	O	0.141566	1.360980	0.001081
O24	O	0.474900	1.694313	0.334414
O25	O	-0.403404	1.239143	-0.332227
O26	O	-0.070071	1.572476	0.001107
O27	O	0.263263	1.905809	0.334440
O28	O	-0.191747	1.118883	-0.429346
O29	O	0.141586	1.452216	-0.096013
O30	O	0.474920	1.785549	0.237320
O31	O	-0.312200	1.027559	-0.204093
O32	O	0.021133	1.360892	0.129241
O33	O	0.354467	1.694226	0.462574
O34	O	-0.312150	0.907183	-0.332229
O35	O	0.021183	1.240516	0.001104
O36	O	0.354516	1.573850	0.334437
O37	O	-0.403316	1.027560	-0.557451
O38	O	-0.069983	1.360893	-0.224117
O39	O	0.263350	1.694227	0.109216
O40	O	-0.403343	0.907146	-0.429305
O41	O	-0.070009	1.240479	-0.095972
O42	O	0.263324	1.573812	0.237361
O43	O	-0.312104	1.118833	-0.557468
O44	O	0.021230	1.452167	-0.224135
O45	O	0.354563	1.785500	0.109198
O46	O	-0.523787	1.118679	-0.332204
O47	O	-0.190454	1.452012	0.001130
O48	O	0.142879	1.785346	0.334463
O49	O	-0.523749	1.027472	-0.429291
O50	O	-0.190416	1.360806	-0.095957
O51	O	0.142917	1.694139	0.237376
C52	C	-0.357744	0.880218	-0.380767
C53	C	-0.024411	1.213551	-0.047433
C54	C	0.308922	1.546885	0.285900
C55	C	-0.357755	0.797672	-0.380783
C56	C	-0.024421	1.131006	-0.047449
C57	C	0.308912	1.464339	0.285884
C58	C	-0.407448	0.548848	-0.433501
C59	C	-0.074114	0.882181	-0.100167
C60	C	0.259219	1.215514	0.233166
C61	C	-0.425529	0.598217	-0.361355
C62	C	-0.092195	0.931550	-0.028022
C63	C	0.241138	1.264884	0.305312
C64	C	-0.357778	0.500552	-0.380781
C65	C	-0.024445	0.833885	-0.047448
C66	C	0.308889	1.167218	0.285885
C67	C	-0.339720	0.598264	-0.452923
C68	C	-0.006387	0.931597	-0.119590
C69	C	0.326946	1.264931	0.213743
C70	C	-0.357768	0.646537	-0.380786
C71	C	-0.024435	0.979870	-0.047452
C72	C	0.308898	1.313204	0.285881
C73	C	-0.375894	0.548834	-0.308597
C74	C	-0.042561	0.882167	0.024736
C75	C	0.290773	1.215501	0.358069
C76	C	-0.290054	0.548877	-0.400214
C77	C	0.043279	0.882210	-0.066881
C78	C	0.376612	1.215543	0.266452
C79	C	-0.308109	0.598224	-0.328019
C80	C	0.025224	0.931557	0.005314
C81	C	0.358557	1.264890	0.338648
C82	C	-0.357785	0.416454	-0.380780
C83	C	-0.024452	0.749787	-0.047446
C84	C	0.308881	1.083120	0.285887
C85	C	-0.357761	0.730633	-0.380779
C86	C	-0.024427	1.063967	-0.047446
C87	C	0.308906	1.397300	0.285887
C88	C	-0.550715	1.073080	-0.380760
C89	C	-0.217381	1.406414	-0.047427
C90	C	0.115952	1.739747	0.285907
C91	C	-0.633261	1.073110	-0.380781
C92	C	-0.299927	1.406443	-0.047448
C93	C	0.033406	1.739777	0.285886
C94	C	-0.832718	1.023561	-0.433558
C95	C	-0.499384	1.356894	-0.100225
C96	C	-0.166051	1.690227	0.233108
C97	C	-0.882161	1.005462	-0.361433
C98	C	-0.548828	1.338795	-0.028099
C99	C	-0.215494	1.672129	0.305234
C100	C	-0.784391	1.073183	-0.380791
C101	C	-0.451058	1.406516	-0.047458
C102	C	-0.117724	1.739850	0.285875
C103	C	-0.882029	1.091318	-0.452925
C104	C	-0.548696	1.424651	-0.119592
C105	C	-0.215362	1.757985	0.213741
C106	C	-0.930376	1.073252	-0.380808
C107	C	-0.597043	1.406585	-0.047474
C108	C	-0.263709	1.739919	0.285859
C109	C	-0.832747	1.055049	-0.308627
C110	C	-0.499414	1.388382	0.024706
C111	C	-0.166081	1.721716	0.358039
C112	C	-0.832611	1.140936	-0.400169
C113	C	-0.499277	1.474270	-0.066835
C114	C	-0.165944	1.807603	0.266498
C115	C	-0.882032	1.122864	-0.327993
C116	C	-0.548699	1.456197	0.005340
C117	C	-0.215365	1.789530	0.338674
C118	C	-0.700293	1.073141	-0.380783
C119	C	-0.366959	1.406475	-0.047450
C120	C	-0.033626	1.739808	0.285884
C121	C	-1.014472	1.073294	-0.380808
C122	C	-0.681139	1.406627	-0.047474
C123	C	-0.347806	1.739961	0.285859
C124	C	-0.164057	1.073280	-0.380804
C125	C	0.169276	1.406614	-0.047470
C126	C	0.502610	1.739947	0.285863
C127	C	-0.081511	1.073327	-0.380817
C128	C	0.251822	1.406661	-0.047483
C129	C	0.585155	1.739994	0.285850
C130	C	-0.357701	1.073201	-0.586942
C131	C	-0.024368	1.406534	-0.253608
C132	C	0.308966	1.739868	0.079725
C133	C	-0.357675	1.073214	-0.674798
C134	C	-0.024342	1.406548	-0.341465
C135	C	0.308992	1.739881	-0.008132
C136	C	-0.357781	1.266876	-0.380780
C137	C	-0.024448	1.600209	-0.047447
C138	C	0.308885	1.933542	0.285886
C139	C	-0.357789	1.349421	-0.380783
C140	C	-0.024456	1.682755	-0.047450
C141	C	0.308877	2.016088	0.285883
C142	C	-0.405087	1.025781	-1.046267
C143	C	-0.071753	1.359114	-0.712934
C144	C	0.261580	1.692448	-0.379601
C145	C	-0.310106	1.120825	-1.046281
C146	C	0.023227	1.454158	-0.712947
C147	C	0.356560	1.787491	-0.379614
C148	C	-0.310122	1.120805	-0.963735
C149	C	0.023211	1.454138	-0.630401
C150	C	0.356545	1.787472	-0.297068
C151	C	-0.357622	1.073273	-0.922451
C152	C	-0.024288	1.406607	-0.589118
C153	C	0.309045	1.739940	-0.255785
C154	C	-0.405106	1.025761	-0.963714
C155	C	-0.071772	1.359095	-0.630380
C156	C	0.261561	1.692428	-0.297047
C157	C	-0.262645	1.168321	-0.922466
C158	C	0.070689	1.501655	-0.589133
C159	C	0.404022	1.834988	-0.255800
C160	C	-0.262659	1.168304	-0.839915
C161	C	0.070674	1.501637	-0.506582
C162	C	0.404008	1.834971	-0.173249
C163	C	-0.310155	1.120768	-0.798630
C164	C	0.023178	1.454101	-0.465297
C165	C	0.356511	1.787435	-0.131964
C166	C	-0.357640	1.073254	-0.839898
C167	C	-0.024307	1.406587	-0.506564
C168	C	0.309026	1.739920	-0.173231
C169	C	-0.405140	1.025722	-0.798614
C170	C	-0.071807	1.359055	-0.465281
C171	C	0.261527	1.692389	-0.131948
C172	C	-0.452622	0.978203	-0.839880
C173	C	-0.119289	1.311537	-0.506547
C174	C	0.214045	1.644870	-0.173214
C175	C	-0.452602	0.978225	-0.922429
C176	C	-0.119269	1.311559	-0.589095
C177	C	0.214065	1.644892	-0.255762
C178	C	-0.310175	1.120746	-0.716082
C179	C	0.023158	1.454079	-0.382748
C180	C	0.356491	1.787413	-0.049415
C181	C	-0.405159	1.025702	-0.716061
C182	C	-0.071825	1.359036	-0.382727
C183	C	0.261508	1.692369	-0.049394
C184	C	-0.357770	1.073182	-0.175407
C185	C	-0.024437	1.406515	0.157926
C186	C	0.308896	1.739849	0.491260
C187	C	-0.357587	1.073313	-0.087551
C188	C	-0.024254	1.406646	0.245783
C189	C	0.309079	1.739979	0.579116
H190	H	-0.449488	0.527168	-0.478026
H191	H	-0.116155	0.860502	-0.144693
H192	H	0.217179	1.193835	0.188640
N193	N	-0.501379	0.626940	-0.339571
N194	N	-0.168045	0.960274	-0.006238
N195	N	0.165288	1.293607	0.327096
H196	H	-0.515399	0.608185	-0.285470
H197	H	-0.182066	0.941518	0.047864
H198	H	0.151268	1.274852	0.381197
H199	H	-0.538822	0.608981	-0.379468
H200	H	-0.205488	0.942314	-0.046135
H201	H	0.127845	1.275648	0.287199
H202	H	-0.223978	1.207024	-0.956085
H203	H	0.109356	1.540357	-0.622752
H204	H	0.442689	1.873690	-0.289419
H205	H	-0.232802	0.527186	-0.416676
H206	H	0.100531	0.860520	-0.083342
H207	H	0.433864	1.193853	0.249991
H208	H	-0.223996	1.206996	-0.806323
H209	H	0.109338	1.540330	-0.472990
H210	H	0.442671	1.873663	-0.139657
H211	H	-0.491262	0.939541	-0.956035
H212	H	-0.157928	1.272874	-0.622701
H213	H	0.175405	1.606207	-0.289368
H214	H	-0.266101	0.619766	-0.283386
H215	H	0.067232	0.953100	0.049947
H216	H	0.400565	1.286433	0.383281
N217	N	-0.910991	0.929605	-0.339732
N218	N	-0.577658	1.262938	-0.006398
N219	N	-0.244324	1.596271	0.326935
H220	H	-0.966939	0.930314	-0.339397
H221	H	-0.633606	1.263648	-0.006064
H222	H	-0.300273	1.596981	0.327270
H223	H	-0.892240	0.915585	-0.285654
H224	H	-0.558907	1.248919	0.047680
H225	H	-0.225573	1.582252	0.381013
H226	H	-0.271439	1.159527	-1.079899
H227	H	0.061895	1.492860	-0.746565
H228	H	0.395228	1.826194	-0.413232
N229	N	-0.258976	1.171996	-0.671573
N230	N	0.074358	1.505330	-0.338239
N231	N	0.407691	1.838663	-0.004906
H232	H	-0.228886	1.202113	-0.710252
H233	H	0.104448	1.535447	-0.376918
H234	H	0.437781	1.868780	-0.043585
H235	H	-0.224608	1.141781	-0.637333
H236	H	0.108725	1.475114	-0.304000
H237	H	0.442058	1.808448	0.029333
H238	H	-0.324451	0.619977	-0.513931
H239	H	0.008882	0.953310	-0.180598
H240	H	0.342215	1.286643	0.152735
N241	N	-0.396213	0.520196	-0.227765
N242	N	-0.062879	0.853529	0.105569
N243	N	0.270454	1.186863	0.438902
H244	H	-0.447196	0.538581	-0.212971
H245	H	-0.113863	0.871914	0.120362
H246	H	0.219471	1.205248	0.453695
H247	H	-0.358899	0.538582	-0.187951
H248	H	-0.025566	0.871916	0.145383
H249	H	0.307768	1.205249	0.478716
N250	N	-0.804031	0.967900	-0.492588
N251	N	-0.470697	1.301234	-0.159254
N252	N	-0.137364	1.634567	0.174079
H253	H	-0.822059	0.916759	-0.477850
H254	H	-0.488725	1.250092	-0.144516
H255	H	-0.155392	1.583426	0.188817
H256	H	-0.748084	0.968664	-0.492496
H257	H	-0.414751	1.301997	-0.159163
H258	H	-0.081417	1.635331	0.174170
N259	N	-0.804200	1.034683	-0.227805
N260	N	-0.470867	1.368016	0.105528
N261	N	-0.137533	1.701350	0.438862
H262	H	-0.748248	1.034761	-0.228303
H263	H	-0.414915	1.368094	0.105030
H264	H	-0.081582	1.701427	0.438364
H265	H	-0.822717	0.983709	-0.213103
H266	H	-0.489383	1.317043	0.120230
H267	H	-0.156050	1.650376	0.453564
H268	H	-0.443743	0.987090	-1.079870
H269	H	-0.110410	1.320424	-0.746536
H270	H	0.222923	1.653757	-0.413203
H271	H	-0.810831	1.198188	-0.416578
H272	H	-0.477498	1.531521	-0.083244
H273	H	-0.144165	1.864854	0.250089
N274	N	-0.910535	1.178489	-0.268828
N275	N	-0.577202	1.511822	0.064505
N276	N	-0.243869	1.845156	0.397839
H277	H	-0.942094	1.152330	-0.228259
H278	H	-0.608760	1.485664	0.105074
H279	H	-0.275427	1.818997	0.438407
H280	H	-0.941259	1.217087	-0.296894
H281	H	-0.607926	1.550420	0.036439
H282	H	-0.274592	1.883754	0.369772
N283	N	-0.910712	1.111602	-0.533717
N284	N	-0.577379	1.444935	-0.200383
N285	N	-0.244045	1.778268	0.132950
H286	H	-0.892774	1.074055	-0.573522
H287	H	-0.559441	1.407388	-0.240189
H288	H	-0.226107	1.740722	0.093144
H289	H	-0.891909	1.162401	-0.548689
H290	H	-0.558575	1.495734	-0.215355
H291	H	-0.225242	1.829067	0.117978
N292	N	-0.456379	0.974423	-0.671535
N293	N	-0.123046	1.307756	-0.338202
N294	N	0.210287	1.641090	-0.004869
H295	H	-0.486450	0.944323	-0.710205
H296	H	-0.153116	1.277657	-0.376871
H297	H	0.180217	1.610990	-0.043538
H298	H	-0.490764	1.004616	-0.637272
H299	H	-0.157431	1.337949	-0.303939
H300	H	0.175903	1.671283	0.029394
H301	H	-0.491299	0.939506	-0.806256
H302	H	-0.157966	1.272840	-0.472923
H303	H	0.175367	1.606173	-0.139590
