data_functionalizedCrystal
_audit_creation_method	'MofGen! by Chris Wilmer'
_symmetry_space_group_name_H-M	'P1'
_symmetry_Int_Tables_number	1
_symmetry_cell_setting	triclinic
loop_
_symmetry_equiv_pos_as_xyz
  x,y,z
_cell_length_a	25.639239
_cell_length_b	19.805407
_cell_length_c	19.805399
_cell_angle_alpha	90.019197
_cell_angle_beta	89.971274
_cell_angle_gamma	89.965164
loop_
_atom_site_label
_atom_site_type_symbol
_atom_site_fract_x
_atom_site_fract_y
_atom_site_fract_z
Zn1	Zn	-0.208217	-1.034678	-0.382707
Zn2	Zn	-0.295651	-1.034568	-0.269517
Zn3	Zn	-0.208225	-0.921493	-0.269533
Zn4	Zn	-0.295617	-0.921432	-0.382664
O5	O	-0.251927	-0.978043	-0.326105
O6	O	-0.219825	-1.129380	-0.367704
O7	O	-0.284071	-1.019548	-0.174802
O8	O	-0.135059	-0.936578	-0.284570
O9	O	-0.284063	-1.129300	-0.284543
O10	O	-0.135053	-1.019735	-0.367719
O11	O	-0.219840	-0.936472	-0.174814
O12	O	-0.219807	-0.826768	-0.284529
O13	O	-0.284005	-0.936475	-0.477387
O14	O	-0.284014	-0.826723	-0.367646
O15	O	-0.219793	-1.019676	-0.477418
O16	O	-0.368811	-1.019489	-0.284502
O17	O	-0.368787	-0.936368	-0.367630
C18	C	-0.251908	-0.802187	-0.326085
C19	C	-0.251913	-0.726955	-0.326092
C20	C	-0.387770	-0.977929	-0.326074
C21	C	-0.445884	-0.977942	-0.326084
C22	C	-0.218523	-0.691653	-0.369459
C23	C	-0.218524	-0.620965	-0.369459
C24	C	-0.251919	-0.585579	-0.326097
C25	C	-0.285310	-0.620886	-0.282725
C26	C	-0.285306	-0.691573	-0.282721
C27	C	-0.285329	-0.335812	-0.282739
C28	C	-0.285332	-0.265120	-0.282747
C29	C	-0.218548	-0.265204	-0.369477
C30	C	-0.218543	-0.335891	-0.369473
C31	C	-0.251933	-0.371192	-0.326100
C32	C	-0.251930	-0.447840	-0.326098
C33	C	-0.251925	-0.508932	-0.326101
C34	C	-0.806247	-1.021437	-0.282894
C35	C	-0.860852	-1.021463	-0.282903
O36	O	-0.889089	-1.058326	-0.246147
N37	N	-0.888166	-0.978162	-0.326150
C38	C	-0.860874	-0.934836	-0.369396
O39	O	-0.889121	-0.898008	-0.406183
C40	C	-0.806271	-0.934814	-0.369390
C41	C	-0.778959	-0.978113	-0.326135
C42	C	-0.778935	-1.064733	-0.239643
C43	C	-0.724335	-1.064706	-0.239633
C44	C	-0.697046	-1.021382	-0.282874
C45	C	-0.724358	-0.978086	-0.326125
C46	C	-0.778979	-0.891492	-0.412639
C47	C	-0.724372	-0.891474	-0.412629
C48	C	-0.697060	-0.934773	-0.369374
C49	C	-0.642469	-0.934735	-0.369357
N50	N	-0.615154	-0.978036	-0.326109
C51	C	-0.642443	-1.021360	-0.282868
C52	C	-0.975545	-0.934887	-0.369407
C53	C	-1.030147	-0.934905	-0.369410
C54	C	-1.030121	-1.021533	-0.282917
C55	C	-0.975517	-1.021511	-0.282911
C56	C	-0.948230	-0.978188	-0.326159
C57	C	-0.527778	-1.021299	-0.282851
C58	C	-0.473173	-1.021266	-0.282843
C59	C	-0.473203	-0.934641	-0.369337
C60	C	-0.527804	-0.934671	-0.369343
C61	C	-0.555090	-0.978005	-0.326097
O62	O	-0.614198	-0.897893	-0.406095
O63	O	-0.614189	-1.058188	-0.246094
C64	C	-0.115554	-0.978175	-0.326151
C65	C	-0.057440	-0.978232	-0.326171
C66	C	-0.251894	-0.978081	-0.502648
C67	C	-0.251880	-0.978097	-0.577880
C68	C	-0.251943	-0.154585	-0.326120
C69	C	-0.251940	-0.229817	-0.326111
C70	C	-0.218443	-1.021421	-0.613242
C71	C	-0.218428	-1.021428	-0.683930
C72	C	-0.251853	-0.978114	-0.719256
C73	C	-0.285292	-0.934785	-0.683889
C74	C	-0.285304	-0.934775	-0.613202
C75	C	-0.285243	-0.934823	-0.968963
C76	C	-0.285229	-0.934838	-1.039655
C77	C	-0.218367	-1.021476	-1.039691
C78	C	-0.218379	-1.021466	-0.969004
C79	C	-0.251816	-0.978135	-0.933643
C80	C	-0.251831	-0.978127	-0.856995
C81	C	-0.251841	-0.978124	-0.795903
C82	C	-0.251922	-0.978044	-0.150249
C83	C	-0.251789	-0.978159	-0.075018
H84	H	-0.191336	-0.592225	-0.404774
H85	H	-0.191352	-0.364699	-0.404786
H86	H	-0.191201	-1.056708	-0.712719
H87	H	-0.312505	-0.899515	-0.712657
H88	H	-0.312527	-0.899489	-0.584411
H89	H	-0.191330	-0.720459	-0.404772
C90	C	-0.321579	-0.887888	-0.930499
C91	C	-0.355098	-0.926161	-0.889897
C92	C	-0.388576	-0.882943	-0.854448
H93	H	-0.341531	-0.862084	-0.961592
H94	H	-0.301596	-0.858418	-0.902889
H95	H	-0.375079	-0.955620	-0.917504
H96	H	-0.335161	-0.951964	-0.858791
H97	H	-0.368593	-0.853473	-0.826839
H98	H	-0.408524	-0.857142	-0.885547
H99	H	-0.411319	-0.908905	-0.826891
H100	H	-0.191163	-1.056739	-0.940245
H101	H	-0.191359	-0.236454	-0.404792
C102	C	-1.059760	-1.068712	-0.236114
C103	C	-1.091020	-1.112089	-0.274531
C104	C	-1.118317	-1.155585	-0.231455
H105	H	-1.081153	-1.042978	-0.206564
H106	H	-1.035675	-1.094538	-0.210391
H107	H	-1.115102	-1.086266	-0.300242
H108	H	-1.069640	-1.137838	-0.304080
H109	H	-1.094232	-1.181411	-0.205732
H110	H	-1.139708	-1.129846	-0.201907
H111	H	-1.139527	-1.185026	-0.257515
H112	H	-0.312528	-0.236311	-0.247434
C113	C	-0.808593	-0.844567	-0.459721
C114	C	-0.795269	-0.859284	-0.526696
C115	C	-0.822542	-0.816075	-0.570092
H116	H	-0.799702	-0.799067	-0.449866
H117	H	-0.845028	-0.850783	-0.453589
H118	H	-0.758842	-0.853062	-0.532826
H119	H	-0.804162	-0.904776	-0.536572
H120	H	-0.858977	-0.822291	-0.563959
H121	H	-0.813649	-0.770578	-0.560231
H122	H	-0.813509	-0.826058	-0.615539
H123	H	-1.052380	-0.899640	-0.404626
H124	H	-0.702157	-0.856196	-0.447849
C125	C	-0.321638	-0.374011	-0.235625
C126	C	-0.350893	-0.327889	-0.197667
C127	C	-0.384353	-0.363056	-0.154262
H128	H	-0.301664	-0.401588	-0.206118
H129	H	-0.344472	-0.401568	-0.261443
H130	H	-0.328062	-0.300344	-0.171850
H131	H	-0.370878	-0.300311	-0.227156
H132	H	-0.407187	-0.390613	-0.180081
H133	H	-0.364374	-0.390632	-0.124759
H134	H	-0.404210	-0.331768	-0.128507
C135	C	-0.694660	-1.111612	-0.192591
C136	C	-0.663370	-1.073310	-0.149148
C137	C	-0.636037	-1.116501	-0.105797
H138	H	-0.673285	-1.141094	-0.218427
H139	H	-0.718724	-1.137402	-0.166806
H140	H	-0.639310	-1.047531	-0.174931
H141	H	-0.684733	-1.043829	-0.123297
H142	H	-0.660100	-1.142291	-0.080012
H143	H	-0.614664	-1.145981	-0.131639
H144	H	-0.614807	-1.090519	-0.076312
H145	H	-0.312498	-0.592069	-0.247415
H146	H	-0.312495	-0.720315	-0.247407
H147	H	-0.191226	-1.056694	-0.584485
H148	H	-0.953330	-0.899603	-0.404622
H149	H	-0.450937	-1.056525	-0.247617
H150	H	-0.191140	-1.056756	-1.068490
C151	C	-0.557303	-1.068370	-0.235821
C152	C	-0.521688	-1.106263	-0.197933
C153	C	-0.548867	-1.149620	-0.154594
H154	H	-0.578571	-1.097921	-0.261662
H155	H	-0.578625	-1.042521	-0.206271
H156	H	-0.500375	-1.132109	-0.227480
H157	H	-0.500419	-1.076729	-0.172079
H158	H	-0.570189	-1.123772	-0.125044
H159	H	-0.570135	-1.179167	-0.180440
H160	H	-0.524707	-1.175331	-0.128878
H161	H	-0.801148	-1.100016	-0.204431
H162	H	-0.953283	-1.056769	-0.247690
H163	H	-0.550043	-0.899415	-0.404567
H164	H	-0.450977	-0.899365	-0.404542
H165	H	-0.312449	-0.899563	-1.068415
