data_functionalizedCrystal
_audit_creation_method	'MofGen! by Chris Wilmer'
_symmetry_space_group_name_H-M	'P1'
_symmetry_Int_Tables_number	1
_symmetry_cell_setting	triclinic
loop_
_symmetry_equiv_pos_as_xyz
  x,y,z
_cell_length_a	12.759395
_cell_length_b	18.101395
_cell_length_c	12.759387
_cell_angle_alpha	89.967189
_cell_angle_beta	89.980569
_cell_angle_gamma	90.030949
loop_
_atom_site_label
_atom_site_type_symbol
_atom_site_fract_x
_atom_site_fract_y
_atom_site_fract_z
Zn1	Zn	1.606149	-0.294794	-0.593960
Zn2	Zn	2.106149	0.205206	-0.093960
Zn3	Zn	1.605989	-0.418654	-0.418274
Zn4	Zn	2.105989	0.081346	0.081726
Zn5	Zn	1.430447	-0.294830	-0.418300
Zn6	Zn	1.930447	0.205170	0.081700
Zn7	Zn	1.430389	-0.418598	-0.593917
Zn8	Zn	1.930389	0.081402	-0.093917
O9	O	1.518244	-0.356719	-0.506113
O10	O	2.018244	0.143281	-0.006113
O11	O	1.753149	-0.311232	-0.570662
O12	O	2.253149	0.188768	-0.070662
O13	O	1.582661	-0.402267	-0.271257
O14	O	2.082661	0.097733	0.228743
O15	O	1.453845	-0.191193	-0.441631
O16	O	1.953845	0.308807	0.058369
O17	O	1.753031	-0.402232	-0.441587
O18	O	2.253031	0.097768	0.058413
O19	O	1.582933	-0.191166	-0.570687
O20	O	2.082933	0.308834	-0.070687
O21	O	1.453691	-0.311295	-0.271276
O22	O	1.953691	0.188705	0.228724
O23	O	1.283418	-0.311240	-0.441589
O24	O	1.783418	0.188760	0.058411
O25	O	1.453747	-0.402136	-0.740944
O26	O	1.953747	0.097864	-0.240944
O27	O	1.283376	-0.402171	-0.570614
O28	O	1.783376	0.097829	-0.070614
O29	O	1.582877	-0.311178	-0.740976
O30	O	2.082877	0.188822	-0.240976
O31	O	1.582604	-0.522279	-0.441545
O32	O	2.082604	-0.022279	0.058455
O33	O	1.453592	-0.522238	-0.570588
O34	O	1.953592	-0.022238	-0.070588
C35	C	1.245276	-0.356704	-0.506100
C36	C	1.745276	0.143296	-0.006100
C37	C	1.128499	-0.356716	-0.506119
C38	C	1.628499	0.143284	-0.006119
C39	C	1.128602	-0.262111	-0.640743
C40	C	1.628602	0.237889	-0.140743
C41	C	1.073793	-0.214818	-0.708063
C42	C	1.573793	0.285182	-0.208063
C43	C	0.964071	-0.214831	-0.708076
C44	C	1.464071	0.285169	-0.208076
C45	C	0.909156	-0.262141	-0.640760
C46	C	1.409156	0.237859	-0.140760
C47	C	0.963966	-0.309434	-0.573439
C48	C	1.463966	0.190566	-0.073439
C49	C	1.073690	-0.309417	-0.573436
C50	C	1.573690	0.190583	-0.073436
C51	C	0.963863	-0.404034	-0.438812
C52	C	1.463863	0.095966	0.061188
C53	C	1.073585	-0.404026	-0.438803
C54	C	1.573585	0.095974	0.061197
C55	C	0.908948	-0.451344	-0.371496
C56	C	1.408948	0.048656	0.128504
C57	C	0.963758	-0.498642	-0.304179
C58	C	1.463758	0.001358	0.195821
C59	C	1.073486	-0.498628	-0.304170
C60	C	1.573486	0.001372	0.195830
C61	C	1.128394	-0.451319	-0.371483
C62	C	1.628394	0.048681	0.128517
C63	C	1.518103	-0.549129	-0.506082
C64	C	2.018103	-0.049129	-0.006082
C65	C	1.518139	-0.631444	-0.506104
C66	C	2.018139	-0.131444	-0.006104
C67	C	1.518370	-0.930534	-0.506161
C68	C	2.018370	-0.430534	-0.006161
C69	C	1.437387	-0.899214	-0.587553
C70	C	1.937387	-0.399214	-0.087553
C71	C	1.437002	-0.813596	-0.587298
C72	C	1.937002	-0.313596	-0.087298
C73	C	1.518255	-0.782152	-0.506133
C74	C	2.018255	-0.282152	-0.006133
C75	C	1.488272	-0.813311	-0.395409
C76	C	1.988272	-0.313311	0.104591
C77	C	1.487750	-0.898956	-0.395896
C78	C	1.987750	-0.398956	0.104104
C79	C	1.629513	-0.898876	-0.534518
C80	C	2.129513	-0.398876	-0.034518
C81	C	1.628859	-0.813225	-0.536947
C82	C	2.128859	-0.313225	-0.036947
C83	C	1.518192	-0.698292	-0.506111
C84	C	2.018192	-0.198292	-0.006111
C85	C	1.518430	-1.014394	-0.506175
C86	C	2.018430	-0.514394	-0.006175
C87	C	1.792277	-0.356734	-0.506127
C88	C	2.292277	0.143266	-0.006127
C89	C	1.909054	-0.356741	-0.506132
C90	C	2.409054	0.143259	-0.006132
C91	C	1.518323	-0.356646	-0.780147
C92	C	2.018323	0.143354	-0.280147
C93	C	1.518357	-0.356615	-0.896923
C94	C	2.018357	0.143385	-0.396923
C95	C	1.518413	-0.163557	-0.506167
C96	C	2.018413	0.336443	-0.006167
C97	C	1.518486	-0.081243	-0.506190
C98	C	2.018486	0.418757	-0.006190
C99	C	1.652829	-0.261907	-0.896976
C100	C	2.152829	0.238093	-0.396976
C101	C	1.720080	-0.214541	-0.951864
C102	C	2.220080	0.285459	-0.451864
C103	C	1.720105	-0.214514	-1.061585
C104	C	2.220105	0.285486	-0.561585
C105	C	1.652871	-0.261856	-1.116422
C106	C	2.152871	0.238144	-0.616422
C107	C	1.585620	-0.309222	-1.061535
C108	C	2.085620	0.190778	-0.561535
C109	C	1.585604	-0.309245	-0.951811
C110	C	2.085604	0.190755	-0.451811
C111	C	1.451144	-0.403925	-1.061482
C112	C	1.951144	0.096075	-0.561482
C113	C	1.451122	-0.403957	-0.951760
C114	C	1.951122	0.096043	-0.451760
C115	C	1.383909	-0.451267	-1.116319
C116	C	1.883909	0.048733	-0.616319
C117	C	1.316662	-0.498637	-1.061432
C118	C	1.816662	0.001363	-0.561432
C119	C	1.316641	-0.498663	-0.951703
C120	C	1.816641	0.001337	-0.451703
C121	C	1.383871	-0.451323	-0.896873
C122	C	1.883871	0.048677	-0.396873
C123	C	1.518225	-0.356738	-0.233145
C124	C	2.018225	0.143262	0.266855
C125	C	1.518395	-0.356560	-0.116369
C126	C	2.018395	0.143440	0.383631
H127	H	0.919038	-0.537155	-0.249371
H128	H	1.419038	-0.037155	0.250629
Cl129	Cl	0.771012	-0.451358	-0.371508
Cl130	Cl	1.271012	0.048642	0.128492
Cl131	Cl	1.142833	-0.155345	-0.792684
Cl132	Cl	1.642833	0.344655	-0.292684
Cl133	Cl	1.266331	-0.451300	-0.371480
Cl134	Cl	1.766331	0.048700	0.128520
H135	H	1.383865	-0.451342	-0.807532
H136	H	1.883865	0.048658	-0.307532
Cl137	Cl	1.652817	-0.261948	-0.759039
Cl138	Cl	2.152817	0.238052	-0.259039
Cl139	Cl	1.576470	-0.781870	-0.299222
Cl140	Cl	2.076470	-0.281870	0.200778
Cl141	Cl	1.142380	-0.558083	-0.219529
Cl142	Cl	1.642380	-0.058083	0.280471
H143	H	1.455761	-0.792526	-0.669400
H144	H	1.955761	-0.292526	-0.169400
Cl145	Cl	1.266539	-0.262100	-0.640745
Cl146	Cl	1.766539	0.237900	-0.140745
H147	H	1.656847	-0.920419	-0.613883
H148	H	2.156847	-0.420419	-0.113883
Cl149	Cl	1.466054	-0.930932	-0.714726
Cl150	Cl	1.966054	-0.430932	-0.214726
H151	H	0.919446	-0.176316	-0.762888
H152	H	1.419446	0.323684	-0.262888
Cl153	Cl	1.804573	-0.155011	-0.882921
Cl154	Cl	2.304573	0.344989	-0.382921
H155	H	1.261920	-0.537175	-1.106088
H156	H	1.761920	-0.037175	-0.606088
H157	H	1.651469	-0.792857	-0.618434
H158	H	2.151469	-0.292857	-0.118434
H159	H	1.383931	-0.451239	-1.205660
H160	H	1.883931	0.048761	-0.705660
H161	H	0.819815	-0.262141	-0.640768
H162	H	1.319815	0.237859	-0.140768
Cl163	Cl	1.362314	-0.929906	-0.358808
Cl164	Cl	1.862314	-0.429906	0.141192
Cl165	Cl	1.574852	-0.930952	-0.299067
Cl166	Cl	2.074852	-0.430952	0.200933
Cl167	Cl	1.232086	-0.558208	-0.882711
Cl168	Cl	1.732086	-0.058208	-0.382711
Cl169	Cl	1.804633	-0.154958	-1.130589
Cl170	Cl	2.304633	0.345042	-0.630589
H171	H	1.355506	-0.920802	-0.569006
H172	H	1.855506	-0.420802	-0.069006
H173	H	1.354620	-0.793174	-0.568515
H174	H	1.854620	-0.293174	-0.068515
H175	H	1.407887	-0.791927	-0.370955
H176	H	1.907887	-0.291927	0.129045
H177	H	1.689848	-0.919130	-0.475237
H178	H	2.189848	-0.419130	0.024763
Cl179	Cl	1.726950	-0.780168	-0.452097
Cl180	Cl	2.226950	-0.280168	0.047903
Cl181	Cl	1.652895	-0.261814	-1.254359
Cl182	Cl	2.152895	0.238186	-0.754359
