data_functionalizedCrystal
_audit_creation_method	'MofGen! by Chris Wilmer'
_symmetry_space_group_name_H-M	'P1'
_symmetry_Int_Tables_number	1
_symmetry_cell_setting	triclinic
loop_
_symmetry_equiv_pos_as_xyz
  x,y,z
_cell_length_a	31.640171
_cell_length_b	31.640172
_cell_length_c	27.440280
_cell_angle_alpha	89.998936
_cell_angle_beta	60.000386
_cell_angle_gamma	59.974735
loop_
_atom_site_label
_atom_site_type_symbol
_atom_site_fract_x
_atom_site_fract_y
_atom_site_fract_z
Zr1	Zr	0.462745	0.406958	-0.064116
O2	O	0.550951	0.339427	-0.141951
O3	O	0.374539	0.427689	-0.040236
O4	O	0.462735	0.427646	-0.141927
O5	O	0.462763	0.339471	0.039934
O6	O	0.462728	0.497202	-0.141930
O7	O	0.462755	0.339470	-0.040260
O8	O	0.304962	0.497279	0.039976
O9	O	0.620529	0.339394	-0.141973
O10	O	0.410815	0.488405	-0.030077
O11	O	0.410826	0.436496	0.029773
O12	O	0.514665	0.436446	-0.089955
O13	O	0.514677	0.384538	-0.030105
Zr14	Zr	0.462747	0.517894	0.063778
Zr15	Zr	0.462734	0.517892	-0.064121
Zr16	Zr	0.462758	0.406960	0.063783
Zr17	Zr	0.573715	0.406906	-0.064151
Zr18	Zr	0.351777	0.517946	0.063814
O19	O	0.550953	0.497163	0.039898
O20	O	0.550934	0.497161	-0.141958
O21	O	0.550969	0.339429	0.039905
O22	O	0.374542	0.585425	0.141613
O23	O	0.374523	0.585423	-0.040243
O24	O	0.374558	0.427691	0.141620
O25	O	0.462729	0.585381	-0.040271
O26	O	0.462757	0.497206	0.141589
O27	O	0.462764	0.427650	0.141592
O28	O	0.462738	0.585382	0.039922
O29	O	0.620520	0.427572	-0.141977
O30	O	0.304972	0.497280	0.141639
O31	O	0.304963	0.585458	0.141635
O32	O	0.304953	0.585457	0.039972
O33	O	0.620540	0.339395	-0.040310
O34	O	0.620531	0.427573	-0.040314
O35	O	0.410827	0.488406	0.089618
O36	O	0.410815	0.540314	0.029768
O37	O	0.514666	0.488356	-0.030110
O38	O	0.514678	0.436447	0.029740
C39	C	0.323940	0.462491	-0.000125
C40	C	0.276830	0.462514	-0.000110
C41	C	-0.097736	0.500768	0.044017
C42	C	0.079217	0.500814	0.044050
O43	O	0.069485	0.533436	0.081622
N44	N	0.139692	0.462481	-0.000137
C45	C	0.155928	0.424135	-0.044337
O46	O	0.211426	0.391535	-0.081923
C47	C	-0.021024	0.424092	-0.044372
C48	C	-0.081499	0.462425	-0.000179
C49	C	-0.158207	0.539098	0.088206
C50	C	-0.202443	0.539085	0.088199
C51	C	-0.186206	0.500741	0.044004
C52	C	-0.125734	0.462411	-0.000185
C53	C	-0.004788	0.385750	-0.088574
C54	C	-0.049032	0.385743	-0.088580
C55	C	-0.109507	0.424076	-0.044387
C56	C	-0.153733	0.424055	-0.044388
N57	N	-0.214208	0.462388	-0.000201
C58	C	-0.230444	0.500731	0.043994
C59	C	0.248828	0.424160	-0.044315
C60	C	0.293066	0.424170	-0.044305
C61	C	0.216352	0.500850	0.044081
C62	C	0.172114	0.500837	0.044074
C63	C	0.188354	0.462493	-0.000128
C64	C	-0.323338	0.500700	0.043977
C65	C	-0.367574	0.500682	0.043968
C66	C	-0.290856	0.424004	-0.044420
C67	C	-0.246624	0.424020	-0.044409
C68	C	-0.262870	0.462373	-0.000208
O69	O	-0.144045	0.391453	-0.081944
O70	O	-0.285945	0.533333	0.081567
C71	C	-0.053500	0.500782	0.044024
C72	C	0.006971	0.462452	-0.000165
C73	C	0.023208	0.424109	-0.044361
C74	C	0.051209	0.462462	-0.000156
C75	C	0.034973	0.500805	0.044040
C76	C	-0.025502	0.539138	0.088227
C77	C	-0.069737	0.539125	0.088220
C78	C	0.083682	0.385775	-0.088547
C79	C	0.127915	0.385792	-0.088537
C80	C	0.111678	0.424135	-0.044341
C81	C	0.462760	0.323664	-0.000162
C82	C	0.462765	0.276570	-0.000160
C83	C	0.462731	-0.015436	-0.044347
C84	C	0.462723	-0.192423	-0.044351
O85	O	0.462693	-0.215296	-0.081909
N86	N	0.462729	-0.214553	-0.000173
C87	C	0.462733	-0.192432	0.044012
O88	O	0.462731	-0.215313	0.081592
C89	C	0.462736	-0.015444	0.044019
C90	C	0.462736	0.006681	-0.000166
C91	C	0.462731	0.006689	-0.088528
C92	C	0.462736	0.050931	-0.088528
C93	C	0.462741	0.073049	-0.044347
C94	C	0.462741	0.050923	-0.000167
C95	C	0.462735	0.006679	0.088206
C96	C	0.462735	0.050929	0.088204
C97	C	0.462735	0.073054	0.044019
C98	C	0.462752	0.117283	0.044014
N99	N	0.462746	0.139413	-0.000165
C100	C	0.462741	0.117296	-0.044345
C101	C	0.462732	-0.285353	0.044005
C102	C	0.462732	-0.329601	0.044003
C103	C	0.462722	-0.329588	-0.044360
C104	C	0.462726	-0.285342	-0.044360
C105	C	0.462726	-0.263223	-0.000173
C106	C	0.462752	0.210208	-0.044343
C107	C	0.462760	0.254453	-0.044341
C108	C	0.462767	0.254438	0.044024
C109	C	0.462763	0.210195	0.044020
C110	C	0.462753	0.188082	-0.000166
O111	O	0.462776	0.140187	0.081556
O112	O	0.462729	0.140191	-0.081912
C113	C	0.462726	-0.059679	-0.044347
C114	C	0.462726	-0.081804	-0.000166
C115	C	0.462731	-0.059687	0.044015
C116	C	0.462726	-0.126051	-0.000168
C117	C	0.462721	-0.148168	-0.044348
C118	C	0.462715	-0.126038	-0.088527
C119	C	0.462720	-0.081796	-0.088527
C120	C	0.462737	-0.081817	0.088194
C121	C	0.462733	-0.126059	0.088190
C122	C	0.462727	-0.148177	0.044009
C123	C	0.601553	0.462361	-0.000213
C124	C	0.648662	0.462338	-0.000228
C125	C	0.462730	0.462424	-0.160151
C126	C	0.462724	0.462423	-0.214448
C127	C	0.462732	0.601188	-0.000175
C128	C	0.462727	0.648282	-0.000177
C129	C	0.516965	0.435309	-0.582438
C130	C	0.516968	0.435310	-0.633460
O131	O	0.563071	0.412260	-0.686430
N132	N	0.462760	0.462431	-0.627722
C133	C	0.408545	0.489557	-0.570956
O134	O	0.362436	0.512626	-0.570760
C135	C	0.408542	0.489558	-0.519935
C136	C	0.462754	0.462431	-0.525678
C137	C	0.571173	0.408184	-0.588178
C138	C	0.571169	0.408182	-0.537159
C139	C	0.516958	0.435304	-0.480400
C140	C	0.462750	0.462429	-0.474660
C141	C	0.354327	0.516686	-0.463171
C142	C	0.354329	0.516685	-0.412150
C143	C	0.408541	0.489558	-0.417893
C144	C	0.408536	0.489549	-0.366881
N145	N	0.462744	0.462428	-0.372620
C146	C	0.516955	0.435306	-0.429379
C147	C	0.408554	0.489553	-0.678106
C148	C	0.408556	0.489549	-0.729126
C149	C	0.516980	0.435303	-0.791626
C150	C	0.516978	0.435304	-0.740605
C151	C	0.462763	0.462432	-0.683845
C152	C	0.516944	0.435303	-0.322233
C153	C	0.516935	0.435301	-0.271207
C154	C	0.408512	0.489549	-0.208711
C155	C	0.408520	0.489548	-0.259733
C156	C	0.462741	0.462424	-0.316495
O157	O	0.362457	0.512589	-0.313893
O158	O	0.563056	0.412246	-0.429564
C159	C	0.462762	0.462428	0.159814
C160	C	0.462768	0.462429	0.214110
C161	C	0.323925	0.601253	-0.000131
C162	C	0.276811	0.648370	-0.000118
C163	C	0.323956	0.462493	0.159858
C164	C	0.276852	0.462516	0.214169
C165	C	0.323942	0.601255	0.159851
C166	C	0.276833	0.648373	0.214161
C167	C	0.601551	0.323597	-0.160189
C168	C	0.648660	0.276479	-0.214498
C169	C	0.601567	0.323599	-0.000207
C170	C	0.648681	0.276482	-0.000219
C171	C	0.601536	0.462359	-0.160195
C172	C	0.648641	0.462336	-0.214507
C173	C	0.254685	0.643400	-0.031356
C174	C	0.210422	0.687667	-0.031356
C175	C	0.188283	0.736903	-0.000114
C176	C	0.210413	0.741872	0.031125
C177	C	0.254678	0.697606	0.031121
C178	C	0.254732	0.489623	0.270918
C179	C	0.210478	0.489643	0.321955
C180	C	0.188343	0.462558	0.316241
C181	C	0.210468	0.435448	0.259486
C182	C	0.254723	0.435425	0.208451
C183	C	0.254704	0.697600	0.208424
C184	C	0.210446	0.741876	0.259449
C185	C	0.188315	0.736923	0.316209
C186	C	0.210448	0.687691	0.321945
C187	C	0.254708	0.643416	0.270921
C188	C	0.670794	0.227252	-0.208762
C189	C	0.715065	0.182976	-0.259786
C190	C	0.737199	0.187929	-0.316547
C191	C	0.715063	0.237161	-0.322282
C192	C	0.670795	0.281436	-0.271259
C193	C	0.670812	0.281452	0.031013
C194	C	0.715087	0.237185	0.030999
C195	C	0.737228	0.187949	-0.000245
C196	C	0.715096	0.182980	-0.031481
C197	C	0.670824	0.227246	-0.031470
C198	C	0.670762	0.489426	-0.208774
C199	C	0.715015	0.489414	-0.259800
C200	C	0.737150	0.462309	-0.316560
C201	C	0.715024	0.435219	-0.322292
C202	C	0.670768	0.435233	-0.271266
H203	H	-0.171438	0.570324	0.124197
C204	C	0.576586	0.405463	-0.384667
C205	C	0.621310	0.419585	-0.403427
C206	C	0.680950	0.389742	-0.465861
C207	C	0.695867	0.345777	-0.509534
C208	C	0.651142	0.331653	-0.490775
C209	C	0.591501	0.361496	-0.428342
H210	H	0.610268	0.452132	-0.371097
H211	H	0.714059	0.400198	-0.479747
H212	H	0.740017	0.323686	-0.555751
H213	H	0.662183	0.299106	-0.523106
H214	H	0.558393	0.351040	-0.414455
H215	H	0.272749	0.511679	0.275582
C216	C	0.462716	-0.057459	-0.137129
C217	C	0.411069	-0.001203	-0.119509
C218	C	0.411063	0.023131	-0.168112
C219	C	0.462703	-0.008791	-0.234335
C220	C	0.514354	-0.065050	-0.251958
C221	C	0.514360	-0.089384	-0.203355
H222	H	0.372838	0.022430	-0.070484
H223	H	0.372828	0.064778	-0.155066
H224	H	0.462699	0.009223	-0.270315
H225	H	0.552584	-0.088683	-0.300983
H226	H	0.552595	-0.131031	-0.216401
H227	H	0.364411	0.511632	-0.724442
H228	H	0.652775	0.223210	-0.162549
H229	H	0.462726	-0.267330	-0.080339
C230	C	0.646478	0.221774	-0.065822
C231	C	0.597779	0.270459	-0.065815
C232	C	0.573435	0.264982	-0.100169
C233	C	0.597790	0.210821	-0.134529
C234	C	0.646492	0.162133	-0.134537
C235	C	0.670836	0.167610	-0.100184
H236	H	0.579747	0.310555	-0.040378
H237	H	0.537382	0.301025	-0.100162
H238	H	0.579769	0.206767	-0.159960
H239	H	0.664523	0.122036	-0.159974
H240	H	0.706888	0.131567	-0.100190
C241	C	-0.031165	0.343562	-0.137202
C242	C	-0.051008	0.307192	-0.119607
C243	C	-0.033140	0.265010	-0.168228
C244	C	0.004571	0.259198	-0.234444
C245	C	0.024416	0.295569	-0.252042
C246	C	0.006548	0.337751	-0.203421
H247	H	-0.078926	0.311493	-0.070587
H248	H	-0.047831	0.238086	-0.155201
H249	H	0.017797	0.227973	-0.270436
H250	H	0.052334	0.291268	-0.301062
H251	H	0.021239	0.364675	-0.216449
C252	C	0.646443	0.405427	-0.277578
C253	C	0.597765	0.405435	-0.221459
C254	C	0.573441	0.375628	-0.227777
C255	C	0.597795	0.345812	-0.290213
C256	C	0.646476	0.345803	-0.346337
C257	C	0.670800	0.375611	-0.340019
H258	H	0.579734	0.427507	-0.175236
H259	H	0.537404	0.375634	-0.186231
H260	H	0.579789	0.323747	-0.294890
H261	H	0.664507	0.323731	-0.392560
H262	H	0.706837	0.375604	-0.381565
H263	H	0.152239	0.772943	-0.000115
C264	C	-0.434098	0.542851	0.092582
C265	C	-0.459672	0.600294	0.099280
C266	C	-0.526192	0.642463	0.147891
C267	C	-0.567139	0.627189	0.189805
C268	C	-0.541566	0.569743	0.183108
C269	C	-0.475046	0.527574	0.134497
H270	H	-0.429360	0.611604	0.068251
H271	H	-0.545123	0.684988	0.152848
H272	H	-0.616382	0.658405	0.225790
H273	H	-0.571878	0.558433	0.214136
H274	H	-0.456115	0.485049	0.129540
H275	H	0.152276	0.772979	0.357751
C276	C	0.186096	0.682249	0.384384
C277	C	0.210429	0.628103	0.390706
C278	C	0.186072	0.622663	0.453147
C279	C	0.137383	0.671368	0.509266
C280	C	0.113048	0.725517	0.502946
C281	C	0.137404	0.730958	0.440505
H282	H	0.246474	0.592045	0.349162
H283	H	0.204087	0.582577	0.457825
H284	H	0.119353	0.667340	0.555489
H285	H	0.077003	0.761575	0.544491
H286	H	0.119390	0.771043	0.435827
H287	H	-0.277646	0.392785	-0.080401
H288	H	0.272720	0.603335	0.275600
H289	H	0.652788	0.321539	0.056459
H290	H	0.192470	0.511721	0.368162
H291	H	0.272687	0.701659	0.056562
H292	H	0.192430	0.781959	0.254768
H293	H	0.310180	0.538777	-0.365933
H294	H	0.364376	0.511630	-0.255056
C295	C	0.646417	0.519247	-0.146343
C296	C	0.597737	0.519271	-0.090207
C297	C	0.573393	0.549097	-0.027778
C298	C	0.597729	0.578898	-0.021484
C299	C	0.646412	0.578874	-0.077622
C300	C	0.670756	0.549049	-0.140051
H301	H	0.579719	0.497210	-0.094865
H302	H	0.537354	0.549114	0.013778
H303	H	0.579708	0.600976	0.024729
H304	H	0.664430	0.600936	-0.072964
H305	H	0.706795	0.549032	-0.181607
H306	H	0.733081	0.142894	-0.255105
C307	C	0.630813	0.378345	-0.650610
C308	C	0.675535	0.392468	-0.669368
C309	C	0.735180	0.362622	-0.731798
C310	C	0.750103	0.318652	-0.775470
C311	C	0.705380	0.304526	-0.756714
C312	C	0.645735	0.334372	-0.694284
H313	H	0.664489	0.425020	-0.637038
H314	H	0.768287	0.373080	-0.745683
H315	H	0.794256	0.296559	-0.821685
H316	H	0.716426	0.271975	-0.789044
H317	H	0.612628	0.323915	-0.680399
H318	H	-0.336574	0.531930	0.079970
H319	H	0.561083	0.413209	-0.275890
C320	C	0.576615	0.405477	-0.854069
C321	C	0.576612	0.405486	-0.910187
C322	C	0.636243	0.375664	-0.972629
C323	C	0.695876	0.345832	-0.978953
C324	C	0.695882	0.345821	-0.922834
C325	C	0.636251	0.375643	-0.860392
H326	H	0.532466	0.427571	-0.905507
H327	H	0.636238	0.375672	-1.014172
H328	H	0.740018	0.323756	-1.025177
H329	H	0.740028	0.323737	-0.927514
H330	H	0.636255	0.375635	-0.818848
H331	H	0.462714	-0.144055	-0.124502
H332	H	0.192381	0.781966	0.056560
C333	C	0.139659	0.462589	0.372384
C334	C	0.115328	0.492411	0.434805
C335	C	0.066642	0.492445	0.490950
C336	C	0.042287	0.462657	0.484674
C337	C	0.066618	0.432832	0.422250
C338	C	0.115304	0.432798	0.366105
H339	H	0.133357	0.514465	0.439453
H340	H	0.048631	0.514524	0.537160
H341	H	0.006247	0.462682	0.526235
H342	H	0.048589	0.410779	0.417602
H343	H	0.133315	0.410719	0.319895
C344	C	0.739351	0.519212	-0.253487
C345	C	0.806297	0.490132	-0.279987
C346	C	0.830633	0.519928	-0.273672
C347	C	0.788022	0.578805	-0.240857
C348	C	0.721072	0.607888	-0.214354
C349	C	0.696737	0.578092	-0.220669
H350	H	0.837844	0.446545	-0.304281
H351	H	0.880194	0.498399	-0.293291
H352	H	0.806037	0.600862	-0.236182
H353	H	0.689526	0.651475	-0.190060
H354	H	0.647176	0.599621	-0.201050
C355	C	0.785923	0.139258	-0.000248
C356	C	0.846777	0.129803	-0.025165
C357	C	0.895470	0.081115	-0.025164
C358	C	0.883309	0.041882	-0.000246
C359	C	0.822452	0.051336	0.024673
C360	C	0.773759	0.100024	0.024671
H361	H	0.855782	0.158847	-0.043612
H362	H	0.940520	0.074117	-0.043610
H363	H	0.919354	0.005841	-0.000245
H364	H	0.813447	0.022293	0.043120
H365	H	0.728709	0.107022	0.043118
H366	H	0.192439	0.413396	0.254842
C367	C	0.739411	0.242602	-0.384723
C368	C	0.733327	0.219622	-0.428378
C369	C	0.757674	0.225060	-0.490820
C370	C	0.788106	0.253479	-0.509607
C371	C	0.794192	0.276460	-0.465951
C372	C	0.769844	0.271022	-0.403509
H373	H	0.710798	0.198583	-0.414471
H374	H	0.753169	0.208048	-0.523136
H375	H	0.806129	0.257505	-0.555830
H376	H	0.816720	0.297499	-0.479857
H377	H	0.774349	0.288035	-0.371192
H378	H	0.773244	0.151873	-0.358089
H379	H	0.652774	0.321517	-0.275937
C380	C	0.279048	0.405610	0.146027
C381	C	0.254693	0.375822	0.139749
C382	C	0.279015	0.346004	0.077327
C383	C	0.327693	0.345974	0.021182
C384	C	0.352051	0.375763	0.027458
C385	C	0.327728	0.405581	0.089881
H386	H	0.218656	0.375843	0.181312
H387	H	0.260984	0.323952	0.072681
H388	H	0.345698	0.323901	-0.025027
H389	H	0.388088	0.375742	-0.014105
H390	H	0.345760	0.427633	0.094526
H391	H	0.462733	0.068944	-0.124506
H392	H	0.272716	0.701642	0.162211
H393	H	0.561122	0.413215	-0.745287
H394	H	0.733100	0.241241	0.056437
H395	H	0.733129	0.142886	-0.056919
H396	H	0.733053	0.413150	-0.368512
C397	C	-0.268962	0.581256	0.136810
C398	C	-0.294524	0.638697	0.143503
C399	C	-0.361042	0.680873	0.192114
C400	C	-0.401998	0.665607	0.234033
C401	C	-0.376436	0.608164	0.227341
C402	C	-0.309918	0.565988	0.178730
H403	H	-0.264206	0.650000	0.112471
H404	H	-0.379965	0.723397	0.197068
H405	H	-0.451238	0.696828	0.270018
H406	H	-0.406754	0.596861	0.258373
H407	H	-0.290995	0.523464	0.173776
C408	C	0.105593	0.543006	0.092683
C409	C	0.080026	0.600448	0.099382
C410	C	0.013506	0.642620	0.147992
C411	C	-0.027446	0.627349	0.189904
C412	C	-0.001879	0.569904	0.183206
C413	C	0.064641	0.527732	0.134596
H414	H	0.110342	0.611755	0.068355
H415	H	-0.005420	0.685145	0.152950
H416	H	-0.076688	0.658567	0.225888
H417	H	-0.032195	0.558597	0.214233
H418	H	0.083567	0.485207	0.129638
C419	C	0.785835	0.462292	-0.372686
C420	C	0.810168	0.492090	-0.366372
C421	C	0.858855	0.492073	-0.422495
C422	C	0.883210	0.462259	-0.484932
C423	C	0.858878	0.432459	-0.491248
C424	C	0.810190	0.432476	-0.435125
H425	H	0.792139	0.514162	-0.320150
H426	H	0.876867	0.514133	-0.417819
H427	H	0.919251	0.462247	-0.526478
H428	H	0.876907	0.410387	-0.537470
H429	H	0.792178	0.410416	-0.439801
H430	H	0.342305	0.392950	-0.080285
C431	C	0.198496	0.543031	0.092695
C432	C	0.218354	0.579389	0.075082
C433	C	0.200502	0.621570	0.123690
C434	C	0.162791	0.627394	0.189911
C435	C	0.142930	0.591036	0.207527
C436	C	0.160782	0.548854	0.158919
H437	H	0.246272	0.575078	0.026059
H438	H	0.215205	0.648485	0.110650
H439	H	0.149576	0.658620	0.225893
H440	H	0.115012	0.595346	0.256550
H441	H	0.146080	0.521939	0.171959
C442	C	0.462729	-0.017650	0.136813
C443	C	0.411085	0.014281	0.203033
C444	C	0.411077	-0.010046	0.251645
C445	C	0.462713	-0.066304	0.234036
C446	C	0.514361	-0.098238	0.167813
C447	C	0.514369	-0.073911	0.119202
H448	H	0.372858	0.055930	0.216071
H449	H	0.372843	0.013594	0.300668
H450	H	0.462707	-0.084312	0.270021
H451	H	0.552588	-0.139886	0.154775
H452	H	0.552602	-0.097551	0.070179
H453	H	0.615314	0.386095	-0.541843
H454	H	0.262061	0.392934	-0.080311
H455	H	0.462741	-0.063812	0.124172
C456	C	0.061728	0.343585	-0.137193
C457	C	0.102671	0.358863	-0.179105
C458	C	0.169188	0.316697	-0.227730
C459	C	0.194762	0.259252	-0.234442
C460	C	0.153819	0.243970	-0.192528
C461	C	0.087302	0.286137	-0.143904
H462	H	0.083739	0.401390	-0.174137
H463	H	0.199497	0.328009	-0.258757
H464	H	0.244002	0.228037	-0.270437
H465	H	0.172750	0.201443	-0.197496
H466	H	0.056993	0.274824	-0.112877
C467	C	-0.136256	0.581295	0.136831
C468	C	-0.177235	0.617649	0.119225
C469	C	-0.243753	0.659822	0.167838
C470	C	-0.269293	0.665642	0.234056
C471	C	-0.228314	0.629286	0.251665
C472	C	-0.161796	0.587113	0.203052
H473	H	-0.158329	0.613342	0.070203
H474	H	-0.274088	0.686735	0.154802
H475	H	-0.318534	0.696861	0.270042
H476	H	-0.247220	0.633593	0.300687
H477	H	-0.131461	0.560200	0.216088
C478	C	0.194437	0.343622	-0.137154
C479	C	0.219970	0.337812	-0.203369
C480	C	0.286490	0.295646	-0.251988
C481	C	0.327476	0.259291	-0.234391
C482	C	0.301944	0.265099	-0.168172
C483	C	0.235425	0.307265	-0.119553
H484	H	0.189629	0.364725	-0.216398
H485	H	0.305390	0.291346	-0.301008
H486	H	0.376718	0.228077	-0.270382
H487	H	0.332285	0.238186	-0.155143
H488	H	0.216524	0.311565	-0.070534
H489	H	-0.197382	0.392794	-0.080380
H490	H	0.096912	0.354551	-0.124538
C491	C	0.462757	0.278791	-0.092945
C492	C	0.411116	0.298545	-0.099624
C493	C	0.411113	0.322883	-0.148226
C494	C	0.462750	0.327466	-0.190149
C495	C	0.514396	0.307711	-0.183472
C496	C	0.514399	0.283373	-0.134870
H497	H	0.372887	0.295153	-0.068588
H498	H	0.372881	0.337507	-0.153168
H499	H	0.462748	0.345482	-0.226127
H500	H	0.552624	0.311103	-0.214507
H501	H	0.552631	0.268750	-0.129928
H502	H	-0.038715	0.570357	0.124215
H503	H	0.462724	-0.011314	-0.124505
C504	C	0.462711	-0.353920	-0.092957
C505	C	0.411156	-0.358638	-0.075308
C506	C	0.411140	-0.382970	-0.123899
C507	C	0.462680	-0.402584	-0.190138
C508	C	0.514239	-0.397867	-0.207790
C509	C	0.514254	-0.373535	-0.159199
H510	H	0.373001	-0.344118	-0.026271
H511	H	0.372973	-0.386462	-0.110832
H512	H	0.462668	-0.420596	-0.226108
H513	H	0.552394	-0.412387	-0.256827
H514	H	0.552422	-0.370043	-0.172267
H515	H	0.462743	0.192209	-0.080323
H516	H	0.192409	0.683611	-0.056794
H517	H	0.462742	-0.347616	0.079977
H518	H	0.462733	0.068937	0.124188
C519	C	0.462767	0.185854	0.092621
C520	C	0.411131	0.217782	0.158844
C521	C	0.411129	0.193449	0.207450
C522	C	0.462763	0.137188	0.189833
C523	C	0.514404	0.105257	0.123607
C524	C	0.514406	0.129590	0.075001
H525	H	0.372904	0.259433	0.171887
H526	H	0.372900	0.217087	0.256474
H527	H	0.462762	0.119175	0.225814
H528	H	0.552631	0.063606	0.110564
H529	H	0.552634	0.105952	0.025977
C530	C	0.462770	0.278772	0.092623
C531	C	0.411129	0.335031	0.134544
C532	C	0.411126	0.359370	0.183147
C533	C	0.462766	0.327449	0.189830
C534	C	0.514411	0.271186	0.147908
C535	C	0.514413	0.246848	0.099305
H536	H	0.372899	0.358664	0.129598
H537	H	0.372895	0.401019	0.214180
H538	H	0.462764	0.345465	0.225809
H539	H	0.552641	0.247554	0.152854
H540	H	0.552645	0.205199	0.068271
H541	H	0.462737	-0.144073	0.124170
C542	C	0.348913	0.519388	-0.615669
C543	C	0.333986	0.563357	-0.571991
C544	C	0.274345	0.593193	-0.509558
C545	C	0.229631	0.579059	-0.490802
C546	C	0.244557	0.535088	-0.534481
C547	C	0.304198	0.505253	-0.596914
H548	H	0.367087	0.573821	-0.585874
H549	H	0.263296	0.625743	-0.477224
H550	H	0.185481	0.601145	-0.444585
H551	H	0.211456	0.524624	-0.520598
H552	H	0.315247	0.472703	-0.629248
C553	C	0.348882	0.519386	-0.146271
C554	C	0.289248	0.549228	-0.139947
C555	C	0.229617	0.579071	-0.077505
C556	C	0.229620	0.579071	-0.021387
C557	C	0.289256	0.549228	-0.027710
C558	C	0.348887	0.519386	-0.090152
H559	H	0.289244	0.549229	-0.181490
H560	H	0.185471	0.601163	-0.072825
H561	H	0.185478	0.601162	0.024836
H562	H	0.289261	0.549227	0.013834
H563	H	0.393033	0.497294	-0.094832
H564	H	0.310182	0.538777	-0.458483
H565	H	0.462733	-0.267347	0.079988
H566	H	0.272710	0.603313	-0.056804
