data_functionalizedCrystal
_audit_creation_method	'MofGen! by Chris Wilmer'
_symmetry_space_group_name_H-M	'P1'
_symmetry_Int_Tables_number	1
_symmetry_cell_setting	triclinic
loop_
_symmetry_equiv_pos_as_xyz
  x,y,z
_cell_length_a	15.944551
_cell_length_b	12.837942
_cell_length_c	11.892095
_cell_angle_alpha	85.697431
_cell_angle_beta	86.105155
_cell_angle_gamma	90.836161
loop_
_atom_site_label
_atom_site_type_symbol
_atom_site_fract_x
_atom_site_fract_y
_atom_site_fract_z
O1	O	1.130053	-0.127078	-0.093883
O2	O	1.630053	0.372922	0.406117
O3	O	0.886824	-0.143559	-0.093911
O4	O	1.386824	0.356441	0.406089
O5	O	1.003045	0.015584	-0.093891
O6	O	1.503045	0.515584	0.406109
O7	O	1.013832	-0.286221	-0.093904
O8	O	1.513832	0.213779	0.406096
O9	O	0.993353	0.002336	0.094115
O10	O	1.493353	0.502336	0.594115
O11	O	0.877132	-0.156808	0.094095
O12	O	1.377132	0.343192	0.594095
O13	O	1.120361	-0.140326	0.094122
O14	O	1.620361	0.359674	0.594122
Zn15	Zn	0.997208	-0.150670	0.123958
Zn16	Zn	1.497208	0.349330	0.623958
Zn17	Zn	1.009977	-0.133215	-0.123747
Zn18	Zn	1.509977	0.366785	0.376253
O19	O	1.004140	-0.299470	0.094102
O20	O	1.504140	0.200530	0.594102
C21	C	0.850629	-0.149499	0.000088
C22	C	1.350629	0.350501	0.500088
C23	C	0.757219	-0.147447	0.000078
C24	C	1.257219	0.352553	0.500078
C25	C	0.994555	0.047581	0.000111
C26	C	1.494555	0.547581	0.500111
C27	C	0.983687	0.162659	0.000108
C28	C	1.483687	0.662659	0.500108
N29	N	0.988499	-0.162583	0.293011
N30	N	1.488499	0.337417	0.793011
C31	C	0.534078	-0.043899	0.000104
C32	C	1.034078	0.456101	0.500104
C33	C	0.481683	-0.085452	-0.092595
C34	C	0.981683	0.414548	0.407405
C35	C	0.586196	-0.143736	0.000091
C36	C	1.086196	0.356264	0.500091
C37	C	0.472152	-0.098537	0.092764
C38	C	0.972152	0.401463	0.592764
C39	C	0.420995	-0.140145	0.000109
C40	C	0.920995	0.359855	0.500109
C41	C	0.535035	-0.185310	-0.092684
C42	C	1.035035	0.314690	0.407316
C43	C	0.525505	-0.198388	0.092758
C44	C	1.025505	0.301612	0.592758
C45	C	0.473135	-0.240011	0.000036
C46	C	0.973135	0.259989	0.500036
C47	C	0.681364	-0.145802	0.000080
C48	C	1.181364	0.354198	0.500080
C49	C	0.325829	-0.138086	0.000112
C50	C	0.825829	0.361914	0.500112
C51	C	1.156556	-0.134386	0.000121
C52	C	1.656556	0.365614	0.500121
C53	C	1.249966	-0.136438	0.000124
C54	C	1.749966	0.363562	0.500124
C55	C	1.012630	-0.331466	0.000098
C56	C	1.512630	0.168534	0.500098
C57	C	1.023498	-0.446544	0.000094
C58	C	1.523498	0.053456	0.500094
C59	C	1.114340	0.403609	0.000099
C60	C	1.614340	0.903609	0.500099
C61	C	1.104133	0.511736	0.000096
C62	C	1.604133	1.011736	0.500096
C63	C	0.953066	0.487042	0.000091
C64	C	1.453066	0.987042	0.500091
C65	C	0.963274	0.378915	0.000094
C66	C	1.463274	0.878915	0.500094
C67	C	1.043913	0.337203	0.000100
C68	C	1.543913	0.837203	0.500100
C69	C	1.054119	0.229073	0.000111
C70	C	1.554119	0.729073	0.500111
C71	C	0.903054	0.204382	0.000097
C72	C	1.403054	0.704382	0.500097
C73	C	0.892846	0.312509	0.000094
C74	C	1.392846	0.812509	0.500094
N75	N	1.018692	-0.121294	-0.292800
N76	N	1.518692	0.378706	0.207200
C77	C	1.079287	-0.038343	0.529675
C78	C	1.579287	0.461657	1.029675
C79	C	1.073206	-0.046677	0.648016
C80	C	1.573206	0.453323	1.148016
C81	C	0.970253	-0.187580	0.648036
C82	C	1.470253	0.312420	1.148036
C83	C	0.976334	-0.179246	0.529695
C84	C	1.476334	0.320754	1.029695
C85	C	1.030853	-0.104626	0.470519
C86	C	1.530853	0.395374	0.970519
C87	C	1.036938	-0.096297	0.352176
C88	C	1.536938	0.403703	0.852176
C89	C	0.933981	-0.237194	0.352198
C90	C	1.433981	0.262806	0.852198
C91	C	0.927900	-0.245528	0.470539
C92	C	1.427900	0.254472	0.970539
H93	H	0.560789	0.038966	-0.000007
H94	H	1.060789	0.538966	0.499993
H95	H	1.161482	0.565801	0.000092
H96	H	1.661482	1.065801	0.500092
C97	C	1.190993	0.223630	-0.096545
C98	C	1.690993	0.723630	0.403455
C99	C	1.142755	0.183216	0.000108
C100	C	1.642755	0.683216	0.500108
H101	H	1.245712	0.195315	-0.096552
H102	H	1.745712	0.695315	0.403448
H103	H	1.194992	0.297521	-0.096538
H104	H	1.694992	0.797521	0.403462
H105	H	1.164994	0.205445	-0.162096
H106	H	1.664994	0.705445	0.337904
H107	H	1.168751	0.201408	0.065658
H108	H	1.668751	0.701408	0.565658
H109	H	1.138759	0.109309	0.000111
H110	H	1.638759	0.609309	0.500111
H111	H	0.544971	-0.246103	0.171128
H112	H	1.044971	0.253897	0.671128
H113	H	0.883509	-0.306280	0.518734
H114	H	1.383509	0.193720	1.018734
H115	H	1.179999	0.369646	0.000115
H116	H	1.679999	0.869646	0.500115
C117	C	0.850905	-0.219340	0.781154
C118	C	1.350905	0.280660	1.281154
C119	C	0.910326	-0.269588	0.713106
C120	C	1.410326	0.230412	1.213106
H121	H	0.813913	-0.269969	0.821332
H122	H	1.313913	0.230031	1.321332
H123	H	0.819611	-0.172933	0.734987
H124	H	1.319611	0.327067	1.234987
H125	H	0.878896	-0.181052	0.833308
H126	H	1.378896	0.318948	1.333308
H127	H	0.882336	-0.307870	0.660946
H128	H	1.382336	0.192130	1.160946
H129	H	0.941624	-0.316013	0.759277
H130	H	1.441624	0.183987	1.259277
C131	C	0.659773	-0.236224	-0.197678
C132	C	1.159773	0.263776	0.302322
C133	C	0.572027	-0.234800	-0.198605
C134	C	1.072027	0.265200	0.301395
H135	H	0.682610	-0.266769	-0.263073
H136	H	1.182610	0.233231	0.236927
H137	H	0.675093	-0.276082	-0.131944
H138	H	1.175093	0.223918	0.368056
H139	H	0.681125	-0.166782	-0.197409
H140	H	1.181125	0.333218	0.302591
H141	H	0.550675	-0.304244	-0.198866
H142	H	1.050675	0.195756	0.301134
H143	H	0.556700	-0.194943	-0.264357
H144	H	1.056700	0.305057	0.235643
H145	H	0.887414	0.521025	0.000074
H146	H	1.387414	1.021025	0.500074
C147	C	0.347239	-0.048435	0.197960
C148	C	0.847239	0.451565	0.697960
C149	C	0.435019	-0.048971	0.198560
C150	C	0.935019	0.451029	0.698560
H151	H	0.324319	-0.017824	0.263267
H152	H	0.824319	0.482176	0.763267
H153	H	0.326308	-0.118095	0.198080
H154	H	0.826308	0.381905	0.698080
H155	H	0.331559	-0.009007	0.132130
H156	H	0.831559	0.490993	0.632130
H157	H	0.450699	-0.088406	0.264386
H158	H	0.950699	0.411594	0.764386
H159	H	0.455958	0.020701	0.198450
H160	H	0.955958	0.520701	0.698450
H161	H	0.894545	-0.291169	0.304019
H162	H	1.394545	0.208831	0.804019
H163	H	0.827192	0.346487	0.000085
H164	H	1.327192	0.846487	0.500085
H165	H	0.845706	0.150301	0.000106
H166	H	1.345706	0.650301	0.500106
H167	H	0.446614	-0.322950	-0.000019
H168	H	0.946614	0.177050	0.499981
C169	C	0.486262	0.081671	-0.198213
C170	C	0.986262	0.581671	0.301787
C171	C	0.455418	-0.020995	-0.198383
C172	C	0.955418	0.479005	0.301617
H173	H	0.470044	0.121467	-0.263516
H174	H	0.970044	0.621467	0.236484
H175	H	0.545849	0.081360	-0.198633
H176	H	1.045849	0.581360	0.301367
H177	H	0.463799	0.111817	-0.132380
H178	H	0.963799	0.611817	0.367620
H179	H	0.477886	-0.051144	-0.264213
H180	H	0.977886	0.448856	0.235787
H181	H	0.395820	-0.020689	-0.197974
H182	H	0.895820	0.479311	0.302026
H183	H	1.081333	-0.035541	0.303995
H184	H	1.581333	0.464459	0.803995
C185	C	1.180447	0.100091	0.541536
C186	C	1.680447	0.600091	1.041536
C187	C	1.139215	0.043673	0.464620
C188	C	1.639215	0.543673	0.964620
H189	H	1.217440	0.150729	0.501373
H190	H	1.717440	0.650729	1.001373
H191	H	1.211741	0.053666	0.587684
H192	H	1.711741	0.553666	1.087684
H193	H	1.140119	0.134155	0.587704
H194	H	1.640119	0.634155	1.087704
H195	H	1.179542	0.009603	0.418458
H196	H	1.679542	0.509603	0.918458
H197	H	1.107919	0.090105	0.418454
H198	H	1.607919	0.590105	0.918454
H199	H	1.112645	0.007298	0.696177
H200	H	1.612645	0.507298	1.196177
