data_functionalizedCrystal
_audit_creation_method	'MofGen! by Chris Wilmer'
_symmetry_space_group_name_H-M	'P1'
_symmetry_Int_Tables_number	1
_symmetry_cell_setting	triclinic
loop_
_symmetry_equiv_pos_as_xyz
  x,y,z
_cell_length_a	16.109301
_cell_length_b	9.730223
_cell_length_c	16.109301
_cell_angle_alpha	90.002753
_cell_angle_beta	83.461481
_cell_angle_gamma	89.997484
loop_
_atom_site_label
_atom_site_type_symbol
_atom_site_fract_x
_atom_site_fract_y
_atom_site_fract_z
O1	O	1.103127	0.114207	0.106864
O2	O	0.861065	0.114230	0.120163
O3	O	0.988746	0.114204	-0.007518
O4	O	0.975446	0.114233	0.234544
O5	O	0.988744	-0.114376	-0.007515
O6	O	0.861064	-0.114350	0.120166
O7	O	1.103126	-0.114373	0.106867
Zn8	Zn	0.982094	-0.150653	0.113517
Zn9	Zn	0.982096	0.150511	0.113513
O10	O	0.975445	-0.114347	0.234547
C11	C	0.830090	-0.000057	0.119626
C12	C	0.737794	-0.000049	0.118011
N13	N	0.982099	-0.356190	0.113519
C14	C	0.515522	-0.000057	0.190018
C15	C	0.428801	-0.000066	0.188494
C16	C	0.448676	-0.000078	0.037006
C17	C	0.535394	-0.000079	0.038530
C18	C	0.568815	-0.000061	0.115039
C19	C	0.395376	-0.000069	0.111990
C20	C	0.301350	-0.000079	0.110337
C21	C	0.662847	-0.000054	0.116693
C22	C	1.038650	-0.428127	0.057001
C23	C	1.038648	-0.572010	0.056991
C24	C	0.925541	-0.572006	0.170024
C25	C	0.925540	-0.428125	0.170030
C26	C	1.095210	-0.356192	0.000491
C27	C	1.151767	-0.428129	-0.056031
C28	C	1.151764	-0.572012	-0.056041
C29	C	1.095206	-0.643958	0.000471
C30	C	1.134101	-0.000082	0.107404
C31	C	1.226397	-0.000081	0.109019
C32	C	0.988206	-0.000087	-0.038491
C33	C	0.986591	-0.000088	-0.130786
N34	N	0.982098	0.356047	0.113504
C35	C	1.058599	-0.000073	-0.353059
C36	C	1.057075	-0.000062	-0.439779
C37	C	0.905586	-0.000053	-0.419905
C38	C	0.907111	-0.000055	-0.333186
C39	C	0.983620	-0.000072	-0.299766
C40	C	0.980571	-0.000059	-0.473205
C41	C	0.978918	-0.000046	-0.567231
C42	C	0.985273	-0.000082	-0.205734
C43	C	0.975984	-0.000053	0.265521
C44	C	0.977600	-0.000042	0.357816
H45	H	0.542730	-0.000053	0.252317
H46	H	0.578788	-0.000087	-0.022530
H47	H	0.385413	-0.000065	0.249550
O48	O	0.416071	-0.000023	-0.037239
C49	C	0.328102	-0.000052	-0.022509
H50	H	0.307718	0.043227	0.042378
H51	H	0.301491	0.066310	-0.071461
H52	H	0.303965	-0.109713	-0.026533
H53	H	1.120897	-0.000084	-0.325851
H54	H	1.095218	-0.239035	0.000495
H55	H	1.118130	-0.000060	-0.483168
O56	O	1.206642	-0.358036	-0.110874
C57	C	1.194491	-0.215616	-0.098778
H58	H	1.163436	-0.195949	-0.032672
H59	H	1.257443	-0.160916	-0.108055
H60	H	1.152768	-0.174819	-0.145823
O61	O	1.206777	-0.641681	-0.110977
C62	C	1.256679	-0.547330	-0.160865
H63	H	1.257604	-0.444771	-0.126770
H64	H	1.323076	-0.588907	-0.173527
H65	H	1.229709	-0.532019	-0.222638
H66	H	1.095203	-0.761117	0.000452
O67	O	0.870688	-0.642102	0.224889
C68	C	0.882804	-0.784521	0.212752
H69	H	0.948911	-0.804171	0.181697
H70	H	0.873536	-0.839204	0.275710
H71	H	0.835762	-0.825350	0.171035
O72	O	0.870578	-0.358449	0.225014
C73	C	0.820650	-0.452790	0.274882
H74	H	0.854732	-0.555358	0.275832
H75	H	0.807944	-0.411214	0.341276
H76	H	0.758900	-0.468085	0.247865
H77	H	0.843295	-0.000042	-0.447127
O78	O	0.834195	-0.000115	-0.281530
C79	C	0.766339	-0.000077	-0.329621
H80	H	0.787453	-0.043356	-0.394352
H81	H	0.713807	-0.066435	-0.297613
H82	H	0.742887	0.109586	-0.335784
