data_functionalizedCrystal
_audit_creation_method	'MofGen! by Chris Wilmer'
_symmetry_space_group_name_H-M	'P1'
_symmetry_Int_Tables_number	1
_symmetry_cell_setting	triclinic
loop_
_symmetry_equiv_pos_as_xyz
  x,y,z
_cell_length_a	19.121063
_cell_length_b	12.594517
_cell_length_c	12.594510
_cell_angle_alpha	90.026984
_cell_angle_beta	92.399685
_cell_angle_gamma	87.535686
loop_
_atom_site_label
_atom_site_type_symbol
_atom_site_fract_x
_atom_site_fract_y
_atom_site_fract_z
Zn1	Zn	-0.279640	-1.609101	-0.620048
Zn2	Zn	0.220360	-1.109101	-0.120048
Zn3	Zn	-0.397115	-1.601362	-0.449640
Zn4	Zn	0.102885	-1.101362	0.050360
Zn5	Zn	-0.279673	-1.431103	-0.442061
Zn6	Zn	0.220327	-0.931103	0.057939
Zn7	Zn	-0.397043	-1.423461	-0.627548
Zn8	Zn	0.102957	-0.923461	-0.127548
O9	O	-0.338368	-1.516257	-0.534824
O10	O	0.161632	-1.016257	-0.034824
O11	O	-0.295239	-1.757019	-0.597477
O12	O	0.204761	-1.257019	-0.097477
O13	O	-0.381579	-1.578736	-0.299692
O14	O	0.118421	-1.078736	0.200308
O15	O	-0.181385	-1.461152	-0.459361
O16	O	0.318615	-0.961152	0.040639
O17	O	-0.381547	-1.751333	-0.472279
O18	O	0.118453	-1.251333	0.027721
O19	O	-0.181361	-1.591926	-0.590127
O20	O	0.318639	-1.091926	-0.090127
O21	O	-0.295295	-1.453648	-0.294123
O22	O	0.204705	-0.953648	0.205877
O23	O	-0.295226	-1.281145	-0.466633
O24	O	0.204774	-0.781145	0.033367
O25	O	-0.381426	-1.448127	-0.775496
O26	O	0.118574	-0.948127	-0.275496
O27	O	-0.381458	-1.275530	-0.602909
O28	O	0.118542	-0.775530	-0.102909
O29	O	-0.295170	-1.584516	-0.769986
O30	O	0.204830	-1.084516	-0.269986
O31	O	-0.495389	-1.571326	-0.479551
O32	O	0.004611	-1.071326	0.020449
O33	O	-0.495336	-1.440623	-0.610258
O34	O	0.004664	-0.940623	-0.110258
C35	C	-0.338339	-1.239718	-0.534763
C36	C	0.161661	-0.739718	-0.034763
C37	C	-0.338343	-1.121412	-0.534763
C38	C	0.161657	-0.621412	-0.034763
C39	C	-0.291383	-0.984422	-0.460789
C40	C	0.208617	-0.484422	0.039211
C41	C	-0.274267	-1.056392	-0.556818
C42	C	0.225733	-0.556392	-0.056818
C43	C	-0.355427	-1.051016	-0.438742
C44	C	0.144573	-0.551016	0.061258
C45	C	-0.321211	-0.982598	-0.630902
C46	C	0.178789	-0.482598	-0.130902
C47	C	-0.402401	-0.977213	-0.512763
C48	C	0.097599	-0.477213	-0.012763
C49	C	-0.385309	-1.049150	-0.608860
C50	C	0.114691	-0.549150	-0.108860
C51	C	-0.520846	-1.504334	-0.546564
C52	C	-0.020846	-1.004334	-0.046564
C53	C	-0.598911	-1.499331	-0.551622
C54	C	-0.098911	-0.999331	-0.051622
C55	C	-0.635591	-1.565084	-0.486002
C56	C	-0.135591	-1.065084	0.013998
C57	C	-0.708941	-1.560385	-0.490765
C58	C	-0.208941	-1.060385	0.009235
C59	C	-0.745611	-1.489927	-0.561144
C60	C	-0.245611	-0.989927	-0.061144
C61	C	-0.708927	-1.424172	-0.626771
C62	C	-0.208927	-0.924172	-0.126771
C63	C	-0.635578	-1.428877	-0.622012
C64	C	-0.135578	-0.928877	-0.122012
C65	C	-0.967078	-1.472318	-0.578918
C66	C	-0.467078	-0.972318	-0.078918
C67	C	-1.040432	-1.467615	-0.583669
C68	C	-0.540432	-0.967615	-0.083669
C69	C	-1.040441	-1.603830	-0.447665
C70	C	-0.540441	-1.103830	0.052335
C71	C	-0.967091	-1.608525	-0.442908
C72	C	-0.467091	-1.108525	0.057092
C73	C	-0.930413	-1.542774	-0.508539
C74	C	-0.430413	-1.042774	-0.008539
C75	C	-0.820587	-1.485120	-0.566012
C76	C	-0.320587	-0.985120	-0.066012
C77	C	-0.855438	-1.547587	-0.503675
C78	C	-0.355438	-1.047587	-0.003675
C79	C	-0.155176	-1.528255	-0.523062
C80	C	0.344824	-1.028255	-0.023062
C81	C	-0.077111	-1.533368	-0.518050
C82	C	0.422889	-1.033368	-0.018050
C83	C	-0.338287	-1.516332	-0.812440
C84	C	0.161713	-1.016332	-0.312440
C85	C	-0.338252	-1.516365	-0.930743
C86	C	0.161748	-1.016365	-0.430743
C87	C	-0.338385	-0.793877	-0.534864
C88	C	0.161615	-0.293877	-0.034864
C89	C	-0.338360	-0.912184	-0.534823
C90	C	0.161640	-0.412184	-0.034823
C91	C	-0.291334	-1.590568	-0.997000
C92	C	0.208666	-1.090568	-0.497000
C93	C	-0.274137	-1.494609	-1.066672
C94	C	0.225863	-0.994609	-0.566672
C95	C	-0.355400	-1.612384	-1.071867
C96	C	0.144600	-1.112384	-0.571867
C97	C	-0.321022	-1.420356	-0.998856
C98	C	0.178978	-0.920356	-0.498856
C99	C	-0.402314	-1.538194	-1.004046
C100	C	0.097686	-1.038194	-0.504046
C101	C	-0.385142	-1.442167	-1.073688
C102	C	0.114858	-0.942167	-0.573688
C103	C	-0.338398	-1.516246	-0.258285
C104	C	0.161602	-1.016246	0.241715
C105	C	-0.338234	-1.516433	-0.139970
C106	C	0.161766	-1.016433	0.360030
H107	H	-0.605739	-1.622453	-0.428688
H108	H	-0.105739	-1.122453	0.071312
N109	N	-0.437923	-1.086663	-0.691848
N110	N	0.062077	-0.586663	-0.191848
H111	H	-0.413183	-1.133476	-0.744908
H112	H	0.086817	-0.633476	-0.244908
H113	H	-0.474399	-1.128368	-0.656353
H114	H	0.025601	-0.628368	-0.156353
H115	H	-0.825579	-1.604958	-0.446377
H116	H	-0.325579	-1.104958	0.053623
H117	H	-0.251634	-1.653215	-0.963419
H118	H	0.248366	-1.153215	-0.463419
N119	N	-0.202365	-1.470179	-1.103287
N120	N	0.297635	-0.970179	-0.603287
H121	H	-0.183632	-1.531222	-1.147363
H122	H	0.316368	-1.031222	-0.647363
H123	H	-0.205761	-1.403178	-1.147568
H124	H	0.294239	-0.903178	-0.647568
N125	N	-0.301964	-0.942999	-0.738539
N126	N	0.198036	-0.442999	-0.238539
H127	H	-0.341580	-0.895743	-0.769864
H128	H	0.158420	-0.395743	-0.269864
H129	H	-0.258116	-0.901271	-0.730585
H130	H	0.241884	-0.401271	-0.230585
N131	N	-0.437689	-1.359005	-1.117924
N132	N	0.062311	-0.859005	-0.617924
H133	H	-0.485944	-1.374820	-1.094104
H134	H	0.014056	-0.874820	-0.594104
H135	H	-0.424580	-1.286606	-1.091180
H136	H	0.075420	-0.786606	-0.591180
H137	H	-0.456483	-1.556666	-0.976378
H138	H	0.043517	-1.056666	-0.476378
H139	H	-0.456550	-0.942550	-0.494092
H140	H	0.043450	-0.442550	0.005908
H141	H	-0.738802	-1.613927	-0.437330
H142	H	-0.238802	-1.113927	0.062670
H143	H	-0.369869	-1.081111	-0.357513
H144	H	0.130131	-0.581111	0.142487
H145	H	-0.220100	-1.091015	-0.575471
H146	H	0.279900	-0.591015	-0.075471
H147	H	-0.937221	-1.418779	-0.632355
H148	H	-0.437221	-0.918779	-0.132355
H149	H	-1.070312	-1.657363	-0.394233
H150	H	-0.570312	-1.157363	0.105767
N151	N	-0.860141	-1.409115	-0.641904
N152	N	-0.360141	-0.909115	-0.141904
H153	H	-0.825778	-1.368166	-0.682753
H154	H	-0.325778	-0.868166	-0.182753
H155	H	-0.890525	-1.450465	-0.693177
H156	H	-0.390525	-0.950465	-0.193177
N157	N	-0.301703	-1.312818	-0.956586
N158	N	0.198297	-0.812818	-0.456586
H159	H	-0.253464	-1.296199	-0.979892
H160	H	0.246536	-0.796199	-0.479892
H161	H	-0.336933	-1.256803	-0.985153
H162	H	0.163067	-0.756803	-0.485153
N163	N	-0.374626	-1.719901	-1.114303
N164	N	0.125374	-1.219901	-0.614303
H165	H	-0.339157	-1.775866	-1.086320
H166	H	0.160843	-1.275866	-0.586320
H167	H	-0.422690	-1.736843	-1.090498
H168	H	0.077310	-1.236843	-0.590498
H169	H	-0.937235	-1.665897	-0.385600
H170	H	-0.437235	-1.165897	0.114400
N171	N	-0.238737	-0.946646	-0.377982
N172	N	0.261263	-0.446646	0.122018
H173	H	-0.190368	-0.975566	-0.394768
H174	H	0.309632	-0.475566	0.105232
H175	H	-0.239490	-0.866414	-0.378165
H176	H	0.260510	-0.366414	0.121835
H177	H	-1.070287	-1.410253	-0.640999
H178	H	-0.570287	-0.910253	-0.140999
N179	N	-0.748477	-1.348171	-0.702672
N180	N	-0.248477	-0.848171	-0.202672
H181	H	-0.714109	-1.307232	-0.743521
H182	H	-0.214109	-0.807232	-0.243521
H183	H	-0.778863	-1.389517	-0.753944
H184	H	-0.278863	-0.889517	-0.253944
N185	N	-0.596013	-1.357963	-0.692791
N186	N	-0.096013	-0.857963	-0.192791
H187	H	-0.630372	-1.312612	-0.738097
H188	H	-0.130372	-0.812612	-0.238097
H189	H	-0.565627	-1.310679	-0.647445
H190	H	-0.065627	-0.810679	-0.147445
