data_functionalizedCrystal
_audit_creation_method	'MofGen! by Chris Wilmer'
_symmetry_space_group_name_H-M	'P1'
_symmetry_Int_Tables_number	1
_symmetry_cell_setting	triclinic
loop_
_symmetry_equiv_pos_as_xyz
  x,y,z
_cell_length_a	12.759395
_cell_length_b	12.594516
_cell_length_c	12.759387
_cell_angle_alpha	90.030166
_cell_angle_beta	90.021028
_cell_angle_gamma	90.012577
loop_
_atom_site_label
_atom_site_type_symbol
_atom_site_fract_x
_atom_site_fract_y
_atom_site_fract_z
Zn1	Zn	1.606290	-0.423664	0.594024
Zn2	Zn	1.606189	-0.601682	0.418347
Zn3	Zn	1.430588	-0.423720	0.418360
Zn4	Zn	1.430589	-0.601604	0.593984
O5	O	1.518414	-0.512667	0.506179
O6	O	1.753297	-0.447288	0.570732
O7	O	1.582853	-0.578131	0.271327
O8	O	1.453937	-0.274767	0.441684
O9	O	1.753224	-0.578077	0.441662
O10	O	1.583024	-0.274726	0.570744
O11	O	1.453839	-0.447383	0.271337
O12	O	1.283567	-0.447307	0.441645
O13	O	1.453939	-0.577944	0.741011
O14	O	1.283568	-0.577998	0.570676
O15	O	1.583025	-0.447212	0.741040
O16	O	1.582854	-0.750617	0.441623
O17	O	1.453841	-0.750560	0.570663
C18	C	1.245447	-0.512651	0.506158
C19	C	1.128670	-0.512669	0.506174
C20	C	0.909312	-0.376722	0.640826
C21	C	0.964217	-0.308726	0.708123
C22	C	1.073938	-0.308708	0.708104
C23	C	1.128758	-0.376695	0.640785
C24	C	1.073853	-0.444691	0.573489
C25	C	0.964129	-0.444700	0.573512
C26	C	1.073765	-0.580665	0.438878
C27	C	0.964043	-0.580680	0.438889
C28	C	1.128585	-0.648653	0.371559
C29	C	1.073680	-0.716645	0.304256
C30	C	0.963952	-0.716659	0.304276
C31	C	0.909139	-0.648676	0.371593
C32	C	1.518365	-0.789208	0.506160
C33	C	1.518441	-0.907514	0.506188
C34	C	1.588692	-0.976759	0.436078
C35	C	1.614370	-1.047452	0.531971
C36	C	1.492894	-1.047620	0.410356
C37	C	1.544167	-0.976648	0.602131
C38	C	1.422647	-0.976810	0.480451
C39	C	1.448289	-1.047471	0.576411
C40	C	1.792447	-0.512685	0.506200
C41	C	1.909224	-0.512692	0.506209
C42	C	1.518493	-0.512563	0.780212
C43	C	1.518527	-0.512519	0.896989
C44	C	1.518491	-0.235047	0.506220
C45	C	1.518525	-0.116741	0.506238
C46	C	1.518395	-0.512695	0.233211
C47	C	1.518565	-0.512439	0.116435
C48	C	1.652954	-0.376397	0.897040
C49	C	1.720182	-0.308321	0.951926
C50	C	1.720208	-0.308282	1.061647
C51	C	1.652996	-0.376325	1.116485
C52	C	1.585768	-0.444401	1.061599
C53	C	1.585752	-0.444435	0.951875
C54	C	1.451337	-0.580516	1.061549
C55	C	1.451315	-0.580562	0.951827
C56	C	1.384125	-0.648559	1.116387
C57	C	1.316901	-0.716642	1.061501
C58	C	1.316879	-0.716679	0.951773
C59	C	1.384087	-0.648638	0.896941
H60	H	1.118322	-0.772000	0.249455
C61	C	0.903907	-0.233927	0.782154
N62	N	0.858485	-0.177584	0.837910
C63	C	1.249454	-0.376675	0.640772
N64	N	1.340365	-0.376659	0.640761
C65	C	1.313194	-0.934841	0.450961
N66	N	1.230754	-0.903224	0.428736
H67	H	1.774944	-0.252841	1.106335
C68	C	1.652939	-0.376441	0.776343
N69	N	1.652929	-0.376471	0.685432
H70	H	1.774903	-0.252920	0.907264
C71	C	1.653029	-0.376279	1.237182
N72	N	1.653056	-0.376248	1.328093
C73	C	1.463652	-1.089728	0.300840
N74	N	1.441634	-1.121439	0.218351
C75	C	1.384164	-0.648523	1.237084
N76	N	1.384198	-0.648504	1.327994
H77	H	1.217926	-0.648639	0.371555
C78	C	1.242967	-0.791473	1.121829
N79	N	1.187279	-0.847835	1.167273
C80	C	1.242919	-0.791569	0.891407
N81	N	1.187212	-0.847978	0.845943
C82	C	1.723858	-1.089383	0.561413
N83	N	1.806326	-1.120964	0.583582
C84	C	1.384068	-0.648670	0.776244
N85	N	1.384052	-0.648688	0.685334
H86	H	0.819798	-0.648668	0.371603
C87	C	1.134335	-0.233909	0.782132
N88	N	1.179826	-0.177569	0.837889
H89	H	1.388915	-1.078323	0.635790
H90	H	0.819971	-0.376707	0.640825
H91	H	1.565729	-0.945606	0.683266
H92	H	0.919255	-0.772035	0.249479
H93	H	1.648111	-0.945710	0.376841
