data_functionalizedCrystal
_audit_creation_method	'MofGen! by Chris Wilmer'
_symmetry_space_group_name_H-M	'P1'
_symmetry_Int_Tables_number	1
_symmetry_cell_setting	triclinic
loop_
_symmetry_equiv_pos_as_xyz
  x,y,z
_cell_length_a	16.992701
_cell_length_b	23.532357
_cell_length_c	15.455313
_cell_angle_alpha	92.642146
_cell_angle_beta	87.136501
_cell_angle_gamma	86.747731
loop_
_atom_site_label
_atom_site_type_symbol
_atom_site_fract_x
_atom_site_fract_y
_atom_site_fract_z
O1	O	1.042878	0.118375	-0.072155
O2	O	0.814603	0.117052	-0.072155
O3	O	0.935644	0.035123	-0.072137
O4	O	0.921838	0.200304	-0.072172
O5	O	0.928723	0.039787	0.072124
O6	O	0.807682	0.121717	0.072106
O7	O	1.035957	0.123039	0.072106
Cu8	Cu	0.921187	0.122804	0.085279
Cu9	Cu	0.929373	0.117288	-0.085327
O10	O	0.914916	0.204969	0.072089
C11	C	0.781944	0.117681	-0.000024
C12	C	0.694940	0.112598	-0.000023
C13	C	0.206255	0.078447	-0.000019
C14	C	0.288003	0.083227	-0.000015
C15	C	0.319114	0.137054	-0.000030
C16	C	0.268473	0.186104	-0.000041
C17	C	0.186726	0.181323	-0.000039
C18	C	0.562552	0.156868	-0.000032
C19	C	0.644305	0.161644	-0.000037
C20	C	0.663830	0.058767	-0.000009
C21	C	0.582081	0.053991	-0.000012
C22	C	0.531447	0.103041	-0.000018
N23	N	0.402674	0.141941	-0.000029
N24	N	0.447889	0.098153	-0.000014
C25	C	0.931838	0.016222	-0.000004
C26	C	0.930799	-0.047048	0.000005
C27	C	0.928055	-0.441927	-0.078679
C28	C	0.927068	-0.501376	-0.078684
O29	O	0.929740	-0.534281	-0.145561
N30	N	0.922806	-0.528569	-0.000048
C31	C	0.919522	-0.496309	0.078597
O32	O	0.915805	-0.524898	0.145483
C33	C	0.920503	-0.436862	0.078601
C34	C	0.924774	-0.409672	-0.000039
C35	C	0.932324	-0.414738	-0.157313
C36	C	0.933313	-0.355293	-0.157308
C37	C	0.930032	-0.323038	-0.078668
C38	C	0.925762	-0.350228	-0.000034
C39	C	0.917214	-0.404603	0.157246
C40	C	0.918195	-0.345151	0.157244
C41	C	0.922466	-0.317962	0.078603
C42	C	0.923469	-0.258529	0.078611
N43	N	0.927732	-0.231336	-0.000025
C44	C	0.931013	-0.263591	-0.078664
C45	C	0.917460	-0.621154	0.078583
C46	C	0.916485	-0.680601	0.078580
C47	C	0.924029	-0.685663	-0.078702
C48	C	0.925011	-0.626215	-0.078698
C49	C	0.921723	-0.593961	-0.000053
C50	C	0.933089	-0.138753	-0.078647
C51	C	0.934080	-0.079303	-0.078635
C52	C	0.926531	-0.074246	0.078646
C53	C	0.925544	-0.133691	0.078634
C54	C	0.928821	-0.165943	-0.000019
O55	O	0.920797	-0.225586	0.145454
O56	O	0.934719	-0.234994	-0.145538
C57	C	1.068616	0.122411	-0.000026
C58	C	1.155620	0.127493	-0.000033
C59	C	0.918722	0.223870	-0.000047
C60	C	0.919762	0.287140	-0.000060
N61	N	0.915436	0.126684	0.205273
N62	N	0.935131	0.113404	-0.205322
C63	C	0.966876	0.091892	0.250675
C64	C	0.962533	0.094831	0.341482
C65	C	0.906754	0.132566	0.386886
C66	C	0.855309	0.167360	0.341478
C67	C	0.859648	0.164417	0.250672
C68	C	0.888024	0.145254	0.658465
C69	C	0.883691	0.148196	0.749277
C70	C	0.990915	0.075666	0.749275
C71	C	0.995252	0.072729	0.658467
C72	C	0.943804	0.107520	0.613067
N73	N	0.902316	0.135573	0.479706
N74	N	0.948239	0.104510	0.520249
H75	H	0.521335	0.196808	-0.000042
N76	N	0.912859	-0.432357	0.237585
N77	N	0.909927	-0.403540	0.307786
H78	H	0.906851	-0.423140	0.364531
H79	H	0.928487	-0.604082	-0.142734
N80	N	1.015044	0.059274	0.387872
N81	N	1.011139	0.061885	0.468948
H82	H	1.048212	0.036761	0.501712
H83	H	0.913019	-0.702733	0.142617
N84	N	1.052367	0.034284	0.612105
N85	N	1.098380	0.003290	0.652654
H86	H	1.138770	-0.023823	0.619911
N87	N	0.938448	-0.051522	-0.158961
N88	N	0.995100	-0.021657	-0.176505
H89	H	0.998185	-0.002037	-0.233233
H90	H	0.329227	0.043288	-0.000000
N91	N	0.676087	0.216630	-0.000030
N92	N	0.716611	0.232735	0.060777
H93	H	0.739060	0.271567	0.060781
H94	H	0.817759	0.192747	0.213707
N95	N	0.927365	-0.718607	-0.159041
N96	N	0.931167	-0.694329	-0.229252
H97	H	0.933522	-0.717596	-0.285988
N98	N	0.550318	-0.000997	-0.000004
N99	N	0.595538	-0.044785	0.000004
H100	H	0.573106	-0.083622	0.000005
N101	N	0.134990	0.231417	-0.000065
N102	N	0.062005	0.227142	-0.000063
H103	H	0.025465	0.262522	-0.000078
H104	H	0.293810	0.229931	-0.000049
H105	H	0.935753	-0.165006	-0.142695
N106	N	0.715563	0.008672	-0.000003
N107	N	0.788550	0.012945	-0.000007
H108	H	0.825088	-0.022436	-0.000001
N109	N	0.937672	-0.327534	-0.237646
N110	N	0.940598	-0.356349	-0.307848
H111	H	0.943674	-0.336748	-0.364592
H112	H	0.934994	-0.440993	-0.221355
N113	N	0.914821	-0.312204	0.237580
N114	N	0.856922	-0.314409	0.290225
H115	H	0.854538	-0.291140	0.346963
H116	H	0.846135	0.173583	0.621507
H117	H	0.180931	0.034615	-0.000012
N118	N	0.798330	0.205898	0.387867
N119	N	0.794462	0.208521	0.468943
H120	H	0.754221	0.235740	0.501706
N121	N	0.914097	-0.588208	0.158923
N122	N	0.856203	-0.590418	0.211575
H123	H	0.853825	-0.567153	0.268315
N124	N	0.921189	-0.161459	0.158969
N125	N	0.918260	-0.132650	0.229177
H126	H	0.915175	-0.152256	0.285916
N127	N	0.923188	-0.041284	0.158963
N128	N	0.924069	0.011793	0.158946
H129	H	0.921704	0.035075	0.215671
N130	N	1.023817	0.053311	0.204314
N131	N	1.069708	0.022225	0.244866
H132	H	1.109906	-0.005039	0.212127
H133	H	1.032800	0.047340	0.786248
H134	H	0.838266	0.178926	0.786240
