data_functionalizedCrystal
_audit_creation_method	'MofGen! by Chris Wilmer'
_symmetry_space_group_name_H-M	'P1'
_symmetry_Int_Tables_number	1
_symmetry_cell_setting	triclinic
loop_
_symmetry_equiv_pos_as_xyz
  x,y,z
_cell_length_a	21.395362
_cell_length_b	18.050590
_cell_length_c	21.395355
_cell_angle_alpha	90.018036
_cell_angle_beta	90.043940
_cell_angle_gamma	90.034430
loop_
_atom_site_label
_atom_site_type_symbol
_atom_site_fract_x
_atom_site_fract_y
_atom_site_fract_z
Zn1	Zn	0.957912	-0.295431	0.354588
Zn2	Zn	0.957837	-0.419603	0.249811
Zn3	Zn	0.853127	-0.295465	0.249789
Zn4	Zn	0.853119	-0.419618	0.354516
O5	O	0.905499	-0.357529	0.302176
O6	O	1.045580	-0.311881	0.340728
O7	O	0.943919	-0.403143	0.162130
O8	O	0.867062	-0.191536	0.263712
O9	O	1.045525	-0.403110	0.263749
O10	O	0.944048	-0.191511	0.340707
O11	O	0.866989	-0.311940	0.162114
O12	O	0.765448	-0.311955	0.263642
O13	O	0.867048	-0.403136	0.442203
O14	O	0.765442	-0.403170	0.340584
O15	O	0.944039	-0.311896	0.442256
O16	O	0.943911	-0.523529	0.263680
O17	O	0.866975	-0.523540	0.340606
C18	C	0.742711	-0.357568	0.302103
C19	C	0.673070	-0.357603	0.302087
C20	C	0.905451	-0.550481	0.302151
C21	C	0.905487	-0.633027	0.302161
C22	C	0.640370	-0.405161	0.342091
C23	C	0.574935	-0.405143	0.342119
C24	C	0.542202	-0.357574	0.302132
C25	C	0.574910	-0.310007	0.262125
C26	C	0.640344	-0.310021	0.262103
C27	C	0.438476	-0.351592	0.245726
C28	C	0.373043	-0.351583	0.245748
C29	C	0.340381	-0.357526	0.302201
C30	C	0.373160	-0.363494	0.358634
C31	C	0.438594	-0.363508	0.358612
C32	C	0.471249	-0.357553	0.302152
C33	C	0.236728	-0.405067	0.342238
C34	C	0.171292	-0.405044	0.342267
C35	C	0.171268	-0.309911	0.262268
C36	C	0.236703	-0.309931	0.262245
C37	C	0.269430	-0.357513	0.302229
C38	C	0.947412	-0.832444	0.260387
C39	C	0.962722	-0.881784	0.317576
C40	C	0.905523	-0.784157	0.302186
C41	C	0.890277	-0.881899	0.245023
C42	C	0.905559	-0.930142	0.302205
C43	C	0.920862	-0.832410	0.359405
C44	C	0.848390	-0.832520	0.286813
C45	C	0.863678	-0.881838	0.344042
C46	C	0.905504	-0.700059	0.302174
C47	C	0.905577	-1.014239	0.302224
C48	C	1.068922	-0.357490	0.302249
C49	C	1.138563	-0.357474	0.302281
C50	C	0.905551	-0.357514	0.465599
C51	C	0.905573	-0.357508	0.535241
C52	C	0.905564	-0.163823	0.302215
C53	C	0.905592	-0.081278	0.302231
C54	C	0.905483	-0.357490	0.139388
C55	C	0.905582	-0.357288	0.069747
C56	C	0.945661	-0.309997	0.567982
C57	C	0.945660	-0.309965	0.633418
C58	C	0.905578	-0.357457	0.666109
C59	C	0.865482	-0.404971	0.633359
C60	C	0.865480	-0.404996	0.567925
C61	C	0.900614	-0.424328	0.769773
C62	C	0.900621	-0.424304	0.835206
C63	C	0.905582	-0.357379	0.867930
C64	C	0.910549	-0.290475	0.835212
C65	C	0.910547	-0.290501	0.769778
C66	C	0.905576	-0.357434	0.737061
C67	C	0.945671	-0.309829	0.971624
C68	C	0.945665	-0.309796	1.037061
C69	C	0.865491	-0.404808	1.037001
C70	C	0.865493	-0.404835	0.971566
C71	C	0.905586	-0.357346	0.938881
H72	H	0.548305	-0.443870	0.374697
H73	H	0.982849	-0.810757	0.225076
H74	H	0.832833	-0.443684	0.541267
H75	H	0.263328	-0.271207	0.229666
H76	H	0.465064	-0.346749	0.199752
N77	N	0.339573	-0.345497	0.188099
N78	N	0.368740	-0.340183	0.137699
H79	H	0.345104	-0.335887	0.096982
N80	N	0.541467	-0.261416	0.221287
N81	N	0.483045	-0.261410	0.221312
H82	H	0.459425	-0.227088	0.192471
H83	H	0.666968	-0.271291	0.229527
N84	N	0.986615	-0.261447	0.666881
N85	N	0.986613	-0.261438	0.725304
H86	H	1.015539	-0.227174	0.748938
H87	H	1.011054	-0.903426	0.330591
H88	H	0.144669	-0.443770	0.374847
N89	N	0.937129	-0.805250	0.420075
N90	N	0.939761	-0.737043	0.429852
H91	H	0.951252	-0.717859	0.472698
H92	H	0.896406	-0.478812	0.743135
H93	H	0.667012	-0.443905	0.374650
N94	N	0.472087	-0.369556	0.416251
N95	N	0.530510	-0.369542	0.416221
H96	H	0.554165	-0.373798	0.456929
N97	N	0.824539	-0.453473	0.666759
N98	N	0.824547	-0.453445	0.725182
H99	H	0.795627	-0.487699	0.748771
N100	N	0.339796	-0.369588	0.416298
N101	N	0.281374	-0.369582	0.416312
H102	H	0.257807	-0.373895	0.457035
N103	N	0.270152	-0.453673	0.383083
N104	N	0.240945	-0.496130	0.418803
H105	H	0.264548	-0.530459	0.447649
H106	H	0.828269	-0.903388	0.379439
H107	H	0.800073	-0.810862	0.273781
N108	N	0.137831	-0.261316	0.221432
N109	N	0.079408	-0.261304	0.221461
H110	H	0.055789	-0.226980	0.192622
H111	H	0.877367	-0.903637	0.196673
N112	N	0.986619	-0.261487	0.534607
N113	N	1.022410	-0.219070	0.563853
H114	H	1.051337	-0.184809	0.540281
N115	N	0.915621	-0.222160	0.736368
N116	N	0.920053	-0.162408	0.765585
H117	H	0.923635	-0.114141	0.741990
H118	H	0.914590	-0.235979	0.861854
N119	N	0.986624	-0.261316	0.938242
N120	N	1.022410	-0.218891	0.967488
H121	H	1.051333	-0.184626	0.943914
N122	N	0.824551	-0.453335	1.070377
N123	N	0.788766	-0.495760	1.041131
H124	H	0.759851	-0.530034	1.064704
N125	N	0.986616	-0.261252	1.070498
N126	N	1.022406	-0.218858	1.041304
H127	H	1.051329	-0.184572	1.064919
N128	N	0.824541	-0.453373	0.938127
N129	N	0.788753	-0.495771	0.967320
H130	H	0.759827	-0.530051	0.943705
N131	N	0.895506	-0.492642	0.868613
N132	N	0.891037	-0.552387	0.839391
H133	H	0.887407	-0.600652	0.862983
