data_functionalizedCrystal
_audit_creation_method	'MofGen! by Chris Wilmer'
_symmetry_space_group_name_H-M	'P1'
_symmetry_Int_Tables_number	1
_symmetry_cell_setting	triclinic
loop_
_symmetry_equiv_pos_as_xyz
  x,y,z
_cell_length_a	11.169417
_cell_length_b	16.625545
_cell_length_c	16.625539
_cell_angle_alpha	90.026243
_cell_angle_beta	90.013727
_cell_angle_gamma	90.026437
loop_
_atom_site_label
_atom_site_type_symbol
_atom_site_fract_x
_atom_site_fract_y
_atom_site_fract_z
Zn1	Zn	1.834763	-0.320996	0.455839
Zn2	Zn	2.334763	0.179004	0.955839
Zn3	Zn	1.834621	-0.455835	0.321007
Zn4	Zn	2.334621	0.044165	0.821007
Zn5	Zn	1.634070	-0.321022	0.321027
Zn6	Zn	2.134070	0.178978	0.821027
Zn7	Zn	1.634003	-0.455793	0.455804
Zn8	Zn	2.134003	0.044207	0.955804
O9	O	1.734364	-0.388411	0.388419
O10	O	2.234364	0.111589	0.888419
O11	O	2.002694	-0.338890	0.437959
O12	O	2.502694	0.161110	0.937959
O13	O	1.807986	-0.437980	0.208177
O14	O	2.307986	0.062020	0.708177
O15	O	1.660780	-0.208186	0.338933
O16	O	2.160780	0.291814	0.838933
O17	O	2.002589	-0.437955	0.338898
O18	O	2.502589	0.062045	0.838898
O19	O	1.808229	-0.208167	0.437979
O20	O	2.308229	0.291833	0.937979
O21	O	1.660642	-0.338934	0.208192
O22	O	2.160642	0.161066	0.708192
O23	O	1.466112	-0.338893	0.338900
O24	O	1.966112	0.161107	0.838900
O25	O	1.660666	-0.437883	0.568641
O26	O	2.160666	0.062117	1.068641
O27	O	1.466062	-0.437908	0.437920
O28	O	1.966062	0.062092	0.937920
O29	O	1.808163	-0.338849	0.568667
O30	O	2.308163	0.161151	1.068667
O31	O	1.807920	-0.568662	0.338865
O32	O	2.307920	-0.068662	0.838865
O33	O	1.660528	-0.568631	0.437900
O34	O	2.160528	-0.068631	0.937900
C35	C	1.422540	-0.388399	0.388409
C36	C	1.922540	0.111601	0.888409
C37	C	1.289140	-0.388413	0.388424
C38	C	1.789140	0.111587	0.888424
C39	C	1.734234	-0.597902	0.388394
C40	C	2.234234	-0.097902	0.888394
C41	C	1.734288	-0.687523	0.388410
C42	C	2.234288	-0.187523	0.888410
C43	C	1.734335	-0.760306	0.388426
C44	C	2.234335	-0.260306	0.888426
C45	C	1.734404	-0.851614	0.388444
C46	C	2.234404	-0.351614	0.888444
C47	C	1.734467	-0.924391	0.388454
C48	C	2.234467	-0.424391	0.888454
C49	C	1.734535	-1.015705	0.388471
C50	C	2.234535	-0.515705	0.888471
C51	C	2.047407	-0.388424	0.388430
C52	C	2.547407	0.111576	0.888430
C53	C	2.180807	-0.388430	0.388435
C54	C	2.680807	0.111570	0.888435
C55	C	1.734423	-0.388358	0.598728
C56	C	2.234423	0.111642	1.098728
C57	C	1.734448	-0.388336	0.688349
C58	C	2.234448	0.111664	1.188349
C59	C	1.734528	-0.178102	0.388462
C60	C	2.234528	0.321898	0.888462
C61	C	1.734598	-0.088481	0.388481
C62	C	2.234598	0.411519	0.888481
C63	C	1.734375	-0.388406	0.178928
C64	C	2.234375	0.111594	0.678928
C65	C	1.734582	-0.388202	0.089308
C66	C	2.234582	0.111798	0.589308
C67	C	1.734468	-0.388318	0.761132
C68	C	2.234468	0.111682	1.261132
C69	C	1.734496	-0.388288	0.852440
C70	C	2.234496	0.111712	1.352440
C71	C	1.734524	-0.388259	0.925217
C72	C	2.234524	0.111741	1.425217
C73	C	1.734554	-0.388230	1.016531
C74	C	2.234554	0.111770	1.516531
