data_functionalizedCrystal
_audit_creation_method	'MofGen! by Chris Wilmer'
_symmetry_space_group_name_H-M	'P1'
_symmetry_Int_Tables_number	1
_symmetry_cell_setting	triclinic
loop_
_symmetry_equiv_pos_as_xyz
  x,y,z
_cell_length_a	17.077404
_cell_length_b	12.759400
_cell_length_c	17.077396
_cell_angle_alpha	89.974414
_cell_angle_beta	89.980499
_cell_angle_gamma	90.014910
loop_
_atom_site_label
_atom_site_type_symbol
_atom_site_fract_x
_atom_site_fract_y
_atom_site_fract_z
Zn1	Zn	1.200099	-0.418260	-0.443859
Zn2	Zn	1.700099	0.081740	0.056141
Zn3	Zn	1.200025	-0.593961	-0.312599
Zn4	Zn	1.700025	-0.093961	0.187401
Zn5	Zn	1.068831	-0.418297	-0.312606
Zn6	Zn	1.568831	0.081703	0.187394
Zn7	Zn	1.068818	-0.593898	-0.443823
Zn8	Zn	1.568818	-0.093898	0.056177
O9	O	1.134443	-0.506104	-0.378222
O10	O	1.634443	-0.006104	0.121778
O11	O	1.309936	-0.441578	-0.426459
O12	O	1.809936	0.058422	0.073541
O13	O	1.182597	-0.570700	-0.202753
O14	O	1.682597	-0.070700	0.297247
O15	O	1.086281	-0.271271	-0.330035
O16	O	1.586281	0.228729	0.169965
O17	O	1.309882	-0.570664	-0.330023
O18	O	1.809882	-0.070664	0.169977
O19	O	1.182723	-0.271244	-0.426466
O20	O	1.682723	0.228756	0.073534
O21	O	1.086209	-0.441641	-0.202759
O22	O	1.586209	0.058359	0.297241
O23	O	0.958983	-0.441580	-0.330001
O24	O	1.458983	0.058420	0.169999
O25	O	1.086258	-0.570558	-0.553674
O26	O	1.586258	-0.070558	-0.053674
O27	O	0.958973	-0.570594	-0.426405
O28	O	1.458973	-0.070594	0.073595
O29	O	1.182710	-0.441517	-0.553701
O30	O	1.682710	0.058483	-0.053701
O31	O	1.182584	-0.740973	-0.329988
O32	O	1.682584	-0.240973	0.170012
O33	O	1.086186	-0.740927	-0.426398
O34	O	1.586186	-0.240927	0.073602
C35	C	0.930496	-0.506085	-0.378200
C36	C	1.430496	-0.006085	0.121800
C37	C	0.843246	-0.506102	-0.378209
C38	C	1.343246	-0.006102	0.121791
C39	C	0.802271	-0.573381	-0.428326
C40	C	1.302271	-0.073381	0.071674
C41	C	0.720291	-0.573383	-0.428339
C42	C	1.220291	-0.073383	0.071661
C43	C	0.679286	-0.506111	-0.378230
C44	C	1.179286	-0.006111	0.121770
C45	C	0.720267	-0.438825	-0.328111
C46	C	1.220267	0.061175	0.171889
C47	C	0.802246	-0.438818	-0.328103
C48	C	1.302246	0.061182	0.171897
C49	C	0.549397	-0.438846	-0.328130
C50	C	1.049397	0.061154	0.171870
C51	C	0.467412	-0.438854	-0.328136
C52	C	0.967412	0.061146	0.171864
C53	C	0.467442	-0.573410	-0.428366
C54	C	0.967442	-0.073410	0.071634
C55	C	0.549421	-0.573404	-0.428358
C56	C	1.049421	-0.073404	0.071642
C57	C	0.590395	-0.506119	-0.378237
C58	C	1.090395	-0.006119	0.121763
C59	C	1.134397	-0.779071	-0.378205
C60	C	1.634397	-0.279071	0.121795
C61	C	1.134449	-0.895848	-0.378225
C62	C	1.634449	-0.395848	0.121775
C63	C	1.184699	-0.950699	-0.328080
C64	C	1.684699	-0.450699	0.171920
C65	C	1.184747	-1.060423	-0.328104
C66	C	1.684747	-0.560423	0.171896
C67	C	1.084289	-1.060435	-0.428420
C68	C	1.584289	-0.560435	0.071580
C69	C	1.084245	-0.950713	-0.428399
C70	C	1.584245	-0.450713	0.071601
C71	C	1.242695	-0.950693	-0.270160
C72	C	1.742695	-0.450693	0.229840
C73	C	1.242743	-1.060417	-0.270185
C74	C	1.742743	-0.560417	0.229815
C75	C	1.339188	-0.506124	-0.378244
C76	C	1.839188	-0.006124	0.121756
C77	C	1.426437	-0.506132	-0.378253
C78	C	1.926437	-0.006132	0.121747
C79	C	1.134491	-0.506026	-0.582966
C80	C	1.634491	-0.006026	-0.082966
C81	C	1.134511	-0.505993	-0.670216
C82	C	1.634511	-0.005993	-0.170216
C83	C	1.134512	-0.232071	-0.378255
C84	C	1.634512	0.267929	0.121745
C85	C	1.134541	-0.115294	-0.378270
C86	C	1.634541	0.384706	0.121730
C87	C	1.184735	-0.438796	-0.711221
C88	C	1.684735	0.061204	-0.211221
C89	C	1.184745	-0.438761	-0.793202
C90	C	1.684745	0.061239	-0.293202
C91	C	1.134533	-0.505930	-0.834175
C92	C	1.634533	-0.005930	-0.334175
C93	C	1.084304	-0.573130	-0.793165
C94	C	1.584304	-0.073130	-0.293165
C95	C	1.084291	-0.573159	-0.711186
C96	C	1.584291	-0.073159	-0.211186
C97	C	1.084335	-0.573066	-0.964035
C98	C	1.584335	-0.073066	-0.464035
C99	C	1.084349	-0.573039	-1.046019
C100	C	1.584349	-0.073039	-0.546019
C101	C	1.184789	-0.438669	-1.046051
C102	C	1.684789	0.061331	-0.546051
C103	C	1.184777	-0.438698	-0.964072
C104	C	1.684777	0.061302	-0.464072
C105	C	1.134547	-0.505900	-0.923066
C106	C	1.634547	-0.005900	-0.423066
C107	C	1.134441	-0.506105	-0.174274
C108	C	1.634441	-0.006105	0.325726
C109	C	1.134573	-0.505842	-0.087025
C110	C	1.634573	-0.005842	0.412975
H111	H	0.835651	-0.628165	-0.469129
H112	H	1.335651	-0.128165	0.030871
H113	H	1.043460	-0.627731	-1.079378
H114	H	1.543460	-0.127731	-0.579378
F115	F	1.030861	-0.644611	-0.836774
F116	F	1.530861	-0.144611	-0.336774
H117	H	1.043385	-0.627867	-0.677800
H118	H	1.543385	-0.127867	-0.177800
H119	H	0.686933	-0.628169	-0.469149
H120	H	1.186933	-0.128169	0.030851
F121	F	1.238182	-0.367311	-0.667621
F122	F	1.738182	0.132689	-0.167621
F123	F	0.845854	-0.367209	-0.274763
F124	F	1.345854	0.132791	0.225237
H125	H	1.225686	-0.383950	-1.079441
H126	H	1.725686	0.116050	-0.579441
F127	F	0.593059	-0.645009	-0.481684
F128	F	1.093059	-0.145009	0.018316
H129	H	1.300500	-1.094364	-0.292013
H130	H	1.800500	-0.594364	0.207987
H131	H	1.043415	-1.105120	-0.469271
H132	H	1.543415	-0.605120	0.030729
F133	F	0.423833	-0.645009	-0.481717
F134	F	0.923833	-0.145009	0.018283
F135	F	0.423774	-0.367260	-0.274802
F136	F	0.923774	0.132740	0.225198
F137	F	0.676625	-0.367222	-0.274786
F138	F	1.176625	0.132778	0.225214
F139	F	0.593003	-0.367232	-0.274786
F140	F	1.093003	0.132768	0.225214
H141	H	1.043335	-0.906054	-0.469238
H142	H	1.543335	-0.406054	0.030762
F143	F	1.214241	-0.906305	-0.194651
F144	F	1.714241	-0.406305	0.305349
F145	F	1.221519	-1.099443	-0.190711
F146	F	1.721519	-0.599443	0.309289
F147	F	1.322130	-0.911664	-0.291504
F148	F	1.822130	-0.411664	0.208496
F149	F	1.238228	-0.367277	-0.836839
F150	F	1.738228	0.132723	-0.336839
H151	H	1.225668	-0.384010	-0.930713
H152	H	1.725668	0.115990	-0.430713
H153	H	1.043421	-0.627773	-0.930651
H154	H	1.543421	-0.127773	-0.430651
