data_functionalizedCrystal
_audit_creation_method	'MofGen! by Chris Wilmer'
_symmetry_space_group_name_H-M	'P1'
_symmetry_Int_Tables_number	1
_symmetry_cell_setting	triclinic
loop_
_symmetry_equiv_pos_as_xyz
  x,y,z
_cell_length_a	12.759401
_cell_length_b	16.120484
_cell_length_c	12.759393
_cell_angle_alpha	92.862829
_cell_angle_beta	89.980163
_cell_angle_gamma	92.926992
loop_
_atom_site_label
_atom_site_type_symbol
_atom_site_fract_x
_atom_site_fract_y
_atom_site_fract_z
Zn1	Zn	1.584973	-0.331823	-0.615182
Zn2	Zn	1.918307	0.001511	-0.281849
Zn3	Zn	2.251640	0.334844	0.051485
Zn4	Zn	1.575925	-0.471261	-0.448395
Zn5	Zn	1.909258	-0.137927	-0.115061
Zn6	Zn	2.242592	0.195406	0.218272
Zn7	Zn	1.409272	-0.331870	-0.439520
Zn8	Zn	1.742606	0.001464	-0.106187
Zn9	Zn	2.075939	0.334797	0.227146
Zn10	Zn	1.400325	-0.471200	-0.624028
Zn11	Zn	1.733658	-0.137866	-0.290695
Zn12	Zn	2.066992	0.195467	0.042639
O13	O	1.492624	-0.401538	-0.531781
O14	O	1.825957	-0.068205	-0.198448
O15	O	2.159291	0.265129	0.134885
O16	O	1.730794	-0.350325	-0.593069
O17	O	2.064127	-0.016992	-0.259736
O18	O	2.397460	0.316341	0.073597
O19	O	1.553776	-0.452815	-0.300199
O20	O	1.887109	-0.119482	0.033134
O21	O	2.220442	0.213851	0.366467
O22	O	1.440111	-0.215198	-0.455406
O23	O	1.773444	0.118135	-0.122073
O24	O	2.106778	0.451469	0.211261
O25	O	1.724146	-0.452770	-0.470531
O26	O	2.057479	-0.119436	-0.137198
O27	O	2.390812	0.213897	0.196135
O28	O	1.569198	-0.215164	-0.584464
O29	O	1.902531	0.118170	-0.251131
O30	O	2.235864	0.451503	0.082203
O31	O	1.431337	-0.350405	-0.293679
O32	O	1.764670	-0.017072	0.039654
O33	O	2.098004	0.316261	0.372987
O34	O	1.261065	-0.350346	-0.463984
O35	O	1.594398	-0.017013	-0.130650
O36	O	1.927732	0.316320	0.202683
O37	O	1.424861	-0.452666	-0.769873
O38	O	1.758194	-0.119332	-0.436540
O39	O	2.091528	0.214001	-0.103206
O40	O	1.254491	-0.452711	-0.599541
O41	O	1.587824	-0.119378	-0.266208
O42	O	1.921158	0.213955	0.067126
O43	O	1.560522	-0.350266	-0.763374
O44	O	1.893855	-0.016933	-0.430040
O45	O	2.227188	0.316401	-0.096707
O46	O	1.545100	-0.587918	-0.479109
O47	O	1.878433	-0.254585	-0.145776
O48	O	2.211766	0.078749	0.187558
O49	O	1.416087	-0.587873	-0.608146
O50	O	1.749421	-0.254540	-0.274813
O51	O	2.082754	0.078794	0.058521
C52	C	1.219657	-0.401528	-0.531760
C53	C	1.552990	-0.068195	-0.198426
C54	C	1.886324	0.265139	0.134907
C55	C	1.102879	-0.401544	-0.531777
C56	C	1.436213	-0.068210	-0.198443
C57	C	1.769546	0.265123	0.134890
C58	C	1.044617	-0.454926	-0.602261
C59	C	1.377950	-0.121593	-0.268928
C60	C	1.711284	0.211740	0.064406
C61	C	0.934893	-0.454929	-0.602282
C62	C	1.268226	-0.121596	-0.268949
C63	C	1.601559	0.211737	0.064385
C64	C	0.941703	-0.348165	-0.461326
C65	C	1.275037	-0.014832	-0.127992
C66	C	1.608370	0.318502	0.205341
C67	C	1.051426	-0.348158	-0.461310
C68	C	1.384759	-0.014825	-0.127977
C69	C	1.718093	0.318508	0.205356
C70	C	1.478669	-0.618145	-0.545573
C71	C	1.812003	-0.284812	-0.212240
C72	C	2.145336	0.048521	0.121093
C73	C	1.472795	-0.710811	-0.551509
C74	C	1.806129	-0.377478	-0.218176
C75	C	2.139462	-0.044144	0.115158
C76	C	1.462078	-0.880472	-0.562367
C77	C	1.795411	-0.547139	-0.229034
C78	C	2.128744	-0.213805	0.104300
C79	C	1.523358	-0.921764	-0.501213
C80	C	1.856692	-0.588430	-0.167879
C81	C	2.190025	-0.255097	0.165454
C82	C	1.517395	-1.016169	-0.507254
C83	C	1.850728	-0.682836	-0.173921
C84	C	2.184062	-0.349502	0.159412
C85	C	1.468040	-0.786058	-0.556327
C86	C	1.801373	-0.452725	-0.222994
C87	C	2.134706	-0.119392	0.110340
C88	C	1.766656	-0.401549	-0.531804
C89	C	2.099990	-0.068216	-0.198470
C90	C	2.433323	0.265118	0.134863
C91	C	1.883433	-0.401554	-0.531813
C92	C	2.216766	-0.068220	-0.198480
C93	C	2.550099	0.265113	0.134854
C94	C	1.492703	-0.401454	-0.805809
C95	C	1.826036	-0.068121	-0.472476
C96	C	2.159369	0.265213	-0.139143
C97	C	1.492736	-0.401418	-0.922584
C98	C	1.826070	-0.068085	-0.589251
C99	C	2.159403	0.265249	-0.255917
C100	C	1.506662	-0.184085	-0.517958
C101	C	1.839995	0.149248	-0.184625
C102	C	2.173328	0.482582	0.148708
C103	C	1.512644	-0.091419	-0.512068
C104	C	1.845977	0.241914	-0.178734
C105	C	2.179310	0.575247	0.154599
C106	C	1.429007	-0.348083	-0.974050
C107	C	1.762340	-0.014750	-0.640716
C108	C	2.095674	0.318583	-0.307383
C109	C	1.429033	-0.348058	-1.083772
C110	C	1.762366	-0.014724	-0.750439
C111	C	2.095700	0.318609	-0.417106
C112	C	1.556526	-0.454703	-1.090553
C113	C	1.889860	-0.121370	-0.757220
C114	C	2.223193	0.211963	-0.423887
C115	C	1.556494	-0.454733	-0.980833
C116	C	1.889827	-0.121399	-0.647500
C117	C	2.223161	0.211934	-0.314167
C118	C	1.492610	-0.401562	-0.258815
C119	C	1.825943	-0.068229	0.074518
C120	C	2.159276	0.265105	0.407851
C121	C	1.492795	-0.401363	-0.142027
C122	C	1.826128	-0.068030	0.191307
C123	C	2.159461	0.265304	0.524640
H124	H	0.887460	-0.498398	-0.659679
H125	H	1.220793	-0.165064	-0.326345
H126	H	1.554127	0.168269	0.006988
H127	H	1.580300	-0.886214	-0.444319
H128	H	1.913634	-0.552881	-0.110985
H129	H	2.246967	-0.219547	0.222348
H130	H	1.377137	-0.304628	-1.125671
H131	H	1.710471	0.028705	-0.792337
H132	H	2.043804	0.362039	-0.459004
O133	O	1.386633	-0.927551	-0.637709
O134	O	1.719966	-0.594217	-0.304375
O135	O	2.053300	-0.260884	0.028958
H136	H	1.393720	-0.995386	-0.630671
H137	H	1.727053	-0.662052	-0.297338
H138	H	2.060387	-0.328719	0.035996
H139	H	1.608437	-0.498110	-1.137993
H140	H	1.941770	-0.164777	-0.804660
H141	H	2.275103	0.168557	-0.471327
H142	H	1.098865	-0.304683	-0.403913
H143	H	1.432199	0.028651	-0.070580
H144	H	1.765532	0.361984	0.262753
O145	O	0.886207	-0.290614	-0.385291
O146	O	1.219540	0.042720	-0.051958
O147	O	1.552874	0.376053	0.281376
H148	H	0.800120	-0.299599	-0.397125
H149	H	1.133454	0.033734	-0.063791
H150	H	1.466787	0.367067	0.269542
O151	O	1.360240	-0.290586	-0.911219
O152	O	1.693573	0.042748	-0.577885
O153	O	2.026907	0.376081	-0.244552
H154	H	1.315925	-0.253499	-0.965445
H155	H	1.649258	0.079834	-0.632111
H156	H	1.982591	0.413167	-0.298778
O157	O	1.625246	-0.512251	-0.925310
O158	O	1.958579	-0.178917	-0.591977
O159	O	2.291913	0.154416	-0.258644
H160	H	1.669602	-0.549307	-0.984245
H161	H	2.002936	-0.215973	-0.650912
H162	H	2.336269	0.117360	-0.317579
H163	H	1.086507	-0.498394	-0.659642
H164	H	1.419841	-0.165061	-0.326308
H165	H	1.753174	0.168273	0.007025
