data_functionalizedCrystal
_audit_creation_method	'MofGen! by Chris Wilmer'
_symmetry_space_group_name_H-M	'P1'
_symmetry_Int_Tables_number	1
_symmetry_cell_setting	triclinic
loop_
_symmetry_equiv_pos_as_xyz
  x,y,z
_cell_length_a	13.032831
_cell_length_b	14.908520
_cell_length_c	13.032268
_cell_angle_alpha	80.014189
_cell_angle_beta	89.113023
_cell_angle_gamma	86.522975
loop_
_atom_site_label
_atom_site_type_symbol
_atom_site_fract_x
_atom_site_fract_y
_atom_site_fract_z
Zn1	Zn	1.453341	-0.608125	0.815711
Zn2	Zn	1.953341	-0.108125	1.315711
Zn3	Zn	1.465124	-0.742288	0.651425
Zn4	Zn	1.965124	-0.242288	1.151425
Zn5	Zn	1.305991	-0.570509	0.619794
Zn6	Zn	1.805991	-0.070509	1.119794
Zn7	Zn	1.271734	-0.737420	0.801271
Zn8	Zn	1.771734	-0.237420	1.301271
O9	O	1.374048	-0.664586	0.722050
O10	O	1.874048	-0.164586	1.222050
O11	O	1.597505	-0.643703	0.813198
O12	O	2.097505	-0.143703	1.313198
O13	O	1.463283	-0.705796	0.502526
O14	O	1.963283	-0.205796	1.002526
O15	O	1.334942	-0.449498	0.638589
O16	O	1.834942	0.050502	1.138589
O17	O	1.606162	-0.742272	0.692498
O18	O	2.106162	-0.242272	1.192498
O19	O	1.443199	-0.477135	0.782527
O20	O	1.943199	0.022865	1.282527
O21	O	1.346369	-0.579590	0.479287
O22	O	1.846369	-0.079590	0.979287
O23	O	1.158846	-0.574869	0.624587
O24	O	1.658846	-0.074869	1.124587
O25	O	1.276556	-0.733974	0.947889
O26	O	1.776556	-0.233974	1.447889
O27	O	1.133677	-0.697498	0.757917
O28	O	1.633677	-0.197498	1.257917
O29	O	1.409982	-0.638982	0.958498
O30	O	1.909982	-0.138982	1.458498
O31	O	1.430066	-0.867643	0.678496
O32	O	1.930066	-0.367643	1.178496
O33	O	1.287983	-0.864066	0.788588
O34	O	1.787983	-0.364066	1.288588
C35	C	1.109287	-0.631574	0.686253
C36	C	1.609287	-0.131574	1.186253
C37	C	0.996016	-0.617476	0.670965
C38	C	1.496016	-0.117476	1.170965
C39	C	0.933097	-0.671944	0.730029
C40	C	1.433097	-0.171944	1.230029
C41	C	0.816026	-0.657374	0.714229
C42	C	1.316026	-0.157374	1.214229
C43	C	1.356610	-0.898531	0.735434
C44	C	1.856610	-0.398531	1.235434
C45	C	1.349239	-0.998628	0.741207
C46	C	1.849239	-0.498628	1.241207
C47	C	1.483459	-1.190413	0.637541
C48	C	1.983459	-0.690413	1.137541
C49	C	1.476537	-1.284464	0.642962
C50	C	1.976537	-0.784464	1.142962
C51	C	1.328478	-1.280784	0.757475
C52	C	1.828478	-0.780784	1.257475
C53	C	1.335400	-1.186733	0.752054
C54	C	1.835400	-0.686733	1.252054
C55	C	1.412892	-1.141551	0.692084
C56	C	1.912892	-0.641551	1.192084
C57	C	1.419809	-1.047497	0.686657
C58	C	1.919809	-0.547497	1.186657
C59	C	1.271756	-1.043820	0.801176
C60	C	1.771756	-0.543820	1.301176
C61	C	1.264834	-1.137870	0.806597
C62	C	1.764834	-0.637870	1.306597
C63	C	1.639842	-0.697726	0.757987
C64	C	2.139842	-0.197726	1.257987
C65	C	1.753108	-0.711849	0.773302
C66	C	2.253108	-0.211849	1.273302
C67	C	1.338133	-0.690131	0.991762
C68	C	1.838133	-0.190131	1.491762
C69	C	1.322829	-0.701017	1.106698
C70	C	1.822829	-0.201017	1.606698
C71	C	1.391578	-0.429732	0.708640
C72	C	1.891578	0.070268	1.208640
C73	C	1.399048	-0.329652	0.702926
C74	C	1.899048	0.170348	1.202926
C75	C	1.409886	-0.639082	0.453391
C76	C	1.909886	-0.139082	0.953391
C77	C	1.425406	-0.627967	0.338469
C78	C	1.925406	-0.127967	0.838469
C79	C	1.382022	-0.658870	1.163188
C80	C	1.882022	-0.158870	1.663188
C81	C	1.366205	-0.670120	1.281980
C82	C	1.866205	-0.170120	1.781980
H83	H	0.785905	-0.769267	0.835576
H84	H	1.285905	-0.269267	1.335576
C85	C	1.194127	-0.990063	0.861177
C86	C	1.694127	-0.490063	1.361177
N87	N	1.135657	-0.949573	0.906366
N88	N	1.635657	-0.449573	1.406366
C89	C	0.951704	-0.539903	0.586848
C90	C	1.451704	-0.039903	1.086848
N91	N	0.918331	-0.481475	0.523488
N92	N	1.418331	0.018525	1.023488
C93	C	1.281913	-0.730120	1.335442
C94	C	1.781913	-0.230120	1.835442
N95	N	1.218425	-0.775311	1.375711
N96	N	1.718425	-0.275311	1.875711
C97	C	1.505051	-0.997798	0.620689
C98	C	2.005051	-0.497798	1.120689
N99	N	1.569260	-0.960368	0.571003
N100	N	2.069260	-0.460368	1.071003
C101	C	1.568697	-1.140710	0.571571
C102	C	2.068697	-0.640710	1.071571
N103	N	1.632902	-1.103275	0.521883
N104	N	2.132902	-0.603275	1.021883
H105	H	0.783226	-0.599948	0.651965
H106	H	1.283226	-0.099948	1.151965
H107	H	1.534001	-1.324244	0.598550
H108	H	2.034001	-0.824244	1.098550
H109	H	1.260436	-0.745422	1.146277
H110	H	1.760436	-0.245422	1.646277
C111	C	1.509697	-0.567964	1.285009
C112	C	2.009697	-0.067964	1.785009
N113	N	1.573184	-0.522772	1.244742
N114	N	2.073184	-0.022772	1.744742
C115	C	0.977409	-0.749517	0.814145
C116	C	1.477409	-0.249517	1.314145
N117	N	1.010783	-0.807949	0.877501
N118	N	1.510783	-0.307949	1.377501
C119	C	1.243243	-1.330500	0.823436
C120	C	1.743243	-0.830500	1.323436
N121	N	1.179040	-1.367947	0.873114
N122	N	1.679040	-0.867947	1.373114
H123	H	1.201744	-1.174671	0.855426
H124	H	1.701744	-0.674671	1.355426
C125	C	1.466303	-0.598866	1.109721
C126	C	1.966303	-0.098866	1.609721
N127	N	1.529786	-0.553670	1.069450
N128	N	2.029786	-0.053670	1.569450
