data_functionalizedCrystal
_audit_creation_method	'MofGen! by Chris Wilmer'
_symmetry_space_group_name_H-M	'P1'
_symmetry_Int_Tables_number	1
_symmetry_cell_setting	triclinic
loop_
_symmetry_equiv_pos_as_xyz
  x,y,z
_cell_length_a	16.992694
_cell_length_b	15.995350
_cell_length_c	16.053802
_cell_angle_alpha	92.567808
_cell_angle_beta	87.249047
_cell_angle_gamma	87.080299
loop_
_atom_site_label
_atom_site_type_symbol
_atom_site_fract_x
_atom_site_fract_y
_atom_site_fract_z
O1	O	1.043694	0.174244	-0.069318
O2	O	1.543694	0.674244	0.430682
O3	O	0.815410	0.172295	-0.069342
O4	O	1.315410	0.672295	0.430658
O5	O	0.935792	0.051799	-0.069329
O6	O	1.435792	0.551799	0.430671
O7	O	0.923312	0.294739	-0.069332
O8	O	1.423312	0.794739	0.430668
O9	O	0.929166	0.058403	0.069530
O10	O	1.429166	0.558403	0.569530
O11	O	0.808784	0.178898	0.069516
O12	O	1.308784	0.678898	0.569516
O13	O	1.037068	0.180847	0.069540
O14	O	1.537068	0.680847	0.569540
Zn15	Zn	0.921874	0.180921	0.091575
Zn16	Zn	1.421874	0.680921	0.591575
Zn17	Zn	0.930604	0.172221	-0.091377
Zn18	Zn	1.430604	0.672221	0.408623
O19	O	0.916685	0.301343	0.069527
O20	O	1.416685	0.801343	0.569527
C21	C	0.782884	0.173091	0.000083
C22	C	1.282884	0.673091	0.500083
C23	C	0.695841	0.165614	0.000074
C24	C	1.195841	0.665614	0.500074
C25	C	0.645600	0.237749	0.000074
C26	C	1.145600	0.737749	0.500074
C27	C	0.563813	0.230720	0.000085
C28	C	1.063813	0.730720	0.500085
C29	C	0.532268	0.151555	0.000091
C30	C	1.032268	0.651555	0.500091
C31	C	0.582515	0.079414	0.000094
C32	C	1.082515	0.579414	0.500094
C33	C	0.664300	0.086444	0.000088
C34	C	1.164300	0.586444	0.500088
C35	C	0.288669	0.122417	0.000114
C36	C	0.788669	0.622417	0.500114
C37	C	0.206878	0.115392	0.000117
C38	C	0.706878	0.615392	0.500117
C39	C	0.188181	0.266699	0.000110
C40	C	0.688181	0.766699	0.500110
C41	C	0.269969	0.273722	0.000099
C42	C	0.769969	0.773722	0.500099
C43	C	0.320209	0.201582	0.000106
C44	C	0.820209	0.701582	0.500106
N45	N	0.448669	0.144368	0.000100
N46	N	0.948669	0.644368	0.500100
N47	N	0.403806	0.208770	0.000103
N48	N	0.903806	0.708770	0.500103
C49	C	0.931963	0.023872	0.000099
C50	C	1.431963	0.523872	0.500099
C51	C	0.930417	-0.069182	0.000094
C52	C	1.430417	0.430818	0.500094
C53	C	0.924861	-0.407302	0.000096
C54	C	1.424861	0.092698	0.500096
C55	C	0.839142	-0.365620	-0.000225
C56	C	1.339142	0.134380	0.499775
C57	C	0.840674	-0.268811	0.000089
C58	C	1.340674	0.231189	0.500089
C59	C	0.927617	-0.239557	0.000095
C60	C	1.427617	0.260443	0.500095
C61	C	0.966120	-0.274034	0.079392
C62	C	1.466120	0.225966	0.579392
C63	C	0.963963	-0.370810	0.079459
C64	C	1.463963	0.129190	0.579459
C65	C	0.973269	-0.378559	-0.078449
C66	C	1.473269	0.121441	0.421551
C67	C	0.973299	-0.281665	-0.079497
C68	C	1.473299	0.218335	0.420503
C69	C	0.929179	-0.144755	0.000096
C70	C	1.429179	0.355245	0.500096
C71	C	0.923302	-0.502103	0.000100
C72	C	1.423302	-0.002103	0.500100
C73	C	1.069593	0.180051	0.000113
C74	C	1.569593	0.680051	0.500113
C75	C	1.156637	0.187528	0.000117
C76	C	1.656637	0.687528	0.500117
C77	C	0.920515	0.329270	0.000097
C78	C	1.420515	0.829270	0.500097
C79	C	0.922061	0.422324	0.000097
C80	C	1.422061	0.922324	0.500097
N81	N	0.915921	0.186859	0.216434
N82	N	1.415921	0.686859	0.716434
N83	N	0.936563	0.166277	-0.216236
N84	N	1.436563	0.666277	0.283764
C85	C	0.967163	0.135608	0.260134
C86	C	1.467163	0.635608	0.760134
C87	C	0.963006	0.139770	0.347541
C88	C	1.463006	0.639770	0.847541
C89	C	0.907611	0.195187	0.391245
C90	C	1.407611	0.695187	0.891245
C91	C	0.856364	0.246439	0.347539
C92	C	1.356364	0.746439	0.847539
C93	C	0.860518	0.242273	0.260135
C94	C	1.360518	0.742273	0.760135
C95	C	0.889469	0.213363	0.652653
C96	C	1.389469	0.713363	1.152653
C97	C	0.885321	0.217528	0.740064
C98	C	1.385321	0.717528	1.240064
C99	C	0.991962	0.110857	0.740059
C100	C	1.491962	0.610857	1.240059
C101	C	0.996114	0.106699	0.652652
C102	C	1.496114	0.606699	1.152652
C103	C	0.944864	0.157948	0.608954
C104	C	1.444864	0.657948	1.108954
N105	N	0.903363	0.199444	0.480589
N106	N	1.403363	0.699444	0.980589
N107	N	0.949109	0.153686	0.519612
N108	N	1.449109	0.653686	1.019612
H109	H	0.147268	0.325432	0.000106
H110	H	0.647268	0.825432	0.500106
N111	N	1.044293	0.058492	0.784696
N112	N	1.544293	0.558492	1.284696
N113	N	1.043679	-0.019439	0.774942
N114	N	1.543679	0.480561	1.274942
H115	H	1.080637	-0.056428	0.806467
H116	H	1.580637	0.443572	1.306467
N117	N	0.802384	-0.239333	-0.071224
N118	N	1.302384	0.260667	0.428776
N119	N	0.828289	-0.263119	-0.143034
N120	N	1.328289	0.236881	0.356966
H121	H	0.801242	-0.242305	-0.193400
H122	H	1.301242	0.257695	0.306600
N123	N	1.053129	-0.257372	-0.085488
N124	N	1.553129	0.242628	0.414512
N125	N	1.108690	-0.311701	-0.085687
N126	N	1.608690	0.188299	0.414313
H127	H	1.165073	-0.294544	-0.089910
H128	H	1.665073	0.205456	0.410090
N129	N	0.174651	0.034524	0.000142
N130	N	0.674651	0.534524	0.500142
N131	N	0.128312	0.016516	0.058678
N132	N	0.628312	0.516516	0.558678
H133	H	0.105550	-0.040594	0.058695
H134	H	0.605550	0.459406	0.558695
H135	H	0.329565	0.063675	0.000120
H136	H	0.829565	0.563675	0.500120
H137	H	1.012274	0.090486	0.224555
H138	H	1.512274	0.590486	0.724555
H139	H	1.029854	-0.255493	0.082346
H140	H	1.529854	0.244507	0.582346
N141	N	1.052685	0.050086	0.607999
N142	N	1.552685	0.550086	1.107999
N143	N	1.056384	0.046372	0.529960
N144	N	1.556384	0.546372	1.029960
H145	H	1.096339	0.006389	0.498421
H146	H	1.596339	0.506389	0.998421
N147	N	0.715611	0.012752	0.000098
N148	N	1.215611	0.512752	0.500098
N149	N	0.687438	-0.057927	0.000107
N150	N	1.187438	0.442073	0.500107
H151	H	0.723675	-0.109976	0.000119
H152	H	1.223675	0.390024	0.500119
H153	H	0.807588	-0.389148	-0.057091
H154	H	1.307588	0.110852	0.442909
N155	N	0.808189	0.294627	0.215481
N156	N	1.308189	0.794627	0.715481
N157	N	0.811905	0.290900	0.137442
N158	N	1.311905	0.790900	0.637442
H159	H	0.774945	0.327875	0.105904
H160	H	1.274945	0.827875	0.605904
N161	N	0.799778	0.303035	0.392193
N162	N	1.299778	0.803035	0.892193
N163	N	0.796076	0.306750	0.470232
N164	N	1.296076	0.806750	0.970232
H165	H	0.756112	0.346723	0.501769
H166	H	1.256112	0.846723	1.001769
N167	N	0.512500	0.304411	0.000104
N168	N	1.012500	0.804411	0.500104
N169	N	0.512603	0.358632	0.058636
N170	N	1.012603	0.858632	0.558636
H171	H	0.476365	0.410682	0.058653
H172	H	0.976365	0.910682	0.558653
N173	N	0.828716	0.274125	0.784701
N174	N	1.328716	0.774125	1.284701
N175	N	0.756710	0.267602	0.774954
N176	N	1.256710	0.767602	1.274954
H177	H	0.716734	0.307569	0.806480
H178	H	1.216734	0.807569	1.306480
H179	H	0.802329	-0.384808	0.056318
H180	H	1.302329	0.115192	0.556318
N181	N	0.837112	0.265714	0.608037
N182	N	1.337112	0.765714	1.108037
N183	N	0.787657	0.315188	0.647072
N184	N	1.287657	0.815188	1.147072
H185	H	0.750676	0.352162	0.615560
H186	H	1.250676	0.852162	1.115560
H187	H	0.930299	-0.388357	0.138731
H188	H	1.430299	0.111643	0.638731
N189	N	0.677805	0.318623	0.000077
N190	N	1.177805	0.818623	0.500077
N191	N	0.659622	0.371273	0.058612
N192	N	1.159622	0.871273	0.558612
H193	H	0.682363	0.428393	0.058618
H194	H	1.182363	0.928393	0.558618
N195	N	0.302176	0.354595	0.000083
N196	N	0.802176	0.854595	0.500083
N197	N	0.257309	0.418996	0.000077
N198	N	0.757309	0.918996	0.500077
H199	H	0.280055	0.476114	0.000060
H200	H	0.780055	0.976114	0.500060
N201	N	0.550282	-0.001445	0.000108
N202	N	1.050282	0.498555	0.500108
N203	N	0.477259	-0.007713	0.000113
N204	N	0.977259	0.492287	0.500113
H205	H	0.454495	-0.064822	0.000121
H206	H	0.954495	0.435178	0.500121
N207	N	0.795285	-0.233273	0.071514
N208	N	1.295285	0.266727	0.571514
N209	N	0.762381	-0.279977	0.121291
N210	N	1.262381	0.220023	0.621291
H211	H	0.730324	-0.254880	0.171741
H212	H	1.230324	0.245120	0.671741
N213	N	1.042711	-0.405759	0.083989
N214	N	1.542711	0.094241	0.583989
N215	N	1.099086	-0.358661	0.087097
N216	N	1.599086	0.141339	0.587097
H217	H	1.154701	-0.383339	0.090303
H218	H	1.654701	0.116661	0.590303
H219	H	0.948107	-0.403833	-0.138552
H220	H	1.448107	0.096167	0.361448
N221	N	0.925738	-0.237373	0.153411
N222	N	1.425738	0.262627	0.653411
N223	N	0.868601	-0.185855	0.147967
N224	N	1.368601	0.314145	0.647967
H225	H	0.840076	-0.159963	0.200241
H226	H	1.340076	0.340037	0.700241
H227	H	0.945181	-0.259275	-0.138159
H228	H	1.445181	0.240725	0.361841
H229	H	1.036506	-0.406115	-0.078977
H230	H	1.536506	0.093885	0.421023
N231	N	1.015351	0.087409	0.392165
N232	N	1.515351	0.587409	0.892165
N233	N	1.064809	0.037936	0.353134
N234	N	1.564809	0.537936	0.853134
H235	H	1.101780	0.000953	0.384649
H236	H	1.601780	0.500953	0.884649
