data_functionalizedCrystal
_audit_creation_method	'MofGen! by Chris Wilmer'
_symmetry_space_group_name_H-M	'P1'
_symmetry_Int_Tables_number	1
_symmetry_cell_setting	triclinic
loop_
_symmetry_equiv_pos_as_xyz
  x,y,z
_cell_length_a	23.532407
_cell_length_b	14.044220
_cell_length_c	12.503552
_cell_angle_alpha	86.160109
_cell_angle_beta	86.507167
_cell_angle_gamma	91.981222
loop_
_atom_site_label
_atom_site_type_symbol
_atom_site_fract_x
_atom_site_fract_y
_atom_site_fract_z
O1	O	0.134225	-1.261909	0.089227
O2	O	0.634225	-0.761909	0.589227
O3	O	0.129272	-0.985988	0.089253
O4	O	0.629272	-0.485988	0.589253
O5	O	0.049268	-1.132268	0.089220
O6	O	0.549268	-0.632268	0.589220
O7	O	0.214228	-1.115630	0.089261
O8	O	0.714228	-0.615630	0.589261
O9	O	0.055290	-1.121254	-0.089420
O10	O	0.555290	-0.621254	0.410580
O11	O	0.135293	-0.974975	-0.089387
O12	O	0.635293	-0.474975	0.410613
O13	O	0.140246	-1.250896	-0.089413
O14	O	0.640246	-0.750896	0.410587
Cu15	Cu	0.138320	-1.111930	-0.105711
Cu16	Cu	0.638320	-0.611930	0.394289
Cu17	Cu	0.131198	-1.124955	0.105551
Cu18	Cu	0.631198	-0.624955	0.605551
O19	O	0.220250	-1.104616	-0.089379
O20	O	0.720250	-0.604616	0.410621
C21	C	0.031040	-1.126337	-0.000103
C22	C	0.531040	-0.626337	0.499897
C23	C	-0.032246	-1.125063	-0.000111
C24	C	0.467754	-0.625063	0.499889
C25	C	0.130115	-0.945188	-0.000063
C26	C	0.630115	-0.445188	0.499937
C27	C	0.123648	-0.840023	-0.000054
C28	C	0.623648	-0.340023	0.499946
C29	C	0.139403	-1.291696	-0.000094
C30	C	0.639403	-0.791696	0.499906
C31	C	0.145869	-1.396861	-0.000096
C32	C	0.645869	-0.896861	0.499904
C33	C	-0.427092	-1.203641	-0.000060
C34	C	0.072908	-0.703641	0.499940
C35	C	-0.486556	-1.202458	-0.000051
C36	C	0.013444	-0.702458	0.499949
O37	O	-0.519354	-1.275300	-0.000019
O38	O	-0.019354	-0.775300	0.499981
N39	N	-0.513896	-1.115494	-0.000044
N40	N	-0.013896	-0.615494	0.499956
C41	C	-0.481769	-1.029708	-0.000034
C42	C	0.018231	-0.529708	0.499966
O43	O	-0.510484	-0.955630	-0.000026
O44	O	-0.010484	-0.455630	0.499974
C45	C	-0.422305	-1.030893	-0.000034
C46	C	0.077695	-0.530893	0.499966
C47	C	-0.394968	-1.117862	-0.000053
C48	C	0.105032	-0.617862	0.499947
C49	C	-0.399754	-1.290603	-0.000077
C50	C	0.100246	-0.790603	0.499923
C51	C	-0.340294	-1.291786	-0.000087
C52	C	0.159706	-0.791786	0.499913
C53	C	-0.308170	-1.206006	-0.000080
C54	C	0.191830	-0.706006	0.499920
C55	C	-0.335508	-1.119044	-0.000063
C56	C	0.164492	-0.619044	0.499937
C57	C	-0.390179	-0.945109	-0.000016
C58	C	0.109821	-0.445109	0.499984
C59	C	-0.330712	-0.946301	-0.000016
C60	C	0.169288	-0.446301	0.499984
C61	C	-0.303375	-1.033270	-0.000035
C62	C	0.196625	-0.533270	0.499965
C63	C	-0.243924	-1.034447	-0.000066
C64	C	0.256076	-0.534447	0.499934
N65	N	-0.216584	-1.121411	-0.000074
N66	N	0.283416	-0.621411	0.499926
C67	C	-0.248707	-1.207191	-0.000081
C68	C	0.251293	-0.707191	0.499919
C69	C	-0.606646	-1.027228	-0.000031
C70	C	-0.106646	-0.527228	0.499969
C71	C	-0.666108	-1.026042	-0.000038
C72	C	-0.166108	-0.526042	0.499962
C73	C	-0.670891	-1.198792	-0.000053
C74	C	-0.170891	-0.698792	0.499947
C75	C	-0.611428	-1.199976	-0.000054
C76	C	-0.111428	-0.699976	0.499946
C77	C	-0.579306	-1.114192	-0.000038
C78	C	-0.079306	-0.614192	0.499962
C79	C	-0.123835	-1.209668	-0.000103
C80	C	0.376165	-0.709668	0.499897
C81	C	-0.064369	-1.210842	-0.000118
C82	C	0.435631	-0.710842	0.499882
C83	C	-0.059591	-1.038093	-0.000097
C84	C	0.440409	-0.538093	0.499903
C85	C	-0.119052	-1.036917	-0.000088
C86	C	0.380948	-0.536917	0.499912
C87	C	-0.151173	-1.122713	-0.000087
C88	C	0.348827	-0.622713	0.499913
O89	O	-0.211090	-0.961644	-0.000095
O90	O	0.288910	-0.461644	0.499905
O91	O	-0.219985	-1.281258	-0.000075
O92	O	0.280015	-0.781258	0.499925
C93	C	0.238478	-1.110547	-0.000054
C94	C	0.738478	-0.610547	0.499946
C95	C	0.301763	-1.111822	-0.000039
C96	C	0.801763	-0.611822	0.499961
N97	N	0.143329	-1.102775	-0.254302
N98	N	0.643329	-0.602775	0.245698
C99	C	0.111828	-0.647472	-0.000078
C100	C	0.611828	-0.147472	0.499922
C101	C	0.157687	-0.589407	-0.000072
C102	C	0.657687	-0.089407	0.499928
C103	C	0.151110	-0.482265	-0.000085
C104	C	0.651110	0.017735	0.499915
C105	C	0.118404	-0.754624	-0.000065
C106	C	0.618404	-0.254624	0.499935
C107	C	0.118815	-1.147578	-0.526745
C108	C	0.618815	-0.647578	-0.026745
C109	C	0.150697	-1.089317	-0.473408
C110	C	0.650697	-0.589317	0.026592
C111	C	0.146596	-1.096807	-0.351486
C112	C	0.646596	-0.596807	0.148514
C113	C	0.122915	-1.140089	-0.648678
C114	C	0.622915	-0.640089	-0.148678
N115	N	0.126185	-1.134116	0.254142
N116	N	0.626185	-0.634116	0.754142
H117	H	-0.042114	-1.281666	-0.000136
H118	H	0.457886	-0.781666	0.499864
F119	F	-0.705090	-1.290087	-0.000055
F120	F	-0.205090	-0.790087	0.499945
H121	H	0.067631	-0.616718	-0.000095
H122	H	0.567631	-0.116718	0.499905
H123	H	-0.688360	-0.955222	-0.000041
H124	H	-0.188360	-0.455222	0.499959
F125	F	0.190401	-1.016772	-0.533405
F126	F	0.690401	-0.516772	-0.033405
H127	H	0.201888	-0.620163	-0.000055
H128	H	0.701888	-0.120163	0.499945
H129	H	-0.149982	-1.279531	-0.000099
H130	H	0.350018	-0.779531	0.499901
F131	F	0.079115	-1.220123	-0.466753
F132	F	0.579115	-0.720123	0.033247
H133	H	-0.318041	-1.362605	-0.000098
H134	H	0.181959	-0.862605	0.499902
H135	H	-0.412427	-0.874290	0.000005
H136	H	0.087573	-0.374290	0.500005
F137	F	-0.433934	-1.381910	-0.000084
F138	F	0.066066	-0.881910	0.499916
F139	F	-0.582339	-1.292539	-0.000073
F140	F	-0.082339	-0.792539	0.499927
H141	H	-0.580495	-0.957366	-0.000027
H142	H	-0.080495	-0.457366	0.499973
H143	H	-0.304561	-0.876442	-0.000002
H144	H	0.195439	-0.376442	0.499998
F145	F	-0.148146	-0.944355	-0.000087
F146	F	0.351854	-0.444355	0.499913
H147	H	-0.033425	-0.968253	-0.000095
H148	H	0.466575	-0.468253	0.499905
