data_functionalizedCrystal
_audit_creation_method	'MofGen! by Chris Wilmer'
_symmetry_space_group_name_H-M	'P1'
_symmetry_Int_Tables_number	1
_symmetry_cell_setting	triclinic
loop_
_symmetry_equiv_pos_as_xyz
  x,y,z
_cell_length_a	12.759400
_cell_length_b	17.639664
_cell_length_c	12.759393
_cell_angle_alpha	78.825773
_cell_angle_beta	89.968831
_cell_angle_gamma	78.756919
loop_
_atom_site_label
_atom_site_type_symbol
_atom_site_fract_x
_atom_site_fract_y
_atom_site_fract_z
Zn1	Zn	-0.093068	-1.208394	-0.269895
Zn2	Zn	-0.268808	-1.208315	-0.094237
Zn3	Zn	-0.128687	-1.076215	-0.129684
Zn4	Zn	-0.304272	-1.076207	-0.305310
O5	O	-0.198709	-1.142283	-0.199781
O6	O	-0.086632	-1.318988	-0.216937
O7	O	-0.250285	-1.190762	0.048074
O8	O	0.023069	-1.093785	-0.148297
O9	O	-0.215747	-1.318930	-0.087883
O10	O	0.049238	-1.190896	-0.251309
O11	O	-0.147339	-1.093709	0.022031
O12	O	-0.181727	-0.965610	-0.182637
O13	O	-0.276190	-1.093772	-0.447625
O14	O	-0.310729	-0.965604	-0.311669
O15	O	-0.121020	-1.190888	-0.421606
O16	O	-0.420543	-1.190754	-0.122223
O17	O	-0.446598	-1.093695	-0.277297
C18	C	-0.253942	-0.936928	-0.254843
C19	C	-0.277597	-0.849077	-0.278423
C20	C	-0.378192	-0.725272	-0.378723
C21	C	-0.355958	-0.807822	-0.356558
C22	C	-0.221435	-0.807792	-0.222427
C23	C	-0.243655	-0.725240	-0.244585
C24	C	-0.322035	-0.683987	-0.322734
C25	C	-0.187498	-0.683955	-0.188596
C26	C	-0.209720	-0.601411	-0.210748
C27	C	-0.288099	-0.560151	-0.288890
C28	C	-0.344257	-0.601442	-0.344886
C29	C	-0.109123	-0.725210	-0.110442
C30	C	-0.052966	-0.683925	-0.054453
C31	C	-0.075182	-0.601379	-0.076610
C32	C	-0.153561	-0.560120	-0.154753
C33	C	-0.019024	-0.560088	-0.020615
C34	C	-0.041246	-0.477544	-0.042767
C35	C	-0.175783	-0.477576	-0.176905
C36	C	-0.471688	-1.142237	-0.199774
C37	C	-0.588451	-1.142289	-0.199786
C38	C	-0.739322	-1.192874	-0.253510
C39	C	-0.629609	-1.192831	-0.253492
C40	C	-0.657010	-1.091793	-0.146086
C41	C	-0.766719	-1.091840	-0.146099
C42	C	-0.780475	-1.243413	-0.307228
C43	C	-0.711924	-1.293911	-0.360927
C44	C	-0.602211	-1.293868	-0.360908
C45	C	-0.561050	-1.243328	-0.307192
C46	C	0.075343	-1.142350	-0.199806
C47	C	0.192127	-1.142379	-0.199817
C48	C	-0.198588	-1.142338	-0.473800
C49	C	-0.198536	-1.142362	-0.590570
C50	C	-0.143259	-0.348439	-0.144497
C51	C	-0.119626	-0.436290	-0.120915
C52	C	-0.117730	-1.192937	-0.631884
C53	C	-0.117687	-1.192956	-0.741603
C54	C	-0.279266	-1.091821	-0.768686
C55	C	-0.279303	-1.091799	-0.658970
C56	C	-0.036963	-1.243500	-0.563485
C57	C	0.043848	-1.294080	-0.604797
C58	C	0.043891	-1.294099	-0.714516
C59	C	-0.036877	-1.243537	-0.782923
C60	C	-0.198741	-1.142273	0.073183
C61	C	-0.198455	-1.142403	0.189994
H62	H	-0.157621	-0.841391	-0.158796
O63	O	-0.751821	-1.343115	-0.412968
C64	C	-0.703733	-1.421890	-0.368991
H65	H	-0.672562	-1.425911	-0.283975
H66	H	-0.765329	-1.460963	-0.367641
H67	H	-0.634427	-1.442496	-0.419796
H68	H	-0.401692	-0.841433	-0.402159
O69	O	-0.535688	-1.342836	-0.413237
C70	C	-0.567110	-1.325538	-0.522572
H71	H	-0.614320	-1.262405	-0.544737
H72	H	-0.493087	-1.332294	-0.572657
H73	H	-0.619329	-1.367926	-0.538734
H74	H	-0.471712	-1.243303	-0.307171
H75	H	-0.822536	-1.050722	-0.102378
H76	H	-0.623489	-1.050644	-0.102353
O77	O	-0.087729	-0.805394	-0.088906
C78	C	-0.180966	-0.832947	-0.054331
H79	H	-0.254308	-0.785381	-0.084957
H80	H	-0.184822	-0.888191	-0.086850
H81	H	-0.179164	-0.847552	0.036770
O82	O	0.023170	-0.724124	0.021389
C83	C	0.030723	-0.805833	0.028959
H84	H	-0.000748	-0.817132	-0.049026
H85	H	0.117875	-0.837211	0.044363
H86	H	-0.018847	-0.829229	0.097658
H87	H	0.044786	-0.593689	0.043021
O88	O	-0.036955	-1.243646	-0.456861
C89	C	-0.043610	-1.319387	-0.399930
H90	H	-0.013406	-1.364912	-0.450984
H91	H	0.007543	-1.333460	-0.322773
H92	H	-0.130346	-1.321036	-0.379995
H93	H	-0.345023	-1.050656	-0.824391
O94	O	0.122434	-1.343106	-0.538425
C95	C	0.222519	-1.325877	-0.569899
H96	H	0.210853	-1.262740	-0.616986
H97	H	0.276234	-1.332688	-0.495928
H98	H	0.261402	-1.368269	-0.622232
H99	H	0.109698	-1.335278	-0.748151
O100	O	-0.036704	-1.243680	-0.889471
C101	C	0.051955	-1.299145	-0.911276
H102	H	0.079068	-1.345314	-0.835669
H103	H	0.028341	-1.329146	-0.976628
H104	H	0.120145	-1.267829	-0.939163
H105	H	-0.345090	-1.050604	-0.625335
H106	H	0.004488	-0.443929	0.002820
H107	H	-0.239598	-0.443985	-0.240551
O108	O	-0.309685	-0.479968	-0.310608
C109	C	-0.290214	-0.452430	-0.418732
H110	H	-0.295423	-0.500020	-0.466442
H111	H	-0.352494	-0.397211	-0.452147
H112	H	-0.206984	-0.437792	-0.425040
O113	O	-0.887083	-1.243328	-0.307372
C114	C	-0.944177	-1.167573	-0.354557
H115	H	-0.889747	-1.134852	-0.409077
H116	H	-1.016012	-1.173235	-0.403443
H117	H	-0.972942	-1.133375	-0.289309
H118	H	-0.408072	-0.567851	-0.408532
H119	H	-0.442007	-0.691681	-0.442370
