data_functionalizedCrystal
_audit_creation_method	'MofGen! by Chris Wilmer'
_symmetry_space_group_name_H-M	'P1'
_symmetry_Int_Tables_number	1
_symmetry_cell_setting	triclinic
loop_
_symmetry_equiv_pos_as_xyz
  x,y,z
_cell_length_a	13.897449
_cell_length_b	18.215405
_cell_length_c	13.897441
_cell_angle_alpha	90.033850
_cell_angle_beta	89.981404
_cell_angle_gamma	89.973835
loop_
_atom_site_label
_atom_site_type_symbol
_atom_site_fract_x
_atom_site_fract_y
_atom_site_fract_z
Zn1	Zn	1.474634	0.292943	-0.545353
Zn2	Zn	1.974634	0.792943	-0.045353
Zn3	Zn	1.474514	0.416021	-0.384042
Zn4	Zn	1.974514	0.916021	0.115958
Zn5	Zn	1.313329	0.292976	-0.384071
Zn6	Zn	1.813329	0.792976	0.115929
Zn7	Zn	1.313285	0.415975	-0.545295
Zn8	Zn	1.813285	0.915975	-0.045295
O9	O	1.393940	0.354479	-0.464690
O10	O	1.893940	0.854479	0.035310
O11	O	1.609600	0.309275	-0.523967
O12	O	2.109600	0.809275	-0.023967
O13	O	1.453101	0.399732	-0.249064
O14	O	1.953101	0.899732	0.250936
O15	O	1.334796	0.189987	-0.405502
O16	O	1.834796	0.689987	0.094498
O17	O	1.609511	0.399700	-0.405453
O18	O	2.109511	0.899700	0.094547
O19	O	1.453306	0.189963	-0.523995
O20	O	1.953306	0.689963	-0.023995
O21	O	1.334679	0.309331	-0.249086
O22	O	1.834679	0.809331	0.250914
O23	O	1.178342	0.309286	-0.405446
O24	O	1.678342	0.809286	0.094554
O25	O	1.334720	0.399621	-0.680284
O26	O	1.834720	0.899621	-0.180284
O27	O	1.178309	0.399653	-0.523896
O28	O	1.678309	0.899653	-0.023896
O29	O	1.453262	0.309230	-0.680327
O30	O	1.953262	0.809230	-0.180327
O31	O	1.453057	0.518999	-0.405397
O32	O	1.953057	1.018999	0.094603
O33	O	1.334603	0.518965	-0.523868
O34	O	1.834603	1.018965	-0.023868
C35	C	1.393839	0.545685	-0.464644
C36	C	1.893839	1.045685	0.035356
C37	C	1.393883	0.627484	-0.464656
C38	C	1.893883	1.127484	0.035344
C39	C	1.143326	0.354469	-0.464668
C40	C	1.643326	0.854469	0.035332
C41	C	1.036112	0.354482	-0.464682
C42	C	1.536112	0.854482	0.035318
C43	C	1.393999	0.354417	-0.716283
C44	C	1.893999	0.854417	-0.216283
C45	C	1.394025	0.354390	-0.823497
C46	C	1.894025	0.854390	-0.323497
C47	C	0.839817	0.354485	-0.464707
C48	C	1.339817	0.854485	0.035293
C49	C	0.949050	0.354481	-0.464690
C50	C	1.449050	0.854481	0.035310
C51	C	1.645533	0.354489	-0.464713
C52	C	2.145533	0.854489	0.035287
C53	C	1.752747	0.354493	-0.464723
C54	C	2.252747	0.854493	0.035277
C55	C	1.394069	0.162526	-0.464758
C56	C	1.894069	0.662526	0.035242
C57	C	1.394124	0.080727	-0.464787
C58	C	1.894124	0.580727	0.035213
C59	C	1.455707	0.815671	-0.403082
C60	C	1.955707	1.315671	0.096918
C61	C	1.455750	0.892530	-0.403105
C62	C	1.955750	1.392530	0.096895
C63	C	1.332297	0.892534	-0.526368
C64	C	1.832297	1.392534	-0.026368
C65	C	1.332259	0.815677	-0.526349
C66	C	1.832259	1.315677	-0.026349
C67	C	1.393963	0.777247	-0.464700
C68	C	1.893963	1.277247	0.035300
C69	C	1.394044	0.930963	-0.464743
C70	C	1.894044	1.430963	0.035257
C71	C	1.394090	1.014297	-0.464769
C72	C	1.894090	1.514297	0.035231
C73	C	1.393918	0.693908	-0.464676
C74	C	1.893918	1.193908	0.035324
C75	C	1.394044	0.354370	-0.910567
C76	C	1.894044	0.854370	-0.410567
C77	C	1.394072	0.354337	-1.019800
C78	C	1.894072	0.854337	-0.519800
C79	C	1.393937	0.354487	-0.214076
C80	C	1.893937	0.854487	0.285924
C81	C	1.394099	0.354306	-0.106863
C82	C	1.894099	0.854306	0.393137
H83	H	1.505952	0.784383	-0.352885
H84	H	2.005952	1.284383	0.147115
H85	H	1.282059	0.923833	-0.576559
H86	H	1.782059	1.423833	-0.076559
N87	N	1.265661	0.774224	-0.592809
N88	N	1.765661	1.274224	-0.092809
H89	H	1.280604	0.787548	-0.661747
H90	H	1.780604	1.287548	-0.161747
H91	H	1.196783	0.787665	-0.577684
H92	H	1.696783	1.287665	-0.077684
N93	N	1.522348	0.933973	-0.336648
N94	N	2.022348	1.433973	0.163352
H95	H	1.561428	0.897963	-0.297594
H96	H	2.061428	1.397963	0.202406
H97	H	1.483127	0.965916	-0.291982
H98	H	1.983127	1.465916	0.208018
