data_functionalizedCrystal
_audit_creation_method	'MofGen! by Chris Wilmer'
_symmetry_space_group_name_H-M	'P1'
_symmetry_Int_Tables_number	1
_symmetry_cell_setting	triclinic
loop_
_symmetry_equiv_pos_as_xyz
  x,y,z
_cell_length_a	15.298068
_cell_length_b	29.839131
_cell_length_c	15.298431
_cell_angle_alpha	99.726164
_cell_angle_beta	88.414624
_cell_angle_gamma	99.692747
loop_
_atom_site_label
_atom_site_type_symbol
_atom_site_fract_x
_atom_site_fract_y
_atom_site_fract_z
Zn1	Zn	1.253505	-0.008245	0.727423
Zn2	Zn	1.278710	-0.093840	0.580900
Zn3	Zn	1.132345	-0.033507	0.555563
Zn4	Zn	1.106959	-0.098160	0.701932
O5	O	1.192880	-0.058438	0.641454
O6	O	1.379433	-0.007219	0.729259
O7	O	1.280467	-0.094600	0.454962
O8	O	1.148494	0.032724	0.578425
O9	O	1.397951	-0.070105	0.621608
O10	O	1.237509	0.051283	0.704691
O11	O	1.172933	-0.050274	0.436347
O12	O	1.006394	-0.054463	0.553707
O13	O	1.105226	-0.077469	0.827890
O14	O	0.987742	-0.101964	0.661244
O15	O	1.212893	-0.011409	0.846618
O16	O	1.255851	-0.157292	0.596890
O17	O	1.129666	-0.160466	0.685812
C18	C	0.965283	-0.081424	0.601960
C19	C	0.867913	-0.091267	0.585085
C20	C	0.554818	0.011798	0.762065
C21	C	0.646302	0.021045	0.777925
C22	C	0.701709	-0.007032	0.729716
C23	C	0.665624	-0.044358	0.665645
C24	C	0.574130	-0.053608	0.649788
C25	C	0.721021	-0.072438	0.617440
C26	C	0.684936	-0.109764	0.553369
C27	C	0.593451	-0.119012	0.537515
C28	C	0.538044	-0.090935	0.585723
C29	C	0.812514	-0.063188	0.633296
C30	C	0.831827	-0.128594	0.521020
C31	C	0.740343	-0.137841	0.505160
C32	C	1.192759	-0.175179	0.641357
C33	C	1.192782	-0.225112	0.641359
C34	C	1.239204	-0.525035	0.707278
C35	C	1.239290	-0.712695	0.707348
O36	O	1.278638	-0.728713	0.763317
N37	N	1.193012	-0.745858	0.641577
C38	C	1.146704	-0.732104	0.575789
O39	O	1.107336	-0.764618	0.519854
C40	C	1.146613	-0.544446	0.575724
C41	C	1.192902	-0.511284	0.641493
C42	C	1.285489	-0.491874	0.773043
C43	C	1.285471	-0.444962	0.773022
C44	C	1.239168	-0.431211	0.707237
C45	C	1.192884	-0.464372	0.641473
C46	C	1.100300	-0.530693	0.509940
C47	C	1.100280	-0.483774	0.509931
C48	C	1.146569	-0.450613	0.575700
C49	C	1.146564	-0.403708	0.575667
N50	N	1.192842	-0.370545	0.641437
C51	C	1.239145	-0.384296	0.707222
C52	C	1.146756	-0.830627	0.575826
C53	C	1.146780	-0.877542	0.575841
C54	C	1.239365	-0.858129	0.707402
C55	C	1.239346	-0.811214	0.707382
C56	C	1.193035	-0.797464	0.641596
C57	C	1.239104	-0.285778	0.707173
C58	C	1.239085	-0.238863	0.707144
C59	C	1.146496	-0.258280	0.575587
C60	C	1.146518	-0.305191	0.575613
C61	C	1.192824	-0.318938	0.641413
O62	O	1.107228	-0.387658	0.519732
O63	O	1.278491	-0.351776	0.763160
C64	C	1.239222	-0.571947	0.707299
C65	C	1.192938	-0.605108	0.641535
C66	C	1.146636	-0.591357	0.575750
C67	C	1.192962	-0.652023	0.641550
C68	C	1.239264	-0.665774	0.707335
C69	C	1.285543	-0.632611	0.773105
C70	C	1.285525	-0.585698	0.773084
C71	C	1.100357	-0.624520	0.509979
C72	C	1.100380	-0.671432	0.510005
C73	C	1.146682	-0.685183	0.575790
C74	C	1.421365	-0.035362	0.681103
C75	C	1.518732	-0.025529	0.697999
C76	C	1.153417	-0.042103	0.869926
C77	C	1.136600	-0.035142	0.967286
C78	C	1.193022	0.058763	0.641575
C79	C	1.193082	0.108707	0.641627
C80	C	1.232240	-0.074672	0.413881
C81	C	1.249227	-0.081489	0.316550
C82	C	1.072711	-0.008792	1.003328
C83	C	1.056899	-0.002254	1.094801
C84	C	1.104980	-0.022062	1.150243
C85	C	1.168874	-0.048410	1.114202
C86	C	1.184683	-0.054952	1.022719
C87	C	1.216952	-0.068221	1.169634
C88	C	1.280847	-0.094569	1.133594
C89	C	1.296653	-0.101110	1.042120
C90	C	1.248572	-0.081302	0.986678
C91	C	1.201143	-0.061679	1.261117
C92	C	1.313116	-0.107839	1.280509
C93	C	1.328928	-0.114377	1.189036
H94	H	1.276782	-0.211863	0.760702
Br95	Br	1.114432	-0.025922	1.310018
H96	H	1.004873	0.019197	1.124138
H97	H	0.564073	-0.149408	0.485350
H98	H	1.261446	-0.086622	0.912192
Br99	Br	0.413883	-0.103481	0.564196
H100	H	1.062565	-0.472583	0.456361
Br101	Br	1.007479	0.018095	0.928086
Br102	Br	1.301949	-0.304428	0.796473
H103	H	0.710949	-0.168232	0.452994
Br104	Br	1.348288	-0.399964	0.862290
H105	H	1.348669	-0.122571	1.012777
H106	H	1.323193	-0.503064	0.826618
H107	H	0.841886	-0.032796	0.685463
H108	H	1.277068	-0.869333	0.760966
H109	H	1.277038	-0.784215	0.760937
H110	H	0.876939	-0.151459	0.481769
Br111	Br	1.083974	-0.922541	0.486567
Br112	Br	1.083893	-0.811975	0.486541
Br113	Br	0.825867	0.005518	0.751241
Br114	Br	0.695268	0.071697	0.864880
H115	H	1.092103	-0.016736	1.224724
H116	H	1.380951	-0.135830	1.159678
H117	H	1.352269	-0.123967	1.325650
H118	H	1.108834	-0.332193	0.522053
Br119	Br	0.479619	0.049892	0.827497
H120	H	1.062607	-0.557686	0.456383
H121	H	1.108800	-0.247076	0.522023
H122	H	1.323217	-0.558701	0.826640
H123	H	1.323247	-0.643815	0.826667
Br124	Br	1.037559	-0.716432	0.420733
H125	H	1.062651	-0.613329	0.456410
