data_functionalizedCrystal
_audit_creation_method	'MofGen! by Chris Wilmer'
_symmetry_space_group_name_H-M	'P1'
_symmetry_Int_Tables_number	1
_symmetry_cell_setting	triclinic
loop_
_symmetry_equiv_pos_as_xyz
  x,y,z
_cell_length_a	23.532361
_cell_length_b	23.532407
_cell_length_c	7.681481
_cell_angle_alpha	84.289450
_cell_angle_beta	95.690432
_cell_angle_gamma	82.839173
loop_
_atom_site_label
_atom_site_type_symbol
_atom_site_fract_x
_atom_site_fract_y
_atom_site_fract_z
O1	O	0.749867	0.074426	-0.146273
O2	O	0.583998	0.084459	-0.146318
O3	O	0.671936	-0.003491	-0.146262
O4	O	0.661930	0.162376	-0.146329
O5	O	0.682759	-0.014341	0.146602
O6	O	0.594822	0.073609	0.146547
O7	O	0.760691	0.063577	0.146591
Zn8	Zn	0.679475	0.066870	0.193067
Zn9	Zn	0.665214	0.081165	-0.192794
O10	O	0.672753	0.151527	0.146535
C11	C	0.568193	0.078783	0.000109
C12	C	0.504974	0.078028	0.000093
C13	C	0.677093	-0.030132	0.000175
C14	C	0.676327	-0.093350	0.000188
C15	C	0.225831	0.080638	-0.159535
C16	C	0.285231	0.081354	-0.159540
O17	O	0.310939	0.086733	-0.295305
N18	N	0.320836	0.075801	0.000101
C19	C	0.297040	0.069526	0.159757
O20	O	0.332780	0.064868	0.295544
C21	C	0.237642	0.068807	0.159760
C22	C	0.202039	0.074366	0.000108
C23	C	0.190228	0.086196	-0.319174
C24	C	0.130832	0.085482	-0.319169
C25	C	0.107040	0.079210	-0.159525
C26	C	0.142643	0.073652	0.000114
C27	C	0.213848	0.062529	0.319414
C28	C	0.154446	0.061810	0.319403
C29	C	0.118842	0.067369	0.159752
C30	C	0.059455	0.066666	0.159763
N31	N	0.023849	0.072219	0.000122
C32	C	0.047642	0.078491	-0.159522
C33	C	0.421780	0.071036	0.159739
C34	C	0.481176	0.071759	0.159738
C35	C	0.469362	0.083585	-0.159560
C36	C	0.409964	0.082866	-0.159557
C37	C	0.386174	0.076589	0.000098
C38	C	-0.077093	0.076992	-0.159499
C39	C	-0.136494	0.076280	-0.159479
C40	C	-0.124674	0.064451	0.159817
C41	C	-0.065279	0.065166	0.159799
C42	C	-0.041490	0.071435	0.000127
O43	O	0.033707	0.061286	0.295459
O44	O	0.011897	0.083141	-0.295286
C45	C	0.723559	-0.492458	0.000104
C46	C	0.722847	-0.551857	0.000091
O47	O	0.766632	-0.588607	0.000037
N48	N	0.670569	-0.574474	0.000078
C49	C	0.618999	-0.537687	0.000061
O50	O	0.574467	-0.562379	0.000047
C51	C	0.619711	-0.478288	0.000062
C52	C	0.671993	-0.455676	0.000092
C53	C	0.775837	-0.469844	0.000133
C54	C	0.776548	-0.410449	0.000150
C55	C	0.724983	-0.373667	0.000138
C56	C	0.672705	-0.396280	0.000109
C57	C	0.568141	-0.441502	0.000032
C58	C	0.568858	-0.382100	0.000031
C59	C	0.621140	-0.359487	0.000062
C60	C	0.621851	-0.300103	0.000114
N61	N	0.674129	-0.277486	0.000127
C62	C	0.725695	-0.314268	0.000139
C63	C	0.617507	-0.662429	0.000056
C64	C	0.616795	-0.721828	0.000067
C65	C	0.720643	-0.735993	0.000094
C66	C	0.721355	-0.676594	0.000095
C67	C	0.669785	-0.639812	0.000068
C68	C	0.727186	-0.189533	0.000176
C69	C	0.727893	-0.130132	0.000200
C70	C	0.624045	-0.115971	0.000164
C71	C	0.623338	-0.175367	0.000149
C72	C	0.674912	-0.212147	0.000149
O73	O	0.578089	-0.263318	0.000160
O74	O	0.770218	-0.289567	0.000129
C75	C	0.776495	0.069252	0.000160
C76	C	0.839714	0.070008	0.000164
C77	C	0.667596	0.178168	0.000095
C78	C	0.668361	0.241386	0.000070
N79	N	0.689212	0.057114	0.456408
N80	N	0.655482	0.090917	-0.456135
H81	H	-0.165481	0.080809	-0.289492
H82	H	0.402414	0.065931	0.289757
H83	H	0.621051	0.125419	0.468646
C84	C	0.091677	0.091586	-0.494800
N85	N	0.062189	0.096179	-0.627094
H86	H	0.525567	-0.459902	-0.000004
H87	H	0.582062	-0.086013	0.000160
H88	H	0.770470	-0.111724	0.000229
H89	H	-0.057732	0.082098	-0.289519
C90	C	0.216389	0.093096	-0.494811
N91	N	0.236089	0.098296	-0.627112
H92	H	0.723649	0.022614	0.531636
H93	H	0.242828	0.058000	0.449420
H94	H	0.575511	-0.632485	0.000049
H95	H	0.380979	0.087393	-0.289559
H96	H	0.488745	0.088692	-0.289550
H97	H	0.510159	0.067241	0.289743
H98	H	0.135079	0.056703	0.449417
C99	C	-0.026114	0.059055	0.335422
N100	N	0.003382	0.054446	0.467706
C101	C	0.559282	-0.746695	0.000055
N102	N	0.515960	-0.765423	0.000035
C103	C	0.512125	-0.341643	0.000009
N104	N	0.469394	-0.311172	-0.000002
H105	H	0.819122	-0.392043	0.000167
C106	C	0.565826	-0.200242	0.000127
N107	N	0.522506	-0.218973	0.000091
H108	H	-0.144057	0.059346	0.289795
H109	H	0.769183	-0.219472	0.000169
C110	C	0.778868	-0.651726	0.000113
N111	N	0.822189	-0.632998	0.000121
C112	C	0.832569	-0.510297	0.000165
N113	N	0.875305	-0.540763	0.000208
H114	H	0.762631	-0.765952	0.000097
