data_functionalizedCrystal
_audit_creation_method	'MofGen! by Chris Wilmer'
_symmetry_space_group_name_H-M	'P1'
_symmetry_Int_Tables_number	1
_symmetry_cell_setting	triclinic
loop_
_symmetry_equiv_pos_as_xyz
  x,y,z
_cell_length_a	12.827893
_cell_length_b	13.897447
_cell_length_c	13.897441
_cell_angle_alpha	90.026528
_cell_angle_beta	89.980094
_cell_angle_gamma	89.978644
loop_
_atom_site_label
_atom_site_type_symbol
_atom_site_fract_x
_atom_site_fract_y
_atom_site_fract_z
Zn1	Zn	1.597634	0.383980	-0.545387
Zn2	Zn	2.097634	0.883980	-0.045387
Zn3	Zn	1.597508	0.545302	-0.384100
Zn4	Zn	2.097508	1.045302	0.115900
Zn5	Zn	1.422873	0.384023	-0.384108
Zn6	Zn	1.922873	0.884023	0.115892
Zn7	Zn	1.422843	0.545235	-0.545355
Zn8	Zn	1.922843	1.045235	-0.045355
O9	O	1.510215	0.464635	-0.464737
O10	O	2.010215	0.964635	0.035263
O11	O	1.743853	0.405390	-0.524002
O12	O	2.243853	0.905390	-0.024002
O13	O	1.574303	0.523953	-0.249119
O14	O	2.074303	1.023953	0.250881
O15	O	1.446121	0.249035	-0.405519
O16	O	1.946121	0.749035	0.094481
O17	O	1.743761	0.523912	-0.405505
O18	O	2.243761	1.023912	0.094495
O19	O	1.574517	0.249004	-0.524010
O20	O	2.074517	0.749004	-0.024010
O21	O	1.445999	0.405463	-0.249125
O22	O	1.945999	0.905463	0.250875
O23	O	1.276633	0.405398	-0.405487
O24	O	1.776633	0.905398	0.094513
O25	O	1.446069	0.523799	-0.680341
O26	O	1.946069	1.023799	-0.180341
O27	O	1.276611	0.523840	-0.523955
O28	O	1.776611	1.023840	-0.023955
O29	O	1.574487	0.405325	-0.680365
O30	O	2.074487	0.905325	-0.180365
O31	O	1.574273	0.680275	-0.405474
O32	O	2.074273	1.180275	0.094526
O33	O	1.445947	0.680226	-0.523947
O34	O	1.945947	1.180226	-0.023947
C35	C	1.238705	0.464617	-0.464719
C36	C	1.738705	0.964617	0.035281
C37	C	1.122552	0.464633	-0.464734
C38	C	1.622552	0.964633	0.035266
C39	C	1.070812	0.406088	-0.523462
C40	C	1.570812	0.906088	-0.023462
C41	C	0.950762	0.406103	-0.523478
C42	C	1.450762	0.906103	-0.023478
C43	C	1.510122	0.715249	-0.464727
C44	C	2.010122	1.215249	0.035273
C45	C	1.510178	0.822463	-0.464755
C46	C	2.010178	1.322463	0.035245
C47	C	1.510226	0.909533	-0.464782
C48	C	2.010226	1.409533	0.035218
C49	C	1.510295	1.018765	-0.464812
C50	C	2.010295	1.518765	0.035188
C51	C	1.782785	0.464653	-0.464756
C52	C	2.282785	0.964653	0.035244
C53	C	1.898938	0.464661	-0.464765
C54	C	2.398938	0.964661	0.035235
C55	C	1.510289	0.464550	-0.716331
C56	C	2.010289	0.964550	-0.216331
C57	C	1.510320	0.464513	-0.823545
C58	C	2.010320	0.964513	-0.323545
C59	C	1.510329	1.213042	-0.464781
C60	C	2.010329	1.713042	0.035219
C61	C	1.510357	1.105828	-0.464831
C62	C	2.010357	1.605828	0.035169
C63	C	1.510349	0.464448	-1.019840
C64	C	2.010349	0.964448	-0.519840
C65	C	1.510330	0.464487	-0.910607
C66	C	2.010330	0.964487	-0.410607
C67	C	1.510201	0.464650	-0.214123
C68	C	2.010201	0.964650	0.285877
C69	C	1.510372	0.464415	-0.106910
C70	C	2.010372	0.964415	0.393090
H71	H	1.077971	0.514764	-0.414466
H72	H	1.577971	1.014764	0.085534
H73	H	0.943426	0.514791	-0.414489
H74	H	1.443426	1.014791	0.085511
H75	H	1.115393	0.355952	-0.573724
H76	H	1.615393	0.855952	-0.073724
H77	H	0.906267	0.355984	-0.573760
H78	H	1.406267	0.855984	-0.073760
