data_functionalizedCrystal
_audit_creation_method	'MofGen! by Chris Wilmer'
_symmetry_space_group_name_H-M	'P1'
_symmetry_Int_Tables_number	1
_symmetry_cell_setting	triclinic
loop_
_symmetry_equiv_pos_as_xyz
  x,y,z
_cell_length_a	31.640172
_cell_length_b	21.606444
_cell_length_c	21.606444
_cell_angle_alpha	59.991153
_cell_angle_beta	89.996430
_cell_angle_gamma	59.996615
loop_
_atom_site_label
_atom_site_type_symbol
_atom_site_fract_x
_atom_site_fract_y
_atom_site_fract_z
Zr1	Zr	0.407177	0.677452	-0.081360
O2	O	0.339685	0.806597	-0.180205
O3	O	0.427867	0.548317	-0.051044
O4	O	0.427863	0.677453	-0.180188
O5	O	0.339693	0.677456	0.050794
O6	O	0.497419	0.677443	-0.180192
O7	O	0.339689	0.677461	-0.051060
O8	O	0.497426	0.446442	0.050823
O9	O	0.339686	0.908457	-0.180222
O10	O	0.488600	0.601421	-0.038136
O11	O	0.436693	0.601425	0.037880
O12	O	0.436689	0.753466	-0.114171
O13	O	0.384782	0.753471	-0.038155
Zr14	Zr	0.518117	0.677428	0.081079
Zr15	Zr	0.518111	0.677435	-0.081367
Zr16	Zr	0.407183	0.677445	0.081085
Zr17	Zr	0.407178	0.839907	-0.081387
Zr18	Zr	0.518116	0.514973	0.081106
O19	O	0.497427	0.806563	0.050763
O20	O	0.497419	0.806573	-0.180214
O21	O	0.339693	0.806587	0.050772
O22	O	0.585609	0.548284	0.179923
O23	O	0.585601	0.548294	-0.051053
O24	O	0.427875	0.548307	0.179933
O25	O	0.585601	0.677424	-0.051075
O26	O	0.497431	0.677427	0.179907
O27	O	0.427875	0.677438	0.179911
O28	O	0.585605	0.677419	0.050779
O29	O	0.427863	0.908444	-0.180227
O30	O	0.497430	0.446437	0.179946
O31	O	0.585608	0.446424	0.179940
O32	O	0.585604	0.446429	0.050818
O33	O	0.339690	0.908451	-0.051099
O34	O	0.427868	0.908438	-0.051104
O35	O	0.488605	0.601414	0.113889
O36	O	0.540511	0.601410	0.037874
O37	O	0.488600	0.753455	-0.038161
O38	O	0.436694	0.753460	0.037855
C39	C	0.462646	0.474233	-0.000107
C40	C	0.462646	0.405267	-0.000095
C41	C	0.424323	0.429010	-0.056221
C42	C	0.424325	0.364221	-0.056237
C43	C	0.462647	0.275689	-0.000123
C44	C	0.500973	0.251946	0.056006
C45	C	0.500973	0.316735	0.056018
C46	C	0.500973	-0.009340	0.055959
C47	C	0.500969	-0.074129	0.055944
C48	C	0.424324	0.038145	-0.056296
C49	C	0.424324	0.102934	-0.056284
C50	C	0.462652	0.079186	-0.000158
C51	C	0.462651	0.149439	-0.000143
C52	C	0.462646	0.205437	-0.000135
C53	C	0.323885	0.677461	-0.000132
C54	C	0.276791	0.677468	-0.000130
C55	C	-0.015217	0.677427	-0.056251
C56	C	-0.192203	0.677416	-0.056257
O57	O	-0.215077	0.677379	-0.103960
N58	N	-0.214332	0.677415	-0.000145
C59	C	-0.192209	0.677412	0.055974
O60	O	-0.215089	0.677402	0.103705
C61	C	-0.015222	0.677416	0.055982
C62	C	0.006902	0.677426	-0.000137
C63	C	0.006907	0.677435	-0.112366
C64	C	0.051149	0.677443	-0.112366
C65	C	0.073268	0.677442	-0.056252
C66	C	0.051144	0.677433	-0.000138
C67	C	0.006902	0.677406	0.112105
C68	C	0.051153	0.677405	0.112103
C69	C	0.073276	0.677415	0.055983
C70	C	0.117505	0.677440	0.055976
N71	N	0.139634	0.677440	-0.000135
C72	C	0.117515	0.677441	-0.056250
C73	C	-0.285131	0.677411	0.055965
C74	C	-0.329378	0.677411	0.055963
C75	C	-0.329369	0.677414	-0.056268
C76	C	-0.285123	0.677420	-0.056268
C77	C	-0.263002	0.677411	-0.000146
C78	C	0.210427	0.677458	-0.056247
C79	C	0.254672	0.677469	-0.056244
C80	C	0.254660	0.677462	0.055989
C81	C	0.210417	0.677455	0.055984
C82	C	0.188303	0.677450	-0.000137
O83	O	0.140410	0.677467	0.103659
O84	O	0.140409	0.677432	-0.103963
C85	C	-0.059459	0.677419	-0.056251
C86	C	-0.081583	0.677411	-0.000136
C87	C	-0.059464	0.677410	0.055978
C88	C	-0.125830	0.677411	-0.000139
C89	C	-0.147949	0.677412	-0.056253
C90	C	-0.125820	0.677413	-0.112365
C91	C	-0.081578	0.677420	-0.112365
C92	C	-0.081593	0.677409	0.112089
C93	C	-0.125836	0.677403	0.112085
C94	C	-0.147954	0.677404	0.055971
C95	C	0.601409	0.677419	-0.000149
C96	C	0.648503	0.677412	-0.000152
C97	C	0.462640	0.677449	-0.203335
C98	C	0.462637	0.677452	-0.272298
C99	C	0.462648	0.880647	-0.000175
C100	C	0.462648	0.949613	-0.000186
C101	C	0.435540	0.756817	-0.344386
C102	C	0.435545	0.756815	-0.409181
C103	C	0.462644	0.677446	-0.401886
C104	C	0.489744	0.598075	-0.329790
C105	C	0.489743	0.598078	-0.264997
C106	C	0.489753	0.598059	-0.591093
C107	C	0.489751	0.598062	-0.655894
C108	C	0.435555	0.756796	-0.735277
C109	C	0.435553	0.756800	-0.670484
C110	C	0.462655	0.677429	-0.598394
C111	C	0.462651	0.677432	-0.528136
C112	C	0.462645	0.677442	-0.472142
C113	C	0.462654	0.677431	0.203054
C114	C	0.462656	0.677428	0.272016
C115	C	0.601408	0.474213	-0.000115
C116	C	0.648502	0.405239	-0.000106
C117	C	0.462653	0.474225	0.203088
C118	C	0.462655	0.405255	0.272062
C119	C	0.601415	0.474204	0.203080
C120	C	0.648511	0.405227	0.272051
C121	C	0.323879	0.880676	-0.203361
C122	C	0.276782	0.949653	-0.272332
C123	C	0.323886	0.880668	-0.000166
C124	C	0.276792	0.949641	-0.000175
C125	C	0.462641	0.880656	-0.203369
C126	C	0.462638	0.949625	-0.272343
C127	C	0.643521	0.372854	-0.039785
C128	C	0.687766	0.308055	-0.039792
C129	C	0.736993	0.275638	-0.000115
C130	C	0.741973	0.308029	0.039565
C131	C	0.697728	0.372831	0.039567
C132	C	0.489754	0.372861	0.344136
C133	C	0.489754	0.308066	0.408950
C134	C	0.462658	0.275662	0.401689
C135	C	0.435556	0.308063	0.329608
C136	C	0.435554	0.372861	0.264795
C137	C	0.697728	0.372833	0.264761
C138	C	0.741984	0.308031	0.329561
C139	C	0.737023	0.275621	0.401649
C140	C	0.687802	0.308021	0.408938
C141	C	0.643546	0.372826	0.344139
C142	C	0.227566	0.982055	-0.265042
C143	C	0.183310	1.046877	-0.329842
C144	C	0.188270	1.079291	-0.401930
C145	C	0.237492	1.046886	-0.409219
C146	C	0.281747	0.982070	-0.344420
C147	C	0.281773	0.982033	0.039497
C148	C	0.237527	1.046850	0.039486
C149	C	0.188301	1.079270	-0.000193
C150	C	0.183320	1.046875	-0.039870
C151	C	0.227566	0.982064	-0.039863
C152	C	0.489739	0.982008	-0.265058
C153	C	0.489747	1.046804	-0.329860
C154	C	0.462651	1.079219	-0.401947
C155	C	0.435550	1.046830	-0.409230
C156	C	0.435545	0.982031	-0.344429
H157	H	0.393118	0.057476	-0.102000
F158	F	0.222274	0.947568	-0.188326
F159	F	0.784129	0.206648	0.470608
H160	H	0.511804	0.955625	-0.206367
F161	F	0.794368	0.273517	0.081791
H162	H	0.511816	1.073169	-0.323914
H163	H	0.413489	0.399228	0.206112
F164	F	-0.016627	0.677435	-0.172094
H165	H	0.413489	1.073233	-0.467932
F166	F	0.518602	0.273592	0.485657
F167	F	0.130929	1.081351	-0.322069
F168	F	0.278215	0.677482	-0.115978
H169	H	0.603474	0.399194	0.350085
F170	F	0.682530	0.273519	0.485666
F171	F	0.703038	0.407286	0.081806
H172	H	0.413474	0.955672	-0.350371
F173	F	0.703019	0.407319	0.188045
H174	H	-0.267112	0.677427	-0.101965
H175	H	0.152231	1.132068	-0.454688
H176	H	0.152278	1.132043	-0.000193
F177	F	0.130925	1.081385	-0.082095
H178	H	0.413496	0.281670	0.323707
F179	F	0.383533	0.523231	-0.115943
H180	H	-0.143838	0.677418	-0.158057
H181	H	0.241525	1.073286	-0.467921
F182	F	-0.352917	0.677415	-0.115989
H183	H	0.321820	0.955688	-0.350365
F184	F	0.334160	0.947543	0.081730
H185	H	0.223502	0.955692	-0.072167
F186	F	0.682455	0.273591	-0.082024
F187	F	0.462660	1.148186	-0.470908
H188	H	0.532180	0.297397	0.101722
H189	H	0.511821	0.533431	-0.532403
F190	F	0.406696	0.841294	-0.352158
F191	F	0.242839	1.081312	0.081720
H192	H	0.069162	0.677396	0.157806
H193	H	0.393119	0.383561	-0.101940
H194	H	0.413484	0.821430	-0.676430
H195	H	-0.063587	0.677407	0.157785
F196	F	0.383535	0.197156	-0.116005
H197	H	0.192400	0.677460	0.101675
F198	F	-0.016635	0.677395	0.171836
F199	F	0.541759	-0.168356	0.115670
F200	F	0.794364	0.273557	0.321788
H201	H	0.532178	0.179858	0.101692
F202	F	0.541762	-0.034624	0.115698
H203	H	0.069161	0.677447	-0.158062
F204	F	-0.352925	0.677417	0.115684
F205	F	-0.261594	0.677404	0.115700
F206	F	0.186898	0.677453	-0.115977
F207	F	0.406711	0.841271	-0.812006
H208	H	0.272675	0.677465	0.101675
F209	F	0.518595	0.513583	-0.648124
H210	H	-0.063568	0.677428	-0.158063
F211	F	-0.149379	0.677399	0.171816
H212	H	0.511812	0.533451	-0.323855
F213	F	0.406703	0.841287	-0.485902
H214	H	0.511808	0.533450	-0.206299
H215	H	0.603442	0.399248	-0.072104
H216	H	0.511818	0.399237	0.350062
H217	H	0.773016	0.222871	-0.000122
H218	H	0.462664	0.222899	0.454470
