data_functionalizedCrystal
_audit_creation_method	'MofGen! by Chris Wilmer'
_symmetry_space_group_name_H-M	'P1'
_symmetry_Int_Tables_number	1
_symmetry_cell_setting	triclinic
loop_
_symmetry_equiv_pos_as_xyz
  x,y,z
_cell_length_a	42.784839
_cell_length_b	42.784841
_cell_length_c	42.784893
_cell_angle_alpha	90.002418
_cell_angle_beta	59.997780
_cell_angle_gamma	119.999863
loop_
_atom_site_label
_atom_site_type_symbol
_atom_site_fract_x
_atom_site_fract_y
_atom_site_fract_z
O1	O	0.275695	-0.214412	-0.009300
O2	O	0.211692	-0.168961	0.009253
O3	O	0.275692	-0.168961	-0.054750
O4	O	0.211694	-0.214412	0.054702
O5	O	0.223708	-0.220945	-0.054749
O6	O	0.159708	-0.220945	0.009253
O7	O	0.223710	-0.266397	-0.009300
Zn8	Zn	0.183455	-0.251924	-0.000023
Zn9	Zn	0.251947	-0.183433	-0.000024
O10	O	0.159710	-0.266396	0.054703
C11	C	0.051021	-0.022778	0.028112
C12	C	0.013142	-0.041761	0.028375
C13	C	0.051018	-0.079378	0.028116
C14	C	0.013139	-0.098275	0.028379
C15	C	-0.005578	-0.079377	0.028112
C16	C	0.069652	-0.041762	0.028379
C17	C	0.152948	0.113708	0.017863
C18	C	0.173786	0.152360	0.014965
C19	C	0.155902	0.171750	0.013509
C20	C	0.178499	0.213661	0.010359
C21	C	0.117177	0.152485	0.014953
C22	C	0.096339	0.113835	0.017857
C23	C	0.114226	0.094447	0.019312
C24	C	-0.131813	-0.113936	0.017859
C25	C	-0.167567	-0.131750	0.014961
C26	C	-0.185502	-0.169024	0.013506
C27	C	-0.224264	-0.188340	0.010358
C28	C	-0.167685	-0.188485	0.014954
C29	C	-0.131938	-0.170675	0.017859
C30	C	-0.114002	-0.133396	0.019309
C31	C	0.152939	-0.113943	0.017877
C32	C	0.173778	-0.131757	0.014977
C33	C	0.155892	-0.169032	0.013523
C34	C	0.178486	-0.188349	0.010377
C35	C	0.117170	-0.188491	0.014967
C36	C	0.096334	-0.170675	0.017865
C37	C	0.114220	-0.133401	0.019323
C38	C	0.091629	0.052537	0.022456
C39	C	0.073617	0.019131	0.024964
C40	C	0.073613	-0.098693	0.024971
C41	C	0.091623	-0.114089	0.022466
C42	C	-0.044339	-0.098690	0.024964
C43	C	-0.075237	-0.114084	0.022456
O44	O	-0.327856	-0.266388	-0.009322
O45	O	-0.236954	-0.220935	0.009228
O46	O	-0.236950	-0.220939	-0.054773
O47	O	-0.327860	-0.266385	0.054680
O48	O	-0.236948	-0.168954	-0.054776
O49	O	-0.236952	-0.168950	0.009225
O50	O	-0.327854	-0.214403	-0.009325
Zn51	Zn	-0.282403	-0.183423	-0.000050
Zn52	Zn	-0.282405	-0.251916	-0.000046
O53	O	-0.327858	-0.214400	0.054676
C54	C	0.384390	-0.079141	-0.361606
C55	C	0.422270	-0.041526	-0.380503
C56	C	0.384390	-0.079141	-0.305008
C57	C	0.422270	-0.041526	-0.323990
C58	C	0.440988	-0.022543	-0.361606
C59	C	0.365758	-0.098038	-0.323991
C60	C	0.282465	-0.170819	-0.396168
C61	C	0.261627	-0.188759	-0.413983
C62	C	0.279513	-0.169420	-0.451257
C63	C	0.256917	-0.188867	-0.470572
C64	C	0.318239	-0.132140	-0.470717
C65	C	0.339076	-0.114205	-0.452905
C66	C	0.321187	-0.133546	-0.415628
C67	C	0.567227	0.113942	-0.453282
C68	C	0.602981	0.152594	-0.471222
C69	C	0.620916	0.171985	-0.451883
C70	C	0.659678	0.213894	-0.471328
C71	C	0.603097	0.152719	-0.414603
C72	C	0.567349	0.114068	-0.396667
C73	C	0.549414	0.094682	-0.416011
C74	C	0.282465	-0.170819	-0.168522
C75	C	0.261624	-0.188757	-0.129868
C76	C	0.279510	-0.169418	-0.110479
C77	C	0.256914	-0.188865	-0.068568
C78	C	0.318233	-0.132140	-0.129742
C79	C	0.339070	-0.114203	-0.168394
C80	C	0.321184	-0.133548	-0.187782
C81	C	0.343783	-0.114094	-0.396315
C82	C	0.361794	-0.098590	-0.380920
C83	C	0.361794	-0.098590	-0.263099
C84	C	0.343783	-0.114094	-0.229693
C85	C	0.479750	0.019366	-0.381054
C86	C	0.510649	0.052771	-0.396557
C87	C	0.440758	-0.356212	-0.028193
C88	C	0.422041	-0.393827	-0.028459
C89	C	0.384158	-0.356213	-0.028190
C90	C	0.365526	-0.393828	-0.028456
C91	C	0.384160	-0.412810	-0.028193
C92	C	0.422038	-0.337315	-0.028456
C93	C	0.567000	-0.264532	-0.017949
C94	C	0.602755	-0.246591	-0.015053
C95	C	0.620692	-0.265931	-0.013601
C96	C	0.659455	-0.246483	-0.010453
C97	C	0.602873	-0.303210	-0.015048
C98	C	0.567125	-0.321146	-0.017949
C99	C	0.549188	-0.301805	-0.019399
C100	C	0.339356	-0.549295	-0.017951
C101	C	0.318645	-0.587947	-0.015055
C102	C	0.279915	-0.607338	-0.013597
C103	C	0.257452	-0.649247	-0.010452
C104	C	0.261899	-0.588073	-0.015042
C105	C	0.282613	-0.549422	-0.017945
C106	C	0.321343	-0.530035	-0.019397
C107	C	0.339344	-0.264537	-0.017936
C108	C	0.318628	-0.246599	-0.015032
C109	C	0.279898	-0.265939	-0.013577
C110	C	0.257433	-0.246493	-0.010426
C111	C	0.261884	-0.303217	-0.015022
C112	C	0.282601	-0.321153	-0.017924
C113	C	0.321334	-0.301808	-0.019385
C114	C	0.510421	-0.321258	-0.022542
C115	C	0.479522	-0.336762	-0.025048
C116	C	0.361696	-0.336765	-0.025041
C117	C	0.343793	-0.321261	-0.022532
C118	C	0.361701	-0.454719	-0.025047
C119	C	0.343799	-0.488125	-0.022541
O120	O	0.223728	0.336934	-0.009323
O121	O	0.159726	0.227482	0.009227
O122	O	0.223729	0.291478	-0.054775
O123	O	0.159725	0.272938	0.054678
O124	O	0.275711	0.291477	-0.054771
O125	O	0.211707	0.227481	0.009230
O126	O	0.275710	0.336932	-0.009320
Zn127	Zn	0.251962	0.282206	-0.000045
Zn128	Zn	0.183474	0.282208	-0.000049
O129	O	0.211707	0.272936	0.054681
O130	O	0.763271	0.337164	-0.496871
O131	O	0.672367	0.227713	-0.451422
O132	O	0.672365	0.291711	-0.451418
O133	O	0.763273	0.273165	-0.496876
O134	O	0.672366	0.291712	-0.503402
O135	O	0.672368	0.227714	-0.503407
O136	O	0.763272	0.337165	-0.548856
Zn137	Zn	0.717820	0.282440	-0.534385
Zn138	Zn	0.717819	0.282438	-0.465893
O139	O	0.763275	0.273167	-0.548860
O140	O	0.211690	-0.214417	-0.548617
O141	O	0.275691	-0.168962	-0.503167
O142	O	0.211689	-0.168964	-0.503163
O143	O	0.275692	-0.214415	-0.548621
O144	O	0.159706	-0.220947	-0.451179
O145	O	0.223708	-0.220945	-0.451183
O146	O	0.159707	-0.266400	-0.496633
Zn147	Zn	0.183454	-0.251926	-0.465654
Zn148	Zn	0.251944	-0.183436	-0.534146
O149	O	0.223709	-0.266398	-0.496637
C150	C	-0.005343	-0.412572	0.361558
C151	C	0.013375	-0.393590	0.380456
C152	C	0.051255	-0.355974	0.304961
C153	C	0.069887	-0.337077	0.323944
C154	C	0.051254	-0.355974	0.361560
C155	C	0.013375	-0.393589	0.323943
C156	C	-0.131582	-0.549057	0.396116
C157	C	-0.167336	-0.587709	0.413930
C158	C	-0.185271	-0.607098	0.451205
C159	C	-0.224034	-0.649009	0.470519
C160	C	-0.167452	-0.587833	0.470666
C161	C	-0.131705	-0.549184	0.452854
C162	C	-0.113770	-0.529796	0.415578
C163	C	0.096061	-0.321414	0.453239
C164	C	0.116773	-0.303600	0.471179
C165	C	0.155502	-0.266327	0.451842
C166	C	0.177965	-0.247011	0.471288
C167	C	0.173517	-0.246866	0.414562
C168	C	0.152802	-0.264677	0.396625
C169	C	0.114073	-0.301955	0.415968
C170	C	0.096064	-0.321412	0.168474
C171	C	0.116779	-0.303599	0.129820
C172	C	0.155508	-0.266324	0.110432
C173	C	0.177972	-0.247009	0.068521
C174	C	0.173522	-0.246865	0.129696
C175	C	0.152807	-0.264680	0.168348
C176	C	0.114075	-0.301953	0.187735
C177	C	-0.075004	-0.487887	0.396265
C178	C	-0.044106	-0.454481	0.380871
C179	C	0.073715	-0.336660	0.263052
C180	C	0.091618	-0.321265	0.229646
C181	C	0.073714	-0.336661	0.381009
C182	C	0.091616	-0.321267	0.396513
C183	C	0.051046	-0.022794	-0.361634
C184	C	0.069679	-0.041778	-0.380530
C185	C	-0.005555	-0.079390	-0.305034
C186	C	0.013163	-0.098288	-0.324016
C187	C	0.051045	-0.079393	-0.361631
C188	C	0.013164	-0.041775	-0.324018
C189	C	0.095858	0.113693	-0.396200
C190	C	0.116571	0.152344	-0.414015
C191	C	0.155302	0.171732	-0.451290
C192	C	0.177767	0.213642	-0.470607
C193	C	0.173317	0.152465	-0.470750
C194	C	0.152600	0.113815	-0.452936
C195	C	0.113869	0.094429	-0.415659
C196	C	0.152973	-0.113959	-0.453306
C197	C	0.173810	-0.131775	-0.471245
C198	C	0.155926	-0.169048	-0.451906
C199	C	0.178519	-0.188366	-0.471350
C200	C	0.117198	-0.188507	-0.414626
C201	C	0.096358	-0.170694	-0.396690
C202	C	0.114251	-0.133416	-0.416035
C203	C	-0.131801	-0.113944	-0.168548
C204	C	-0.167554	-0.131755	-0.129895
C205	C	-0.185491	-0.169029	-0.110504
C206	C	-0.224255	-0.188343	-0.068593
C207	C	-0.167671	-0.188490	-0.129767
C208	C	-0.131918	-0.170677	-0.168418
C209	C	-0.113988	-0.133404	-0.187808
C210	C	0.091411	0.052521	-0.396344
C211	C	0.073508	0.019115	-0.380949
C212	C	-0.044320	-0.098701	-0.263125
C213	C	-0.075220	-0.114094	-0.229719
C214	C	0.073641	-0.098707	-0.381079
C215	C	0.091652	-0.114103	-0.396582
C216	C	-0.615853	-0.356193	0.361535
C217	C	-0.634487	-0.393808	0.380433
C218	C	-0.559253	-0.356195	0.304938
C219	C	-0.577972	-0.393810	0.323921
C220	C	-0.615854	-0.412792	0.361537
C221	C	-0.577972	-0.337297	0.323920
C222	C	-0.660661	-0.264512	0.396093
C223	C	-0.681373	-0.246571	0.413906
C224	C	-0.720104	-0.265909	0.451181
C225	C	-0.742568	-0.246461	0.470495
C226	C	-0.738120	-0.303189	0.470643
C227	C	-0.717405	-0.321125	0.452831
C228	C	-0.678674	-0.301785	0.415554
C229	C	-0.717784	-0.549275	0.453218
C230	C	-0.738622	-0.587926	0.471159
C231	C	-0.720740	-0.607319	0.451822
C232	C	-0.743333	-0.649227	0.471268
C233	C	-0.682012	-0.588055	0.414542
C234	C	-0.661170	-0.549403	0.396604
C235	C	-0.679063	-0.530016	0.415946
C236	C	-0.433006	-0.264522	0.168449
C237	C	-0.397253	-0.246585	0.129796
C238	C	-0.379317	-0.265926	0.110407
C239	C	-0.340553	-0.246480	0.068496
C240	C	-0.397138	-0.303204	0.129672
C241	C	-0.432891	-0.321139	0.168324
C242	C	-0.450820	-0.301793	0.187711
C243	C	-0.656216	-0.321238	0.396242
C244	C	-0.638314	-0.336743	0.380848
C245	C	-0.520488	-0.336748	0.263028
C246	C	-0.489588	-0.321245	0.229622
C247	C	-0.638451	-0.454700	0.380987
C248	C	-0.656463	-0.488106	0.396492
C249	C	0.440756	0.310302	-0.361620
C250	C	0.422038	0.310564	-0.380518
C251	C	0.384160	0.310312	-0.305026
C252	C	0.365528	0.310574	-0.324010
C253	C	0.384159	0.310303	-0.361624
C254	C	0.422038	0.310573	-0.324006
C255	C	0.566989	0.300046	-0.396172
C256	C	0.602741	0.297145	-0.413984
C257	C	0.620675	0.295684	-0.451257
C258	C	0.659436	0.292531	-0.470569
C259	C	0.602857	0.297127	-0.470719
C260	C	0.567111	0.300033	-0.452909
C261	C	0.549177	0.301493	-0.415634
C262	C	0.339351	0.300042	-0.453303
C263	C	0.318640	0.297142	-0.471244
C264	C	0.279912	0.295690	-0.451908
C265	C	0.257449	0.292541	-0.471354
C266	C	0.261899	0.297143	-0.414629
C267	C	0.282613	0.300049	-0.396692
C268	C	0.321341	0.301496	-0.416033
C269	C	0.339354	0.300088	-0.168540
C270	C	0.318640	0.297192	-0.129888
C271	C	0.279912	0.295742	-0.110501
C272	C	0.257450	0.292601	-0.068591
C273	C	0.261898	0.297184	-0.129766
C274	C	0.282612	0.300078	-0.168417
C275	C	0.321344	0.301533	-0.187802
C276	C	0.510413	0.304640	-0.396323
C277	C	0.479516	0.307151	-0.380931
C278	C	0.361701	0.307173	-0.263117
C279	C	0.343799	0.304671	-0.229712
C280	C	0.361700	0.307154	-0.381073
C281	C	0.343798	0.304644	-0.396578
O282	O	0.275503	0.336913	-0.548651
O283	O	0.211494	0.227461	-0.503201
O284	O	0.275490	0.291455	-0.503192
O285	O	0.211507	0.272919	-0.548659
O286	O	0.223502	0.291457	-0.451211
O287	O	0.159506	0.227463	-0.451219
O288	O	0.223515	0.336915	-0.496669
Zn289	Zn	0.183256	0.282189	-0.465691
Zn290	Zn	0.251753	0.282187	-0.534179
O291	O	0.159519	0.272921	-0.496677
C292	C	0.051032	0.254111	0.361530
C293	C	0.013154	0.253851	0.380425
C294	C	0.051031	0.254102	0.304932
C295	C	0.013153	0.253842	0.323913
C296	C	-0.005564	0.254113	0.361527
C297	C	0.069663	0.253840	0.323916
C298	C	0.152954	0.264360	0.396096
C299	C	0.173791	0.267260	0.413911
C300	C	0.155906	0.268721	0.451185
C301	C	0.178502	0.271871	0.470501
C302	C	0.117182	0.267279	0.470643
C303	C	0.096345	0.264374	0.452830
C304	C	0.114233	0.262915	0.415555
C305	C	-0.131796	0.264379	0.453195
C306	C	-0.167548	0.267281	0.471133
C307	C	-0.185483	0.268734	0.451793
C308	C	-0.224243	0.271886	0.471236
C309	C	-0.167664	0.267282	0.414515
C310	C	-0.131919	0.264374	0.396581
C311	C	-0.113984	0.262925	0.415925
C312	C	0.152952	0.264325	0.168451
C313	C	0.173792	0.267221	0.129798
C314	C	0.155907	0.268673	0.110407
C315	C	0.178502	0.271814	0.068498
C316	C	0.117186	0.267232	0.129669
C317	C	0.096350	0.264339	0.168320
C318	C	0.114234	0.262881	0.187709
C319	C	0.091638	0.259769	0.396240
C320	C	0.073627	0.257260	0.380845
C321	C	0.073626	0.257242	0.263024
C322	C	0.091636	0.259743	0.229619
C323	C	-0.044324	0.257264	0.380973
C324	C	-0.075221	0.259775	0.396474
H325	H	-0.182070	-0.115902	0.013781
H326	H	0.167470	-0.248829	0.366274
O327	O	-0.776200	-0.606636	0.507392
C328	C	-0.769162	-0.620288	0.531555
H329	H	-0.732284	-0.602588	0.518540
H330	H	-0.782053	-0.651568	0.534811
C331	C	-0.839167	-0.638594	0.587115
C332	C	-0.793874	-0.616853	0.571132
H333	H	-0.854413	-0.636478	0.611529
H334	H	-0.843911	-0.629398	0.570836
H335	H	-0.849904	-0.664659	0.589825
H336	H	-0.783137	-0.590789	0.568418
H337	H	-0.789130	-0.626045	0.587412
O338	O	0.336117	-0.210371	-0.013675
C339	C	0.346639	-0.186215	-0.044889
H340	H	0.325835	-0.204078	-0.055413
H341	H	0.383188	-0.170694	-0.069041
C342	C	0.362417	-0.134724	-0.019221
C343	C	0.336862	-0.156663	-0.032144
H344	H	0.356388	-0.116493	-0.011360
H345	H	0.355329	-0.150998	0.001808
H346	H	0.392872	-0.121794	-0.039350
H347	H	0.306408	-0.169596	-0.012014
H348	H	0.343945	-0.140390	-0.053169
O349	O	-0.450197	-0.357329	0.187090
C350	C	-0.446692	-0.357309	0.218152
H351	H	-0.444041	-0.331389	0.226903
H352	H	-0.415956	-0.355901	0.209326
C353	C	-0.491217	-0.426040	0.241434
C354	C	-0.487966	-0.394206	0.252185
H355	H	-0.516676	-0.448800	0.262427
H356	H	-0.493578	-0.426053	0.220507
H357	H	-0.465601	-0.424861	0.234079
H358	H	-0.513578	-0.395383	0.259535
H359	H	-0.485610	-0.394194	0.273115
O360	O	0.099251	-0.322465	0.507412
C361	C	0.088742	-0.301771	0.531574
H362	H	0.084056	-0.282595	0.518560
H363	H	0.116767	-0.283382	0.534829
C364	C	0.051491	-0.353464	0.587135
C365	C	0.045732	-0.329914	0.571152
H366	H	0.024962	-0.370823	0.611549
H367	H	0.058573	-0.367405	0.570857
H368	H	0.074847	-0.338136	0.589844
H369	H	0.022381	-0.345241	0.568439
H370	H	0.038646	-0.315975	0.587431
H371	H	-0.664969	-0.409045	0.411340
O372	O	-0.559322	-0.300421	0.305799
C373	C	-0.583989	-0.287740	0.330626
H374	H	-0.603171	-0.305744	0.361552
H375	H	-0.608112	-0.290806	0.324299
C376	C	-0.528878	-0.223314	0.286534
C377	C	-0.552435	-0.245425	0.324518
H378	H	-0.509415	-0.197211	0.282765
H379	H	-0.512260	-0.231857	0.269807
H380	H	-0.548985	-0.225873	0.281266
H381	H	-0.532329	-0.242869	0.329783
H382	H	-0.569049	-0.236880	0.341246
H383	H	0.064808	0.098152	0.019035
H384	H	0.267897	-0.186572	-0.184305
H385	H	0.167543	-0.083608	-0.469060
H386	H	0.335046	0.310999	-0.308768
O387	O	0.099736	0.171258	0.013560
C388	C	0.061097	0.145971	0.015448
H389	H	0.046936	0.115216	0.029541
H390	H	0.069447	0.149948	-0.014709
C391	C	0.044132	0.192294	0.021904
C392	C	0.026737	0.154520	0.039216
H393	H	0.022938	0.197569	0.036563
H394	H	0.070165	0.209331	0.020630
H395	H	0.051090	0.195604	-0.003227
H396	H	0.019785	0.151213	0.064344
H397	H	0.000702	0.137483	0.040494
H398	H	-0.182059	-0.115906	-0.114213
H399	H	-0.182293	-0.218837	0.013775
O400	O	0.376980	0.301465	-0.472152
C401	C	0.388431	0.299553	-0.508895
H402	H	0.372953	0.309507	-0.517803
H403	H	0.375682	0.268781	-0.508307
C404	C	0.458081	0.313364	-0.526852
C405	C	0.439074	0.325592	-0.537794
H406	H	0.489320	0.329424	-0.544678
H407	H	0.450366	0.314651	-0.502097
H408	H	0.447452	0.287721	-0.526362
H409	H	0.449699	0.351233	-0.538280
H410	H	0.446793	0.324310	-0.562551
H411	H	-0.629638	-0.533721	0.366252
O412	O	0.549655	-0.245677	-0.019387
C413	C	0.573047	-0.208930	-0.017488
H414	H	0.607380	-0.200032	-0.027431
H415	H	0.554434	-0.209504	0.013279
C416	C	0.535193	-0.190963	-0.031333
C417	C	0.577364	-0.180032	-0.043548
H418	H	0.537855	-0.173137	-0.047406
H419	H	0.519433	-0.215721	-0.032611
H420	H	0.519687	-0.191442	-0.005693
H421	H	0.592867	-0.179558	-0.069185
H422	H	0.593127	-0.155274	-0.042274
O423	O	0.058719	0.262954	0.471681
C424	C	0.044172	0.260090	0.447960
H425	H	0.058044	0.247662	0.425571
H426	H	0.056190	0.289732	0.433047
C427	C	-0.023733	0.248973	0.499936
C428	C	-0.006697	0.233706	0.472439
H429	H	-0.055111	0.232700	0.515035
H430	H	-0.013931	0.250904	0.515917
H431	H	-0.013713	0.273674	0.487504
H432	H	-0.016713	0.209008	0.484871
H433	H	-0.016502	0.231770	0.456460
O434	O	0.549762	0.301457	-0.471764
C435	C	0.514356	0.304322	-0.448046
H436	H	0.518263	0.316749	-0.425655
H437	H	0.481819	0.274682	-0.433135
C438	C	0.509558	0.315444	-0.500027
C439	C	0.514359	0.330710	-0.472529
H440	H	0.509558	0.331720	-0.515129
H441	H	0.533411	0.313512	-0.516006
H442	H	0.482444	0.290744	-0.487597
H443	H	0.541475	0.355407	-0.484959
H444	H	0.490511	0.332647	-0.456552
O445	O	-0.664563	-0.606825	0.395709
C446	C	-0.625920	-0.581538	0.358959
H447	H	-0.611764	-0.550782	0.358890
H448	H	-0.634263	-0.585519	0.337147
C449	C	-0.608947	-0.627856	0.348459
C450	C	-0.591558	-0.590082	0.348375
H451	H	-0.587751	-0.633127	0.341928
H452	H	-0.634982	-0.644893	0.373217
H453	H	-0.615899	-0.631169	0.330282
H454	H	-0.584612	-0.586770	0.366555
H455	H	-0.565521	-0.573044	0.323619
O456	O	0.211438	-0.112812	-0.507448
C457	C	0.222753	-0.076096	-0.520676
H458	H	0.207200	-0.067295	-0.495173
H459	H	0.209981	-0.076673	-0.538676
C460	C	0.292479	-0.057906	-0.576585
C461	C	0.273380	-0.047096	-0.545261
H462	H	0.323708	-0.040018	-0.591752
H463	H	0.284855	-0.082643	-0.567674
H464	H	0.281831	-0.058387	-0.591581
H465	H	0.284023	-0.046620	-0.530264
H466	H	0.281006	-0.022359	-0.554170
O467	O	-0.005490	0.253318	0.305681
C468	C	0.019177	0.253153	0.268336
H469	H	0.038349	0.241400	0.267165
H470	H	0.043308	0.283602	0.247277
C471	C	-0.035921	0.242151	0.259008
C472	C	-0.012376	0.227714	0.257571
H473	H	-0.055384	0.226461	0.252366
H474	H	-0.052539	0.242264	0.284167
H475	H	-0.015807	0.267525	0.241459
H476	H	-0.032490	0.202342	0.275123
H477	H	0.004238	0.227596	0.232414
H478	H	0.167269	0.098131	-0.468782
O479	O	0.170369	0.094927	0.019295
C480	C	0.209018	0.120219	0.017391
H481	H	0.207971	0.144606	0.027342
H482	H	0.239207	0.132378	-0.013379
C483	C	0.213156	0.068525	0.031214
C484	C	0.211868	0.098476	0.043438
H485	H	0.214916	0.055113	0.047279
H486	H	0.187118	0.051485	0.032495
H487	H	0.238314	0.078662	0.005572
H488	H	0.186708	0.088338	0.069078
H489	H	0.237902	0.115513	0.042162
O490	O	0.549814	0.095165	-0.472096
C491	C	0.534331	0.113277	-0.481608
H492	H	0.552241	0.144262	-0.482549
H493	H	0.497288	0.097631	-0.459128
C494	C	0.521266	0.074284	-0.519938
C495	C	0.543266	0.112341	-0.521097
H496	H	0.526776	0.073706	-0.544296
H497	H	0.531696	0.062080	-0.513529
H498	H	0.490399	0.061250	-0.501203
H499	H	0.574133	0.125373	-0.539829
H500	H	0.532842	0.124547	-0.527511
O501	O	0.099221	-0.322491	0.111143
C502	C	0.056096	-0.332019	0.129346
H503	H	0.052465	-0.311870	0.146025
H504	H	0.031083	-0.362779	0.149850
C505	C	0.052139	-0.352841	0.078515
C506	C	0.047682	-0.328091	0.098998
H507	H	0.046948	-0.350420	0.059796
H508	H	0.081193	-0.346423	0.066252
H509	H	0.031295	-0.378472	0.095606
H510	H	0.068530	-0.302460	0.081908
H511	H	0.018632	-0.334504	0.111258
H512	H	0.333308	0.295959	-0.501595
H513	H	-0.182052	0.268464	0.501484
H514	H	-0.002512	0.253428	0.411332
O515	O	0.170252	-0.245836	0.187115
C516	C	0.143657	-0.269547	0.225390
H517	H	0.124055	-0.300777	0.227536
H518	H	0.119849	-0.262066	0.244425
C519	C	0.197319	-0.225011	0.235953
C520	C	0.173247	-0.263368	0.238588
H521	H	0.215571	-0.221198	0.244094
H522	H	0.215237	-0.209035	0.210167
H523	H	0.177475	-0.218781	0.251815
H524	H	0.193091	-0.269597	0.222722
H525	H	0.155333	-0.279345	0.264371
H526	H	-0.117214	-0.083584	0.019042
H527	H	-0.447603	-0.248768	0.184232
O528	O	0.620485	0.171589	-0.395809
C529	C	0.617000	0.202666	-0.392411
H530	H	0.589293	0.197069	-0.394619
H531	H	0.649543	0.229972	-0.416345
C532	C	0.640689	0.214165	-0.350675
C533	C	0.606656	0.207289	-0.353383
H534	H	0.634310	0.217018	-0.326602
H535	H	0.643038	0.193229	-0.352965
H536	H	0.667805	0.236920	-0.370622
H537	H	0.579542	0.184532	-0.333439
H538	H	0.604302	0.228222	-0.351089
O539	O	-0.379650	-0.321954	0.110845
C540	C	-0.334791	-0.301179	0.097194
H541	H	-0.328705	-0.282068	0.114966
H542	H	-0.313172	-0.282717	0.065946
C543	C	-0.330687	-0.352715	0.078660
C544	C	-0.323214	-0.329245	0.100489
H545	H	-0.323545	-0.370027	0.080691
H546	H	-0.360910	-0.366711	0.087856
H547	H	-0.312671	-0.337326	0.052622
H548	H	-0.341234	-0.344634	0.126528
H549	H	-0.292994	-0.315252	0.091298
H550	H	0.230362	0.296001	-0.113978
H551	H	0.205316	0.168042	0.013788
H552	H	0.102633	-0.218858	-0.398880
H553	H	0.167518	0.263140	0.184235
H554	H	-0.182279	-0.218843	-0.113977
H555	H	-0.117435	-0.186523	0.019040
H556	H	0.100149	0.253421	0.308676
O557	O	0.058711	-0.189638	0.019283
C558	C	0.047397	-0.226354	0.017370
H559	H	0.062944	-0.235156	0.027327
H560	H	0.060177	-0.225777	-0.013404
C561	C	-0.022321	-0.244542	0.031173
C562	C	-0.003230	-0.255353	0.043405
H563	H	-0.053550	-0.262430	0.047230
H564	H	-0.014699	-0.219805	0.032460
H565	H	-0.011667	-0.244061	0.005528
H566	H	-0.013880	-0.255829	0.069047
H567	H	-0.010856	-0.280091	0.042122
H568	H	0.064321	0.097912	-0.365848
O569	O	0.058768	-0.189536	-0.360464
C570	C	0.065820	-0.168847	-0.336303
H571	H	0.094213	-0.137521	-0.354165
H572	H	0.074438	-0.181250	-0.320774
C573	C	-0.011345	-0.210282	-0.284823
C574	C	0.023525	-0.171806	-0.306760
H575	H	-0.037434	-0.212109	-0.266598
H576	H	-0.016096	-0.224222	-0.301100
H577	H	-0.004157	-0.220614	-0.271886
H578	H	0.016340	-0.161477	-0.319701
H579	H	0.028274	-0.157865	-0.290485
O580	O	-0.663951	-0.210382	0.395021
C581	C	-0.695033	-0.210407	0.391533
H582	H	-0.729703	-0.236327	0.414803
H583	H	-0.687615	-0.211817	0.362206
C584	C	-0.649592	-0.141676	0.367327
C585	C	-0.692174	-0.173511	0.395909
H586	H	-0.647827	-0.118917	0.370024
H587	H	-0.628650	-0.141660	0.369675
H588	H	-0.643415	-0.142857	0.342890
H589	H	-0.698349	-0.172332	0.420344
H590	H	-0.713118	-0.173526	0.393564
H591	H	-0.769653	-0.318930	0.500992
H592	H	0.205322	0.268398	0.114116
H593	H	-0.117197	0.263199	0.468949
O594	O	-0.114420	-0.077728	-0.187320
C595	C	-0.137816	-0.064372	-0.162032
H596	H	-0.154484	-0.080968	-0.131276
H597	H	-0.163991	-0.068737	-0.166013
C598	C	-0.085026	-0.001085	-0.208354
C599	C	-0.105495	-0.021466	-0.170579
H600	H	-0.065090	0.025382	-0.213627
H601	H	-0.069265	-0.010083	-0.225391
H602	H	-0.106843	-0.004726	-0.211667
H603	H	-0.083679	-0.017828	-0.167269
H604	H	-0.121252	-0.012467	-0.153542
H605	H	0.205048	-0.216515	0.398819
H606	H	-0.002524	-0.026519	0.028802
H607	H	0.370892	-0.533512	-0.019136
H608	H	0.370892	0.301275	-0.184323
H609	H	0.437707	0.310988	-0.411425
H610	H	-0.117412	-0.186525	-0.184100
H611	H	0.617485	0.168277	-0.501573
O612	O	0.211102	-0.210632	0.110867
C613	C	0.203987	-0.186542	0.097212
H614	H	0.167106	-0.199559	0.114984
H615	H	0.216771	-0.183391	0.065965
C616	C	0.274064	-0.130913	0.078673
C617	C	0.228766	-0.146899	0.100503
H618	H	0.289350	-0.106458	0.080701
H619	H	0.278859	-0.147142	0.087871
H620	H	0.284711	-0.128290	0.052635
H621	H	0.218119	-0.149526	0.126540
H622	H	0.223970	-0.130669	0.091309
O623	O	0.265163	-0.189590	-0.359980
C624	C	0.296320	-0.193003	-0.360069
H625	H	0.330950	-0.169766	-0.386059
H626	H	0.288889	-0.222348	-0.361403
C627	C	0.251078	-0.217018	-0.291336
C628	C	0.293612	-0.188477	-0.323255
H629	H	0.249406	-0.214228	-0.268627
H630	H	0.230086	-0.214721	-0.291276
H631	H	0.244890	-0.241470	-0.292453
H632	H	0.299796	-0.164026	-0.322141
H633	H	0.314605	-0.190770	-0.323315
O634	O	0.620047	0.295794	-0.395060
C635	C	0.635465	0.329399	-0.385549
H636	H	0.617587	0.342471	-0.384711
H637	H	0.672523	0.350791	-0.407972
C638	C	0.648356	0.303496	-0.347027
C639	C	0.626395	0.319549	-0.345996
H640	H	0.642763	0.297421	-0.322630
H641	H	0.637970	0.280856	-0.353436
H642	H	0.679236	0.321326	-0.365716
H643	H	0.595515	0.301718	-0.327312
H644	H	0.636775	0.342186	-0.339583
H645	H	-0.002293	-0.408830	0.308704
O646	O	0.099865	-0.224681	0.013501
C647	C	0.131020	-0.224598	-0.021067
H648	H	0.165651	-0.198611	-0.032462
H649	H	0.123589	-0.223267	-0.042982
C650	C	0.085772	-0.293330	0.000163
C651	C	0.128308	-0.261413	-0.013830
H652	H	0.084098	-0.316040	0.004626
H653	H	0.064782	-0.293386	0.023452
H654	H	0.079584	-0.292215	-0.018101
H655	H	0.134492	-0.262526	0.004436
H656	H	0.149299	-0.261358	-0.037116
O657	O	0.265173	-0.530674	-0.019410
C658	C	0.296258	-0.499599	-0.053967
H659	H	0.320653	-0.505120	-0.076090
H660	H	0.314879	-0.472262	-0.048728
C661	C	0.242146	-0.488343	-0.041737
C662	C	0.272106	-0.495125	-0.068909
H663	H	0.227248	-0.485582	-0.050954
H664	H	0.221203	-0.509278	-0.018455
H665	H	0.257668	-0.465563	-0.037373
H666	H	0.256583	-0.517907	-0.073269
H667	H	0.293045	-0.474193	-0.092193
O668	O	0.224020	-0.224973	-0.111217
C669	C	0.212696	-0.238194	-0.136615
H670	H	0.243452	-0.221531	-0.167334
H671	H	0.186946	-0.233789	-0.132676
C672	C	0.155792	-0.301558	-0.090454
C673	C	0.193567	-0.281095	-0.128183
H674	H	0.143990	-0.328022	-0.085252
H675	H	0.163420	-0.292651	-0.073342
H676	H	0.134338	-0.297883	-0.087176
H677	H	0.215022	-0.284766	-0.131459
H678	H	0.185942	-0.290004	-0.145295
H679	H	0.437704	0.310998	-0.308766
H680	H	0.333309	0.296016	-0.114204
H681	H	0.617258	-0.216240	-0.013873
H682	H	0.617463	0.295940	-0.501068
H683	H	0.437930	-0.026285	-0.308746
O684	O	0.170376	0.262926	0.359895
C685	C	0.209024	0.264828	0.346539
H686	H	0.207975	0.254879	0.371974
H687	H	0.239214	0.295597	0.328510
C688	C	0.213165	0.251002	0.290706
C689	C	0.211875	0.238779	0.321945
H690	H	0.214925	0.234936	0.275534
H691	H	0.187128	0.249722	0.299703
H692	H	0.238323	0.276643	0.275686
H693	H	0.186714	0.213141	0.336967
H694	H	0.237908	0.240054	0.312950
H695	H	0.205320	0.268435	0.398066
H696	H	-0.562304	-0.409050	0.308680
O697	O	0.549573	0.301520	-0.359985
C698	C	0.553077	0.336091	-0.360077
H699	H	0.555830	0.347482	-0.386068
H700	H	0.583756	0.358006	-0.361411
C701	C	0.508361	0.314874	-0.291344
C702	C	0.511738	0.328863	-0.323265
H703	H	0.482862	0.310417	-0.268636
H704	H	0.506001	0.291584	-0.291282
H705	H	0.533929	0.333139	-0.292461
H706	H	0.486173	0.310596	-0.322150
H707	H	0.514093	0.352150	-0.323326
H708	H	0.102623	0.268466	0.500992
H709	H	-0.182272	0.268459	0.398770
O710	O	0.376677	-0.077987	-0.471854
C711	C	0.388002	-0.064766	-0.508576
H712	H	0.357249	-0.081432	-0.508542
H713	H	0.413759	-0.069164	-0.530391
C714	C	0.444895	-0.001399	-0.519310
C715	C	0.407122	-0.021866	-0.519267
H716	H	0.456691	0.025064	-0.525906
H717	H	0.437266	-0.010306	-0.494570
H718	H	0.466354	-0.005068	-0.537489
H719	H	0.385662	-0.018200	-0.501085
H720	H	0.414748	-0.012957	-0.544004
O721	O	0.550082	0.095417	-0.360450
C722	C	0.573583	0.120814	-0.347228
H723	H	0.590214	0.151533	-0.363893
H724	H	0.599796	0.116872	-0.351628
C725	C	0.520950	0.074656	-0.283860
C726	C	0.541374	0.112385	-0.304327
H727	H	0.501084	0.069456	-0.257397
H728	H	0.505118	0.057545	-0.292768
H729	H	0.542798	0.071375	-0.287532
H730	H	0.519527	0.115664	-0.300659
H731	H	0.557202	0.129496	-0.295417
O732	O	-0.379983	-0.210367	0.111145
C733	C	-0.403482	-0.197144	0.136543
H734	H	-0.420116	-0.213811	0.167262
H735	H	-0.429693	-0.201540	0.132601
C736	C	-0.350845	-0.133776	0.090386
C737	C	-0.371272	-0.154245	0.128116
H738	H	-0.330977	-0.107314	0.085187
H739	H	-0.335013	-0.142685	0.073274
H740	H	-0.372692	-0.137444	0.087106
H741	H	-0.349426	-0.150581	0.131395
H742	H	-0.387099	-0.145335	0.145229
O743	O	0.106059	-0.023536	-0.417393
C744	C	0.118567	0.013804	-0.430079
H745	H	0.105174	0.023157	-0.404338
H746	H	0.104481	0.014132	-0.446626
C747	C	0.185795	0.030026	-0.487973
C748	C	0.169350	0.041516	-0.456357
H749	H	0.217121	0.047120	-0.504183
H750	H	0.177368	0.004869	-0.479427
H751	H	0.174053	0.030300	-0.501757
H752	H	0.181087	0.041237	-0.442570
H753	H	0.177780	0.066673	-0.464901
H754	H	0.267941	0.301250	-0.184099
O755	O	0.440662	-0.300467	-0.028895
C756	C	0.409758	-0.298373	0.003896
H757	H	0.383950	-0.327643	0.027242
H758	H	0.392810	-0.289250	-0.003654
C759	C	0.465450	-0.232919	-0.010296
C760	C	0.433755	-0.268869	0.018378
H761	H	0.480253	-0.214719	-0.001364
H762	H	0.486271	-0.234329	-0.032389
H763	H	0.451323	-0.225322	-0.016585
H764	H	0.447884	-0.276467	0.024663
H765	H	0.412937	-0.267459	0.040472
H766	H	-0.002509	-0.129196	-0.308775
O767	O	-0.734973	-0.357342	0.471782
C768	C	-0.773593	-0.370562	0.508504
H769	H	-0.787645	-0.353895	0.508469
H770	H	-0.765253	-0.366163	0.530318
C771	C	-0.790803	-0.433930	0.519240
C772	C	-0.808064	-0.413462	0.519196
H773	H	-0.812067	-0.460393	0.525837
H774	H	-0.764783	-0.425023	0.494500
H775	H	-0.783854	-0.430259	0.537419
H776	H	-0.815008	-0.417129	0.501015
H777	H	-0.834086	-0.422370	0.543934
H778	H	0.333315	-0.603629	-0.013877
H779	H	-0.117415	0.263190	0.366230
O780	O	0.211434	-0.112846	0.013507
C781	C	0.245983	-0.109373	-0.021053
H782	H	0.238185	-0.111652	-0.043171
H783	H	0.249467	-0.133229	-0.015816
C784	C	0.299125	-0.067479	-0.008833
C785	C	0.289550	-0.070274	-0.036000
H786	H	0.326000	-0.043362	-0.018052
H787	H	0.275849	-0.069820	0.014451
H788	H	0.302025	-0.087361	-0.004471
H789	H	0.286644	-0.050396	-0.040358
H790	H	0.312826	-0.067929	-0.059285
H791	H	0.617482	-0.318952	-0.013867
H792	H	0.064821	0.263164	0.184001
H793	H	-0.182060	-0.603623	0.501016
H794	H	-0.181841	-0.603391	0.398082
O795	O	0.224312	0.295784	-0.395902
C796	C	0.231439	0.326997	-0.416672
H797	H	0.259903	0.337525	-0.447967
H798	H	0.239989	0.351145	-0.404258
C799	C	0.154264	0.301319	-0.375418
C800	C	0.189222	0.314247	-0.413856
H801	H	0.128223	0.293456	-0.373679
H802	H	0.149463	0.280291	-0.361424
H803	H	0.161396	0.321445	-0.365077
H804	H	0.182093	0.294120	-0.424194
H805	H	0.194021	0.335272	-0.427851
O806	O	0.265048	0.301439	-0.360475
C807	C	0.226431	0.299546	-0.347256
H808	H	0.212377	0.285456	-0.363921
H809	H	0.234776	0.329701	-0.351660
C810	C	0.209222	0.293082	-0.283888
C811	C	0.191959	0.275773	-0.304354
H812	H	0.187958	0.278419	-0.257424
H813	H	0.235240	0.294358	-0.292795
H814	H	0.216175	0.318211	-0.287562
H815	H	0.185011	0.250647	-0.300684
H816	H	0.165939	0.274492	-0.295446
H817	H	0.064523	-0.351759	0.184259
O818	O	-0.005480	-0.023542	-0.305897
C819	C	0.019190	0.013804	-0.330725
H820	H	0.038366	0.014976	-0.361651
H821	H	0.043319	0.034859	-0.324402
C822	C	-0.035909	0.023133	-0.286629
C823	C	-0.012360	0.024572	-0.324612
H824	H	-0.055370	0.029777	-0.282857
H825	H	-0.052529	-0.002027	-0.269901
H826	H	-0.015798	0.040679	-0.281364
H827	H	-0.032471	0.007023	-0.329875
H828	H	0.004256	0.049730	-0.341341
O829	O	0.441023	-0.023358	-0.417398
C830	C	0.484773	-0.012757	-0.440656
H831	H	0.488399	-0.031865	-0.426172
H832	H	0.508553	0.018379	-0.445006
C833	C	0.491087	0.006045	-0.497542
C834	C	0.495540	-0.017426	-0.479754
H835	H	0.497730	0.003167	-0.521660
H836	H	0.461613	-0.001095	-0.481873
H837	H	0.510904	0.031990	-0.501164
H838	H	0.475719	-0.043370	-0.476129
H839	H	0.525011	-0.010290	-0.495423
O840	O	0.099883	0.268697	0.110782
C841	C	0.131039	0.303262	0.079710
H842	H	0.165670	0.314656	0.071067
H843	H	0.123610	0.325179	0.088471
C844	C	0.085793	0.282031	0.056224
C845	C	0.128328	0.296022	0.045606
H846	H	0.084120	0.277566	0.035188
H847	H	0.064802	0.258743	0.077158
H848	H	0.079607	0.300297	0.063525
H849	H	0.134512	0.277754	0.038310
H850	H	0.149320	0.319306	0.024670
H851	H	-0.002525	-0.129181	0.028805
O852	O	0.106222	-0.300193	0.305824
C853	C	0.096345	-0.276921	0.326300
H854	H	0.067300	-0.295263	0.357362
H855	H	0.087329	-0.262762	0.312895
C856	C	0.172644	-0.223323	0.286665
C857	C	0.136973	-0.245850	0.324817
H858	H	0.197705	-0.204156	0.285749
H859	H	0.179298	-0.239001	0.272869
H860	H	0.165125	-0.211528	0.275499
H861	H	0.144490	-0.257649	0.335981
H862	H	0.130321	-0.230173	0.338615
H863	H	0.335269	-0.128941	-0.308748
H864	H	0.437709	-0.409066	-0.028885
H865	H	0.100131	-0.026521	0.028807
H866	H	0.167506	-0.083593	0.019063
O867	O	0.549858	-0.357363	-0.019333
C868	C	0.573360	-0.370584	-0.017440
H869	H	0.589993	-0.353918	-0.003353
H870	H	0.599573	-0.366185	-0.047595
C871	C	0.520729	-0.433951	-0.010966
C872	C	0.541154	-0.413484	0.006338
H873	H	0.500863	-0.460414	0.003699
H874	H	0.504895	-0.425044	-0.012244
H875	H	0.542577	-0.430281	-0.036096
H876	H	0.519306	-0.417150	0.031465
H877	H	0.556983	-0.422392	0.007620
H878	H	0.230097	-0.219111	-0.398135
O879	O	-0.735208	-0.530495	0.472068
C880	C	-0.773860	-0.555785	0.508813
H881	H	-0.772813	-0.580170	0.517720
H882	H	-0.804047	-0.567948	0.508228
C883	C	-0.778005	-0.504092	0.526770
C884	C	-0.776717	-0.534040	0.537711
H885	H	-0.779769	-0.490679	0.544596
H886	H	-0.751966	-0.487053	0.502014
H887	H	-0.803161	-0.514232	0.526283
H888	H	-0.751559	-0.523900	0.538194
H889	H	-0.802753	-0.551077	0.562468
H890	H	0.370598	-0.083850	-0.184076
O891	O	0.335548	-0.113347	-0.506898
C892	C	0.304381	-0.109952	-0.506808
H893	H	0.280064	-0.112161	-0.476893
H894	H	0.285685	-0.133885	-0.515419
C895	C	0.358309	-0.068215	-0.572233
C896	C	0.328443	-0.070925	-0.535491
H897	H	0.373151	-0.044142	-0.589928
H898	H	0.379306	-0.070504	-0.572294
H899	H	0.342724	-0.088162	-0.579403
H900	H	0.344029	-0.050981	-0.528320
H901	H	0.307449	-0.068632	-0.535430
O902	O	0.265153	-0.357367	-0.019320
C903	C	0.291749	-0.369047	-0.022204
H904	H	0.311355	-0.351588	-0.010580
H905	H	0.315552	-0.364279	-0.053493
C906	C	0.238080	-0.433274	-0.013067
C907	C	0.262158	-0.411833	0.001212
H908	H	0.219828	-0.459666	0.001375
H909	H	0.220163	-0.425405	-0.011126
H910	H	0.257921	-0.429297	-0.039141
H911	H	0.242317	-0.415806	0.027284
H912	H	0.280071	-0.419703	-0.000724
O913	O	0.335533	-0.113355	-0.110859
C914	C	0.304371	-0.109939	-0.079799
H915	H	0.269742	-0.133189	-0.071152
H916	H	0.311790	-0.080602	-0.088577
C917	C	0.349617	-0.085877	-0.056315
C918	C	0.307085	-0.114434	-0.045693
H919	H	0.351292	-0.088647	-0.035277
H920	H	0.370613	-0.088176	-0.077242
H921	H	0.355795	-0.061431	-0.063630
H922	H	0.300909	-0.138879	-0.038383
H923	H	0.286088	-0.112138	-0.024764
H924	H	0.335043	-0.409068	-0.028878
O925	O	0.099028	0.171006	-0.395052
C926	C	0.060397	0.145606	-0.358335
H927	H	0.061549	0.121255	-0.349535
H928	H	0.030202	0.133408	-0.358913
C929	C	0.056018	0.197138	-0.340145
C930	C	0.057434	0.167232	-0.329335
H931	H	0.054188	0.210478	-0.322256
H932	H	0.082043	0.214251	-0.364882
H933	H	0.030855	0.186969	-0.340627
H934	H	0.082599	0.177402	-0.328858
H935	H	0.031413	0.150121	-0.304597
H936	H	0.370881	-0.248784	-0.019122
H937	H	0.230365	-0.603862	-0.013858
H938	H	0.230346	-0.318966	-0.013835
H939	H	-0.002298	-0.408829	0.411365
H940	H	-0.629125	-0.248761	0.365741
H941	H	-0.116983	-0.533275	0.365765
H942	H	-0.117201	-0.533500	0.468702
O943	O	0.058431	-0.357617	0.472089
C944	C	0.046978	-0.370975	0.508834
H945	H	0.062457	-0.345543	0.517740
H946	H	0.059725	-0.389000	0.508248
C947	C	-0.022673	-0.426812	0.526792
C948	C	-0.003664	-0.395575	0.537732
H949	H	-0.053912	-0.441987	0.544618
H950	H	-0.014957	-0.417813	0.502036
H951	H	-0.012046	-0.441828	0.526304
H952	H	-0.014287	-0.380557	0.538215
H953	H	-0.011384	-0.404571	0.562489
H954	H	0.204850	0.168253	-0.501099
