data_functionalizedCrystal
_audit_creation_method	'MofGen! by Chris Wilmer'
_symmetry_space_group_name_H-M	'P1'
_symmetry_Int_Tables_number	1
_symmetry_cell_setting	triclinic
loop_
_symmetry_equiv_pos_as_xyz
  x,y,z
_cell_length_a	19.121241
_cell_length_b	29.839131
_cell_length_c	29.839126
_cell_angle_alpha	90.031806
_cell_angle_beta	92.463783
_cell_angle_gamma	92.469032
loop_
_atom_site_label
_atom_site_type_symbol
_atom_site_fract_x
_atom_site_fract_y
_atom_site_fract_z
Zn1	Zn	1.073716	-0.149653	0.283340
Zn2	Zn	1.407049	0.183680	0.616673
Zn3	Zn	1.740383	0.517014	0.950007
Zn4	Zn	1.073607	-0.224776	0.208197
Zn5	Zn	1.406940	0.108557	0.541530
Zn6	Zn	1.740274	0.441890	0.874863
Zn7	Zn	0.956260	-0.152856	0.205011
Zn8	Zn	1.289594	0.180477	0.538344
Zn9	Zn	1.622927	0.513810	0.871678
Zn10	Zn	0.956207	-0.227956	0.280088
Zn11	Zn	1.289540	0.105377	0.613422
Zn12	Zn	1.622874	0.438710	0.946755
O13	O	1.014948	-0.188810	0.244159
O14	O	1.348281	0.144523	0.577492
O15	O	1.681614	0.477856	0.910826
O16	O	1.171989	-0.156947	0.276066
O17	O	1.505323	0.176386	0.609399
O18	O	1.838656	0.509720	0.942733
O19	O	1.058017	-0.215246	0.144906
O20	O	1.391351	0.118087	0.478240
O21	O	1.724684	0.451421	0.811573
O22	O	0.971909	-0.089562	0.215429
O23	O	1.305242	0.243771	0.548762
O24	O	1.638576	0.577104	0.882096
O25	O	1.171909	-0.212140	0.220859
O26	O	1.505242	0.121194	0.554192
O27	O	1.838576	0.454527	0.887525
O28	O	1.058203	-0.087209	0.272977
O29	O	1.391536	0.246124	0.606310
O30	O	1.724870	0.579458	0.939644
O31	O	0.971803	-0.162407	0.142566
O32	O	1.305137	0.170927	0.475899
O33	O	1.638470	0.504260	0.809232
O34	O	0.857965	-0.165490	0.212276
O35	O	1.191299	0.167844	0.545609
O36	O	1.524632	0.501177	0.878943
O37	O	0.971818	-0.217559	0.343387
O38	O	1.305151	0.115774	0.676721
O39	O	1.638485	0.449107	1.010054
O40	O	0.857926	-0.220665	0.267435
O41	O	1.191260	0.112668	0.600768
O42	O	1.524593	0.446001	0.934102
O43	O	1.058151	-0.160030	0.345776
O44	O	1.391485	0.173303	0.679110
O45	O	1.724818	0.506636	1.012443
O46	O	1.057966	-0.288067	0.217706
O47	O	1.391299	0.045266	0.551039
O48	O	1.724632	0.378599	0.884373
O49	O	0.971712	-0.290403	0.270524
O50	O	1.305046	0.042930	0.603858
O51	O	1.638379	0.376263	0.937191
C52	C	0.832461	-0.193771	0.239157
C53	C	1.165794	0.139563	0.572491
C54	C	1.499128	0.472896	0.905824
C55	C	0.754392	-0.195903	0.237028
C56	C	1.087726	0.137430	0.570361
C57	C	1.421059	0.470763	0.903695
C58	C	0.717758	-0.168215	0.264815
C59	C	1.051091	0.165118	0.598149
C60	C	1.384425	0.498452	0.931482
C61	C	0.644404	-0.170217	0.262811
C62	C	0.977737	0.163117	0.596144
C63	C	1.311071	0.496450	0.929477
C64	C	0.607686	-0.199909	0.233021
C65	C	0.941020	0.133424	0.566355
C66	C	1.274353	0.466757	0.899688
C67	C	0.644326	-0.227599	0.205231
C68	C	0.977659	0.105734	0.538564
C69	C	1.310992	0.439068	0.871898
C70	C	0.717678	-0.225595	0.207234
C71	C	1.051011	0.107739	0.540567
C72	C	1.384345	0.441072	0.873900
C73	C	0.386207	-0.207395	0.225533
C74	C	0.719541	0.125939	0.558866
C75	C	1.052874	0.459272	0.892199
C76	C	0.312850	-0.209398	0.223533
C77	C	0.646183	0.123935	0.556867
C78	C	0.979516	0.457269	0.890200
C79	C	0.312933	-0.152015	0.281113
C80	C	0.646267	0.181319	0.614446
C81	C	0.979600	0.514652	0.947779
C82	C	0.386287	-0.150015	0.283114
C83	C	0.719620	0.183318	0.616448
C84	C	1.052954	0.516652	0.949781
C85	C	0.422920	-0.177703	0.255323
C86	C	0.756253	0.155631	0.588656
C87	C	1.089587	0.488964	0.921989
C88	C	0.532707	-0.201957	0.230973
C89	C	0.866040	0.131376	0.564306
C90	C	1.199374	0.464709	0.897639
C91	C	0.497898	-0.175652	0.257369
C92	C	0.831231	0.157681	0.590703
C93	C	1.164565	0.491014	0.924036
C94	C	1.014840	-0.305536	0.244118
C95	C	1.348174	0.027797	0.577452
C96	C	1.681507	0.361131	0.910785
C97	C	1.014859	-0.355470	0.244118
C98	C	1.348192	-0.022137	0.577451
C99	C	1.681525	0.311197	0.910784
C100	C	1.059871	-0.663851	0.274165
C101	C	1.393204	-0.330517	0.607498
C102	C	1.726538	0.002816	0.940832
C103	C	1.059947	-0.851522	0.274194
C104	C	1.393281	-0.518188	0.607527
C105	C	1.726614	-0.184855	0.940861
O106	O	1.098113	-0.874716	0.299710
O107	O	1.431447	-0.541383	0.633044
O108	O	1.764780	-0.208049	0.966377
N109	N	1.015067	-0.876249	0.244212
N110	N	1.348400	-0.542916	0.577545
N111	N	1.681733	-0.209583	0.910879
C112	C	0.970161	-0.854056	0.214223
C113	C	1.303494	-0.520723	0.547556
C114	C	1.636827	-0.187390	0.880890
O115	O	0.931984	-0.879395	0.188725
O116	O	1.265317	-0.546062	0.522059
O117	O	1.598650	-0.212728	0.855392
C118	C	0.970082	-0.666386	0.214196
C119	C	1.303415	-0.333053	0.547530
C120	C	1.636748	0.000280	0.880863
C121	C	1.014970	-0.641661	0.244177
C122	C	1.348303	-0.308328	0.577510
C123	C	1.681637	0.025006	0.910844
C124	C	1.104755	-0.639126	0.304144
C125	C	1.438089	-0.305792	0.637477
C126	C	1.771422	0.027541	0.970810
C127	C	1.104739	-0.592211	0.304134
C128	C	1.438072	-0.258877	0.637468
C129	C	1.771405	0.074456	0.970801
C130	C	1.059837	-0.570021	0.274146
C131	C	1.393171	-0.236687	0.607480
C132	C	1.726504	0.096646	0.940813
C133	C	1.014953	-0.594746	0.244168
C134	C	1.348287	-0.261413	0.577501
C135	C	1.681620	0.071921	0.910834
C136	C	0.925172	-0.644194	0.184210
C137	C	1.258506	-0.310861	0.517543
C138	C	1.591839	0.022472	0.850876
C139	C	0.925155	-0.597274	0.184206
C140	C	1.258489	-0.263940	0.517540
C141	C	1.591822	0.069393	0.850873
C142	C	0.970044	-0.572549	0.214187
C143	C	1.303377	-0.239215	0.547520
C144	C	1.636711	0.094118	0.880854
C145	C	0.970035	-0.525641	0.214171
C146	C	1.303369	-0.192308	0.547504
C147	C	1.636702	0.141025	0.880837
N148	N	1.014916	-0.500914	0.244153
N149	N	1.348249	-0.167580	0.577486
N150	N	1.681582	0.165753	0.910819
C151	C	1.059817	-0.523104	0.274140
C152	C	1.393150	-0.189770	0.607474
C153	C	1.726484	0.143563	0.940807
C154	C	0.970207	-0.952586	0.214238
C155	C	1.303540	-0.619252	0.547572
C156	C	1.636873	-0.285919	0.880905
C157	C	0.970227	-0.999503	0.214244
C158	C	1.303560	-0.666170	0.547578
C159	C	1.636894	-0.332836	0.880911
C160	C	1.060013	-0.996965	0.274216
C161	C	1.393346	-0.663632	0.607549
C162	C	1.726680	-0.330298	0.940883
C163	C	1.059995	-0.950047	0.274208
C164	C	1.393329	-0.616714	0.607541
C165	C	1.726662	-0.283380	0.940874
C166	C	1.015087	-0.927858	0.244220
C167	C	1.348420	-0.594525	0.577554
C168	C	1.681754	-0.261192	0.910887
C169	C	1.059779	-0.424579	0.274119
C170	C	1.393112	-0.091245	0.607452
C171	C	1.726445	0.242088	0.940785
C172	C	1.059760	-0.377660	0.274105
C173	C	1.393093	-0.044326	0.607439
C174	C	1.726427	0.289007	0.940772
C175	C	0.969972	-0.380202	0.214135
C176	C	1.303305	-0.046868	0.547469
C177	C	1.636639	0.286465	0.880802
C178	C	0.969993	-0.427117	0.214147
C179	C	1.303326	-0.093783	0.547480
C180	C	1.636660	0.239550	0.880813
C181	C	1.014899	-0.449304	0.244142
C182	C	1.348232	-0.115971	0.577475
C183	C	1.681565	0.217363	0.910809
O184	O	0.931884	-0.502418	0.188671
O185	O	1.265217	-0.169084	0.522004
O186	O	1.598550	0.164249	0.855338
O187	O	1.097977	-0.497757	0.299641
O188	O	1.431311	-0.164424	0.632974
O189	O	1.764644	0.168909	0.966308
C190	C	1.059888	-0.710766	0.274174
C191	C	1.393221	-0.377432	0.607507
C192	C	1.726555	-0.044099	0.940841
C193	C	1.015004	-0.735491	0.244195
C194	C	1.348337	-0.402158	0.577529
C195	C	1.681670	-0.068824	0.910862
C196	C	0.970103	-0.713301	0.214208
C197	C	1.303436	-0.379968	0.547541
C198	C	1.636769	-0.046635	0.880874
C199	C	1.015024	-0.782408	0.244201
C200	C	1.348358	-0.449075	0.577535
C201	C	1.681691	-0.115742	0.910868
C202	C	1.059925	-0.804598	0.274189
C203	C	1.393259	-0.471265	0.607523
C204	C	1.726592	-0.137931	0.940856
C205	C	1.104806	-0.779870	0.304171
C206	C	1.438139	-0.446537	0.637505
C207	C	1.771472	-0.113204	0.970838
C208	C	1.104789	-0.732955	0.304162
C209	C	1.438122	-0.399622	0.637495
C210	C	1.771456	-0.066289	0.970829
C211	C	0.925222	-0.738029	0.184226
C212	C	1.258555	-0.404695	0.517559
C213	C	1.591889	-0.071362	0.850892
C214	C	0.925243	-0.784944	0.184237
C215	C	1.258576	-0.451610	0.517570
C216	C	1.591910	-0.118277	0.850904
C217	C	0.970144	-0.807133	0.214225
C218	C	1.303477	-0.473800	0.547558
C219	C	1.636811	-0.140467	0.880892
C220	C	1.198147	-0.183831	0.249181
C221	C	1.531480	0.149502	0.582514
C222	C	1.864813	0.482835	0.915847
C223	C	1.276215	-0.181710	0.251320
C224	C	1.609549	0.151624	0.584654
C225	C	1.942882	0.484957	0.917987
C226	C	1.014991	-0.188792	0.361339
C227	C	1.348324	0.144541	0.694672
C228	C	1.681658	0.477875	1.028005
C229	C	1.015010	-0.188784	0.411274
C230	C	1.348343	0.144549	0.744607
C231	C	1.681676	0.477882	1.077940
C232	C	1.015074	-0.071629	0.244210
C233	C	1.348408	0.261705	0.577544
C234	C	1.681741	0.595038	0.910877
C235	C	1.015128	-0.021693	0.244232
C236	C	1.348462	0.311641	0.577566
C237	C	1.681795	0.644974	0.910899
C238	C	1.014945	-0.188795	0.127436
C239	C	1.348278	0.144538	0.460770
C240	C	1.681611	0.477871	0.794103
C241	C	1.015062	-0.188673	0.077505
C242	C	1.348396	0.144660	0.410839
C243	C	1.681729	0.477994	0.744172
C244	C	0.970132	-0.161225	0.719702
C245	C	1.303465	0.172108	1.053035
C246	C	1.636799	0.505441	1.386368
C247	C	0.970152	-0.161194	0.907375
C248	C	1.303485	0.172140	1.240709
C249	C	1.636819	0.505473	1.574042
O250	O	0.931960	-0.137808	0.930606
O251	O	1.265293	0.195525	1.263939
O252	O	1.598627	0.528859	1.597272
N253	N	1.015043	-0.188699	0.932060
N254	N	1.348376	0.144634	1.265393
N255	N	1.681710	0.477968	1.598726
C256	C	1.059929	-0.216216	0.909823
C257	C	1.393262	0.117117	1.243156
C258	C	1.726596	0.450450	1.576490
O259	O	1.098107	-0.239614	0.935125
O260	O	1.431440	0.093719	1.268458
O261	O	1.764773	0.427053	1.601791
C262	C	1.059905	-0.216250	0.722150
C263	C	1.393238	0.117083	1.055483
C264	C	1.726572	0.450416	1.388817
C265	C	1.015016	-0.188740	0.697468
C266	C	1.348349	0.144594	1.030801
C267	C	1.681683	0.477927	1.364135
C268	C	0.925246	-0.133718	0.695020
C269	C	1.258579	0.199616	1.028353
C270	C	1.591913	0.532949	1.361686
C271	C	0.925244	-0.133724	0.648104
C272	C	1.258578	0.199609	0.981437
C273	C	1.591911	0.532943	1.314771
C274	C	0.970128	-0.161238	0.625870
C275	C	1.303462	0.172095	0.959204
C276	C	1.636795	0.505428	1.292537
C277	C	1.015014	-0.188746	0.650552
C278	C	1.348347	0.144587	0.983886
C279	C	1.681681	0.477921	1.317219
C280	C	1.104787	-0.243770	0.699914
C281	C	1.438120	0.089564	1.033247
C282	C	1.771453	0.422897	1.366581
C283	C	1.104776	-0.243776	0.652993
C284	C	1.438109	0.089557	0.986326
C285	C	1.771442	0.422890	1.319659
C286	C	1.059887	-0.216266	0.628311
C287	C	1.393220	0.117067	0.961644
C288	C	1.726553	0.450401	1.294977
C289	C	1.059896	-0.216267	0.581403
C290	C	1.393230	0.117067	0.914737
C291	C	1.726563	0.450400	1.248070
N292	N	1.015005	-0.188761	0.556719
N293	N	1.348339	0.144572	0.890052
N294	N	1.681672	0.477905	1.223386
C295	C	0.970121	-0.161247	0.578952
C296	C	1.303455	0.172086	0.912286
C297	C	1.636788	0.505419	1.245619
C298	C	1.059939	-0.216196	1.008354
C299	C	1.393273	0.117137	1.341687
C300	C	1.726606	0.450471	1.675021
C301	C	1.059946	-0.216187	1.055272
C302	C	1.393280	0.117146	1.388605
C303	C	1.726613	0.450480	1.721939
C304	C	0.970168	-0.161165	1.052821
C305	C	1.303501	0.172168	1.386154
C306	C	1.636835	0.505502	1.719488
C307	C	0.970165	-0.161172	1.005902
C308	C	1.303499	0.172161	1.339235
C309	C	1.636832	0.505495	1.672569
C310	C	1.015048	-0.188691	0.983669
C311	C	1.348382	0.144643	1.317003
C312	C	1.681715	0.477976	1.650336
C313	C	0.970121	-0.161262	0.480427
C314	C	1.303455	0.172071	0.813760
C315	C	1.636788	0.505404	1.147093
C316	C	0.970126	-0.161270	0.433507
C317	C	1.303459	0.172063	0.766840
C318	C	1.636792	0.505397	1.100174
C319	C	1.059901	-0.216294	0.435962
C320	C	1.393234	0.117040	0.769295
C321	C	1.726567	0.450373	1.102629
C322	C	1.059899	-0.216285	0.482878
C323	C	1.393233	0.117049	0.816211
C324	C	1.726566	0.450382	1.149544
C325	C	1.015004	-0.188768	0.505109
C326	C	1.348337	0.144566	0.838442
C327	C	1.681671	0.477899	1.171775
O328	O	1.098062	-0.239644	0.558143
O329	O	1.431396	0.093689	0.891477
O330	O	1.764729	0.427023	1.224810
O331	O	0.931938	-0.137860	0.553642
O332	O	1.265271	0.195473	0.886976
O333	O	1.598605	0.528806	1.220309
C334	C	0.970134	-0.161219	0.766617
C335	C	1.303467	0.172114	1.099950
C336	C	1.636800	0.505448	1.433284
C337	C	1.015020	-0.188727	0.791299
C338	C	1.348353	0.144606	1.124632
C339	C	1.681686	0.477940	1.457966
C340	C	1.059904	-0.216241	0.769066
C341	C	1.393237	0.117092	1.102399
C342	C	1.726570	0.450425	1.435732
C343	C	1.015027	-0.188718	0.838217
C344	C	1.348360	0.144615	1.171550
C345	C	1.681693	0.477949	1.504884
C346	C	0.970143	-0.161204	0.860451
C347	C	1.303476	0.172130	1.193784
C348	C	1.636809	0.505463	1.527117
C349	C	0.925252	-0.133698	0.835766
C350	C	1.258585	0.199635	1.169099
C351	C	1.591918	0.532968	1.502433
C352	C	0.925250	-0.133705	0.788851
C353	C	1.258583	0.199629	1.122184
C354	C	1.591916	0.532962	1.455517
C355	C	1.104795	-0.243747	0.793750
C356	C	1.438128	0.089587	1.127083
C357	C	1.771461	0.422920	1.460417
C358	C	1.104793	-0.243737	0.840666
C359	C	1.438127	0.089596	1.173999
C360	C	1.771460	0.422929	1.507332
C361	C	1.059909	-0.216223	0.862899
C362	C	1.393243	0.117110	1.196232
C363	C	1.726576	0.450443	1.529566
H364	H	0.282956	-0.233580	0.199275
H365	H	0.616289	0.099754	0.532608
H366	H	0.949623	0.433087	0.865942
H367	H	0.283099	-0.129472	0.303739
H368	H	0.616432	0.203861	0.637072
H369	H	0.949765	0.537194	0.970405
H370	H	1.141343	-0.266154	0.775652
H371	H	1.474676	0.067179	1.108986
H372	H	1.808009	0.400512	1.442319
Br373	Br	1.165657	-0.558662	0.344828
Br374	Br	1.498990	-0.225329	0.678161
Br375	Br	1.832324	0.108005	1.011494
Br376	Br	1.120724	-0.454683	0.314826
Br377	Br	1.454057	-0.121349	0.648159
Br378	Br	1.787390	0.211984	0.981493
Br379	Br	0.909084	-0.460673	0.173452
Br380	Br	1.242417	-0.127340	0.506785
Br381	Br	1.575750	0.205993	0.840118
H382	H	1.096507	-0.238584	1.075364
H383	H	1.429840	0.094750	1.408698
H384	H	1.763174	0.428083	1.742031
Br385	Br	0.864326	-0.096367	0.755361
Br386	Br	1.197660	0.236967	1.088694
Br387	Br	1.530993	0.570300	1.422027
Br388	Br	0.909039	-0.350078	0.173439
Br389	Br	1.242372	-0.016745	0.506772
Br390	Br	1.575705	0.316589	0.840105
Br391	Br	0.864321	-0.818494	0.143542
Br392	Br	1.197654	-0.485160	0.476876
Br393	Br	1.530988	-0.151827	0.810209
Br394	Br	0.482870	-0.242253	0.190545
Br395	Br	0.816203	0.091080	0.523878
Br396	Br	1.149536	0.424413	0.857211
Br397	Br	0.909255	-0.123824	1.083004
Br398	Br	1.242588	0.209509	1.416337
Br399	Br	1.575921	0.542843	1.749671
Br400	Br	0.909316	-1.033053	0.173547
Br401	Br	1.242650	-0.699719	0.506881
Br402	Br	1.575983	-0.366386	0.840214
H403	H	0.933613	-0.138770	0.985809
H404	H	1.266946	0.194563	1.319142
H405	H	1.600280	0.527897	1.652476
Br406	Br	0.767582	-0.127919	0.305249
Br407	Br	1.100916	0.205415	0.638582
Br408	Br	1.434249	0.538748	0.971916
H409	H	0.614580	-0.147671	0.285439
H410	H	0.947913	0.185663	0.618772
H411	H	1.281246	0.518996	0.952106
H412	H	0.933572	-0.138866	0.413413
H413	H	1.266905	0.194468	0.746746
H414	H	1.600238	0.527801	1.080080
Br415	Br	0.436114	-0.109721	0.323549
Br416	Br	0.769447	0.223613	0.656882
Br417	Br	1.102780	0.556946	0.990216
Br418	Br	0.909250	-0.922479	0.173539
Br419	Br	1.242583	-0.589146	0.506872
Br420	Br	1.575916	-0.255813	0.840206
Br421	Br	1.120861	-0.253545	0.978188
Br422	Br	1.454194	0.079788	1.311521
Br423	Br	1.787527	0.413121	1.644855
H424	H	1.141354	-0.266139	0.860758
H425	H	1.474687	0.067194	1.194091
H426	H	1.808021	0.400528	1.527425
Br427	Br	0.767397	-0.263172	0.169520
Br428	Br	1.100731	0.070161	0.502854
Br429	Br	1.434064	0.403494	0.836187
Br430	Br	1.120817	-0.253629	0.405779
Br431	Br	1.454150	0.079704	0.739112
Br432	Br	1.787484	0.413037	1.072446
Br433	Br	0.864247	-0.677738	0.143520
Br434	Br	1.197580	-0.344405	0.476853
Br435	Br	1.530913	-0.011072	0.810186
Br436	Br	1.165712	-0.699407	0.344852
Br437	Br	1.499046	-0.366074	0.678186
Br438	Br	1.832379	-0.032740	1.011519
Br439	Br	0.909196	-0.123915	0.510590
Br440	Br	1.242529	0.209419	0.843923
Br441	Br	1.575863	0.542752	1.177257
H442	H	1.141368	-0.797945	0.328587
H443	H	1.474702	-0.464612	0.661920
H444	H	1.808035	-0.131279	0.995254
H445	H	0.888657	-0.719966	0.159807
H446	H	1.221991	-0.386632	0.493140
H447	H	1.555324	-0.053299	0.826473
Br448	Br	0.547730	-0.135354	0.297794
Br449	Br	0.881064	0.197979	0.631128
Br450	Br	1.214397	0.531313	0.964461
H451	H	1.096316	-0.357529	0.298519
H452	H	1.429649	-0.024196	0.631853
H453	H	1.762983	0.309137	0.965186
H454	H	1.141340	-0.266172	0.720002
H455	H	1.474673	0.067161	1.053336
H456	H	1.808006	0.400495	1.386669
H457	H	1.141330	-0.266183	0.634893
H458	H	1.474663	0.067150	0.968227
H459	H	1.807997	0.400483	1.301560
Br460	Br	1.120917	-0.916496	0.314897
Br461	Br	1.454251	-0.583163	0.648230
Br462	Br	1.787584	-0.249829	0.981564
H463	H	1.096459	-0.238681	0.502975
H464	H	1.429793	0.094653	0.836308
H465	H	1.763126	0.427986	1.169642
H466	H	1.141319	-0.657187	0.328566
H467	H	1.474652	-0.323854	0.661899
H468	H	1.807986	0.009479	0.995233
H469	H	0.888708	-0.111293	0.853877
H470	H	1.222042	0.222040	1.187210
H471	H	1.555375	0.555373	1.520544
Br472	Br	1.120951	-1.027089	0.314913
Br473	Br	1.454284	-0.693755	0.648247
Br474	Br	1.787617	-0.360422	0.981580
Br475	Br	0.864203	-0.567163	0.143507
Br476	Br	1.197537	-0.233830	0.476841
Br477	Br	1.530870	0.099503	0.810174
Br478	Br	0.864317	-0.096389	0.614614
Br479	Br	1.197650	0.236945	0.947947
Br480	Br	1.530984	0.570278	1.281281
H481	H	0.416025	-0.229941	0.202903
H482	H	0.749358	0.103393	0.536237
H483	H	1.082692	0.436726	0.869570
H484	H	0.614424	-0.251773	0.180974
H485	H	0.947757	0.081560	0.514307
H486	H	1.281091	0.414893	0.847640
H487	H	0.888693	-0.111312	0.713117
H488	H	1.222026	0.222021	1.046450
H489	H	1.555359	0.555355	1.379784
