data_functionalizedCrystal
_audit_creation_method	'MofGen! by Chris Wilmer'
_symmetry_space_group_name_H-M	'P1'
_symmetry_Int_Tables_number	1
_symmetry_cell_setting	triclinic
loop_
_symmetry_equiv_pos_as_xyz
  x,y,z
_cell_length_a	19.288864
_cell_length_b	17.038272
_cell_length_c	18.366186
_cell_angle_alpha	89.993834
_cell_angle_beta	89.977106
_cell_angle_gamma	87.123901
loop_
_atom_site_label
_atom_site_type_symbol
_atom_site_fract_x
_atom_site_fract_y
_atom_site_fract_z
O1	O	0.927386	0.097514	-0.060785
O2	O	1.427386	0.597514	0.439215
O3	O	0.725939	0.110668	-0.060736
O4	O	1.225939	0.610668	0.439264
O5	O	0.825465	-0.009720	-0.060755
O6	O	1.325465	0.490280	0.439245
O7	O	0.827860	0.217903	-0.060767
O8	O	1.327860	0.717903	0.439233
O9	O	0.825447	-0.009726	0.060345
O10	O	1.325447	0.490274	0.560345
O11	O	0.725921	0.110662	0.060363
O12	O	1.225921	0.610662	0.560363
O13	O	0.927368	0.097508	0.060314
O14	O	1.427368	0.597508	0.560314
Zn15	Zn	0.826641	0.104084	0.079566
Zn16	Zn	1.326641	0.604084	0.579566
Zn17	Zn	0.826666	0.104092	-0.079988
Zn18	Zn	1.326666	0.604092	0.420012
O19	O	0.827841	0.217897	0.060333
O20	O	1.327841	0.717897	0.560333
C21	C	0.700027	0.110242	-0.000180
C22	C	1.200027	0.610242	0.499820
C23	C	0.622845	0.108972	-0.000161
C24	C	1.122845	0.608972	0.499839
C25	C	0.582519	0.179610	-0.000176
C26	C	1.082519	0.679610	0.499824
C27	C	0.509998	0.178417	-0.000184
C28	C	1.009998	0.678417	0.499816
C29	C	0.477806	0.106580	-0.000191
C30	C	0.977806	0.606580	0.499809
C31	C	0.518141	0.035932	-0.000172
C32	C	1.018141	0.535932	0.499828
C33	C	0.590661	0.037128	-0.000157
C34	C	1.090661	0.537128	0.499843
C35	C	0.366057	0.050111	-0.042639
C36	C	0.866057	0.550111	0.457361
C37	C	0.293539	0.048918	-0.042659
C38	C	0.793539	0.548918	0.457341
C39	C	0.254132	0.102889	-0.000235
C40	C	0.754132	0.602889	0.499765
C41	C	0.287253	0.158066	0.042199
C42	C	0.787253	0.658066	0.542199
C43	C	0.359772	0.159262	0.042214
C44	C	0.859772	0.659262	0.542214
C45	C	0.399172	0.105276	-0.000207
C46	C	0.899172	0.605276	0.499793
C47	C	0.135171	0.172238	-0.000258
C48	C	0.635171	0.672238	0.499742
C49	C	0.062649	0.171042	-0.000262
C50	C	0.562649	0.671042	0.499738
C51	C	0.070793	0.028556	-0.000257
C52	C	0.570793	0.528556	0.499743
C53	C	0.143314	0.029754	-0.000246
C54	C	0.643314	0.529754	0.499754
C55	C	0.175498	0.101598	-0.000250
C56	C	0.675498	0.601598	0.499750
C57	C	0.823278	-0.038845	-0.000205
C58	C	1.323278	0.461155	0.499795
C59	C	0.816781	-0.125616	-0.000203
C60	C	1.316781	0.374384	0.499797
C61	C	0.876437	-0.175923	-0.000217
C62	C	1.376437	0.324077	0.499783
C63	C	0.870327	-0.257454	-0.000222
C64	C	1.370327	0.242546	0.499778
C65	C	0.804561	-0.288677	-0.000209
C66	C	1.304561	0.211323	0.499791
C67	C	0.744901	-0.238363	-0.000197
C68	C	1.244901	0.261637	0.499803
C69	C	0.751011	-0.156834	-0.000197
C70	C	1.251011	0.343166	0.499803
C71	C	0.782976	-0.534365	-0.000213
C72	C	1.282976	-0.034365	0.499787
C73	C	0.776870	-0.615900	-0.000211
C74	C	1.276870	-0.115900	0.499789
C75	C	0.902297	-0.634985	-0.000238
C76	C	1.402297	-0.134985	0.499762
C77	C	0.908402	-0.553454	-0.000234
C78	C	1.408402	-0.053454	0.499766
C79	C	0.848741	-0.503148	-0.000226
C80	C	1.348741	-0.003148	0.499774
C81	C	0.798315	-0.372014	-0.000212
C82	C	1.298315	0.127986	0.499788
C83	C	0.854988	-0.419812	-0.000228
C84	C	1.354988	0.080188	0.499772
C85	C	0.953279	0.097934	-0.000244
C86	C	1.453279	0.597934	0.499756
C87	C	1.030462	0.099205	-0.000268
C88	C	1.530462	0.599205	0.499732
C89	C	0.830029	0.247021	-0.000219
C90	C	1.330029	0.747021	0.499781
C91	C	0.836526	0.333793	-0.000225
C92	C	1.336526	0.833793	0.499775
N93	N	0.826630	0.104079	0.188457
N94	N	1.326630	0.604079	0.688457
N95	N	0.826682	0.104092	-0.188879
N96	N	1.326682	0.604092	0.311121
C97	C	0.870717	0.050797	0.226549
C98	C	1.370717	0.550797	0.726549
C99	C	0.870721	0.050793	0.302777
C100	C	1.370721	0.550793	0.802777
C101	C	0.826645	0.104085	0.340910
C102	C	1.326645	0.604085	0.840910
C103	C	0.782550	0.157371	0.302808
C104	C	1.282550	0.657371	0.802808
C105	C	0.782542	0.157368	0.226582
C106	C	1.282542	0.657368	0.726582
C107	C	0.821754	0.175309	0.461668
C108	C	1.321754	0.675309	0.961668
C109	C	0.821767	0.175313	0.537893
C110	C	1.321767	0.675313	1.037893
C111	C	0.826666	0.104095	0.576017
C112	C	1.326666	0.604095	1.076017
C113	C	0.831567	0.032869	0.537908
C114	C	1.331567	0.532869	1.037908
C115	C	0.831559	0.032866	0.461681
C116	C	1.331559	0.532866	0.961681
C117	C	0.826649	0.104094	0.423564
C118	C	1.326649	0.604094	0.923564
C119	C	0.870760	0.050805	0.696764
C120	C	1.370760	0.550805	1.196764
C121	C	0.870759	0.050800	0.772993
C122	C	1.370759	0.550800	1.272993
C123	C	0.782591	0.157385	0.773023
C124	C	1.282591	0.657385	1.273023
C125	C	0.782588	0.157383	0.696796
C126	C	1.282588	0.657383	1.196796
C127	C	0.826676	0.104093	0.658671
C128	C	1.326676	0.604093	1.158671
H129	H	0.255169	0.202015	0.076745
H130	H	0.755169	0.702015	0.576745
H131	H	0.906614	0.007403	0.195510
H132	H	1.406614	0.507403	0.695510
H133	H	0.929990	-0.150509	-0.000224
H134	H	1.429990	0.349491	0.499776
Cl135	Cl	0.727137	0.224364	0.350745
Cl136	Cl	1.227137	0.724364	0.850745
Cl137	Cl	0.707973	-0.471134	-0.000205
Cl138	Cl	1.207973	0.028866	0.499795
Cl139	Cl	0.175635	0.262554	-0.000256
Cl140	Cl	0.675635	0.762554	0.499744
H141	H	0.691353	-0.263791	-0.000190
H142	H	1.191353	0.236209	0.499810
Cl143	Cl	0.194012	-0.059054	-0.000231
Cl144	Cl	0.694012	0.440946	0.499769
H145	H	0.702432	-0.115875	-0.000186
H146	H	1.202432	0.384125	0.499814
H147	H	0.908534	-0.394387	-0.000255
H148	H	1.408534	0.105613	0.499745
Cl149	Cl	0.715640	-0.411272	-0.000199
Cl150	Cl	1.215640	0.088728	0.499801
H151	H	0.477159	0.235941	-0.000194
H152	H	0.977159	0.735941	0.499806
H153	H	0.950869	-0.675953	-0.000246
H154	H	1.450869	-0.175953	0.499754
Cl155	Cl	0.926183	-0.016193	0.820884
Cl156	Cl	1.426183	0.483807	1.320884
H157	H	0.623494	-0.020396	-0.000145
H158	H	1.123494	0.479604	0.499855
Cl159	Cl	0.622976	0.269928	-0.000178
Cl160	Cl	1.122976	0.769928	0.499822
Cl161	Cl	0.926151	-0.016196	0.350672
Cl162	Cl	1.426151	0.483804	0.850672
H163	H	0.835547	-0.025128	0.430655
H164	H	1.335547	0.474872	0.930655
H165	H	0.835556	-0.025124	0.568947
H166	H	1.335556	0.474876	1.068947
H167	H	0.044583	-0.029935	-0.000308
H168	H	0.544583	0.470065	0.499692
H169	H	0.918906	-0.298411	-0.000232
H170	H	1.418906	0.201589	0.499768
Cl171	Cl	0.991082	-0.514209	-0.000274
Cl172	Cl	1.491082	-0.014209	0.499726
H173	H	0.906657	0.007411	0.665722
H174	H	1.406657	0.507411	1.165722
H175	H	0.029816	0.228567	-0.000270
H176	H	0.529816	0.728567	0.499730
Cl177	Cl	0.251909	-0.020439	-0.096012
Cl178	Cl	0.751909	0.479561	0.403988
H179	H	0.723313	-0.641318	-0.000188
H180	H	1.223313	-0.141318	0.499812
Cl181	Cl	0.415589	-0.017746	-0.095977
Cl182	Cl	0.915589	0.482254	0.404023
H183	H	0.746701	0.200773	0.804071
H184	H	1.246701	0.700773	1.304071
Cl185	Cl	0.727166	0.224373	0.648904
Cl186	Cl	1.227166	0.724373	1.148904
Cl187	Cl	0.815611	0.264852	0.585794
Cl188	Cl	1.315611	0.764852	1.085794
Cl189	Cl	0.727114	0.224357	0.178692
Cl190	Cl	1.227114	0.724357	0.678692
Cl191	Cl	0.401407	0.228621	0.095561
Cl192	Cl	0.901407	0.728621	0.595561
Cl193	Cl	0.477672	-0.054376	-0.000177
Cl194	Cl	0.977672	0.445624	0.499823
Cl195	Cl	0.815660	0.264851	0.413747
Cl196	Cl	1.315660	0.764851	0.913747
