data_functionalizedCrystal
_audit_creation_method	'MofGen! by Chris Wilmer'
_symmetry_space_group_name_H-M	'P1'
_symmetry_Int_Tables_number	1
_symmetry_cell_setting	triclinic
loop_
_symmetry_equiv_pos_as_xyz
  x,y,z
_cell_length_a	15.995350
_cell_length_b	15.944551
_cell_length_c	15.072220
_cell_angle_alpha	89.997918
_cell_angle_beta	89.991149
_cell_angle_gamma	83.495557
loop_
_atom_site_label
_atom_site_type_symbol
_atom_site_fract_x
_atom_site_fract_y
_atom_site_fract_z
O1	O	1.111002	0.108264	-0.073709
O2	O	0.867227	0.121634	-0.073728
O3	O	0.995772	-0.007326	-0.073710
O4	O	0.982458	0.237224	-0.073727
O5	O	0.995740	-0.007319	0.073855
O6	O	0.867196	0.121641	0.073837
O7	O	1.110970	0.108271	0.073856
Zn8	Zn	0.989078	0.114957	0.097276
Zn9	Zn	0.989120	0.114948	-0.097148
O10	O	0.982426	0.237232	0.073838
C11	C	0.836017	0.121085	0.000053
C12	C	0.743066	0.119428	0.000046
C13	C	0.405318	0.113477	0.000065
C14	C	0.452747	0.021634	0.000400
C15	C	0.549438	0.023291	0.000061
C16	C	0.572879	0.116429	0.000056
C17	C	0.531813	0.161725	-0.084211
C18	C	0.435177	0.159417	-0.084275
C19	C	0.434802	0.161323	0.083534
C20	C	0.531747	0.161301	0.084642
C21	C	0.667577	0.118102	0.000048
C22	C	0.310620	0.111806	0.000067
C23	C	0.995203	-0.038616	0.000073
C24	C	0.993546	-0.131862	0.000073
C25	C	0.909908	-0.346714	0.000054
C26	C	0.948731	-0.407730	0.072816
C27	C	0.990548	-0.302588	0.000066
C28	C	0.948781	-0.407721	-0.072672
C29	C	0.987647	-0.467501	0.000055
C30	C	1.029394	-0.362376	0.072888
C31	C	1.029433	-0.362360	-0.072665
C32	C	1.068315	-0.423358	0.000114
C33	C	0.992217	-0.207586	0.000073
C34	C	0.985984	-0.562502	0.000055
C35	C	1.142181	0.108821	0.000074
C36	C	1.235131	0.110478	0.000075
C37	C	0.982995	0.268522	0.000053
C38	C	0.984652	0.361768	0.000047
N39	N	0.989055	0.114963	0.229965
N40	N	0.989149	0.114935	-0.229836
C41	C	0.989118	0.114945	0.589166
C42	C	0.920105	0.183717	0.551550
C43	C	0.920264	0.183968	0.448724
C44	C	0.989086	0.114954	0.410962
C45	C	1.076452	0.134096	0.448258
C46	C	1.076065	0.134585	0.551116
C47	C	0.971544	0.026826	0.551271
C48	C	0.969539	0.027414	0.448407
C49	C	0.989074	0.114958	0.310249
C50	C	0.989136	0.114943	0.689879
H51	H	0.416880	0.126380	-0.147262
H52	H	1.063524	-0.342234	-0.134178
N53	N	0.392724	0.251013	0.084287
H54	H	0.358228	0.261100	0.140193
H55	H	0.437044	0.291333	0.082281
N56	N	0.821247	-0.302587	0.000141
H57	H	0.822986	-0.239467	-0.000422
H58	H	0.790521	-0.319834	-0.054251
H59	H	1.135309	-0.456521	0.000160
N60	N	0.903534	-0.434351	0.154293
H61	H	0.853494	-0.463547	0.135733
H62	H	0.943229	-0.474377	0.190712
N63	N	0.550534	0.252359	-0.088384
H64	H	0.585901	0.264959	-0.035563
H65	H	0.582195	0.261665	-0.144863
H66	H	0.914676	-0.427799	-0.134190
N67	N	1.074522	-0.335906	0.154459
H68	H	1.075338	-0.272661	0.153974
H69	H	1.044256	-0.352846	0.209299
H70	H	0.577852	-0.012314	0.060467
H71	H	0.414251	0.131301	0.147406
H72	H	0.402933	0.226847	-0.088103
N73	N	0.569406	0.120050	-0.167281
H74	H	0.613029	0.071839	-0.150522
H75	H	0.523539	0.097755	-0.203386
N76	N	1.096558	0.219715	0.582884
H77	H	1.096507	0.220886	0.649883
H78	H	1.153938	0.230017	0.560230
N79	N	0.834245	0.168865	0.415315
H80	H	0.795882	0.161985	0.467405
H81	H	0.810188	0.218561	0.378188
N82	N	0.833802	0.168869	0.584342
H83	H	0.838598	0.117420	0.623903
H84	H	0.808555	0.219751	0.619008
H85	H	0.559048	0.128236	0.146982
N86	N	0.552093	0.251271	0.091384
H87	H	0.615077	0.251776	0.095139
H88	H	0.529931	0.283812	0.037208
H89	H	0.931174	0.248741	0.577385
N90	N	0.934905	0.270646	0.416104
H91	H	0.941310	0.308833	0.468543
H92	H	0.987758	0.266340	0.378933
H93	H	1.129033	0.085338	0.423796
N94	N	1.146104	0.070733	0.584085
H95	H	1.177098	0.042400	0.531798
H96	H	1.186451	0.100230	0.621229
N97	N	1.097465	0.218248	0.414123
H98	H	1.050520	0.244086	0.374510
H99	H	1.104320	0.257121	0.465873
N100	N	0.888976	0.002451	0.585664
H101	H	0.862125	0.048289	0.626164
H102	H	0.850194	-0.004987	0.534087
N103	N	1.031799	-0.043558	0.414379
H104	H	1.073746	-0.019864	0.374028
H105	H	1.062376	-0.073293	0.466132
H106	H	0.905272	0.012886	0.424031
H107	H	1.021871	-0.024352	0.575596
H108	H	0.433164	-0.014912	-0.059693
N109	N	0.428200	-0.026994	0.080451
H110	H	0.386093	0.010035	0.117276
H111	H	0.402262	-0.078636	0.060282
H112	H	0.577307	-0.012561	-0.060445
