data_functionalizedCrystal
_audit_creation_method	'MofGen! by Chris Wilmer'
_symmetry_space_group_name_H-M	'P1'
_symmetry_Int_Tables_number	1
_symmetry_cell_setting	triclinic
loop_
_symmetry_equiv_pos_as_xyz
  x,y,z
_cell_length_a	19.077105
_cell_length_b	12.759394
_cell_length_c	19.076919
_cell_angle_alpha	87.725879
_cell_angle_beta	89.923776
_cell_angle_gamma	87.711291
loop_
_atom_site_label
_atom_site_type_symbol
_atom_site_fract_x
_atom_site_fract_y
_atom_site_fract_z
Zn1	Zn	1.058327	-0.508276	0.440432
Zn2	Zn	1.062986	-0.677203	0.322930
Zn3	Zn	0.945543	-0.494202	0.318225
Zn4	Zn	0.940807	-0.676569	0.435682
O5	O	1.001916	-0.589062	0.379317
O6	O	1.157277	-0.536840	0.428802
O7	O	1.051338	-0.647302	0.223974
O8	O	0.960536	-0.349050	0.334454
O9	O	1.160700	-0.660950	0.342473
O10	O	1.043398	-0.359391	0.424239
O11	O	0.965054	-0.512852	0.220517
O12	O	0.846582	-0.512238	0.329849
O13	O	0.952465	-0.659870	0.534644
O14	O	0.843103	-0.646222	0.416144
O15	O	1.038806	-0.536225	0.538133
O16	O	1.046746	-0.824137	0.337868
O17	O	0.956982	-0.823671	0.420707
C18	C	0.819346	-0.577635	0.371971
C19	C	0.741242	-0.572772	0.368845
C20	C	0.702757	-0.640344	0.412235
C21	C	0.629370	-0.635761	0.409302
C22	C	0.594467	-0.563612	0.362974
C23	C	0.632957	-0.496033	0.319582
C24	C	0.706343	-0.500611	0.322520
C25	C	0.375178	-0.542424	0.349381
C26	C	0.301786	-0.537853	0.346444
C27	C	0.298204	-0.677581	0.436166
C28	C	0.371592	-0.682157	0.439096
C29	C	0.410075	-0.614574	0.395707
N30	N	0.519453	-0.558928	0.359972
N31	N	0.485088	-0.619253	0.398713
C32	C	1.001874	-0.862026	0.379298
C33	C	1.001920	-0.978807	0.379316
C34	C	1.095456	-0.979246	0.293126
C35	C	1.142242	-1.034328	0.250040
C36	C	1.142282	-1.144054	0.250061
C37	C	1.095533	-1.198699	0.293174
C38	C	1.048747	-1.143617	0.336260
C39	C	1.048710	-1.033889	0.336233
C40	C	0.955216	-1.143178	0.422453
C41	C	0.955171	-1.033453	0.422429
C42	C	0.908467	-1.197824	0.465566
C43	C	0.861676	-1.142741	0.508649
C44	C	0.861637	-1.033009	0.508626
C45	C	0.908385	-0.978370	0.465515
C46	C	1.185198	-0.600535	0.386692
C47	C	1.263302	-0.605424	0.389835
C48	C	0.994587	-0.599547	0.562597
C49	C	0.991465	-0.604015	0.640701
C50	C	1.001976	-0.315035	0.379352
C51	C	1.002002	-0.198260	0.379367
C52	C	1.009256	-0.578545	0.196751
C53	C	1.012515	-0.573790	0.118654
C54	C	1.034948	-0.541742	0.679212
C55	C	1.032006	-0.545935	0.752598
C56	C	0.985582	-0.612408	0.787471
C57	C	0.942093	-0.674683	0.748955
C58	C	0.945033	-0.670484	0.675570
C59	C	0.971966	-0.631866	1.006753
C60	C	0.969031	-0.636063	1.080143
C61	C	1.058943	-0.507313	1.083780
C62	C	1.061881	-0.503124	1.010394
C63	C	1.018390	-0.565395	0.971884
N64	N	0.982574	-0.616698	0.862484
N65	N	1.021395	-0.561098	0.896873
H66	H	0.737676	-0.445582	0.287190
H67	H	0.604533	-0.437283	0.281863
H68	H	1.095419	-0.889901	0.293096
H69	H	0.823541	-0.988168	0.543715
H70	H	1.180306	-0.989826	0.214939
H71	H	1.180383	-1.188902	0.214980
H72	H	0.908353	-0.889026	0.465488
H73	H	1.072754	-0.487616	0.650823
H74	H	1.095576	-1.288044	0.293193
C75	C	1.079303	-0.478286	0.794286
C76	C	1.120604	-0.419200	0.748039
C77	C	1.164191	-0.356878	0.786417
H78	H	1.051367	-0.432372	0.821841
H79	H	1.108800	-0.522012	0.824129
H80	H	1.091110	-0.375479	0.718208
H81	H	1.148554	-0.465087	0.720483
H82	H	1.193688	-0.400603	0.816260
H83	H	1.136250	-0.310971	0.813970
H84	H	1.192223	-0.316788	0.755044
C85	C	0.891619	-0.746884	0.786686
C86	C	0.854153	-0.800501	0.737249
C87	C	0.807644	-0.867015	0.771979
H88	H	0.917264	-0.796070	0.816389
H89	H	0.859827	-0.706439	0.814070
H90	H	0.885941	-0.840944	0.709878
H91	H	0.828493	-0.751342	0.707545
H92	H	0.775852	-0.826570	0.799362
H93	H	0.833296	-0.916195	0.801680
H94	H	0.782214	-0.903395	0.738441
C95	C	0.908580	-1.316967	0.465727
C96	C	0.923816	-1.358147	0.533362
C97	C	0.923934	-1.467897	0.533535
H98	H	0.863760	-1.338461	0.451771
H99	H	0.943157	-1.341990	0.433925
H100	H	0.889240	-1.333133	0.565153
H101	H	0.968635	-1.336683	0.547330
H102	H	0.958511	-1.492921	0.501734
H103	H	0.879113	-1.489380	0.519577
H104	H	0.934277	-1.495852	0.579423
C105	C	1.112341	-0.431098	0.972482
C106	C	1.159067	-0.490963	0.932153
C107	C	1.205555	-0.424641	0.897218
H108	H	1.086671	-0.382005	0.942733
H109	H	1.137861	-0.394605	1.005894
H110	H	1.133550	-0.527438	0.898745
H111	H	1.184753	-0.540053	0.961885
H112	H	1.231075	-0.388147	0.930631
H113	H	1.179880	-0.375551	0.867473
H114	H	1.237269	-0.465249	0.869857
C115	C	1.106072	-0.439741	1.125715
C116	C	1.093551	-0.457621	1.197446
C117	C	1.136946	-0.395375	1.236097
H118	H	1.153789	-0.457320	1.115676
H119	H	1.096274	-0.367800	1.113322
H120	H	1.103354	-0.529546	1.209835
H121	H	1.045842	-0.440036	1.207507
H122	H	1.127148	-0.323434	1.223703
H123	H	1.184660	-0.412960	1.226051
H124	H	1.128452	-0.407491	1.284770
C125	C	0.811009	-1.202028	0.555575
C126	C	0.823480	-1.180217	0.625719
C127	C	0.776824	-1.234828	0.668968
H128	H	0.764179	-1.180628	0.543446
H129	H	0.817742	-1.275278	0.549467
H130	H	0.816741	-1.106983	0.631823
H131	H	0.870301	-1.201620	0.637870
H132	H	0.783557	-1.308078	0.662860
H133	H	0.729997	-1.213423	0.656832
H134	H	0.785283	-1.220044	0.716566
C135	C	0.256547	-0.751061	0.483314
C136	C	0.302822	-0.815238	0.524505
C137	C	0.264474	-0.882948	0.567946
H138	H	0.226703	-0.711024	0.512892
H139	H	0.228996	-0.793512	0.455257
H140	H	0.330361	-0.772792	0.552559
H141	H	0.332667	-0.855298	0.494946
H142	H	0.236922	-0.925399	0.539889
H143	H	0.234631	-0.842902	0.597519
H144	H	0.295865	-0.926506	0.595894
H145	H	0.931225	-0.690196	1.108535
C146	C	0.924707	-0.699578	0.965074
C147	C	0.883433	-0.758702	1.011325
C148	C	0.839888	-0.821094	0.972952
H149	H	0.895185	-0.655929	0.935222
H150	H	0.952692	-0.745462	0.937529
H151	H	0.855450	-0.712823	1.038858
H152	H	0.912936	-0.802370	1.041178
H153	H	0.867873	-0.866977	0.945407
H154	H	0.810371	-0.777437	0.943102
H155	H	0.811883	-0.861223	1.004328
H156	H	0.400005	-0.740911	0.476820
C157	C	0.897945	-0.738161	0.633666
C158	C	0.939409	-0.805554	0.593116
C159	C	0.896054	-0.867901	0.554497
H160	H	0.869862	-0.778452	0.664859
H161	H	0.868498	-0.694441	0.603769
H162	H	0.968844	-0.849268	0.623010
H163	H	0.967491	-0.765291	0.561910
H164	H	0.866607	-0.824181	0.524600
H165	H	0.867973	-0.908185	0.585695
H166	H	0.924181	-0.913627	0.526974
H167	H	0.598039	-0.690786	0.444634
H168	H	0.731170	-0.699099	0.449959
H169	H	0.406502	-0.487401	0.314044
C170	C	0.264018	-0.459403	0.296123
C171	C	0.313426	-0.401176	0.258766
C172	C	0.278660	-0.328896	0.212412
H173	H	0.236607	-0.495861	0.264250
H174	H	0.234338	-0.413394	0.321898
H175	H	0.343094	-0.447178	0.232992
H176	H	0.340840	-0.364696	0.290620
H177	H	0.248979	-0.282887	0.238187
H178	H	0.251249	-0.365363	0.180544
H179	H	0.312177	-0.289374	0.187064
