data_functionalizedCrystal
_audit_creation_method	'MofGen! by Chris Wilmer'
_symmetry_space_group_name_H-M	'P1'
_symmetry_Int_Tables_number	1
_symmetry_cell_setting	triclinic
loop_
_symmetry_equiv_pos_as_xyz
  x,y,z
_cell_length_a	13.033808
_cell_length_b	13.032868
_cell_length_c	13.033109
_cell_angle_alpha	74.858449
_cell_angle_beta	89.075520
_cell_angle_gamma	76.630192
loop_
_atom_site_label
_atom_site_type_symbol
_atom_site_fract_x
_atom_site_fract_y
_atom_site_fract_z
Zn1	Zn	1.617282	0.263553	-0.419200
Zn2	Zn	2.117282	0.763553	0.080800
Zn3	Zn	1.577753	0.424390	-0.269880
Zn4	Zn	2.077753	0.924390	0.230120
Zn5	Zn	1.422832	0.269364	-0.269870
Zn6	Zn	1.922832	0.769364	0.230130
Zn7	Zn	1.422767	0.469440	-0.469946
Zn8	Zn	1.922767	0.969440	0.030054
O9	O	1.510158	0.356687	-0.357224
O10	O	2.010158	0.856687	0.142776
O11	O	1.758279	0.263603	-0.378159
O12	O	2.258279	0.763603	0.121841
O13	O	1.540686	0.387404	-0.123655
O14	O	2.040686	0.887404	0.376345
O15	O	1.465196	0.117550	-0.268437
O16	O	1.965196	0.617550	0.231563
O17	O	1.729236	0.381770	-0.268454
O18	O	2.229236	0.881770	0.231546
O19	O	1.608058	0.113281	-0.378149
O20	O	2.108058	0.613281	0.121851
O21	O	1.426866	0.273507	-0.123648
O22	O	1.926866	0.773507	0.376352
O23	O	1.276583	0.317190	-0.317644
O24	O	1.776583	0.817190	0.182356
O25	O	1.465087	0.458550	-0.609437
O26	O	1.965087	0.958550	-0.109437
O27	O	1.276536	0.464185	-0.464638
O28	O	1.776536	0.964185	0.035362
O29	O	1.607996	0.307286	-0.572154
O30	O	2.107996	0.807286	-0.072154
O31	O	1.540623	0.581410	-0.317661
O32	O	2.040623	1.081410	0.182339
O33	O	1.426756	0.614507	-0.464648
O34	O	1.926756	1.114507	0.035352
C35	C	1.238641	0.396207	-0.396647
C36	C	1.738641	0.896207	0.103353
C37	C	1.122485	0.413143	-0.413541
C38	C	1.622485	0.913143	0.086459
C39	C	0.950663	0.365372	-0.365889
C40	C	1.450663	0.865372	0.134111
C41	C	1.070717	0.347868	-0.348425
C42	C	1.570717	0.847868	0.151575
C43	C	1.479424	0.637121	-0.396681
C44	C	1.979424	1.137121	0.103319
C45	C	1.466375	0.757082	-0.413582
C46	C	1.966375	1.257082	0.086418
C47	C	1.516958	0.794150	-0.348429
C48	C	2.016958	1.294150	0.151571
C49	C	1.503473	0.918136	-0.365896
C50	C	2.003473	1.418136	0.134104
C51	C	1.782736	0.317013	-0.317647
C52	C	2.282736	0.817013	0.182353
C53	C	1.898892	0.300107	-0.300782
C54	C	2.398892	0.800107	0.199218
C55	C	1.541008	1.075160	-0.317625
C56	C	2.041008	1.575160	0.182375
C57	C	1.554063	0.955200	-0.300734
C58	C	2.054063	1.455200	0.199266
C59	C	1.540943	0.387295	-0.629770
C60	C	2.040943	0.887295	-0.129770
C61	C	1.554062	0.400339	-0.745913
C62	C	2.054062	0.900339	-0.245913
C63	C	1.503595	0.349800	-0.797690
C64	C	2.003595	0.849800	-0.297690
C65	C	1.517153	0.363280	-0.917730
C66	C	2.017153	0.863280	-0.417730
C67	C	1.479562	0.326111	-0.085718
C68	C	1.979562	0.826111	0.414282
C69	C	1.466679	0.312734	0.030497
C70	C	1.966679	0.812734	0.530497
H71	H	1.077934	0.481984	-0.482215
H72	H	1.577934	0.981984	0.017785
C73	C	1.431543	0.819273	-0.602771
C74	C	1.931543	1.319273	-0.102771
C75	C	1.394437	0.838143	-0.506344
C76	C	1.894437	1.338143	-0.006344
H77	H	1.387133	0.869321	-0.660039
H78	H	1.887133	1.369321	-0.160039
H79	H	1.431159	0.746596	-0.603197
H80	H	1.931159	1.246596	-0.103197
H81	H	1.501500	0.829122	-0.610479
H82	H	2.001500	1.329122	-0.110479
H83	H	1.324482	0.828286	-0.498631
H84	H	1.824482	1.328286	0.001369
H85	H	1.394810	0.910838	-0.505917
H86	H	1.894810	1.410838	-0.005917
H87	H	1.607305	0.453588	-0.790455
H88	H	2.107305	0.953588	-0.290455
H89	H	1.115267	0.279033	-0.279747
H90	H	1.615267	0.779033	0.220253
H91	H	0.943447	0.231276	-0.232109
H92	H	1.443447	0.731276	0.267891
H93	H	1.450185	0.978187	-0.434614
H94	H	1.950185	1.478187	0.065386
C95	C	1.529411	0.649405	-0.188018
C96	C	2.029411	1.149405	0.311982
C97	C	1.588898	0.713089	-0.255667
C98	C	2.088898	1.213089	0.244333
H99	H	1.573825	0.599368	-0.130747
H100	H	2.073825	1.099368	0.369253
H101	H	1.499434	0.610088	-0.226633
H102	H	1.999434	1.110088	0.273367
H103	H	1.474640	0.695571	-0.160782
H104	H	1.974640	1.195571	0.339218
H105	H	1.643664	0.666923	-0.282910
H106	H	2.143664	1.166923	0.217090
H107	H	1.618891	0.752409	-0.217047
H108	H	2.118891	1.252409	0.282953
C109	C	1.468938	0.170674	-0.745575
C110	C	1.968938	0.670674	-0.245575
C111	C	1.431709	0.277918	-0.737579
C112	C	1.931709	0.777918	-0.237579
H113	H	1.424551	0.126300	-0.708473
H114	H	1.924551	0.626300	-0.208473
H115	H	1.538873	0.142674	-0.715316
H116	H	2.038873	0.642674	-0.215316
H117	H	1.468620	0.170316	-0.818362
H118	H	1.968620	0.670316	-0.318362
H119	H	1.432035	0.278276	-0.664792
H120	H	1.932035	0.778276	-0.164792
H121	H	1.361755	0.305924	-0.767834
H122	H	1.861755	0.805924	-0.267834
C123	C	1.566524	0.810463	-0.140311
C124	C	2.066524	1.310463	0.359689
C125	C	1.626008	0.874148	-0.207965
C126	C	2.126008	1.374148	0.292035
H127	H	1.610939	0.760431	-0.083038
H128	H	2.110939	1.260431	0.416962
H129	H	1.536551	0.771140	-0.178922
H130	H	2.036551	1.271140	0.321078
H131	H	1.511750	0.856630	-0.113079
H132	H	2.011750	1.356630	0.386921
H133	H	1.680777	0.827981	-0.235204
H134	H	2.180777	1.327981	0.264796
H135	H	1.655998	0.913474	-0.169349
H136	H	2.155998	1.413474	0.330651
C137	C	1.669868	0.371508	-1.022279
C138	C	2.169868	0.871508	-0.522279
C139	C	1.589044	0.435164	-0.977837
C140	C	2.089044	0.935164	-0.477837
H141	H	1.714253	0.415885	-1.059380
H142	H	2.214253	0.915885	-0.559380
H143	H	1.639959	0.341563	-1.070318
H144	H	2.139959	0.841563	-0.570318
H145	H	1.710216	0.313915	-0.967274
H146	H	2.210216	0.813915	-0.467274
H147	H	1.548691	0.492752	-1.032844
H148	H	2.048691	0.992752	-0.532844
H149	H	1.618955	0.465127	-0.929795
H150	H	2.118955	0.965127	-0.429795
C151	C	1.291694	0.282142	-0.954000
C152	C	1.791694	0.782142	-0.454000
C153	C	1.394793	0.240846	-0.909392
C154	C	1.894793	0.740846	-0.409392
H155	H	1.247316	0.237764	-0.916884
H156	H	1.747316	0.737764	-0.416884
H157	H	1.291385	0.281764	-1.026771
H158	H	1.791385	0.781764	-0.526771
H159	H	1.266455	0.354901	-0.948578
H160	H	1.766455	0.854901	-0.448578
H161	H	1.420035	0.168089	-0.914822
H162	H	1.920035	0.668089	-0.414822
H163	H	1.395106	0.241212	-0.836602
H164	H	1.895106	0.741212	-0.336602
H165	H	0.906107	0.434210	-0.434556
H166	H	1.406107	0.934210	0.065444
