data_functionalizedCrystal
_audit_creation_method	'MofGen! by Chris Wilmer'
_symmetry_space_group_name_H-M	'P1'
_symmetry_Int_Tables_number	1
_symmetry_cell_setting	triclinic
loop_
_symmetry_equiv_pos_as_xyz
  x,y,z
_cell_length_a	10.723023
_cell_length_b	15.944493
_cell_length_c	9.198806
_cell_angle_alpha	90.002690
_cell_angle_beta	89.996513
_cell_angle_gamma	83.971296
loop_
_atom_site_label
_atom_site_type_symbol
_atom_site_fract_x
_atom_site_fract_y
_atom_site_fract_z
O1	O	1.655664	0.117808	-0.120857
O2	O	1.292365	0.129086	-0.120861
O3	O	1.483973	0.001226	-0.120871
O4	O	1.464056	0.245668	-0.120847
O5	O	1.483958	0.001225	0.120914
O6	O	1.292350	0.129085	0.120924
O7	O	1.655648	0.117808	0.120928
Cu8	Cu	1.473998	0.123446	0.143003
Cu9	Cu	1.474016	0.123447	-0.142936
O10	O	1.464041	0.245668	0.120938
C11	C	1.245869	0.128265	0.000031
C12	C	1.107346	0.125810	0.000028
C13	C	1.045580	0.124715	0.125279
C14	C	0.902410	0.122178	0.125279
C15	C	1.483151	-0.030074	0.000016
C16	C	1.480711	-0.123337	-0.000003
C17	C	1.593495	-0.358451	0.000026
C18	C	1.532682	-0.409367	-0.119187
C19	C	1.476189	-0.294084	0.000015
C20	C	1.532640	-0.409344	0.119194
C21	C	1.471829	-0.459018	0.000038
C22	C	1.415407	-0.343771	-0.119296
C23	C	1.415382	-0.343744	0.119192
C24	C	1.354483	-0.394628	-0.000050
C25	C	1.478703	-0.199069	-0.000000
C26	C	1.469305	-0.554030	0.000043
C27	C	1.702145	0.118628	0.000033
C28	C	1.840668	0.121083	0.000026
C29	C	1.464862	0.276967	0.000049
C30	C	1.467303	0.370230	0.000058
N31	N	1.473994	0.123446	0.344117
N32	N	1.474029	0.123441	-0.344050
C33	C	1.554448	0.069524	0.416310
C34	C	1.554467	0.069521	0.583722
H35	H	0.849292	0.121241	0.232511
H36	H	1.623310	0.023358	0.354180
O37	O	1.714015	-0.339067	0.000149
C38	C	1.735510	-0.292168	0.125964
H39	H	1.664948	-0.305399	0.213548
H40	H	1.834662	-0.311151	0.167374
H41	H	1.724301	-0.222030	0.098710
H42	H	1.253359	-0.410672	-0.000116
H43	H	1.623352	0.023360	0.645805
H44	H	1.582199	-0.437991	0.219973
O45	O	1.108747	0.125795	0.253343
C46	C	1.023515	0.124306	0.369801
H47	H	0.935866	0.096117	0.331298
H48	H	1.069146	0.084262	0.461920
H49	H	0.996615	0.191332	0.410358
O50	O	1.392020	0.178557	0.581748
C51	C	1.459129	0.230617	0.493726
H52	H	1.556684	0.197576	0.471047
H53	H	1.407160	0.243625	0.386645
H54	H	1.467807	0.292747	0.552305
H55	H	1.582229	-0.438029	-0.219972
H56	H	1.405124	0.169605	0.406249
O57	O	0.904132	0.122322	-0.127820
C58	C	0.965252	0.196289	-0.135603
H59	H	0.979900	0.220844	-0.021137
H60	H	1.060023	0.181581	-0.191249
H61	H	0.905258	0.246253	-0.200716
H62	H	1.365901	-0.315234	-0.220189
H63	H	1.054233	0.124866	-0.107203
H64	H	1.365878	-0.315067	0.219981
