data_functionalizedCrystal
_audit_creation_method	'MofGen! by Chris Wilmer'
_symmetry_space_group_name_H-M	'P1'
_symmetry_Int_Tables_number	1
_symmetry_cell_setting	triclinic
loop_
_symmetry_equiv_pos_as_xyz
  x,y,z
_cell_length_a	19.288864
_cell_length_b	13.339070
_cell_length_c	17.766277
_cell_angle_alpha	89.997794
_cell_angle_beta	89.976791
_cell_angle_gamma	99.382770
loop_
_atom_site_label
_atom_site_type_symbol
_atom_site_fract_x
_atom_site_fract_y
_atom_site_fract_z
O1	O	0.945924	0.126087	-0.062840
O2	O	1.445924	0.626087	0.437160
O3	O	0.746977	0.143096	-0.062789
O4	O	1.246977	0.643096	0.437211
O5	O	0.823618	-0.012568	-0.062806
O6	O	1.323618	0.487432	0.437194
O7	O	0.869283	0.281751	-0.062822
O8	O	1.369283	0.781751	0.437178
O9	O	0.823598	-0.012576	0.062383
O10	O	1.323598	0.487424	0.562383
O11	O	0.746957	0.143088	0.062400
O12	O	1.246957	0.643088	0.562400
O13	O	0.945903	0.126079	0.062349
O14	O	1.445903	0.626079	0.562349
Cu15	Cu	0.846428	0.134583	0.073805
Cu16	Cu	1.346428	0.634583	0.573805
Cu17	Cu	0.846452	0.134592	-0.074245
Cu18	Cu	1.346452	0.634592	0.425755
O19	O	0.869263	0.281743	0.062366
O20	O	1.369263	0.781743	0.562366
C21	C	0.720984	0.142544	-0.000188
C22	C	1.220984	0.642544	0.499812
C23	C	0.643560	0.140901	-0.000168
C24	C	1.143560	0.640901	0.499832
C25	C	0.616663	0.232238	-0.000185
C26	C	1.116663	0.732238	0.499815
C27	C	0.543915	0.230694	-0.000193
C28	C	1.043915	0.730694	0.499807
C29	C	0.498067	0.137809	-0.000200
C30	C	0.998067	0.637809	0.499800
C31	C	0.524972	0.046461	-0.000178
C32	C	1.024972	0.546461	0.499822
C33	C	0.597719	0.048007	-0.000163
C34	C	1.097719	0.548007	0.499837
C35	C	0.375583	0.064794	-0.044080
C36	C	0.875583	0.564794	0.455920
C37	C	0.302838	0.063252	-0.044100
C38	C	0.802838	0.563252	0.455900
C39	C	0.273691	0.133037	-0.000245
C40	C	0.773691	0.633037	0.499755
C41	C	0.317301	0.204382	0.043621
C42	C	0.817301	0.704382	0.543621
C43	C	0.390047	0.205928	0.043637
C44	C	0.890047	0.705928	0.543637
C45	C	0.419184	0.136123	-0.000216
C46	C	0.919184	0.636123	0.499784
C47	C	0.167913	0.222706	-0.000270
C48	C	0.667913	0.722706	0.499730
C49	C	0.095163	0.221159	-0.000273
C50	C	0.595163	0.721159	0.499727
C51	C	0.076222	0.036923	-0.000266
C52	C	0.576222	0.536923	0.499734
C53	C	0.148970	0.038473	-0.000255
C54	C	0.648970	0.538473	0.499745
C55	C	0.194812	0.131367	-0.000260
C56	C	0.694812	0.631367	0.499740
C57	C	0.815894	-0.050226	-0.000211
C58	C	1.315894	0.449774	0.499789
C59	C	0.792901	-0.162423	-0.000208
C60	C	1.292901	0.337577	0.499792
C61	C	0.971681	-0.528031	-0.000253
C62	C	1.471681	-0.028031	0.499747
C63	C	0.993286	-0.422617	-0.000252
C64	C	1.493286	0.077383	0.499748
C65	C	0.943192	-0.357563	-0.000241
C66	C	1.443192	0.142437	0.499759
C67	C	0.871489	-0.397934	-0.000231
C68	C	1.371489	0.102066	0.499769
C69	C	0.849881	-0.503359	-0.000227
C70	C	1.349881	-0.003359	0.499773
C71	C	0.821392	-0.332891	-0.000215
C72	C	1.321392	0.167109	0.499785
C73	C	0.749689	-0.373262	-0.000205
C74	C	1.249689	0.126738	0.499795
C75	C	0.728085	-0.478677	-0.000201
C76	C	1.228085	0.021323	0.499799
C77	C	0.778180	-0.543730	-0.000212
C78	C	1.278180	-0.043730	0.499788
C79	C	0.842999	-0.227467	-0.000219
C80	C	1.342999	0.272533	0.499781
C81	C	0.721199	-0.202795	-0.000193
C82	C	1.221199	0.297205	0.499807
C83	C	0.699594	-0.308209	-0.000195
C84	C	1.199594	0.191791	0.499805
C85	C	0.971897	0.126630	-0.000254
C86	C	1.471897	0.626630	0.499746
C87	C	1.049320	0.128273	-0.000278
C88	C	1.549320	0.628273	0.499722
C89	C	0.876987	0.319401	-0.000231
C90	C	1.376987	0.819401	0.499769
C91	C	0.899980	0.431598	-0.000238
C92	C	1.399980	0.931598	0.499762
N93	N	0.846416	0.134575	0.177935
N94	N	1.346416	0.634575	0.677935
N95	N	0.846468	0.134591	-0.178375
N96	N	1.346468	0.634591	0.321625
C97	C	0.880375	0.065681	0.217315
C98	C	1.380375	0.565681	0.717315
C99	C	0.880378	0.065676	0.296116
C100	C	1.380378	0.565676	0.796116
C101	C	0.846433	0.134583	0.335536
C102	C	1.346433	0.634583	0.835536
C103	C	0.812467	0.203483	0.296147
C104	C	1.312467	0.703483	0.796147
C105	C	0.812459	0.203479	0.217347
C106	C	1.312459	0.703479	0.717347
C107	C	0.855080	0.226676	0.460370
C108	C	1.355080	0.726676	0.960370
C109	C	0.855093	0.226682	0.539169
C110	C	1.355093	0.726682	1.039169
C111	C	0.846454	0.134595	0.578582
C112	C	1.346454	0.634595	1.078582
C113	C	0.837815	0.042500	0.539187
C114	C	1.337815	0.542500	1.039187
C115	C	0.837807	0.042496	0.460387
C116	C	1.337807	0.542496	0.960387
C117	C	0.846437	0.134595	0.420982
C118	C	1.346437	0.634595	0.920982
C119	C	0.880417	0.065690	0.703408
C120	C	1.380417	0.565690	1.203408
C121	C	0.880415	0.065684	0.782211
C122	C	1.380415	0.565684	1.282211
C123	C	0.812509	0.203500	0.782240
C124	C	1.312509	0.703500	1.282240
C125	C	0.812506	0.203497	0.703438
C126	C	1.312506	0.703497	1.203438
C127	C	0.846463	0.134593	0.664027
C128	C	1.346463	0.634593	1.164027
H129	H	0.522011	0.305074	-0.000205
H130	H	1.022011	0.805074	0.499795
H131	H	0.784827	0.259587	0.328247
H132	H	1.284827	0.759587	0.828247
H133	H	0.862132	0.301671	0.571239
H134	H	1.362132	0.801671	1.071239
N135	N	0.917026	-0.008626	0.660879
N136	N	1.417026	0.491374	1.160879
H137	H	0.968530	0.002820	0.674559
H138	H	1.468530	0.502820	1.174559
H139	H	0.895153	-0.080301	0.674617
H140	H	1.395153	0.419699	1.174617
H141	H	0.267337	0.005163	-0.079822
H142	H	0.767337	0.505163	0.420178
N143	N	0.666097	0.332435	-0.000180
N144	N	1.166097	0.832435	0.499820
H145	H	0.696675	0.337185	0.046234
H146	H	1.196675	0.837185	0.546234
H147	H	0.696683	0.337132	-0.046611
H148	H	1.196683	0.837132	0.453389
N149	N	0.407013	-0.010484	-0.091383
N150	N	0.907013	0.489516	0.408617
H151	H	0.395353	-0.001332	-0.146114
H152	H	0.895353	0.498668	0.353886
H153	H	0.459705	0.001358	-0.084654
H154	H	0.959705	0.501358	0.415346
H155	H	0.862104	0.301669	0.428287
H156	H	1.362104	0.801669	0.928287
N157	N	0.966491	-0.243866	-0.000244
N158	N	1.466491	0.256134	0.499756
H159	H	1.019515	-0.228162	-0.000255
H160	H	1.519515	0.271838	0.499745
H161	H	0.947748	-0.213705	-0.046653
H162	H	1.447748	0.286295	0.453347
H163	H	0.901380	-0.194607	-0.000227
H164	H	1.401380	0.305393	0.499773
H165	H	0.669700	-0.511543	-0.000188
H166	H	1.169700	-0.011543	0.499812
N167	N	1.025709	-0.598185	-0.000267
N168	N	1.525709	-0.098185	0.499733
H169	H	1.056083	-0.585237	0.046135
H170	H	1.556083	-0.085237	0.546135
H171	H	1.001092	-0.671064	-0.000289
H172	H	1.501092	-0.171064	0.499711
H173	H	0.784857	0.259601	0.671374
H174	H	1.284857	0.759601	1.171374
N175	N	0.475527	-0.053724	-0.000177
N176	N	0.975527	0.446276	0.499823
H177	H	0.425360	-0.040845	-0.000190
H178	H	0.925360	0.459155	0.499810
H179	H	0.484132	-0.093682	-0.046578
H180	H	0.984132	0.406318	0.453422
N181	N	0.622258	-0.351750	-0.000179
N182	N	1.122258	0.148250	0.499821
H183	H	0.610590	-0.394934	-0.046584
H184	H	1.110590	0.105066	0.453416
H185	H	0.610623	-0.394893	0.046262
H186	H	1.110623	0.105107	0.546262
N187	N	0.754873	-0.657430	-0.000212
N188	N	1.254873	-0.157430	0.499788
H189	H	0.773587	-0.687658	-0.046625
H190	H	1.273587	-0.187658	0.453375
H191	H	0.773574	-0.687590	0.046220
H192	H	1.273574	-0.187590	0.546220
H193	H	0.784805	0.259582	0.185284
H194	H	1.284805	0.759582	0.685284
H195	H	0.425551	0.264016	0.079357
H196	H	0.925551	0.764016	0.579357
H197	H	0.680408	-0.149828	-0.000180
H198	H	1.180408	0.350172	0.499820
N199	N	0.916994	-0.008638	0.174806
N200	N	1.416994	0.491362	0.674806
H201	H	0.968497	0.002824	0.188492
H202	H	1.468497	0.502824	0.688492
H203	H	0.895127	-0.080311	0.188554
H204	H	1.395127	0.419689	0.688554
N205	N	0.285877	0.279663	0.090923
N206	N	0.785877	0.779663	0.590923
H207	H	0.233176	0.267858	0.084261
H208	H	0.733176	0.767858	0.584261
H209	H	0.297594	0.270482	0.145632
H210	H	0.797594	0.770482	0.645632
H211	H	0.908031	0.009572	0.328185
H212	H	1.408031	0.509572	0.828185
N213	N	0.066149	0.319677	-0.000231
N214	N	0.566149	0.819677	0.499769
H215	H	0.106231	0.378755	-0.000216
H216	H	0.606231	0.878755	0.499784
H217	H	0.036386	0.323096	-0.046627
H218	H	0.536386	0.823096	0.453373
H219	H	0.205239	0.298346	-0.000263
H220	H	0.705239	0.798346	0.499737
H221	H	0.830771	-0.032491	0.428314
H222	H	1.330771	0.467509	0.928314
N223	N	0.917053	-0.008621	0.824682
N224	N	1.417053	0.491379	1.324682
H225	H	0.881920	-0.053290	0.857396
H226	H	1.381920	0.446710	1.357396
H227	H	0.938564	-0.052189	0.787700
H228	H	1.438564	0.447811	1.287700
H229	H	0.830779	-0.032485	0.571275
H230	H	1.330779	0.467515	1.071275
H231	H	0.038893	-0.038706	-0.000318
H232	H	0.538893	0.461294	0.499682
N233	N	0.775888	0.277815	0.824745
N234	N	1.275888	0.777815	1.324745
H235	H	0.781044	0.267363	0.880641
H236	H	1.281044	0.767363	1.380641
H237	H	0.797719	0.349490	0.810958
H238	H	1.297719	0.849490	1.310958
N239	N	0.626735	-0.050510	-0.000141
N240	N	1.126735	0.449490	0.499859
H241	H	0.586654	-0.109589	-0.000143
H242	H	1.086654	0.390411	0.499857
H243	H	0.656530	-0.053881	-0.046544
H244	H	1.156530	0.446119	0.453456
N245	N	1.070617	-0.379074	-0.000258
N246	N	1.570617	0.120926	0.499742
H247	H	1.099073	-0.436278	-0.000266
H248	H	1.599073	0.063722	0.499734
H249	H	1.082246	-0.335865	-0.046668
H250	H	1.582246	0.164135	0.453332
H251	H	0.170869	-0.035904	-0.000245
H252	H	0.670869	0.464096	0.499755
