data_functionalizedCrystal
_audit_creation_method	'MofGen! by Chris Wilmer'
_symmetry_space_group_name_H-M	'P1'
_symmetry_Int_Tables_number	1
_symmetry_cell_setting	triclinic
loop_
_symmetry_equiv_pos_as_xyz
  x,y,z
_cell_length_a	16.959454
_cell_length_b	19.805407
_cell_length_c	19.805399
_cell_angle_alpha	89.983114
_cell_angle_beta	89.976206
_cell_angle_gamma	90.020075
loop_
_atom_site_label
_atom_site_type_symbol
_atom_site_fract_x
_atom_site_fract_y
_atom_site_fract_z
Zn1	Zn	-0.314689	1.034748	-0.382744
Zn2	Zn	0.185311	1.534748	0.117256
Zn3	Zn	-0.446875	1.034680	-0.269566
Zn4	Zn	0.053125	1.534680	0.230434
Zn5	Zn	-0.314714	0.921567	-0.269569
Zn6	Zn	0.185286	1.421567	0.230431
Zn7	Zn	-0.446829	0.921538	-0.382713
Zn8	Zn	0.053171	1.421538	0.117287
O9	O	-0.380777	0.978133	-0.326148
O10	O	0.119223	1.478133	0.173852
O11	O	-0.332232	1.129455	-0.367743
O12	O	0.167768	1.629455	0.132257
O13	O	-0.429373	1.019660	-0.174850
O14	O	0.070627	1.519660	0.325150
O15	O	-0.204100	0.936621	-0.284596
O16	O	0.295900	1.436621	0.215404
O17	O	-0.429348	1.129406	-0.284591
O18	O	0.070652	1.629406	0.215409
O19	O	-0.204081	1.019774	-0.367745
O20	O	0.295919	1.519774	0.132255
O21	O	-0.332275	0.936556	-0.174852
O22	O	0.167725	1.436556	0.325148
O23	O	-0.332231	0.826847	-0.284565
O24	O	0.167769	1.326847	0.215435
O25	O	-0.429271	0.936572	-0.477434
O26	O	0.070729	1.436572	0.022566
O27	O	-0.429295	0.826826	-0.367692
O28	O	0.070705	1.326826	0.132308
O29	O	-0.332188	1.019746	-0.477457
O30	O	0.167812	1.519746	0.022543
O31	O	-0.557479	1.019631	-0.284561
O32	O	-0.057479	1.519631	0.215439
O33	O	-0.557446	0.936506	-0.367690
O34	O	-0.057446	1.436506	0.132310
C35	C	-0.380762	0.802277	-0.326126
C36	C	0.119238	1.302277	0.173874
C37	C	-0.380774	0.727045	-0.326133
C38	C	0.119226	1.227045	0.173867
C39	C	-0.431392	0.691708	-0.369347
C40	C	0.068608	1.191708	0.130653
C41	C	-0.431393	0.621019	-0.369356
C42	C	0.068607	1.121019	0.130644
C43	C	-0.380780	0.585670	-0.326148
C44	C	0.119220	1.085670	0.173852
C45	C	-0.330157	0.621012	-0.282932
C46	C	0.169843	1.121012	0.217068
C47	C	-0.330152	0.691700	-0.282926
C48	C	0.169848	1.191700	0.217074
C49	C	-0.330175	0.335939	-0.282954
C50	C	0.169825	0.835939	0.217046
C51	C	-0.330185	0.265247	-0.282962
C52	C	0.169815	0.765247	0.217038
C53	C	-0.431415	0.265259	-0.369384
C54	C	0.068585	0.765259	0.130616
C55	C	-0.431411	0.335946	-0.369379
C56	C	0.068589	0.835946	0.130621
C57	C	-0.380785	0.371282	-0.326166
C58	C	0.119215	0.871282	0.173834
C59	C	-0.380783	0.447931	-0.326157
C60	C	0.119217	0.947931	0.173843
C61	C	-0.380786	0.509023	-0.326153
C62	C	0.119214	1.009023	0.173847
C63	C	-0.586143	0.978077	-0.326136
C64	C	-0.086143	1.478077	0.173864
C65	C	-0.674000	0.978114	-0.326154
C66	C	-0.174000	1.478114	0.173846
C67	C	-1.045488	0.934913	-0.369428
C68	C	-0.545488	1.434913	0.130572
C69	C	-1.045462	1.021542	-0.282937
C70	C	-0.545462	1.521542	0.217063
C71	C	-0.962917	1.021519	-0.282930
C72	C	-0.462917	1.521519	0.217070
C73	C	-0.921652	0.978191	-0.326173
C74	C	-0.421652	1.478191	0.173827
C75	C	-0.962934	0.934887	-0.369422
C76	C	-0.462934	1.434887	0.130578
C77	C	-0.921629	1.064817	-0.239677
C78	C	-0.421629	1.564817	0.260323
C79	C	-0.839078	1.064795	-0.239669
C80	C	-0.339078	1.564795	0.260331
C81	C	-0.797812	1.021470	-0.282915
C82	C	-0.297812	1.521470	0.217085
C83	C	-0.839099	0.978164	-0.326167
C84	C	-0.339099	1.478164	0.173833
C85	C	-0.797835	0.934837	-0.369409
C86	C	-0.297835	1.434837	0.130591
C87	C	-0.839120	0.891534	-0.412665
C88	C	-0.339120	1.391534	0.087335
C89	C	-0.921669	0.891562	-0.412669
C90	C	-0.421669	1.391562	0.087331
C91	C	-0.715264	1.021442	-0.282911
C92	C	-0.215264	1.521442	0.217089
C93	C	-0.715281	0.934810	-0.369403
C94	C	-0.215281	1.434810	0.130597
C95	C	-0.174608	0.978209	-0.326174
C96	C	0.325392	1.478209	0.173826
C97	C	-0.086752	0.978241	-0.326186
C98	C	0.413248	1.478241	0.173814
C99	C	-0.380722	0.978163	-0.502691
C100	C	0.119278	1.478163	-0.002691
C101	C	-0.380698	0.978176	-0.577923
C102	C	0.119302	1.478176	-0.077923
C103	C	-0.380792	1.154676	-0.326170
C104	C	0.119208	1.654676	0.173830
C105	C	-0.380799	1.229908	-0.326180
C106	C	0.119201	1.729908	0.173820
C107	C	-0.330135	0.934916	-0.613267
C108	C	0.169865	1.434916	-0.113267
C109	C	-0.330119	0.934925	-0.683956
C110	C	0.169881	1.434925	-0.183956
C111	C	-0.380664	0.978198	-0.719298
C112	C	0.119336	1.478198	-0.219298
C113	C	-0.431233	1.021460	-0.683949
C114	C	0.068767	1.521460	-0.183949
C115	C	-0.431252	1.021447	-0.613262
C116	C	0.068748	1.521447	-0.113262
C117	C	-0.431160	1.021513	-0.969022
C118	C	0.068840	1.521513	-0.469022
C119	C	-0.431135	1.021525	-1.039714
C120	C	0.068865	1.521525	-0.539714
C121	C	-0.330027	0.934992	-1.039716
C122	C	0.169973	1.434992	-0.539716
C123	C	-0.330046	0.934979	-0.969029
C124	C	0.169954	1.434979	-0.469029
C125	C	-0.380617	0.978238	-0.933686
C126	C	0.119383	1.478238	-0.433686
C127	C	-0.380634	0.978226	-0.857037
C128	C	0.119366	1.478226	-0.357037
C129	C	-0.380644	0.978214	-0.795946
C130	C	0.119356	1.478214	-0.295946
C131	C	-0.380774	0.978143	-0.150292
C132	C	0.119226	1.478143	0.349708
C133	C	-0.380575	0.978261	-0.075060
C134	C	0.119425	1.478261	0.424940
H135	H	-0.288930	0.720471	-0.247741
H136	H	0.211070	1.220471	0.252259
H137	H	-0.472392	1.056690	-0.712730
H138	H	0.027608	1.556690	-0.212730
H139	H	-0.288944	0.592225	-0.247754
H140	H	0.211056	1.092225	0.252246
H141	H	-0.472634	0.236479	-0.404573
H142	H	0.027366	0.736479	0.095427
Br143	Br	-0.977632	1.123619	-0.180998
Br144	Br	-0.477632	1.623619	0.319002
Br145	Br	-0.261393	0.876282	-1.087686
Br146	Br	0.238607	1.376282	-0.587686
H147	H	-0.681689	0.899530	-0.404619
H148	H	-0.181689	1.399530	0.095381
Br149	Br	-0.783109	0.832729	-0.471344
Br150	Br	-0.283109	1.332729	0.028656
H151	H	-0.955290	0.856306	-0.447884
H152	H	-0.455290	1.356306	0.052116
Br153	Br	-0.499788	1.080226	-0.921065
Br154	Br	0.000212	1.580226	-0.421065
Br155	Br	-1.101514	0.876153	-0.428134
Br156	Br	-0.601514	1.376153	0.071866
H157	H	-0.472420	1.056678	-0.584485
H158	H	0.027580	1.556678	-0.084485
H159	H	-0.472627	0.364724	-0.404561
H160	H	0.027373	0.864724	0.095439
Br161	Br	-1.101464	1.080340	-0.224252
Br162	Br	-0.601464	1.580340	0.275748
Br163	Br	-0.261528	0.876190	-0.565309
Br164	Br	0.238472	1.376190	-0.065309
H165	H	-0.472609	0.720484	-0.404530
H166	H	0.027391	1.220484	0.095470
H167	H	-0.805468	1.100054	-0.204449
H168	H	-0.305468	1.600054	0.295551
Br169	Br	-0.261442	0.876254	-0.921068
Br170	Br	0.238558	1.376254	-0.421068
H171	H	-0.288948	0.899696	-0.712730
H172	H	0.211052	1.399696	-0.212730
H173	H	-0.681653	1.056695	-0.247691
H174	H	-0.181653	1.556695	0.252309
H175	H	-0.472298	1.056764	-1.068488
H176	H	0.027702	1.556764	-0.568488
H177	H	-0.288965	0.236467	-0.247776
H178	H	0.211035	0.736467	0.252224
H179	H	-0.288958	0.364701	-0.247763
H180	H	0.211042	0.864701	0.252237
Br181	Br	-0.500090	0.573063	-0.428008
Br182	Br	-0.000090	1.073063	0.071992
