data_functionalizedCrystal
_audit_creation_method	'MofGen! by Chris Wilmer'
_symmetry_space_group_name_H-M	'P1'
_symmetry_Int_Tables_number	1
_symmetry_cell_setting	triclinic
loop_
_symmetry_equiv_pos_as_xyz
  x,y,z
_cell_length_a	13.185408
_cell_length_b	13.339070
_cell_length_c	14.048226
_cell_angle_alpha	89.996915
_cell_angle_beta	89.995408
_cell_angle_gamma	83.801397
loop_
_atom_site_label
_atom_site_type_symbol
_atom_site_fract_x
_atom_site_fract_y
_atom_site_fract_z
O1	O	1.373298	-0.243485	-0.079095
O2	O	1.873298	0.256515	0.420905
O3	O	1.084466	-0.148748	-0.079110
O4	O	1.584466	0.351252	0.420890
O5	O	1.195733	-0.334355	-0.079101
O6	O	1.695733	0.165645	0.420899
O7	O	1.262031	-0.057877	-0.079103
O8	O	1.762031	0.442123	0.420897
O9	O	1.195712	-0.334358	0.079220
O10	O	1.695712	0.165642	0.579220
O11	O	1.084445	-0.148751	0.079212
O12	O	1.584445	0.351249	0.579212
O13	O	1.373277	-0.243488	0.079226
O14	O	1.873277	0.256512	0.579226
Zn15	Zn	1.228857	-0.196120	0.104356
Zn16	Zn	1.728857	0.303880	0.604356
Zn17	Zn	1.228885	-0.196116	-0.104239
Zn18	Zn	1.728885	0.303884	0.395761
O19	O	1.262009	-0.057881	0.079218
O20	O	1.762009	0.442119	0.579218
C21	C	1.046733	-0.139145	0.000049
C22	C	1.546733	0.360855	0.500049
C23	C	0.934328	-0.110538	0.000043
C24	C	1.434328	0.389462	0.500043
C25	C	0.895277	-0.008684	0.000041
C26	C	1.395277	0.491316	0.500041
C27	C	0.789668	0.018197	0.000049
C28	C	1.289668	0.518197	0.500049
C29	C	0.723099	-0.056774	0.000053
C30	C	1.223099	0.443226	0.500053
C31	C	0.762150	-0.158631	0.000049
C32	C	1.262150	0.341369	0.500049
C33	C	0.867770	-0.185514	0.000048
C34	C	1.367770	0.314486	0.500048
C35	C	0.695592	-0.233605	0.000060
C36	C	1.195592	0.266395	0.500060
C37	C	0.734643	-0.335461	0.000056
C38	C	1.234643	0.164539	0.500056
C39	C	0.840253	-0.362340	0.000054
C40	C	1.340253	0.137660	0.500054
C41	C	0.906821	-0.287369	0.000051
C42	C	1.406821	0.212631	0.500051
C43	C	0.589973	-0.206722	0.000061
C44	C	1.089973	0.293278	0.500061
C45	C	0.562466	-0.383552	0.000068
C46	C	1.062466	0.116448	0.500068
C47	C	0.668075	-0.410432	0.000060
C48	C	1.168075	0.089568	0.500060
C49	C	1.184524	-0.368997	0.000058
C50	C	1.684524	0.131003	0.500058
C51	C	1.151143	-0.472211	0.000052
C52	C	1.651143	0.027789	0.500052
C53	C	1.410697	-0.907668	0.000066
C54	C	1.910697	-0.407668	0.500066
C55	C	1.442064	-0.810695	0.000076
C56	C	1.942064	-0.310695	0.500076
C57	C	1.369336	-0.726069	0.000070
C58	C	1.869336	-0.226069	0.500070
C59	C	1.265237	-0.738426	0.000054
C60	C	1.765237	-0.238426	0.500054
C61	C	1.233867	-0.835408	0.000051
C62	C	1.733867	-0.335408	0.500051
C63	C	1.192506	-0.653810	0.000055
C64	C	1.692506	-0.153810	0.500055
C65	C	1.088406	-0.666166	0.000039
C66	C	1.588406	-0.166166	0.500039
C67	C	1.057042	-0.763140	0.000035
C68	C	1.557042	-0.263140	0.500035
C69	C	1.129770	-0.847766	0.000041
C70	C	1.629770	-0.347766	0.500041
C71	C	1.223876	-0.556827	0.000058
C72	C	1.723876	-0.056827	0.500058
C73	C	1.047045	-0.484568	0.000043
C74	C	1.547045	0.015432	0.500043
C75	C	1.015679	-0.581541	0.000032
C76	C	1.515679	-0.081541	0.500032
C77	C	1.411010	-0.253091	0.000066
C78	C	1.911010	0.246909	0.500066
C79	C	1.523415	-0.281698	0.000065
C80	C	2.023415	0.218302	0.500065
C81	C	1.273219	-0.023239	0.000057
C82	C	1.773219	0.476761	0.500057
C83	C	1.306600	0.079975	0.000056
C84	C	1.806600	0.579975	0.500056
N85	N	1.228846	-0.196126	0.246717
N86	N	1.728846	0.303874	0.746717
N87	N	1.228903	-0.196120	-0.246600
N88	N	1.728903	0.303880	0.253400
C89	C	1.278144	-0.278292	0.296538
C90	C	1.778144	0.221708	0.796538
C91	C	1.278151	-0.278295	0.396196
C92	C	1.778151	0.221705	0.896196
C93	C	1.228864	-0.196126	0.446030
C94	C	1.728864	0.303874	0.946030
C95	C	1.179559	-0.113955	0.396201
C96	C	1.679559	0.386045	0.896201
C97	C	1.179547	-0.113957	0.296546
C98	C	1.679547	0.386043	0.796546
C99	C	1.179591	-0.113956	0.603916
C100	C	1.679591	0.386044	1.103916
C101	C	1.179604	-0.113953	0.703578
C102	C	1.679604	0.386047	1.203578
C103	C	1.278194	-0.278294	0.703566
C104	C	1.778194	0.221706	1.203566
C105	C	1.278182	-0.278296	0.603910
C106	C	1.778182	0.221704	1.103910
C107	C	1.228878	-0.196123	0.554089
C108	C	1.728878	0.303877	1.054089
H109	H	0.949485	0.052346	0.000045
H110	H	1.449485	0.552346	0.500045
H111	H	1.139402	-0.047049	0.255982
H112	H	1.639402	0.452951	0.755982
H113	H	1.139423	-0.047053	0.436782
H114	H	1.639423	0.452947	0.936782
H115	H	0.992818	-0.309250	0.000047
H116	H	1.492818	0.190750	0.500047
H117	H	1.139438	-0.047044	0.563354
H118	H	1.639438	0.452956	1.063354
H119	H	0.872044	-0.445278	0.000063
H120	H	1.372044	0.054722	0.500063
H121	H	0.699886	-0.493365	0.000057
H122	H	1.199886	0.006635	0.500057
H123	H	1.318284	-0.345200	0.255970
H124	H	1.818284	0.154800	0.755970
H125	H	0.508265	-0.444600	0.000027
H126	H	1.008265	0.055400	0.500027
H127	H	0.930919	-0.591616	0.000019
H128	H	1.430919	-0.091616	0.500019
H129	H	0.558188	-0.123789	0.000065
H130	H	1.058188	0.376211	0.500065
H131	H	0.972278	-0.773195	0.000029
H132	H	1.472278	-0.273195	0.500029
H133	H	1.394881	-0.647111	0.000079
H134	H	1.894881	-0.147111	0.500079
H135	H	0.637108	-0.034882	0.000061
H136	H	1.137108	0.465118	0.500061
H137	H	1.308634	-0.546778	0.000071
H138	H	1.808634	-0.046778	0.500071
H139	H	1.469901	-0.976575	0.000079
H140	H	1.969901	-0.476575	0.500079
H141	H	1.139469	-0.047044	0.744148
H142	H	1.639469	0.452956	1.244148
H143	H	0.757880	0.101128	0.000052
H144	H	1.257880	0.601128	0.500052
H145	H	1.526821	-0.800642	0.000091
H146	H	2.026821	-0.300642	0.500091
H147	H	0.987824	-0.415664	0.000042
H148	H	1.487824	0.084336	0.500042
H149	H	1.104236	-0.926732	0.000029
H150	H	1.604236	-0.426732	0.500029
H151	H	1.318293	-0.345201	0.436761
H152	H	1.818293	0.154799	0.936761
H153	H	1.318321	-0.345200	0.563336
H154	H	1.818321	0.154800	1.063336
H155	H	1.318338	-0.345202	0.744137
H156	H	1.818338	0.154798	1.244137
