data_functionalizedCrystal
_audit_creation_method	'MofGen! by Chris Wilmer'
_symmetry_space_group_name_H-M	'P1'
_symmetry_Int_Tables_number	1
_symmetry_cell_setting	triclinic
loop_
_symmetry_equiv_pos_as_xyz
  x,y,z
_cell_length_a	9.065215
_cell_length_b	17.038274
_cell_length_c	7.540329
_cell_angle_alpha	90.011707
_cell_angle_beta	89.997574
_cell_angle_gamma	91.936758
loop_
_atom_site_label
_atom_site_type_symbol
_atom_site_fract_x
_atom_site_fract_y
_atom_site_fract_z
O1	O	1.971910	-0.114731	-0.147499
O2	O	1.543569	-0.124145	-0.147511
O3	O	1.755194	-0.005604	-0.147456
O4	O	1.760286	-0.233272	-0.147554
O5	O	1.755180	-0.005603	0.147509
O6	O	1.543556	-0.124143	0.147454
O7	O	1.971897	-0.114729	0.147466
Cu8	Cu	1.757725	-0.119436	0.174393
Cu9	Cu	1.757741	-0.119438	-0.174438
O10	O	1.760272	-0.233270	0.147411
C11	C	1.488485	-0.123240	-0.000029
C12	C	1.324371	-0.120536	-0.000031
C13	C	1.750556	0.023558	0.000035
C14	C	1.736739	0.110451	0.000061
C15	C	1.863587	0.159650	0.000081
C16	C	1.850596	0.241294	0.000089
C17	C	1.710756	0.273738	0.000090
C18	C	1.583899	0.224532	0.000065
C19	C	1.596891	0.142890	0.000044
C20	C	1.664858	0.519827	0.000140
C21	C	1.651875	0.601476	0.000166
C22	C	1.918574	0.618232	0.000186
C23	C	1.931554	0.536587	0.000176
C24	C	1.804696	0.487389	0.000142
C25	C	1.697474	0.357191	0.000104
C26	C	1.817979	0.403937	0.000116
C27	C	2.026981	-0.115634	-0.000020
C28	C	2.191095	-0.118338	-0.000030
N29	N	1.757724	-0.119435	0.419741
C30	C	1.764909	0.737567	-0.000007
C31	C	1.778723	0.650675	0.000186
N32	N	1.757753	-0.119434	-0.419786
H33	H	1.977460	0.133241	0.000090
H34	H	1.953890	0.281349	0.000108
H35	H	2.045426	0.510178	0.000176
H36	H	1.470038	0.250954	0.000055
H37	H	2.021853	0.658297	0.000211
H38	H	1.583616	0.383616	0.000109
H39	H	1.931837	0.377518	0.000076
H40	H	1.561561	0.479779	0.000113
H41	H	1.537995	0.627888	0.000196
H42	H	1.493598	0.102832	0.000028
