data_functionalizedCrystal
_audit_creation_method	'MofGen! by Chris Wilmer'
_symmetry_space_group_name_H-M	'P1'
_symmetry_Int_Tables_number	1
_symmetry_cell_setting	triclinic
loop_
_symmetry_equiv_pos_as_xyz
  x,y,z
_cell_length_a	11.792241
_cell_length_b	9.065215
_cell_length_c	8.140239
_cell_angle_alpha	90.002190
_cell_angle_beta	89.996328
_cell_angle_gamma	95.395943
loop_
_atom_site_label
_atom_site_type_symbol
_atom_site_fract_x
_atom_site_fract_y
_atom_site_fract_z
O1	O	0.166414	-1.958841	-0.136595
O2	O	0.666414	-1.458841	0.363405
O3	O	0.180069	-1.529427	-0.136603
O4	O	0.680069	-1.029427	0.363397
O5	O	0.008129	-1.754555	-0.136587
O6	O	0.508129	-1.254555	0.363413
O7	O	0.338354	-1.733713	-0.136611
O8	O	0.838354	-1.233713	0.363389
O9	O	0.008127	-1.754542	0.136640
O10	O	0.508127	-1.254542	0.636640
O11	O	0.180067	-1.529415	0.136624
O12	O	0.680067	-1.029415	0.636624
O13	O	0.166412	-1.958828	0.136632
O14	O	0.666412	-1.458828	0.636632
Zn15	Zn	0.173239	-1.744120	0.180009
Zn16	Zn	0.673239	-1.244120	0.680009
Zn17	Zn	0.173242	-1.744136	-0.179980
Zn18	Zn	0.673242	-1.244136	0.320020
O19	O	0.338352	-1.733701	0.136616
O20	O	0.838352	-1.233701	0.636616
C21	C	-0.034171	-1.753239	0.000026
C22	C	0.465829	-1.253239	0.500026
C23	C	-0.160206	-1.749321	0.000024
C24	C	0.339794	-1.249321	0.500024
C25	C	0.178756	-1.474447	0.000010
C26	C	0.678756	-0.974447	0.500010
C27	C	0.174835	-1.310640	0.000007
C28	C	0.674835	-0.810640	0.500007
C29	C	0.167725	-2.013809	0.000015
C30	C	0.667725	-1.513809	0.500015
C31	C	0.171646	-2.177615	0.000007
C32	C	0.671646	-1.677615	0.500007
C33	C	-0.390958	-1.742116	-0.000004
C34	C	0.109042	-1.242116	0.499996
C35	C	-0.262551	-1.746119	0.000011
C36	C	0.237449	-1.246119	0.500011
C37	C	0.380652	-1.735016	-0.000000
C38	C	0.880652	-1.235016	0.500000
C39	C	0.506687	-1.738935	-0.000009
C40	C	1.006687	-1.238935	0.499991
N41	N	0.173237	-1.744119	0.425691
N42	N	0.673237	-1.244119	0.925691
N43	N	0.173235	-1.744148	-0.425662
N44	N	0.673235	-1.244148	0.074338
