data_functionalizedCrystal
_audit_creation_method	'MofGen! by Chris Wilmer'
_symmetry_space_group_name_H-M	'P1'
_symmetry_Int_Tables_number	1
_symmetry_cell_setting	triclinic
loop_
_symmetry_equiv_pos_as_xyz
  x,y,z
_cell_length_a	13.897449
_cell_length_b	16.120444
_cell_length_c	13.897441
_cell_angle_alpha	92.867240
_cell_angle_beta	89.978743
_cell_angle_gamma	92.927498
loop_
_atom_site_label
_atom_site_type_symbol
_atom_site_fract_x
_atom_site_fract_y
_atom_site_fract_z
Zn1	Zn	1.455153	-0.331871	-0.564897
Zn2	Zn	1.446848	-0.471301	-0.411769
Zn3	Zn	1.293846	-0.331908	-0.403610
Zn4	Zn	1.285622	-0.471248	-0.573011
O5	O	1.370367	-0.401582	-0.488322
O6	O	1.589033	-0.350374	-0.544603
O7	O	1.426518	-0.452848	-0.275707
O8	O	1.322161	-0.215237	-0.418195
O9	O	1.582931	-0.452813	-0.432101
O10	O	1.440673	-0.215210	-0.536692
O11	O	1.314108	-0.350436	-0.269713
O12	O	1.157774	-0.350384	-0.426063
O13	O	1.308145	-0.452722	-0.706914
O14	O	1.151732	-0.452757	-0.550521
O15	O	1.432698	-0.350322	-0.700953
O16	O	1.418544	-0.587960	-0.439968
O17	O	1.300092	-0.587921	-0.558432
C18	C	1.119754	-0.401569	-0.488288
C19	C	1.012539	-0.401584	-0.488297
C20	C	0.925469	-0.401586	-0.488313
C21	C	0.816236	-0.401592	-0.488343
C22	C	1.357550	-0.618191	-0.500987
C23	C	1.352156	-0.710857	-0.506438
C24	C	1.398590	-0.921799	-0.460255
C25	C	1.342324	-0.880514	-0.516399
C26	C	1.347796	-0.786108	-0.510855
C27	C	1.393119	-1.016213	-0.465798
C28	C	1.621959	-0.401595	-0.488357
C29	C	1.729173	-0.401601	-0.488372
C30	C	1.370431	-0.401512	-0.739911
C31	C	1.370457	-0.401482	-0.847123
C32	C	1.383261	-0.184127	-0.475628
C33	C	1.388755	-0.091461	-0.470219
C34	C	1.370479	-0.401459	-0.934192
C35	C	1.370508	-0.401421	-1.043422
C36	C	1.370363	-0.401592	-0.237708
C37	C	1.370537	-0.401386	-0.130483
H38	H	1.290043	-0.916069	-0.568630
H39	H	1.450866	-0.886247	-0.408027
