data_functionalizedCrystal
_audit_creation_method	'MofGen! by Chris Wilmer'
_symmetry_space_group_name_H-M	'P1'
_symmetry_Int_Tables_number	1
_symmetry_cell_setting	triclinic
loop_
_symmetry_equiv_pos_as_xyz
  x,y,z
_cell_length_a	10.540510
_cell_length_b	10.540510
_cell_length_c	8.140239
_cell_angle_alpha	89.998951
_cell_angle_beta	89.997029
_cell_angle_gamma	84.513311
loop_
_atom_site_label
_atom_site_type_symbol
_atom_site_fract_x
_atom_site_fract_y
_atom_site_fract_z
O1	O	1.685887	0.178721	-0.136614
O2	O	1.316467	0.195616	-0.136614
O3	O	1.509625	0.002459	-0.136613
O4	O	1.492729	0.371878	-0.136615
O5	O	1.509614	0.002456	0.136614
O6	O	1.316457	0.195614	0.136613
O7	O	1.685876	0.178719	0.136613
Zn8	Zn	1.501165	0.187166	0.179994
Zn9	Zn	1.501179	0.187169	-0.179995
O10	O	1.492719	0.371876	0.136612
C11	C	1.269159	0.194356	-0.000001
C12	C	1.128209	0.190589	-0.000001
C13	C	0.910739	0.324775	-0.000629
C14	C	1.057334	0.328793	-0.000003
C15	C	1.083451	0.119841	0.156021
C16	C	0.936690	0.116802	0.156142
C17	C	0.936896	0.113926	-0.154568
C18	C	1.083237	0.120481	-0.156620
C19	C	1.508361	-0.044846	-0.000003
C20	C	1.504594	-0.185795	-0.000013
C21	C	1.638780	-0.403265	0.000613
C22	C	1.642798	-0.256670	-0.000012
C23	C	1.433853	-0.230545	-0.156036
C24	C	1.430814	-0.377306	-0.156158
C25	C	1.427923	-0.377117	0.154552
C26	C	1.434478	-0.230776	0.156606
C27	C	1.733185	0.179979	-0.000004
C28	C	1.874135	0.183746	-0.000014
C29	C	1.493983	0.419181	-0.000001
C30	C	1.497750	0.560130	-0.000002
N31	N	1.501164	0.187163	0.425676
N32	N	1.501189	0.187162	-0.425677
H33	H	1.111854	0.171957	-0.272045
H34	H	0.867222	0.378307	0.110629
H35	H	1.692618	-0.445227	0.112505
O36	O	0.888485	0.174391	0.295225
C37	C	0.754932	0.172420	0.297126
H38	H	0.727093	0.091663	0.215540
H39	H	0.721693	0.156850	0.428231
H40	H	0.708017	0.267151	0.249146
H41	H	0.868784	0.378619	-0.112522
H42	H	1.130851	0.018098	0.161825
H43	H	1.471838	-0.419304	0.272818
H44	H	1.327445	-0.400290	-0.163227
O45	O	1.702452	-0.455208	-0.132243
C46	C	1.620117	-0.524562	-0.225714
H47	H	1.517025	-0.487379	-0.199186
H48	H	1.640916	-0.512601	-0.361979
H49	H	1.635831	-0.629785	-0.191562
O50	O	1.120284	0.178637	0.294385
C51	C	1.186565	0.283660	0.250689
H52	H	1.157875	0.316344	0.121301
H53	H	1.161899	0.364991	0.340938
H54	H	1.293515	0.254571	0.254494
H55	H	1.479167	-0.417525	-0.272787
H56	H	1.132316	0.019582	-0.166042
H57	H	1.698478	-0.228270	-0.112047
O58	O	0.909413	-0.006566	0.164393
C59	C	0.962511	-0.074069	0.027343
H60	H	1.044934	-0.023355	-0.023349
H61	H	0.998999	-0.174916	0.066181
H62	H	0.886540	-0.078523	-0.071623
H63	H	1.698148	-0.227333	0.111829
O64	O	1.312528	-0.173843	-0.162765
C65	C	1.289722	-0.092707	-0.026077
H66	H	1.384246	-0.064032	0.022736
H67	H	1.226711	-0.003770	-0.064682
H68	H	1.239766	-0.144707	0.074243
O69	O	1.091266	0.395381	0.133480
C70	C	1.152591	0.501584	0.081559
H71	H	1.122702	0.527390	-0.049759
H72	H	1.124389	0.585916	0.165923
H73	H	1.260269	0.477325	0.086530
H74	H	1.482989	-0.199693	-0.272148
H75	H	1.485952	-0.202171	0.272030
O76	O	0.886180	0.166223	-0.295502
C77	C	0.793056	0.266749	-0.256537
H78	H	0.812137	0.304275	-0.128434
H79	H	0.797125	0.346801	-0.350005
H80	H	0.694607	0.230460	-0.259665
O81	O	0.910262	-0.009794	-0.155923
C82	C	0.777144	-0.014767	-0.161840
H83	H	0.730189	0.077961	-0.215642
H84	H	0.754214	-0.098108	-0.242290
H85	H	0.739385	-0.028176	-0.032378
O86	O	1.314087	-0.172314	0.168137
C87	C	1.254816	-0.215462	0.310158
H88	H	1.330774	-0.253152	0.402210
H89	H	1.192011	-0.133133	0.367541
H90	H	1.193734	-0.294988	0.275567
O91	O	1.092259	0.395034	-0.133295
C92	C	1.031997	0.520266	-0.127318
H93	H	1.005066	0.545791	0.005062
H94	H	1.099851	0.589506	-0.175785
H95	H	0.942347	0.526769	-0.206397
H96	H	1.324159	-0.399256	0.155603
