data_functionalizedCrystal
_audit_creation_method	'MofGen! by Chris Wilmer'
_symmetry_space_group_name_H-M	'P1'
_symmetry_Int_Tables_number	1
_symmetry_cell_setting	triclinic
loop_
_symmetry_equiv_pos_as_xyz
  x,y,z
_cell_length_a	16.992694
_cell_length_b	11.026607
_cell_length_c	15.455313
_cell_angle_alpha	93.255562
_cell_angle_beta	87.142206
_cell_angle_gamma	99.627120
loop_
_atom_site_label
_atom_site_type_symbol
_atom_site_fract_x
_atom_site_fract_y
_atom_site_fract_z
O1	O	1.079936	0.255850	-0.072014
O2	O	1.579936	0.755850	0.427986
O3	O	0.851247	0.252986	-0.072040
O4	O	1.351247	0.752986	0.427960
O5	O	0.946638	0.075927	-0.072026
O6	O	1.446638	0.575927	0.427974
O7	O	0.984545	0.432909	-0.072028
O8	O	1.484545	0.932909	0.427972
O9	O	0.941177	0.086007	0.072235
O10	O	1.441177	0.586007	0.572235
O11	O	0.845786	0.263067	0.072221
O12	O	1.345786	0.763067	0.572221
O13	O	1.074474	0.265931	0.072247
O14	O	1.574474	0.765931	0.572247
Cu15	Cu	0.959632	0.265419	0.085406
Cu16	Cu	1.459632	0.765419	0.585406
Cu17	Cu	0.966090	0.253498	-0.085199
Cu18	Cu	1.466090	0.753498	0.414801
O19	O	0.979084	0.442990	0.072233
O20	O	1.479084	0.942990	0.572233
C21	C	0.818785	0.254344	0.000087
C22	C	1.318785	0.754344	0.500087
C23	C	0.730190	0.243358	0.000077
C24	C	1.230190	0.743358	0.500077
C25	C	0.936914	0.035078	0.000103
C26	C	1.436914	0.535078	0.500103
C27	C	0.916067	-0.101658	0.000097
C28	C	1.416067	0.398342	0.500097
C29	C	0.694911	0.349355	0.000078
C30	C	1.194911	0.849355	0.500078
C31	C	0.611666	0.339026	0.000090
C32	C	1.111666	0.839026	0.500090
C33	C	0.563702	0.222699	0.000095
C34	C	1.063702	0.722699	0.500095
C35	C	0.598986	0.116694	0.000098
C36	C	1.098986	0.616694	0.500098
C37	C	0.682229	0.127024	0.000092
C38	C	1.182229	0.627024	0.500092
C39	C	0.314060	0.179884	0.000119
C40	C	0.814060	0.679884	0.500119
C41	C	0.230811	0.169561	0.000122
C42	C	0.730811	0.669561	0.500122
C43	C	0.243497	0.391895	0.000115
C44	C	0.743497	0.891895	0.500115
C45	C	0.326741	0.402215	0.000104
C46	C	0.826741	0.902215	0.500104
C47	C	0.362018	0.296210	0.000111
C48	C	0.862018	0.796210	0.500111
N49	N	0.478612	0.212138	0.000105
N50	N	0.978612	0.712138	0.500105
N51	N	0.447106	0.306772	0.000108
N52	N	0.947106	0.806772	0.500108
C53	C	0.973629	-0.169881	0.000103
C54	C	1.473629	0.330119	0.500103
C55	C	0.952084	-0.311205	0.000097
C56	C	1.452084	0.188795	0.500097
C57	C	1.106937	0.264572	0.000118
C58	C	1.606937	0.764572	0.500118
C59	C	1.195532	0.275558	0.000122
C60	C	1.695532	0.775558	0.500122
C61	C	0.988808	0.483838	0.000102
C62	C	1.488808	0.983838	0.500102
C63	C	1.009655	0.620574	0.000102
C64	C	1.509655	1.120574	0.500102
N65	N	0.955095	0.273804	0.205401
N66	N	1.455095	0.773804	0.705401
N67	N	0.970632	0.245104	-0.205194
N68	N	1.470632	0.745104	0.294806
C69	C	0.995642	0.198614	0.250801
C70	C	1.495642	0.698614	0.750801
C71	C	0.992220	0.204967	0.341609
C72	C	1.492220	0.704967	0.841609
C73	C	0.948255	0.286517	0.387014
C74	C	1.448255	0.786517	0.887014
C75	C	0.907702	0.361709	0.341608
C76	C	1.407702	0.861709	0.841608
C77	C	0.911120	0.355349	0.250802
C78	C	1.411120	0.855349	0.750802
C79	C	0.933497	0.313936	0.658594
C80	C	1.433497	0.813936	1.158594
C81	C	0.930084	0.320293	0.749406
C82	C	1.430084	0.820293	1.249406
C83	C	1.014601	0.163549	0.749400
C84	C	1.514601	0.663549	1.249400
C85	C	1.018019	0.157201	0.658593
C86	C	1.518019	0.657201	1.158593
C87	C	0.977463	0.232389	0.613194
C88	C	1.477463	0.732389	1.113194
N89	N	0.944758	0.293015	0.479834
N90	N	1.444758	0.793015	0.979834
N91	N	0.980956	0.225883	0.520376
N92	N	1.480956	0.725883	1.020376
H93	H	0.582946	0.425341	0.000089
H94	H	1.082946	0.925341	0.500089
H95	H	1.074893	-0.333219	0.000044
H96	H	1.574893	0.166781	0.500044
C97	C	1.098475	0.007965	0.740272
C98	C	1.598475	0.507965	1.240272
C99	C	1.059167	0.080889	0.799303
C100	C	1.559167	0.580889	1.299303
H101	H	1.125989	-0.043067	0.771081
H102	H	1.625989	0.456933	1.271081
H103	H	1.060466	-0.041999	0.704862
H104	H	1.560466	0.458001	1.204862
H105	H	1.135638	0.059509	0.704848
H106	H	1.635638	0.559509	1.204848
H107	H	1.021999	0.029344	0.834723
H108	H	1.521999	0.529344	1.334723
H109	H	1.097179	0.130857	0.834728
H110	H	1.597179	0.630857	1.334728
C111	C	1.076129	0.049431	0.332482
C112	C	1.576129	0.549431	0.832482
C113	C	1.036806	0.122336	0.391512
C114	C	1.536806	0.622336	0.891512
H115	H	1.103662	-0.001574	0.363292
H116	H	1.603662	0.498426	0.863292
H117	H	1.038127	-0.000559	0.297079
H118	H	1.538127	0.499441	0.797079
H119	H	1.113278	0.100988	0.297051
H120	H	1.613278	0.600988	0.797051
H121	H	0.999654	0.070779	0.426940
H122	H	1.499654	0.570779	0.926940
H123	H	1.074813	0.172331	0.426930
H124	H	1.574813	0.672331	0.926930
H125	H	0.850837	-0.147876	0.000084
H126	H	1.350837	0.352124	0.500084
H127	H	1.053819	0.090797	0.621625
H128	H	1.553819	0.590797	1.121625
H129	H	0.886850	-0.357418	0.000084
H130	H	1.386850	0.142582	0.500084
H131	H	0.894281	0.386706	0.786371
H132	H	1.394281	0.886706	1.286371
C133	C	0.901214	0.373808	0.519406
C134	C	1.401214	0.873808	1.019406
C135	C	0.888935	0.396603	0.608698
C136	C	1.388935	0.896603	1.108698
H137	H	0.873701	0.424846	0.488602
H138	H	1.373701	0.924846	0.988602
H139	H	0.956716	0.391310	0.504522
H140	H	1.456716	0.891310	1.004522
H141	H	0.881541	0.289808	0.504536
H142	H	1.381541	0.789808	1.004536
H143	H	0.908614	0.480601	0.623569
H144	H	1.408614	0.980601	1.123569
H145	H	0.833422	0.379109	0.623588
H146	H	1.333422	0.879109	1.123588
H147	H	0.871900	0.428105	0.378583
H148	H	1.371900	0.928105	0.878583
H149	H	0.342772	0.093566	0.000125
H150	H	0.842772	0.593566	0.500125
H151	H	0.365789	0.496940	0.000090
H152	H	0.865789	0.996940	0.500090
H153	H	0.710952	0.040709	0.000091
H154	H	1.210952	0.540709	0.500091
C155	C	0.827246	0.510934	0.259923
C156	C	1.327246	1.010934	0.759923
C157	C	0.866554	0.438006	0.200895
C158	C	1.366554	0.938006	0.700895
H159	H	0.799734	0.561967	0.229111
H160	H	1.299734	1.061967	0.729111
H161	H	0.790088	0.459402	0.295347
H162	H	1.290088	0.959402	0.795347
H163	H	0.865261	0.560909	0.295333
H164	H	1.365261	1.060909	0.795333
H165	H	0.828538	0.388025	0.165489
H166	H	1.328538	0.888025	0.665489
H167	H	0.903715	0.489544	0.165456
H168	H	1.403715	0.989544	0.665456
H169	H	0.733959	0.444082	0.000072
H170	H	1.233959	0.944082	0.500072
H171	H	0.559926	0.021978	0.000115
H172	H	1.059926	0.521978	0.500115
C173	C	0.121524	0.474786	0.000129
C174	C	0.621524	0.974786	0.500129
C175	C	0.204718	0.508411	0.000119
C176	C	0.704718	1.008411	0.500119
H177	H	0.097585	0.546724	0.000139
H178	H	0.597585	1.046724	0.500139
H179	H	0.107177	0.423915	-0.050175
H180	H	0.607177	0.923915	0.449825
H181	H	0.103388	0.430931	0.050440
H182	H	0.603388	0.930931	0.550440
H183	H	0.222855	0.552259	-0.050195
H184	H	0.722855	1.052259	0.449805
H185	H	0.219071	0.559302	0.050428
H186	H	0.719071	1.059302	0.550428
H187	H	0.191760	0.074828	0.000126
H188	H	0.691760	0.574828	0.500126
H189	H	1.038860	-0.123663	0.000115
H190	H	1.538860	0.376337	0.500115
H191	H	1.031448	0.132213	0.213838
H192	H	1.531448	0.632213	0.713838
