data_functionalizedCrystal
_audit_creation_method	'MofGen! by Chris Wilmer'
_symmetry_space_group_name_H-M	'P1'
_symmetry_Int_Tables_number	1
_symmetry_cell_setting	triclinic
loop_
_symmetry_equiv_pos_as_xyz
  x,y,z
_cell_length_a	15.995350
_cell_length_b	14.044220
_cell_length_c	12.503572
_cell_angle_alpha	93.835250
_cell_angle_beta	93.525550
_cell_angle_gamma	91.659374
loop_
_atom_site_label
_atom_site_type_symbol
_atom_site_fract_x
_atom_site_fract_y
_atom_site_fract_z
O1	O	0.197434	-1.263165	-0.089196
O2	O	0.697434	-0.763165	0.410804
O3	O	0.190148	-0.987198	-0.089224
O4	O	0.690148	-0.487198	0.410776
O5	O	0.072467	-1.132725	-0.089208
O6	O	0.572467	-0.632725	0.410792
O7	O	0.315115	-1.117638	-0.089212
O8	O	0.815115	-0.617638	0.410788
O9	O	0.081333	-1.121781	0.089432
O10	O	0.581333	-0.621781	0.589432
O11	O	0.199014	-0.976253	0.089417
O12	O	0.699014	-0.476253	0.589417
O13	O	0.206300	-1.252221	0.089445
O14	O	0.706300	-0.752221	0.589445
Cu15	Cu	0.203467	-1.113237	0.105742
Cu16	Cu	0.703467	-0.613237	0.605742
Cu17	Cu	0.192981	-1.126181	-0.105521
Cu18	Cu	0.692981	-0.626181	0.394479
O19	O	0.323981	-1.106693	0.089429
O20	O	0.823981	-0.606693	0.589429
C21	C	0.191392	-0.946411	0.000093
C22	C	0.691392	-0.446411	0.500093
C23	C	0.181881	-0.841186	0.000082
C24	C	0.681881	-0.341186	0.500082
C25	C	0.045658	-1.126629	0.000110
C26	C	0.545658	-0.626629	0.500110
C27	C	-0.047432	-1.124760	0.000104
C28	C	0.452568	-0.624760	0.500104
N29	N	0.210842	-1.104141	0.254333
N30	N	0.710842	-0.604141	0.754333
C31	C	-0.385681	-1.118044	0.000107
C32	C	0.114319	-0.618044	0.500107
C33	C	-0.346008	-1.014426	-0.000304
C34	C	0.153992	-0.514426	0.499696
C35	C	-0.249158	-1.016272	0.000099
C36	C	0.250842	-0.516272	0.500099
C37	C	-0.217872	-1.121375	0.000105
C38	C	0.282128	-0.621375	0.500105
C39	C	-0.250068	-1.166245	0.102120
C40	C	0.249932	-0.666245	0.602120
C41	C	-0.346894	-1.163636	0.102206
C42	C	0.153106	-0.663636	0.602206
C43	C	-0.357175	-1.178223	-0.100942
C44	C	0.142825	-0.678223	0.399058
C45	C	-0.260298	-1.178281	-0.102290
C46	C	0.239702	-0.678281	0.397710
C47	C	-0.123033	-1.123263	0.000107
C48	C	0.376967	-0.623263	0.500107
C49	C	-0.480519	-1.116158	0.000111
C50	C	0.019481	-0.616158	0.500111
C51	C	0.350789	-1.112789	0.000108
C52	C	0.850789	-0.612789	0.500108
C53	C	0.443879	-1.114659	0.000108
C54	C	0.943879	-0.614659	0.500108
C55	C	0.205055	-1.293007	0.000125
C56	C	0.705055	-0.793007	0.500125
C57	C	0.214567	-1.398233	0.000129
C58	C	0.714567	-0.898233	0.500129
C59	C	0.164494	-0.648523	0.000104
C60	C	0.664494	-0.148523	0.500104
C61	C	0.231950	-0.590890	0.000107
C62	C	0.731950	-0.090890	0.500107
C63	C	0.222276	-0.483686	0.000119
C64	C	0.722276	0.016314	0.500119
C65	C	0.174167	-0.755737	0.000092
C66	C	0.674167	-0.255737	0.500092
N67	N	0.185600	-1.135285	-0.254113
N68	N	0.685600	-0.635285	0.245887
C69	C	0.221698	-1.090759	0.473447
C70	C	0.721698	-0.590759	0.973447
C71	C	0.174747	-1.148663	0.526780
C72	C	0.674747	-0.648663	1.026780
C73	C	0.180787	-1.141218	0.648703
C74	C	0.680787	-0.641218	1.148703
C75	C	0.215658	-1.098204	0.351514
C76	C	0.715658	-0.598204	0.851514
H77	H	-0.227367	-0.980568	-0.073031
H78	H	0.272633	-0.480568	0.426969
H79	H	0.130016	-1.203829	0.480873
H80	H	0.630016	-0.703829	0.980873
Cl81	Cl	0.332332	-0.639012	0.000099
Cl82	Cl	0.832332	-0.139012	0.500099
Cl83	Cl	0.290760	-1.005596	0.544318
Cl84	Cl	0.790760	-0.505596	1.044318
H85	H	-0.383262	-1.254680	-0.101623
H86	H	0.116738	-0.754680	0.398377
Cl87	Cl	0.064118	-0.600400	0.000107
Cl88	Cl	0.564118	-0.100400	0.500107
Cl89	Cl	-0.205183	-0.946883	0.113183
Cl90	Cl	0.294817	-0.446883	0.613183
H91	H	-0.365072	-0.968729	0.072438
H92	H	0.134928	-0.468729	0.572438
Cl93	Cl	-0.385001	-0.957383	-0.113256
Cl94	Cl	0.114999	-0.457383	0.386744
H95	H	-0.373229	-1.239445	0.106839
H96	H	0.126771	-0.739445	0.606839
Cl97	Cl	-0.373609	-1.098866	0.219932
Cl98	Cl	0.126391	-0.598866	0.719932
Cl99	Cl	-0.204531	-1.104248	0.219327
Cl100	Cl	0.295469	-0.604248	0.719327
Cl101	Cl	-0.227797	-1.128190	-0.218828
Cl102	Cl	0.272203	-0.628190	0.281172
H103	H	-0.384083	-1.149075	-0.178264
H104	H	0.115917	-0.649075	0.321736
Cl105	Cl	-0.228211	-1.297200	-0.111801
Cl106	Cl	0.271789	-0.797200	0.388199
Cl107	Cl	-0.219065	-1.285103	0.107991
Cl108	Cl	0.280935	-0.785103	0.607991
