data_functionalizedCrystal
_audit_creation_method	'MofGen! by Chris Wilmer'
_symmetry_space_group_name_H-M	'P1'
_symmetry_Int_Tables_number	1
_symmetry_cell_setting	triclinic
loop_
_symmetry_equiv_pos_as_xyz
  x,y,z
_cell_length_a	18.215407
_cell_length_b	29.839132
_cell_length_c	18.215399
_cell_angle_alpha	89.966912
_cell_angle_beta	90.017368
_cell_angle_gamma	89.957293
loop_
_atom_site_label
_atom_site_type_symbol
_atom_site_fract_x
_atom_site_fract_y
_atom_site_fract_z
Zn1	Zn	1.124968	0.178889	0.416041
Zn2	Zn	1.624968	0.678889	0.916041
Zn3	Zn	1.124832	0.254018	0.292964
Zn4	Zn	1.624832	0.754018	0.792964
Zn5	Zn	1.001900	0.178899	0.292994
Zn6	Zn	1.501900	0.678899	0.792994
Zn7	Zn	1.001822	0.253989	0.415994
Zn8	Zn	1.501822	0.753989	0.915994
O9	O	1.063381	0.216449	0.354498
O10	O	1.563381	0.716449	0.854498
O11	O	1.227934	0.188862	0.399722
O12	O	1.727934	0.688862	0.899722
O13	O	1.108501	0.244070	0.189983
O14	O	1.608501	0.744070	0.689983
O15	O	1.018315	0.116031	0.309349
O16	O	1.518315	0.616031	0.809349
O17	O	1.227835	0.244059	0.309297
O18	O	1.727835	0.744059	0.809297
O19	O	1.108732	0.116023	0.399751
O20	O	1.608732	0.616023	0.899751
O21	O	1.018183	0.188881	0.190005
O22	O	1.518183	0.688881	0.690005
O23	O	0.898906	0.188853	0.309303
O24	O	1.398906	0.688853	0.809303
O25	O	1.018182	0.244010	0.518985
O26	O	1.518182	0.744010	1.018985
O27	O	0.898848	0.244021	0.399671
O28	O	1.398848	0.744021	0.899671
O29	O	1.108656	0.188834	0.519019
O30	O	1.608656	0.688834	1.019019
O31	O	1.108426	0.316881	0.309252
O32	O	1.608426	0.816881	0.809252
O33	O	1.018051	0.316860	0.399642
O34	O	1.518051	0.816860	0.899642
C35	C	0.872174	0.216435	0.354485
C36	C	1.372174	0.716435	0.854485
C37	C	0.790376	0.216440	0.354497
C38	C	1.290376	0.716440	0.854497
C39	C	0.602232	0.187758	0.401656
C40	C	1.102232	0.687758	0.901656
C41	C	0.525374	0.187762	0.401658
C42	C	1.025374	0.687762	0.901658
C43	C	0.525281	0.245152	0.307354
C44	C	1.025281	0.745152	0.807354
C45	C	0.602138	0.245146	0.307348
C46	C	1.102138	0.745146	0.807348
C47	C	0.640612	0.216449	0.354503
C48	C	1.140612	0.716449	0.854503
C49	C	0.486896	0.216460	0.354511
C50	C	0.986896	0.716460	0.854511
C51	C	0.403562	0.216464	0.354514
C52	C	0.903562	0.716464	0.854514
C53	C	0.723951	0.216444	0.354500
C54	C	1.223951	0.716444	0.854500
C55	C	1.063235	0.333171	0.354454
C56	C	1.563235	0.833171	0.854454
C57	C	1.063240	0.383106	0.354460
C58	C	1.563240	0.883106	0.854460
C59	C	1.110472	0.692748	0.307471
C60	C	1.610472	1.192748	0.807471
C61	C	1.110542	0.880421	0.307488
C62	C	1.610542	1.380421	0.807488
O63	O	1.150622	0.904684	0.267523
O64	O	1.650622	1.404684	0.767523
N65	N	1.063458	0.903891	0.354510
N66	N	1.563458	1.403891	0.854510
C67	C	1.016356	0.880440	0.401535
C68	C	1.516356	1.380440	0.901535
O69	O	0.976314	0.904709	0.441537
O70	O	1.476314	1.404709	0.941537
C71	C	1.016290	0.692768	0.401522
C72	C	1.516290	1.192768	0.901522
C73	C	1.063372	0.669300	0.354491
C74	C	1.563372	1.169300	0.854491
C75	C	1.157551	0.669280	0.260444
C76	C	1.657551	1.169280	0.760444
C77	C	1.157530	0.622364	0.260438
C78	C	1.657530	1.122364	0.760438
C79	C	1.110430	0.598917	0.307458
C80	C	1.610430	1.098917	0.807458
C81	C	1.063351	0.622384	0.354484
C82	C	1.563351	1.122384	0.854484
C83	C	0.969192	0.669318	0.448550
C84	C	1.469192	1.169318	0.948550
C85	C	0.969181	0.622397	0.448544
C86	C	1.469181	1.122397	0.948544
C87	C	1.016263	0.598929	0.401513
C88	C	1.516263	1.098929	0.901513
C89	C	1.016230	0.552021	0.401498
C90	C	1.516230	1.052021	0.901498
N91	N	1.063315	0.528551	0.354475
N92	N	1.563315	1.028551	0.854475
C93	C	1.110415	0.551999	0.307455
C94	C	1.610415	1.051999	0.807455
C95	C	1.016393	0.978970	0.401538
C96	C	1.516393	1.478970	0.901538
C97	C	1.016408	1.025888	0.401541
C98	C	1.516408	1.525888	0.901541
C99	C	1.110596	1.025866	0.307494
C100	C	1.610596	1.525866	0.807494
C101	C	1.110576	0.978947	0.307488
C102	C	1.610576	1.478947	0.807488
C103	C	1.063477	0.955500	0.354515
C104	C	1.563477	1.455500	0.854515
C105	C	1.110367	0.453473	0.307445
C106	C	1.610367	0.953473	0.807445
C107	C	1.110340	0.406553	0.307440
C108	C	1.610340	0.906553	0.807440
C109	C	1.016155	0.406580	0.401490
C110	C	1.516155	0.906580	0.901490
C111	C	1.016179	0.453495	0.401492
C112	C	1.516179	0.953495	0.901492
C113	C	1.063291	0.476941	0.354467
C114	C	1.563291	0.976941	0.854467
O115	O	0.976178	0.527729	0.441448
O116	O	1.476178	1.027729	0.941448
O117	O	1.150462	0.527722	0.267471
O118	O	1.650462	1.027722	0.767471
C119	C	1.110493	0.739663	0.307477
C120	C	1.610493	1.239663	0.807477
C121	C	1.063414	0.763131	0.354504
C122	C	1.563414	1.263131	0.854504
C123	C	1.016314	0.739683	0.401524
C124	C	1.516314	1.239683	0.901524
C125	C	1.063429	0.810049	0.354507
C126	C	1.563429	1.310049	0.854507
C127	C	1.110529	0.833496	0.307486
C128	C	1.610529	1.333496	0.807486
C129	C	1.157614	0.810026	0.260464
C130	C	1.657614	1.310026	0.760464
C131	C	1.157593	0.763111	0.260457
C132	C	1.657593	1.263111	0.760457
C133	C	0.969229	0.763153	0.448547
C134	C	1.469229	1.263153	0.948547
C135	C	0.969253	0.810069	0.448549
C136	C	1.469253	1.310069	0.948549
C137	C	1.016353	0.833516	0.401529
C138	C	1.516353	1.333516	0.901529
C139	C	1.255334	0.216463	0.354512
C140	C	1.755334	0.716463	0.854512
C141	C	1.337132	0.216469	0.354517
C142	C	1.837132	0.716469	0.854517
C143	C	1.063426	0.216418	0.546451
C144	C	1.563426	0.716418	1.046451
C145	C	1.063445	0.216405	0.628250
C146	C	1.563445	0.716405	1.128250
C147	C	1.063519	1.099270	0.354542
C148	C	1.563519	1.599270	0.854542
C149	C	1.063508	1.049336	0.354521
C150	C	1.563508	1.549336	0.854521
C151	C	1.063378	0.216447	0.163292
C152	C	1.563378	0.716447	0.663292
C153	C	1.063502	0.216334	0.081493
C154	C	1.563502	0.716334	0.581493
C155	C	1.110572	0.187648	0.816463
C156	C	1.610572	0.687648	1.316463
C157	C	1.110580	0.187634	0.893322
C158	C	1.610580	0.687634	1.393322
C159	C	1.016370	0.245092	0.893275
C160	C	1.516370	0.745092	1.393275
C161	C	1.016358	0.245103	0.816417
C162	C	1.516358	0.745103	1.316417
C163	C	1.063463	0.216381	0.778014
C164	C	1.563463	0.716381	1.278014
C165	C	1.063484	0.216357	0.931730
C166	C	1.563484	0.716357	1.431730
C167	C	1.063493	0.216343	1.015064
C168	C	1.563493	0.716343	1.515064
C169	C	1.063453	0.216394	0.694675
C170	C	1.563453	0.716394	1.194675
H171	H	0.493946	0.268516	0.268962
H172	H	0.993946	0.768516	0.768962
H173	H	1.148947	1.044965	0.269208
H174	H	1.648947	1.544965	0.769208
O175	O	0.923562	0.692155	0.494280
O176	O	1.423562	1.192155	0.994280
C177	C	0.965449	0.719238	0.541866
C178	C	1.465449	1.219238	1.041866
H179	H	1.021231	0.726252	0.515952
H180	H	1.521231	1.226252	1.015952
H181	H	0.935475	0.752241	0.551725
H182	H	1.435475	1.252241	1.051725
H183	H	0.973511	0.701123	0.596400
H184	H	1.473511	1.201123	1.096400
O185	O	1.156398	0.159809	0.779123
O186	O	1.656398	0.659809	1.279123
C187	C	1.203880	0.185391	0.734642
C188	C	1.703880	0.685391	1.234642
H189	H	1.208388	0.220771	0.757782
H190	H	1.708388	0.720771	1.257782
H191	H	1.260534	0.169142	0.733786
H192	H	1.760534	0.669142	1.233786
H193	H	1.181113	0.186946	0.676389
H194	H	1.681113	0.686946	1.176389
H195	H	0.633555	0.164390	0.440050
H196	H	1.133555	0.664390	0.940050
O197	O	0.639458	0.272955	0.261465
O198	O	1.139458	0.772955	0.761465
C199	C	0.683937	0.247337	0.214020
C200	C	1.183937	0.747337	0.714020
H201	H	0.660806	0.211953	0.209580
H202	H	1.160806	0.711953	0.709580
H203	H	0.684776	0.263542	0.157336
H204	H	1.184776	0.763542	0.657336
H205	H	0.742195	0.245800	0.236777
H206	H	1.242195	0.745800	0.736777
O207	O	1.156308	0.159661	0.930589
O208	O	1.656308	0.659661	1.430589
C209	C	1.140271	0.114887	0.911839
C210	C	1.640271	0.614887	1.411839
H211	H	1.111973	0.113965	0.856032
H212	H	1.611973	0.613965	1.356032
H213	H	1.193412	0.094747	0.909225
H214	H	1.693412	0.594747	1.409225
H215	H	1.102464	0.099745	0.955097
H216	H	1.602464	0.599745	1.455097
O217	O	1.203239	0.599622	0.214656
O218	O	1.703239	1.099622	0.714656
C219	C	1.187195	0.611119	0.141294
C220	C	1.687195	1.111119	0.641294
H221	H	1.158907	0.645198	0.139749
H222	H	1.658907	1.145198	0.639749
H223	H	1.240332	0.612714	0.108349
H224	H	1.740332	1.112714	0.608349
H225	H	1.149376	0.584742	0.116461
H226	H	1.649376	1.084742	0.616461
O227	O	0.488206	0.159878	0.447533
O228	O	0.988206	0.659878	0.947533
C229	C	0.538648	0.134541	0.489135
C230	C	1.038648	0.634541	0.989135
H231	H	0.593416	0.152942	0.491624
H232	H	1.093416	0.652942	0.991624
H233	H	0.516467	0.129796	0.547134
H234	H	1.016467	0.629796	1.047134
H235	H	0.546849	0.100400	0.462289
H236	H	1.046849	0.600400	0.962289
O237	O	0.970571	0.273059	0.779176
O238	O	1.470571	0.773059	1.279176
C239	C	0.928990	0.298402	0.829551
C240	C	1.428990	0.798402	1.329551
H241	H	0.959138	0.299954	0.884343
H242	H	1.459138	0.799954	1.384343
H243	H	0.921089	0.333800	0.807320
H244	H	1.421089	0.833800	1.307320
H245	H	0.873121	0.281947	0.837726
H246	H	1.373121	0.781947	1.337726
H247	H	1.148680	0.387447	0.269139
H248	H	1.648680	0.887447	0.769139
O249	O	0.970687	0.272978	0.930696
O250	O	1.470687	0.772978	1.430696
C251	C	0.980786	0.266801	1.006777
C252	C	1.480786	0.766801	1.506777
H253	H	1.037602	0.252090	1.017291
H254	H	1.537602	0.752090	1.517291
H255	H	0.975753	0.300448	1.035966
H256	H	1.475753	0.800448	1.535966
H257	H	0.937170	0.242872	1.028596
H258	H	1.437170	0.742872	1.528596
O259	O	0.923435	0.740330	0.494119
O260	O	1.423435	1.240330	0.994119
C261	C	0.875901	0.713248	0.452172
C262	C	1.375901	1.213248	0.952172
H263	H	0.901890	0.706221	0.396426
H264	H	1.401890	1.206221	0.896426
H265	H	0.865998	0.680251	0.482138
H266	H	1.365998	1.180251	0.982138
H267	H	0.821381	0.731370	0.444034
H268	H	1.321381	1.231370	0.944034
H269	H	1.148732	0.472557	0.269154
H270	H	1.648732	0.972557	0.769154
H271	H	1.195910	0.688366	0.222155
H272	H	1.695910	1.188366	0.722155
H273	H	1.148915	0.959842	0.269192
H274	H	1.648915	1.459842	0.769192
H275	H	1.195962	0.829125	0.222176
H276	H	1.695962	1.329125	0.722176
O277	O	0.923465	0.599669	0.494331
O278	O	1.423465	1.099669	0.994331
C279	C	0.939530	0.611088	0.567693
C280	C	1.439530	1.111088	1.067693
H281	H	0.967834	0.645136	0.569242
H282	H	1.467834	1.145136	1.069242
H283	H	0.886402	0.612714	0.600650
H284	H	1.386402	1.112714	1.100650
H285	H	0.977343	0.584650	0.592508
H286	H	1.477343	1.084650	1.092508
O287	O	0.970419	0.476225	0.447243
O288	O	1.470419	0.976225	0.947243
C289	C	0.928828	0.445466	0.488727
C290	C	1.428828	0.945466	0.988727
H291	H	0.958952	0.412001	0.491289
H292	H	1.458952	0.912001	0.991289
H293	H	0.920955	0.459000	0.546708
H294	H	1.420955	0.959000	1.046708
H295	H	0.872946	0.440526	0.461730
H296	H	1.372946	0.940526	0.961730
H297	H	0.978062	1.044992	0.439831
H298	H	1.478062	1.544992	0.939831
H299	H	0.930907	0.829172	0.486846
H300	H	1.430907	1.329172	0.986846
O301	O	0.970514	0.383776	0.447243
O302	O	1.470514	0.883776	0.947243
C303	C	1.012389	0.356586	0.494786
C304	C	1.512389	0.856586	0.994786
H305	H	1.070350	0.370695	0.499378
H306	H	1.570350	0.870695	0.999378
H307	H	0.985748	0.356041	0.551402
H308	H	1.485748	0.856041	1.051402
H309	H	1.014931	0.321037	0.472023
H310	H	1.514931	0.821037	0.972023
O311	O	0.970562	0.956267	0.447242
O312	O	1.470562	1.456267	0.947242
C313	C	0.929024	0.987049	0.488750
C314	C	1.429024	1.487049	0.988750
H315	H	0.926517	1.020505	0.458601
H316	H	1.426517	1.520505	0.958601
H317	H	0.871027	0.973529	0.496544
H318	H	1.371027	1.473529	0.996544
H319	H	0.955938	0.992003	0.544669
H320	H	1.455938	1.492003	1.044669
H321	H	1.195932	0.744007	0.222160
H322	H	1.695932	1.244007	0.722160
