data_functionalizedCrystal
_audit_creation_method	'MofGen! by Chris Wilmer'
_symmetry_space_group_name_H-M	'P1'
_symmetry_Int_Tables_number	1
_symmetry_cell_setting	triclinic
loop_
_symmetry_equiv_pos_as_xyz
  x,y,z
_cell_length_a	14.853566
_cell_length_b	14.519731
_cell_length_c	13.930277
_cell_angle_alpha	89.994465
_cell_angle_beta	89.995631
_cell_angle_gamma	83.661634
loop_
_atom_site_label
_atom_site_type_symbol
_atom_site_fract_x
_atom_site_fract_y
_atom_site_fract_z
O1	O	1.196425	0.120398	-0.079770
O2	O	0.933972	0.134742	-0.079786
O3	O	1.072147	-0.006670	-0.079768
O4	O	1.058250	0.261810	-0.079787
O5	O	1.072128	-0.006673	0.079893
O6	O	0.933953	0.134739	0.079876
O7	O	1.196406	0.120395	0.079892
Zn8	Zn	1.065176	0.127566	0.105234
Zn9	Zn	1.065201	0.127570	-0.105127
O10	O	1.058231	0.261807	0.079875
C11	C	0.900373	0.134091	0.000043
C12	C	0.800289	0.132144	0.000037
C13	C	0.377110	0.123910	-0.086977
C14	C	0.377111	0.123907	0.087093
C15	C	0.471146	0.125736	0.087090
C16	C	0.518167	0.126653	0.000052
C17	C	0.471154	0.125741	-0.086983
C18	C	0.518165	0.126657	0.174123
C19	C	0.612206	0.128486	0.174123
C20	C	0.659229	0.129397	0.087084
C21	C	0.612210	0.128484	0.000046
C22	C	0.659232	0.129401	-0.086991
C23	C	0.612215	0.128482	-0.174031
C24	C	0.518178	0.126652	-0.174021
C25	C	0.753267	0.131227	0.087075
C26	C	0.753275	0.131232	-0.086997
C27	C	1.071486	-0.041031	0.000063
C28	C	1.069535	-0.143410	0.000063
C29	C	1.067949	-0.226554	0.000061
C30	C	1.065968	-0.330862	0.000053
C31	C	1.064396	-0.414000	0.000047
C32	C	1.062415	-0.518315	0.000041
C33	C	1.230004	0.121046	0.000061
C34	C	1.330089	0.122993	0.000061
C35	C	1.058891	0.296168	0.000042
C36	C	1.060843	0.398547	0.000035
N37	N	1.065165	0.127563	0.248800
N38	N	1.065219	0.127566	-0.248693
C39	C	1.004015	0.190163	0.701062
C40	C	1.126412	0.064971	0.701046
C41	C	1.126402	0.064968	0.600551
C42	C	1.065198	0.127564	0.550306
C43	C	1.004004	0.190164	0.600557
C44	C	1.187600	0.002376	0.550292
C45	C	1.187593	0.002371	0.449790
C46	C	1.126383	0.064964	0.399544
C47	C	1.065187	0.127565	0.449801
C48	C	1.003983	0.190162	0.399556
C49	C	0.942781	0.252760	0.449811
C50	C	0.942795	0.252757	0.550310
C51	C	1.126369	0.064967	0.299045
C52	C	1.003972	0.190163	0.299051
H53	H	0.791543	0.131984	0.157941
Br54	Br	1.270669	-0.082566	0.618478
Br55	Br	0.313311	0.122630	-0.205096
Br56	Br	1.209481	-0.019971	0.769232
H57	H	0.479888	0.125903	-0.244884
H58	H	0.338819	0.123167	0.157955
Br59	Br	0.920953	0.275108	0.769258
H60	H	0.892968	0.303723	0.591234
Br61	Br	1.209430	-0.019973	0.230847
H62	H	1.237425	-0.048600	0.408879
H63	H	0.650511	0.129235	-0.244897
Br64	Br	0.454345	0.125428	0.292238
Br65	Br	0.817084	0.132466	-0.205126
Br66	Br	0.920897	0.275113	0.230869
H67	H	0.892952	0.303730	0.408890
Br68	Br	0.676006	0.129733	0.292244
