data_functionalizedCrystal
_audit_creation_method	'MofGen! by Chris Wilmer'
_symmetry_space_group_name_H-M	'P1'
_symmetry_Int_Tables_number	1
_symmetry_cell_setting	triclinic
loop_
_symmetry_equiv_pos_as_xyz
  x,y,z
_cell_length_a	17.699083
_cell_length_b	9.065215
_cell_length_c	8.140239
_cell_angle_alpha	89.997429
_cell_angle_beta	90.003310
_cell_angle_gamma	84.148856
loop_
_atom_site_label
_atom_site_type_symbol
_atom_site_fract_x
_atom_site_fract_y
_atom_site_fract_z
O1	O	1.005528	0.186555	-0.136380
O2	O	1.505528	0.686555	0.363620
O3	O	0.785339	0.210827	-0.136433
O4	O	1.285339	0.710827	0.363567
O5	O	0.899986	-0.016086	-0.136398
O6	O	1.399986	0.483914	0.363602
O7	O	0.890881	0.413469	-0.136414
O8	O	1.390881	0.913469	0.363586
O9	O	0.899979	-0.016089	0.136829
O10	O	1.399979	0.483911	0.636829
O11	O	0.785332	0.210825	0.136794
O12	O	1.285332	0.710825	0.636794
O13	O	1.005521	0.186553	0.136848
O14	O	1.505521	0.686553	0.636848
Zn15	Zn	0.895426	0.198688	0.180202
Zn16	Zn	1.395426	0.698688	0.680202
Zn17	Zn	0.895434	0.198692	-0.179787
Zn18	Zn	1.395434	0.698692	0.320213
O19	O	0.890874	0.413466	0.136813
O20	O	1.390874	0.913466	0.636813
C21	C	0.757132	0.209956	0.000174
C22	C	1.257132	0.709956	0.500174
C23	C	0.673093	0.207347	0.000153
C24	C	1.173093	0.707347	0.500153
C25	C	0.899108	-0.071048	0.000214
C26	C	1.399108	0.428952	0.500214
C27	C	0.896493	-0.234814	0.000208
C28	C	1.396493	0.265186	0.500208
C29	C	0.625510	0.340541	0.000149
C30	C	1.125510	0.840541	0.500149
C31	C	0.546548	0.338080	0.000170
C32	C	1.046548	0.838080	0.500170
C33	C	0.515170	0.202425	0.000184
C34	C	1.015170	0.702425	0.500184
C35	C	0.562759	0.069221	0.000194
C36	C	1.062759	0.569221	0.500194
C37	C	0.641720	0.071683	0.000184
C38	C	1.141720	0.571683	0.500184
C39	C	0.244318	0.059290	0.000235
C40	C	0.744318	0.559290	0.500235
C41	C	0.165351	0.056838	0.000240
C42	C	0.665351	0.556838	0.500240
C43	C	0.149146	0.325687	0.000221
C44	C	0.649146	0.825687	0.500221
C45	C	0.228107	0.328149	0.000211
C46	C	0.728107	0.828149	0.500211
C47	C	0.275689	0.194946	0.000229
C48	C	0.775689	0.694946	0.500229
C49	C	0.361309	0.197615	0.000209
C50	C	0.861309	0.697615	0.500209
C51	C	0.429551	0.199754	0.000193
C52	C	0.929551	0.699754	0.500193
C53	C	1.033728	0.187424	0.000237
C54	C	1.533728	0.687424	0.500237
C55	C	1.117767	0.190033	0.000247
C56	C	1.617767	0.690033	0.500247
C57	C	0.891752	0.468428	0.000197
C58	C	1.391752	0.968428	0.500197
C59	C	0.894367	0.632194	0.000192
C60	C	1.394367	1.132194	0.500192
N61	N	0.895426	0.198685	0.425884
N62	N	1.395426	0.698685	0.925884
N63	N	0.895440	0.198683	-0.425469
N64	N	1.395440	0.698683	0.074531
H65	H	0.651052	0.451007	0.000136
H66	H	1.151052	0.951007	0.500136
H67	H	0.110395	0.434147	0.000215
H68	H	0.610395	0.934147	0.500215
H69	H	0.139807	-0.053636	0.000253
H70	H	0.639807	0.446364	0.500253
H71	H	0.537205	-0.041232	0.000229
H72	H	1.037205	0.458768	0.500229
C73	C	0.296649	-0.087238	0.000244
C74	C	0.796649	0.412762	0.500244
N75	N	0.336067	-0.197610	0.000249
N76	N	0.836067	0.302390	0.500249
C77	C	0.494209	0.484604	0.000194
C78	C	0.994209	0.984604	0.500194
N79	N	0.454788	0.594973	0.000225
N80	N	0.954788	1.094973	0.500225
H81	H	0.253651	0.438613	0.000192
H82	H	0.753651	0.938613	0.500192
C83	C	0.694061	-0.074840	0.000184
C84	C	1.194061	0.425160	0.500184
N85	N	0.733484	-0.185207	0.000188
N86	N	1.233484	0.314793	0.500188
